AV-unprocessed.smi:2724|AV-procd|sdf|10513|dock10
  -GOLD-   2272014553D 1   1.00000     0.00000
 Structure written by MMmdl.
 26 27  0  0  0  0  0  0  0  0  2 V2000
  151.2610  140.5104  158.8009 O   0  0  0  0  0  0  0  0  0  0  0  0
  152.6744  140.4978  158.8706 C   0  0  2  0  0  0  0  0  0  0  0  0
  153.1364  139.5336  159.9745 C   0  0  0  0  0  0  0  0  0  0  0  0
  154.3868  140.1779  160.5704 C   0  0  0  0  0  0  0  0  0  0  0  0
  154.0765  141.6722  160.5260 C   0  0  0  0  0  0  0  0  0  0  0  0
  153.3254  141.8671  159.1981 C   0  0  2  0  0  0  0  0  0  0  0  0
  152.4003  143.0823  159.1675 C   0  0  0  0  0  0  0  0  0  0  0  0
  152.3066  143.9322  160.2931 C   0  0  0  0  0  0  0  0  0  0  0  0
  151.4500  145.0520  160.2515 C   0  0  0  0  0  0  0  0  0  0  0  0
  150.7023  145.3014  159.0832 C   0  0  0  0  0  0  0  0  0  0  0  0
  150.8160  144.4713  158.0240 N   0  3  0  0  0  0  0  0  0  0  0  0
  151.6242  143.3888  158.0253 C   0  0  0  0  0  0  0  0  0  0  0  0
  151.0047  140.7651  157.9277 H   0  0  0  0  0  0  0  0  0  0  0  0
  153.0467  140.1518  157.9052 H   0  0  0  0  0  0  0  0  0  0  0  0
  152.3770  139.4570  160.7548 H   0  0  0  0  0  0  0  0  0  0  0  0
  153.3221  138.5268  159.5993 H   0  0  0  0  0  0  0  0  0  0  0  0
  154.6019  139.8227  161.5786 H   0  0  0  0  0  0  0  0  0  0  0  0
  155.2531  139.9584  159.9450 H   0  0  0  0  0  0  0  0  0  0  0  0
  153.4387  141.9111  161.3771 H   0  0  0  0  0  0  0  0  0  0  0  0
  154.9681  142.2956  160.6012 H   0  0  0  0  0  0  0  0  0  0  0  0
  154.0930  142.0303  158.4395 H   0  0  0  0  0  0  0  0  0  0  0  0
  152.8851  143.7323  161.1834 H   0  0  0  0  0  0  0  0  0  0  0  0
  151.3684  145.7102  161.1043 H   0  0  0  0  0  0  0  0  0  0  0  0
  150.0240  146.1338  158.9640 H   0  0  0  0  0  0  0  0  0  0  0  0
  151.6315  142.8099  157.1132 H   0  0  0  0  0  0  0  0  0  0  0  0
  150.2690  144.6706  157.1859 H   0  0  0  0  0  0  0  0  0  0  0  0
  1  2  1  0  0  0  0
  1 13  1  0  0  0  0
  2  6  1  0  0  0  0
  2  3  1  0  0  0  0
  2 14  1  0  0  0  0
  3  4  1  0  0  0  0
  3 15  1  0  0  0  0
  3 16  1  0  0  0  0
  4  5  1  0  0  0  0
  4 17  1  0  0  0  0
  4 18  1  0  0  0  0
  5  6  1  0  0  0  0
  5 19  1  0  0  0  0
  5 20  1  0  0  0  0
  6  7  1  0  0  0  0
  6 21  1  0  0  0  0
  7 12  1  0  0  0  0
  7  8  2  0  0  0  0
  8  9  1  0  0  0  0
  8 22  1  0  0  0  0
  9 10  2  0  0  0  0
  9 23  1  0  0  0  0
 10 11  1  0  0  0  0
 10 24  1  0  0  0  0
 11 12  2  0  0  0  0
 11 26  1  0  0  0  0
 12 25  1  0  0  0  0
M  CHG  1  11   1
M  END
> <s_m_source_file>
AV-unprocessed.smi

> <i_m_source_file_index>
2724

> <i_lp_mmshare_version>
43012

> <i_f3d_flags>
0

> <s_epik_input>
W09IXVtDQEBIXTFbQ0gyXVtDSDJdW0NIMl1bQ0BIXTFjMltjSF1bY0hdW2NIXW5bY0hdMg==

> <s_epik_cmdline>
J2VwaWtfcHl0aG9uJywgJy1waCcsICc3LjAnLCAnLXRuJywgJzgnLCAnLW1hJywgJzIwMCcsICctbWV0YWxfYmluZGluZycsICctaW1hZScsICc8aW5maWxlLm1hZT4nLCAnLW9tYWUnLCAnPG91dGZpbGUubWFlPic=

> <r_epik_Ionization_Penalty>
2.09455

> <r_epik_Ionization_Penalty_Charging>
2.09455

> <r_epik_Ionization_Penalty_Neutral>
5.26757e-08

> <r_epik_State_Penalty>
2.23025

> <r_epik_Charging_Adjusted_Penalty>
4.3248

> <i_epik_Tot_Q>
1

> <i_epik_Tot_abs_Q>
1

> <r_epik_Metal_State_Penalty>
6.30911

> <b_epik_Metal_Only>
0

> <s_lp_Force_Field>
OPLS_2005

> <r_lp_Energy>
31.8011

> <b_lp_Chiralities_Consistent>
1

> <s_lp_Variant>
AV-unprocessed.smi:2724-7

> <Gold.Version>
5.8.1

> <Gold.Id.Protein>
6NUR|6NUR_protein|mol2

> <Gold.PLP.Fitness>
36.3382

> <Gold.PLP.PLP>
-30.3768

> <Gold.PLP.part.hbond>
-1.0000

> <Gold.PLP.part.metal>
0.0000

> <Gold.PLP.part.buried>
-4.3287

> <Gold.PLP.part.nonpolar>
-25.7377

> <Gold.PLP.part.repulsive>
0.0820

> <Gold.PLP.ligand.clash>
0.0000

> <Gold.PLP.ligand.torsion>
0.0285

> <Gold.PLP.Chemscore.Hbond>
2.0000

> <Gold.PLP.Chemscore.CHOScore>
0.0000

> <Gold.PLP.Chemscore.Metal>
0.0000

> <Gold.Chemscore.Hbonds>
donor molecule, donor type, donor heavy atom, donor atom, acceptor molecule, acceptor atom, score
      L1  H    11    26       P1  8028  2.00

> <Gold.PLP.Chemscore.Internal.Correction>
0.0185

> <Gold.Rescore>
     Score         DG    S(hbond)    S(metal)    S(lipo)     H(rot)  DE(clash)    DE(int)     intcor
     16.06     -17.10       0.93        0.00     102.22       1.35       0.09       0.95       ----

> <Gold.Chemscore.Fitness>
16.0609

> <Gold.Chemscore.DG>
-17.0968

> <Gold.Chemscore.ZeroCoef>
-5.4800

> <Gold.Chemscore.Hbond>
0.9319

> <Gold.Chemscore.Metal>
0.0000

> <Gold.Chemscore.Lipo>
102.2177

> <Gold.Chemscore.Internal_Hbond>
0.0000

> <Gold.Chemscore.DEClash>
0.0875

> <Gold.Chemscore.DEInternal>
0.9485

> <Gold.Chemscore.Rot>
1.3496

> <Gold.Chemscore.Internal.Correction>
   9.000000E+99

> <Gold.Chemscore.Hbonds>
donor molecule, donor type, donor heavy atom, donor atom, acceptor molecule, acceptor atom, score
      L1  H    11    26       P1  8028  0.42

> <Gold.Chemscore.Hbond.Weighted>
-3.1124

> <Gold.Chemscore.Metal.Weighted>
-0.0000

> <Gold.Chemscore.Lipo.Weighted>
-11.9595

> <Gold.Chemscore.Internal_Hbond.Weighted>
0.0000

> <Gold.Chemscore.DEClash.Weighted>
0.0875

> <Gold.Chemscore.DEInternal.Weighted>
0.9485

> <Gold.Chemscore.Rot.Weighted>
3.4550

> <Gold.Chemscore.Internal.Correction.Weighted>
   9.000000E+99

> <Gold.Protein.RotatedTorsions>
[ 6907 6896 6895 6894 ] final -119.98 input  -60.11 | X-H torsion
[ 7974 7965 7964 7962 ] final  140.85 input  175.53 | X-H torsion
[ 8008 7997 7996 7995 ] final -103.38 input   59.86 | X-H torsion
[ 10167 10162 10161 10158 ] final -143.78 input  -65.29 | X-H torsion
[ 10718 10713 10712 10709 ] final  -69.30 input   66.30 | X-H torsion
[ 10763 10752 10751 10750 ] final -148.46 input  -60.55 | X-H torsion
[ 11005 11000 10999 10996 ] final  -95.67 input  -57.11 | X-H torsion

> <Gold.Protein.ActiveResidues>
 VAL166  LYS551  ARG553  GLY616  TRP617  ASP618  TYR619  PRO620  LYS621  CYS622 
 ASP623  PHE694  ASN695  SER759  ASP760  ASP761  ALA762  ILE779  LEU786  VAL792 
 PHE793  MET794  SER795  GLU796  ALA797  LYS798  CYS799  TRP800  GLU811  SER814 

> <Gold.Protein.RotatedAtoms>
  150.8353  133.8024  159.3081 H   0  0  0  0  0  0  0  0  0  0  0  0  # atno 6907 bound_to 6896
  151.5742  135.1059  160.0011 H   0  0  0  0  0  0  0  0  0  0  0  0  # atno 6908 bound_to 6896
  152.4426  133.7435  159.6710 H   0  0  0  0  0  0  0  0  0  0  0  0  # atno 6909 bound_to 6896
  144.9149  139.5244  143.5691 H   0  0  0  0  0  0  0  0  0  0  0  0  # atno 7974 bound_to 7965
  154.8701  140.0423  157.1719 H   0  0  0  0  0  0  0  0  0  0  0  0  # atno 8008 bound_to 7997
  154.8748  140.2964  155.5439 H   0  0  0  0  0  0  0  0  0  0  0  0  # atno 8009 bound_to 7997
  156.2999  140.2422  156.3742 H   0  0  0  0  0  0  0  0  0  0  0  0  # atno 8010 bound_to 7997
  139.7961  143.7899  152.2654 H   0  0  0  0  0  0  0  0  0  0  0  0  # atno 10167 bound_to 10162
  156.0462  130.4310  150.2128 H   0  0  0  0  0  0  0  0  0  0  0  0  # atno 10718 bound_to 10713
  154.8232  135.3334  154.6977 H   0  0  0  0  0  0  0  0  0  0  0  0  # atno 10763 bound_to 10752
  153.7606  135.6933  153.4930 H   0  0  0  0  0  0  0  0  0  0  0  0  # atno 10764 bound_to 10752
  153.2112  135.4481  155.0332 H   0  0  0  0  0  0  0  0  0  0  0  0  # atno 10765 bound_to 10752
  141.1435  133.8042  157.0466 H   0  0  0  0  0  0  0  0  0  0  0  0  # atno 11005 bound_to 11000
  146.3177  139.7984  142.8971 LP  0  0  0  0  0  0  0  0  0  0  0  0  # atno 17320 bound_to 7965
  145.3393  141.0284  143.3402 LP  0  0  0  0  0  0  0  0  0  0  0  0  # atno 17321 bound_to 7965
  139.8004  144.7376  150.9832 LP  0  0  0  0  0  0  0  0  0  0  0  0  # atno 17342 bound_to 10162
  140.7820  143.4350  151.0636 LP  0  0  0  0  0  0  0  0  0  0  0  0  # atno 17343 bound_to 10162
  157.0217  130.9981  151.3338 LP  0  0  0  0  0  0  0  0  0  0  0  0  # atno 17370 bound_to 10713
  157.5340  130.8076  149.7949 LP  0  0  0  0  0  0  0  0  0  0  0  0  # atno 17371 bound_to 10713
  140.0658  134.9729  157.1384 LP  0  0  0  0  0  0  0  0  0  0  0  0  # atno 17394 bound_to 11000
  140.3781  134.2316  155.7173 LP  0  0  0  0  0  0  0  0  0  0  0  0  # atno 17395 bound_to 11000

$$$$
