AV-unprocessed.smi:1993|AV-procd|sdf|8071|dock10
  -GOLD-   2272010283D 1   1.00000     0.00000
 Structure written by MMmdl.
 50 51  0  0  0  0  0  0  0  0  1 V2000
  146.9352  135.0894  162.8294 C   0  0  0  0  0  0  0  0  0  0  0  0
  147.1138  135.9626  161.5924 C   0  0  0  0  0  0  0  0  0  0  0  0
  147.4762  137.1328  161.7093 O   0  0  0  0  0  0  0  0  0  0  0  0
  146.8596  135.3789  160.4106 N   0  0  0  0  0  0  0  0  0  0  0  0
  146.9803  136.0238  159.1020 C   0  0  1  0  0  0  0  0  0  0  0  0
  148.4506  136.4352  158.8992 C   0  0  0  0  0  0  0  0  0  0  0  0
  149.3555  135.6107  159.0410 O   0  0  0  0  0  0  0  0  0  0  0  0
  148.6681  137.7125  158.5521 N   0  0  0  0  0  0  0  0  0  0  0  0
  149.9759  138.2916  158.2710 C   0  0  0  0  0  0  0  0  0  0  0  0
  150.2375  138.4509  156.7789 C   0  0  0  0  0  0  0  0  0  0  0  0
  150.1781  137.3202  155.9372 C   0  0  0  0  0  0  0  0  0  0  0  0
  150.4148  137.4772  154.5595 C   0  0  0  0  0  0  0  0  0  0  0  0
  150.7028  138.7661  154.0748 C   0  0  0  0  0  0  0  0  0  0  0  0
  150.7613  139.8573  154.8663 N   0  0  0  0  0  0  0  0  0  0  0  0
  150.5348  139.7089  156.1943 C   0  0  0  0  0  0  0  0  0  0  0  0
  150.5868  140.8636  156.9919 N   0  0  0  0  0  0  0  0  0  0  0  0
  151.6332  140.8128  158.0033 C   0  0  0  0  0  0  0  0  0  0  0  0
  151.7460  142.1743  158.7095 C   0  0  0  0  0  0  0  0  0  0  0  0
  150.4799  142.5369  159.2540 O   0  0  0  0  0  0  0  0  0  0  0  0
  149.4757  142.6504  158.2491 C   0  0  0  0  0  0  0  0  0  0  0  0
  149.3058  141.2985  157.5348 C   0  0  0  0  0  0  0  0  0  0  0  0
  146.5503  135.0102  157.9999 C   0  0  0  0  0  0  0  0  0  0  0  0
  147.3309  133.6810  158.0630 C   0  0  0  0  0  0  0  0  0  0  0  0
  146.6890  135.6062  156.5851 C   0  0  0  0  0  0  0  0  0  0  0  0
  146.0211  134.4990  162.7587 H   0  0  0  0  0  0  0  0  0  0  0  0
  146.8756  135.7021  163.7295 H   0  0  0  0  0  0  0  0  0  0  0  0
  147.7799  134.4084  162.9348 H   0  0  0  0  0  0  0  0  0  0  0  0
  146.5749  134.4103  160.4123 H   0  0  0  0  0  0  0  0  0  0  0  0
  146.3333  136.9028  159.0590 H   0  0  0  0  0  0  0  0  0  0  0  0
  147.8696  138.3242  158.4649 H   0  0  0  0  0  0  0  0  0  0  0  0
  150.0345  139.2669  158.7546 H   0  0  0  0  0  0  0  0  0  0  0  0
  150.7612  137.6867  158.7272 H   0  0  0  0  0  0  0  0  0  0  0  0
  149.9503  136.3442  156.3400 H   0  0  0  0  0  0  0  0  0  0  0  0
  150.3755  136.6303  153.8907 H   0  0  0  0  0  0  0  0  0  0  0  0
  150.8894  138.9263  153.0232 H   0  0  0  0  0  0  0  0  0  0  0  0
  151.4033  140.0320  158.7296 H   0  0  0  0  0  0  0  0  0  0  0  0
  152.5843  140.5527  157.5404 H   0  0  0  0  0  0  0  0  0  0  0  0
  152.4785  142.1209  159.5149 H   0  0  0  0  0  0  0  0  0  0  0  0
  152.0893  142.9434  158.0156 H   0  0  0  0  0  0  0  0  0  0  0  0
  148.5373  142.9505  158.7154 H   0  0  0  0  0  0  0  0  0  0  0  0
  149.7445  143.4343  157.5394 H   0  0  0  0  0  0  0  0  0  0  0  0
  148.5744  141.3866  156.7306 H   0  0  0  0  0  0  0  0  0  0  0  0
  148.9282  140.5554  158.2384 H   0  0  0  0  0  0  0  0  0  0  0  0
  145.4949  134.7708  158.1415 H   0  0  0  0  0  0  0  0  0  0  0  0
  148.4008  133.8486  157.9398 H   0  0  0  0  0  0  0  0  0  0  0  0
  147.0122  133.0031  157.2710 H   0  0  0  0  0  0  0  0  0  0  0  0
  147.1794  133.1550  159.0058 H   0  0  0  0  0  0  0  0  0  0  0  0
  147.7178  135.9061  156.3828 H   0  0  0  0  0  0  0  0  0  0  0  0
  146.0539  136.4810  156.4456 H   0  0  0  0  0  0  0  0  0  0  0  0
  146.4000  134.8813  155.8235 H   0  0  0  0  0  0  0  0  0  0  0  0
  1  2  1  0  0  0  0
  1 25  1  0  0  0  0
  1 26  1  0  0  0  0
  1 27  1  0  0  0  0
  2  3  2  0  0  0  0
  2  4  1  0  0  0  0
  4  5  1  0  0  0  0
  4 28  1  0  0  0  0
  5  6  1  0  0  0  0
  5 22  1  0  0  0  0
  5 29  1  0  0  0  0
  6  7  2  0  0  0  0
  6  8  1  0  0  0  0
  8  9  1  0  0  0  0
  8 30  1  0  0  0  0
  9 10  1  0  0  0  0
  9 31  1  0  0  0  0
  9 32  1  0  0  0  0
 10 15  1  0  0  0  0
 10 11  2  0  0  0  0
 11 12  1  0  0  0  0
 11 33  1  0  0  0  0
 12 13  2  0  0  0  0
 12 34  1  0  0  0  0
 13 14  1  0  0  0  0
 13 35  1  0  0  0  0
 14 15  2  0  0  0  0
 15 16  1  0  0  0  0
 16 21  1  0  0  0  0
 16 17  1  0  0  0  0
 17 18  1  0  0  0  0
 17 36  1  0  0  0  0
 17 37  1  0  0  0  0
 18 19  1  0  0  0  0
 18 38  1  0  0  0  0
 18 39  1  0  0  0  0
 19 20  1  0  0  0  0
 20 21  1  0  0  0  0
 20 40  1  0  0  0  0
 20 41  1  0  0  0  0
 21 42  1  0  0  0  0
 21 43  1  0  0  0  0
 22 23  1  0  0  0  0
 22 24  1  0  0  0  0
 22 44  1  0  0  0  0
 23 45  1  0  0  0  0
 23 46  1  0  0  0  0
 23 47  1  0  0  0  0
 24 48  1  0  0  0  0
 24 49  1  0  0  0  0
 24 50  1  0  0  0  0
M  END
> <s_m_source_file>
AV-unprocessed.smi

> <i_m_source_file_index>
1993

> <i_lp_mmshare_version>
43012

> <i_f3d_flags>
0

> <s_epik_input>
W0NIM11DKD1PKVtOSF1bQ0BASF0oW0NIXShbQ0gzXSlbQ0gzXSlDKD1PKVtOSF1bQ0gyXWMxW2NIXVtjSF1bY0hdbmMxTjJbQ0gyXVtDSDJdT1tDSDJdW0NIMl0y

> <s_epik_cmdline>
J2VwaWtfcHl0aG9uJywgJy1waCcsICc3LjAnLCAnLXRuJywgJzgnLCAnLW1hJywgJzIwMCcsICctbWV0YWxfYmluZGluZycsICctaW1hZScsICc8aW5maWxlLm1hZT4nLCAnLW9tYWUnLCAnPG91dGZpbGUubWFlPic=

> <r_lp_tautomer_probability>
1

> <r_epik_Ionization_Penalty>
0.00485175

> <r_epik_Ionization_Penalty_Charging>
0

> <r_epik_Ionization_Penalty_Neutral>
0.00485175

> <r_epik_State_Penalty>
0.00351951

> <r_epik_Charging_Adjusted_Penalty>
0.00351951

> <i_epik_Tot_Q>
0

> <i_epik_Tot_abs_Q>
0

> <r_epik_Metal_State_Penalty>
-0

> <b_epik_Metal_Only>
0

> <s_lp_Force_Field>
OPLS_2005

> <r_lp_Energy>
18.9648

> <b_lp_Chiralities_Consistent>
1

> <s_lp_Variant>
AV-unprocessed.smi:1993-2

> <Gold.Version>
5.8.1

> <Gold.Id.Protein>
6NUR|6NUR_protein|mol2

> <Gold.PLP.Fitness>
42.2102

> <Gold.PLP.PLP>
-29.9807

> <Gold.PLP.part.hbond>
-4.7715

> <Gold.PLP.part.metal>
0.0000

> <Gold.PLP.part.buried>
-6.0905

> <Gold.PLP.part.nonpolar>
-20.2135

> <Gold.PLP.part.repulsive>
0.3245

> <Gold.PLP.ligand.clash>
0.0000

> <Gold.PLP.ligand.torsion>
0.3234

> <Gold.PLP.Chemscore.Hbond>
3.2363

> <Gold.PLP.Chemscore.CHOScore>
1.0000

> <Gold.PLP.Chemscore.Metal>
0.0000

> <Gold.Chemscore.Hbonds>
donor molecule, donor type, donor heavy atom, donor atom, acceptor molecule, acceptor atom, score
      P1  H  6896  6908       L1     7  1.00
      P1  H  6931  6943       L1     3  0.98
      P1  H  6934  6947       L1     3  0.74
      P1  H  7989  7998       L1    14  0.60
      L1  C    13    35       P1  7957  0.98

> <Gold.PLP.Chemscore.Internal.Correction>
0.1675

> <Gold.Rescore>
     Score         DG    S(hbond)    S(metal)    S(lipo)     H(rot)  DE(clash)    DE(int)     intcor
     17.74     -19.14       3.54        0.00      63.42       2.18       0.25       1.15       ----

> <Gold.Chemscore.Fitness>
17.7440

> <Gold.Chemscore.DG>
-19.1443

> <Gold.Chemscore.ZeroCoef>
-5.4800

> <Gold.Chemscore.Hbond>
3.5413

> <Gold.Chemscore.Metal>
0.0000

> <Gold.Chemscore.Lipo>
63.4240

> <Gold.Chemscore.Internal_Hbond>
0.0000

> <Gold.Chemscore.DEClash>
0.2460

> <Gold.Chemscore.DEInternal>
1.1544

> <Gold.Chemscore.Rot>
2.1813

> <Gold.Chemscore.Internal.Correction>
   9.000000E+99

> <Gold.Chemscore.Hbonds>
donor molecule, donor type, donor heavy atom, donor atom, acceptor molecule, acceptor atom, score
      P1  H  6896  6908       L1     7  1.00
      P1  H  6931  6943       L1     3  0.92
      P1  H  6934  6947       L1     3  0.70
      P1  H  7989  7998       L1    14  0.04

> <Gold.Chemscore.Hbond.Weighted>
-11.8279

> <Gold.Chemscore.Metal.Weighted>
-0.0000

> <Gold.Chemscore.Lipo.Weighted>
-7.4206

> <Gold.Chemscore.Internal_Hbond.Weighted>
0.0000

> <Gold.Chemscore.DEClash.Weighted>
0.2460

> <Gold.Chemscore.DEInternal.Weighted>
1.1544

> <Gold.Chemscore.Rot.Weighted>
5.5842

> <Gold.Chemscore.Internal.Correction.Weighted>
   9.000000E+99

> <Gold.Protein.RotatedTorsions>
[ 6907 6896 6895 6894 ] final -176.85 input  -60.11 | X-H torsion
[ 7974 7965 7964 7962 ] final -143.71 input  175.53 | X-H torsion
[ 8008 7997 7996 7995 ] final   86.23 input   59.86 | X-H torsion
[ 10167 10162 10161 10158 ] final    1.28 input  -65.29 | X-H torsion
[ 10718 10713 10712 10709 ] final   33.34 input   66.30 | X-H torsion
[ 10763 10752 10751 10750 ] final  160.40 input  -60.55 | X-H torsion
[ 11005 11000 10999 10996 ] final -133.59 input  -57.11 | X-H torsion

> <Gold.Protein.ActiveResidues>
 VAL166  LYS551  ARG553  GLY616  TRP617  ASP618  TYR619  PRO620  LYS621  CYS622 
 ASP623  PHE694  ASN695  SER759  ASP760  ASP761  ALA762  ILE779  LEU786  VAL792 
 PHE793  MET794  SER795  GLU796  ALA797  LYS798  CYS799  TRP800  GLU811  SER814 

> <Gold.Protein.RotatedAtoms>
  151.6115  133.3347  159.3068 H   0  0  0  0  0  0  0  0  0  0  0  0  # atno 6907 bound_to 6896
  150.8154  134.7336  159.6736 H   0  0  0  0  0  0  0  0  0  0  0  0  # atno 6908 bound_to 6896
  152.4250  134.5891  160.0020 H   0  0  0  0  0  0  0  0  0  0  0  0  # atno 6909 bound_to 6896
  144.8350  140.5801  143.5490 H   0  0  0  0  0  0  0  0  0  0  0  0  # atno 7974 bound_to 7965
  155.9601  140.3394  155.6483 H   0  0  0  0  0  0  0  0  0  0  0  0  # atno 8008 bound_to 7997
  155.6809  140.0737  157.2503 H   0  0  0  0  0  0  0  0  0  0  0  0  # atno 8009 bound_to 7997
  154.4141  140.1674  156.1969 H   0  0  0  0  0  0  0  0  0  0  0  0  # atno 8010 bound_to 7997
  140.6690  143.7100  150.7884 H   0  0  0  0  0  0  0  0  0  0  0  0  # atno 10167 bound_to 10162
  157.2966  130.7329  149.6642 H   0  0  0  0  0  0  0  0  0  0  0  0  # atno 10718 bound_to 10713
  154.2468  135.2773  155.2832 H   0  0  0  0  0  0  0  0  0  0  0  0  # atno 10763 bound_to 10752
  154.5498  135.5678  153.6916 H   0  0  0  0  0  0  0  0  0  0  0  0  # atno 10764 bound_to 10752
  152.9988  135.6272  154.2614 H   0  0  0  0  0  0  0  0  0  0  0  0  # atno 10765 bound_to 10752
  140.9066  134.1621  157.4421 H   0  0  0  0  0  0  0  0  0  0  0  0  # atno 11005 bound_to 11000
  145.4815  139.1495  143.3759 LP  0  0  0  0  0  0  0  0  0  0  0  0  # atno 17320 bound_to 7965
  146.2649  140.4951  142.8838 LP  0  0  0  0  0  0  0  0  0  0  0  0  # atno 17321 bound_to 7965
  140.0783  143.4994  152.2544 LP  0  0  0  0  0  0  0  0  0  0  0  0  # atno 17342 bound_to 10162
  139.5950  144.7564  151.3307 LP  0  0  0  0  0  0  0  0  0  0  0  0  # atno 17343 bound_to 10162
  155.9669  130.4292  150.4825 LP  0  0  0  0  0  0  0  0  0  0  0  0  # atno 17370 bound_to 10713
  157.2797  131.0604  151.2205 LP  0  0  0  0  0  0  0  0  0  0  0  0  # atno 17371 bound_to 10713
  139.8750  134.9919  156.5573 LP  0  0  0  0  0  0  0  0  0  0  0  0  # atno 17394 bound_to 11000
  140.8163  133.8389  155.8855 LP  0  0  0  0  0  0  0  0  0  0  0  0  # atno 17395 bound_to 11000

$$$$
