AV-unprocessed.smi:1797|AV-procd|sdf|7257|dock4
  -GOLD-   22720 8513D 1   1.00000     0.00000
 Structure written by MMmdl.
 29 30  0  0  0  0  0  0  0  0  2 V2000
  146.3075  142.5823  155.6190 C   0  0  0  0  0  0  0  0  0  0  0  0
  146.3152  141.1844  155.1024 C   0  0  0  0  0  0  0  0  0  0  0  0
  145.6959  140.1797  155.7268 N   0  0  0  0  0  0  0  0  0  0  0  0
  145.8447  138.9754  155.0544 N   0  0  0  0  0  0  0  0  0  0  0  0
  146.5842  139.0827  153.9412 C   0  0  0  0  0  0  0  0  0  0  0  0
  146.8544  138.0309  153.1460 N   0  5  0  0  0  0  0  0  0  0  0  0
  145.9403  137.0621  152.8762 C   0  0  0  0  0  0  0  0  0  0  0  0
  144.7736  137.1099  153.2640 O   0  0  0  0  0  0  0  0  0  0  0  0
  146.3430  136.0016  152.1492 N   0  0  0  0  0  0  0  0  0  0  0  0
  145.5199  134.8669  151.7421 C   0  0  2  0  0  0  0  0  0  0  0  0
  146.3640  133.8048  151.0214 C   0  0  0  0  0  0  0  0  0  0  0  0
  145.4985  132.6087  150.5937 C   0  0  0  0  0  0  0  0  0  0  0  0
  144.1719  133.0156  149.9345 C   0  0  0  0  0  0  0  0  0  0  0  0
  143.5465  132.1885  149.2745 O   0  0  0  0  0  0  0  0  0  0  0  0
  143.7034  134.2617  150.1247 N   0  0  0  0  0  0  0  0  0  0  0  0
  144.3949  135.3527  150.8107 C   0  0  0  0  0  0  0  0  0  0  0  0
  147.1448  140.7243  153.6253 S   0  0  0  0  0  0  0  0  0  0  0  0
  147.0483  142.6902  156.4112 H   0  0  0  0  0  0  0  0  0  0  0  0
  145.3247  142.8325  156.0193 H   0  0  0  0  0  0  0  0  0  0  0  0
  146.5455  143.2826  154.8182 H   0  0  0  0  0  0  0  0  0  0  0  0
  147.3083  135.9865  151.8540 H   0  0  0  0  0  0  0  0  0  0  0  0
  145.0636  134.4183  152.6269 H   0  0  0  0  0  0  0  0  0  0  0  0
  146.8439  134.2432  150.1450 H   0  0  0  0  0  0  0  0  0  0  0  0
  147.1685  133.4549  151.6693 H   0  0  0  0  0  0  0  0  0  0  0  0
  146.0601  131.9650  149.9159 H   0  0  0  0  0  0  0  0  0  0  0  0
  145.2581  132.0047  151.4693 H   0  0  0  0  0  0  0  0  0  0  0  0
  142.8125  134.4891  149.7074 H   0  0  0  0  0  0  0  0  0  0  0  0
  143.6671  135.9401  151.3713 H   0  0  0  0  0  0  0  0  0  0  0  0
  144.8034  136.0113  150.0427 H   0  0  0  0  0  0  0  0  0  0  0  0
  1  2  1  0  0  0  0
  1 18  1  0  0  0  0
  1 19  1  0  0  0  0
  1 20  1  0  0  0  0
  2 17  1  0  0  0  0
  2  3  2  0  0  0  0
  3  4  1  0  0  0  0
  4  5  2  0  0  0  0
  5  6  1  0  0  0  0
  5 17  1  0  0  0  0
  6  7  1  0  0  0  0
  7  8  2  0  0  0  0
  7  9  1  0  0  0  0
  9 10  1  0  0  0  0
  9 21  1  0  0  0  0
 10 16  1  0  0  0  0
 10 11  1  0  0  0  0
 10 22  1  0  0  0  0
 11 12  1  0  0  0  0
 11 23  1  0  0  0  0
 11 24  1  0  0  0  0
 12 13  1  0  0  0  0
 12 25  1  0  0  0  0
 12 26  1  0  0  0  0
 13 14  2  0  0  0  0
 13 15  1  0  0  0  0
 15 16  1  0  0  0  0
 15 27  1  0  0  0  0
 16 28  1  0  0  0  0
 16 29  1  0  0  0  0
M  CHG  1   6  -1
M  END
> <s_m_source_file>
AV-unprocessed.smi

> <i_m_source_file_index>
1797

> <i_lp_mmshare_version>
43012

> <i_f3d_flags>
0

> <s_epik_input>
W0NIM11jMW5uYyhzMSlbTkhdQyg9TylbTkhdW0NAQEhdMltDSDJdW0NIMl1DKD1PKVtOSF1bQ0gyXTI=

> <s_epik_cmdline>
J2VwaWtfcHl0aG9uJywgJy1waCcsICc3LjAnLCAnLXRuJywgJzgnLCAnLW1hJywgJzIwMCcsICctbWV0YWxfYmluZGluZycsICctaW1hZScsICc8aW5maWxlLm1hZT4nLCAnLW9tYWUnLCAnPG91dGZpbGUubWFlPic=

> <r_lp_tautomer_probability>
1

> <r_epik_Ionization_Penalty>
3.31792

> <r_epik_Ionization_Penalty_Charging>
3.17379

> <r_epik_Ionization_Penalty_Neutral>
0.144127

> <r_epik_State_Penalty>
3.17099

> <r_epik_Charging_Adjusted_Penalty>
6.34478

> <i_epik_Tot_Q>
-1

> <i_epik_Tot_abs_Q>
1

> <r_epik_Metal_State_Penalty>
0.468583

> <b_epik_Metal_Only>
1

> <s_lp_Force_Field>
OPLS_2005

> <r_lp_Energy>
8.3623

> <b_lp_Chiralities_Consistent>
1

> <s_lp_Variant>
AV-unprocessed.smi:1797-3

> <Gold.Version>
5.8.1

> <Gold.Id.Protein>
6NUR|6NUR_protein|mol2

> <Gold.PLP.Fitness>
34.7129

> <Gold.PLP.PLP>
-26.6340

> <Gold.PLP.part.hbond>
-3.0000

> <Gold.PLP.part.metal>
0.0000

> <Gold.PLP.part.buried>
-6.7969

> <Gold.PLP.part.nonpolar>
-19.4156

> <Gold.PLP.part.repulsive>
1.4829

> <Gold.PLP.ligand.clash>
0.0000

> <Gold.PLP.ligand.torsion>
0.3188

> <Gold.PLP.Chemscore.Hbond>
2.9040

> <Gold.PLP.Chemscore.CHOScore>
0.0000

> <Gold.PLP.Chemscore.Metal>
0.0000

> <Gold.Chemscore.Hbonds>
donor molecule, donor type, donor heavy atom, donor atom, acceptor molecule, acceptor atom, score
      L1  H     9    21       P1  7948  1.00
      L1  H    15    27       P1 10186  1.00
      P1  H 10785 10796       L1    14  0.67

> <Gold.PLP.Chemscore.Internal.Correction>
0.0044

> <Gold.Rescore>
     Score         DG    S(hbond)    S(metal)    S(lipo)     H(rot)  DE(clash)    DE(int)     intcor
     14.79     -17.29       2.90        0.00      40.18       1.00       0.05       2.46       ----

> <Gold.Chemscore.Fitness>
14.7871

> <Gold.Chemscore.DG>
-17.2929

> <Gold.Chemscore.ZeroCoef>
-5.4800

> <Gold.Chemscore.Hbond>
2.8958

> <Gold.Chemscore.Metal>
0.0000

> <Gold.Chemscore.Lipo>
40.1783

> <Gold.Chemscore.Internal_Hbond>
0.0000

> <Gold.Chemscore.DEClash>
0.0494

> <Gold.Chemscore.DEInternal>
2.4564

> <Gold.Chemscore.Rot>
1.0000

> <Gold.Chemscore.Internal.Correction>
   9.000000E+99

> <Gold.Chemscore.Hbonds>
donor molecule, donor type, donor heavy atom, donor atom, acceptor molecule, acceptor atom, score
      L1  H     9    21       P1  7948  0.99
      L1  H    15    27       P1 10186  0.94
      P1  H 10785 10796       L1    14  0.65

> <Gold.Chemscore.Hbond.Weighted>
-9.6721

> <Gold.Chemscore.Metal.Weighted>
-0.0000

> <Gold.Chemscore.Lipo.Weighted>
-4.7009

> <Gold.Chemscore.Internal_Hbond.Weighted>
0.0000

> <Gold.Chemscore.DEClash.Weighted>
0.0494

> <Gold.Chemscore.DEInternal.Weighted>
2.4564

> <Gold.Chemscore.Rot.Weighted>
2.5600

> <Gold.Chemscore.Internal.Correction.Weighted>
   9.000000E+99

> <Gold.Protein.RotatedTorsions>
[ 6907 6896 6895 6894 ] final  104.36 input  -60.11 | X-H torsion
[ 7974 7965 7964 7962 ] final -171.71 input  175.53 | X-H torsion
[ 8008 7997 7996 7995 ] final    0.70 input   59.86 | X-H torsion
[ 10167 10162 10161 10158 ] final  100.94 input  -65.29 | X-H torsion
[ 10718 10713 10712 10709 ] final  -81.63 input   66.30 | X-H torsion
[ 10763 10752 10751 10750 ] final   98.32 input  -60.55 | X-H torsion
[ 11005 11000 10999 10996 ] final  157.86 input  -57.11 | X-H torsion

> <Gold.Protein.ActiveResidues>
 VAL166  LYS551  ARG553  GLY616  TRP617  ASP618  TYR619  PRO620  LYS621  CYS622 
 ASP623  PHE694  ASN695  SER759  ASP760  ASP761  ALA762  ILE779  LEU786  VAL792 
 PHE793  MET794  SER795  GLU796  ALA797  LYS798  CYS799  TRP800  GLU811  SER814 

> <Gold.Protein.RotatedAtoms>
  152.5267  133.9688  159.7751 H   0  0  0  0  0  0  0  0  0  0  0  0  # atno 6907 bound_to 6896
  150.9964  133.6090  159.2708 H   0  0  0  0  0  0  0  0  0  0  0  0  # atno 6908 bound_to 6896
  151.3215  135.0826  159.9360 H   0  0  0  0  0  0  0  0  0  0  0  0  # atno 6909 bound_to 6896
  144.7154  140.1881  143.6351 H   0  0  0  0  0  0  0  0  0  0  0  0  # atno 7974 bound_to 7965
  154.6711  140.2612  155.7006 H   0  0  0  0  0  0  0  0  0  0  0  0  # atno 8008 bound_to 7997
  156.2659  140.2829  156.1142 H   0  0  0  0  0  0  0  0  0  0  0  0  # atno 8009 bound_to 7997
  155.1167  140.0376  157.2729 H   0  0  0  0  0  0  0  0  0  0  0  0  # atno 8010 bound_to 7997
  139.7482  144.6992  151.0472 H   0  0  0  0  0  0  0  0  0  0  0  0  # atno 10167 bound_to 10162
  156.0047  130.4610  150.3982 H   0  0  0  0  0  0  0  0  0  0  0  0  # atno 10718 bound_to 10713
  153.2876  135.4152  155.1137 H   0  0  0  0  0  0  0  0  0  0  0  0  # atno 10763 bound_to 10752
  154.8510  135.3510  154.6026 H   0  0  0  0  0  0  0  0  0  0  0  0  # atno 10764 bound_to 10752
  153.6448  135.7055  153.5287 H   0  0  0  0  0  0  0  0  0  0  0  0  # atno 10765 bound_to 10752
  140.1810  134.8476  157.2803 H   0  0  0  0  0  0  0  0  0  0  0  0  # atno 11005 bound_to 11000
  145.8794  139.2314  143.1614 LP  0  0  0  0  0  0  0  0  0  0  0  0  # atno 17320 bound_to 7965
  146.0009  140.8521  143.0019 LP  0  0  0  0  0  0  0  0  0  0  0  0  # atno 17321 bound_to 7965
  140.7794  143.4841  150.9979 LP  0  0  0  0  0  0  0  0  0  0  0  0  # atno 17342 bound_to 10162
  139.8529  143.7415  152.3177 LP  0  0  0  0  0  0  0  0  0  0  0  0  # atno 17343 bound_to 10162
  157.2053  131.0447  151.2628 LP  0  0  0  0  0  0  0  0  0  0  0  0  # atno 17370 bound_to 10713
  157.3938  130.7296  149.6717 LP  0  0  0  0  0  0  0  0  0  0  0  0  # atno 17371 bound_to 10713
  140.2267  134.3958  155.7540 LP  0  0  0  0  0  0  0  0  0  0  0  0  # atno 17394 bound_to 11000
  141.2223  133.7194  156.8577 LP  0  0  0  0  0  0  0  0  0  0  0  0  # atno 17395 bound_to 11000

$$$$
