AV-unprocessed.smi:840|AV-procd|sdf|3911|dock2
  -GOLD-   22720 1373D 1   1.00000     0.00000
 Structure written by MMmdl.
 37 38  0  0  0  0  0  0  0  0  1 V2000
  148.8579  134.5379  156.1655 C   0  0  0  0  0  0  0  0  0  0  0  0
  148.1988  135.7365  155.4634 C   0  0  2  0  0  0  0  0  0  0  0  0
  147.8861  135.3423  154.0901 N   0  0  0  0  0  0  0  0  0  0  0  0
  146.8066  134.6409  153.7122 C   0  0  0  0  0  0  0  0  0  0  0  0
  145.9591  134.2227  154.5018 O   0  0  0  0  0  0  0  0  0  0  0  0
  146.7825  134.4660  152.3794 N   0  0  0  0  0  0  0  0  0  0  0  0
  145.8010  133.8010  151.5984 C   0  0  0  0  0  0  0  0  0  0  0  0
  144.4810  133.9247  151.7789 N   0  0  0  0  0  0  0  0  0  0  0  0
  143.7525  133.1589  150.8651 C   0  0  0  0  0  0  0  0  0  0  0  0
  144.5396  132.4526  149.9899 C   0  0  0  0  0  0  0  0  0  0  0  0
  146.2373  132.7239  150.2801 S   0  0  0  0  0  0  0  0  0  0  0  0
  149.1924  136.9097  155.4842 C   0  0  0  0  0  0  0  0  0  0  0  0
  149.5803  137.3871  156.5519 O   0  0  0  0  0  0  0  0  0  0  0  0
  149.5840  137.3718  154.2874 N   0  0  0  0  0  0  0  0  0  0  0  0
  150.5248  138.4684  154.0789 C   0  0  0  0  0  0  0  0  0  0  0  0
  151.9256  138.0839  154.5886 C   0  0  0  0  0  0  0  0  0  0  0  0
  152.1473  138.8986  155.8631 C   0  0  0  0  0  0  0  0  0  0  0  0
  151.3601  140.1833  155.6249 C   0  0  0  0  0  0  0  0  0  0  0  0
  150.1110  139.7276  154.8686 C   0  0  0  0  0  0  0  0  0  0  0  0
  149.1124  134.7743  157.1997 H   0  0  0  0  0  0  0  0  0  0  0  0
  149.7735  134.2249  155.6610 H   0  0  0  0  0  0  0  0  0  0  0  0
  148.1838  133.6810  156.1866 H   0  0  0  0  0  0  0  0  0  0  0  0
  147.2815  136.0104  155.9885 H   0  0  0  0  0  0  0  0  0  0  0  0
  148.5277  135.6508  153.3745 H   0  0  0  0  0  0  0  0  0  0  0  0
  147.5515  134.8642  151.8610 H   0  0  0  0  0  0  0  0  0  0  0  0
  142.6737  133.1755  150.9086 H   0  0  0  0  0  0  0  0  0  0  0  0
  144.2248  131.7928  149.1952 H   0  0  0  0  0  0  0  0  0  0  0  0
  149.2154  136.9233  153.4613 H   0  0  0  0  0  0  0  0  0  0  0  0
  150.5908  138.6961  153.0133 H   0  0  0  0  0  0  0  0  0  0  0  0
  152.0472  137.0131  154.7591 H   0  0  0  0  0  0  0  0  0  0  0  0
  152.6690  138.3746  153.8451 H   0  0  0  0  0  0  0  0  0  0  0  0
  151.7307  138.3653  156.7187 H   0  0  0  0  0  0  0  0  0  0  0  0
  153.2025  139.0834  156.0656 H   0  0  0  0  0  0  0  0  0  0  0  0
  151.1226  140.7091  156.5500 H   0  0  0  0  0  0  0  0  0  0  0  0
  151.9433  140.8587  154.9977 H   0  0  0  0  0  0  0  0  0  0  0  0
  149.7204  140.5106  154.2179 H   0  0  0  0  0  0  0  0  0  0  0  0
  149.3271  139.4899  155.5898 H   0  0  0  0  0  0  0  0  0  0  0  0
  1  2  1  0  0  0  0
  1 20  1  0  0  0  0
  1 21  1  0  0  0  0
  1 22  1  0  0  0  0
  2  3  1  0  0  0  0
  2 12  1  0  0  0  0
  2 23  1  0  0  0  0
  3  4  1  0  0  0  0
  3 24  1  0  0  0  0
  4  5  2  0  0  0  0
  4  6  1  0  0  0  0
  6  7  1  0  0  0  0
  6 25  1  0  0  0  0
  7 11  1  0  0  0  0
  7  8  2  0  0  0  0
  8  9  1  0  0  0  0
  9 10  2  0  0  0  0
  9 26  1  0  0  0  0
 10 11  1  0  0  0  0
 10 27  1  0  0  0  0
 12 13  2  0  0  0  0
 12 14  1  0  0  0  0
 14 15  1  0  0  0  0
 14 28  1  0  0  0  0
 15 19  1  0  0  0  0
 15 16  1  0  0  0  0
 15 29  1  0  0  0  0
 16 17  1  0  0  0  0
 16 30  1  0  0  0  0
 16 31  1  0  0  0  0
 17 18  1  0  0  0  0
 17 32  1  0  0  0  0
 17 33  1  0  0  0  0
 18 19  1  0  0  0  0
 18 34  1  0  0  0  0
 18 35  1  0  0  0  0
 19 36  1  0  0  0  0
 19 37  1  0  0  0  0
M  END
> <s_m_source_file>
AV-unprocessed.smi

> <i_m_source_file_index>
840

> <i_lp_mmshare_version>
43012

> <i_f3d_flags>
0

> <s_epik_input>
W0NIMl0xW0NIMl1bQ0gyXVtDSDJdW0NIXTFbTkhdQyg9TylbQ0BIXShbQ0gzXSlbTkhdQyg9TylbTkhdYzJuW2NIXVtjSF1zMg==

> <s_epik_cmdline>
J2VwaWtfcHl0aG9uJywgJy1waCcsICc3LjAnLCAnLXRuJywgJzgnLCAnLW1hJywgJzIwMCcsICctbWV0YWxfYmluZGluZycsICctaW1hZScsICc8aW5maWxlLm1hZT4nLCAnLW9tYWUnLCAnPG91dGZpbGUubWFlPic=

> <r_lp_tautomer_probability>
1

> <r_epik_Ionization_Penalty>
0.000138928

> <r_epik_Ionization_Penalty_Charging>
0

> <r_epik_Ionization_Penalty_Neutral>
0.000138928

> <r_epik_State_Penalty>
-0

> <r_epik_Charging_Adjusted_Penalty>
0

> <i_epik_Tot_Q>
0

> <i_epik_Tot_abs_Q>
0

> <r_epik_Metal_State_Penalty>
0.0502858

> <b_epik_Metal_Only>
0

> <s_lp_Force_Field>
OPLS_2005

> <r_lp_Energy>
16.5686

> <b_lp_Chiralities_Consistent>
1

> <s_lp_Variant>
AV-unprocessed.smi:840-1

> <Gold.Version>
5.8.1

> <Gold.Id.Protein>
6NUR|6NUR_protein|mol2

> <Gold.PLP.Fitness>
41.5448

> <Gold.PLP.PLP>
-31.0573

> <Gold.PLP.part.hbond>
-3.0000

> <Gold.PLP.part.metal>
0.0000

> <Gold.PLP.part.buried>
-3.8034

> <Gold.PLP.part.nonpolar>
-24.9526

> <Gold.PLP.part.repulsive>
0.2079

> <Gold.PLP.ligand.clash>
0.0000

> <Gold.PLP.ligand.torsion>
0.6794

> <Gold.PLP.Chemscore.Hbond>
2.9440

> <Gold.PLP.Chemscore.CHOScore>
1.0000

> <Gold.PLP.Chemscore.Metal>
0.0000

> <Gold.Chemscore.Hbonds>
donor molecule, donor type, donor heavy atom, donor atom, acceptor molecule, acceptor atom, score
      L1  H     3    24       P1  7948  1.00
      L1  H     6    25       P1  7948  0.94
      L1  H    14    28       P1  7948  1.00
      L1  C     9    26       P1 10186  1.00

> <Gold.PLP.Chemscore.Internal.Correction>
0.0144

> <Gold.Rescore>
     Score         DG    S(hbond)    S(metal)    S(lipo)     H(rot)  DE(clash)    DE(int)     intcor
     16.84     -18.92       2.85        0.00      69.61       1.65       0.03       2.04       ----

> <Gold.Chemscore.Fitness>
16.8443

> <Gold.Chemscore.DG>
-18.9209

> <Gold.Chemscore.ZeroCoef>
-5.4800

> <Gold.Chemscore.Hbond>
2.8496

> <Gold.Chemscore.Metal>
0.0000

> <Gold.Chemscore.Lipo>
69.6134

> <Gold.Chemscore.Internal_Hbond>
0.0000

> <Gold.Chemscore.DEClash>
0.0331

> <Gold.Chemscore.DEInternal>
2.0435

> <Gold.Chemscore.Rot>
1.6490

> <Gold.Chemscore.Internal.Correction>
   9.000000E+99

> <Gold.Chemscore.Hbonds>
donor molecule, donor type, donor heavy atom, donor atom, acceptor molecule, acceptor atom, score
      L1  H     3    24       P1  7948  0.98
      L1  H     6    25       P1  7948  0.63
      L1  H    14    28       P1  7948  0.98

> <Gold.Chemscore.Hbond.Weighted>
-9.5176

> <Gold.Chemscore.Metal.Weighted>
-0.0000

> <Gold.Chemscore.Lipo.Weighted>
-8.1448

> <Gold.Chemscore.Internal_Hbond.Weighted>
0.0000

> <Gold.Chemscore.DEClash.Weighted>
0.0331

> <Gold.Chemscore.DEInternal.Weighted>
2.0435

> <Gold.Chemscore.Rot.Weighted>
4.2215

> <Gold.Chemscore.Internal.Correction.Weighted>
   9.000000E+99

> <Gold.Protein.RotatedTorsions>
[ 6907 6896 6895 6894 ] final   33.31 input  -60.11 | X-H torsion
[ 7974 7965 7964 7962 ] final  -33.15 input  175.53 | X-H torsion
[ 8008 7997 7996 7995 ] final  -38.72 input   59.86 | X-H torsion
[ 10167 10162 10161 10158 ] final    2.36 input  -65.29 | X-H torsion
[ 10718 10713 10712 10709 ] final   15.17 input   66.30 | X-H torsion
[ 10763 10752 10751 10750 ] final   47.08 input  -60.55 | X-H torsion
[ 11005 11000 10999 10996 ] final  -25.54 input  -57.11 | X-H torsion

> <Gold.Protein.ActiveResidues>
 VAL166  LYS551  ARG553  GLY616  TRP617  ASP618  TYR619  PRO620  LYS621  CYS622 
 ASP623  PHE694  ASN695  SER759  ASP760  ASP761  ALA762  ILE779  LEU786  VAL792 
 PHE793  MET794  SER795  GLU796  ALA797  LYS798  CYS799  TRP800  GLU811  SER814 

> <Gold.Protein.RotatedAtoms>
  152.0867  134.9435  160.0572 H   0  0  0  0  0  0  0  0  0  0  0  0  # atno 6907 bound_to 6896
  152.0702  133.4098  159.4464 H   0  0  0  0  0  0  0  0  0  0  0  0  # atno 6908 bound_to 6896
  150.6836  134.3020  159.4754 H   0  0  0  0  0  0  0  0  0  0  0  0  # atno 6909 bound_to 6896
  146.0933  140.5881  142.8854 H   0  0  0  0  0  0  0  0  0  0  0  0  # atno 7974 bound_to 7965
  154.4032  140.1570  156.2747 H   0  0  0  0  0  0  0  0  0  0  0  0  # atno 8008 bound_to 7997
  155.8922  140.3438  155.5943 H   0  0  0  0  0  0  0  0  0  0  0  0  # atno 8009 bound_to 7997
  155.7545  140.0809  157.2176 H   0  0  0  0  0  0  0  0  0  0  0  0  # atno 8010 bound_to 7997
  140.6639  143.7232  150.7789 H   0  0  0  0  0  0  0  0  0  0  0  0  # atno 10167 bound_to 10162
  157.0496  130.6264  149.5765 H   0  0  0  0  0  0  0  0  0  0  0  0  # atno 10718 bound_to 10713
  152.9803  135.5988  154.3704 H   0  0  0  0  0  0  0  0  0  0  0  0  # atno 10763 bound_to 10752
  154.3378  135.2768  155.2440 H   0  0  0  0  0  0  0  0  0  0  0  0  # atno 10764 bound_to 10752
  154.4535  135.5983  153.6263 H   0  0  0  0  0  0  0  0  0  0  0  0  # atno 10765 bound_to 10752
  140.8947  133.7565  156.0466 H   0  0  0  0  0  0  0  0  0  0  0  0  # atno 11005 bound_to 11000
  144.7376  140.4854  143.6892 LP  0  0  0  0  0  0  0  0  0  0  0  0  # atno 17320 bound_to 7965
  145.5996  139.1502  143.3136 LP  0  0  0  0  0  0  0  0  0  0  0  0  # atno 17321 bound_to 7965
  140.0906  143.4882  152.2481 LP  0  0  0  0  0  0  0  0  0  0  0  0  # atno 17342 bound_to 10162
  139.5881  144.7539  151.3469 LP  0  0  0  0  0  0  0  0  0  0  0  0  # atno 17343 bound_to 10162
  156.0012  130.5091  150.7669 LP  0  0  0  0  0  0  0  0  0  0  0  0  # atno 17370 bound_to 10713
  157.5041  131.0921  151.0279 LP  0  0  0  0  0  0  0  0  0  0  0  0  # atno 17371 bound_to 10713
  140.8304  134.3185  157.5351 LP  0  0  0  0  0  0  0  0  0  0  0  0  # atno 17394 bound_to 11000
  139.8734  134.9360  156.3648 LP  0  0  0  0  0  0  0  0  0  0  0  0  # atno 17395 bound_to 11000

$$$$
