AV-unprocessed.smi:2343|AV-procd|sdf|9356|dock3
  -GOLD-   2272012573D 1   1.00000     0.00000
 Structure written by MMmdl.
 34 35  0  0  0  0  0  0  0  0  1 V2000
  146.1834  138.9952  153.7348 O   0  0  0  0  0  0  0  0  0  0  0  0
  147.0114  138.2478  153.2144 C   0  0  0  0  0  0  0  0  0  0  0  0
  146.6792  137.2045  152.4405 N   0  0  0  0  0  0  0  0  0  0  0  0
  145.3158  136.7985  152.1208 C   0  0  0  0  0  0  0  0  0  0  0  0
  145.2309  136.1501  150.7291 C   0  0  0  0  0  0  0  0  0  0  0  0
  145.2681  134.6358  150.7926 C   0  0  0  0  0  0  0  0  0  0  0  0
  144.3254  133.7996  150.3602 C   0  0  0  0  0  0  0  0  0  0  0  0
  144.6812  132.3563  150.5876 C   0  0  0  0  0  0  0  0  0  0  0  0
  146.0547  132.4164  151.2929 C   0  0  0  0  0  0  0  0  0  0  0  0
  146.4386  133.9092  151.4037 C   0  0  0  0  0  0  0  0  0  0  0  0
  148.3463  138.3649  153.3210 N   0  0  0  0  0  0  0  0  0  0  0  0
  149.1087  139.3065  154.0662 C   0  0  0  0  0  0  0  0  0  0  0  0
  148.6981  140.6352  154.3337 C   0  0  0  0  0  0  0  0  0  0  0  0
  149.5428  141.4607  155.1030 C   0  0  0  0  0  0  0  0  0  0  0  0
  150.7254  141.0513  155.6086 N   0  0  0  0  0  0  0  0  0  0  0  0
  151.1081  139.7807  155.3618 C   0  0  0  0  0  0  0  0  0  0  0  0
  150.3392  138.8740  154.6050 C   0  0  0  0  0  0  0  0  0  0  0  0
  150.7807  137.6092  154.3998 F   0  0  0  0  0  0  0  0  0  0  0  0
  147.4231  136.6469  152.0467 H   0  0  0  0  0  0  0  0  0  0  0  0
  144.9915  136.0867  152.8803 H   0  0  0  0  0  0  0  0  0  0  0  0
  144.6448  137.6559  152.1924 H   0  0  0  0  0  0  0  0  0  0  0  0
  144.3140  136.4524  150.2217 H   0  0  0  0  0  0  0  0  0  0  0  0
  146.0599  136.4962  150.1103 H   0  0  0  0  0  0  0  0  0  0  0  0
  143.3975  134.0941  149.8921 H   0  0  0  0  0  0  0  0  0  0  0  0
  143.9271  131.8733  151.2094 H   0  0  0  0  0  0  0  0  0  0  0  0
  144.7383  131.8294  149.6347 H   0  0  0  0  0  0  0  0  0  0  0  0
  145.9967  131.9619  152.2826 H   0  0  0  0  0  0  0  0  0  0  0  0
  146.8056  131.8637  150.7272 H   0  0  0  0  0  0  0  0  0  0  0  0
  147.3547  134.1265  150.8539 H   0  0  0  0  0  0  0  0  0  0  0  0
  146.5756  134.2144  152.4415 H   0  0  0  0  0  0  0  0  0  0  0  0
  148.8907  137.7184  152.7688 H   0  0  0  0  0  0  0  0  0  0  0  0
  147.7599  141.0339  153.9812 H   0  0  0  0  0  0  0  0  0  0  0  0
  149.2557  142.4782  155.3241 H   0  0  0  0  0  0  0  0  0  0  0  0
  152.0551  139.4760  155.7822 H   0  0  0  0  0  0  0  0  0  0  0  0
  1  2  2  0  0  0  0
  2  3  1  0  0  0  0
  2 11  1  0  0  0  0
  3  4  1  0  0  0  0
  3 19  1  0  0  0  0
  4  5  1  0  0  0  0
  4 20  1  0  0  0  0
  4 21  1  0  0  0  0
  5  6  1  0  0  0  0
  5 22  1  0  0  0  0
  5 23  1  0  0  0  0
  6 10  1  0  0  0  0
  6  7  2  0  0  0  0
  7  8  1  0  0  0  0
  7 24  1  0  0  0  0
  8  9  1  0  0  0  0
  8 25  1  0  0  0  0
  8 26  1  0  0  0  0
  9 10  1  0  0  0  0
  9 27  1  0  0  0  0
  9 28  1  0  0  0  0
 10 29  1  0  0  0  0
 10 30  1  0  0  0  0
 11 12  1  0  0  0  0
 11 31  1  0  0  0  0
 12 17  1  0  0  0  0
 12 13  2  0  0  0  0
 13 14  1  0  0  0  0
 13 32  1  0  0  0  0
 14 15  2  0  0  0  0
 14 33  1  0  0  0  0
 15 16  1  0  0  0  0
 16 17  2  0  0  0  0
 16 34  1  0  0  0  0
 17 18  1  0  0  0  0
M  END
> <s_m_source_file>
AV-unprocessed.smi

> <i_m_source_file_index>
2343

> <i_lp_mmshare_version>
43012

> <i_f3d_flags>
0

> <s_epik_input>
RmMxW2NIXW5bY0hdW2NIXWMxW05IXUMoPU8pW05IXVtDSDJdW0NIMl1DMj1bQ0hdW0NIMl1bQ0gyXVtDSDJdMg==

> <s_epik_cmdline>
J2VwaWtfcHl0aG9uJywgJy1waCcsICc3LjAnLCAnLXRuJywgJzgnLCAnLW1hJywgJzIwMCcsICctbWV0YWxfYmluZGluZycsICctaW1hZScsICc8aW5maWxlLm1hZT4nLCAnLW9tYWUnLCAnPG91dGZpbGUubWFlPic=

> <r_epik_Ionization_Penalty>
0.0031801

> <r_epik_Ionization_Penalty_Charging>
0

> <r_epik_Ionization_Penalty_Neutral>
0.0031801

> <r_epik_State_Penalty>
0.0022135

> <r_epik_Charging_Adjusted_Penalty>
0.0022135

> <i_epik_Tot_Q>
0

> <i_epik_Tot_abs_Q>
0

> <r_epik_Metal_State_Penalty>
-0

> <b_epik_Metal_Only>
0

> <s_lp_Force_Field>
OPLS_2005

> <r_lp_Energy>
22.6316

> <b_lp_Chiralities_Consistent>
1

> <s_lp_Variant>
AV-unprocessed.smi:2343-1

> <Gold.Version>
5.8.1

> <Gold.Id.Protein>
6NUR|6NUR_protein|mol2

> <Gold.PLP.Fitness>
43.7937

> <Gold.PLP.PLP>
-36.1713

> <Gold.PLP.part.hbond>
-3.8255

> <Gold.PLP.part.metal>
0.0000

> <Gold.PLP.part.buried>
-1.2896

> <Gold.PLP.part.nonpolar>
-32.8288

> <Gold.PLP.part.repulsive>
0.3264

> <Gold.PLP.ligand.clash>
0.0000

> <Gold.PLP.ligand.torsion>
0.6538

> <Gold.PLP.Chemscore.Hbond>
1.9760

> <Gold.PLP.Chemscore.CHOScore>
1.0000

> <Gold.PLP.Chemscore.Metal>
0.0000

> <Gold.Chemscore.Hbonds>
donor molecule, donor type, donor heavy atom, donor atom, acceptor molecule, acceptor atom, score
      L1  H     3    19       P1  7948  1.00
      L1  H    11    31       P1  7948  0.99
      L1  C    14    33       P1  8028  1.00

> <Gold.PLP.Chemscore.Internal.Correction>
0.0021

> <Gold.Rescore>
     Score         DG    S(hbond)    S(metal)    S(lipo)     H(rot)  DE(clash)    DE(int)     intcor
     16.75     -17.71       1.89        0.00      81.89       1.43       0.14       0.82       ----

> <Gold.Chemscore.Fitness>
16.7549

> <Gold.Chemscore.DG>
-17.7124

> <Gold.Chemscore.ZeroCoef>
-5.4800

> <Gold.Chemscore.Hbond>
1.8884

> <Gold.Chemscore.Metal>
0.0000

> <Gold.Chemscore.Lipo>
81.8918

> <Gold.Chemscore.Internal_Hbond>
0.0000

> <Gold.Chemscore.DEClash>
0.1385

> <Gold.Chemscore.DEInternal>
0.8191

> <Gold.Chemscore.Rot>
1.4282

> <Gold.Chemscore.Internal.Correction>
   9.000000E+99

> <Gold.Chemscore.Hbonds>
donor molecule, donor type, donor heavy atom, donor atom, acceptor molecule, acceptor atom, score
      L1  H     3    19       P1  7948  0.95
      L1  H    11    31       P1  7948  0.94

> <Gold.Chemscore.Hbond.Weighted>
-6.3074

> <Gold.Chemscore.Metal.Weighted>
-0.0000

> <Gold.Chemscore.Lipo.Weighted>
-9.5813

> <Gold.Chemscore.Internal_Hbond.Weighted>
0.0000

> <Gold.Chemscore.DEClash.Weighted>
0.1385

> <Gold.Chemscore.DEInternal.Weighted>
0.8191

> <Gold.Chemscore.Rot.Weighted>
3.6563

> <Gold.Chemscore.Internal.Correction.Weighted>
   9.000000E+99

> <Gold.Protein.RotatedTorsions>
[ 6907 6896 6895 6894 ] final  -50.39 input  -60.11 | X-H torsion
[ 7974 7965 7964 7962 ] final -113.35 input  175.53 | X-H torsion
[ 8008 7997 7996 7995 ] final -117.55 input   59.86 | X-H torsion
[ 10167 10162 10161 10158 ] final  -77.80 input  -65.29 | X-H torsion
[ 10718 10713 10712 10709 ] final  -52.67 input   66.30 | X-H torsion
[ 10763 10752 10751 10750 ] final   -1.09 input  -60.55 | X-H torsion
[ 11005 11000 10999 10996 ] final  -46.90 input  -57.11 | X-H torsion

> <Gold.Protein.ActiveResidues>
 VAL166  LYS551  ARG553  GLY616  TRP617  ASP618  TYR619  PRO620  LYS621  CYS622 
 ASP623  PHE694  ASN695  SER759  ASP760  ASP761  ALA762  ILE779  LEU786  VAL792 
 PHE793  MET794  SER795  GLU796  ALA797  LYS798  CYS799  TRP800  GLU811  SER814 

> <Gold.Protein.RotatedAtoms>
  150.8712  134.8086  159.7155 H   0  0  0  0  0  0  0  0  0  0  0  0  # atno 6907 bound_to 6896
  152.4716  134.4943  159.9715 H   0  0  0  0  0  0  0  0  0  0  0  0  # atno 6908 bound_to 6896
  151.5032  133.3461  159.2908 H   0  0  0  0  0  0  0  0  0  0  0  0  # atno 6909 bound_to 6896
  145.1331  140.8735  143.3746 H   0  0  0  0  0  0  0  0  0  0  0  0  # atno 7974 bound_to 7965
  155.0855  140.0394  157.2652 H   0  0  0  0  0  0  0  0  0  0  0  0  # atno 8008 bound_to 7997
  154.6873  140.2646  155.6823 H   0  0  0  0  0  0  0  0  0  0  0  0  # atno 8009 bound_to 7997
  156.2716  140.2766  156.1439 H   0  0  0  0  0  0  0  0  0  0  0  0  # atno 8010 bound_to 7997
  140.4739  143.2419  151.8163 H   0  0  0  0  0  0  0  0  0  0  0  0  # atno 10167 bound_to 10162
  156.1601  130.4150  149.9806 H   0  0  0  0  0  0  0  0  0  0  0  0  # atno 10718 bound_to 10713
  153.3403  135.6980  153.6872 H   0  0  0  0  0  0  0  0  0  0  0  0  # atno 10763 bound_to 10752
  153.5640  135.3529  155.2811 H   0  0  0  0  0  0  0  0  0  0  0  0  # atno 10764 bound_to 10752
  154.8635  135.4256  154.2614 H   0  0  0  0  0  0  0  0  0  0  0  0  # atno 10765 bound_to 10752
  141.0607  133.6710  156.3220 H   0  0  0  0  0  0  0  0  0  0  0  0  # atno 11005 bound_to 11000
  145.0614  139.3102  143.5878 LP  0  0  0  0  0  0  0  0  0  0  0  0  # atno 17320 bound_to 7965
  146.3512  140.0057  142.8672 LP  0  0  0  0  0  0  0  0  0  0  0  0  # atno 17321 bound_to 7965
  139.4822  144.4858  151.9249 LP  0  0  0  0  0  0  0  0  0  0  0  0  # atno 17342 bound_to 10162
  140.3943  144.2575  150.5897 LP  0  0  0  0  0  0  0  0  0  0  0  0  # atno 17343 bound_to 10162
  156.7638  130.9161  151.3642 LP  0  0  0  0  0  0  0  0  0  0  0  0  # atno 17370 bound_to 10713
  157.6726  130.9065  150.0075 LP  0  0  0  0  0  0  0  0  0  0  0  0  # atno 17371 bound_to 10713
  140.5874  134.5685  157.5492 LP  0  0  0  0  0  0  0  0  0  0  0  0  # atno 17394 bound_to 11000
  139.9430  134.7752  156.0630 LP  0  0  0  0  0  0  0  0  0  0  0  0  # atno 17395 bound_to 11000

$$$$
