AV-unprocessed.smi:1724|AV-procd|sdf|6950|dock3
  -GOLD-   22720 8163D 1   1.00000     0.00000
 Structure written by MMmdl.
 38 39  0  0  0  0  0  0  0  0  1 V2000
  152.2709  138.1475  159.2454 O   0  0  0  0  0  0  0  0  0  0  0  0
  153.3446  138.7006  159.4799 C   0  0  0  0  0  0  0  0  0  0  0  0
  154.4227  138.0484  159.9388 N   0  0  0  0  0  0  0  0  0  0  0  0
  154.4955  136.6175  160.2224 C   0  0  0  0  0  0  0  0  0  0  0  0
  154.8370  136.3293  161.6985 C   0  0  1  0  0  0  0  0  0  0  0  0
  153.7720  136.8553  162.6795 C   0  0  0  0  0  0  0  0  0  0  0  0
  154.1272  136.4528  164.1154 C   0  0  0  0  0  0  0  0  0  0  0  0
  154.3705  134.9391  164.2045 C   0  0  0  0  0  0  0  0  0  0  0  0
  155.3906  134.5624  163.2866 O   0  0  0  0  0  0  0  0  0  0  0  0
  155.0410  134.8182  161.9303 C   0  0  0  0  0  0  0  0  0  0  0  0
  153.6148  140.0092  159.3166 N   0  0  0  0  0  0  0  0  0  0  0  0
  152.7879  141.0529  158.8646 C   0  0  0  0  0  0  0  0  0  0  0  0
  152.6488  142.2633  159.4676 C   0  0  0  0  0  0  0  0  0  0  0  0
  151.7720  143.2939  158.9336 C   0  0  0  0  0  0  0  0  0  0  0  0
  151.5993  144.6476  159.6039 C   0  0  0  0  0  0  0  0  0  0  0  0
  152.2097  144.6552  160.7887 F   0  0  0  0  0  0  0  0  0  0  0  0
  152.1458  145.6052  158.8548 F   0  0  0  0  0  0  0  0  0  0  0  0
  150.3136  144.9456  159.7930 F   0  0  0  0  0  0  0  0  0  0  0  0
  151.1067  142.9915  157.8046 C   0  0  0  0  0  0  0  0  0  0  0  0
  151.2492  141.7536  157.1751 N   0  0  0  0  0  0  0  0  0  0  0  0
  152.0465  140.7597  157.6261 C   0  0  0  0  0  0  0  0  0  0  0  0
  152.1188  139.6959  157.0117 O   0  0  0  0  0  0  0  0  0  0  0  0
  150.7172  141.6042  156.3300 H   0  0  0  0  0  0  0  0  0  0  0  0
  155.2634  138.5831  160.1014 H   0  0  0  0  0  0  0  0  0  0  0  0
  153.5707  136.1111  159.9406 H   0  0  0  0  0  0  0  0  0  0  0  0
  155.2730  136.2009  159.5814 H   0  0  0  0  0  0  0  0  0  0  0  0
  155.7807  136.8272  161.9277 H   0  0  0  0  0  0  0  0  0  0  0  0
  153.6870  137.9403  162.6172 H   0  0  0  0  0  0  0  0  0  0  0  0
  152.7945  136.4487  162.4169 H   0  0  0  0  0  0  0  0  0  0  0  0
  155.0247  136.9846  164.4337 H   0  0  0  0  0  0  0  0  0  0  0  0
  153.3296  136.7479  164.7977 H   0  0  0  0  0  0  0  0  0  0  0  0
  154.6858  134.6681  165.2123 H   0  0  0  0  0  0  0  0  0  0  0  0
  153.4544  134.3839  163.9967 H   0  0  0  0  0  0  0  0  0  0  0  0
  154.1434  134.2567  161.6653 H   0  0  0  0  0  0  0  0  0  0  0  0
  155.8452  134.4466  161.2950 H   0  0  0  0  0  0  0  0  0  0  0  0
  154.5597  140.2947  159.5294 H   0  0  0  0  0  0  0  0  0  0  0  0
  153.1952  142.5036  160.3636 H   0  0  0  0  0  0  0  0  0  0  0  0
  150.4247  143.6643  157.3059 H   0  0  0  0  0  0  0  0  0  0  0  0
  1  2  2  0  0  0  0
  2  3  1  0  0  0  0
  2 11  1  0  0  0  0
  3  4  1  0  0  0  0
  3 24  1  0  0  0  0
  4  5  1  0  0  0  0
  4 25  1  0  0  0  0
  4 26  1  0  0  0  0
  5 10  1  0  0  0  0
  5  6  1  0  0  0  0
  5 27  1  0  0  0  0
  6  7  1  0  0  0  0
  6 28  1  0  0  0  0
  6 29  1  0  0  0  0
  7  8  1  0  0  0  0
  7 30  1  0  0  0  0
  7 31  1  0  0  0  0
  8  9  1  0  0  0  0
  8 32  1  0  0  0  0
  8 33  1  0  0  0  0
  9 10  1  0  0  0  0
 10 34  1  0  0  0  0
 10 35  1  0  0  0  0
 11 12  1  0  0  0  0
 11 36  1  0  0  0  0
 12 21  1  0  0  0  0
 12 13  2  0  0  0  0
 13 14  1  0  0  0  0
 13 37  1  0  0  0  0
 14 15  1  0  0  0  0
 14 19  2  0  0  0  0
 15 16  1  0  0  0  0
 15 17  1  0  0  0  0
 15 18  1  0  0  0  0
 19 20  1  0  0  0  0
 19 38  1  0  0  0  0
 20 23  1  0  0  0  0
 20 21  1  0  0  0  0
 21 22  2  0  0  0  0
M  END
> <s_m_source_file>
AV-unprocessed.smi

> <i_m_source_file_index>
1724

> <i_lp_mmshare_version>
43012

> <i_f3d_flags>
0

> <s_epik_input>
Tz1jMVtuSF1bY0hdYyhDKEYpKEYpRilbY0hdYzFbTkhdQyg9TylbTkhdW0NIMl1bQ0BASF0yW0NIMl1bQ0gyXVtDSDJdT1tDSDJdMg==

> <s_epik_cmdline>
J2VwaWtfcHl0aG9uJywgJy1waCcsICc3LjAnLCAnLXRuJywgJzgnLCAnLW1hJywgJzIwMCcsICctbWV0YWxfYmluZGluZycsICctaW1hZScsICc8aW5maWxlLm1hZT4nLCAnLW9tYWUnLCAnPG91dGZpbGUubWFlPic=

> <r_lp_tautomer_probability>
1

> <r_epik_Ionization_Penalty>
0.00384958

> <r_epik_Ionization_Penalty_Charging>
0.00382926

> <r_epik_Ionization_Penalty_Neutral>
2.03186e-05

> <r_epik_State_Penalty>
-0

> <r_epik_Charging_Adjusted_Penalty>
0.00382926

> <i_epik_Tot_Q>
0

> <i_epik_Tot_abs_Q>
0

> <r_epik_Metal_State_Penalty>
0.371494

> <b_epik_Metal_Only>
0

> <s_lp_Force_Field>
OPLS_2005

> <r_lp_Energy>
21.778

> <b_lp_Chiralities_Consistent>
1

> <s_lp_Variant>
AV-unprocessed.smi:1724-2

> <Gold.Version>
5.8.1

> <Gold.Id.Protein>
6NUR|6NUR_protein|mol2

> <Gold.PLP.Fitness>
45.2320

> <Gold.PLP.PLP>
-43.4978

> <Gold.PLP.part.hbond>
-0.2225

> <Gold.PLP.part.metal>
0.0000

> <Gold.PLP.part.buried>
-5.7597

> <Gold.PLP.part.nonpolar>
-36.3083

> <Gold.PLP.part.repulsive>
0.2127

> <Gold.PLP.ligand.clash>
0.0000

> <Gold.PLP.ligand.torsion>
0.6446

> <Gold.PLP.Chemscore.Hbond>
0.0000

> <Gold.PLP.Chemscore.CHOScore>
0.9999

> <Gold.PLP.Chemscore.Metal>
0.0000

> <Gold.Chemscore.Hbonds>
donor molecule, donor type, donor heavy atom, donor atom, acceptor molecule, acceptor atom, score
      L1  C    19    38       P1  8028  1.00

> <Gold.PLP.Chemscore.Internal.Correction>
0.0239

> <Gold.Rescore>
     Score         DG    S(hbond)    S(metal)    S(lipo)     H(rot)  DE(clash)    DE(int)     intcor
     12.07     -12.73       0.03        0.00      90.21       1.33       0.03       0.63       ----

> <Gold.Chemscore.Fitness>
12.0679

> <Gold.Chemscore.DG>
-12.7269

> <Gold.Chemscore.ZeroCoef>
-5.4800

> <Gold.Chemscore.Hbond>
0.0323

> <Gold.Chemscore.Metal>
0.0000

> <Gold.Chemscore.Lipo>
90.2137

> <Gold.Chemscore.Internal_Hbond>
0.0000

> <Gold.Chemscore.DEClash>
0.0326

> <Gold.Chemscore.DEInternal>
0.6264

> <Gold.Chemscore.Rot>
1.3344

> <Gold.Chemscore.Internal.Correction>
   9.000000E+99

> <Gold.Chemscore.Hbond.Weighted>
-0.1079

> <Gold.Chemscore.Metal.Weighted>
-0.0000

> <Gold.Chemscore.Lipo.Weighted>
-10.5550

> <Gold.Chemscore.Internal_Hbond.Weighted>
0.0000

> <Gold.Chemscore.DEClash.Weighted>
0.0326

> <Gold.Chemscore.DEInternal.Weighted>
0.6264

> <Gold.Chemscore.Rot.Weighted>
3.4160

> <Gold.Chemscore.Internal.Correction.Weighted>
   9.000000E+99

> <Gold.Protein.RotatedTorsions>
[ 6907 6896 6895 6894 ] final   36.46 input  -60.11 | X-H torsion
[ 7974 7965 7964 7962 ] final   92.99 input  175.53 | X-H torsion
[ 8008 7997 7996 7995 ] final   10.15 input   59.86 | X-H torsion
[ 10167 10162 10161 10158 ] final    6.76 input  -65.29 | X-H torsion
[ 10718 10713 10712 10709 ] final   94.55 input   66.30 | X-H torsion
[ 10763 10752 10751 10750 ] final -175.81 input  -60.55 | X-H torsion
[ 11005 11000 10999 10996 ] final   96.72 input  -57.11 | X-H torsion

> <Gold.Protein.ActiveResidues>
 VAL166  LYS551  ARG553  GLY616  TRP617  ASP618  TYR619  PRO620  LYS621  CYS622 
 ASP623  PHE694  ASN695  SER759  ASP760  ASP761  ALA762  ILE779  LEU786  VAL792 
 PHE793  MET794  SER795  GLU796  ALA797  LYS798  CYS799  TRP800  GLU811  SER814 

> <Gold.Protein.RotatedAtoms>
  152.1301  134.9141  160.0558 H   0  0  0  0  0  0  0  0  0  0  0  0  # atno 6907 bound_to 6896
  152.0249  133.3908  159.4281 H   0  0  0  0  0  0  0  0  0  0  0  0  # atno 6908 bound_to 6896
  150.6855  134.3506  159.4951 H   0  0  0  0  0  0  0  0  0  0  0  0  # atno 6909 bound_to 6896
  145.4849  139.2277  143.2862 H   0  0  0  0  0  0  0  0  0  0  0  0  # atno 7974 bound_to 7965
  154.7895  140.2833  155.6002 H   0  0  0  0  0  0  0  0  0  0  0  0  # atno 8008 bound_to 7997
  156.2962  140.2607  156.2668 H   0  0  0  0  0  0  0  0  0  0  0  0  # atno 8009 bound_to 7997
  154.9687  140.0376  157.2214 H   0  0  0  0  0  0  0  0  0  0  0  0  # atno 8010 bound_to 7997
  140.6410  143.7775  150.7428 H   0  0  0  0  0  0  0  0  0  0  0  0  # atno 10167 bound_to 10162
  157.6947  131.0516  150.4203 H   0  0  0  0  0  0  0  0  0  0  0  0  # atno 10718 bound_to 10713
  154.5800  135.2835  155.0742 H   0  0  0  0  0  0  0  0  0  0  0  0  # atno 10763 bound_to 10752
  154.2082  135.6412  153.5111 H   0  0  0  0  0  0  0  0  0  0  0  0  # atno 10764 bound_to 10752
  153.0085  135.5485  154.6450 H   0  0  0  0  0  0  0  0  0  0  0  0  # atno 10765 bound_to 10752
  139.8780  134.8965  156.4200 H   0  0  0  0  0  0  0  0  0  0  0  0  # atno 11005 bound_to 11000
  146.2319  140.5638  142.8971 LP  0  0  0  0  0  0  0  0  0  0  0  0  # atno 17320 bound_to 7965
  144.7867  140.5951  143.6569 LP  0  0  0  0  0  0  0  0  0  0  0  0  # atno 17321 bound_to 7965
  140.1406  143.4445  152.2196 LP  0  0  0  0  0  0  0  0  0  0  0  0  # atno 17342 bound_to 10162
  139.5619  144.7411  151.4131 LP  0  0  0  0  0  0  0  0  0  0  0  0  # atno 17343 bound_to 10162
  156.4579  130.4025  149.6595 LP  0  0  0  0  0  0  0  0  0  0  0  0  # atno 17370 bound_to 10713
  156.3720  130.7535  151.2520 LP  0  0  0  0  0  0  0  0  0  0  0  0  # atno 17371 bound_to 10713
  140.9140  133.7691  155.9826 LP  0  0  0  0  0  0  0  0  0  0  0  0  # atno 17394 bound_to 11000
  140.8514  134.2949  157.5273 LP  0  0  0  0  0  0  0  0  0  0  0  0  # atno 17395 bound_to 11000

$$$$
