AV-unprocessed.smi:1325|AV-procd|sdf|5472|dock6
  -GOLD-   22720 5 43D 1   1.00000     0.00000
 Structure written by MMmdl.
 35 36  0  0  0  0  0  0  0  0  1 V2000
  154.4179  137.1827  162.8234 C   0  0  0  0  0  0  0  0  0  0  0  0
  154.1729  137.4729  161.3671 C   0  0  0  0  0  0  0  0  0  0  0  0
  153.6178  138.6057  161.0864 N   0  0  0  0  0  0  0  0  0  0  0  0
  153.3451  138.9704  159.7819 N   0  0  0  0  0  0  0  0  0  0  0  0
  152.6956  140.2809  159.6521 C   0  0  0  0  0  0  0  0  0  0  0  0
  153.5852  141.4252  160.1859 C   0  0  2  0  0  0  0  0  0  0  0  0
  153.9029  141.1705  161.5400 O   0  0  0  0  0  0  0  0  0  0  0  0
  152.8938  142.7713  160.0299 C   0  0  0  0  0  0  0  0  0  0  0  0
  152.6126  143.2744  158.7414 C   0  0  0  0  0  0  0  0  0  0  0  0
  151.9662  144.5168  158.5893 C   0  0  0  0  0  0  0  0  0  0  0  0
  151.5951  145.2622  159.7247 C   0  0  0  0  0  0  0  0  0  0  0  0
  151.8695  144.7641  161.0127 C   0  0  0  0  0  0  0  0  0  0  0  0
  152.5160  143.5221  161.1653 C   0  0  0  0  0  0  0  0  0  0  0  0
  153.6227  138.2052  158.6880 C   0  0  0  0  0  0  0  0  0  0  0  0
  153.3618  138.5668  157.5397 O   0  0  0  0  0  0  0  0  0  0  0  0
  154.2528  136.9236  159.0133 C   0  0  0  0  0  0  0  0  0  0  0  0
  154.5591  136.0898  157.8960 C   0  0  0  0  0  0  0  0  0  0  0  0
  154.8244  135.4262  156.9853 N   0  0  0  0  0  0  0  0  0  0  0  0
  154.5251  136.5539  160.2898 C   0  0  0  0  0  0  0  0  0  0  0  0
  155.1768  135.2345  160.6802 C   0  0  0  0  0  0  0  0  0  0  0  0
  155.4805  137.0321  163.0153 H   0  0  0  0  0  0  0  0  0  0  0  0
  153.8861  136.2829  163.1332 H   0  0  0  0  0  0  0  0  0  0  0  0
  154.0802  137.9995  163.4632 H   0  0  0  0  0  0  0  0  0  0  0  0
  152.5121  140.4447  158.5883 H   0  0  0  0  0  0  0  0  0  0  0  0
  151.7051  140.3053  160.1104 H   0  0  0  0  0  0  0  0  0  0  0  0
  154.5222  141.4556  159.6279 H   0  0  0  0  0  0  0  0  0  0  0  0
  153.7640  141.9637  162.0345 H   0  0  0  0  0  0  0  0  0  0  0  0
  152.8903  142.7094  157.8637 H   0  0  0  0  0  0  0  0  0  0  0  0
  151.7546  144.8974  157.6009 H   0  0  0  0  0  0  0  0  0  0  0  0
  151.0991  146.2144  159.6078 H   0  0  0  0  0  0  0  0  0  0  0  0
  151.5832  145.3341  161.8843 H   0  0  0  0  0  0  0  0  0  0  0  0
  152.7194  143.1463  162.1574 H   0  0  0  0  0  0  0  0  0  0  0  0
  155.4081  134.6156  159.8139 H   0  0  0  0  0  0  0  0  0  0  0  0
  154.5149  134.6577  161.3271 H   0  0  0  0  0  0  0  0  0  0  0  0
  156.1110  135.4117  161.2141 H   0  0  0  0  0  0  0  0  0  0  0  0
  1  2  1  0  0  0  0
  1 21  1  0  0  0  0
  1 22  1  0  0  0  0
  1 23  1  0  0  0  0
  2 19  1  0  0  0  0
  2  3  2  0  0  0  0
  3  4  1  0  0  0  0
  4  5  1  0  0  0  0
  4 14  1  0  0  0  0
  5  6  1  0  0  0  0
  5 24  1  0  0  0  0
  5 25  1  0  0  0  0
  6  7  1  0  0  0  0
  6  8  1  0  0  0  0
  6 26  1  0  0  0  0
  7 27  1  0  0  0  0
  8 13  1  0  0  0  0
  8  9  2  0  0  0  0
  9 10  1  0  0  0  0
  9 28  1  0  0  0  0
 10 11  2  0  0  0  0
 10 29  1  0  0  0  0
 11 12  1  0  0  0  0
 11 30  1  0  0  0  0
 12 13  2  0  0  0  0
 12 31  1  0  0  0  0
 13 32  1  0  0  0  0
 14 15  2  0  0  0  0
 14 16  1  0  0  0  0
 16 17  1  0  0  0  0
 16 19  2  0  0  0  0
 17 18  3  0  0  0  0
 19 20  1  0  0  0  0
 20 33  1  0  0  0  0
 20 34  1  0  0  0  0
 20 35  1  0  0  0  0
M  END
> <s_m_source_file>
AV-unprocessed.smi

> <i_m_source_file_index>
1325

> <i_lp_mmshare_version>
43012

> <i_f3d_flags>
0

> <s_epik_input>
TiNDYyhjMVtDSDNdKWMoPU8pbihuYzFbQ0gzXSlbQ0gyXVtDQEhdKFtPSF0pYzJbY0hdW2NIXVtjSF1bY0hdW2NIXTI=

> <s_epik_cmdline>
J2VwaWtfcHl0aG9uJywgJy1waCcsICc3LjAnLCAnLXRuJywgJzgnLCAnLW1hJywgJzIwMCcsICctbWV0YWxfYmluZGluZycsICctaW1hZScsICc8aW5maWxlLm1hZT4nLCAnLW9tYWUnLCAnPG91dGZpbGUubWFlPic=

> <r_lp_tautomer_probability>
1

> <r_epik_Ionization_Penalty>
7.1854e-08

> <r_epik_Ionization_Penalty_Charging>
1.40848e-10

> <r_epik_Ionization_Penalty_Neutral>
7.17131e-08

> <r_epik_State_Penalty>
-0

> <r_epik_Charging_Adjusted_Penalty>
1.40848e-10

> <i_epik_Tot_Q>
0

> <i_epik_Tot_abs_Q>
0

> <r_epik_Metal_State_Penalty>
-0

> <b_epik_Metal_Only>
0

> <s_lp_Force_Field>
OPLS_2005

> <r_lp_Energy>
27.9871

> <b_lp_Chiralities_Consistent>
1

> <s_lp_Variant>
AV-unprocessed.smi:1325-1

> <Gold.Version>
5.8.1

> <Gold.Id.Protein>
6NUR|6NUR_protein|mol2

> <Gold.PLP.Fitness>
48.8250

> <Gold.PLP.PLP>
-42.9667

> <Gold.PLP.part.hbond>
-2.0000

> <Gold.PLP.part.metal>
0.0000

> <Gold.PLP.part.buried>
-4.4691

> <Gold.PLP.part.nonpolar>
-36.7217

> <Gold.PLP.part.repulsive>
0.0000

> <Gold.PLP.ligand.clash>
0.0000

> <Gold.PLP.ligand.torsion>
0.0739

> <Gold.PLP.Chemscore.Hbond>
2.0000

> <Gold.PLP.Chemscore.CHOScore>
0.0000

> <Gold.PLP.Chemscore.Metal>
0.0000

> <Gold.Chemscore.Hbonds>
donor molecule, donor type, donor heavy atom, donor atom, acceptor molecule, acceptor atom, score
      P1  H  7997  8010       L1    15  1.00
      P1  H 10752 10764       L1    18  1.00

> <Gold.PLP.Chemscore.Internal.Correction>
0.0060

> <Gold.Rescore>
     Score         DG    S(hbond)    S(metal)    S(lipo)     H(rot)  DE(clash)    DE(int)     intcor
     21.01     -21.19       1.97        0.00     119.86       1.90       0.16       0.02       ----

> <Gold.Chemscore.Fitness>
21.0079

> <Gold.Chemscore.DG>
-21.1911

> <Gold.Chemscore.ZeroCoef>
-5.4800

> <Gold.Chemscore.Hbond>
1.9651

> <Gold.Chemscore.Metal>
0.0000

> <Gold.Chemscore.Lipo>
119.8616

> <Gold.Chemscore.Internal_Hbond>
0.0000

> <Gold.Chemscore.DEClash>
0.1617

> <Gold.Chemscore.DEInternal>
0.0216

> <Gold.Chemscore.Rot>
1.9047

> <Gold.Chemscore.Internal.Correction>
   9.000000E+99

> <Gold.Chemscore.Hbonds>
donor molecule, donor type, donor heavy atom, donor atom, acceptor molecule, acceptor atom, score
      P1  H  7997  8010       L1    15  0.91
      P1  H 10752 10764       L1    18  1.00

> <Gold.Chemscore.Hbond.Weighted>
-6.5633

> <Gold.Chemscore.Metal.Weighted>
-0.0000

> <Gold.Chemscore.Lipo.Weighted>
-14.0238

> <Gold.Chemscore.Internal_Hbond.Weighted>
0.0000

> <Gold.Chemscore.DEClash.Weighted>
0.1617

> <Gold.Chemscore.DEInternal.Weighted>
0.0216

> <Gold.Chemscore.Rot.Weighted>
4.8760

> <Gold.Chemscore.Internal.Correction.Weighted>
   9.000000E+99

> <Gold.Protein.RotatedTorsions>
[ 6907 6896 6895 6894 ] final   58.54 input  -60.11 | X-H torsion
[ 7974 7965 7964 7962 ] final  -12.80 input  175.53 | X-H torsion
[ 8008 7997 7996 7995 ] final   53.78 input   59.86 | X-H torsion
[ 10167 10162 10161 10158 ] final   70.44 input  -65.29 | X-H torsion
[ 10718 10713 10712 10709 ] final   97.47 input   66.30 | X-H torsion
[ 10763 10752 10751 10750 ] final   38.90 input  -60.55 | X-H torsion
[ 11005 11000 10999 10996 ] final  140.75 input  -57.11 | X-H torsion

> <Gold.Protein.ActiveResidues>
 VAL166  LYS551  ARG553  GLY616  TRP617  ASP618  TYR619  PRO620  LYS621  CYS622 
 ASP623  PHE694  ASN695  SER759  ASP760  ASP761  ALA762  ILE779  LEU786  VAL792 
 PHE793  MET794  SER795  GLU796  ALA797  LYS798  CYS799  TRP800  GLU811  SER814 

> <Gold.Protein.RotatedAtoms>
  152.3833  134.6556  160.0134 H   0  0  0  0  0  0  0  0  0  0  0  0  # atno 6907 bound_to 6896
  151.6812  133.3306  159.3228 H   0  0  0  0  0  0  0  0  0  0  0  0  # atno 6908 bound_to 6896
  150.7765  134.6715  159.6439 H   0  0  0  0  0  0  0  0  0  0  0  0  # atno 6909 bound_to 6896
  146.2138  140.3110  142.8382 H   0  0  0  0  0  0  0  0  0  0  0  0  # atno 7974 bound_to 7965
  155.4739  140.3466  155.4330 H   0  0  0  0  0  0  0  0  0  0  0  0  # atno 8008 bound_to 7997
  156.1083  140.1454  156.9403 H   0  0  0  0  0  0  0  0  0  0  0  0  # atno 8009 bound_to 7997
  154.4739  140.0891  156.7191 H   0  0  0  0  0  0  0  0  0  0  0  0  # atno 8010 bound_to 7997
  140.0569  144.5265  150.7322 H   0  0  0  0  0  0  0  0  0  0  0  0  # atno 10167 bound_to 10162
  157.6912  131.0610  150.4649 H   0  0  0  0  0  0  0  0  0  0  0  0  # atno 10718 bound_to 10713
  152.9985  135.6236  154.2379 H   0  0  0  0  0  0  0  0  0  0  0  0  # atno 10763 bound_to 10752
  154.2120  135.2799  155.2956 H   0  0  0  0  0  0  0  0  0  0  0  0  # atno 10764 bound_to 10752
  154.5598  135.5708  153.7056 H   0  0  0  0  0  0  0  0  0  0  0  0  # atno 10765 bound_to 10752
  140.0350  134.9333  157.0736 H   0  0  0  0  0  0  0  0  0  0  0  0  # atno 11005 bound_to 11000
  144.8988  140.7616  143.5880 LP  0  0  0  0  0  0  0  0  0  0  0  0  # atno 17320 bound_to 7965
  145.3035  139.1842  143.4676 LP  0  0  0  0  0  0  0  0  0  0  0  0  # atno 17321 bound_to 7965
  140.7190  143.2571  151.4340 LP  0  0  0  0  0  0  0  0  0  0  0  0  # atno 17342 bound_to 10162
  139.5918  144.1483  152.2097 LP  0  0  0  0  0  0  0  0  0  0  0  0  # atno 17343 bound_to 10162
  156.4990  130.4113  149.6363 LP  0  0  0  0  0  0  0  0  0  0  0  0  # atno 17370 bound_to 10713
  156.3345  130.7349  151.2284 LP  0  0  0  0  0  0  0  0  0  0  0  0  # atno 17371 bound_to 10713
  140.4162  134.1929  155.7163 LP  0  0  0  0  0  0  0  0  0  0  0  0  # atno 17394 bound_to 11000
  141.1852  133.8327  157.1111 LP  0  0  0  0  0  0  0  0  0  0  0  0  # atno 17395 bound_to 11000

$$$$
