AV-unprocessed.smi:2827|AV-procd|sdf|10896|dock6
  -GOLD-   2272015343D 1   1.00000     0.00000
 Structure written by MMmdl.
 48 51  0  0  0  0  0  0  0  0  3 V2000
  152.9490  138.9241  156.6612 O   0  0  0  0  0  0  0  0  0  0  0  0
  152.5960  138.8865  157.8396 C   0  0  0  0  0  0  0  0  0  0  0  0
  152.7858  137.6072  158.6563 C   0  0  0  0  0  0  0  0  0  0  0  0
  153.7304  137.8542  159.7416 N   0  0  0  0  0  0  0  0  0  0  0  0
  153.4190  137.5294  161.0582 C   0  0  0  0  0  0  0  0  0  0  0  0
  154.0891  137.9952  162.1290 C   0  0  0  0  0  0  0  0  0  0  0  0
  155.2272  138.9150  161.9294 C   0  0  0  0  0  0  0  0  0  0  0  0
  155.8256  139.3908  162.8928 O   0  0  0  0  0  0  0  0  0  0  0  0
  155.5935  139.2372  160.5203 C   0  0  0  0  0  0  0  0  0  0  0  0
  156.6885  140.0959  160.1207 N   0  3  0  0  0  0  0  0  0  0  0  0
  156.9875  140.1660  158.9314 O   0  0  0  0  0  0  0  0  0  0  0  0
  157.2856  140.7301  160.9841 O   0  5  0  0  0  0  0  0  0  0  0  0
  154.8340  138.6841  159.5422 C   0  0  0  0  0  0  0  0  0  0  0  0
  151.9930  139.9047  158.4720 N   0  0  0  0  0  0  0  0  0  0  0  0
  151.5000  141.1226  157.8386 C   0  0  0  0  0  0  0  0  0  0  0  0
  151.1631  142.2016  158.8978 C   0  0  2  0  0  0  0  0  0  0  0  0
  150.4999  143.4927  158.3371 C   0  0  2  0  0  0  0  0  0  0  0  0
  151.5075  144.3072  157.4937 C   0  0  0  0  0  0  0  0  0  0  0  0
  152.7112  144.7057  158.3740 C   0  0  1  0  0  0  0  0  0  0  0  0
  152.2214  145.5711  159.5550 C   0  0  0  0  0  0  0  0  0  0  0  0
  151.2130  144.7604  160.3968 C   0  0  1  0  0  0  0  0  0  0  0  0
  150.0093  144.3643  159.5146 C   0  0  0  0  0  0  0  0  0  0  0  0
  151.9002  143.4876  160.9392 C   0  0  0  0  0  0  0  0  0  0  0  0
  152.3860  142.6187  159.7562 C   0  0  2  0  0  0  0  0  0  0  0  0
  153.3986  143.4353  158.9185 C   0  0  0  0  0  0  0  0  0  0  0  0
  151.8237  137.2844  159.0565 H   0  0  0  0  0  0  0  0  0  0  0  0
  153.1438  136.7963  158.0198 H   0  0  0  0  0  0  0  0  0  0  0  0
  152.5797  136.8578  161.1651 H   0  0  0  0  0  0  0  0  0  0  0  0
  153.8087  137.7155  163.1339 H   0  0  0  0  0  0  0  0  0  0  0  0
  155.0409  138.8636  158.4967 H   0  0  0  0  0  0  0  0  0  0  0  0
  151.7601  139.7793  159.4465 H   0  0  0  0  0  0  0  0  0  0  0  0
  152.2879  141.4916  157.1815 H   0  0  0  0  0  0  0  0  0  0  0  0
  150.6480  140.9105  157.1930 H   0  0  0  0  0  0  0  0  0  0  0  0
  150.4423  141.7325  159.5701 H   0  0  0  0  0  0  0  0  0  0  0  0
  149.6376  143.2418  157.7218 H   0  0  0  0  0  0  0  0  0  0  0  0
  151.8428  143.7337  156.6298 H   0  0  0  0  0  0  0  0  0  0  0  0
  151.0241  145.1991  157.0931 H   0  0  0  0  0  0  0  0  0  0  0  0
  153.4237  145.2766  157.7777 H   0  0  0  0  0  0  0  0  0  0  0  0
  153.0657  145.8815  160.1722 H   0  0  0  0  0  0  0  0  0  0  0  0
  151.7567  146.4863  159.1861 H   0  0  0  0  0  0  0  0  0  0  0  0
  150.8655  145.3697  161.2318 H   0  0  0  0  0  0  0  0  0  0  0  0
  149.5053  145.2559  159.1392 H   0  0  0  0  0  0  0  0  0  0  0  0
  149.2703  143.8220  160.1055 H   0  0  0  0  0  0  0  0  0  0  0  0
  152.7408  143.7575  161.5798 H   0  0  0  0  0  0  0  0  0  0  0  0
  151.2076  142.9232  161.5648 H   0  0  0  0  0  0  0  0  0  0  0  0
  152.8765  141.7281  160.1501 H   0  0  0  0  0  0  0  0  0  0  0  0
  153.7975  142.8383  158.0986 H   0  0  0  0  0  0  0  0  0  0  0  0
  154.2566  143.7095  159.5335 H   0  0  0  0  0  0  0  0  0  0  0  0
  1  2  2  0  0  0  0
  2  3  1  0  0  0  0
  2 14  1  0  0  0  0
  3  4  1  0  0  0  0
  3 26  1  0  0  0  0
  3 27  1  0  0  0  0
  4 13  1  0  0  0  0
  4  5  1  0  0  0  0
  5  6  2  0  0  0  0
  5 28  1  0  0  0  0
  6  7  1  0  0  0  0
  6 29  1  0  0  0  0
  7  8  2  0  0  0  0
  7  9  1  0  0  0  0
  9 10  1  0  0  0  0
  9 13  2  0  0  0  0
 10 11  2  0  0  0  0
 10 12  1  0  0  0  0
 13 30  1  0  0  0  0
 14 15  1  0  0  0  0
 14 31  1  0  0  0  0
 15 16  1  0  0  0  0
 15 32  1  0  0  0  0
 15 33  1  0  0  0  0
 16 24  1  0  0  0  0
 16 17  1  0  0  0  0
 16 34  1  0  0  0  0
 17 22  1  0  0  0  0
 17 18  1  0  0  0  0
 17 35  1  0  0  0  0
 18 19  1  0  0  0  0
 18 36  1  0  0  0  0
 18 37  1  0  0  0  0
 19 25  1  0  0  0  0
 19 20  1  0  0  0  0
 19 38  1  0  0  0  0
 20 21  1  0  0  0  0
 20 39  1  0  0  0  0
 20 40  1  0  0  0  0
 21 22  1  0  0  0  0
 21 23  1  0  0  0  0
 21 41  1  0  0  0  0
 22 42  1  0  0  0  0
 22 43  1  0  0  0  0
 23 24  1  0  0  0  0
 23 44  1  0  0  0  0
 23 45  1  0  0  0  0
 24 25  1  0  0  0  0
 24 46  1  0  0  0  0
 25 47  1  0  0  0  0
 25 48  1  0  0  0  0
M  CHG  1  10   1
M  CHG  1  12  -1
M  END
> <s_m_source_file>
AV-unprocessed.smi

> <i_m_source_file_index>
2827

> <i_lp_mmshare_version>
43012

> <i_f3d_flags>
0

> <s_epik_input>
Tz1bTitdKFtPLV0pYyhbY0hdMSljKD1PKVtjSF1bY0hdbjFbQ0gyXUMoPU8pW05IXVtDSDJdW0NASF0oW0NASF0yMylbQ0BASF00W0NIMl1bQ0BIXShbQ0gyXTMpW0NIMl1bQ0BIXShbQ0gyXTIpW0NIMl00

> <s_epik_cmdline>
J2VwaWtfcHl0aG9uJywgJy1waCcsICc3LjAnLCAnLXRuJywgJzgnLCAnLW1hJywgJzIwMCcsICctbWV0YWxfYmluZGluZycsICctaW1hZScsICc8aW5maWxlLm1hZT4nLCAnLW9tYWUnLCAnPG91dGZpbGUubWFlPic=

> <r_lp_tautomer_probability>
1

> <r_epik_Ionization_Penalty>
3.31423e-08

> <r_epik_Ionization_Penalty_Charging>
1.04538e-08

> <r_epik_Ionization_Penalty_Neutral>
2.26885e-08

> <r_epik_State_Penalty>
-0

> <r_epik_Charging_Adjusted_Penalty>
1.04538e-08

> <i_epik_Tot_Q>
0

> <i_epik_Tot_abs_Q>
2

> <r_epik_Metal_State_Penalty>
-0

> <b_epik_Metal_Only>
0

> <s_lp_Force_Field>
OPLS_2005

> <r_lp_Energy>
36.4142

> <b_lp_Chiralities_Consistent>
1

> <s_lp_Variant>
AV-unprocessed.smi:2827-1

> <Gold.Version>
5.8.1

> <Gold.Id.Protein>
6NUR|6NUR_protein|mol2

> <Gold.PLP.Fitness>
54.9162

> <Gold.PLP.PLP>
-49.4640

> <Gold.PLP.part.hbond>
-3.0000

> <Gold.PLP.part.metal>
0.0000

> <Gold.PLP.part.buried>
-6.2997

> <Gold.PLP.part.nonpolar>
-38.7259

> <Gold.PLP.part.repulsive>
0.1741

> <Gold.PLP.ligand.clash>
0.0000

> <Gold.PLP.ligand.torsion>
0.3399

> <Gold.PLP.Chemscore.Hbond>
2.0000

> <Gold.PLP.Chemscore.CHOScore>
0.0000

> <Gold.PLP.Chemscore.Metal>
0.0000

> <Gold.Chemscore.Hbonds>
donor molecule, donor type, donor heavy atom, donor atom, acceptor molecule, acceptor atom, score
      P1  H  7997  8008       L1     1  1.00
      P1  H  7997  8010       L1    11  0.99

> <Gold.PLP.Chemscore.Internal.Correction>
0.1319

> <Gold.Rescore>
     Score         DG    S(hbond)    S(metal)    S(lipo)     H(rot)  DE(clash)    DE(int)     intcor
     21.70     -23.54       1.68        0.00     144.84       1.75       0.16       1.68       ----

> <Gold.Chemscore.Fitness>
21.6981

> <Gold.Chemscore.DG>
-23.5436

> <Gold.Chemscore.ZeroCoef>
-5.4800

> <Gold.Chemscore.Hbond>
1.6787

> <Gold.Chemscore.Metal>
0.0000

> <Gold.Chemscore.Lipo>
144.8440

> <Gold.Chemscore.Internal_Hbond>
0.0000

> <Gold.Chemscore.DEClash>
0.1627

> <Gold.Chemscore.DEInternal>
1.6828

> <Gold.Chemscore.Rot>
1.7540

> <Gold.Chemscore.Internal.Correction>
   9.000000E+99

> <Gold.Chemscore.Hbonds>
donor molecule, donor type, donor heavy atom, donor atom, acceptor molecule, acceptor atom, score
      P1  H  7997  8008       L1     1  0.70
      P1  H  7997  8010       L1    11  0.89

> <Gold.Chemscore.Hbond.Weighted>
-5.6070

> <Gold.Chemscore.Metal.Weighted>
-0.0000

> <Gold.Chemscore.Lipo.Weighted>
-16.9467

> <Gold.Chemscore.Internal_Hbond.Weighted>
0.0000

> <Gold.Chemscore.DEClash.Weighted>
0.1627

> <Gold.Chemscore.DEInternal.Weighted>
1.6828

> <Gold.Chemscore.Rot.Weighted>
4.4902

> <Gold.Chemscore.Internal.Correction.Weighted>
   9.000000E+99

> <Gold.Protein.RotatedTorsions>
[ 6907 6896 6895 6894 ] final   25.47 input  -60.11 | X-H torsion
[ 7974 7965 7964 7962 ] final -102.66 input  175.53 | X-H torsion
[ 8008 7997 7996 7995 ] final  -52.25 input   59.86 | X-H torsion
[ 10167 10162 10161 10158 ] final -128.56 input  -65.29 | X-H torsion
[ 10718 10713 10712 10709 ] final -117.49 input   66.30 | X-H torsion
[ 10763 10752 10751 10750 ] final  116.36 input  -60.55 | X-H torsion
[ 11005 11000 10999 10996 ] final  142.42 input  -57.11 | X-H torsion

> <Gold.Protein.ActiveResidues>
 VAL166  LYS551  ARG553  GLY616  TRP617  ASP618  TYR619  PRO620  LYS621  CYS622 
 ASP623  PHE694  ASN695  SER759  ASP760  ASP761  ALA762  ILE779  LEU786  VAL792 
 PHE793  MET794  SER795  GLU796  ALA797  LYS798  CYS799  TRP800  GLU811  SER814 

> <Gold.Protein.RotatedAtoms>
  151.9730  135.0067  160.0553 H   0  0  0  0  0  0  0  0  0  0  0  0  # atno 6907 bound_to 6896
  152.1766  133.4674  159.4945 H   0  0  0  0  0  0  0  0  0  0  0  0  # atno 6908 bound_to 6896
  150.6910  134.1803  159.4289 H   0  0  0  0  0  0  0  0  0  0  0  0  # atno 6909 bound_to 6896
  145.2659  140.9284  143.3014 H   0  0  0  0  0  0  0  0  0  0  0  0  # atno 7974 bound_to 7965
  154.4102  140.1228  156.4960 H   0  0  0  0  0  0  0  0  0  0  0  0  # atno 8008 bound_to 7997
  155.6942  140.3495  155.4886 H   0  0  0  0  0  0  0  0  0  0  0  0  # atno 8009 bound_to 7997
  155.9442  140.1093  157.1020 H   0  0  0  0  0  0  0  0  0  0  0  0  # atno 8010 bound_to 7997
  139.9490  143.6078  152.2481 H   0  0  0  0  0  0  0  0  0  0  0  0  # atno 10167 bound_to 10162
  156.1037  130.6193  150.9170 H   0  0  0  0  0  0  0  0  0  0  0  0  # atno 10718 bound_to 10713
  153.5361  135.3568  155.2697 H   0  0  0  0  0  0  0  0  0  0  0  0  # atno 10763 bound_to 10752
  154.8722  135.4080  154.3097 H   0  0  0  0  0  0  0  0  0  0  0  0  # atno 10764 bound_to 10752
  153.3795  135.7067  153.6644 H   0  0  0  0  0  0  0  0  0  0  0  0  # atno 10765 bound_to 10752
  140.0476  134.9272  157.0958 H   0  0  0  0  0  0  0  0  0  0  0  0  # atno 11005 bound_to 11000
  144.9377  139.4225  143.6464 LP  0  0  0  0  0  0  0  0  0  0  0  0  # atno 17320 bound_to 7965
  146.3261  139.8321  142.8906 LP  0  0  0  0  0  0  0  0  0  0  0  0  # atno 17321 bound_to 7965
  139.6644  144.7662  151.1901 LP  0  0  0  0  0  0  0  0  0  0  0  0  # atno 17342 bound_to 10162
  140.7589  143.5961  150.8747 LP  0  0  0  0  0  0  0  0  0  0  0  0  # atno 17343 bound_to 10162
  157.6211  131.0929  150.8620 LP  0  0  0  0  0  0  0  0  0  0  0  0  # atno 17370 bound_to 10713
  156.8743  130.5157  149.5295 LP  0  0  0  0  0  0  0  0  0  0  0  0  # atno 17371 bound_to 10713
  140.3969  134.2124  155.7164 LP  0  0  0  0  0  0  0  0  0  0  0  0  # atno 17394 bound_to 11000
  141.1914  133.8195  157.0879 LP  0  0  0  0  0  0  0  0  0  0  0  0  # atno 17395 bound_to 11000

$$$$
