AV-unprocessed.smi:45|AV-procd|sdf|410|dock10
  -GOLD-   2262016273D 1   1.00000     0.00000
 Structure written by MMmdl.
 61 64  0  0  0  0  0  0  0  0  2 V2000
  146.7360  135.8403  162.6774 C   0  0  0  0  0  0  0  0  0  0  0  0
  146.8640  134.7097  161.8278 O   0  0  0  0  0  0  0  0  0  0  0  0
  147.2653  134.9148  160.5237 C   0  0  0  0  0  0  0  0  0  0  0  0
  147.5696  136.1900  159.9832 C   0  0  0  0  0  0  0  0  0  0  0  0
  147.9745  136.3206  158.6408 C   0  0  0  0  0  0  0  0  0  0  0  0
  148.0798  135.1834  157.8153 C   0  0  0  0  0  0  0  0  0  0  0  0
  148.5211  135.3201  156.3711 C   0  0  0  0  0  0  0  0  0  0  0  0
  149.5279  134.3436  155.9776 N   0  0  0  0  0  0  0  0  0  0  0  0
  149.2422  133.3475  155.0281 C   0  0  0  0  0  0  0  0  0  0  0  0
  148.2201  133.5688  154.1716 N   0  0  0  0  0  0  0  0  0  0  0  0
  147.8947  132.6569  153.2464 C   0  0  0  0  0  0  0  0  0  0  0  0
  146.8366  132.9146  152.3756 N   0  0  0  0  0  0  0  0  0  0  0  0
  146.2341  134.2400  152.2823 C   0  0  0  0  0  0  0  0  0  0  0  0
  145.7805  134.3960  150.8317 C   0  0  0  0  0  0  0  0  0  0  0  0
  145.4949  132.9620  150.4063 C   0  0  0  0  0  0  0  0  0  0  0  0
  146.5544  132.1462  151.1613 C   0  0  2  0  0  0  0  0  0  0  0  0
  146.0961  130.6993  151.4429 C   0  0  0  0  0  0  0  0  0  0  0  0
  147.1289  129.7955  151.1130 O   0  0  0  0  0  0  0  0  0  0  0  0
  148.5536  131.4922  153.1385 N   0  3  0  0  0  0  0  0  0  0  0  0
  149.5825  131.2158  153.9748 C   0  0  0  0  0  0  0  0  0  0  0  0
  149.9749  132.1356  154.9712 C   0  0  0  0  0  0  0  0  0  0  0  0
  151.1408  131.8288  155.8727 C   0  0  0  0  0  0  0  0  0  0  0  0
  151.2817  132.4000  156.9540 O   0  0  0  0  0  0  0  0  0  0  0  0
  151.9787  130.8826  155.4202 N   0  0  0  0  0  0  0  0  0  0  0  0
  153.1927  130.4497  156.1022 C   0  0  0  0  0  0  0  0  0  0  0  0
  154.4334  131.1507  155.5777 C   0  0  0  0  0  0  0  0  0  0  0  0
  154.7779  130.8897  154.3118 N   0  0  0  0  0  0  0  0  0  0  0  0
  155.8771  131.5155  153.8375 C   0  0  0  0  0  0  0  0  0  0  0  0
  156.6263  132.4045  154.6339 C   0  0  0  0  0  0  0  0  0  0  0  0
  156.1656  132.6015  155.9514 C   0  0  0  0  0  0  0  0  0  0  0  0
  155.0667  131.9719  156.4212 N   0  0  0  0  0  0  0  0  0  0  0  0
  147.7821  133.9132  158.3464 C   0  0  0  0  0  0  0  0  0  0  0  0
  147.3770  133.7801  159.6891 C   0  0  0  0  0  0  0  0  0  0  0  0
  147.0178  132.2073  160.3067 Cl  0  0  0  0  0  0  0  0  0  0  0  0
  147.4717  132.1286  150.5707 H   0  0  0  0  0  0  0  0  0  0  0  0
  146.4138  135.5124  163.6655 H   0  0  0  0  0  0  0  0  0  0  0  0
  145.9869  136.5387  162.3019 H   0  0  0  0  0  0  0  0  0  0  0  0
  147.6879  136.3594  162.7970 H   0  0  0  0  0  0  0  0  0  0  0  0
  147.5015  137.0871  160.5792 H   0  0  0  0  0  0  0  0  0  0  0  0
  148.2057  137.2996  158.2471 H   0  0  0  0  0  0  0  0  0  0  0  0
  147.6426  135.2094  155.7344 H   0  0  0  0  0  0  0  0  0  0  0  0
  148.9137  136.3239  156.2043 H   0  0  0  0  0  0  0  0  0  0  0  0
  150.4856  134.4968  156.2616 H   0  0  0  0  0  0  0  0  0  0  0  0
  145.3809  134.2842  152.9598 H   0  0  0  0  0  0  0  0  0  0  0  0
  146.9295  135.0333  152.5589 H   0  0  0  0  0  0  0  0  0  0  0  0
  144.9184  135.0548  150.7237 H   0  0  0  0  0  0  0  0  0  0  0  0
  146.5948  134.8022  150.2302 H   0  0  0  0  0  0  0  0  0  0  0  0
  144.4917  132.6824  150.7324 H   0  0  0  0  0  0  0  0  0  0  0  0
  145.5460  132.8230  149.3260 H   0  0  0  0  0  0  0  0  0  0  0  0
  145.8483  130.5471  152.4924 H   0  0  0  0  0  0  0  0  0  0  0  0
  145.2033  130.4535  150.8667 H   0  0  0  0  0  0  0  0  0  0  0  0
  147.9401  130.2759  151.0431 H   0  0  0  0  0  0  0  0  0  0  0  0
  150.0649  130.2628  153.8105 H   0  0  0  0  0  0  0  0  0  0  0  0
  151.7825  130.4516  154.5287 H   0  0  0  0  0  0  0  0  0  0  0  0
  153.0939  130.5988  157.1793 H   0  0  0  0  0  0  0  0  0  0  0  0
  153.3063  129.3755  155.9529 H   0  0  0  0  0  0  0  0  0  0  0  0
  156.1604  131.3054  152.8168 H   0  0  0  0  0  0  0  0  0  0  0  0
  157.5051  132.9061  154.2566 H   0  0  0  0  0  0  0  0  0  0  0  0
  156.6799  133.2658  156.6297 H   0  0  0  0  0  0  0  0  0  0  0  0
  147.8627  133.0337  157.7242 H   0  0  0  0  0  0  0  0  0  0  0  0
  148.2912  130.8112  152.4257 H   0  0  0  0  0  0  0  0  0  0  0  0
  1  2  1  0  0  0  0
  1 36  1  0  0  0  0
  1 37  1  0  0  0  0
  1 38  1  0  0  0  0
  2  3  1  0  0  0  0
  3 33  1  0  0  0  0
  3  4  2  0  0  0  0
  4  5  1  0  0  0  0
  4 39  1  0  0  0  0
  5  6  2  0  0  0  0
  5 40  1  0  0  0  0
  6  7  1  0  0  0  0
  6 32  1  0  0  0  0
  7  8  1  0  0  0  0
  7 41  1  0  0  0  0
  7 42  1  0  0  0  0
  8  9  1  0  0  0  0
  8 43  1  0  0  0  0
  9 21  1  0  0  0  0
  9 10  2  0  0  0  0
 10 11  1  0  0  0  0
 11 12  1  0  0  0  0
 11 19  2  0  0  0  0
 12 16  1  0  0  0  0
 12 13  1  0  0  0  0
 13 14  1  0  0  0  0
 13 44  1  0  0  0  0
 13 45  1  0  0  0  0
 14 15  1  0  0  0  0
 14 46  1  0  0  0  0
 14 47  1  0  0  0  0
 15 16  1  0  0  0  0
 15 48  1  0  0  0  0
 15 49  1  0  0  0  0
 16 35  1  0  0  0  0
 16 17  1  0  0  0  0
 17 18  1  0  0  0  0
 17 50  1  0  0  0  0
 17 51  1  0  0  0  0
 18 52  1  0  0  0  0
 19 20  1  0  0  0  0
 19 61  1  0  0  0  0
 20 21  2  0  0  0  0
 20 53  1  0  0  0  0
 21 22  1  0  0  0  0
 22 23  2  0  0  0  0
 22 24  1  0  0  0  0
 24 25  1  0  0  0  0
 24 54  1  0  0  0  0
 25 26  1  0  0  0  0
 25 55  1  0  0  0  0
 25 56  1  0  0  0  0
 26 31  1  0  0  0  0
 26 27  2  0  0  0  0
 27 28  1  0  0  0  0
 28 29  2  0  0  0  0
 28 57  1  0  0  0  0
 29 30  1  0  0  0  0
 29 58  1  0  0  0  0
 30 31  2  0  0  0  0
 30 59  1  0  0  0  0
 32 33  2  0  0  0  0
 32 60  1  0  0  0  0
 33 34  1  0  0  0  0
M  CHG  1  19   1
M  END
> <s_m_source_file>
AV-unprocessed.smi

> <i_m_source_file_index>
45

> <i_lp_mmshare_version>
43012

> <i_f3d_flags>
0

> <s_epik_input>
W0NIM11PYzFbY0hdW2NIXWMoW2NIXWMxQ2wpW0NIMl1bTkhdYzJuYyhOM1tDSDJdW0NIMl1bQ0gyXVtDQEhdM1tDSDJdW09IXSluW2NIXWMyQyg9TylbTkhdW0NIMl1jNG5bY0hdW2NIXVtjSF1uNA==

> <s_epik_cmdline>
J2VwaWtfcHl0aG9uJywgJy1waCcsICc3LjAnLCAnLXRuJywgJzgnLCAnLW1hJywgJzIwMCcsICctbWV0YWxfYmluZGluZycsICctaW1hZScsICc8aW5maWxlLm1hZT4nLCAnLW9tYWUnLCAnPG91dGZpbGUubWFlPic=

> <r_lp_tautomer_probability>
0.575011

> <r_epik_Ionization_Penalty>
1.61454

> <r_epik_Ionization_Penalty_Charging>
1.61448

> <r_epik_Ionization_Penalty_Neutral>
6.30284e-05

> <r_epik_State_Penalty>
1.91123

> <r_epik_Charging_Adjusted_Penalty>
3.52572

> <i_epik_Tot_Q>
1

> <i_epik_Tot_abs_Q>
1

> <r_epik_Metal_State_Penalty>
1.95488

> <b_epik_Metal_Only>
0

> <s_epik_Chemistry_Notes>
This compound contains an electron-poor aromatic ring that is susceptible to covalent hydrolysis at low pH, typically resulting in measured values for nitrogen ring protonation that are around two units higher than predicted values.

> <s_lp_Force_Field>
OPLS_2005

> <r_lp_Energy>
37.0931

> <b_lp_Chiralities_Consistent>
1

> <s_lp_Variant>
AV-unprocessed.smi:45-4

> <Gold.Version>
5.8.1

> <Gold.Id.Protein>
6NUR|6NUR_protein|mol2

> <Gold.PLP.Fitness>
54.9381

> <Gold.PLP.PLP>
-51.3074

> <Gold.PLP.part.hbond>
-2.0000

> <Gold.PLP.part.metal>
0.0000

> <Gold.PLP.part.buried>
-6.9523

> <Gold.PLP.part.nonpolar>
-42.5398

> <Gold.PLP.part.repulsive>
0.2228

> <Gold.PLP.ligand.clash>
0.0000

> <Gold.PLP.ligand.torsion>
1.4269

> <Gold.PLP.Chemscore.Hbond>
1.0000

> <Gold.PLP.Chemscore.CHOScore>
1.0000

> <Gold.PLP.Chemscore.Metal>
0.0000

> <Gold.Chemscore.Hbonds>
donor molecule, donor type, donor heavy atom, donor atom, acceptor molecule, acceptor atom, score
      L1  H    18    52       P1 10747  0.67
      L1  H    19    61       P1 10747  0.24
      L1  C    28    57       P1 10713  0.62

> <Gold.PLP.Chemscore.Internal.Correction>
0.4846

> <Gold.Rescore>
     Score         DG    S(hbond)    S(metal)    S(lipo)     H(rot)  DE(clash)    DE(int)     intcor
      9.90     -13.93       0.99        0.00     108.39       2.94       0.17       3.87       ----

> <Gold.Chemscore.Fitness>
9.8951

> <Gold.Chemscore.DG>
-13.9321

> <Gold.Chemscore.ZeroCoef>
-5.4800

> <Gold.Chemscore.Hbond>
0.9866

> <Gold.Chemscore.Metal>
0.0000

> <Gold.Chemscore.Lipo>
108.3940

> <Gold.Chemscore.Internal_Hbond>
0.0000

> <Gold.Chemscore.DEClash>
0.1720

> <Gold.Chemscore.DEInternal>
3.8650

> <Gold.Chemscore.Rot>
2.9395

> <Gold.Chemscore.Internal.Correction>
   9.000000E+99

> <Gold.Chemscore.Hbonds>
donor molecule, donor type, donor heavy atom, donor atom, acceptor molecule, acceptor atom, score
      L1  H    18    52       P1 10747  0.64
      L1  H    19    61       P1 10747  0.23
      P1  H  6896  6909       L1    23  0.05

> <Gold.Chemscore.Hbond.Weighted>
-3.2952

> <Gold.Chemscore.Metal.Weighted>
-0.0000

> <Gold.Chemscore.Lipo.Weighted>
-12.6821

> <Gold.Chemscore.Internal_Hbond.Weighted>
0.0000

> <Gold.Chemscore.DEClash.Weighted>
0.1720

> <Gold.Chemscore.DEInternal.Weighted>
3.8650

> <Gold.Chemscore.Rot.Weighted>
7.5251

> <Gold.Chemscore.Internal.Correction.Weighted>
   9.000000E+99

> <Gold.Protein.RotatedTorsions>
[ 6907 6896 6895 6894 ] final  -37.96 input  -60.11 | X-H torsion
[ 7974 7965 7964 7962 ] final -146.73 input  175.53 | X-H torsion
[ 8008 7997 7996 7995 ] final  -12.43 input   59.86 | X-H torsion
[ 10167 10162 10161 10158 ] final  -82.55 input  -65.29 | X-H torsion
[ 10718 10713 10712 10709 ] final   -8.34 input   66.30 | X-H torsion
[ 10763 10752 10751 10750 ] final -117.43 input  -60.55 | X-H torsion
[ 11005 11000 10999 10996 ] final   77.05 input  -57.11 | X-H torsion

> <Gold.Protein.ActiveResidues>
 VAL166  LYS551  ARG553  GLY616  TRP617  ASP618  TYR619  PRO620  LYS621  CYS622 
 ASP623  PHE694  ASN695  SER759  ASP760  ASP761  ALA762  ILE779  LEU786  VAL792 
 PHE793  MET794  SER795  GLU796  ALA797  LYS798  CYS799  TRP800  GLU811  SER814 

> <Gold.Protein.RotatedAtoms>
  151.0083  134.9377  159.7992 H   0  0  0  0  0  0  0  0  0  0  0  0  # atno 6907 bound_to 6896
  152.5296  134.3062  159.9107 H   0  0  0  0  0  0  0  0  0  0  0  0  # atno 6908 bound_to 6896
  151.3068  133.4056  159.2678 H   0  0  0  0  0  0  0  0  0  0  0  0  # atno 6909 bound_to 6896
  144.8140  140.5418  143.5623 H   0  0  0  0  0  0  0  0  0  0  0  0  # atno 7974 bound_to 7965
  154.5378  140.2276  155.8693 H   0  0  0  0  0  0  0  0  0  0  0  0  # atno 8008 bound_to 7997
  156.1829  140.3096  155.9145 H   0  0  0  0  0  0  0  0  0  0  0  0  # atno 8009 bound_to 7997
  155.3319  140.0446  157.3033 H   0  0  0  0  0  0  0  0  0  0  0  0  # atno 8010 bound_to 7997
  140.4309  143.2549  151.8761 H   0  0  0  0  0  0  0  0  0  0  0  0  # atno 10167 bound_to 10162
  156.7040  130.5102  149.5909 H   0  0  0  0  0  0  0  0  0  0  0  0  # atno 10718 bound_to 10713
  154.8554  135.4310  154.1978 H   0  0  0  0  0  0  0  0  0  0  0  0  # atno 10763 bound_to 10752
  153.3031  135.6970  153.7190 H   0  0  0  0  0  0  0  0  0  0  0  0  # atno 10764 bound_to 10752
  153.6312  135.3484  155.3016 H   0  0  0  0  0  0  0  0  0  0  0  0  # atno 10765 bound_to 10752
  139.9271  134.7651  156.1473 H   0  0  0  0  0  0  0  0  0  0  0  0  # atno 11005 bound_to 11000
  145.5258  139.1476  143.3527 LP  0  0  0  0  0  0  0  0  0  0  0  0  # atno 17320 bound_to 7965
  146.2441  140.5398  142.8921 LP  0  0  0  0  0  0  0  0  0  0  0  0  # atno 17321 bound_to 7965
  139.4785  144.5336  151.8631 LP  0  0  0  0  0  0  0  0  0  0  0  0  # atno 17342 bound_to 10162
  140.4428  144.1962  150.5892 LP  0  0  0  0  0  0  0  0  0  0  0  0  # atno 17343 bound_to 10162
  156.1708  130.6436  151.0835 LP  0  0  0  0  0  0  0  0  0  0  0  0  # atno 17370 bound_to 10713
  157.6962  131.0793  150.6961 LP  0  0  0  0  0  0  0  0  0  0  0  0  # atno 17371 bound_to 10713
  141.0836  133.6743  156.2389 LP  0  0  0  0  0  0  0  0  0  0  0  0  # atno 17394 bound_to 11000
  140.6305  134.5269  157.5559 LP  0  0  0  0  0  0  0  0  0  0  0  0  # atno 17395 bound_to 11000

$$$$
