AV-unprocessed.smi:2822|AV-procd|sdf|10880|dock1
  -GOLD-   2272015323D 1   1.00000     0.00000
 Structure written by MMmdl.
 39 41  0  0  0  0  0  0  0  0  1 V2000
  146.6365  142.4563  156.2823 Cl  0  0  0  0  0  0  0  0  0  0  0  0
  147.3361  141.2521  155.2571 C   0  0  0  0  0  0  0  0  0  0  0  0
  146.5296  140.5855  154.3119 C   0  0  0  0  0  0  0  0  0  0  0  0
  146.9949  139.6346  153.4748 N   0  0  0  0  0  0  0  0  0  0  0  0
  148.3026  139.3128  153.5562 C   0  0  0  0  0  0  0  0  0  0  0  0
  149.1956  139.9158  154.4642 C   0  0  0  0  0  0  0  0  0  0  0  0
  148.7064  140.9130  155.3411 C   0  0  0  0  0  0  0  0  0  0  0  0
  149.5265  141.5666  156.2737 N   0  0  0  0  0  0  0  0  0  0  0  0
  150.9428  141.7712  156.0110 C   0  0  0  0  0  0  0  0  0  0  0  0
  151.6310  142.5118  157.1655 C   0  0  2  0  0  0  0  0  0  0  0  0
  152.0672  141.5424  158.2800 C   0  0  0  0  0  0  0  0  0  0  0  0
  152.6468  142.2440  159.4186 N   0  0  0  0  0  0  0  0  0  0  0  0
  153.0443  141.3108  160.4715 C   0  0  0  0  0  0  0  0  0  0  0  0
  153.6910  142.0214  161.6712 C   0  0  0  0  0  0  0  0  0  0  0  0
  152.7401  143.0862  162.2357 C   0  0  0  0  0  0  0  0  0  0  0  0
  152.2818  144.0319  161.1148 C   0  0  0  0  0  0  0  0  0  0  0  0
  151.6978  143.2388  159.9273 C   0  0  1  0  0  0  0  0  0  0  0  0
  151.2473  144.1930  158.8027 C   0  0  0  0  0  0  0  0  0  0  0  0
  150.7054  143.4437  157.7198 O   0  0  0  0  0  0  0  0  0  0  0  0
  145.4794  140.8224  154.2250 H   0  0  0  0  0  0  0  0  0  0  0  0
  148.6501  138.5502  152.8749 H   0  0  0  0  0  0  0  0  0  0  0  0
  150.2300  139.6068  154.4703 H   0  0  0  0  0  0  0  0  0  0  0  0
  149.1868  141.7091  157.2143 H   0  0  0  0  0  0  0  0  0  0  0  0
  151.4307  140.8113  155.8364 H   0  0  0  0  0  0  0  0  0  0  0  0
  151.0416  142.3580  155.0971 H   0  0  0  0  0  0  0  0  0  0  0  0
  152.5057  143.0450  156.7874 H   0  0  0  0  0  0  0  0  0  0  0  0
  151.2067  140.9565  158.6071 H   0  0  0  0  0  0  0  0  0  0  0  0
  152.7926  140.8329  157.8797 H   0  0  0  0  0  0  0  0  0  0  0  0
  152.1757  140.7447  160.8117 H   0  0  0  0  0  0  0  0  0  0  0  0
  153.7482  140.5819  160.0681 H   0  0  0  0  0  0  0  0  0  0  0  0
  153.9470  141.2972  162.4449 H   0  0  0  0  0  0  0  0  0  0  0  0
  154.6255  142.4898  161.3594 H   0  0  0  0  0  0  0  0  0  0  0  0
  151.8717  142.6009  162.6831 H   0  0  0  0  0  0  0  0  0  0  0  0
  153.2291  143.6490  163.0314 H   0  0  0  0  0  0  0  0  0  0  0  0
  151.5408  144.7313  161.5035 H   0  0  0  0  0  0  0  0  0  0  0  0
  153.1281  144.6318  160.7769 H   0  0  0  0  0  0  0  0  0  0  0  0
  150.8093  142.7157  160.2849 H   0  0  0  0  0  0  0  0  0  0  0  0
  150.4843  144.8801  159.1688 H   0  0  0  0  0  0  0  0  0  0  0  0
  152.0813  144.8012  158.4482 H   0  0  0  0  0  0  0  0  0  0  0  0
  1  2  1  0  0  0  0
  2  7  1  0  0  0  0
  2  3  2  0  0  0  0
  3  4  1  0  0  0  0
  3 20  1  0  0  0  0
  4  5  2  0  0  0  0
  5  6  1  0  0  0  0
  5 21  1  0  0  0  0
  6  7  2  0  0  0  0
  6 22  1  0  0  0  0
  7  8  1  0  0  0  0
  8  9  1  0  0  0  0
  8 23  1  0  0  0  0
  9 10  1  0  0  0  0
  9 24  1  0  0  0  0
  9 25  1  0  0  0  0
 10 19  1  0  0  0  0
 10 11  1  0  0  0  0
 10 26  1  0  0  0  0
 11 12  1  0  0  0  0
 11 27  1  0  0  0  0
 11 28  1  0  0  0  0
 12 17  1  0  0  0  0
 12 13  1  0  0  0  0
 13 14  1  0  0  0  0
 13 29  1  0  0  0  0
 13 30  1  0  0  0  0
 14 15  1  0  0  0  0
 14 31  1  0  0  0  0
 14 32  1  0  0  0  0
 15 16  1  0  0  0  0
 15 33  1  0  0  0  0
 15 34  1  0  0  0  0
 16 17  1  0  0  0  0
 16 35  1  0  0  0  0
 16 36  1  0  0  0  0
 17 18  1  0  0  0  0
 17 37  1  0  0  0  0
 18 19  1  0  0  0  0
 18 38  1  0  0  0  0
 18 39  1  0  0  0  0
M  END
> <s_m_source_file>
AV-unprocessed.smi

> <i_m_source_file_index>
2822

> <i_lp_mmshare_version>
43012

> <i_f3d_flags>
0

> <s_epik_input>
Q2xjMVtjSF1uW2NIXVtjSF1jMVtOSF1bQ0gyXVtDQEhdKFtDSDJdMilPW0NIMl1bQ0BASF0oTjIzKVtDSDJdW0NIMl1bQ0gyXVtDSDJdMw==

> <s_epik_cmdline>
J2VwaWtfcHl0aG9uJywgJy1waCcsICc3LjAnLCAnLXRuJywgJzgnLCAnLW1hJywgJzIwMCcsICctbWV0YWxfYmluZGluZycsICctaW1hZScsICc8aW5maWxlLm1hZT4nLCAnLW9tYWUnLCAnPG91dGZpbGUubWFlPic=

> <r_lp_tautomer_probability>
0.999999

> <r_epik_Ionization_Penalty>
2.10064

> <r_epik_Ionization_Penalty_Charging>
0

> <r_epik_Ionization_Penalty_Neutral>
2.10064

> <r_epik_State_Penalty>
2.1757

> <r_epik_Charging_Adjusted_Penalty>
2.1757

> <i_epik_Tot_Q>
0

> <i_epik_Tot_abs_Q>
0

> <r_epik_Metal_State_Penalty>
1.25425

> <b_epik_Metal_Only>
0

> <s_lp_Force_Field>
OPLS_2005

> <r_lp_Energy>
37.6936

> <b_lp_Chiralities_Consistent>
1

> <s_lp_Variant>
AV-unprocessed.smi:2822-21

> <Gold.Version>
5.8.1

> <Gold.Id.Protein>
6NUR|6NUR_protein|mol2

> <Gold.PLP.Fitness>
40.4653

> <Gold.PLP.PLP>
-34.2654

> <Gold.PLP.part.hbond>
-0.1662

> <Gold.PLP.part.metal>
0.0000

> <Gold.PLP.part.buried>
-4.1230

> <Gold.PLP.part.nonpolar>
-30.1518

> <Gold.PLP.part.repulsive>
1.1394

> <Gold.PLP.ligand.clash>
0.0000

> <Gold.PLP.ligand.torsion>
0.4708

> <Gold.PLP.Chemscore.Hbond>
0.0000

> <Gold.PLP.Chemscore.CHOScore>
2.3796

> <Gold.PLP.Chemscore.Metal>
0.0000

> <Gold.Chemscore.Hbonds>
donor molecule, donor type, donor heavy atom, donor atom, acceptor molecule, acceptor atom, score
      L1  C     3    20       P1 10175  1.00
      L1  C     5    21       P1  7948  1.00
      L1  C     5    21       P1  7957  0.38

> <Gold.PLP.Chemscore.Internal.Correction>
0.0027

> <Gold.Rescore>
     Score         DG    S(hbond)    S(metal)    S(lipo)     H(rot)  DE(clash)    DE(int)     intcor
     15.91     -16.44       0.00        0.00     118.87       1.15       0.14       0.39       ----

> <Gold.Chemscore.Fitness>
15.9062

> <Gold.Chemscore.DG>
-16.4388

> <Gold.Chemscore.ZeroCoef>
-5.4800

> <Gold.Chemscore.Hbond>
0.0000

> <Gold.Chemscore.Metal>
0.0000

> <Gold.Chemscore.Lipo>
118.8677

> <Gold.Chemscore.Internal_Hbond>
0.0000

> <Gold.Chemscore.DEClash>
0.1405

> <Gold.Chemscore.DEInternal>
0.3921

> <Gold.Chemscore.Rot>
1.1519

> <Gold.Chemscore.Internal.Correction>
   9.000000E+99

> <Gold.Chemscore.Hbond.Weighted>
-0.0000

> <Gold.Chemscore.Metal.Weighted>
-0.0000

> <Gold.Chemscore.Lipo.Weighted>
-13.9075

> <Gold.Chemscore.Internal_Hbond.Weighted>
0.0000

> <Gold.Chemscore.DEClash.Weighted>
0.1405

> <Gold.Chemscore.DEInternal.Weighted>
0.3921

> <Gold.Chemscore.Rot.Weighted>
2.9487

> <Gold.Chemscore.Internal.Correction.Weighted>
   9.000000E+99

> <Gold.Protein.RotatedTorsions>
[ 6907 6896 6895 6894 ] final   33.65 input  -60.11 | X-H torsion
[ 7974 7965 7964 7962 ] final   88.07 input  175.53 | X-H torsion
[ 8008 7997 7996 7995 ] final   11.13 input   59.86 | X-H torsion
[ 10167 10162 10161 10158 ] final  -50.13 input  -65.29 | X-H torsion
[ 10718 10713 10712 10709 ] final -179.79 input   66.30 | X-H torsion
[ 10763 10752 10751 10750 ] final   64.15 input  -60.55 | X-H torsion
[ 11005 11000 10999 10996 ] final  -62.71 input  -57.11 | X-H torsion

> <Gold.Protein.ActiveResidues>
 VAL166  LYS551  ARG553  GLY616  TRP617  ASP618  TYR619  PRO620  LYS621  CYS622 
 ASP623  PHE694  ASN695  SER759  ASP760  ASP761  ALA762  ILE779  LEU786  VAL792 
 PHE793  MET794  SER795  GLU796  ALA797  LYS798  CYS799  TRP800  GLU811  SER814 

> <Gold.Protein.RotatedAtoms>
  152.0915  134.9404  160.0571 H   0  0  0  0  0  0  0  0  0  0  0  0  # atno 6907 bound_to 6896
  152.0654  133.4076  159.4444 H   0  0  0  0  0  0  0  0  0  0  0  0  # atno 6908 bound_to 6896
  150.6837  134.3073  159.4775 H   0  0  0  0  0  0  0  0  0  0  0  0  # atno 6909 bound_to 6896
  145.5505  139.2295  143.2515 H   0  0  0  0  0  0  0  0  0  0  0  0  # atno 7974 bound_to 7965
  154.8028  140.2855  155.5909 H   0  0  0  0  0  0  0  0  0  0  0  0  # atno 8008 bound_to 7997
  156.2979  140.2583  156.2829 H   0  0  0  0  0  0  0  0  0  0  0  0  # atno 8009 bound_to 7997
  154.9538  140.0379  157.2146 H   0  0  0  0  0  0  0  0  0  0  0  0  # atno 8010 bound_to 7997
  140.6652  143.2670  151.4314 H   0  0  0  0  0  0  0  0  0  0  0  0  # atno 10167 bound_to 10162
  156.8644  130.9762  151.3080 H   0  0  0  0  0  0  0  0  0  0  0  0  # atno 10718 bound_to 10713
  153.0044  135.5403  154.6464 H   0  0  0  0  0  0  0  0  0  0  0  0  # atno 10763 bound_to 10752
  154.5706  135.2841  155.0833 H   0  0  0  0  0  0  0  0  0  0  0  0  # atno 10764 bound_to 10752
  154.2000  135.6485  153.5137 H   0  0  0  0  0  0  0  0  0  0  0  0  # atno 10765 bound_to 10752
  141.1369  133.6643  156.5569 H   0  0  0  0  0  0  0  0  0  0  0  0  # atno 11005 bound_to 11000
  146.1920  140.6328  142.9141 LP  0  0  0  0  0  0  0  0  0  0  0  0  # atno 17320 bound_to 7965
  144.7532  140.5242  143.6787 LP  0  0  0  0  0  0  0  0  0  0  0  0  # atno 17321 bound_to 7965
  139.5899  144.1522  152.2075 LP  0  0  0  0  0  0  0  0  0  0  0  0  # atno 17342 bound_to 10162
  140.0873  144.5650  150.7079 LP  0  0  0  0  0  0  0  0  0  0  0  0  # atno 17343 bound_to 10162
  157.6232  130.8671  149.9144 LP  0  0  0  0  0  0  0  0  0  0  0  0  # atno 17370 bound_to 10713
  156.0760  130.3679  150.0678 LP  0  0  0  0  0  0  0  0  0  0  0  0  # atno 17371 bound_to 10713
  140.4019  134.7349  157.4785 LP  0  0  0  0  0  0  0  0  0  0  0  0  # atno 17394 bound_to 11000
  140.0490  134.6158  155.8885 LP  0  0  0  0  0  0  0  0  0  0  0  0  # atno 17395 bound_to 11000

$$$$
