AV-unprocessed.smi:1643|AV-procd|sdf|6580|dock3
  -GOLD-   22720 7263D 1   1.00000     0.00000
 Structure written by MMmdl.
 55 57  0  0  0  0  0  0  0  0  3 V2000
  150.4688  141.0442  156.5464 C   0  0  0  0  0  0  0  0  0  0  0  0
  148.9934  141.1886  156.9299 C   0  0  0  0  0  0  0  0  0  0  0  0
  148.6901  141.0693  158.1171 O   0  0  0  0  0  0  0  0  0  0  0  0
  148.0803  141.4518  155.9630 N   0  0  0  0  0  0  0  0  0  0  0  0
  146.6709  141.7073  156.2979 C   0  0  0  0  0  0  0  0  0  0  0  0
  145.7844  140.4621  156.0781 C   0  0  0  0  0  0  0  0  0  0  0  0
  146.3782  139.3791  155.1512 C   0  0  0  0  0  0  0  0  0  0  0  0
  146.6100  139.8196  153.7480 N   0  3  2  0  0  0  0  0  0  0  0  0
  147.2488  138.7618  152.9193 C   0  0  0  0  0  0  0  0  0  0  0  0
  146.2907  137.5807  152.6848 C   0  0  1  0  0  0  0  0  0  0  0  0
  144.9528  138.0358  152.7472 O   0  0  0  0  0  0  0  0  0  0  0  0
  146.5263  136.9066  151.3186 C   0  0  0  0  0  0  0  0  0  0  0  0
  145.6984  135.7085  151.1268 N   0  0  0  0  0  0  0  0  0  0  0  0
  144.5373  135.5448  150.4355 C   0  0  0  0  0  0  0  0  0  0  0  0
  144.1640  134.2412  150.5634 N   0  3  0  0  0  0  0  0  0  0  0  0
  145.1006  133.5624  151.3457 C   0  0  0  0  0  0  0  0  0  0  0  0
  145.1581  132.2344  151.7514 C   0  0  0  0  0  0  0  0  0  0  0  0
  146.2575  131.8520  152.5531 C   0  0  0  0  0  0  0  0  0  0  0  0
  146.3527  130.4067  153.0112 C   0  0  0  0  0  0  0  0  0  0  0  0
  147.2535  132.7926  152.9237 C   0  0  0  0  0  0  0  0  0  0  0  0
  148.4310  132.3703  153.7858 C   0  0  0  0  0  0  0  0  0  0  0  0
  147.1768  134.1388  152.5007 C   0  0  0  0  0  0  0  0  0  0  0  0
  146.0879  134.4981  151.7103 C   0  0  0  0  0  0  0  0  0  0  0  0
  147.2366  141.1619  153.5650 C   0  0  0  0  0  0  0  0  0  0  0  0
  148.4142  141.4811  154.5247 C   0  0  0  0  0  0  0  0  0  0  0  0
  150.7958  141.8768  155.9231 H   0  0  0  0  0  0  0  0  0  0  0  0
  150.6387  140.1108  156.0099 H   0  0  0  0  0  0  0  0  0  0  0  0
  151.0958  141.0341  157.4385 H   0  0  0  0  0  0  0  0  0  0  0  0
  146.5514  142.0593  157.3240 H   0  0  0  0  0  0  0  0  0  0  0  0
  146.3079  142.5452  155.7037 H   0  0  0  0  0  0  0  0  0  0  0  0
  145.6053  139.9990  157.0492 H   0  0  0  0  0  0  0  0  0  0  0  0
  144.8034  140.7710  155.7155 H   0  0  0  0  0  0  0  0  0  0  0  0
  147.3042  138.9892  155.5771 H   0  0  0  0  0  0  0  0  0  0  0  0
  145.6911  138.5325  155.1232 H   0  0  0  0  0  0  0  0  0  0  0  0
  147.6135  139.1627  151.9719 H   0  0  0  0  0  0  0  0  0  0  0  0
  148.1363  138.3830  153.4290 H   0  0  0  0  0  0  0  0  0  0  0  0
  146.4362  136.8440  153.4761 H   0  0  0  0  0  0  0  0  0  0  0  0
  144.7553  138.5082  151.9525 H   0  0  0  0  0  0  0  0  0  0  0  0
  146.2977  137.5984  150.5066 H   0  0  0  0  0  0  0  0  0  0  0  0
  147.5723  136.6229  151.1958 H   0  0  0  0  0  0  0  0  0  0  0  0
  144.0063  136.3096  149.8873 H   0  0  0  0  0  0  0  0  0  0  0  0
  144.3959  131.5239  151.4658 H   0  0  0  0  0  0  0  0  0  0  0  0
  147.2761  129.9513  152.6523 H   0  0  0  0  0  0  0  0  0  0  0  0
  145.5202  129.8125  152.6334 H   0  0  0  0  0  0  0  0  0  0  0  0
  146.3371  130.3482  154.0997 H   0  0  0  0  0  0  0  0  0  0  0  0
  149.0919  133.2111  153.9987 H   0  0  0  0  0  0  0  0  0  0  0  0
  149.0191  131.6037  153.2808 H   0  0  0  0  0  0  0  0  0  0  0  0
  148.0852  131.9703  154.7393 H   0  0  0  0  0  0  0  0  0  0  0  0
  147.9357  134.8539  152.7815 H   0  0  0  0  0  0  0  0  0  0  0  0
  147.5816  141.2618  152.5353 H   0  0  0  0  0  0  0  0  0  0  0  0
  146.4542  141.9153  153.6457 H   0  0  0  0  0  0  0  0  0  0  0  0
  148.8116  142.4692  154.2897 H   0  0  0  0  0  0  0  0  0  0  0  0
  149.2087  140.7696  154.2999 H   0  0  0  0  0  0  0  0  0  0  0  0
  145.6859  139.9228  153.3531 H   0  0  0  0  0  0  0  0  0  0  0  0
  143.3310  133.8459  150.1455 H   0  0  0  0  0  0  0  0  0  0  0  0
  1  2  1  0  0  0  0
  1 26  1  0  0  0  0
  1 27  1  0  0  0  0
  1 28  1  0  0  0  0
  2  3  2  0  0  0  0
  2  4  1  0  0  0  0
  4 25  1  0  0  0  0
  4  5  1  0  0  0  0
  5  6  1  0  0  0  0
  5 29  1  0  0  0  0
  5 30  1  0  0  0  0
  6  7  1  0  0  0  0
  6 31  1  0  0  0  0
  6 32  1  0  0  0  0
  7  8  1  0  0  0  0
  7 33  1  0  0  0  0
  7 34  1  0  0  0  0
  8  9  1  0  0  0  0
  8 24  1  0  0  0  0
  8 54  1  0  0  0  0
  9 10  1  0  0  0  0
  9 35  1  0  0  0  0
  9 36  1  0  0  0  0
 10 11  1  0  0  0  0
 10 12  1  0  0  0  0
 10 37  1  0  0  0  0
 11 38  1  0  0  0  0
 12 13  1  0  0  0  0
 12 39  1  0  0  0  0
 12 40  1  0  0  0  0
 13 23  1  0  0  0  0
 13 14  1  0  0  0  0
 14 15  2  0  0  0  0
 14 41  1  0  0  0  0
 15 16  1  0  0  0  0
 15 55  1  0  0  0  0
 16 23  2  0  0  0  0
 16 17  1  0  0  0  0
 17 18  2  0  0  0  0
 17 42  1  0  0  0  0
 18 19  1  0  0  0  0
 18 20  1  0  0  0  0
 19 43  1  0  0  0  0
 19 44  1  0  0  0  0
 19 45  1  0  0  0  0
 20 21  1  0  0  0  0
 20 22  2  0  0  0  0
 21 46  1  0  0  0  0
 21 47  1  0  0  0  0
 21 48  1  0  0  0  0
 22 23  1  0  0  0  0
 22 49  1  0  0  0  0
 24 25  1  0  0  0  0
 24 50  1  0  0  0  0
 24 51  1  0  0  0  0
 25 52  1  0  0  0  0
 25 53  1  0  0  0  0
M  CHG  1   8   1
M  CHG  1  15   1
M  END
> <s_m_source_file>
AV-unprocessed.smi

> <i_m_source_file_index>
1643

> <i_lp_mmshare_version>
43012

> <i_f3d_flags>
0

> <s_epik_input>
W0NIM11DKD1PKU4xW0NIMl1bQ0gyXVtDSDJdTihbQ0gyXVtDSDJdMSlbQ0gyXVtDQEhdKFtPSF0pW0NIMl1uKFtjSF1uMiljKGMyMylbY0hdYyhbQ0gzXSljKFtjSF0zKVtDSDNd

> <s_epik_cmdline>
J2VwaWtfcHl0aG9uJywgJy1waCcsICc3LjAnLCAnLXRuJywgJzgnLCAnLW1hJywgJzIwMCcsICctbWV0YWxfYmluZGluZycsICctaW1hZScsICc8aW5maWxlLm1hZT4nLCAnLW9tYWUnLCAnPG91dGZpbGUubWFlPic=

> <r_epik_Ionization_Penalty>
1.2865

> <r_epik_Ionization_Penalty_Charging>
1.2865

> <r_epik_Ionization_Penalty_Neutral>
2.89706e-06

> <r_epik_State_Penalty>
1.3566

> <r_epik_Charging_Adjusted_Penalty>
2.6431

> <i_epik_Tot_Q>
2

> <i_epik_Tot_abs_Q>
2

> <r_epik_Metal_State_Penalty>
5.37339

> <b_epik_Metal_Only>
0

> <s_lp_Force_Field>
OPLS_2005

> <r_lp_Energy>
57.2213

> <b_lp_Chiralities_Consistent>
1

> <s_lp_Variant>
AV-unprocessed.smi:1643-9

> <Gold.Version>
5.8.1

> <Gold.Id.Protein>
6NUR|6NUR_protein|mol2

> <Gold.PLP.Fitness>
57.4769

> <Gold.PLP.PLP>
-43.3593

> <Gold.PLP.part.hbond>
-4.0000

> <Gold.PLP.part.metal>
0.0000

> <Gold.PLP.part.buried>
0.4005

> <Gold.PLP.part.nonpolar>
-40.3328

> <Gold.PLP.part.repulsive>
0.0663

> <Gold.PLP.ligand.clash>
0.0000

> <Gold.PLP.ligand.torsion>
0.8576

> <Gold.PLP.Chemscore.Hbond>
4.3322

> <Gold.PLP.Chemscore.CHOScore>
0.9115

> <Gold.PLP.Chemscore.Metal>
0.0000

> <Gold.Chemscore.Hbonds>
donor molecule, donor type, donor heavy atom, donor atom, acceptor molecule, acceptor atom, score
      L1  H     8    54       P1 10175  0.88
      L1  H    11    38       P1 10171  0.31
      L1  C    14    41       P1 10171  1.00

> <Gold.PLP.Chemscore.Internal.Correction>
0.1014

> <Gold.Rescore>
     Score         DG    S(hbond)    S(metal)    S(lipo)     H(rot)  DE(clash)    DE(int)     intcor
     18.82     -20.18       2.44        0.00     103.53       2.17       0.91       0.44       ----

> <Gold.Chemscore.Fitness>
18.8247

> <Gold.Chemscore.DG>
-20.1790

> <Gold.Chemscore.ZeroCoef>
-5.4800

> <Gold.Chemscore.Hbond>
2.4410

> <Gold.Chemscore.Metal>
0.0000

> <Gold.Chemscore.Lipo>
103.5258

> <Gold.Chemscore.Internal_Hbond>
0.0000

> <Gold.Chemscore.DEClash>
0.9097

> <Gold.Chemscore.DEInternal>
0.4445

> <Gold.Chemscore.Rot>
2.1744

> <Gold.Chemscore.Internal.Correction>
   9.000000E+99

> <Gold.Chemscore.Hbonds>
donor molecule, donor type, donor heavy atom, donor atom, acceptor molecule, acceptor atom, score
      L1  H     8    54       P1 10175  0.44
      L1  H    11    38       P1 10171  0.30
      L1  H    15    55       P1 10186  0.03

> <Gold.Chemscore.Hbond.Weighted>
-8.1531

> <Gold.Chemscore.Metal.Weighted>
-0.0000

> <Gold.Chemscore.Lipo.Weighted>
-12.1125

> <Gold.Chemscore.Internal_Hbond.Weighted>
0.0000

> <Gold.Chemscore.DEClash.Weighted>
0.9097

> <Gold.Chemscore.DEInternal.Weighted>
0.4445

> <Gold.Chemscore.Rot.Weighted>
5.5666

> <Gold.Chemscore.Internal.Correction.Weighted>
   9.000000E+99

> <Gold.Protein.RotatedTorsions>
[ 6907 6896 6895 6894 ] final  121.04 input  -60.11 | X-H torsion
[ 7974 7965 7964 7962 ] final -146.27 input  175.53 | X-H torsion
[ 8008 7997 7996 7995 ] final -156.94 input   59.86 | X-H torsion
[ 10167 10162 10161 10158 ] final  120.63 input  -65.29 | X-H torsion
[ 10718 10713 10712 10709 ] final  -62.64 input   66.30 | X-H torsion
[ 10763 10752 10751 10750 ] final  -51.61 input  -60.55 | X-H torsion
[ 11005 11000 10999 10996 ] final   43.16 input  -57.11 | X-H torsion

> <Gold.Protein.ActiveResidues>
 VAL166  LYS551  ARG553  GLY616  TRP617  ASP618  TYR619  PRO620  LYS621  CYS622 
 ASP623  PHE694  ASN695  SER759  ASP760  ASP761  ALA762  ILE779  LEU786  VAL792 
 PHE793  MET794  SER795  GLU796  ALA797  LYS798  CYS799  TRP800  GLU811  SER814 

> <Gold.Protein.RotatedAtoms>
  152.4352  133.7348  159.6607 H   0  0  0  0  0  0  0  0  0  0  0  0  # atno 6907 bound_to 6896
  150.8235  133.8201  159.3135 H   0  0  0  0  0  0  0  0  0  0  0  0  # atno 6908 bound_to 6896
  151.5876  135.1057  160.0083 H   0  0  0  0  0  0  0  0  0  0  0  0  # atno 6909 bound_to 6896
  144.8171  140.5477  143.5603 H   0  0  0  0  0  0  0  0  0  0  0  0  # atno 7974 bound_to 7965
  155.7248  140.0794  157.2315 H   0  0  0  0  0  0  0  0  0  0  0  0  # atno 8008 bound_to 7997
  154.4040  140.1606  156.2497 H   0  0  0  0  0  0  0  0  0  0  0  0  # atno 8009 bound_to 7997
  155.9163  140.3400  155.6140 H   0  0  0  0  0  0  0  0  0  0  0  0  # atno 8010 bound_to 7997
  139.5970  144.7045  151.3153 H   0  0  0  0  0  0  0  0  0  0  0  0  # atno 10167 bound_to 10162
  156.0842  130.4211  150.1164 H   0  0  0  0  0  0  0  0  0  0  0  0  # atno 10718 bound_to 10713
  154.1294  135.6522  153.4919 H   0  0  0  0  0  0  0  0  0  0  0  0  # atno 10763 bound_to 10752
  153.0200  135.5289  154.7016 H   0  0  0  0  0  0  0  0  0  0  0  0  # atno 10764 bound_to 10752
  154.6247  135.2969  155.0256 H   0  0  0  0  0  0  0  0  0  0  0  0  # atno 10765 bound_to 10752
  140.1671  134.4268  155.8280 H   0  0  0  0  0  0  0  0  0  0  0  0  # atno 11005 bound_to 11000
  145.5190  139.1477  143.3563 LP  0  0  0  0  0  0  0  0  0  0  0  0  # atno 17320 bound_to 7965
  146.2474  140.5331  142.8908 LP  0  0  0  0  0  0  0  0  0  0  0  0  # atno 17321 bound_to 7965
  140.7220  143.7110  150.7769 LP  0  0  0  0  0  0  0  0  0  0  0  0  # atno 17342 bound_to 10162
  140.0679  143.5090  152.2595 LP  0  0  0  0  0  0  0  0  0  0  0  0  # atno 17343 bound_to 10162
  156.9189  130.9676  151.3551 LP  0  0  0  0  0  0  0  0  0  0  0  0  # atno 17370 bound_to 10713
  157.5970  130.8485  149.8744 LP  0  0  0  0  0  0  0  0  0  0  0  0  # atno 17371 bound_to 10713
  141.2214  133.6939  156.7698 LP  0  0  0  0  0  0  0  0  0  0  0  0  # atno 17394 bound_to 11000
  140.2421  134.8606  157.3583 LP  0  0  0  0  0  0  0  0  0  0  0  0  # atno 17395 bound_to 11000

$$$$
