AV-unprocessed.smi:1644|AV-procd|sdf|6584|dock9
  -GOLD-   22720 7273D 1   1.00000     0.00000
 Structure written by MMmdl.
 49 51  0  0  0  0  0  0  0  0  1 V2000
  152.7588  143.0974  158.0641 C   0  0  0  0  0  0  0  0  0  0  0  0
  152.4651  141.5948  158.1332 C   0  0  0  0  0  0  0  0  0  0  0  0
  150.9607  141.2859  158.0692 C   0  0  0  0  0  0  0  0  0  0  0  0
  150.3859  141.3505  156.6403 C   0  0  2  0  0  0  0  0  0  0  0  0
  148.9977  140.9383  156.5756 N   0  0  0  0  0  0  0  0  0  0  0  0
  148.8116  139.8797  155.7771 C   0  0  0  0  0  0  0  0  0  0  0  0
  147.7291  139.3370  155.5605 O   0  0  0  0  0  0  0  0  0  0  0  0
  150.0031  139.5174  155.2683 N   0  0  0  0  0  0  0  0  0  0  0  0
  150.2062  138.3759  154.3704 C   0  0  0  0  0  0  0  0  0  0  0  0
  151.3871  137.4912  154.8199 C   0  0  2  0  0  0  0  0  0  0  0  0
  151.8688  136.7745  153.6995 O   0  0  0  0  0  0  0  0  0  0  0  0
  150.9598  136.4817  155.9028 C   0  0  0  0  0  0  0  0  0  0  0  0
  151.8956  135.3791  156.0354 N   0  0  0  0  0  0  0  0  0  0  0  0
  153.1821  135.4519  156.4269 C   0  0  0  0  0  0  0  0  0  0  0  0
  153.8689  134.3141  156.4768 N   0  0  0  0  0  0  0  0  0  0  0  0
  152.9163  133.3952  156.0708 C   0  0  0  0  0  0  0  0  0  0  0  0
  153.0045  131.9958  155.9045 C   0  0  0  0  0  0  0  0  0  0  0  0
  151.8888  131.2458  155.4691 C   0  0  0  0  0  0  0  0  0  0  0  0
  152.0287  129.7432  155.3007 C   0  0  0  0  0  0  0  0  0  0  0  0
  150.6591  131.8962  155.1943 C   0  0  0  0  0  0  0  0  0  0  0  0
  149.4470  131.1113  154.7245 C   0  0  0  0  0  0  0  0  0  0  0  0
  150.5534  133.2934  155.3561 C   0  0  0  0  0  0  0  0  0  0  0  0
  151.6709  134.0288  155.7888 C   0  0  0  0  0  0  0  0  0  0  0  0
  150.9875  140.3063  155.7184 C   0  0  0  0  0  0  0  0  0  0  0  0
  152.1878  140.2288  155.4563 O   0  0  0  0  0  0  0  0  0  0  0  0
  153.8320  143.2860  158.1022 H   0  0  0  0  0  0  0  0  0  0  0  0
  152.2982  143.6282  158.8977 H   0  0  0  0  0  0  0  0  0  0  0  0
  152.3780  143.5308  157.1390 H   0  0  0  0  0  0  0  0  0  0  0  0
  152.9828  141.0940  157.3145 H   0  0  0  0  0  0  0  0  0  0  0  0
  152.8817  141.1893  159.0558 H   0  0  0  0  0  0  0  0  0  0  0  0
  150.7876  140.2892  158.4782 H   0  0  0  0  0  0  0  0  0  0  0  0
  150.4212  141.9778  158.7186 H   0  0  0  0  0  0  0  0  0  0  0  0
  150.5041  142.3439  156.2057 H   0  0  0  0  0  0  0  0  0  0  0  0
  148.2621  141.4059  157.0851 H   0  0  0  0  0  0  0  0  0  0  0  0
  149.2888  137.7847  154.3668 H   0  0  0  0  0  0  0  0  0  0  0  0
  150.3397  138.7026  153.3372 H   0  0  0  0  0  0  0  0  0  0  0  0
  152.1950  138.1093  155.2145 H   0  0  0  0  0  0  0  0  0  0  0  0
  151.1339  136.3715  153.2625 H   0  0  0  0  0  0  0  0  0  0  0  0
  150.8836  136.9795  156.8704 H   0  0  0  0  0  0  0  0  0  0  0  0
  149.9705  136.0777  155.6831 H   0  0  0  0  0  0  0  0  0  0  0  0
  153.6407  136.3944  156.6885 H   0  0  0  0  0  0  0  0  0  0  0  0
  153.9415  131.5011  156.1138 H   0  0  0  0  0  0  0  0  0  0  0  0
  151.3418  129.2190  155.9656 H   0  0  0  0  0  0  0  0  0  0  0  0
  153.0403  129.4089  155.5332 H   0  0  0  0  0  0  0  0  0  0  0  0
  151.8085  129.4512  154.2736 H   0  0  0  0  0  0  0  0  0  0  0  0
  148.5839  131.7615  154.5788 H   0  0  0  0  0  0  0  0  0  0  0  0
  149.1741  130.3530  155.4589 H   0  0  0  0  0  0  0  0  0  0  0  0
  149.6574  130.6163  153.7762 H   0  0  0  0  0  0  0  0  0  0  0  0
  149.6240  133.8026  155.1471 H   0  0  0  0  0  0  0  0  0  0  0  0
  1  2  1  0  0  0  0
  1 26  1  0  0  0  0
  1 27  1  0  0  0  0
  1 28  1  0  0  0  0
  2  3  1  0  0  0  0
  2 29  1  0  0  0  0
  2 30  1  0  0  0  0
  3  4  1  0  0  0  0
  3 31  1  0  0  0  0
  3 32  1  0  0  0  0
  4 24  1  0  0  0  0
  4  5  1  0  0  0  0
  4 33  1  0  0  0  0
  5  6  1  0  0  0  0
  5 34  1  0  0  0  0
  6  7  2  0  0  0  0
  6  8  1  0  0  0  0
  8  9  1  0  0  0  0
  8 24  1  0  0  0  0
  9 10  1  0  0  0  0
  9 35  1  0  0  0  0
  9 36  1  0  0  0  0
 10 11  1  0  0  0  0
 10 12  1  0  0  0  0
 10 37  1  0  0  0  0
 11 38  1  0  0  0  0
 12 13  1  0  0  0  0
 12 39  1  0  0  0  0
 12 40  1  0  0  0  0
 13 23  1  0  0  0  0
 13 14  1  0  0  0  0
 14 15  2  0  0  0  0
 14 41  1  0  0  0  0
 15 16  1  0  0  0  0
 16 23  2  0  0  0  0
 16 17  1  0  0  0  0
 17 18  2  0  0  0  0
 17 42  1  0  0  0  0
 18 19  1  0  0  0  0
 18 20  1  0  0  0  0
 19 43  1  0  0  0  0
 19 44  1  0  0  0  0
 19 45  1  0  0  0  0
 20 21  1  0  0  0  0
 20 22  2  0  0  0  0
 21 46  1  0  0  0  0
 21 47  1  0  0  0  0
 21 48  1  0  0  0  0
 22 23  1  0  0  0  0
 22 49  1  0  0  0  0
 24 25  2  0  0  0  0
M  END
> <s_m_source_file>
AV-unprocessed.smi

> <i_m_source_file_index>
1644

> <i_lp_mmshare_version>
43012

> <i_f3d_flags>
0

> <s_epik_input>
W0NIM11bQ0gyXVtDSDJdW0NAQEhdMVtOSF1DKD1PKU4oQzE9TylbQ0gyXVtDQEhdKFtPSF0pW0NIMl1uKFtjSF1uMiljKGMyMylbY0hdYyhbQ0gzXSljKFtjSF0zKVtDSDNd

> <s_epik_cmdline>
J2VwaWtfcHl0aG9uJywgJy1waCcsICc3LjAnLCAnLXRuJywgJzgnLCAnLW1hJywgJzIwMCcsICctbWV0YWxfYmluZGluZycsICctaW1hZScsICc8aW5maWxlLm1hZT4nLCAnLW9tYWUnLCAnPG91dGZpbGUubWFlPic=

> <r_lp_tautomer_probability>
1

> <r_epik_Ionization_Penalty>
0.10693

> <r_epik_Ionization_Penalty_Charging>
0

> <r_epik_Ionization_Penalty_Neutral>
0.10693

> <r_epik_State_Penalty>
0.096713

> <r_epik_Charging_Adjusted_Penalty>
0.096713

> <i_epik_Tot_Q>
0

> <i_epik_Tot_abs_Q>
0

> <r_epik_Metal_State_Penalty>
0.102757

> <b_epik_Metal_Only>
0

> <s_lp_Force_Field>
OPLS_2005

> <r_lp_Energy>
24.4016

> <b_lp_Chiralities_Consistent>
1

> <s_lp_Variant>
AV-unprocessed.smi:1644-1

> <Gold.Version>
5.8.1

> <Gold.Id.Protein>
6NUR|6NUR_protein|mol2

> <Gold.PLP.Fitness>
55.9128

> <Gold.PLP.PLP>
-48.5257

> <Gold.PLP.part.hbond>
-3.3413

> <Gold.PLP.part.metal>
0.0000

> <Gold.PLP.part.buried>
-3.1978

> <Gold.PLP.part.nonpolar>
-41.3368

> <Gold.PLP.part.repulsive>
0.1929

> <Gold.PLP.ligand.clash>
0.0000

> <Gold.PLP.ligand.torsion>
0.6693

> <Gold.PLP.Chemscore.Hbond>
2.8720

> <Gold.PLP.Chemscore.CHOScore>
0.0000

> <Gold.PLP.Chemscore.Metal>
0.0000

> <Gold.Chemscore.Hbonds>
donor molecule, donor type, donor heavy atom, donor atom, acceptor molecule, acceptor atom, score
      L1  H    11    38       P1  7949  0.45
      P1  H  7989  7998       L1    25  0.19
      P1  H  7997  8008       L1    25  0.41
      P1  H 10752 10763       L1    11  1.00

> <Gold.PLP.Chemscore.Internal.Correction>
0.1095

> <Gold.Rescore>
     Score         DG    S(hbond)    S(metal)    S(lipo)     H(rot)  DE(clash)    DE(int)     intcor
     16.96     -17.25       2.51        0.00      88.42       2.72       0.09       0.20       ----

> <Gold.Chemscore.Fitness>
16.9572

> <Gold.Chemscore.DG>
-17.2480

> <Gold.Chemscore.ZeroCoef>
-5.4800

> <Gold.Chemscore.Hbond>
2.5118

> <Gold.Chemscore.Metal>
0.0000

> <Gold.Chemscore.Lipo>
88.4171

> <Gold.Chemscore.Internal_Hbond>
0.0000

> <Gold.Chemscore.DEClash>
0.0937

> <Gold.Chemscore.DEInternal>
0.1971

> <Gold.Chemscore.Rot>
2.7212

> <Gold.Chemscore.Internal.Correction>
   9.000000E+99

> <Gold.Chemscore.Hbonds>
donor molecule, donor type, donor heavy atom, donor atom, acceptor molecule, acceptor atom, score
      L1  H    11    38       P1  7949  0.17
      P1  H  7997  8008       L1    25  0.39
      P1  H 10752 10763       L1    11  0.75

> <Gold.Chemscore.Hbond.Weighted>
-8.3895

> <Gold.Chemscore.Metal.Weighted>
-0.0000

> <Gold.Chemscore.Lipo.Weighted>
-10.3448

> <Gold.Chemscore.Internal_Hbond.Weighted>
0.0000

> <Gold.Chemscore.DEClash.Weighted>
0.0937

> <Gold.Chemscore.DEInternal.Weighted>
0.1971

> <Gold.Chemscore.Rot.Weighted>
6.9663

> <Gold.Chemscore.Internal.Correction.Weighted>
   9.000000E+99

> <Gold.Protein.RotatedTorsions>
[ 6907 6896 6895 6894 ] final  148.14 input  -60.11 | X-H torsion
[ 7974 7965 7964 7962 ] final  -13.80 input  175.53 | X-H torsion
[ 8008 7997 7996 7995 ] final  -28.98 input   59.86 | X-H torsion
[ 10167 10162 10161 10158 ] final    7.52 input  -65.29 | X-H torsion
[ 10718 10713 10712 10709 ] final  176.87 input   66.30 | X-H torsion
[ 10763 10752 10751 10750 ] final   10.35 input  -60.55 | X-H torsion
[ 11005 11000 10999 10996 ] final  -21.46 input  -57.11 | X-H torsion

> <Gold.Protein.ActiveResidues>
 VAL166  LYS551  ARG553  GLY616  TRP617  ASP618  TYR619  PRO620  LYS621  CYS622 
 ASP623  PHE694  ASN695  SER759  ASP760  ASP761  ALA762  ILE779  LEU786  VAL792 
 PHE793  MET794  SER795  GLU796  ALA797  LYS798  CYS799  TRP800  GLU811  SER814 

> <Gold.Protein.RotatedAtoms>
  152.1454  133.4489  159.4787 H   0  0  0  0  0  0  0  0  0  0  0  0  # atno 6907 bound_to 6896
  150.6890  134.2254  159.4422 H   0  0  0  0  0  0  0  0  0  0  0  0  # atno 6908 bound_to 6896
  152.0147  134.9856  160.0619 H   0  0  0  0  0  0  0  0  0  0  0  0  # atno 6909 bound_to 6896
  146.2100  140.3256  142.8394 H   0  0  0  0  0  0  0  0  0  0  0  0  # atno 7974 bound_to 7965
  154.4309  140.1830  156.1175 H   0  0  0  0  0  0  0  0  0  0  0  0  # atno 8008 bound_to 7997
  156.0169  140.3345  155.6973 H   0  0  0  0  0  0  0  0  0  0  0  0  # atno 8009 bound_to 7997
  155.6031  140.0642  157.2718 H   0  0  0  0  0  0  0  0  0  0  0  0  # atno 8010 bound_to 7997
  140.6367  143.7869  150.7369 H   0  0  0  0  0  0  0  0  0  0  0  0  # atno 10167 bound_to 10162
  156.9137  130.9918  151.3016 H   0  0  0  0  0  0  0  0  0  0  0  0  # atno 10718 bound_to 10713
  153.2042  135.6860  153.8194 H   0  0  0  0  0  0  0  0  0  0  0  0  # atno 10763 bound_to 10752
  153.7449  135.3232  155.3312 H   0  0  0  0  0  0  0  0  0  0  0  0  # atno 10764 bound_to 10752
  154.8188  135.4667  154.0821 H   0  0  0  0  0  0  0  0  0  0  0  0  # atno 10765 bound_to 10752
  140.8564  133.7820  156.0024 H   0  0  0  0  0  0  0  0  0  0  0  0  # atno 11005 bound_to 11000
  144.8889  140.7498  143.5939 LP  0  0  0  0  0  0  0  0  0  0  0  0  # atno 17320 bound_to 7965
  145.3178  139.1798  143.4604 LP  0  0  0  0  0  0  0  0  0  0  0  0  # atno 17321 bound_to 7965
  140.1492  143.4372  152.2142 LP  0  0  0  0  0  0  0  0  0  0  0  0  # atno 17342 bound_to 10162
  139.5577  144.7384  151.4245 LP  0  0  0  0  0  0  0  0  0  0  0  0  # atno 17343 bound_to 10162
  157.5951  130.8472  149.8717 LP  0  0  0  0  0  0  0  0  0  0  0  0  # atno 17370 bound_to 10713
  156.0523  130.3715  150.1171 LP  0  0  0  0  0  0  0  0  0  0  0  0  # atno 17371 bound_to 10713
  140.8733  134.2700  157.5180 LP  0  0  0  0  0  0  0  0  0  0  0  0  # atno 17394 bound_to 11000
  139.8705  134.9578  156.4280 LP  0  0  0  0  0  0  0  0  0  0  0  0  # atno 17395 bound_to 11000

$$$$
