AV-unprocessed.smi:1658|AV-procd|sdf|6648|dock3
  -GOLD-   22720 7353D 1   1.00000     0.00000
 Structure written by MMmdl.
 46 47  0  0  0  0  0  0  0  0  1 V2000
  154.1128  141.3763  161.9114 C   0  0  0  0  0  0  0  0  0  0  0  0
  153.5280  142.6263  161.5626 O   0  0  0  0  0  0  0  0  0  0  0  0
  152.7490  142.6909  160.4256 C   0  0  0  0  0  0  0  0  0  0  0  0
  152.1977  143.9342  160.0566 C   0  0  0  0  0  0  0  0  0  0  0  0
  151.3981  144.0083  158.9000 C   0  0  0  0  0  0  0  0  0  0  0  0
  151.1686  142.8299  158.1513 C   0  0  0  0  0  0  0  0  0  0  0  0
  150.3988  142.7837  156.9586 N   0  0  0  0  0  0  0  0  0  0  0  0
  150.1252  141.7174  156.1881 C   0  0  0  0  0  0  0  0  0  0  0  0
  150.5472  140.5772  156.3800 O   0  0  0  0  0  0  0  0  0  0  0  0
  149.3463  142.0591  155.1527 N   0  0  0  0  0  0  0  0  0  0  0  0
  148.8992  141.1665  154.0835 C   0  0  0  0  0  0  0  0  0  0  0  0
  147.3573  140.9547  154.0965 C   0  0  0  0  0  0  0  0  0  0  0  0
  146.7243  142.3443  153.8303 C   0  0  0  0  0  0  0  0  0  0  0  0
  147.0094  140.0538  152.8867 C   0  0  0  0  0  0  0  0  0  0  0  0
  146.8899  140.3926  155.3956 N   0  0  0  0  0  0  0  0  0  0  0  0
  145.4320  140.3136  155.5464 C   0  0  0  0  0  0  0  0  0  0  0  0
  145.0193  139.8363  156.9495 C   0  0  0  0  0  0  0  0  0  0  0  0
  145.6195  138.5764  157.2240 O   0  0  0  0  0  0  0  0  0  0  0  0
  147.0387  138.6245  157.1485 C   0  0  0  0  0  0  0  0  0  0  0  0
  147.4677  139.0898  155.7470 C   0  0  0  0  0  0  0  0  0  0  0  0
  151.7801  141.6393  158.5953 C   0  0  0  0  0  0  0  0  0  0  0  0
  152.5461  141.5609  159.7037 N   0  0  0  0  0  0  0  0  0  0  0  0
  154.6861  141.4906  162.8312 H   0  0  0  0  0  0  0  0  0  0  0  0
  154.7965  141.0257  161.1368 H   0  0  0  0  0  0  0  0  0  0  0  0
  153.3517  140.6153  162.0892 H   0  0  0  0  0  0  0  0  0  0  0  0
  152.3882  144.8171  160.6485 H   0  0  0  0  0  0  0  0  0  0  0  0
  150.9915  144.9627  158.6031 H   0  0  0  0  0  0  0  0  0  0  0  0
  150.0685  143.6753  156.6192 H   0  0  0  0  0  0  0  0  0  0  0  0
  149.0615  143.0245  155.0752 H   0  0  0  0  0  0  0  0  0  0  0  0
  149.2139  141.5416  153.1080 H   0  0  0  0  0  0  0  0  0  0  0  0
  149.4286  140.2204  154.1920 H   0  0  0  0  0  0  0  0  0  0  0  0
  147.1937  142.8414  152.9803 H   0  0  0  0  0  0  0  0  0  0  0  0
  146.8286  143.0065  154.6906 H   0  0  0  0  0  0  0  0  0  0  0  0
  145.6625  142.2765  153.5936 H   0  0  0  0  0  0  0  0  0  0  0  0
  147.3512  140.5037  151.9539 H   0  0  0  0  0  0  0  0  0  0  0  0
  145.9359  139.8972  152.7829 H   0  0  0  0  0  0  0  0  0  0  0  0
  147.4828  139.0744  152.9531 H   0  0  0  0  0  0  0  0  0  0  0  0
  144.9704  141.2851  155.3796 H   0  0  0  0  0  0  0  0  0  0  0  0
  145.0125  139.6312  154.8072 H   0  0  0  0  0  0  0  0  0  0  0  0
  145.3164  140.5624  157.7080 H   0  0  0  0  0  0  0  0  0  0  0  0
  143.9358  139.7348  157.0111 H   0  0  0  0  0  0  0  0  0  0  0  0
  147.4297  139.2959  157.9148 H   0  0  0  0  0  0  0  0  0  0  0  0
  147.4401  137.6328  157.3568 H   0  0  0  0  0  0  0  0  0  0  0  0
  147.1663  138.3353  155.0202 H   0  0  0  0  0  0  0  0  0  0  0  0
  148.5551  139.1280  155.7309 H   0  0  0  0  0  0  0  0  0  0  0  0
  151.6462  140.7172  158.0483 H   0  0  0  0  0  0  0  0  0  0  0  0
  1  2  1  0  0  0  0
  1 23  1  0  0  0  0
  1 24  1  0  0  0  0
  1 25  1  0  0  0  0
  2  3  1  0  0  0  0
  3 22  1  0  0  0  0
  3  4  2  0  0  0  0
  4  5  1  0  0  0  0
  4 26  1  0  0  0  0
  5  6  2  0  0  0  0
  5 27  1  0  0  0  0
  6  7  1  0  0  0  0
  6 21  1  0  0  0  0
  7  8  1  0  0  0  0
  7 28  1  0  0  0  0
  8  9  2  0  0  0  0
  8 10  1  0  0  0  0
 10 11  1  0  0  0  0
 10 29  1  0  0  0  0
 11 12  1  0  0  0  0
 11 30  1  0  0  0  0
 11 31  1  0  0  0  0
 12 13  1  0  0  0  0
 12 14  1  0  0  0  0
 12 15  1  0  0  0  0
 13 32  1  0  0  0  0
 13 33  1  0  0  0  0
 13 34  1  0  0  0  0
 14 35  1  0  0  0  0
 14 36  1  0  0  0  0
 14 37  1  0  0  0  0
 15 20  1  0  0  0  0
 15 16  1  0  0  0  0
 16 17  1  0  0  0  0
 16 38  1  0  0  0  0
 16 39  1  0  0  0  0
 17 18  1  0  0  0  0
 17 40  1  0  0  0  0
 17 41  1  0  0  0  0
 18 19  1  0  0  0  0
 19 20  1  0  0  0  0
 19 42  1  0  0  0  0
 19 43  1  0  0  0  0
 20 44  1  0  0  0  0
 20 45  1  0  0  0  0
 21 22  2  0  0  0  0
 21 46  1  0  0  0  0
M  END
> <s_m_source_file>
AV-unprocessed.smi

> <i_m_source_file_index>
1658

> <i_lp_mmshare_version>
43012

> <i_f3d_flags>
0

> <s_epik_input>
W0NIM11PYzFbY0hdW2NIXWMoW2NIXW4xKVtOSF1DKD1PKVtOSF1bQ0gyXUMoW0NIM10pKFtDSDNdKU4yW0NIMl1bQ0gyXU9bQ0gyXVtDSDJdMg==

> <s_epik_cmdline>
J2VwaWtfcHl0aG9uJywgJy1waCcsICc3LjAnLCAnLXRuJywgJzgnLCAnLW1hJywgJzIwMCcsICctbWV0YWxfYmluZGluZycsICctaW1hZScsICc8aW5maWxlLm1hZT4nLCAnLW9tYWUnLCAnPG91dGZpbGUubWFlPic=

> <r_lp_tautomer_probability>
1

> <r_epik_Ionization_Penalty>
0.266086

> <r_epik_Ionization_Penalty_Charging>
0

> <r_epik_Ionization_Penalty_Neutral>
0.266086

> <r_epik_State_Penalty>
0.257924

> <r_epik_Charging_Adjusted_Penalty>
0.257924

> <i_epik_Tot_Q>
0

> <i_epik_Tot_abs_Q>
0

> <r_epik_Metal_State_Penalty>
0.257921

> <b_epik_Metal_Only>
0

> <s_lp_Force_Field>
OPLS_2005

> <r_lp_Energy>
44.8547

> <b_lp_Chiralities_Consistent>
1

> <s_lp_Variant>
AV-unprocessed.smi:1658-1

> <Gold.Version>
5.8.1

> <Gold.Id.Protein>
6NUR|6NUR_protein|mol2

> <Gold.PLP.Fitness>
41.9003

> <Gold.PLP.PLP>
-35.9789

> <Gold.PLP.part.hbond>
-2.0000

> <Gold.PLP.part.metal>
0.0000

> <Gold.PLP.part.buried>
-3.2354

> <Gold.PLP.part.nonpolar>
-29.9364

> <Gold.PLP.part.repulsive>
0.3172

> <Gold.PLP.ligand.clash>
0.0425

> <Gold.PLP.ligand.torsion>
0.0532

> <Gold.PLP.Chemscore.Hbond>
2.0000

> <Gold.PLP.Chemscore.CHOScore>
0.0000

> <Gold.PLP.Chemscore.Metal>
0.0000

> <Gold.Chemscore.Hbonds>
donor molecule, donor type, donor heavy atom, donor atom, acceptor molecule, acceptor atom, score
      L1  H     7    28       P1  8028  1.00
      L1  H    10    29       P1  8028  1.00

> <Gold.PLP.Chemscore.Internal.Correction>
0.0702

> <Gold.Rescore>
     Score         DG    S(hbond)    S(metal)    S(lipo)     H(rot)  DE(clash)    DE(int)     intcor
     15.57     -17.12       1.94        0.00      81.20       1.70       0.05       1.49       ----

> <Gold.Chemscore.Fitness>
15.5738

> <Gold.Chemscore.DG>
-17.1179

> <Gold.Chemscore.ZeroCoef>
-5.4800

> <Gold.Chemscore.Hbond>
1.9449

> <Gold.Chemscore.Metal>
0.0000

> <Gold.Chemscore.Lipo>
81.1976

> <Gold.Chemscore.Internal_Hbond>
0.0000

> <Gold.Chemscore.DEClash>
0.0527

> <Gold.Chemscore.DEInternal>
1.4913

> <Gold.Chemscore.Rot>
1.7024

> <Gold.Chemscore.Internal.Correction>
   9.000000E+99

> <Gold.Chemscore.Hbonds>
donor molecule, donor type, donor heavy atom, donor atom, acceptor molecule, acceptor atom, score
      L1  H     7    28       P1  8028  0.97
      L1  H    10    29       P1  8028  0.99

> <Gold.Chemscore.Hbond.Weighted>
-6.4960

> <Gold.Chemscore.Metal.Weighted>
-0.0000

> <Gold.Chemscore.Lipo.Weighted>
-9.5001

> <Gold.Chemscore.Internal_Hbond.Weighted>
0.0000

> <Gold.Chemscore.DEClash.Weighted>
0.0527

> <Gold.Chemscore.DEInternal.Weighted>
1.4913

> <Gold.Chemscore.Rot.Weighted>
4.3583

> <Gold.Chemscore.Internal.Correction.Weighted>
   9.000000E+99

> <Gold.Protein.RotatedTorsions>
[ 6907 6896 6895 6894 ] final -110.57 input  -60.11 | X-H torsion
[ 7974 7965 7964 7962 ] final -107.13 input  175.53 | X-H torsion
[ 8008 7997 7996 7995 ] final  128.50 input   59.86 | X-H torsion
[ 10167 10162 10161 10158 ] final -152.60 input  -65.29 | X-H torsion
[ 10718 10713 10712 10709 ] final  -30.39 input   66.30 | X-H torsion
[ 10763 10752 10751 10750 ] final  140.43 input  -60.55 | X-H torsion
[ 11005 11000 10999 10996 ] final  -28.01 input  -57.11 | X-H torsion

> <Gold.Protein.ActiveResidues>
 VAL166  LYS551  ARG553  GLY616  TRP617  ASP618  TYR619  PRO620  LYS621  CYS622 
 ASP623  PHE694  ASN695  SER759  ASP760  ASP761  ALA762  ILE779  LEU786  VAL792 
 PHE793  MET794  SER795  GLU796  ALA797  LYS798  CYS799  TRP800  GLU811  SER814 

> <Gold.Protein.RotatedAtoms>
  150.7633  133.9362  159.3441 H   0  0  0  0  0  0  0  0  0  0  0  0  # atno 6907 bound_to 6896
  151.7266  135.0881  160.0302 H   0  0  0  0  0  0  0  0  0  0  0  0  # atno 6908 bound_to 6896
  152.3616  133.6267  159.6055 H   0  0  0  0  0  0  0  0  0  0  0  0  # atno 6909 bound_to 6896
  145.2091  140.9089  143.3325 H   0  0  0  0  0  0  0  0  0  0  0  0  # atno 7974 bound_to 7965
  156.2916  140.2643  156.2446 H   0  0  0  0  0  0  0  0  0  0  0  0  # atno 8008 bound_to 7997
  154.9943  140.0388  157.2351 H   0  0  0  0  0  0  0  0  0  0  0  0  # atno 8009 bound_to 7997
  154.7658  140.2769  155.6182 H   0  0  0  0  0  0  0  0  0  0  0  0  # atno 8010 bound_to 7997
  139.7168  143.9020  152.2489 H   0  0  0  0  0  0  0  0  0  0  0  0  # atno 10167 bound_to 10162
  156.4004  130.4389  149.7327 H   0  0  0  0  0  0  0  0  0  0  0  0  # atno 10718 bound_to 10713
  153.9225  135.2999  155.3447 H   0  0  0  0  0  0  0  0  0  0  0  0  # atno 10763 bound_to 10752
  154.7568  135.4953  153.9393 H   0  0  0  0  0  0  0  0  0  0  0  0  # atno 10764 bound_to 10752
  153.1134  135.6765  153.9563 H   0  0  0  0  0  0  0  0  0  0  0  0  # atno 10765 bound_to 10752
  140.9170  133.7423  156.0749 H   0  0  0  0  0  0  0  0  0  0  0  0  # atno 11005 bound_to 11000
  144.9873  139.3724  143.6232 LP  0  0  0  0  0  0  0  0  0  0  0  0  # atno 17320 bound_to 7965
  146.3401  139.9040  142.8790 LP  0  0  0  0  0  0  0  0  0  0  0  0  # atno 17321 bound_to 7965
  139.8905  144.6968  150.8776 LP  0  0  0  0  0  0  0  0  0  0  0  0  # atno 17342 bound_to 10162
  140.7745  143.3590  151.1865 LP  0  0  0  0  0  0  0  0  0  0  0  0  # atno 17343 bound_to 10162
  156.4346  130.7831  151.2852 LP  0  0  0  0  0  0  0  0  0  0  0  0  # atno 17370 bound_to 10713
  157.7503  131.0143  150.3461 LP  0  0  0  0  0  0  0  0  0  0  0  0  # atno 17371 bound_to 10713
  140.8037  134.3479  157.5432 LP  0  0  0  0  0  0  0  0  0  0  0  0  # atno 17394 bound_to 11000
  139.8768  134.9213  156.3272 LP  0  0  0  0  0  0  0  0  0  0  0  0  # atno 17395 bound_to 11000

$$$$
