AV-unprocessed.smi:1434|AV-procd|sdf|5849|dock8
  -GOLD-   22720 5513D 1   1.00000     0.00000
 Structure written by MMmdl.
 44 45  0  0  0  0  0  0  0  0  1 V2000
  144.5694  137.0521  152.5695 C   0  0  0  0  0  0  0  0  0  0  0  0
  145.9050  136.8718  153.8190 S   0  0  0  0  0  0  0  0  0  0  0  0
  145.3892  137.3212  155.1210 O   0  0  0  0  0  0  0  0  0  0  0  0
  146.5107  135.5385  153.6850 O   0  0  0  0  0  0  0  0  0  0  0  0
  147.0718  138.0252  153.2862 N   0  0  0  0  0  0  0  0  0  0  0  0
  147.4420  139.1156  154.1902 C   0  0  2  0  0  0  0  0  0  0  0  0
  146.2022  139.9657  154.5426 C   0  0  0  0  0  0  0  0  0  0  0  0
  146.5847  141.2355  155.3260 C   0  0  0  0  0  0  0  0  0  0  0  0
  147.7185  141.9978  154.6179 C   0  0  0  0  0  0  0  0  0  0  0  0
  148.8650  141.0881  154.4487 N   0  0  0  0  0  0  0  0  0  0  0  0
  150.0410  141.1379  155.1241 C   0  0  0  0  0  0  0  0  0  0  0  0
  150.9532  140.3294  154.9481 O   0  0  0  0  0  0  0  0  0  0  0  0
  150.1372  142.1450  156.0098 N   0  0  0  0  0  0  0  0  0  0  0  0
  151.3031  142.4562  156.8332 C   0  0  0  0  0  0  0  0  0  0  0  0
  151.0004  143.5495  157.8749 C   0  0  0  0  0  0  0  0  0  0  0  0
  151.6622  143.3077  159.2207 C   0  0  0  0  0  0  0  0  0  0  0  0
  152.5208  142.2040  159.4150 C   0  0  0  0  0  0  0  0  0  0  0  0
  153.0873  142.0115  160.6896 C   0  0  0  0  0  0  0  0  0  0  0  0
  152.7777  142.9264  161.7143 C   0  0  0  0  0  0  0  0  0  0  0  0
  151.9118  143.9977  161.4175 C   0  0  0  0  0  0  0  0  0  0  0  0
  151.3627  144.1912  160.1991 N   0  0  0  0  0  0  0  0  0  0  0  0
  148.5357  139.9845  153.5376 C   0  0  0  0  0  0  0  0  0  0  0  0
  143.7578  136.3641  152.8058 H   0  0  0  0  0  0  0  0  0  0  0  0
  144.9615  136.8220  151.5789 H   0  0  0  0  0  0  0  0  0  0  0  0
  144.1927  138.0747  152.5839 H   0  0  0  0  0  0  0  0  0  0  0  0
  147.9012  137.5616  152.9163 H   0  0  0  0  0  0  0  0  0  0  0  0
  147.8508  138.6833  155.1054 H   0  0  0  0  0  0  0  0  0  0  0  0
  145.6938  140.2610  153.6235 H   0  0  0  0  0  0  0  0  0  0  0  0
  145.4840  139.3796  155.1161 H   0  0  0  0  0  0  0  0  0  0  0  0
  145.7123  141.8794  155.4404 H   0  0  0  0  0  0  0  0  0  0  0  0
  146.9031  140.9620  156.3326 H   0  0  0  0  0  0  0  0  0  0  0  0
  147.3824  142.3333  153.6357 H   0  0  0  0  0  0  0  0  0  0  0  0
  147.9524  142.9109  155.1651 H   0  0  0  0  0  0  0  0  0  0  0  0
  149.3411  142.7582  156.1053 H   0  0  0  0  0  0  0  0  0  0  0  0
  151.6074  141.5427  157.3438 H   0  0  0  0  0  0  0  0  0  0  0  0
  152.1513  142.7531  156.2144 H   0  0  0  0  0  0  0  0  0  0  0  0
  151.3175  144.5201  157.4912 H   0  0  0  0  0  0  0  0  0  0  0  0
  149.9220  143.6232  158.0222 H   0  0  0  0  0  0  0  0  0  0  0  0
  152.7324  141.5150  158.6106 H   0  0  0  0  0  0  0  0  0  0  0  0
  153.7455  141.1762  160.8782 H   0  0  0  0  0  0  0  0  0  0  0  0
  153.1932  142.8103  162.7043 H   0  0  0  0  0  0  0  0  0  0  0  0
  151.6538  144.7189  162.1787 H   0  0  0  0  0  0  0  0  0  0  0  0
  149.4029  139.3705  153.2893 H   0  0  0  0  0  0  0  0  0  0  0  0
  148.1825  140.3935  152.5896 H   0  0  0  0  0  0  0  0  0  0  0  0
  1  2  1  0  0  0  0
  1 23  1  0  0  0  0
  1 24  1  0  0  0  0
  1 25  1  0  0  0  0
  2  3  2  0  0  0  0
  2  4  2  0  0  0  0
  2  5  1  0  0  0  0
  5  6  1  0  0  0  0
  5 26  1  0  0  0  0
  6 22  1  0  0  0  0
  6  7  1  0  0  0  0
  6 27  1  0  0  0  0
  7  8  1  0  0  0  0
  7 28  1  0  0  0  0
  7 29  1  0  0  0  0
  8  9  1  0  0  0  0
  8 30  1  0  0  0  0
  8 31  1  0  0  0  0
  9 10  1  0  0  0  0
  9 32  1  0  0  0  0
  9 33  1  0  0  0  0
 10 11  1  0  0  0  0
 10 22  1  0  0  0  0
 11 12  2  0  0  0  0
 11 13  1  0  0  0  0
 13 14  1  0  0  0  0
 13 34  1  0  0  0  0
 14 15  1  0  0  0  0
 14 35  1  0  0  0  0
 14 36  1  0  0  0  0
 15 16  1  0  0  0  0
 15 37  1  0  0  0  0
 15 38  1  0  0  0  0
 16 21  1  0  0  0  0
 16 17  2  0  0  0  0
 17 18  1  0  0  0  0
 17 39  1  0  0  0  0
 18 19  2  0  0  0  0
 18 40  1  0  0  0  0
 19 20  1  0  0  0  0
 19 41  1  0  0  0  0
 20 21  2  0  0  0  0
 20 42  1  0  0  0  0
 22 43  1  0  0  0  0
 22 44  1  0  0  0  0
M  END
> <s_m_source_file>
AV-unprocessed.smi

> <i_m_source_file_index>
1434

> <i_lp_mmshare_version>
43012

> <i_f3d_flags>
0

> <s_epik_input>
W0NIM11TKD1PKSg9TylbTkhdW0NAQEhdMVtDSDJdW0NIMl1bQ0gyXU4oW0NIMl0xKUMoPU8pW05IXVtDSDJdW0NIMl1jMltjSF1bY0hdW2NIXVtjSF1uMg==

> <s_epik_cmdline>
J2VwaWtfcHl0aG9uJywgJy1waCcsICc3LjAnLCAnLXRuJywgJzgnLCAnLW1hJywgJzIwMCcsICctbWV0YWxfYmluZGluZycsICctaW1hZScsICc8aW5maWxlLm1hZT4nLCAnLW9tYWUnLCAnPG91dGZpbGUubWFlPic=

> <r_epik_Ionization_Penalty>
0.0449488

> <r_epik_Ionization_Penalty_Charging>
0

> <r_epik_Ionization_Penalty_Neutral>
0.0449488

> <r_epik_State_Penalty>
0.0380669

> <r_epik_Charging_Adjusted_Penalty>
0.0380669

> <i_epik_Tot_Q>
0

> <i_epik_Tot_abs_Q>
0

> <r_epik_Metal_State_Penalty>
0.0441384

> <b_epik_Metal_Only>
0

> <s_lp_Force_Field>
OPLS_2005

> <r_lp_Energy>
23.2159

> <b_lp_Chiralities_Consistent>
1

> <s_lp_Variant>
AV-unprocessed.smi:1434-1

> <Gold.Version>
5.8.1

> <Gold.Id.Protein>
6NUR|6NUR_protein|mol2

> <Gold.PLP.Fitness>
46.3329

> <Gold.PLP.PLP>
-38.5323

> <Gold.PLP.part.hbond>
-3.0000

> <Gold.PLP.part.metal>
0.0000

> <Gold.PLP.part.buried>
0.6482

> <Gold.PLP.part.nonpolar>
-35.6401

> <Gold.PLP.part.repulsive>
0.3856

> <Gold.PLP.ligand.clash>
0.0000

> <Gold.PLP.ligand.torsion>
0.3525

> <Gold.PLP.Chemscore.Hbond>
2.7930

> <Gold.PLP.Chemscore.CHOScore>
0.0000

> <Gold.PLP.Chemscore.Metal>
0.0000

> <Gold.Chemscore.Hbonds>
donor molecule, donor type, donor heavy atom, donor atom, acceptor molecule, acceptor atom, score
      L1  H     5    26       P1  7948  1.00
      L1  H    13    34       P1  8028  0.68
      P1  H  7989  7998       L1    12  1.00

> <Gold.PLP.Chemscore.Internal.Correction>
0.1267

> <Gold.Rescore>
     Score         DG    S(hbond)    S(metal)    S(lipo)     H(rot)  DE(clash)    DE(int)     intcor
     16.17     -19.79       2.12        0.00     106.38       2.03       1.77       1.85       ----

> <Gold.Chemscore.Fitness>
16.1681

> <Gold.Chemscore.DG>
-19.7876

> <Gold.Chemscore.ZeroCoef>
-5.4800

> <Gold.Chemscore.Hbond>
2.1162

> <Gold.Chemscore.Metal>
0.0000

> <Gold.Chemscore.Lipo>
106.3813

> <Gold.Chemscore.Internal_Hbond>
0.0000

> <Gold.Chemscore.DEClash>
1.7732

> <Gold.Chemscore.DEInternal>
1.8464

> <Gold.Chemscore.Rot>
2.0340

> <Gold.Chemscore.Internal.Correction>
   9.000000E+99

> <Gold.Chemscore.Hbonds>
donor molecule, donor type, donor heavy atom, donor atom, acceptor molecule, acceptor atom, score
      L1  H     5    26       P1  7948  0.97
      L1  H    13    34       P1  8028  0.65
      P1  H  7989  7998       L1    12  0.34

> <Gold.Chemscore.Hbond.Weighted>
-7.0681

> <Gold.Chemscore.Metal.Weighted>
-0.0000

> <Gold.Chemscore.Lipo.Weighted>
-12.4466

> <Gold.Chemscore.Internal_Hbond.Weighted>
0.0000

> <Gold.Chemscore.DEClash.Weighted>
1.7732

> <Gold.Chemscore.DEInternal.Weighted>
1.8464

> <Gold.Chemscore.Rot.Weighted>
5.2071

> <Gold.Chemscore.Internal.Correction.Weighted>
   9.000000E+99

> <Gold.Protein.RotatedTorsions>
[ 6907 6896 6895 6894 ] final   87.56 input  -60.11 | X-H torsion
[ 7974 7965 7964 7962 ] final   26.33 input  175.53 | X-H torsion
[ 8008 7997 7996 7995 ] final   64.53 input   59.86 | X-H torsion
[ 10167 10162 10161 10158 ] final   53.25 input  -65.29 | X-H torsion
[ 10718 10713 10712 10709 ] final  164.77 input   66.30 | X-H torsion
[ 10763 10752 10751 10750 ] final  -37.37 input  -60.55 | X-H torsion
[ 11005 11000 10999 10996 ] final  -25.77 input  -57.11 | X-H torsion

> <Gold.Protein.ActiveResidues>
 VAL166  LYS551  ARG553  GLY616  TRP617  ASP618  TYR619  PRO620  LYS621  CYS622 
 ASP623  PHE694  ASN695  SER759  ASP760  ASP761  ALA762  ILE779  LEU786  VAL792 
 PHE793  MET794  SER795  GLU796  ALA797  LYS798  CYS799  TRP800  GLU811  SER814 

> <Gold.Protein.RotatedAtoms>
  152.5413  134.2257  159.8804 H   0  0  0  0  0  0  0  0  0  0  0  0  # atno 6907 bound_to 6896
  151.2231  133.4484  159.2609 H   0  0  0  0  0  0  0  0  0  0  0  0  # atno 6908 bound_to 6896
  151.0786  134.9857  159.8400 H   0  0  0  0  0  0  0  0  0  0  0  0  # atno 6909 bound_to 6896
  146.1843  139.7343  142.8878 H   0  0  0  0  0  0  0  0  0  0  0  0  # atno 7974 bound_to 7965
  155.6475  140.3497  155.4736 H   0  0  0  0  0  0  0  0  0  0  0  0  # atno 8008 bound_to 7997
  155.9875  140.1187  157.0692 H   0  0  0  0  0  0  0  0  0  0  0  0  # atno 8009 bound_to 7997
  154.4209  140.1126  156.5506 H   0  0  0  0  0  0  0  0  0  0  0  0  # atno 8010 bound_to 7997
  140.2428  144.3565  150.6374 H   0  0  0  0  0  0  0  0  0  0  0  0  # atno 10167 bound_to 10162
  157.0897  131.0414  151.2542 H   0  0  0  0  0  0  0  0  0  0  0  0  # atno 10718 bound_to 10713
  153.8952  135.6808  153.4758 H   0  0  0  0  0  0  0  0  0  0  0  0  # atno 10763 bound_to 10752
  153.1159  135.4762  154.9112 H   0  0  0  0  0  0  0  0  0  0  0  0  # atno 10764 bound_to 10752
  154.7602  135.3208  154.8346 H   0  0  0  0  0  0  0  0  0  0  0  0  # atno 10765 bound_to 10752
  140.8968  133.7551  156.0492 H   0  0  0  0  0  0  0  0  0  0  0  0  # atno 11005 bound_to 11000
  145.3984  141.0382  143.3084 LP  0  0  0  0  0  0  0  0  0  0  0  0  # atno 17320 bound_to 7965
  144.8370  139.5535  143.6918 LP  0  0  0  0  0  0  0  0  0  0  0  0  # atno 17321 bound_to 7965
  140.6101  143.2169  151.6904 LP  0  0  0  0  0  0  0  0  0  0  0  0  # atno 17342 bound_to 10162
  139.5072  144.3656  152.0520 LP  0  0  0  0  0  0  0  0  0  0  0  0  # atno 17343 bound_to 10162
  157.4732  130.7721  149.7343 LP  0  0  0  0  0  0  0  0  0  0  0  0  # atno 17370 bound_to 10713
  155.9901  130.3947  150.3042 LP  0  0  0  0  0  0  0  0  0  0  0  0  # atno 17371 bound_to 10713
  140.8279  134.3213  157.5359 LP  0  0  0  0  0  0  0  0  0  0  0  0  # atno 17394 bound_to 11000
  139.8737  134.9346  156.3612 LP  0  0  0  0  0  0  0  0  0  0  0  0  # atno 17395 bound_to 11000

$$$$
