AV-unprocessed.smi:653|AV-procd|sdf|3210|dock1
  -GOLD-   22720 0143D 1   1.00000     0.00000
 Structure written by MMmdl.
 45 46  0  0  0  0  0  0  0  0  2 V2000
  151.0959  145.4076  159.0778 C   0  0  0  0  0  0  0  0  0  0  0  0
  151.3613  143.9674  158.6927 C   0  0  0  0  0  0  0  0  0  0  0  0
  152.2342  143.1406  159.4320 C   0  0  0  0  0  0  0  0  0  0  0  0
  152.4306  141.8055  159.0222 C   0  0  0  0  0  0  0  0  0  0  0  0
  151.7509  141.3231  157.8818 C   0  0  0  0  0  0  0  0  0  0  0  0
  151.9360  139.8873  157.4184 C   0  0  0  0  0  0  0  0  0  0  0  0
  151.6651  139.7357  155.9173 C   0  0  0  0  0  0  0  0  0  0  0  0
  152.5713  139.8813  155.0955 O   0  0  0  0  0  0  0  0  0  0  0  0
  150.4034  139.4369  155.5737 N   0  0  0  0  0  0  0  0  0  0  0  0
  149.9276  139.2526  154.2063 C   0  0  0  0  0  0  0  0  0  0  0  0
  148.4626  139.7234  154.0246 C   0  0  2  0  0  0  0  0  0  0  0  0
  148.3138  141.2323  154.1676 C   0  0  0  0  0  0  0  0  0  0  0  0
  148.1102  141.4311  155.6720 C   0  0  0  0  0  0  0  0  0  0  0  0
  147.7975  140.1459  156.2016 O   0  0  0  0  0  0  0  0  0  0  0  0
  147.5009  139.2583  155.1317 C   0  0  2  0  0  0  0  0  0  0  0  0
  147.5867  137.7802  155.5756 C   0  0  0  0  0  0  0  0  0  0  0  0
  147.1523  136.8230  154.4522 C   0  0  0  0  0  0  0  0  0  0  0  0
  146.7388  137.5324  156.8336 C   0  0  0  0  0  0  0  0  0  0  0  0
  150.8916  142.1971  157.1809 C   0  0  0  0  0  0  0  0  0  0  0  0
  150.7285  143.4686  157.6070 N   0  3  0  0  0  0  0  0  0  0  0  0
  151.9315  145.8169  159.6463 H   0  0  0  0  0  0  0  0  0  0  0  0
  150.1976  145.4739  159.6921 H   0  0  0  0  0  0  0  0  0  0  0  0
  150.9543  146.0272  158.1916 H   0  0  0  0  0  0  0  0  0  0  0  0
  152.7457  143.5218  160.3041 H   0  0  0  0  0  0  0  0  0  0  0  0
  153.0924  141.1593  159.5805 H   0  0  0  0  0  0  0  0  0  0  0  0
  152.9539  139.5586  157.6309 H   0  0  0  0  0  0  0  0  0  0  0  0
  151.2683  139.2374  157.9863 H   0  0  0  0  0  0  0  0  0  0  0  0
  149.7214  139.3292  156.3107 H   0  0  0  0  0  0  0  0  0  0  0  0
  150.5971  139.7845  153.5300 H   0  0  0  0  0  0  0  0  0  0  0  0
  150.0201  138.1954  153.9556 H   0  0  0  0  0  0  0  0  0  0  0  0
  148.0997  139.3954  153.0497 H   0  0  0  0  0  0  0  0  0  0  0  0
  149.1556  141.8038  153.7764 H   0  0  0  0  0  0  0  0  0  0  0  0
  147.4214  141.5620  153.6336 H   0  0  0  0  0  0  0  0  0  0  0  0
  149.0166  141.8019  156.1510 H   0  0  0  0  0  0  0  0  0  0  0  0
  147.3053  142.1383  155.8740 H   0  0  0  0  0  0  0  0  0  0  0  0
  146.4777  139.4670  154.8111 H   0  0  0  0  0  0  0  0  0  0  0  0
  148.6191  137.5499  155.8390 H   0  0  0  0  0  0  0  0  0  0  0  0
  146.1194  137.0072  154.1550 H   0  0  0  0  0  0  0  0  0  0  0  0
  147.2249  135.7835  154.7730 H   0  0  0  0  0  0  0  0  0  0  0  0
  147.7754  136.9306  153.5645 H   0  0  0  0  0  0  0  0  0  0  0  0
  145.6872  137.7589  156.6558 H   0  0  0  0  0  0  0  0  0  0  0  0
  147.0758  138.1496  157.6667 H   0  0  0  0  0  0  0  0  0  0  0  0
  146.8052  136.4922  157.1537 H   0  0  0  0  0  0  0  0  0  0  0  0
  150.3278  141.9180  156.3024 H   0  0  0  0  0  0  0  0  0  0  0  0
  150.0978  144.0791  157.0871 H   0  0  0  0  0  0  0  0  0  0  0  0
  1  2  1  0  0  0  0
  1 21  1  0  0  0  0
  1 22  1  0  0  0  0
  1 23  1  0  0  0  0
  2 20  1  0  0  0  0
  2  3  2  0  0  0  0
  3  4  1  0  0  0  0
  3 24  1  0  0  0  0
  4  5  2  0  0  0  0
  4 25  1  0  0  0  0
  5  6  1  0  0  0  0
  5 19  1  0  0  0  0
  6  7  1  0  0  0  0
  6 26  1  0  0  0  0
  6 27  1  0  0  0  0
  7  8  2  0  0  0  0
  7  9  1  0  0  0  0
  9 10  1  0  0  0  0
  9 28  1  0  0  0  0
 10 11  1  0  0  0  0
 10 29  1  0  0  0  0
 10 30  1  0  0  0  0
 11 15  1  0  0  0  0
 11 12  1  0  0  0  0
 11 31  1  0  0  0  0
 12 13  1  0  0  0  0
 12 32  1  0  0  0  0
 12 33  1  0  0  0  0
 13 14  1  0  0  0  0
 13 34  1  0  0  0  0
 13 35  1  0  0  0  0
 14 15  1  0  0  0  0
 15 16  1  0  0  0  0
 15 36  1  0  0  0  0
 16 17  1  0  0  0  0
 16 18  1  0  0  0  0
 16 37  1  0  0  0  0
 17 38  1  0  0  0  0
 17 39  1  0  0  0  0
 17 40  1  0  0  0  0
 18 41  1  0  0  0  0
 18 42  1  0  0  0  0
 18 43  1  0  0  0  0
 19 20  2  0  0  0  0
 19 44  1  0  0  0  0
 20 45  1  0  0  0  0
M  CHG  1  20   1
M  END
> <s_m_source_file>
AV-unprocessed.smi

> <i_m_source_file_index>
653

> <i_lp_mmshare_version>
43012

> <i_f3d_flags>
0

> <s_epik_input>
W0NIM11jMVtjSF1bY0hdYyhbY0hdbjEpW0NIMl1DKD1PKVtOSF1bQ0gyXVtDQEBIXTJbQ0gyXVtDSDJdT1tDQEhdMltDSF0oW0NIM10pW0NIM10=

> <s_epik_cmdline>
J2VwaWtfcHl0aG9uJywgJy1waCcsICc3LjAnLCAnLXRuJywgJzgnLCAnLW1hJywgJzIwMCcsICctbWV0YWxfYmluZGluZycsICctaW1hZScsICc8aW5maWxlLm1hZT4nLCAnLW9tYWUnLCAnPG91dGZpbGUubWFlPic=

> <r_epik_Ionization_Penalty>
2.12486

> <r_epik_Ionization_Penalty_Charging>
2.12486

> <r_epik_Ionization_Penalty_Neutral>
9.0873e-08

> <r_epik_State_Penalty>
2.26279

> <r_epik_Charging_Adjusted_Penalty>
4.38765

> <i_epik_Tot_Q>
1

> <i_epik_Tot_abs_Q>
1

> <r_epik_Metal_State_Penalty>
2.27914

> <b_epik_Metal_Only>
0

> <s_lp_Force_Field>
OPLS_2005

> <r_lp_Energy>
28.354

> <b_lp_Chiralities_Consistent>
1

> <s_lp_Variant>
AV-unprocessed.smi:653-7

> <Gold.Version>
5.8.1

> <Gold.Id.Protein>
6NUR|6NUR_protein|mol2

> <Gold.PLP.Fitness>
42.7758

> <Gold.PLP.PLP>
-34.2736

> <Gold.PLP.part.hbond>
-2.9083

> <Gold.PLP.part.metal>
0.0000

> <Gold.PLP.part.buried>
-1.7396

> <Gold.PLP.part.nonpolar>
-29.6123

> <Gold.PLP.part.repulsive>
0.1022

> <Gold.PLP.ligand.clash>
0.0000

> <Gold.PLP.ligand.torsion>
1.0333

> <Gold.PLP.Chemscore.Hbond>
3.4814

> <Gold.PLP.Chemscore.CHOScore>
0.0000

> <Gold.PLP.Chemscore.Metal>
0.0000

> <Gold.Chemscore.Hbonds>
donor molecule, donor type, donor heavy atom, donor atom, acceptor molecule, acceptor atom, score
      L1  H    20    45       P1  8028  2.00
      P1  H  7989  7998       L1     8  0.51
      P1  H  7997  8008       L1     8  0.93

> <Gold.PLP.Chemscore.Internal.Correction>
0.1248

> <Gold.Rescore>
     Score         DG    S(hbond)    S(metal)    S(lipo)     H(rot)  DE(clash)    DE(int)     intcor
     16.54     -19.25       2.00        0.00      94.93       1.57       0.17       2.53       ----

> <Gold.Chemscore.Fitness>
16.5442

> <Gold.Chemscore.DG>
-19.2462

> <Gold.Chemscore.ZeroCoef>
-5.4800

> <Gold.Chemscore.Hbond>
1.9999

> <Gold.Chemscore.Metal>
0.0000

> <Gold.Chemscore.Lipo>
94.9256

> <Gold.Chemscore.Internal_Hbond>
0.0000

> <Gold.Chemscore.DEClash>
0.1703

> <Gold.Chemscore.DEInternal>
2.5317

> <Gold.Chemscore.Rot>
1.5701

> <Gold.Chemscore.Internal.Correction>
   9.000000E+99

> <Gold.Chemscore.Hbonds>
donor molecule, donor type, donor heavy atom, donor atom, acceptor molecule, acceptor atom, score
      L1  H    20    45       P1  8028  0.87
      P1  H  7989  7998       L1     8  0.25
      P1  H  7997  8008       L1     8  0.80

> <Gold.Chemscore.Hbond.Weighted>
-6.6795

> <Gold.Chemscore.Metal.Weighted>
-0.0000

> <Gold.Chemscore.Lipo.Weighted>
-11.1063

> <Gold.Chemscore.Internal_Hbond.Weighted>
0.0000

> <Gold.Chemscore.DEClash.Weighted>
0.1703

> <Gold.Chemscore.DEInternal.Weighted>
2.5317

> <Gold.Chemscore.Rot.Weighted>
4.0196

> <Gold.Chemscore.Internal.Correction.Weighted>
   9.000000E+99

> <Gold.Protein.RotatedTorsions>
[ 6907 6896 6895 6894 ] final  179.93 input  -60.11 | X-H torsion
[ 7974 7965 7964 7962 ] final  -25.28 input  175.53 | X-H torsion
[ 8008 7997 7996 7995 ] final  -16.39 input   59.86 | X-H torsion
[ 10167 10162 10161 10158 ] final   59.60 input  -65.29 | X-H torsion
[ 10718 10713 10712 10709 ] final  139.09 input   66.30 | X-H torsion
[ 10763 10752 10751 10750 ] final  -97.57 input  -60.55 | X-H torsion
[ 11005 11000 10999 10996 ] final -142.78 input  -57.11 | X-H torsion

> <Gold.Protein.ActiveResidues>
 VAL166  LYS551  ARG553  GLY616  TRP617  ASP618  TYR619  PRO620  LYS621  CYS622 
 ASP623  PHE694  ASN695  SER759  ASP760  ASP761  ALA762  ILE779  LEU786  VAL792 
 PHE793  MET794  SER795  GLU796  ALA797  LYS798  CYS799  TRP800  GLU811  SER814 

> <Gold.Protein.RotatedAtoms>
  151.6637  133.3316  159.3179 H   0  0  0  0  0  0  0  0  0  0  0  0  # atno 6907 bound_to 6896
  150.7901  134.6922  159.6512 H   0  0  0  0  0  0  0  0  0  0  0  0  # atno 6908 bound_to 6896
  152.3979  134.6339  160.0134 H   0  0  0  0  0  0  0  0  0  0  0  0  # atno 6909 bound_to 6896
  146.1501  140.4866  142.8615 H   0  0  0  0  0  0  0  0  0  0  0  0  # atno 7974 bound_to 7965
  154.5057  140.2171  155.9256 H   0  0  0  0  0  0  0  0  0  0  0  0  # atno 8008 bound_to 7997
  156.1490  140.3165  155.8584 H   0  0  0  0  0  0  0  0  0  0  0  0  # atno 8009 bound_to 7997
  155.3975  140.0482  157.3029 H   0  0  0  0  0  0  0  0  0  0  0  0  # atno 8010 bound_to 7997
  140.1746  144.4242  150.6644 H   0  0  0  0  0  0  0  0  0  0  0  0  # atno 10167 bound_to 10162
  157.4182  131.1035  151.0382 H   0  0  0  0  0  0  0  0  0  0  0  0  # atno 10718 bound_to 10713
  154.7340  135.5041  153.9010 H   0  0  0  0  0  0  0  0  0  0  0  0  # atno 10763 bound_to 10752
  153.0977  135.6676  153.9740 H   0  0  0  0  0  0  0  0  0  0  0  0  # atno 10764 bound_to 10752
  153.9535  135.3055  155.3416 H   0  0  0  0  0  0  0  0  0  0  0  0  # atno 10765 bound_to 10752
  140.8191  134.2653  157.4908 H   0  0  0  0  0  0  0  0  0  0  0  0  # atno 11005 bound_to 11000
  144.7893  140.6000  143.6552 LP  0  0  0  0  0  0  0  0  0  0  0  0  # atno 17320 bound_to 7965
  145.4844  139.1493  143.3744 LP  0  0  0  0  0  0  0  0  0  0  0  0  # atno 17321 bound_to 7965
  140.6559  143.2237  151.5969 LP  0  0  0  0  0  0  0  0  0  0  0  0  # atno 17342 bound_to 10162
  139.5322  144.2882  152.1174 LP  0  0  0  0  0  0  0  0  0  0  0  0  # atno 17343 bound_to 10162
  157.1322  130.6107  149.5532 LP  0  0  0  0  0  0  0  0  0  0  0  0  # atno 17370 bound_to 10713
  155.9872  130.4910  150.7113 LP  0  0  0  0  0  0  0  0  0  0  0  0  # atno 17371 bound_to 10713
  139.8709  134.9525  156.4117 LP  0  0  0  0  0  0  0  0  0  0  0  0  # atno 17394 bound_to 11000
  140.9118  133.7706  155.9801 LP  0  0  0  0  0  0  0  0  0  0  0  0  # atno 17395 bound_to 11000

$$$$
