AV-unprocessed.smi:1790|AV-procd|sdf|7217|dock10
  -GOLD-   22720 8463D 1   1.00000     0.00000
 Structure written by MMmdl.
 32 33  0  0  0  0  0  0  0  0  2 V2000
  154.2438  140.0885  158.6241 O   0  0  0  0  0  0  0  0  0  0  0  0
  153.0973  140.0877  159.0704 C   0  0  0  0  0  0  0  0  0  0  0  0
  152.1380  141.2007  158.6516 C   0  0  0  0  0  0  0  0  0  0  0  0
  151.7423  141.9306  159.8024 O   0  0  0  0  0  0  0  0  0  0  0  0
  152.5602  143.0624  160.0395 C   0  0  0  0  0  0  0  0  0  0  0  0
  151.9757  144.2509  159.3071 C   0  0  0  0  0  0  0  0  0  0  0  0
  152.0035  145.6285  159.9290 C   0  0  0  0  0  0  0  0  0  0  0  0
  150.6950  144.8929  159.7905 C   0  0  0  0  0  0  0  0  0  0  0  0
  152.5768  139.1575  159.8955 N   0  0  0  0  0  0  0  0  0  0  0  0
  153.1748  138.0223  160.4701 C   0  0  0  0  0  0  0  0  0  0  0  0
  153.5251  137.9007  161.7810 C   0  0  0  0  0  0  0  0  0  0  0  0
  154.1353  136.6901  162.3168 C   0  0  0  0  0  0  0  0  0  0  0  0
  154.4653  136.4905  163.7857 C   0  0  0  0  0  0  0  0  0  0  0  0
  155.3302  137.4110  164.2122 F   0  0  0  0  0  0  0  0  0  0  0  0
  153.3568  136.5918  164.5176 F   0  0  0  0  0  0  0  0  0  0  0  0
  154.9951  135.2857  163.9978 F   0  0  0  0  0  0  0  0  0  0  0  0
  154.2778  135.7062  161.3577 C   0  0  0  0  0  0  0  0  0  0  0  0
  153.9675  135.7480  160.0437 N   0  5  0  0  0  0  0  0  0  0  0  0
  153.4042  136.8874  159.5516 C   0  0  0  0  0  0  0  0  0  0  0  0
  153.0866  136.9879  158.3659 O   0  0  0  0  0  0  0  0  0  0  0  0
  152.6260  141.8608  157.9322 H   0  0  0  0  0  0  0  0  0  0  0  0
  151.2694  140.7563  158.1631 H   0  0  0  0  0  0  0  0  0  0  0  0
  152.5988  143.2855  161.1066 H   0  0  0  0  0  0  0  0  0  0  0  0
  153.5797  142.8803  159.6954 H   0  0  0  0  0  0  0  0  0  0  0  0
  152.1024  144.2072  158.2270 H   0  0  0  0  0  0  0  0  0  0  0  0
  152.4226  145.7250  160.9288 H   0  0  0  0  0  0  0  0  0  0  0  0
  152.1802  146.4734  159.2666 H   0  0  0  0  0  0  0  0  0  0  0  0
  149.9959  145.2488  159.0366 H   0  0  0  0  0  0  0  0  0  0  0  0
  150.2414  144.5008  160.6987 H   0  0  0  0  0  0  0  0  0  0  0  0
  151.6011  139.2725  160.1292 H   0  0  0  0  0  0  0  0  0  0  0  0
  153.3501  138.7011  162.4797 H   0  0  0  0  0  0  0  0  0  0  0  0
  154.7009  134.7376  161.6994 H   0  0  0  0  0  0  0  0  0  0  0  0
  1  2  2  0  0  0  0
  2  3  1  0  0  0  0
  2  9  1  0  0  0  0
  3  4  1  0  0  0  0
  3 21  1  0  0  0  0
  3 22  1  0  0  0  0
  4  5  1  0  0  0  0
  5  6  1  0  0  0  0
  5 23  1  0  0  0  0
  5 24  1  0  0  0  0
  6  8  1  0  0  0  0
  6  7  1  0  0  0  0
  6 25  1  0  0  0  0
  7  8  1  0  0  0  0
  7 26  1  0  0  0  0
  7 27  1  0  0  0  0
  8 28  1  0  0  0  0
  8 29  1  0  0  0  0
  9 10  1  0  0  0  0
  9 30  1  0  0  0  0
 10 19  1  0  0  0  0
 10 11  2  0  0  0  0
 11 12  1  0  0  0  0
 11 31  1  0  0  0  0
 12 13  1  0  0  0  0
 12 17  2  0  0  0  0
 13 14  1  0  0  0  0
 13 15  1  0  0  0  0
 13 16  1  0  0  0  0
 17 18  1  0  0  0  0
 17 32  1  0  0  0  0
 18 19  1  0  0  0  0
 19 20  2  0  0  0  0
M  CHG  1  18  -1
M  END
> <s_m_source_file>
AV-unprocessed.smi

> <i_m_source_file_index>
1790

> <i_lp_mmshare_version>
43012

> <i_f3d_flags>
0

> <s_epik_input>
W0NIMl0xW0NIMl1bQ0hdMVtDSDJdT1tDSDJdQyg9TylbTkhdYzJbY0hdYyhDKEYpKEYpRilbY0hdW25IXWMyPU8=

> <s_epik_cmdline>
J2VwaWtfcHl0aG9uJywgJy1waCcsICc3LjAnLCAnLXRuJywgJzgnLCAnLW1hJywgJzIwMCcsICctbWV0YWxfYmluZGluZycsICctaW1hZScsICc8aW5maWxlLm1hZT4nLCAnLW9tYWUnLCAnPG91dGZpbGUubWFlPic=

> <r_epik_Ionization_Penalty>
2.6027

> <r_epik_Ionization_Penalty_Charging>
0.0561891

> <r_epik_Ionization_Penalty_Neutral>
2.54651

> <r_epik_State_Penalty>
2.71477

> <r_epik_Charging_Adjusted_Penalty>
2.77096

> <i_epik_Tot_Q>
-1

> <i_epik_Tot_abs_Q>
1

> <r_epik_Metal_State_Penalty>
0.521168

> <b_epik_Metal_Only>
0

> <s_lp_Force_Field>
OPLS_2005

> <r_lp_Energy>
28.814

> <b_lp_Chiralities_Consistent>
1

> <s_lp_Variant>
AV-unprocessed.smi:1790-2

> <Gold.Version>
5.8.1

> <Gold.Id.Protein>
6NUR|6NUR_protein|mol2

> <Gold.PLP.Fitness>
43.2258

> <Gold.PLP.PLP>
-37.2568

> <Gold.PLP.part.hbond>
-1.8347

> <Gold.PLP.part.metal>
0.0000

> <Gold.PLP.part.buried>
-1.7316

> <Gold.PLP.part.nonpolar>
-34.2356

> <Gold.PLP.part.repulsive>
0.1056

> <Gold.PLP.ligand.clash>
0.0000

> <Gold.PLP.ligand.torsion>
1.4280

> <Gold.PLP.Chemscore.Hbond>
2.7247

> <Gold.PLP.Chemscore.CHOScore>
0.0000

> <Gold.PLP.Chemscore.Metal>
0.0000

> <Gold.Chemscore.Hbonds>
donor molecule, donor type, donor heavy atom, donor atom, acceptor molecule, acceptor atom, score
      P1  H  6896  6908       L1    18  2.00
      P1  H  7997  8008       L1     1  0.85

> <Gold.PLP.Chemscore.Internal.Correction>
0.6508

> <Gold.Rescore>
     Score         DG    S(hbond)    S(metal)    S(lipo)     H(rot)  DE(clash)    DE(int)     intcor
     12.06     -14.80       1.01        0.00      91.06       1.83       1.22       1.51       ----

> <Gold.Chemscore.Fitness>
12.0638

> <Gold.Chemscore.DG>
-14.7986

> <Gold.Chemscore.ZeroCoef>
-5.4800

> <Gold.Chemscore.Hbond>
1.0050

> <Gold.Chemscore.Metal>
0.0000

> <Gold.Chemscore.Lipo>
91.0552

> <Gold.Chemscore.Internal_Hbond>
0.0000

> <Gold.Chemscore.DEClash>
1.2209

> <Gold.Chemscore.DEInternal>
1.5139

> <Gold.Chemscore.Rot>
1.8326

> <Gold.Chemscore.Internal.Correction>
   9.000000E+99

> <Gold.Chemscore.Hbonds>
donor molecule, donor type, donor heavy atom, donor atom, acceptor molecule, acceptor atom, score
      P1  H  6896  6908       L1    18  0.09
      P1  H  7997  8008       L1     1  0.81

> <Gold.Chemscore.Hbond.Weighted>
-3.3567

> <Gold.Chemscore.Metal.Weighted>
-0.0000

> <Gold.Chemscore.Lipo.Weighted>
-10.6535

> <Gold.Chemscore.Internal_Hbond.Weighted>
0.0000

> <Gold.Chemscore.DEClash.Weighted>
1.2209

> <Gold.Chemscore.DEInternal.Weighted>
1.5139

> <Gold.Chemscore.Rot.Weighted>
4.6916

> <Gold.Chemscore.Internal.Correction.Weighted>
   9.000000E+99

> <Gold.Protein.RotatedTorsions>
[ 6907 6896 6895 6894 ] final  -53.23 input  -60.11 | X-H torsion
[ 7974 7965 7964 7962 ] final -175.73 input  175.53 | X-H torsion
[ 8008 7997 7996 7995 ] final -121.90 input   59.86 | X-H torsion
[ 10167 10162 10161 10158 ] final  -45.26 input  -65.29 | X-H torsion
[ 10718 10713 10712 10709 ] final -165.14 input   66.30 | X-H torsion
[ 10763 10752 10751 10750 ] final -114.67 input  -60.55 | X-H torsion
[ 11005 11000 10999 10996 ] final   43.33 input  -57.11 | X-H torsion

> <Gold.Protein.ActiveResidues>
 VAL166  LYS551  ARG553  GLY616  TRP617  ASP618  TYR619  PRO620  LYS621  CYS622 
 ASP623  PHE694  ASN695  SER759  ASP760  ASP761  ALA762  ILE779  LEU786  VAL792 
 PHE793  MET794  SER795  GLU796  ALA797  LYS798  CYS799  TRP800  GLU811  SER814 

> <Gold.Protein.RotatedAtoms>
  150.8445  134.7749  159.6959 H   0  0  0  0  0  0  0  0  0  0  0  0  # atno 6907 bound_to 6896
  152.4525  134.5359  159.9834 H   0  0  0  0  0  0  0  0  0  0  0  0  # atno 6908 bound_to 6896
  151.5492  133.3382  159.2985 H   0  0  0  0  0  0  0  0  0  0  0  0  # atno 6909 bound_to 6896
  144.7127  140.1276  143.6401 H   0  0  0  0  0  0  0  0  0  0  0  0  # atno 7974 bound_to 7965
  155.1555  140.0404  157.2831 H   0  0  0  0  0  0  0  0  0  0  0  0  # atno 8008 bound_to 7997
  154.6374  140.2538  155.7335 H   0  0  0  0  0  0  0  0  0  0  0  0  # atno 8009 bound_to 7997
  156.2515  140.2863  156.0752 H   0  0  0  0  0  0  0  0  0  0  0  0  # atno 8010 bound_to 7997
  140.6865  143.2888  151.3614 H   0  0  0  0  0  0  0  0  0  0  0  0  # atno 10167 bound_to 10162
  156.6491  130.9000  151.3010 H   0  0  0  0  0  0  0  0  0  0  0  0  # atno 10718 bound_to 10713
  154.8450  135.4409  154.1542 H   0  0  0  0  0  0  0  0  0  0  0  0  # atno 10763 bound_to 10752
  153.2695  135.6944  153.7501 H   0  0  0  0  0  0  0  0  0  0  0  0  # atno 10764 bound_to 10752
  153.6747  135.3413  155.3138 H   0  0  0  0  0  0  0  0  0  0  0  0  # atno 10765 bound_to 10752
  140.1655  134.4287  155.8290 H   0  0  0  0  0  0  0  0  0  0  0  0  # atno 11005 bound_to 11000
  145.9315  139.2609  143.1322 LP  0  0  0  0  0  0  0  0  0  0  0  0  # atno 17320 bound_to 7965
  145.9518  140.8903  143.0255 LP  0  0  0  0  0  0  0  0  0  0  0  0  # atno 17321 bound_to 7965
  139.6228  144.0874  152.2406 LP  0  0  0  0  0  0  0  0  0  0  0  0  # atno 17342 bound_to 10162
  140.0323  144.6071  150.7477 LP  0  0  0  0  0  0  0  0  0  0  0  0  # atno 17343 bound_to 10162
  157.7147  130.9482  150.1211 LP  0  0  0  0  0  0  0  0  0  0  0  0  # atno 17370 bound_to 10713
  156.2098  130.3666  149.8684 LP  0  0  0  0  0  0  0  0  0  0  0  0  # atno 17371 bound_to 10713
  141.2213  133.6932  156.7671 LP  0  0  0  0  0  0  0  0  0  0  0  0  # atno 17394 bound_to 11000
  140.2439  134.8593  157.3600 LP  0  0  0  0  0  0  0  0  0  0  0  0  # atno 17395 bound_to 11000

$$$$
