AV-unprocessed.smi:652|AV-procd|sdf|3194|dock8
  -GOLD-   22720 0123D 1   1.00000     0.00000
 Structure written by MMmdl.
 48 49  0  0  0  0  0  0  0  0  2 V2000
  152.0213  144.9413  159.1544 C   0  0  0  0  0  0  0  0  0  0  0  0
  151.9329  143.4234  159.3602 C   0  0  0  0  0  0  0  0  0  0  0  0
  153.3215  142.7814  159.4945 C   0  0  0  0  0  0  0  0  0  0  0  0
  151.2064  142.8258  158.2439 N   0  0  0  0  0  0  0  0  0  0  0  0
  151.1597  141.5162  157.9519 C   0  0  0  0  0  0  0  0  0  0  0  0
  151.7548  140.6532  158.5962 O   0  0  0  0  0  0  0  0  0  0  0  0
  150.3033  141.1169  156.7491 C   0  0  0  0  0  0  0  0  0  0  0  0
  149.9924  139.6063  156.7574 C   0  0  0  0  0  0  0  0  0  0  0  0
  149.6764  139.0624  155.4073 N   0  3  1  0  0  0  0  0  0  0  0  0
  150.6417  139.4887  154.3641 C   0  0  0  0  0  0  0  0  0  0  0  0
  151.9563  138.6892  154.4583 C   0  0  0  0  0  0  0  0  0  0  0  0
  151.6811  137.2935  154.3905 O   0  0  0  0  0  0  0  0  0  0  0  0
  150.8470  136.8503  155.4556 C   0  0  2  0  0  0  0  0  0  0  0  0
  150.7056  135.3197  155.3536 C   0  0  0  0  0  0  0  0  0  0  0  0
  149.9473  134.8912  154.1820 N   0  0  0  0  0  0  0  0  0  0  0  0
  149.5871  133.5492  153.9913 C   0  0  0  0  0  0  0  0  0  0  0  0
  148.4984  133.2509  153.1478 C   0  0  0  0  0  0  0  0  0  0  0  0
  148.1499  131.8988  152.9850 C   0  0  0  0  0  0  0  0  0  0  0  0
  148.9200  130.9464  153.6767 C   0  0  0  0  0  0  0  0  0  0  0  0
  149.9563  131.2889  154.4744 N   0  0  0  0  0  0  0  0  0  0  0  0
  150.2876  132.5760  154.6258 N   0  0  0  0  0  0  0  0  0  0  0  0
  149.4940  137.5891  155.3493 C   0  0  0  0  0  0  0  0  0  0  0  0
  152.5433  145.4191  159.9838 H   0  0  0  0  0  0  0  0  0  0  0  0
  151.0273  145.3855  159.0938 H   0  0  0  0  0  0  0  0  0  0  0  0
  152.5555  145.1905  158.2369 H   0  0  0  0  0  0  0  0  0  0  0  0
  151.3822  143.2497  160.2865 H   0  0  0  0  0  0  0  0  0  0  0  0
  153.8722  143.2127  160.3307 H   0  0  0  0  0  0  0  0  0  0  0  0
  153.9174  142.9287  158.5931 H   0  0  0  0  0  0  0  0  0  0  0  0
  153.2443  141.7082  159.6721 H   0  0  0  0  0  0  0  0  0  0  0  0
  150.6899  143.4599  157.6518 H   0  0  0  0  0  0  0  0  0  0  0  0
  149.3929  141.7143  156.7661 H   0  0  0  0  0  0  0  0  0  0  0  0
  150.8313  141.3862  155.8337 H   0  0  0  0  0  0  0  0  0  0  0  0
  150.8695  139.0843  157.1431 H   0  0  0  0  0  0  0  0  0  0  0  0
  149.1855  139.3876  157.4569 H   0  0  0  0  0  0  0  0  0  0  0  0
  150.1879  139.3185  153.3867 H   0  0  0  0  0  0  0  0  0  0  0  0
  150.8331  140.5604  154.4286 H   0  0  0  0  0  0  0  0  0  0  0  0
  152.6148  138.9564  153.6318 H   0  0  0  0  0  0  0  0  0  0  0  0
  152.4964  138.9223  155.3770 H   0  0  0  0  0  0  0  0  0  0  0  0
  151.3376  137.0904  156.3983 H   0  0  0  0  0  0  0  0  0  0  0  0
  151.6940  134.8626  155.3016 H   0  0  0  0  0  0  0  0  0  0  0  0
  150.2333  134.9244  156.2537 H   0  0  0  0  0  0  0  0  0  0  0  0
  149.4932  135.6009  153.6251 H   0  0  0  0  0  0  0  0  0  0  0  0
  147.9448  134.0301  152.6448 H   0  0  0  0  0  0  0  0  0  0  0  0
  147.3239  131.6025  152.3553 H   0  0  0  0  0  0  0  0  0  0  0  0
  148.6997  129.8925  153.5935 H   0  0  0  0  0  0  0  0  0  0  0  0
  148.8010  137.2483  156.1153 H   0  0  0  0  0  0  0  0  0  0  0  0
  149.0230  137.3411  154.3971 H   0  0  0  0  0  0  0  0  0  0  0  0
  148.7905  139.4760  155.1534 H   0  0  0  0  0  0  0  0  0  0  0  0
  1  2  1  0  0  0  0
  1 23  1  0  0  0  0
  1 24  1  0  0  0  0
  1 25  1  0  0  0  0
  2  3  1  0  0  0  0
  2  4  1  0  0  0  0
  2 26  1  0  0  0  0
  3 27  1  0  0  0  0
  3 28  1  0  0  0  0
  3 29  1  0  0  0  0
  4  5  1  0  0  0  0
  4 30  1  0  0  0  0
  5  6  2  0  0  0  0
  5  7  1  0  0  0  0
  7  8  1  0  0  0  0
  7 31  1  0  0  0  0
  7 32  1  0  0  0  0
  8  9  1  0  0  0  0
  8 33  1  0  0  0  0
  8 34  1  0  0  0  0
  9 22  1  0  0  0  0
  9 10  1  0  0  0  0
  9 48  1  0  0  0  0
 10 11  1  0  0  0  0
 10 35  1  0  0  0  0
 10 36  1  0  0  0  0
 11 12  1  0  0  0  0
 11 37  1  0  0  0  0
 11 38  1  0  0  0  0
 12 13  1  0  0  0  0
 13 14  1  0  0  0  0
 13 22  1  0  0  0  0
 13 39  1  0  0  0  0
 14 15  1  0  0  0  0
 14 40  1  0  0  0  0
 14 41  1  0  0  0  0
 15 16  1  0  0  0  0
 15 42  1  0  0  0  0
 16 21  1  0  0  0  0
 16 17  2  0  0  0  0
 17 18  1  0  0  0  0
 17 43  1  0  0  0  0
 18 19  2  0  0  0  0
 18 44  1  0  0  0  0
 19 20  1  0  0  0  0
 19 45  1  0  0  0  0
 20 21  2  0  0  0  0
 22 46  1  0  0  0  0
 22 47  1  0  0  0  0
M  CHG  1   9   1
M  END
> <s_m_source_file>
AV-unprocessed.smi

> <i_m_source_file_index>
652

> <i_lp_mmshare_version>
43012

> <i_f3d_flags>
0

> <s_epik_input>
W0NIM11bQ0hdKFtDSDNdKVtOSF1DKD1PKVtDSDJdW0NIMl1OMVtDSDJdW0NIMl1PW0NASF0oW0NIMl0xKVtDSDJdW05IXWMyW2NIXVtjSF1bY0hdbm4y

> <s_epik_cmdline>
J2VwaWtfcHl0aG9uJywgJy1waCcsICc3LjAnLCAnLXRuJywgJzgnLCAnLW1hJywgJzIwMCcsICctbWV0YWxfYmluZGluZycsICctaW1hZScsICc8aW5maWxlLm1hZT4nLCAnLW9tYWUnLCAnPG91dGZpbGUubWFlPic=

> <r_lp_tautomer_probability>
0.999978

> <r_epik_Ionization_Penalty>
0.433079

> <r_epik_Ionization_Penalty_Charging>
0.413784

> <r_epik_Ionization_Penalty_Neutral>
0.0192945

> <r_epik_State_Penalty>
0.425138

> <r_epik_Charging_Adjusted_Penalty>
0.838922

> <i_epik_Tot_Q>
1

> <i_epik_Tot_abs_Q>
1

> <r_epik_Metal_State_Penalty>
0.422073

> <b_epik_Metal_Only>
0

> <s_lp_Force_Field>
OPLS_2005

> <r_lp_Energy>
22.7305

> <b_lp_Chiralities_Consistent>
1

> <s_lp_Variant>
AV-unprocessed.smi:652-3

> <Gold.Version>
5.8.1

> <Gold.Id.Protein>
6NUR|6NUR_protein|mol2

> <Gold.PLP.Fitness>
44.9779

> <Gold.PLP.PLP>
-40.4747

> <Gold.PLP.part.hbond>
-2.0000

> <Gold.PLP.part.metal>
0.0000

> <Gold.PLP.part.buried>
-5.2031

> <Gold.PLP.part.nonpolar>
-34.0275

> <Gold.PLP.part.repulsive>
0.2890

> <Gold.PLP.ligand.clash>
0.0000

> <Gold.PLP.ligand.torsion>
0.7483

> <Gold.PLP.Chemscore.Hbond>
1.9425

> <Gold.PLP.Chemscore.CHOScore>
0.0000

> <Gold.PLP.Chemscore.Metal>
0.0000

> <Gold.Chemscore.Hbonds>
donor molecule, donor type, donor heavy atom, donor atom, acceptor molecule, acceptor atom, score
      L1  H    15    42       P1  7948  0.93
      P1  H 10752 10764       L1    12  0.83

> <Gold.PLP.Chemscore.Internal.Correction>
0.1724

> <Gold.Rescore>
     Score         DG    S(hbond)    S(metal)    S(lipo)     H(rot)  DE(clash)    DE(int)     intcor
     12.32     -14.82       1.39        0.00      89.46       2.26       0.29       2.21       ----

> <Gold.Chemscore.Fitness>
12.3242

> <Gold.Chemscore.DG>
-14.8208

> <Gold.Chemscore.ZeroCoef>
-5.4800

> <Gold.Chemscore.Hbond>
1.3947

> <Gold.Chemscore.Metal>
0.0000

> <Gold.Chemscore.Lipo>
89.4593

> <Gold.Chemscore.Internal_Hbond>
0.0000

> <Gold.Chemscore.DEClash>
0.2892

> <Gold.Chemscore.DEInternal>
2.2075

> <Gold.Chemscore.Rot>
2.2594

> <Gold.Chemscore.Internal.Correction>
   9.000000E+99

> <Gold.Chemscore.Hbonds>
donor molecule, donor type, donor heavy atom, donor atom, acceptor molecule, acceptor atom, score
      L1  H    15    42       P1  7948  0.23
      P1  H 10752 10764       L1    12  0.15

> <Gold.Chemscore.Hbond.Weighted>
-4.6582

> <Gold.Chemscore.Metal.Weighted>
-0.0000

> <Gold.Chemscore.Lipo.Weighted>
-10.4667

> <Gold.Chemscore.Internal_Hbond.Weighted>
0.0000

> <Gold.Chemscore.DEClash.Weighted>
0.2892

> <Gold.Chemscore.DEInternal.Weighted>
2.2075

> <Gold.Chemscore.Rot.Weighted>
5.7841

> <Gold.Chemscore.Internal.Correction.Weighted>
   9.000000E+99

> <Gold.Protein.RotatedTorsions>
[ 6907 6896 6895 6894 ] final  -54.73 input  -60.11 | X-H torsion
[ 7974 7965 7964 7962 ] final  147.80 input  175.53 | X-H torsion
[ 8008 7997 7996 7995 ] final  119.44 input   59.86 | X-H torsion
[ 10167 10162 10161 10158 ] final  165.32 input  -65.29 | X-H torsion
[ 10718 10713 10712 10709 ] final  -43.46 input   66.30 | X-H torsion
[ 10763 10752 10751 10750 ] final  -76.33 input  -60.55 | X-H torsion
[ 11005 11000 10999 10996 ] final  -86.47 input  -57.11 | X-H torsion

> <Gold.Protein.ActiveResidues>
 VAL166  LYS551  ARG553  GLY616  TRP617  ASP618  TYR619  PRO620  LYS621  CYS622 
 ASP623  PHE694  ASN695  SER759  ASP760  ASP761  ALA762  ILE779  LEU786  VAL792 
 PHE793  MET794  SER795  GLU796  ALA797  LYS798  CYS799  TRP800  GLU811  SER814 

> <Gold.Protein.RotatedAtoms>
  150.8313  134.7567  159.6855 H   0  0  0  0  0  0  0  0  0  0  0  0  # atno 6907 bound_to 6896
  152.4417  134.5575  159.9894 H   0  0  0  0  0  0  0  0  0  0  0  0  # atno 6908 bound_to 6896
  151.5735  133.3349  159.3030 H   0  0  0  0  0  0  0  0  0  0  0  0  # atno 6909 bound_to 6896
  144.8563  139.6074  143.5951 H   0  0  0  0  0  0  0  0  0  0  0  0  # atno 7974 bound_to 7965
  156.2596  140.2853  156.0991 H   0  0  0  0  0  0  0  0  0  0  0  0  # atno 8008 bound_to 7997
  155.1379  140.0395  157.2808 H   0  0  0  0  0  0  0  0  0  0  0  0  # atno 8009 bound_to 7997
  154.6551  140.2553  155.7176 H   0  0  0  0  0  0  0  0  0  0  0  0  # atno 8010 bound_to 7997
  139.4904  144.4144  151.9261 H   0  0  0  0  0  0  0  0  0  0  0  0  # atno 10167 bound_to 10162
  156.2487  130.4186  149.8675 H   0  0  0  0  0  0  0  0  0  0  0  0  # atno 10718 bound_to 10713
  154.4984  135.5801  153.6512 H   0  0  0  0  0  0  0  0  0  0  0  0  # atno 10763 bound_to 10752
  152.9874  135.6130  154.3034 H   0  0  0  0  0  0  0  0  0  0  0  0  # atno 10764 bound_to 10752
  154.2939  135.2848  155.2621 H   0  0  0  0  0  0  0  0  0  0  0  0  # atno 10765 bound_to 10752
  141.1629  133.7456  156.9166 H   0  0  0  0  0  0  0  0  0  0  0  0  # atno 11005 bound_to 11000
  146.2825  139.6916  142.9219 LP  0  0  0  0  0  0  0  0  0  0  0  0  # atno 17320 bound_to 7965
  145.4400  141.0421  143.2863 LP  0  0  0  0  0  0  0  0  0  0  0  0  # atno 17321 bound_to 7965
  140.3587  144.3000  150.5937 LP  0  0  0  0  0  0  0  0  0  0  0  0  # atno 17342 bound_to 10162
  140.5422  143.2221  151.8066 LP  0  0  0  0  0  0  0  0  0  0  0  0  # atno 17343 bound_to 10162
  156.6231  130.8634  151.3479 LP  0  0  0  0  0  0  0  0  0  0  0  0  # atno 17370 bound_to 10713
  157.7206  130.9553  150.1422 LP  0  0  0  0  0  0  0  0  0  0  0  0  # atno 17371 bound_to 10713
  140.1480  134.9249  157.2555 LP  0  0  0  0  0  0  0  0  0  0  0  0  # atno 17394 bound_to 11000
  140.2756  134.3409  155.7359 LP  0  0  0  0  0  0  0  0  0  0  0  0  # atno 17395 bound_to 11000

$$$$
