AV-unprocessed.smi:1682|AV-procd|sdf|6745|dock3
  -GOLD-   22720 7503D 1   1.00000     0.00000
 Structure written by MMmdl.
 39 40  0  0  0  0  0  0  0  0  2 V2000
  152.7709  139.9161  154.8681 O   0  0  0  0  0  0  0  0  0  0  0  0
  151.8060  139.3299  155.3576 C   0  0  0  0  0  0  0  0  0  0  0  0
  151.3152  139.6203  156.5730 N   0  0  0  0  0  0  0  0  0  0  0  0
  151.8369  140.6693  157.4373 C   0  0  0  0  0  0  0  0  0  0  0  0
  151.3008  142.0433  157.0127 C   0  0  0  0  0  0  0  0  0  0  0  0
  151.5354  143.1006  158.0745 C   0  0  0  0  0  0  0  0  0  0  0  0
  152.3935  142.8831  159.1747 C   0  0  0  0  0  0  0  0  0  0  0  0
  152.5574  143.9048  160.1334 C   0  0  0  0  0  0  0  0  0  0  0  0
  151.8614  145.1207  159.9723 C   0  0  0  0  0  0  0  0  0  0  0  0
  151.0180  145.2846  158.8546 C   0  0  0  0  0  0  0  0  0  0  0  0
  150.8870  144.2822  157.9579 N   0  3  0  0  0  0  0  0  0  0  0  0
  151.1050  138.2161  154.5623 C   0  0  2  0  0  0  0  0  0  0  0  0
  149.6227  138.5370  154.2905 C   0  0  0  0  0  0  0  0  0  0  0  0
  148.8745  137.4825  155.0895 C   0  0  0  0  0  0  0  0  0  0  0  0
  147.6525  137.4961  155.2263 O   0  0  0  0  0  0  0  0  0  0  0  0
  149.7174  136.5862  155.6152 N   0  0  0  0  0  0  0  0  0  0  0  0
  149.3563  135.4482  156.4596 C   0  0  0  0  0  0  0  0  0  0  0  0
  149.5778  134.0971  155.7555 C   0  0  0  0  0  0  0  0  0  0  0  0
  149.0154  133.1328  156.4825 F   0  0  0  0  0  0  0  0  0  0  0  0
  149.0262  134.0862  154.5423 F   0  0  0  0  0  0  0  0  0  0  0  0
  150.8815  133.8407  155.6465 F   0  0  0  0  0  0  0  0  0  0  0  0
  151.1087  136.8514  155.2834 C   0  0  0  0  0  0  0  0  0  0  0  0
  150.5203  139.0946  156.9073 H   0  0  0  0  0  0  0  0  0  0  0  0
  151.5582  140.4573  158.4709 H   0  0  0  0  0  0  0  0  0  0  0  0
  152.9271  140.6644  157.3889 H   0  0  0  0  0  0  0  0  0  0  0  0
  151.7787  142.3592  156.0840 H   0  0  0  0  0  0  0  0  0  0  0  0
  150.2319  141.9819  156.8035 H   0  0  0  0  0  0  0  0  0  0  0  0
  152.9182  141.9451  159.2871 H   0  0  0  0  0  0  0  0  0  0  0  0
  153.2078  143.7569  160.9831 H   0  0  0  0  0  0  0  0  0  0  0  0
  151.9721  145.9152  160.6958 H   0  0  0  0  0  0  0  0  0  0  0  0
  150.4473  146.1793  158.6529 H   0  0  0  0  0  0  0  0  0  0  0  0
  151.6276  138.1130  153.6097 H   0  0  0  0  0  0  0  0  0  0  0  0
  149.3241  139.5395  154.6012 H   0  0  0  0  0  0  0  0  0  0  0  0
  149.3836  138.4273  153.2323 H   0  0  0  0  0  0  0  0  0  0  0  0
  149.9475  135.4827  157.3756 H   0  0  0  0  0  0  0  0  0  0  0  0
  148.3141  135.5411  156.7696 H   0  0  0  0  0  0  0  0  0  0  0  0
  151.4784  136.0667  154.6220 H   0  0  0  0  0  0  0  0  0  0  0  0
  151.7299  136.8439  156.1808 H   0  0  0  0  0  0  0  0  0  0  0  0
  150.2688  144.4224  157.1584 H   0  0  0  0  0  0  0  0  0  0  0  0
  1  2  2  0  0  0  0
  2  3  1  0  0  0  0
  2 12  1  0  0  0  0
  3  4  1  0  0  0  0
  3 23  1  0  0  0  0
  4  5  1  0  0  0  0
  4 24  1  0  0  0  0
  4 25  1  0  0  0  0
  5  6  1  0  0  0  0
  5 26  1  0  0  0  0
  5 27  1  0  0  0  0
  6 11  1  0  0  0  0
  6  7  2  0  0  0  0
  7  8  1  0  0  0  0
  7 28  1  0  0  0  0
  8  9  2  0  0  0  0
  8 29  1  0  0  0  0
  9 10  1  0  0  0  0
  9 30  1  0  0  0  0
 10 11  2  0  0  0  0
 10 31  1  0  0  0  0
 11 39  1  0  0  0  0
 12 22  1  0  0  0  0
 12 13  1  0  0  0  0
 12 32  1  0  0  0  0
 13 14  1  0  0  0  0
 13 33  1  0  0  0  0
 13 34  1  0  0  0  0
 14 15  2  0  0  0  0
 14 16  1  0  0  0  0
 16 17  1  0  0  0  0
 16 22  1  0  0  0  0
 17 18  1  0  0  0  0
 17 35  1  0  0  0  0
 17 36  1  0  0  0  0
 18 19  1  0  0  0  0
 18 20  1  0  0  0  0
 18 21  1  0  0  0  0
 22 37  1  0  0  0  0
 22 38  1  0  0  0  0
M  CHG  1  11   1
M  END
> <s_m_source_file>
AV-unprocessed.smi

> <i_m_source_file_index>
1682

> <i_lp_mmshare_version>
43012

> <i_f3d_flags>
0

> <s_epik_input>
RkMoRikoRilbQ0gyXU4oW0NIMl0xKUMoPU8pW0NIMl1bQ0BIXTFDKD1PKVtOSF1bQ0gyXVtDSDJdYzJbY0hdW2NIXVtjSF1bY0hdbjI=

> <s_epik_cmdline>
J2VwaWtfcHl0aG9uJywgJy1waCcsICc3LjAnLCAnLXRuJywgJzgnLCAnLW1hJywgJzIwMCcsICctbWV0YWxfYmluZGluZycsICctaW1hZScsICc8aW5maWxlLm1hZT4nLCAnLW9tYWUnLCAnPG91dGZpbGUubWFlPic=

> <r_epik_Ionization_Penalty>
1.88249

> <r_epik_Ionization_Penalty_Charging>
1.88249

> <r_epik_Ionization_Penalty_Neutral>
2.8664e-08

> <r_epik_State_Penalty>
2.00238

> <r_epik_Charging_Adjusted_Penalty>
3.88487

> <i_epik_Tot_Q>
1

> <i_epik_Tot_abs_Q>
1

> <r_epik_Metal_State_Penalty>
2.02677

> <b_epik_Metal_Only>
0

> <s_lp_Force_Field>
OPLS_2005

> <r_lp_Energy>
22.1056

> <b_lp_Chiralities_Consistent>
1

> <s_lp_Variant>
AV-unprocessed.smi:1682-3

> <Gold.Version>
5.8.1

> <Gold.Id.Protein>
6NUR|6NUR_protein|mol2

> <Gold.PLP.Fitness>
51.4455

> <Gold.PLP.PLP>
-42.2471

> <Gold.PLP.part.hbond>
-2.9791

> <Gold.PLP.part.metal>
0.0000

> <Gold.PLP.part.buried>
-4.9834

> <Gold.PLP.part.nonpolar>
-33.7094

> <Gold.PLP.part.repulsive>
0.2289

> <Gold.PLP.ligand.clash>
0.0000

> <Gold.PLP.ligand.torsion>
0.5044

> <Gold.PLP.Chemscore.Hbond>
3.2912

> <Gold.PLP.Chemscore.CHOScore>
0.0000

> <Gold.PLP.Chemscore.Metal>
0.0000

> <Gold.Chemscore.Hbonds>
donor molecule, donor type, donor heavy atom, donor atom, acceptor molecule, acceptor atom, score
      L1  H    11    39       P1  8028  2.00
      P1  H  7989  7998       L1     1  0.34
      P1  H  7997  8009       L1     1  1.00

> <Gold.PLP.Chemscore.Internal.Correction>
0.3337

> <Gold.Rescore>
     Score         DG    S(hbond)    S(metal)    S(lipo)     H(rot)  DE(clash)    DE(int)     intcor
     17.18     -18.09       1.88        0.00     102.03       2.19       0.22       0.69       ----

> <Gold.Chemscore.Fitness>
17.1837

> <Gold.Chemscore.DG>
-18.0867

> <Gold.Chemscore.ZeroCoef>
-5.4800

> <Gold.Chemscore.Hbond>
1.8815

> <Gold.Chemscore.Metal>
0.0000

> <Gold.Chemscore.Lipo>
102.0254

> <Gold.Chemscore.Internal_Hbond>
0.0000

> <Gold.Chemscore.DEClash>
0.2165

> <Gold.Chemscore.DEInternal>
0.6864

> <Gold.Chemscore.Rot>
2.1932

> <Gold.Chemscore.Internal.Correction>
   9.000000E+99

> <Gold.Chemscore.Hbonds>
donor molecule, donor type, donor heavy atom, donor atom, acceptor molecule, acceptor atom, score
      L1  H    11    39       P1  8028  0.65
      P1  H  7989  7998       L1     1  0.04
      P1  H  7997  8009       L1     1  0.97

> <Gold.Chemscore.Hbond.Weighted>
-6.2842

> <Gold.Chemscore.Metal.Weighted>
-0.0000

> <Gold.Chemscore.Lipo.Weighted>
-11.9370

> <Gold.Chemscore.Internal_Hbond.Weighted>
0.0000

> <Gold.Chemscore.DEClash.Weighted>
0.2165

> <Gold.Chemscore.DEInternal.Weighted>
0.6864

> <Gold.Chemscore.Rot.Weighted>
5.6145

> <Gold.Chemscore.Internal.Correction.Weighted>
   9.000000E+99

> <Gold.Protein.RotatedTorsions>
[ 6907 6896 6895 6894 ] final  -88.89 input  -60.11 | X-H torsion
[ 7974 7965 7964 7962 ] final  170.38 input  175.53 | X-H torsion
[ 8008 7997 7996 7995 ] final -130.93 input   59.86 | X-H torsion
[ 10167 10162 10161 10158 ] final   68.71 input  -65.29 | X-H torsion
[ 10718 10713 10712 10709 ] final  113.06 input   66.30 | X-H torsion
[ 10763 10752 10751 10750 ] final -153.13 input  -60.55 | X-H torsion
[ 11005 11000 10999 10996 ] final  -51.79 input  -57.11 | X-H torsion

> <Gold.Protein.ActiveResidues>
 VAL166  LYS551  ARG553  GLY616  TRP617  ASP618  TYR619  PRO620  LYS621  CYS622 
 ASP623  PHE694  ASN695  SER759  ASP760  ASP761  ALA762  ILE779  LEU786  VAL792 
 PHE793  MET794  SER795  GLU796  ALA797  LYS798  CYS799  TRP800  GLU811  SER814 

> <Gold.Protein.RotatedAtoms>
  150.6871  134.2671  159.4572 H   0  0  0  0  0  0  0  0  0  0  0  0  # atno 6907 bound_to 6896
  152.0596  134.9600  160.0584 H   0  0  0  0  0  0  0  0  0  0  0  0  # atno 6908 bound_to 6896
  152.1032  133.4226  159.4633 H   0  0  0  0  0  0  0  0  0  0  0  0  # atno 6909 bound_to 6896
  144.7326  139.9193  143.6419 H   0  0  0  0  0  0  0  0  0  0  0  0  # atno 7974 bound_to 7965
  155.3040  140.0454  157.3031 H   0  0  0  0  0  0  0  0  0  0  0  0  # atno 8008 bound_to 7997
  154.5471  140.2306  155.8513 H   0  0  0  0  0  0  0  0  0  0  0  0  # atno 8009 bound_to 7997
  156.1933  140.3045  155.9383 H   0  0  0  0  0  0  0  0  0  0  0  0  # atno 8010 bound_to 7997
  140.0757  144.5114  150.7196 H   0  0  0  0  0  0  0  0  0  0  0  0  # atno 10167 bound_to 10162
  157.6359  131.0978  150.6986 H   0  0  0  0  0  0  0  0  0  0  0  0  # atno 10718 bound_to 10713
  154.7948  135.3220  154.7693 H   0  0  0  0  0  0  0  0  0  0  0  0  # atno 10763 bound_to 10752
  153.8374  135.6874  153.4811 H   0  0  0  0  0  0  0  0  0  0  0  0  # atno 10764 bound_to 10752
  153.1634  135.4651  154.9745 H   0  0  0  0  0  0  0  0  0  0  0  0  # atno 10765 bound_to 10752
  141.0890  133.6636  156.3929 H   0  0  0  0  0  0  0  0  0  0  0  0  # atno 11005 bound_to 11000
  146.0942  139.3933  143.0387 LP  0  0  0  0  0  0  0  0  0  0  0  0  # atno 17320 bound_to 7965
  145.7669  140.9912  143.1170 LP  0  0  0  0  0  0  0  0  0  0  0  0  # atno 17321 bound_to 7965
  140.7103  143.2500  151.4601 LP  0  0  0  0  0  0  0  0  0  0  0  0  # atno 17342 bound_to 10162
  139.5809  144.1712  152.1967 LP  0  0  0  0  0  0  0  0  0  0  0  0  # atno 17343 bound_to 10162
  156.7318  130.4712  149.5498 LP  0  0  0  0  0  0  0  0  0  0  0  0  # atno 17370 bound_to 10713
  156.1597  130.6366  151.0703 LP  0  0  0  0  0  0  0  0  0  0  0  0  # atno 17371 bound_to 10713
  140.5297  134.6225  157.5346 LP  0  0  0  0  0  0  0  0  0  0  0  0  # atno 17394 bound_to 11000
  139.9712  134.7289  156.0037 LP  0  0  0  0  0  0  0  0  0  0  0  0  # atno 17395 bound_to 11000

$$$$
