AV-unprocessed.smi:53|AV-procd|sdf|524|dock10
  -GOLD-   2262016403D 1   1.00000     0.00000
 Structure written by MMmdl.
 30 31  0  0  0  0  0  0  0  0  1 V2000
  152.0622  143.5678  159.3761 N   0  0  0  0  0  0  0  0  0  0  0  0
  151.8831  142.4256  158.6981 C   0  0  0  0  0  0  0  0  0  0  0  0
  150.7396  142.2637  157.8289 C   0  0  0  0  0  0  0  0  0  0  0  0
  150.6285  141.0830  157.1820 C   0  0  0  0  0  0  0  0  0  0  0  0
  151.5569  140.0634  157.3370 N   0  0  0  0  0  0  0  0  0  0  0  0
  151.4008  138.7540  156.5911 C   0  0  1  0  0  0  0  0  0  0  0  0
  150.0425  138.4350  156.5347 O   0  0  0  0  0  0  0  0  0  0  0  0
  149.7265  137.9376  155.2404 C   0  0  1  0  0  0  0  0  0  0  0  0
  148.2159  138.0411  154.9649 C   0  0  0  0  0  0  0  0  0  0  0  0
  147.9721  138.0751  153.5747 O   0  0  0  0  0  0  0  0  0  0  0  0
  150.6639  138.7140  154.3039 C   0  0  1  0  0  0  0  0  0  0  0  0
  150.1218  139.9819  153.9727 O   0  0  0  0  0  0  0  0  0  0  0  0
  151.9350  138.8172  155.1423 C   0  0  1  0  0  0  0  0  0  0  0  0
  152.7259  139.9491  154.8222 O   0  0  0  0  0  0  0  0  0  0  0  0
  152.6732  140.2556  158.1872 C   0  0  0  0  0  0  0  0  0  0  0  0
  153.5361  139.3913  158.3371 O   0  0  0  0  0  0  0  0  0  0  0  0
  152.7677  141.4571  158.8371 N   0  0  0  0  0  0  0  0  0  0  0  0
  151.8940  137.9841  157.1864 H   0  0  0  0  0  0  0  0  0  0  0  0
  150.0186  136.8856  155.2285 H   0  0  0  0  0  0  0  0  0  0  0  0
  150.8420  138.1721  153.3745 H   0  0  0  0  0  0  0  0  0  0  0  0
  152.5377  137.9219  154.9838 H   0  0  0  0  0  0  0  0  0  0  0  0
  152.8627  143.6791  159.9816 H   0  0  0  0  0  0  0  0  0  0  0  0
  151.3921  144.3171  159.2797 H   0  0  0  0  0  0  0  0  0  0  0  0
  149.9910  143.0288  157.6811 H   0  0  0  0  0  0  0  0  0  0  0  0
  149.7817  140.9450  156.5261 H   0  0  0  0  0  0  0  0  0  0  0  0
  147.7042  137.1732  155.3812 H   0  0  0  0  0  0  0  0  0  0  0  0
  147.7798  138.9213  155.4377 H   0  0  0  0  0  0  0  0  0  0  0  0
  148.2293  137.2446  153.2038 H   0  0  0  0  0  0  0  0  0  0  0  0
  149.6258  139.8934  153.1729 H   0  0  0  0  0  0  0  0  0  0  0  0
  152.1510  140.6287  154.5038 H   0  0  0  0  0  0  0  0  0  0  0  0
  1  2  1  0  0  0  0
  1 22  1  0  0  0  0
  1 23  1  0  0  0  0
  2 17  2  0  0  0  0
  2  3  1  0  0  0  0
  3  4  2  0  0  0  0
  3 24  1  0  0  0  0
  4  5  1  0  0  0  0
  4 25  1  0  0  0  0
  5  6  1  0  0  0  0
  5 15  1  0  0  0  0
  6 18  1  0  0  0  0
  6 13  1  0  0  0  0
  6  7  1  0  0  0  0
  7  8  1  0  0  0  0
  8 19  1  0  0  0  0
  8  9  1  0  0  0  0
  8 11  1  0  0  0  0
  9 10  1  0  0  0  0
  9 26  1  0  0  0  0
  9 27  1  0  0  0  0
 10 28  1  0  0  0  0
 11 20  1  0  0  0  0
 11 12  1  0  0  0  0
 11 13  1  0  0  0  0
 12 29  1  0  0  0  0
 13 21  1  0  0  0  0
 13 14  1  0  0  0  0
 14 30  1  0  0  0  0
 15 16  2  0  0  0  0
 15 17  1  0  0  0  0
M  END
> <s_m_source_file>
AV-unprocessed.smi

> <i_m_source_file_index>
53

> <i_lp_mmshare_version>
43012

> <i_f3d_flags>
0

> <s_epik_input>
W05IMl1jMVtjSF1bY0hdbihjKD1PKW4xKVtDQEBIXTJPW0NASF0oW0NIMl1bT0hdKVtDQEBIXShbT0hdKVtDQEBIXTJbT0hd

> <s_epik_cmdline>
J2VwaWtfcHl0aG9uJywgJy1waCcsICc3LjAnLCAnLXRuJywgJzgnLCAnLW1hJywgJzIwMCcsICctbWV0YWxfYmluZGluZycsICctaW1hZScsICc8aW5maWxlLm1hZT4nLCAnLW9tYWUnLCAnPG91dGZpbGUubWFlPic=

> <r_lp_tautomer_probability>
0.99996

> <r_epik_Ionization_Penalty>
0.00069087

> <r_epik_Ionization_Penalty_Charging>
2.61959e-08

> <r_epik_Ionization_Penalty_Neutral>
0.000690844

> <r_epik_State_Penalty>
1.15523e-05

> <r_epik_Charging_Adjusted_Penalty>
1.15785e-05

> <i_epik_Tot_Q>
0

> <i_epik_Tot_abs_Q>
0

> <r_epik_Metal_State_Penalty>
-0

> <b_epik_Metal_Only>
0

> <s_epik_Chemistry_Notes>
This compound contains an acetal/aminal-like group ( X-CH(R)-Y where X, Y are N, S, or O) that may be acid/base labile, releasing an aldehyde.

> <s_lp_Force_Field>
OPLS_2005

> <r_lp_Energy>
39.3068

> <b_lp_Chiralities_Consistent>
1

> <s_lp_Variant>
AV-unprocessed.smi:53-12

> <Gold.Version>
5.8.1

> <Gold.Id.Protein>
6NUR|6NUR_protein|mol2

> <Gold.PLP.Fitness>
37.5719

> <Gold.PLP.PLP>
-24.5979

> <Gold.PLP.part.hbond>
-6.1848

> <Gold.PLP.part.metal>
0.0000

> <Gold.PLP.part.buried>
-3.0269

> <Gold.PLP.part.nonpolar>
-14.9090

> <Gold.PLP.part.repulsive>
0.0380

> <Gold.PLP.ligand.clash>
0.0000

> <Gold.PLP.ligand.torsion>
0.9070

> <Gold.PLP.Chemscore.Hbond>
4.9280

> <Gold.PLP.Chemscore.CHOScore>
0.0000

> <Gold.PLP.Chemscore.Metal>
0.0000

> <Gold.Chemscore.Hbonds>
donor molecule, donor type, donor heavy atom, donor atom, acceptor molecule, acceptor atom, score
      L1  H    10    28       P1  7948  1.00
      L1  H    12    29       P1  7957  0.94
      P1  H  7989  7998       L1    12  0.94
      P1  H  7997  8008       L1    14  0.76
      P1  H  7997  8010       L1    16  0.94

> <Gold.PLP.Chemscore.Internal.Correction>
0.0040

> <Gold.Rescore>
     Score         DG    S(hbond)    S(metal)    S(lipo)     H(rot)  DE(clash)    DE(int)     intcor
     11.33     -12.50       3.73        0.00      34.68       3.71       0.06       1.11       ----

> <Gold.Chemscore.Fitness>
11.3315

> <Gold.Chemscore.DG>
-12.5032

> <Gold.Chemscore.ZeroCoef>
-5.4800

> <Gold.Chemscore.Hbond>
3.7313

> <Gold.Chemscore.Metal>
0.0000

> <Gold.Chemscore.Lipo>
34.6763

> <Gold.Chemscore.Internal_Hbond>
0.0000

> <Gold.Chemscore.DEClash>
0.0582

> <Gold.Chemscore.DEInternal>
1.1134

> <Gold.Chemscore.Rot>
3.7095

> <Gold.Chemscore.Internal.Correction>
   9.000000E+99

> <Gold.Chemscore.Hbonds>
donor molecule, donor type, donor heavy atom, donor atom, acceptor molecule, acceptor atom, score
      L1  H    10    28       P1  7948  0.95
      L1  H    12    29       P1  7957  0.86
      P1  H  7989  7998       L1    12  0.12
      P1  H  7997  8008       L1    14  0.70
      P1  H  7997  8010       L1    16  0.41

> <Gold.Chemscore.Hbond.Weighted>
-12.4624

> <Gold.Chemscore.Metal.Weighted>
-0.0000

> <Gold.Chemscore.Lipo.Weighted>
-4.0571

> <Gold.Chemscore.Internal_Hbond.Weighted>
0.0000

> <Gold.Chemscore.DEClash.Weighted>
0.0582

> <Gold.Chemscore.DEInternal.Weighted>
1.1134

> <Gold.Chemscore.Rot.Weighted>
9.4964

> <Gold.Chemscore.Internal.Correction.Weighted>
   9.000000E+99

> <Gold.Protein.RotatedTorsions>
[ 6907 6896 6895 6894 ] final   14.41 input  -60.11 | X-H torsion
[ 7974 7965 7964 7962 ] final   66.47 input  175.53 | X-H torsion
[ 8008 7997 7996 7995 ] final    6.02 input   59.86 | X-H torsion
[ 10167 10162 10161 10158 ] final   15.38 input  -65.29 | X-H torsion
[ 10718 10713 10712 10709 ] final  -89.87 input   66.30 | X-H torsion
[ 10763 10752 10751 10750 ] final   -8.06 input  -60.55 | X-H torsion
[ 11005 11000 10999 10996 ] final  -53.34 input  -57.11 | X-H torsion

> <Gold.Protein.ActiveResidues>
 VAL166  LYS551  ARG553  GLY616  TRP617  ASP618  TYR619  PRO620  LYS621  CYS622 
 ASP623  PHE694  ASN695  SER759  ASP760  ASP761  ALA762  ILE779  LEU786  VAL792 
 PHE793  MET794  SER795  GLU796  ALA797  LYS798  CYS799  TRP800  GLU811  SER814 

> <Gold.Protein.RotatedAtoms>
  151.8018  135.0706  160.0400 H   0  0  0  0  0  0  0  0  0  0  0  0  # atno 6907 bound_to 6896
  152.3084  133.5722  159.5672 H   0  0  0  0  0  0  0  0  0  0  0  0  # atno 6908 bound_to 6896
  150.7307  134.0105  159.3710 H   0  0  0  0  0  0  0  0  0  0  0  0  # atno 6909 bound_to 6896
  145.8262  139.3113  143.1014 H   0  0  0  0  0  0  0  0  0  0  0  0  # atno 7974 bound_to 7965
  154.7357  140.2739  155.6417 H   0  0  0  0  0  0  0  0  0  0  0  0  # atno 8008 bound_to 7997
  156.2861  140.2707  156.1996 H   0  0  0  0  0  0  0  0  0  0  0  0  # atno 8009 bound_to 7997
  155.0323  140.0371  157.2468 H   0  0  0  0  0  0  0  0  0  0  0  0  # atno 8010 bound_to 7997
  140.5871  143.8868  150.6840 H   0  0  0  0  0  0  0  0  0  0  0  0  # atno 10167 bound_to 10162
  155.9985  130.4888  150.5237 H   0  0  0  0  0  0  0  0  0  0  0  0  # atno 10718 bound_to 10713
  153.4352  135.7013  153.6205 H   0  0  0  0  0  0  0  0  0  0  0  0  # atno 10763 bound_to 10752
  153.4603  135.3738  155.2334 H   0  0  0  0  0  0  0  0  0  0  0  0  # atno 10764 bound_to 10752
  154.8726  135.4018  154.3742 H   0  0  0  0  0  0  0  0  0  0  0  0  # atno 10765 bound_to 10752
  141.0971  133.6623  156.4157 H   0  0  0  0  0  0  0  0  0  0  0  0  # atno 11005 bound_to 11000
  145.9620  140.8828  143.0206 LP  0  0  0  0  0  0  0  0  0  0  0  0  # atno 17320 bound_to 7965
  144.6743  140.1826  143.7404 LP  0  0  0  0  0  0  0  0  0  0  0  0  # atno 17321 bound_to 7965
  140.2382  143.3684  152.1509 LP  0  0  0  0  0  0  0  0  0  0  0  0  # atno 17342 bound_to 10162
  139.5204  144.7033  151.5430 LP  0  0  0  0  0  0  0  0  0  0  0  0  # atno 17343 bound_to 10162
  157.3195  131.0679  151.1942 LP  0  0  0  0  0  0  0  0  0  0  0  0  # atno 17370 bound_to 10713
  157.2861  130.6773  149.6090 LP  0  0  0  0  0  0  0  0  0  0  0  0  # atno 17371 bound_to 10713
  140.5114  134.6391  157.5286 LP  0  0  0  0  0  0  0  0  0  0  0  0  # atno 17394 bound_to 11000
  139.9810  134.7137  155.9859 LP  0  0  0  0  0  0  0  0  0  0  0  0  # atno 17395 bound_to 11000

$$$$
