AV-unprocessed.smi:3175|AV-procd|sdf|12123|dock8
  -GOLD-   2272017563D 1   1.00000     0.00000
 Structure written by MMmdl.
 38 39  0  0  0  0  0  0  0  0  2 V2000
  150.7261  141.9760  159.2983 O   0  0  0  0  0  0  0  0  0  0  0  0
  151.1587  142.6615  158.3720 C   0  0  0  0  0  0  0  0  0  0  0  0
  152.4043  143.5309  158.5695 C   0  0  0  0  0  0  0  0  0  0  0  0
  153.0975  143.3012  159.9283 C   0  0  0  0  0  0  0  0  0  0  0  0
  153.5097  141.8467  160.1626 C   0  0  0  0  0  0  0  0  0  0  0  0
  153.7396  141.7474  161.6731 C   0  0  0  0  0  0  0  0  0  0  0  0
  152.8493  142.8244  162.3112 C   0  0  0  0  0  0  0  0  0  0  0  0
  152.2299  143.6175  161.1533 C   0  0  0  0  0  0  0  0  0  0  0  0
  150.5823  142.7091  157.1614 N   0  0  0  0  0  0  0  0  0  0  0  0
  149.3927  141.9595  156.7676 C   0  0  0  0  0  0  0  0  0  0  0  0
  149.4176  141.5201  155.2901 C   0  0  0  0  0  0  0  0  0  0  0  0
  149.8910  140.0909  155.0894 C   0  0  0  0  0  0  0  0  0  0  0  0
  151.1417  139.6717  155.5941 C   0  0  0  0  0  0  0  0  0  0  0  0
  151.5593  138.3402  155.3885 C   0  0  0  0  0  0  0  0  0  0  0  0
  150.7163  137.4575  154.6827 C   0  0  0  0  0  0  0  0  0  0  0  0
  149.5262  137.8940  154.2149 N   0  3  0  0  0  0  0  0  0  0  0  0
  149.0899  139.1603  154.3919 C   0  0  0  0  0  0  0  0  0  0  0  0
  153.1116  143.3527  157.7578 H   0  0  0  0  0  0  0  0  0  0  0  0
  152.0997  144.5747  158.4871 H   0  0  0  0  0  0  0  0  0  0  0  0
  154.0004  143.9125  159.9815 H   0  0  0  0  0  0  0  0  0  0  0  0
  152.6981  141.1770  159.8741 H   0  0  0  0  0  0  0  0  0  0  0  0
  154.3923  141.5638  159.5882 H   0  0  0  0  0  0  0  0  0  0  0  0
  153.5156  140.7496  162.0514 H   0  0  0  0  0  0  0  0  0  0  0  0
  154.7856  141.9562  161.9017 H   0  0  0  0  0  0  0  0  0  0  0  0
  152.0741  142.3845  162.9394 H   0  0  0  0  0  0  0  0  0  0  0  0
  153.4499  143.4775  162.9455 H   0  0  0  0  0  0  0  0  0  0  0  0
  152.1812  144.6862  161.3654 H   0  0  0  0  0  0  0  0  0  0  0  0
  151.2094  143.2702  160.9848 H   0  0  0  0  0  0  0  0  0  0  0  0
  151.0059  143.2963  156.4575 H   0  0  0  0  0  0  0  0  0  0  0  0
  149.3375  141.0785  157.4074 H   0  0  0  0  0  0  0  0  0  0  0  0
  148.4952  142.5449  156.9742 H   0  0  0  0  0  0  0  0  0  0  0  0
  148.4204  141.6247  154.8609 H   0  0  0  0  0  0  0  0  0  0  0  0
  150.0604  142.1890  154.7163 H   0  0  0  0  0  0  0  0  0  0  0  0
  151.7754  140.3626  156.1311 H   0  0  0  0  0  0  0  0  0  0  0  0
  152.5126  138.0015  155.7669 H   0  0  0  0  0  0  0  0  0  0  0  0
  150.9561  136.4239  154.4800 H   0  0  0  0  0  0  0  0  0  0  0  0
  148.1228  139.3905  153.9683 H   0  0  0  0  0  0  0  0  0  0  0  0
  148.9311  137.2394  153.7064 H   0  0  0  0  0  0  0  0  0  0  0  0
  1  2  2  0  0  0  0
  2  3  1  0  0  0  0
  2  9  1  0  0  0  0
  3  4  1  0  0  0  0
  3 18  1  0  0  0  0
  3 19  1  0  0  0  0
  4  8  1  0  0  0  0
  4  5  1  0  0  0  0
  4 20  1  0  0  0  0
  5  6  1  0  0  0  0
  5 21  1  0  0  0  0
  5 22  1  0  0  0  0
  6  7  1  0  0  0  0
  6 23  1  0  0  0  0
  6 24  1  0  0  0  0
  7  8  1  0  0  0  0
  7 25  1  0  0  0  0
  7 26  1  0  0  0  0
  8 27  1  0  0  0  0
  8 28  1  0  0  0  0
  9 10  1  0  0  0  0
  9 29  1  0  0  0  0
 10 11  1  0  0  0  0
 10 30  1  0  0  0  0
 10 31  1  0  0  0  0
 11 12  1  0  0  0  0
 11 32  1  0  0  0  0
 11 33  1  0  0  0  0
 12 17  1  0  0  0  0
 12 13  2  0  0  0  0
 13 14  1  0  0  0  0
 13 34  1  0  0  0  0
 14 15  2  0  0  0  0
 14 35  1  0  0  0  0
 15 16  1  0  0  0  0
 15 36  1  0  0  0  0
 16 17  2  0  0  0  0
 16 38  1  0  0  0  0
 17 37  1  0  0  0  0
M  CHG  1  16   1
M  END
> <s_m_source_file>
AV-unprocessed.smi

> <i_m_source_file_index>
3175

> <i_lp_mmshare_version>
43012

> <i_f3d_flags>
0

> <s_epik_input>
W0NIMl0xW0NIMl1bQ0gyXVtDSDJdW0NIXTFbQ0gyXUMoPU8pW05IXVtDSDJdW0NIMl1jMltjSF1bY0hdW2NIXW5bY0hdMg==

> <s_epik_cmdline>
J2VwaWtfcHl0aG9uJywgJy1waCcsICc3LjAnLCAnLXRuJywgJzgnLCAnLW1hJywgJzIwMCcsICctbWV0YWxfYmluZGluZycsICctaW1hZScsICc8aW5maWxlLm1hZT4nLCAnLW9tYWUnLCAnPG91dGZpbGUubWFlPic=

> <r_epik_Ionization_Penalty>
2.25127

> <r_epik_Ionization_Penalty_Charging>
2.25127

> <r_epik_Ionization_Penalty_Neutral>
2.03742e-08

> <r_epik_State_Penalty>
2.39841

> <r_epik_Charging_Adjusted_Penalty>
4.64968

> <i_epik_Tot_Q>
1

> <i_epik_Tot_abs_Q>
1

> <r_epik_Metal_State_Penalty>
2.41158

> <b_epik_Metal_Only>
0

> <s_lp_Force_Field>
OPLS_2005

> <r_lp_Energy>
27.035

> <b_lp_Chiralities_Consistent>
1

> <s_lp_Variant>
AV-unprocessed.smi:3175-2

> <Gold.Version>
5.8.1

> <Gold.Id.Protein>
6NUR|6NUR_protein|mol2

> <Gold.PLP.Fitness>
51.6431

> <Gold.PLP.PLP>
-46.6405

> <Gold.PLP.part.hbond>
-2.8826

> <Gold.PLP.part.metal>
0.0000

> <Gold.PLP.part.buried>
-1.2353

> <Gold.PLP.part.nonpolar>
-42.2789

> <Gold.PLP.part.repulsive>
0.0774

> <Gold.PLP.ligand.clash>
0.0000

> <Gold.PLP.ligand.torsion>
0.5046

> <Gold.PLP.Chemscore.Hbond>
2.0000

> <Gold.PLP.Chemscore.CHOScore>
0.0000

> <Gold.PLP.Chemscore.Metal>
0.0000

> <Gold.Chemscore.Hbonds>
donor molecule, donor type, donor heavy atom, donor atom, acceptor molecule, acceptor atom, score
      L1  H    16    38       P1  7948  1.27

> <Gold.PLP.Chemscore.Internal.Correction>
0.0117

> <Gold.Rescore>
     Score         DG    S(hbond)    S(metal)    S(lipo)     H(rot)  DE(clash)    DE(int)     intcor
     15.50     -18.44       0.93        0.00     119.00       1.59       0.02       2.92       ----

> <Gold.Chemscore.Fitness>
15.4961

> <Gold.Chemscore.DG>
-18.4365

> <Gold.Chemscore.ZeroCoef>
-5.4800

> <Gold.Chemscore.Hbond>
0.9319

> <Gold.Chemscore.Metal>
0.0000

> <Gold.Chemscore.Lipo>
118.9988

> <Gold.Chemscore.Internal_Hbond>
0.0000

> <Gold.Chemscore.DEClash>
0.0197

> <Gold.Chemscore.DEInternal>
2.9207

> <Gold.Chemscore.Rot>
1.5933

> <Gold.Chemscore.Internal.Correction>
   9.000000E+99

> <Gold.Chemscore.Hbonds>
donor molecule, donor type, donor heavy atom, donor atom, acceptor molecule, acceptor atom, score
      L1  H    16    38       P1  7948  0.60

> <Gold.Chemscore.Hbond.Weighted>
-3.1126

> <Gold.Chemscore.Metal.Weighted>
-0.0000

> <Gold.Chemscore.Lipo.Weighted>
-13.9229

> <Gold.Chemscore.Internal_Hbond.Weighted>
0.0000

> <Gold.Chemscore.DEClash.Weighted>
0.0197

> <Gold.Chemscore.DEInternal.Weighted>
2.9207

> <Gold.Chemscore.Rot.Weighted>
4.0789

> <Gold.Chemscore.Internal.Correction.Weighted>
   9.000000E+99

> <Gold.Protein.RotatedTorsions>
[ 6907 6896 6895 6894 ] final  -16.81 input  -60.11 | X-H torsion
[ 7974 7965 7964 7962 ] final  -56.42 input  175.53 | X-H torsion
[ 8008 7997 7996 7995 ] final -108.23 input   59.86 | X-H torsion
[ 10167 10162 10161 10158 ] final  132.14 input  -65.29 | X-H torsion
[ 10718 10713 10712 10709 ] final   88.85 input   66.30 | X-H torsion
[ 10763 10752 10751 10750 ] final -128.76 input  -60.55 | X-H torsion
[ 11005 11000 10999 10996 ] final   10.44 input  -57.11 | X-H torsion

> <Gold.Protein.ActiveResidues>
 VAL166  LYS551  ARG553  GLY616  TRP617  ASP618  TYR619  PRO620  LYS621  CYS622 
 ASP623  PHE694  ASN695  SER759  ASP760  ASP761  ALA762  ILE779  LEU786  VAL792 
 PHE793  MET794  SER795  GLU796  ALA797  LYS798  CYS799  TRP800  GLU811  SER814 

> <Gold.Protein.RotatedAtoms>
  151.3029  135.0773  159.9244 H   0  0  0  0  0  0  0  0  0  0  0  0  # atno 6907 bound_to 6896
  152.5294  133.9815  159.7819 H   0  0  0  0  0  0  0  0  0  0  0  0  # atno 6908 bound_to 6896
  151.0104  133.5919  159.2714 H   0  0  0  0  0  0  0  0  0  0  0  0  # atno 6909 bound_to 6896
  145.8628  140.8273  142.9928 H   0  0  0  0  0  0  0  0  0  0  0  0  # atno 7974 bound_to 7965
  154.9412  140.0403  157.2097 H   0  0  0  0  0  0  0  0  0  0  0  0  # atno 8008 bound_to 7997
  154.8067  140.2861  155.5860 H   0  0  0  0  0  0  0  0  0  0  0  0  # atno 8009 bound_to 7997
  156.2967  140.2544  156.2947 H   0  0  0  0  0  0  0  0  0  0  0  0  # atno 8010 bound_to 7997
  139.5352  144.6675  151.4809 H   0  0  0  0  0  0  0  0  0  0  0  0  # atno 10167 bound_to 10162
  157.6952  131.0310  150.3337 H   0  0  0  0  0  0  0  0  0  0  0  0  # atno 10718 bound_to 10713
  154.8757  135.3918  154.3809 H   0  0  0  0  0  0  0  0  0  0  0  0  # atno 10763 bound_to 10752
  153.4557  135.7028  153.6086 H   0  0  0  0  0  0  0  0  0  0  0  0  # atno 10764 bound_to 10752
  153.4607  135.3812  155.2305 H   0  0  0  0  0  0  0  0  0  0  0  0  # atno 10765 bound_to 10752
  140.5144  134.0620  155.7827 H   0  0  0  0  0  0  0  0  0  0  0  0  # atno 11005 bound_to 11000
  144.6726  140.1122  143.7455 LP  0  0  0  0  0  0  0  0  0  0  0  0  # atno 17320 bound_to 7965
  145.9228  139.2556  143.1371 LP  0  0  0  0  0  0  0  0  0  0  0  0  # atno 17321 bound_to 7965
  140.6555  143.8608  150.6830 LP  0  0  0  0  0  0  0  0  0  0  0  0  # atno 17342 bound_to 10162
  140.1986  143.3977  152.1808 LP  0  0  0  0  0  0  0  0  0  0  0  0  # atno 17343 bound_to 10162
  156.3807  130.3880  149.7104 LP  0  0  0  0  0  0  0  0  0  0  0  0  # atno 17370 bound_to 10713
  156.4487  130.7896  151.2917 LP  0  0  0  0  0  0  0  0  0  0  0  0  # atno 17371 bound_to 10713
  141.1368  133.9208  157.2416 LP  0  0  0  0  0  0  0  0  0  0  0  0  # atno 17394 bound_to 11000
  139.9640  135.0147  156.9338 LP  0  0  0  0  0  0  0  0  0  0  0  0  # atno 17395 bound_to 11000

$$$$
