AV-unprocessed.smi:1699|AV-procd|sdf|6817|dock2
  -GOLD-   22720 7593D 1   1.00000     0.00000
 Structure written by MMmdl.
 37 38  0  0  0  0  0  0  0  0  1 V2000
  147.6989  132.9933  152.6056 C   0  0  0  0  0  0  0  0  0  0  0  0
  146.3432  132.9448  151.9192 C   0  0  0  0  0  0  0  0  0  0  0  0
  145.7608  131.6927  151.6282 C   0  0  0  0  0  0  0  0  0  0  0  0
  144.5067  131.6502  150.9954 C   0  0  0  0  0  0  0  0  0  0  0  0
  143.8839  132.8695  150.6787 C   0  0  0  0  0  0  0  0  0  0  0  0
  144.4335  134.0702  150.9521 N   0  0  0  0  0  0  0  0  0  0  0  0
  145.6440  134.1291  151.5625 C   0  0  0  0  0  0  0  0  0  0  0  0
  146.2870  135.3597  151.8765 N   0  0  0  0  0  0  0  0  0  0  0  0
  145.7277  136.5487  152.1622 C   0  0  0  0  0  0  0  0  0  0  0  0
  144.5183  136.7709  152.2244 O   0  0  0  0  0  0  0  0  0  0  0  0
  146.6667  137.4814  152.3819 N   0  0  0  0  0  0  0  0  0  0  0  0
  146.4159  138.8752  152.7418 C   0  0  2  0  0  0  0  0  0  0  0  0
  146.7800  139.7630  151.5419 C   0  0  0  0  0  0  0  0  0  0  0  0
  147.2220  139.2392  154.0055 C   0  0  1  0  0  0  0  0  0  0  0  0
  148.7262  138.9794  153.9049 C   0  0  0  0  0  0  0  0  0  0  0  0
  149.3311  139.9597  154.8987 C   0  0  0  0  0  0  0  0  0  0  0  0
  148.1893  140.9316  155.2069 C   0  0  0  0  0  0  0  0  0  0  0  0
  147.1869  140.6379  154.2453 O   0  0  0  0  0  0  0  0  0  0  0  0
  148.0796  131.9911  152.8044 H   0  0  0  0  0  0  0  0  0  0  0  0
  147.6251  133.5190  153.5580 H   0  0  0  0  0  0  0  0  0  0  0  0
  148.4264  133.5102  151.9792 H   0  0  0  0  0  0  0  0  0  0  0  0
  146.2666  130.7739  151.8859 H   0  0  0  0  0  0  0  0  0  0  0  0
  144.0347  130.7082  150.7592 H   0  0  0  0  0  0  0  0  0  0  0  0
  142.9196  132.8824  150.1926 H   0  0  0  0  0  0  0  0  0  0  0  0
  147.2955  135.3298  151.8803 H   0  0  0  0  0  0  0  0  0  0  0  0
  147.6341  137.2029  152.3106 H   0  0  0  0  0  0  0  0  0  0  0  0
  145.3534  139.0184  152.9474 H   0  0  0  0  0  0  0  0  0  0  0  0
  146.5548  140.8112  151.7399 H   0  0  0  0  0  0  0  0  0  0  0  0
  146.2157  139.4728  150.6550 H   0  0  0  0  0  0  0  0  0  0  0  0
  147.8411  139.6905  151.3006 H   0  0  0  0  0  0  0  0  0  0  0  0
  146.8150  138.7238  154.8780 H   0  0  0  0  0  0  0  0  0  0  0  0
  148.9894  137.9434  154.1201 H   0  0  0  0  0  0  0  0  0  0  0  0
  149.0832  139.2145  152.9012 H   0  0  0  0  0  0  0  0  0  0  0  0
  149.6650  139.4571  155.8073 H   0  0  0  0  0  0  0  0  0  0  0  0
  150.1891  140.4727  154.4630 H   0  0  0  0  0  0  0  0  0  0  0  0
  147.7900  140.7506  156.2060 H   0  0  0  0  0  0  0  0  0  0  0  0
  148.4983  141.9753  155.1472 H   0  0  0  0  0  0  0  0  0  0  0  0
  1  2  1  0  0  0  0
  1 19  1  0  0  0  0
  1 20  1  0  0  0  0
  1 21  1  0  0  0  0
  2  7  1  0  0  0  0
  2  3  2  0  0  0  0
  3  4  1  0  0  0  0
  3 22  1  0  0  0  0
  4  5  2  0  0  0  0
  4 23  1  0  0  0  0
  5  6  1  0  0  0  0
  5 24  1  0  0  0  0
  6  7  2  0  0  0  0
  7  8  1  0  0  0  0
  8  9  1  0  0  0  0
  8 25  1  0  0  0  0
  9 10  2  0  0  0  0
  9 11  1  0  0  0  0
 11 12  1  0  0  0  0
 11 26  1  0  0  0  0
 12 13  1  0  0  0  0
 12 14  1  0  0  0  0
 12 27  1  0  0  0  0
 13 28  1  0  0  0  0
 13 29  1  0  0  0  0
 13 30  1  0  0  0  0
 14 18  1  0  0  0  0
 14 15  1  0  0  0  0
 14 31  1  0  0  0  0
 15 16  1  0  0  0  0
 15 32  1  0  0  0  0
 15 33  1  0  0  0  0
 16 17  1  0  0  0  0
 16 34  1  0  0  0  0
 16 35  1  0  0  0  0
 17 18  1  0  0  0  0
 17 36  1  0  0  0  0
 17 37  1  0  0  0  0
M  END
> <s_m_source_file>
AV-unprocessed.smi

> <i_m_source_file_index>
1699

> <i_lp_mmshare_version>
43012

> <i_f3d_flags>
0

> <s_epik_input>
W0NIM11jMVtjSF1bY0hdW2NIXW5jMVtOSF1DKD1PKVtOSF1bQ0BIXShbQ0gzXSlbQ0BASF0yW0NIMl1bQ0gyXVtDSDJdTzI=

> <s_epik_cmdline>
J2VwaWtfcHl0aG9uJywgJy1waCcsICc3LjAnLCAnLXRuJywgJzgnLCAnLW1hJywgJzIwMCcsICctbWV0YWxfYmluZGluZycsICctaW1hZScsICc8aW5maWxlLm1hZT4nLCAnLW9tYWUnLCAnPG91dGZpbGUubWFlPic=

> <r_lp_tautomer_probability>
1

> <r_epik_Ionization_Penalty>
5.52788e-05

> <r_epik_Ionization_Penalty_Charging>
0

> <r_epik_Ionization_Penalty_Neutral>
5.52788e-05

> <r_epik_State_Penalty>
-0

> <r_epik_Charging_Adjusted_Penalty>
0

> <i_epik_Tot_Q>
0

> <i_epik_Tot_abs_Q>
0

> <r_epik_Metal_State_Penalty>
-0

> <b_epik_Metal_Only>
0

> <s_lp_Force_Field>
OPLS_2005

> <r_lp_Energy>
21.1127

> <b_lp_Chiralities_Consistent>
1

> <s_lp_Variant>
AV-unprocessed.smi:1699-3

> <Gold.Version>
5.8.1

> <Gold.Id.Protein>
6NUR|6NUR_protein|mol2

> <Gold.PLP.Fitness>
37.9149

> <Gold.PLP.PLP>
-29.5587

> <Gold.PLP.part.hbond>
-2.0000

> <Gold.PLP.part.metal>
0.0000

> <Gold.PLP.part.buried>
-0.1648

> <Gold.PLP.part.nonpolar>
-28.8357

> <Gold.PLP.part.repulsive>
0.7979

> <Gold.PLP.ligand.clash>
0.0000

> <Gold.PLP.ligand.torsion>
0.3348

> <Gold.PLP.Chemscore.Hbond>
2.0000

> <Gold.PLP.Chemscore.CHOScore>
0.9993

> <Gold.PLP.Chemscore.Metal>
0.0000

> <Gold.Chemscore.Hbonds>
donor molecule, donor type, donor heavy atom, donor atom, acceptor molecule, acceptor atom, score
      L1  H     8    25       P1  7948  1.00
      L1  H    11    26       P1  7948  1.00
      L1  C     5    24       P1 10186  0.99

> <Gold.PLP.Chemscore.Internal.Correction>
0.0279

> <Gold.Rescore>
     Score         DG    S(hbond)    S(metal)    S(lipo)     H(rot)  DE(clash)    DE(int)     intcor
     15.43     -17.49       1.97        0.00      73.15       1.22       0.78       1.28       ----

> <Gold.Chemscore.Fitness>
15.4297

> <Gold.Chemscore.DG>
-17.4924

> <Gold.Chemscore.ZeroCoef>
-5.4800

> <Gold.Chemscore.Hbond>
1.9691

> <Gold.Chemscore.Metal>
0.0000

> <Gold.Chemscore.Lipo>
73.1505

> <Gold.Chemscore.Internal_Hbond>
0.0000

> <Gold.Chemscore.DEClash>
0.7820

> <Gold.Chemscore.DEInternal>
1.2806

> <Gold.Chemscore.Rot>
1.2200

> <Gold.Chemscore.Internal.Correction>
   9.000000E+99

> <Gold.Chemscore.Hbonds>
donor molecule, donor type, donor heavy atom, donor atom, acceptor molecule, acceptor atom, score
      L1  H     8    25       P1  7948  0.94
      L1  H    11    26       P1  7948  0.99

> <Gold.Chemscore.Hbond.Weighted>
-6.5769

> <Gold.Chemscore.Metal.Weighted>
-0.0000

> <Gold.Chemscore.Lipo.Weighted>
-8.5586

> <Gold.Chemscore.Internal_Hbond.Weighted>
0.0000

> <Gold.Chemscore.DEClash.Weighted>
0.7820

> <Gold.Chemscore.DEInternal.Weighted>
1.2806

> <Gold.Chemscore.Rot.Weighted>
3.1232

> <Gold.Chemscore.Internal.Correction.Weighted>
   9.000000E+99

> <Gold.Protein.RotatedTorsions>
[ 6907 6896 6895 6894 ] final  148.60 input  -60.11 | X-H torsion
[ 7974 7965 7964 7962 ] final  -71.69 input  175.53 | X-H torsion
[ 8008 7997 7996 7995 ] final  117.25 input   59.86 | X-H torsion
[ 10167 10162 10161 10158 ] final   23.25 input  -65.29 | X-H torsion
[ 10718 10713 10712 10709 ] final   97.34 input   66.30 | X-H torsion
[ 10763 10752 10751 10750 ] final  144.11 input  -60.55 | X-H torsion
[ 11005 11000 10999 10996 ] final -148.18 input  -57.11 | X-H torsion

> <Gold.Protein.ActiveResidues>
 VAL166  LYS551  ARG553  GLY616  TRP617  ASP618  TYR619  PRO620  LYS621  CYS622 
 ASP623  PHE694  ASN695  SER759  ASP760  ASP761  ALA762  ILE779  LEU786  VAL792 
 PHE793  MET794  SER795  GLU796  ALA797  LYS798  CYS799  TRP800  GLU811  SER814 

> <Gold.Protein.RotatedAtoms>
  152.1393  133.4454  159.4758 H   0  0  0  0  0  0  0  0  0  0  0  0  # atno 6907 bound_to 6896
  150.6884  134.2324  159.4449 H   0  0  0  0  0  0  0  0  0  0  0  0  # atno 6908 bound_to 6896
  152.0214  134.9820  160.0621 H   0  0  0  0  0  0  0  0  0  0  0  0  # atno 6909 bound_to 6896
  145.6748  140.9208  143.0863 H   0  0  0  0  0  0  0  0  0  0  0  0  # atno 7974 bound_to 7965
  156.2484  140.2900  156.0649 H   0  0  0  0  0  0  0  0  0  0  0  0  # atno 8008 bound_to 7997
  155.1734  140.0402  157.2885 H   0  0  0  0  0  0  0  0  0  0  0  0  # atno 8009 bound_to 7997
  154.6309  140.2499  155.7441 H   0  0  0  0  0  0  0  0  0  0  0  0  # atno 8010 bound_to 7997
  140.5284  143.9884  150.6452 H   0  0  0  0  0  0  0  0  0  0  0  0  # atno 10167 bound_to 10162
  157.6914  131.0606  150.4628 H   0  0  0  0  0  0  0  0  0  0  0  0  # atno 10718 bound_to 10713
  153.9835  135.2939  155.3418 H   0  0  0  0  0  0  0  0  0  0  0  0  # atno 10763 bound_to 10752
  154.7255  135.5090  153.8883 H   0  0  0  0  0  0  0  0  0  0  0  0  # atno 10764 bound_to 10752
  153.0843  135.6688  154.0096 H   0  0  0  0  0  0  0  0  0  0  0  0  # atno 10765 bound_to 10752
  140.7639  134.3267  157.5094 H   0  0  0  0  0  0  0  0  0  0  0  0  # atno 11005 bound_to 11000
  144.7045  139.8620  143.7434 LP  0  0  0  0  0  0  0  0  0  0  0  0  # atno 17320 bound_to 7965
  146.1014  139.4010  143.0344 LP  0  0  0  0  0  0  0  0  0  0  0  0  # atno 17321 bound_to 7965
  140.3252  143.3112  152.0743 LP  0  0  0  0  0  0  0  0  0  0  0  0  # atno 17342 bound_to 10162
  139.4946  144.6547  151.6599 LP  0  0  0  0  0  0  0  0  0  0  0  0  # atno 17343 bound_to 10162
  156.4971  130.4108  149.6373 LP  0  0  0  0  0  0  0  0  0  0  0  0  # atno 17370 bound_to 10713
  156.3362  130.7358  151.2296 LP  0  0  0  0  0  0  0  0  0  0  0  0  # atno 17371 bound_to 10713
  139.8766  134.9219  156.3287 LP  0  0  0  0  0  0  0  0  0  0  0  0  # atno 17394 bound_to 11000
  140.9637  133.7372  156.0437 LP  0  0  0  0  0  0  0  0  0  0  0  0  # atno 17395 bound_to 11000

$$$$
