AV-unprocessed.smi:1898|AV-procd|sdf|7700|dock8
  -GOLD-   22720 9433D 1   1.00000     0.00000
 Structure written by MMmdl.
 46 47  0  0  0  0  0  0  0  0  1 V2000
  146.7114  134.6146  154.2604 C   0  0  0  0  0  0  0  0  0  0  0  0
  146.8403  135.9760  153.7649 N   0  0  0  0  0  0  0  0  0  0  0  0
  145.8593  136.8894  153.8041 C   0  0  0  0  0  0  0  0  0  0  0  0
  144.7462  136.6668  154.2796 O   0  0  0  0  0  0  0  0  0  0  0  0
  146.1829  138.2702  153.2210 C   0  0  0  0  0  0  0  0  0  0  0  0
  147.0758  139.1064  154.0579 N   0  0  0  0  0  0  0  0  0  0  0  0
  146.2598  139.9214  154.9645 C   0  0  0  0  0  0  0  0  0  0  0  0
  147.1503  140.7173  155.9353 C   0  0  0  0  0  0  0  0  0  0  0  0
  148.1308  141.6200  155.1740 C   0  0  0  0  0  0  0  0  0  0  0  0
  149.0366  142.2768  156.1121 N   0  0  0  0  0  0  0  0  0  0  0  0
  149.9068  141.6474  156.9144 C   0  0  0  0  0  0  0  0  0  0  0  0
  150.0403  140.4241  156.9434 O   0  0  0  0  0  0  0  0  0  0  0  0
  150.5813  142.5225  157.6790 N   0  0  0  0  0  0  0  0  0  0  0  0
  151.5649  142.2615  158.6729 C   0  0  0  0  0  0  0  0  0  0  0  0
  152.1390  140.9861  158.8957 C   0  0  0  0  0  0  0  0  0  0  0  0
  153.1183  140.8430  159.8959 C   0  0  0  0  0  0  0  0  0  0  0  0
  153.4957  141.9808  160.6319 C   0  0  0  0  0  0  0  0  0  0  0  0
  152.9691  143.2045  160.4216 N   0  0  0  0  0  0  0  0  0  0  0  0
  152.0241  143.3450  159.4579 C   0  0  0  0  0  0  0  0  0  0  0  0
  151.4891  144.6007  159.2409 O   0  0  0  0  0  0  0  0  0  0  0  0
  151.9096  145.6729  160.0773 C   0  0  0  0  0  0  0  0  0  0  0  0
  148.9104  140.7634  154.1631 C   0  0  0  0  0  0  0  0  0  0  0  0
  147.9579  139.9665  153.2549 C   0  0  0  0  0  0  0  0  0  0  0  0
  147.6445  134.0726  154.1082 H   0  0  0  0  0  0  0  0  0  0  0  0
  145.9191  134.0838  153.7312 H   0  0  0  0  0  0  0  0  0  0  0  0
  146.4826  134.6085  155.3268 H   0  0  0  0  0  0  0  0  0  0  0  0
  147.7247  136.2403  153.3546 H   0  0  0  0  0  0  0  0  0  0  0  0
  146.6234  138.1401  152.2306 H   0  0  0  0  0  0  0  0  0  0  0  0
  145.2345  138.7884  153.0719 H   0  0  0  0  0  0  0  0  0  0  0  0
  145.6222  140.6005  154.3954 H   0  0  0  0  0  0  0  0  0  0  0  0
  145.5974  139.2767  155.5440 H   0  0  0  0  0  0  0  0  0  0  0  0
  146.5260  141.3194  156.5967 H   0  0  0  0  0  0  0  0  0  0  0  0
  147.6989  140.0238  156.5746 H   0  0  0  0  0  0  0  0  0  0  0  0
  147.5571  142.3776  154.6365 H   0  0  0  0  0  0  0  0  0  0  0  0
  148.9912  143.2843  156.1576 H   0  0  0  0  0  0  0  0  0  0  0  0
  150.3049  143.4900  157.5943 H   0  0  0  0  0  0  0  0  0  0  0  0
  151.8612  140.1211  158.3143 H   0  0  0  0  0  0  0  0  0  0  0  0
  153.5735  139.8831  160.0900 H   0  0  0  0  0  0  0  0  0  0  0  0
  154.2453  141.9076  161.4058 H   0  0  0  0  0  0  0  0  0  0  0  0
  151.4052  146.5887  159.7696 H   0  0  0  0  0  0  0  0  0  0  0  0
  152.9839  145.8450  159.9965 H   0  0  0  0  0  0  0  0  0  0  0  0
  151.6531  145.4888  161.1215 H   0  0  0  0  0  0  0  0  0  0  0  0
  149.5538  141.3956  153.5502 H   0  0  0  0  0  0  0  0  0  0  0  0
  149.5699  140.0721  154.6901 H   0  0  0  0  0  0  0  0  0  0  0  0
  148.5656  139.3741  152.5712 H   0  0  0  0  0  0  0  0  0  0  0  0
  147.3638  140.6454  152.6404 H   0  0  0  0  0  0  0  0  0  0  0  0
  1  2  1  0  0  0  0
  1 24  1  0  0  0  0
  1 25  1  0  0  0  0
  1 26  1  0  0  0  0
  2  3  1  0  0  0  0
  2 27  1  0  0  0  0
  3  4  2  0  0  0  0
  3  5  1  0  0  0  0
  5  6  1  0  0  0  0
  5 28  1  0  0  0  0
  5 29  1  0  0  0  0
  6 23  1  0  0  0  0
  6  7  1  0  0  0  0
  7  8  1  0  0  0  0
  7 30  1  0  0  0  0
  7 31  1  0  0  0  0
  8  9  1  0  0  0  0
  8 32  1  0  0  0  0
  8 33  1  0  0  0  0
  9 10  1  0  0  0  0
  9 22  1  0  0  0  0
  9 34  1  0  0  0  0
 10 11  1  0  0  0  0
 10 35  1  0  0  0  0
 11 12  2  0  0  0  0
 11 13  1  0  0  0  0
 13 14  1  0  0  0  0
 13 36  1  0  0  0  0
 14 19  1  0  0  0  0
 14 15  2  0  0  0  0
 15 16  1  0  0  0  0
 15 37  1  0  0  0  0
 16 17  2  0  0  0  0
 16 38  1  0  0  0  0
 17 18  1  0  0  0  0
 17 39  1  0  0  0  0
 18 19  2  0  0  0  0
 19 20  1  0  0  0  0
 20 21  1  0  0  0  0
 21 40  1  0  0  0  0
 21 41  1  0  0  0  0
 21 42  1  0  0  0  0
 22 23  1  0  0  0  0
 22 43  1  0  0  0  0
 22 44  1  0  0  0  0
 23 45  1  0  0  0  0
 23 46  1  0  0  0  0
M  END
> <s_m_source_file>
AV-unprocessed.smi

> <i_m_source_file_index>
1898

> <i_lp_mmshare_version>
43012

> <i_f3d_flags>
0

> <s_epik_input>
W0NIM11bTkhdQyg9TylbQ0gyXU4xW0NIMl1bQ0gyXVtDSF0oW0NIMl1bQ0gyXTEpW05IXUMoPU8pW05IXWMyW2NIXVtjSF1bY0hdbmMyT1tDSDNd

> <s_epik_cmdline>
J2VwaWtfcHl0aG9uJywgJy1waCcsICc3LjAnLCAnLXRuJywgJzgnLCAnLW1hJywgJzIwMCcsICctbWV0YWxfYmluZGluZycsICctaW1hZScsICc8aW5maWxlLm1hZT4nLCAnLW9tYWUnLCAnPG91dGZpbGUubWFlPic=

> <r_lp_tautomer_probability>
1

> <r_epik_Ionization_Penalty>
0.16483

> <r_epik_Ionization_Penalty_Charging>
0

> <r_epik_Ionization_Penalty_Neutral>
0.16483

> <r_epik_State_Penalty>
0.154069

> <r_epik_Charging_Adjusted_Penalty>
0.154069

> <i_epik_Tot_Q>
0

> <i_epik_Tot_abs_Q>
0

> <r_epik_Metal_State_Penalty>
0.158584

> <b_epik_Metal_Only>
0

> <s_lp_Force_Field>
OPLS_2005

> <r_lp_Energy>
15.9116

> <b_lp_Chiralities_Consistent>
1

> <s_lp_Variant>
AV-unprocessed.smi:1898-1

> <Gold.Version>
5.8.1

> <Gold.Id.Protein>
6NUR|6NUR_protein|mol2

> <Gold.PLP.Fitness>
37.8960

> <Gold.PLP.PLP>
-33.1699

> <Gold.PLP.part.hbond>
-1.8228

> <Gold.PLP.part.metal>
0.0000

> <Gold.PLP.part.buried>
-2.0483

> <Gold.PLP.part.nonpolar>
-29.5661

> <Gold.PLP.part.repulsive>
0.4212

> <Gold.PLP.ligand.clash>
0.0000

> <Gold.PLP.ligand.torsion>
0.6039

> <Gold.PLP.Chemscore.Hbond>
1.9750

> <Gold.PLP.Chemscore.CHOScore>
0.0000

> <Gold.PLP.Chemscore.Metal>
0.0000

> <Gold.Chemscore.Hbonds>
donor molecule, donor type, donor heavy atom, donor atom, acceptor molecule, acceptor atom, score
      L1  H     2    27       P1  7948  1.00
      L1  H    10    35       P1  8028  0.98

> <Gold.PLP.Chemscore.Internal.Correction>
0.0089

> <Gold.Rescore>
     Score         DG    S(hbond)    S(metal)    S(lipo)     H(rot)  DE(clash)    DE(int)     intcor
     12.86     -19.05       2.61        0.00      84.35       1.96       3.31       2.89       ----

> <Gold.Chemscore.Fitness>
12.8554

> <Gold.Chemscore.DG>
-19.0477

> <Gold.Chemscore.ZeroCoef>
-5.4800

> <Gold.Chemscore.Hbond>
2.6129

> <Gold.Chemscore.Metal>
0.0000

> <Gold.Chemscore.Lipo>
84.3544

> <Gold.Chemscore.Internal_Hbond>
0.0000

> <Gold.Chemscore.DEClash>
3.3067

> <Gold.Chemscore.DEInternal>
2.8856

> <Gold.Chemscore.Rot>
1.9645

> <Gold.Chemscore.Internal.Correction>
   9.000000E+99

> <Gold.Chemscore.Hbonds>
donor molecule, donor type, donor heavy atom, donor atom, acceptor molecule, acceptor atom, score
      L1  H     2    27       P1  7948  0.94
      L1  H    10    35       P1  8028  0.90

> <Gold.Chemscore.Hbond.Weighted>
-8.7272

> <Gold.Chemscore.Metal.Weighted>
-0.0000

> <Gold.Chemscore.Lipo.Weighted>
-9.8695

> <Gold.Chemscore.Internal_Hbond.Weighted>
0.0000

> <Gold.Chemscore.DEClash.Weighted>
3.3067

> <Gold.Chemscore.DEInternal.Weighted>
2.8856

> <Gold.Chemscore.Rot.Weighted>
5.0290

> <Gold.Chemscore.Internal.Correction.Weighted>
   9.000000E+99

> <Gold.Protein.RotatedTorsions>
[ 6907 6896 6895 6894 ] final   40.53 input  -60.11 | X-H torsion
[ 7974 7965 7964 7962 ] final -134.15 input  175.53 | X-H torsion
[ 8008 7997 7996 7995 ] final -114.21 input   59.86 | X-H torsion
[ 10167 10162 10161 10158 ] final  135.20 input  -65.29 | X-H torsion
[ 10718 10713 10712 10709 ] final -118.86 input   66.30 | X-H torsion
[ 10763 10752 10751 10750 ] final -103.94 input  -60.55 | X-H torsion
[ 11005 11000 10999 10996 ] final  -88.08 input  -57.11 | X-H torsion

> <Gold.Protein.ActiveResidues>
 VAL166  LYS551  ARG553  GLY616  TRP617  ASP618  TYR619  PRO620  LYS621  CYS622 
 ASP623  PHE694  ASN695  SER759  ASP760  ASP761  ALA762  ILE779  LEU786  VAL792 
 PHE793  MET794  SER795  GLU796  ALA797  LYS798  CYS799  TRP800  GLU811  SER814 

> <Gold.Protein.RotatedAtoms>
  152.1837  134.8732  160.0523 H   0  0  0  0  0  0  0  0  0  0  0  0  # atno 6907 bound_to 6896
  151.9647  133.3701  159.4056 H   0  0  0  0  0  0  0  0  0  0  0  0  # atno 6908 bound_to 6896
  150.6922  134.4127  159.5213 H   0  0  0  0  0  0  0  0  0  0  0  0  # atno 6909 bound_to 6896
  144.9128  140.6917  143.5014 H   0  0  0  0  0  0  0  0  0  0  0  0  # atno 7974 bound_to 7965
  155.0328  140.0393  157.2480 H   0  0  0  0  0  0  0  0  0  0  0  0  # atno 8008 bound_to 7997
  154.7282  140.2725  155.6456 H   0  0  0  0  0  0  0  0  0  0  0  0  # atno 8009 bound_to 7997
  156.2834  140.2689  156.1974 H   0  0  0  0  0  0  0  0  0  0  0  0  # atno 8010 bound_to 7997
  139.5226  144.6529  151.5249 H   0  0  0  0  0  0  0  0  0  0  0  0  # atno 10167 bound_to 10162
  156.1138  130.6269  150.9344 H   0  0  0  0  0  0  0  0  0  0  0  0  # atno 10718 bound_to 10713
  154.7843  135.4805  153.9912 H   0  0  0  0  0  0  0  0  0  0  0  0  # atno 10763 bound_to 10752
  153.1538  135.6796  153.8850 H   0  0  0  0  0  0  0  0  0  0  0  0  # atno 10764 bound_to 10752
  153.8486  135.3170  155.3409 H   0  0  0  0  0  0  0  0  0  0  0  0  # atno 10765 bound_to 10752
  141.1607  133.7549  156.9400 H   0  0  0  0  0  0  0  0  0  0  0  0  # atno 11005 bound_to 11000
  145.3425  139.1728  143.4478 LP  0  0  0  0  0  0  0  0  0  0  0  0  # atno 17320 bound_to 7965
  146.3167  140.3468  142.8652 LP  0  0  0  0  0  0  0  0  0  0  0  0  # atno 17321 bound_to 7965
  140.6342  143.9017  150.6632 LP  0  0  0  0  0  0  0  0  0  0  0  0  # atno 17342 bound_to 10162
  140.2331  143.3720  152.1549 LP  0  0  0  0  0  0  0  0  0  0  0  0  # atno 17343 bound_to 10162
  157.6320  131.0920  150.8422 LP  0  0  0  0  0  0  0  0  0  0  0  0  # atno 17370 bound_to 10713
  156.8529  130.5086  149.5310 LP  0  0  0  0  0  0  0  0  0  0  0  0  # atno 17371 bound_to 10713
  140.1328  134.9344  157.2361 LP  0  0  0  0  0  0  0  0  0  0  0  0  # atno 17394 bound_to 11000
  140.2932  134.3217  155.7309 LP  0  0  0  0  0  0  0  0  0  0  0  0  # atno 17395 bound_to 11000

$$$$
