AV-unprocessed.smi:828|AV-procd|sdf|3863|dock8
  -GOLD-   22720 1313D 1   1.00000     0.00000
 Structure written by MMmdl.
 34 35  0  0  0  0  0  0  0  0  3 V2000
  146.9268  133.8521  162.4567 C   0  0  0  0  0  0  0  0  0  0  0  0
  147.2132  135.0417  161.6061 C   0  0  0  0  0  0  0  0  0  0  0  0
  147.4209  136.2588  162.1143 N   0  0  0  0  0  0  0  0  0  0  0  0
  147.6704  137.2017  161.1277 N   0  0  0  0  0  0  0  0  0  0  0  0
  147.6407  136.6882  159.8899 C   0  0  0  0  0  0  0  0  0  0  0  0
  147.8619  137.4353  158.7955 N   0  5  0  0  0  0  0  0  0  0  0  0
  146.9607  137.4422  157.7887 C   0  0  0  0  0  0  0  0  0  0  0  0
  145.9575  136.7314  157.6978 O   0  0  0  0  0  0  0  0  0  0  0  0
  147.2497  138.3196  156.8182 N   0  0  0  0  0  0  0  0  0  0  0  0
  146.4973  138.5132  155.5816 C   0  0  0  0  0  0  0  0  0  0  0  0
  146.6388  139.9478  155.0214 C   0  0  1  0  0  0  0  0  0  0  0  0
  147.9992  140.6026  155.2559 C   0  0  0  0  0  0  0  0  0  0  0  0
  148.0277  141.7584  154.2511 C   0  0  0  0  0  0  0  0  0  0  0  0
  146.9130  141.4548  153.2348 C   0  0  0  0  0  0  0  0  0  0  0  0
  146.3758  140.1168  153.5705 N   0  3  1  0  0  0  0  0  0  0  0  0
  146.9290  139.0586  152.6887 C   0  0  0  0  0  0  0  0  0  0  0  0
  147.3124  134.9557  159.8552 S   0  0  0  0  0  0  0  0  0  0  0  0
  146.1667  134.0945  163.1997 H   0  0  0  0  0  0  0  0  0  0  0  0
  147.8342  133.5351  162.9708 H   0  0  0  0  0  0  0  0  0  0  0  0
  146.5641  133.0268  161.8440 H   0  0  0  0  0  0  0  0  0  0  0  0
  148.0704  138.8935  156.9478 H   0  0  0  0  0  0  0  0  0  0  0  0
  146.8267  137.7866  154.8372 H   0  0  0  0  0  0  0  0  0  0  0  0
  145.4510  138.2824  155.7827 H   0  0  0  0  0  0  0  0  0  0  0  0
  145.9005  140.5749  155.5243 H   0  0  0  0  0  0  0  0  0  0  0  0
  148.1293  140.9380  156.2854 H   0  0  0  0  0  0  0  0  0  0  0  0
  148.8011  139.8979  155.0319 H   0  0  0  0  0  0  0  0  0  0  0  0
  147.8364  142.7107  154.7471 H   0  0  0  0  0  0  0  0  0  0  0  0
  149.0031  141.8295  153.7687 H   0  0  0  0  0  0  0  0  0  0  0  0
  146.1070  142.1804  153.3523 H   0  0  0  0  0  0  0  0  0  0  0  0
  147.2606  141.5268  152.2032 H   0  0  0  0  0  0  0  0  0  0  0  0
  148.0079  138.9610  152.8134 H   0  0  0  0  0  0  0  0  0  0  0  0
  146.7298  139.2961  151.6432 H   0  0  0  0  0  0  0  0  0  0  0  0
  146.4710  138.0896  152.8824 H   0  0  0  0  0  0  0  0  0  0  0  0
  145.3755  140.1205  153.4279 H   0  0  0  0  0  0  0  0  0  0  0  0
  1  2  1  0  0  0  0
  1 18  1  0  0  0  0
  1 19  1  0  0  0  0
  1 20  1  0  0  0  0
  2 17  1  0  0  0  0
  2  3  2  0  0  0  0
  3  4  1  0  0  0  0
  4  5  2  0  0  0  0
  5  6  1  0  0  0  0
  5 17  1  0  0  0  0
  6  7  1  0  0  0  0
  7  8  2  0  0  0  0
  7  9  1  0  0  0  0
  9 10  1  0  0  0  0
  9 21  1  0  0  0  0
 10 11  1  0  0  0  0
 10 22  1  0  0  0  0
 10 23  1  0  0  0  0
 11 15  1  0  0  0  0
 11 12  1  0  0  0  0
 11 24  1  0  0  0  0
 12 13  1  0  0  0  0
 12 25  1  0  0  0  0
 12 26  1  0  0  0  0
 13 14  1  0  0  0  0
 13 27  1  0  0  0  0
 13 28  1  0  0  0  0
 14 15  1  0  0  0  0
 14 29  1  0  0  0  0
 14 30  1  0  0  0  0
 15 16  1  0  0  0  0
 15 34  1  0  0  0  0
 16 31  1  0  0  0  0
 16 32  1  0  0  0  0
 16 33  1  0  0  0  0
M  CHG  1   6  -1
M  CHG  1  15   1
M  END
> <s_m_source_file>
AV-unprocessed.smi

> <i_m_source_file_index>
828

> <i_lp_mmshare_version>
43012

> <i_f3d_flags>
0

> <s_epik_input>
W0NIM11jMW5uYyhzMSlbTkhdQyg9TylbTkhdW0NIMl1bQ0BASF0yW0NIMl1bQ0gyXVtDSDJdTjJbQ0gzXQ==

> <s_epik_cmdline>
J2VwaWtfcHl0aG9uJywgJy1waCcsICc3LjAnLCAnLXRuJywgJzgnLCAnLW1hJywgJzIwMCcsICctbWV0YWxfYmluZGluZycsICctaW1hZScsICc8aW5maWxlLm1hZT4nLCAnLW9tYWUnLCAnPG91dGZpbGUubWFlPic=

> <r_lp_tautomer_probability>
1

> <r_epik_Ionization_Penalty>
3.94379

> <r_epik_Ionization_Penalty_Charging>
3.83377

> <r_epik_Ionization_Penalty_Neutral>
0.110023

> <r_epik_State_Penalty>
3.83036

> <r_epik_Charging_Adjusted_Penalty>
7.66413

> <i_epik_Tot_Q>
0

> <i_epik_Tot_abs_Q>
2

> <r_epik_Metal_State_Penalty>
0.575095

> <b_epik_Metal_Only>
1

> <s_lp_Force_Field>
OPLS_2005

> <r_lp_Energy>
27.8836

> <b_lp_Chiralities_Consistent>
1

> <s_lp_Variant>
AV-unprocessed.smi:828-6

> <Gold.Version>
5.8.1

> <Gold.Id.Protein>
6NUR|6NUR_protein|mol2

> <Gold.PLP.Fitness>
32.5826

> <Gold.PLP.PLP>
-23.1035

> <Gold.PLP.part.hbond>
-3.0000

> <Gold.PLP.part.metal>
0.0000

> <Gold.PLP.part.buried>
-4.0738

> <Gold.PLP.part.nonpolar>
-16.0273

> <Gold.PLP.part.repulsive>
0.0225

> <Gold.PLP.ligand.clash>
0.0000

> <Gold.PLP.ligand.torsion>
0.9512

> <Gold.PLP.Chemscore.Hbond>
3.7920

> <Gold.PLP.Chemscore.CHOScore>
0.0000

> <Gold.PLP.Chemscore.Metal>
0.0000

> <Gold.Chemscore.Hbonds>
donor molecule, donor type, donor heavy atom, donor atom, acceptor molecule, acceptor atom, score
      L1  H    15    34       P1 10175  2.00
      P1  H  6931  6943       L1     4  0.91
      P1  H  6934  6947       L1     4  0.88

> <Gold.PLP.Chemscore.Internal.Correction>
0.0056

> <Gold.Rescore>
     Score         DG    S(hbond)    S(metal)    S(lipo)     H(rot)  DE(clash)    DE(int)     intcor
     13.66     -14.69       1.99        0.00      50.70       1.31       0.07       0.96       ----

> <Gold.Chemscore.Fitness>
13.6628

> <Gold.Chemscore.DG>
-14.6856

> <Gold.Chemscore.ZeroCoef>
-5.4800

> <Gold.Chemscore.Hbond>
1.9881

> <Gold.Chemscore.Metal>
0.0000

> <Gold.Chemscore.Lipo>
50.6967

> <Gold.Chemscore.Internal_Hbond>
0.0000

> <Gold.Chemscore.DEClash>
0.0650

> <Gold.Chemscore.DEInternal>
0.9578

> <Gold.Chemscore.Rot>
1.3149

> <Gold.Chemscore.Internal.Correction>
   9.000000E+99

> <Gold.Chemscore.Hbonds>
donor molecule, donor type, donor heavy atom, donor atom, acceptor molecule, acceptor atom, score
      L1  H    15    34       P1 10175  0.96
      P1  H  6931  6943       L1     4  0.35
      P1  H  6934  6947       L1     4  0.48

> <Gold.Chemscore.Hbond.Weighted>
-6.6403

> <Gold.Chemscore.Metal.Weighted>
-0.0000

> <Gold.Chemscore.Lipo.Weighted>
-5.9315

> <Gold.Chemscore.Internal_Hbond.Weighted>
0.0000

> <Gold.Chemscore.DEClash.Weighted>
0.0650

> <Gold.Chemscore.DEInternal.Weighted>
0.9578

> <Gold.Chemscore.Rot.Weighted>
3.3662

> <Gold.Chemscore.Internal.Correction.Weighted>
   9.000000E+99

> <Gold.Protein.RotatedTorsions>
[ 6907 6896 6895 6894 ] final  -76.44 input  -60.11 | X-H torsion
[ 7974 7965 7964 7962 ] final   53.83 input  175.53 | X-H torsion
[ 8008 7997 7996 7995 ] final   -0.77 input   59.86 | X-H torsion
[ 10167 10162 10161 10158 ] final   29.37 input  -65.29 | X-H torsion
[ 10718 10713 10712 10709 ] final -179.96 input   66.30 | X-H torsion
[ 10763 10752 10751 10750 ] final   18.64 input  -60.55 | X-H torsion
[ 11005 11000 10999 10996 ] final -134.03 input  -57.11 | X-H torsion

> <Gold.Protein.ActiveResidues>
 VAL166  LYS551  ARG553  GLY616  TRP617  ASP618  TYR619  PRO620  LYS621  CYS622 
 ASP623  PHE694  ASN695  SER759  ASP760  ASP761  ALA762  ILE779  LEU786  VAL792 
 PHE793  MET794  SER795  GLU796  ALA797  LYS798  CYS799  TRP800  GLU811  SER814 

> <Gold.Protein.RotatedAtoms>
  150.7027  134.4571  159.5363 H   0  0  0  0  0  0  0  0  0  0  0  0  # atno 6907 bound_to 6896
  152.2253  134.8371  160.0490 H   0  0  0  0  0  0  0  0  0  0  0  0  # atno 6908 bound_to 6896
  151.9207  133.3550  159.3933 H   0  0  0  0  0  0  0  0  0  0  0  0  # atno 6909 bound_to 6896
  145.9671  139.4114  143.0212 H   0  0  0  0  0  0  0  0  0  0  0  0  # atno 7974 bound_to 7965
  154.6543  140.2576  155.7178 H   0  0  0  0  0  0  0  0  0  0  0  0  # atno 8008 bound_to 7997
  156.2590  140.2861  156.0911 H   0  0  0  0  0  0  0  0  0  0  0  0  # atno 8009 bound_to 7997
  155.1403  140.0380  157.2787 H   0  0  0  0  0  0  0  0  0  0  0  0  # atno 8010 bound_to 7997
  140.4772  144.0672  150.6254 H   0  0  0  0  0  0  0  0  0  0  0  0  # atno 10167 bound_to 10162
  156.8668  130.9770  151.3077 H   0  0  0  0  0  0  0  0  0  0  0  0  # atno 10718 bound_to 10713
  153.1231  135.6723  153.9302 H   0  0  0  0  0  0  0  0  0  0  0  0  # atno 10763 bound_to 10752
  153.8811  135.3058  155.3446 H   0  0  0  0  0  0  0  0  0  0  0  0  # atno 10764 bound_to 10752
  154.7640  135.4973  153.9598 H   0  0  0  0  0  0  0  0  0  0  0  0  # atno 10765 bound_to 10752
  140.9027  134.1670  157.4449 H   0  0  0  0  0  0  0  0  0  0  0  0  # atno 11005 bound_to 11000
  145.7958  140.9794  143.1025 LP  0  0  0  0  0  0  0  0  0  0  0  0  # atno 17320 bound_to 7965
  144.6828  139.9739  143.7482 LP  0  0  0  0  0  0  0  0  0  0  0  0  # atno 17321 bound_to 7965
  140.3904  143.2755  152.0067 LP  0  0  0  0  0  0  0  0  0  0  0  0  # atno 17342 bound_to 10162
  139.4827  144.6082  151.7482 LP  0  0  0  0  0  0  0  0  0  0  0  0  # atno 17343 bound_to 10162
  157.6218  130.8661  149.9122 LP  0  0  0  0  0  0  0  0  0  0  0  0  # atno 17370 bound_to 10713
  156.0747  130.3680  150.0702 LP  0  0  0  0  0  0  0  0  0  0  0  0  # atno 17371 bound_to 10713
  139.8744  134.9904  156.5502 LP  0  0  0  0  0  0  0  0  0  0  0  0  # atno 17394 bound_to 11000
  140.8210  133.8354  155.8896 LP  0  0  0  0  0  0  0  0  0  0  0  0  # atno 17395 bound_to 11000

$$$$
