AV-unprocessed.smi:3158|AV-procd|sdf|12042|dock2
  -GOLD-   2272017463D 1   1.00000     0.00000
 Structure written by MMmdl.
 40 40  0  0  0  0  0  0  0  0  2 V2000
  144.1796  132.8762  150.3608 C   0  0  0  0  0  0  0  0  0  0  0  0
  144.8288  134.2303  150.6828 C   0  0  0  0  0  0  0  0  0  0  0  0
  145.8113  134.1765  151.8673 C   0  0  1  0  0  0  0  0  0  0  0  0
  147.0378  133.3071  151.5534 C   0  0  0  0  0  0  0  0  0  0  0  0
  146.2430  135.5263  152.2239 N   0  0  0  0  0  0  0  0  0  0  0  0
  145.4658  136.4797  152.7600 C   0  0  0  0  0  0  0  0  0  0  0  0
  144.2778  136.3124  153.0382 O   0  0  0  0  0  0  0  0  0  0  0  0
  146.1362  137.8328  153.0318 C   0  0  2  0  0  0  0  0  0  0  0  0
  146.5784  138.4750  151.7084 C   0  0  0  0  0  0  0  0  0  0  0  0
  147.3020  137.6810  153.9299 N   0  3  0  0  0  0  0  0  0  0  0  0
  147.7917  138.9387  154.5363 C   0  0  0  0  0  0  0  0  0  0  0  0
  148.9950  139.5026  153.7613 C   0  0  0  0  0  0  0  0  0  0  0  0
  150.2699  139.1717  154.3772 N   0  0  0  0  0  0  0  0  0  0  0  0
  150.9255  137.9582  154.3850 C   0  0  0  0  0  0  0  0  0  0  0  0
  152.0969  138.1323  155.0648 C   0  0  0  0  0  0  0  0  0  0  0  0
  152.0764  139.5077  155.4282 C   0  0  0  0  0  0  0  0  0  0  0  0
  150.9863  140.1285  155.0077 N   0  0  0  0  0  0  0  0  0  0  0  0
  143.5316  132.9565  149.4879 H   0  0  0  0  0  0  0  0  0  0  0  0
  143.5706  132.5138  151.1895 H   0  0  0  0  0  0  0  0  0  0  0  0
  144.9351  132.1202  150.1446 H   0  0  0  0  0  0  0  0  0  0  0  0
  145.3574  134.5809  149.7955 H   0  0  0  0  0  0  0  0  0  0  0  0
  144.0489  134.9670  150.8803 H   0  0  0  0  0  0  0  0  0  0  0  0
  145.2855  133.7227  152.7096 H   0  0  0  0  0  0  0  0  0  0  0  0
  146.7424  132.2877  151.3042 H   0  0  0  0  0  0  0  0  0  0  0  0
  147.7111  133.2524  152.4097 H   0  0  0  0  0  0  0  0  0  0  0  0
  147.6026  133.7056  150.7099 H   0  0  0  0  0  0  0  0  0  0  0  0
  147.2093  135.7529  152.0366 H   0  0  0  0  0  0  0  0  0  0  0  0
  145.4197  138.5027  153.5110 H   0  0  0  0  0  0  0  0  0  0  0  0
  145.7326  138.6171  151.0344 H   0  0  0  0  0  0  0  0  0  0  0  0
  147.3162  137.8604  151.1904 H   0  0  0  0  0  0  0  0  0  0  0  0
  147.0261  139.4545  151.8795 H   0  0  0  0  0  0  0  0  0  0  0  0
  147.0429  137.0430  154.6696 H   0  0  0  0  0  0  0  0  0  0  0  0
  146.9801  139.6670  154.5389 H   0  0  0  0  0  0  0  0  0  0  0  0
  148.0652  138.7753  155.5796 H   0  0  0  0  0  0  0  0  0  0  0  0
  148.9928  139.1271  152.7371 H   0  0  0  0  0  0  0  0  0  0  0  0
  148.9220  140.5887  153.6980 H   0  0  0  0  0  0  0  0  0  0  0  0
  150.5091  137.0800  153.9133 H   0  0  0  0  0  0  0  0  0  0  0  0
  152.8561  137.3915  155.2675 H   0  0  0  0  0  0  0  0  0  0  0  0
  152.8174  140.0698  155.9775 H   0  0  0  0  0  0  0  0  0  0  0  0
  148.0619  137.2752  153.4034 H   0  0  0  0  0  0  0  0  0  0  0  0
  1  2  1  0  0  0  0
  1 18  1  0  0  0  0
  1 19  1  0  0  0  0
  1 20  1  0  0  0  0
  2  3  1  0  0  0  0
  2 21  1  0  0  0  0
  2 22  1  0  0  0  0
  3  4  1  0  0  0  0
  3  5  1  0  0  0  0
  3 23  1  0  0  0  0
  4 24  1  0  0  0  0
  4 25  1  0  0  0  0
  4 26  1  0  0  0  0
  5  6  1  0  0  0  0
  5 27  1  0  0  0  0
  6  7  2  0  0  0  0
  6  8  1  0  0  0  0
  8  9  1  0  0  0  0
  8 10  1  0  0  0  0
  8 28  1  0  0  0  0
  9 29  1  0  0  0  0
  9 30  1  0  0  0  0
  9 31  1  0  0  0  0
 10 11  1  0  0  0  0
 10 32  1  0  0  0  0
 10 40  1  0  0  0  0
 11 12  1  0  0  0  0
 11 33  1  0  0  0  0
 11 34  1  0  0  0  0
 12 13  1  0  0  0  0
 12 35  1  0  0  0  0
 12 36  1  0  0  0  0
 13 17  1  0  0  0  0
 13 14  1  0  0  0  0
 14 15  2  0  0  0  0
 14 37  1  0  0  0  0
 15 16  1  0  0  0  0
 15 38  1  0  0  0  0
 16 17  2  0  0  0  0
 16 39  1  0  0  0  0
M  CHG  1  10   1
M  END
> <s_m_source_file>
AV-unprocessed.smi

> <i_m_source_file_index>
3158

> <i_lp_mmshare_version>
43012

> <i_f3d_flags>
0

> <s_epik_input>
W0NIM11bQ0gyXVtDQEhdKFtDSDNdKVtOSF1DKD1PKVtDQEhdKFtDSDNdKVtOSF1bQ0gyXVtDSDJdbjFbY0hdW2NIXVtjSF1uMQ==

> <s_epik_cmdline>
J2VwaWtfcHl0aG9uJywgJy1waCcsICc3LjAnLCAnLXRuJywgJzgnLCAnLW1hJywgJzIwMCcsICctbWV0YWxfYmluZGluZycsICctaW1hZScsICc8aW5maWxlLm1hZT4nLCAnLW9tYWUnLCAnPG91dGZpbGUubWFlPic=

> <r_lp_tautomer_probability>
1

> <r_epik_Ionization_Penalty>
0.20724

> <r_epik_Ionization_Penalty_Charging>
0.207237

> <r_epik_Ionization_Penalty_Neutral>
3.33806e-06

> <r_epik_State_Penalty>
0.197234

> <r_epik_Charging_Adjusted_Penalty>
0.404471

> <i_epik_Tot_Q>
1

> <i_epik_Tot_abs_Q>
1

> <r_epik_Metal_State_Penalty>
0.197524

> <b_epik_Metal_Only>
0

> <s_lp_Force_Field>
OPLS_2005

> <r_lp_Energy>
6.13047

> <b_lp_Chiralities_Consistent>
1

> <s_lp_Variant>
AV-unprocessed.smi:3158-2

> <Gold.Version>
5.8.1

> <Gold.Id.Protein>
6NUR|6NUR_protein|mol2

> <Gold.PLP.Fitness>
45.9336

> <Gold.PLP.PLP>
-32.5207

> <Gold.PLP.part.hbond>
-3.0000

> <Gold.PLP.part.metal>
0.0000

> <Gold.PLP.part.buried>
-0.2788

> <Gold.PLP.part.nonpolar>
-30.4140

> <Gold.PLP.part.repulsive>
0.1753

> <Gold.PLP.ligand.clash>
0.0000

> <Gold.PLP.ligand.torsion>
0.9264

> <Gold.PLP.Chemscore.Hbond>
3.9000

> <Gold.PLP.Chemscore.CHOScore>
1.1574

> <Gold.PLP.Chemscore.Metal>
0.0000

> <Gold.Chemscore.Hbonds>
donor molecule, donor type, donor heavy atom, donor atom, acceptor molecule, acceptor atom, score
      L1  H     5    27       P1  7948  1.00
      L1  H    10    40       P1  7948  1.85
      P1  H  7989  7998       L1    17  0.76
      L1  C    14    37       P1  7948  0.50
      L1  C    14    37       P1  7949  0.27

> <Gold.PLP.Chemscore.Internal.Correction>
0.0934

> <Gold.Rescore>
     Score         DG    S(hbond)    S(metal)    S(lipo)     H(rot)  DE(clash)    DE(int)     intcor
     15.91     -18.22       2.83        0.00      76.56       2.21       1.62       0.68       ----

> <Gold.Chemscore.Fitness>
15.9150

> <Gold.Chemscore.DG>
-18.2150

> <Gold.Chemscore.ZeroCoef>
-5.4800

> <Gold.Chemscore.Hbond>
2.8274

> <Gold.Chemscore.Metal>
0.0000

> <Gold.Chemscore.Lipo>
76.5593

> <Gold.Chemscore.Internal_Hbond>
0.0000

> <Gold.Chemscore.DEClash>
1.6152

> <Gold.Chemscore.DEInternal>
0.6848

> <Gold.Chemscore.Rot>
2.2132

> <Gold.Chemscore.Internal.Correction>
   9.000000E+99

> <Gold.Chemscore.Hbonds>
donor molecule, donor type, donor heavy atom, donor atom, acceptor molecule, acceptor atom, score
      L1  H     5    27       P1  7948  1.00
      L1  H    10    40       P1  7948  0.88
      P1  H  7989  7998       L1    17  0.03

> <Gold.Chemscore.Hbond.Weighted>
-9.4434

> <Gold.Chemscore.Metal.Weighted>
-0.0000

> <Gold.Chemscore.Lipo.Weighted>
-8.9574

> <Gold.Chemscore.Internal_Hbond.Weighted>
0.0000

> <Gold.Chemscore.DEClash.Weighted>
1.6152

> <Gold.Chemscore.DEInternal.Weighted>
0.6848

> <Gold.Chemscore.Rot.Weighted>
5.6658

> <Gold.Chemscore.Internal.Correction.Weighted>
   9.000000E+99

> <Gold.Protein.RotatedTorsions>
[ 6907 6896 6895 6894 ] final   60.51 input  -60.11 | X-H torsion
[ 7974 7965 7964 7962 ] final  111.29 input  175.53 | X-H torsion
[ 8008 7997 7996 7995 ] final   50.67 input   59.86 | X-H torsion
[ 10167 10162 10161 10158 ] final -104.35 input  -65.29 | X-H torsion
[ 10718 10713 10712 10709 ] final  -52.19 input   66.30 | X-H torsion
[ 10763 10752 10751 10750 ] final  -25.68 input  -60.55 | X-H torsion
[ 11005 11000 10999 10996 ] final  106.82 input  -57.11 | X-H torsion

> <Gold.Protein.ActiveResidues>
 VAL166  LYS551  ARG553  GLY616  TRP617  ASP618  TYR619  PRO620  LYS621  CYS622 
 ASP623  PHE694  ASN695  SER759  ASP760  ASP761  ALA762  ILE779  LEU786  VAL792 
 PHE793  MET794  SER795  GLU796  ALA797  LYS798  CYS799  TRP800  GLU811  SER814 

> <Gold.Protein.RotatedAtoms>
  152.4009  134.6287  160.0069 H   0  0  0  0  0  0  0  0  0  0  0  0  # atno 6907 bound_to 6896
  151.6493  133.3316  159.3156 H   0  0  0  0  0  0  0  0  0  0  0  0  # atno 6908 bound_to 6896
  150.7910  134.6976  159.6576 H   0  0  0  0  0  0  0  0  0  0  0  0  # atno 6909 bound_to 6896
  145.2441  139.2766  143.4102 H   0  0  0  0  0  0  0  0  0  0  0  0  # atno 7974 bound_to 7965
  155.4225  140.3447  155.4272 H   0  0  0  0  0  0  0  0  0  0  0  0  # atno 8008 bound_to 7997
  156.1384  140.1535  156.8989 H   0  0  0  0  0  0  0  0  0  0  0  0  # atno 8009 bound_to 7997
  154.4951  140.0830  156.7659 H   0  0  0  0  0  0  0  0  0  0  0  0  # atno 8010 bound_to 7997
  140.2102  143.3752  152.1057 H   0  0  0  0  0  0  0  0  0  0  0  0  # atno 10167 bound_to 10162
  156.1643  130.4149  149.9745 H   0  0  0  0  0  0  0  0  0  0  0  0  # atno 10718 bound_to 10713
  153.7038  135.6955  153.5056 H   0  0  0  0  0  0  0  0  0  0  0  0  # atno 10763 bound_to 10752
  153.2323  135.4333  155.0607 H   0  0  0  0  0  0  0  0  0  0  0  0  # atno 10764 bound_to 10752
  154.8336  135.3487  154.6577 H   0  0  0  0  0  0  0  0  0  0  0  0  # atno 10765 bound_to 10752
  139.8819  134.9381  156.5725 H   0  0  0  0  0  0  0  0  0  0  0  0  # atno 11005 bound_to 11000
  146.3320  140.2813  142.8610 LP  0  0  0  0  0  0  0  0  0  0  0  0  # atno 17320 bound_to 7965
  144.9562  140.8229  143.5541 LP  0  0  0  0  0  0  0  0  0  0  0  0  # atno 17321 bound_to 7965
  139.5183  144.7004  151.5511 LP  0  0  0  0  0  0  0  0  0  0  0  0  # atno 17342 bound_to 10162
  140.6329  143.9041  150.6621 LP  0  0  0  0  0  0  0  0  0  0  0  0  # atno 17343 bound_to 10162
  156.7564  130.9135  151.3639 LP  0  0  0  0  0  0  0  0  0  0  0  0  # atno 17370 bound_to 10713
  157.6756  130.9091  150.0142 LP  0  0  0  0  0  0  0  0  0  0  0  0  # atno 17371 bound_to 10713
  140.8088  133.8446  155.8791 LP  0  0  0  0  0  0  0  0  0  0  0  0  # atno 17394 bound_to 11000
  140.9525  134.1760  157.4716 LP  0  0  0  0  0  0  0  0  0  0  0  0  # atno 17395 bound_to 11000

$$$$
