AV-unprocessed.smi:1982|AV-procd|sdf|8024|dock8
  -GOLD-   2272010213D 1   1.00000     0.00000
 Structure written by MMmdl.
 36 37  0  0  0  0  0  0  0  0  1 V2000
  152.2407  142.8767  161.7149 C   0  0  0  0  0  0  0  0  0  0  0  0
  152.7997  143.5316  160.4349 C   0  0  2  0  0  0  0  0  0  0  0  0
  152.0218  144.8113  160.0661 C   0  0  0  0  0  0  0  0  0  0  0  0
  150.6262  144.5006  159.5030 C   0  0  0  0  0  0  0  0  0  0  0  0
  150.7147  143.5569  158.2959 C   0  0  0  0  0  0  0  0  0  0  0  0
  151.4791  142.2619  158.6318 C   0  0  1  0  0  0  0  0  0  0  0  0
  151.5842  141.4555  157.4157 N   0  0  0  0  0  0  0  0  0  0  0  0
  150.5580  140.9818  156.6914 C   0  0  0  0  0  0  0  0  0  0  0  0
  149.3768  141.1684  156.9875 O   0  0  0  0  0  0  0  0  0  0  0  0
  150.9458  140.1712  155.4489 C   0  0  0  0  0  0  0  0  0  0  0  0
  151.8225  139.0538  155.7547 N   0  0  0  0  0  0  0  0  0  0  0  0
  151.6460  137.7376  155.6202 C   0  0  0  0  0  0  0  0  0  0  0  0
  152.7108  137.0583  156.0184 N   0  0  0  0  0  0  0  0  0  0  0  0
  153.5865  138.0532  156.4199 N   0  0  0  0  0  0  0  0  0  0  0  0
  153.0649  139.2393  156.2663 N   0  0  0  0  0  0  0  0  0  0  0  0
  152.8830  142.5751  159.2144 C   0  0  2  0  0  0  0  0  0  0  0  0
  153.7091  141.3095  159.5186 C   0  0  0  0  0  0  0  0  0  0  0  0
  151.2349  142.4831  161.5721 H   0  0  0  0  0  0  0  0  0  0  0  0
  152.1966  143.5978  162.5315 H   0  0  0  0  0  0  0  0  0  0  0  0
  152.8718  142.0555  162.0537 H   0  0  0  0  0  0  0  0  0  0  0  0
  153.8177  143.8423  160.6736 H   0  0  0  0  0  0  0  0  0  0  0  0
  151.9361  145.4659  160.9340 H   0  0  0  0  0  0  0  0  0  0  0  0
  152.5878  145.3730  159.3217 H   0  0  0  0  0  0  0  0  0  0  0  0
  150.0009  144.0526  160.2757 H   0  0  0  0  0  0  0  0  0  0  0  0
  150.1315  145.4272  159.2105 H   0  0  0  0  0  0  0  0  0  0  0  0
  149.7099  143.3164  157.9463 H   0  0  0  0  0  0  0  0  0  0  0  0
  151.2104  144.0752  157.4738 H   0  0  0  0  0  0  0  0  0  0  0  0
  150.9039  141.7219  159.3853 H   0  0  0  0  0  0  0  0  0  0  0  0
  152.5187  141.2481  157.0945 H   0  0  0  0  0  0  0  0  0  0  0  0
  150.0445  139.7954  154.9617 H   0  0  0  0  0  0  0  0  0  0  0  0
  151.4528  140.8217  154.7353 H   0  0  0  0  0  0  0  0  0  0  0  0
  150.7467  137.2828  155.2318 H   0  0  0  0  0  0  0  0  0  0  0  0
  153.4337  143.1147  158.4418 H   0  0  0  0  0  0  0  0  0  0  0  0
  153.1750  140.6326  160.1856 H   0  0  0  0  0  0  0  0  0  0  0  0
  154.6595  141.5641  159.9883 H   0  0  0  0  0  0  0  0  0  0  0  0
  153.9402  140.7553  158.6089 H   0  0  0  0  0  0  0  0  0  0  0  0
  1  2  1  0  0  0  0
  1 18  1  0  0  0  0
  1 19  1  0  0  0  0
  1 20  1  0  0  0  0
  2 16  1  0  0  0  0
  2  3  1  0  0  0  0
  2 21  1  0  0  0  0
  3  4  1  0  0  0  0
  3 22  1  0  0  0  0
  3 23  1  0  0  0  0
  4  5  1  0  0  0  0
  4 24  1  0  0  0  0
  4 25  1  0  0  0  0
  5  6  1  0  0  0  0
  5 26  1  0  0  0  0
  5 27  1  0  0  0  0
  6  7  1  0  0  0  0
  6 16  1  0  0  0  0
  6 28  1  0  0  0  0
  7  8  1  0  0  0  0
  7 29  1  0  0  0  0
  8  9  2  0  0  0  0
  8 10  1  0  0  0  0
 10 11  1  0  0  0  0
 10 30  1  0  0  0  0
 10 31  1  0  0  0  0
 11 15  1  0  0  0  0
 11 12  1  0  0  0  0
 12 13  2  0  0  0  0
 12 32  1  0  0  0  0
 13 14  1  0  0  0  0
 14 15  2  0  0  0  0
 16 17  1  0  0  0  0
 16 33  1  0  0  0  0
 17 34  1  0  0  0  0
 17 35  1  0  0  0  0
 17 36  1  0  0  0  0
M  END
> <s_m_source_file>
AV-unprocessed.smi

> <i_m_source_file_index>
1982

> <i_lp_mmshare_version>
43012

> <i_f3d_flags>
0

> <s_epik_input>
W0NIM11bQ0BASF0xW0NIMl1bQ0gyXVtDSDJdW0NASF0oW0NASF0xW0NIM10pW05IXUMoPU8pW0NIMl1uMltjSF1ubm4y

> <s_epik_cmdline>
J2VwaWtfcHl0aG9uJywgJy1waCcsICc3LjAnLCAnLXRuJywgJzgnLCAnLW1hJywgJzIwMCcsICctbWV0YWxfYmluZGluZycsICctaW1hZScsICc8aW5maWxlLm1hZT4nLCAnLW9tYWUnLCAnPG91dGZpbGUubWFlPic=

> <r_lp_tautomer_probability>
1

> <r_epik_Ionization_Penalty>
5.03816e-07

> <r_epik_Ionization_Penalty_Charging>
0

> <r_epik_Ionization_Penalty_Neutral>
5.03816e-07

> <r_epik_State_Penalty>
-0

> <r_epik_Charging_Adjusted_Penalty>
0

> <i_epik_Tot_Q>
0

> <i_epik_Tot_abs_Q>
0

> <r_epik_Metal_State_Penalty>
-0

> <b_epik_Metal_Only>
0

> <s_lp_Force_Field>
OPLS_2005

> <r_lp_Energy>
16.2726

> <b_lp_Chiralities_Consistent>
1

> <s_lp_Variant>
AV-unprocessed.smi:1982-5

> <Gold.Version>
5.8.1

> <Gold.Id.Protein>
6NUR|6NUR_protein|mol2

> <Gold.PLP.Fitness>
41.3997

> <Gold.PLP.PLP>
-36.1579

> <Gold.PLP.part.hbond>
-3.0000

> <Gold.PLP.part.metal>
0.0000

> <Gold.PLP.part.buried>
-4.3966

> <Gold.PLP.part.nonpolar>
-29.9075

> <Gold.PLP.part.repulsive>
0.1419

> <Gold.PLP.ligand.clash>
0.0000

> <Gold.PLP.ligand.torsion>
0.0328

> <Gold.PLP.Chemscore.Hbond>
1.7680

> <Gold.PLP.Chemscore.CHOScore>
0.0000

> <Gold.PLP.Chemscore.Metal>
0.0000

> <Gold.Chemscore.Hbonds>
donor molecule, donor type, donor heavy atom, donor atom, acceptor molecule, acceptor atom, score
      P1  H  7997  8010       L1    15  1.00
      P1  H 10752 10765       L1    13  0.77

> <Gold.PLP.Chemscore.Internal.Correction>
0.0033

> <Gold.Rescore>
     Score         DG    S(hbond)    S(metal)    S(lipo)     H(rot)  DE(clash)    DE(int)     intcor
     16.12     -17.33       1.71        0.00      94.04       1.91       0.05       1.17       ----

> <Gold.Chemscore.Fitness>
16.1159

> <Gold.Chemscore.DG>
-17.3304

> <Gold.Chemscore.ZeroCoef>
-5.4800

> <Gold.Chemscore.Hbond>
1.7144

> <Gold.Chemscore.Metal>
0.0000

> <Gold.Chemscore.Lipo>
94.0438

> <Gold.Chemscore.Internal_Hbond>
0.0000

> <Gold.Chemscore.DEClash>
0.0456

> <Gold.Chemscore.DEInternal>
1.1689

> <Gold.Chemscore.Rot>
1.9058

> <Gold.Chemscore.Internal.Correction>
   9.000000E+99

> <Gold.Chemscore.Hbonds>
donor molecule, donor type, donor heavy atom, donor atom, acceptor molecule, acceptor atom, score
      P1  H  7997  8010       L1    15  0.24
      P1  H 10752 10765       L1    13  0.72

> <Gold.Chemscore.Hbond.Weighted>
-5.7261

> <Gold.Chemscore.Metal.Weighted>
-0.0000

> <Gold.Chemscore.Lipo.Weighted>
-11.0031

> <Gold.Chemscore.Internal_Hbond.Weighted>
0.0000

> <Gold.Chemscore.DEClash.Weighted>
0.0456

> <Gold.Chemscore.DEInternal.Weighted>
1.1689

> <Gold.Chemscore.Rot.Weighted>
4.8788

> <Gold.Chemscore.Internal.Correction.Weighted>
   9.000000E+99

> <Gold.Protein.RotatedTorsions>
[ 6907 6896 6895 6894 ] final  157.43 input  -60.11 | X-H torsion
[ 7974 7965 7964 7962 ] final -153.50 input  175.53 | X-H torsion
[ 8008 7997 7996 7995 ] final   79.29 input   59.86 | X-H torsion
[ 10167 10162 10161 10158 ] final  -33.52 input  -65.29 | X-H torsion
[ 10718 10713 10712 10709 ] final  143.24 input   66.30 | X-H torsion
[ 10763 10752 10751 10750 ] final -150.21 input  -60.55 | X-H torsion
[ 11005 11000 10999 10996 ] final  -69.93 input  -57.11 | X-H torsion

> <Gold.Protein.ActiveResidues>
 VAL166  LYS551  ARG553  GLY616  TRP617  ASP618  TYR619  PRO620  LYS621  CYS622 
 ASP623  PHE694  ASN695  SER759  ASP760  ASP761  ALA762  ILE779  LEU786  VAL792 
 PHE793  MET794  SER795  GLU796  ALA797  LYS798  CYS799  TRP800  GLU811  SER814 

> <Gold.Protein.RotatedAtoms>
  152.0152  133.3877  159.4235 H   0  0  0  0  0  0  0  0  0  0  0  0  # atno 6907 bound_to 6896
  150.6895  134.3687  159.4991 H   0  0  0  0  0  0  0  0  0  0  0  0  # atno 6908 bound_to 6896
  152.1453  134.9030  160.0602 H   0  0  0  0  0  0  0  0  0  0  0  0  # atno 6909 bound_to 6896
  144.7737  140.4517  143.5888 H   0  0  0  0  0  0  0  0  0  0  0  0  # atno 7974 bound_to 7965
  155.8676  140.3450  155.5799 H   0  0  0  0  0  0  0  0  0  0  0  0  # atno 8008 bound_to 7997
  155.7863  140.0865  157.2052 H   0  0  0  0  0  0  0  0  0  0  0  0  # atno 8009 bound_to 7997
  154.4015  140.1491  156.3098 H   0  0  0  0  0  0  0  0  0  0  0  0  # atno 8010 bound_to 7997
  140.7203  143.3614  151.1956 H   0  0  0  0  0  0  0  0  0  0  0  0  # atno 10167 bound_to 10162
  157.3712  131.0979  151.0826 H   0  0  0  0  0  0  0  0  0  0  0  0  # atno 10718 bound_to 10713
  154.8132  135.3290  154.7247 H   0  0  0  0  0  0  0  0  0  0  0  0  # atno 10763 bound_to 10752
  153.7893  135.6912  153.4879 H   0  0  0  0  0  0  0  0  0  0  0  0  # atno 10764 bound_to 10752
  153.1928  135.4545  155.0117 H   0  0  0  0  0  0  0  0  0  0  0  0  # atno 10765 bound_to 10752
  141.1564  133.6777  156.6675 H   0  0  0  0  0  0  0  0  0  0  0  0  # atno 11005 bound_to 11000
  145.6247  139.1528  143.3002 LP  0  0  0  0  0  0  0  0  0  0  0  0  # atno 17320 bound_to 7965
  146.1902  140.6355  142.9149 LP  0  0  0  0  0  0  0  0  0  0  0  0  # atno 17321 bound_to 7965
  139.7167  143.9290  152.2969 LP  0  0  0  0  0  0  0  0  0  0  0  0  # atno 17342 bound_to 10162
  139.9033  144.6899  150.8642 LP  0  0  0  0  0  0  0  0  0  0  0  0  # atno 17343 bound_to 10162
  157.1929  130.6360  149.5711 LP  0  0  0  0  0  0  0  0  0  0  0  0  # atno 17370 bound_to 10713
  155.9756  130.4716  150.6470 LP  0  0  0  0  0  0  0  0  0  0  0  0  # atno 17371 bound_to 10713
  140.3200  134.8015  157.4245 LP  0  0  0  0  0  0  0  0  0  0  0  0  # atno 17394 bound_to 11000
  140.1105  134.5352  155.8270 LP  0  0  0  0  0  0  0  0  0  0  0  0  # atno 17395 bound_to 11000

$$$$
