AV-unprocessed.smi:1731|AV-procd|sdf|6974|dock8
  -GOLD-   22720 8183D 1   1.00000     0.00000
 Structure written by MMmdl.
 41 42  0  0  0  0  0  0  0  0  1 V2000
  153.0871  143.6110  162.4339 C   0  0  0  0  0  0  0  0  0  0  0  0
  152.1611  143.4089  161.2262 C   0  0  2  0  0  0  0  0  0  0  0  0
  152.6469  142.2536  160.3306 C   0  0  0  0  0  0  0  0  0  0  0  0
  151.7226  142.0476  159.1201 C   0  0  0  0  0  0  0  0  0  0  0  0
  151.5699  143.3430  158.2976 C   0  0  1  0  0  0  0  0  0  0  0  0
  150.6244  143.1451  157.2028 N   0  0  0  0  0  0  0  0  0  0  0  0
  150.5245  142.0358  156.4564 C   0  0  0  0  0  0  0  0  0  0  0  0
  151.2442  141.0476  156.6036 O   0  0  0  0  0  0  0  0  0  0  0  0
  149.5427  142.1468  155.5465 N   0  0  0  0  0  0  0  0  0  0  0  0
  149.1345  141.1747  154.5989 C   0  0  0  0  0  0  0  0  0  0  0  0
  149.8029  139.9463  154.3586 C   0  0  0  0  0  0  0  0  0  0  0  0
  149.1906  139.2437  153.4178 N   0  0  0  0  0  0  0  0  0  0  0  0
  148.1306  140.0031  153.0433 N   0  0  0  0  0  0  0  0  0  0  0  0
  147.2286  139.5219  152.0117 C   0  0  0  0  0  0  0  0  0  0  0  0
  146.5685  138.2052  152.4258 C   0  0  0  0  0  0  0  0  0  0  0  0
  145.5906  137.7402  151.6440 N   0  0  0  0  0  0  0  0  0  0  0  0
  146.9395  137.6126  153.4366 O   0  0  0  0  0  0  0  0  0  0  0  0
  148.0645  141.1888  153.7496 C   0  0  0  0  0  0  0  0  0  0  0  0
  151.0909  144.5015  159.1914 C   0  0  0  0  0  0  0  0  0  0  0  0
  152.0188  144.7017  160.4006 C   0  0  0  0  0  0  0  0  0  0  0  0
  154.0988  143.8694  162.1194 H   0  0  0  0  0  0  0  0  0  0  0  0
  153.1471  142.7052  163.0379 H   0  0  0  0  0  0  0  0  0  0  0  0
  152.7236  144.4123  163.0776 H   0  0  0  0  0  0  0  0  0  0  0  0
  151.1745  143.1450  161.6104 H   0  0  0  0  0  0  0  0  0  0  0  0
  153.6602  142.4577  159.9817 H   0  0  0  0  0  0  0  0  0  0  0  0
  152.7003  141.3303  160.9086 H   0  0  0  0  0  0  0  0  0  0  0  0
  152.1176  141.2475  158.4932 H   0  0  0  0  0  0  0  0  0  0  0  0
  150.7441  141.7121  159.4672 H   0  0  0  0  0  0  0  0  0  0  0  0
  152.5428  143.6159  157.8840 H   0  0  0  0  0  0  0  0  0  0  0  0
  149.9910  143.9066  157.0081 H   0  0  0  0  0  0  0  0  0  0  0  0
  149.0220  143.0115  155.5415 H   0  0  0  0  0  0  0  0  0  0  0  0
  150.6933  139.5495  154.8236 H   0  0  0  0  0  0  0  0  0  0  0  0
  146.4591  140.2709  151.8185 H   0  0  0  0  0  0  0  0  0  0  0  0
  147.7918  139.3961  151.0858 H   0  0  0  0  0  0  0  0  0  0  0  0
  145.1235  136.8763  151.8778 H   0  0  0  0  0  0  0  0  0  0  0  0
  145.3200  138.2580  150.8204 H   0  0  0  0  0  0  0  0  0  0  0  0
  147.2808  141.9126  153.5816 H   0  0  0  0  0  0  0  0  0  0  0  0
  151.0413  145.4242  158.6119 H   0  0  0  0  0  0  0  0  0  0  0  0
  150.0775  144.3039  159.5441 H   0  0  0  0  0  0  0  0  0  0  0  0
  151.6312  145.5046  161.0285 H   0  0  0  0  0  0  0  0  0  0  0  0
  153.0006  145.0283  160.0541 H   0  0  0  0  0  0  0  0  0  0  0  0
  1  2  1  0  0  0  0
  1 21  1  0  0  0  0
  1 22  1  0  0  0  0
  1 23  1  0  0  0  0
  2 20  1  0  0  0  0
  2  3  1  0  0  0  0
  2 24  1  0  0  0  0
  3  4  1  0  0  0  0
  3 25  1  0  0  0  0
  3 26  1  0  0  0  0
  4  5  1  0  0  0  0
  4 27  1  0  0  0  0
  4 28  1  0  0  0  0
  5  6  1  0  0  0  0
  5 19  1  0  0  0  0
  5 29  1  0  0  0  0
  6  7  1  0  0  0  0
  6 30  1  0  0  0  0
  7  8  2  0  0  0  0
  7  9  1  0  0  0  0
  9 10  1  0  0  0  0
  9 31  1  0  0  0  0
 10 18  2  0  0  0  0
 10 11  1  0  0  0  0
 11 12  2  0  0  0  0
 11 32  1  0  0  0  0
 12 13  1  0  0  0  0
 13 14  1  0  0  0  0
 13 18  1  0  0  0  0
 14 15  1  0  0  0  0
 14 33  1  0  0  0  0
 14 34  1  0  0  0  0
 15 16  1  0  0  0  0
 15 17  2  0  0  0  0
 16 35  1  0  0  0  0
 16 36  1  0  0  0  0
 18 37  1  0  0  0  0
 19 20  1  0  0  0  0
 19 38  1  0  0  0  0
 19 39  1  0  0  0  0
 20 40  1  0  0  0  0
 20 41  1  0  0  0  0
M  END
> <s_m_source_file>
AV-unprocessed.smi

> <i_m_source_file_index>
1731

> <i_lp_mmshare_version>
43012

> <i_f3d_flags>
0

> <s_epik_input>
W0NIM11bQ0BASF0xW0NIMl1bQ0gyXVtDQEhdKFtDSDJdW0NIMl0xKVtOSF1DKD1PKVtOSF1jMltjSF1ubihbY0hdMilbQ0gyXUMoPU8pW05IMl0=

> <s_epik_cmdline>
J2VwaWtfcHl0aG9uJywgJy1waCcsICc3LjAnLCAnLXRuJywgJzgnLCAnLW1hJywgJzIwMCcsICctbWV0YWxfYmluZGluZycsICctaW1hZScsICc8aW5maWxlLm1hZT4nLCAnLW9tYWUnLCAnPG91dGZpbGUubWFlPic=

> <r_lp_tautomer_probability>
1

> <r_epik_Ionization_Penalty>
4.81284e-05

> <r_epik_Ionization_Penalty_Charging>
0

> <r_epik_Ionization_Penalty_Neutral>
4.81284e-05

> <r_epik_State_Penalty>
-0

> <r_epik_Charging_Adjusted_Penalty>
0

> <i_epik_Tot_Q>
0

> <i_epik_Tot_abs_Q>
0

> <r_epik_Metal_State_Penalty>
-0

> <b_epik_Metal_Only>
0

> <s_lp_Force_Field>
OPLS_2005

> <r_lp_Energy>
12.4361

> <b_lp_Chiralities_Consistent>
1

> <s_lp_Variant>
AV-unprocessed.smi:1731-1

> <Gold.Version>
5.8.1

> <Gold.Id.Protein>
6NUR|6NUR_protein|mol2

> <Gold.PLP.Fitness>
49.4152

> <Gold.PLP.PLP>
-41.2020

> <Gold.PLP.part.hbond>
-3.7866

> <Gold.PLP.part.metal>
0.0000

> <Gold.PLP.part.buried>
-2.4566

> <Gold.PLP.part.nonpolar>
-37.1375

> <Gold.PLP.part.repulsive>
2.6977

> <Gold.PLP.ligand.clash>
0.0039

> <Gold.PLP.ligand.torsion>
0.3577

> <Gold.PLP.Chemscore.Hbond>
2.9760

> <Gold.PLP.Chemscore.CHOScore>
0.0000

> <Gold.PLP.Chemscore.Metal>
0.0000

> <Gold.Chemscore.Hbonds>
donor molecule, donor type, donor heavy atom, donor atom, acceptor molecule, acceptor atom, score
      L1  H     6    30       P1  8028  0.91
      L1  H     9    31       P1  8028  1.00
      L1  H    16    36       P1 10171  0.83

> <Gold.PLP.Chemscore.Internal.Correction>
0.0045

> <Gold.Rescore>
     Score         DG    S(hbond)    S(metal)    S(lipo)     H(rot)  DE(clash)    DE(int)     intcor
     16.33     -22.25       2.85        0.00     103.55       1.90       1.33       4.60       ----

> <Gold.Chemscore.Fitness>
16.3266

> <Gold.Chemscore.DG>
-22.2512

> <Gold.Chemscore.ZeroCoef>
-5.4800

> <Gold.Chemscore.Hbond>
2.8526

> <Gold.Chemscore.Metal>
0.0000

> <Gold.Chemscore.Lipo>
103.5456

> <Gold.Chemscore.Internal_Hbond>
0.0000

> <Gold.Chemscore.DEClash>
1.3265

> <Gold.Chemscore.DEInternal>
4.5981

> <Gold.Chemscore.Rot>
1.9029

> <Gold.Chemscore.Internal.Correction>
   9.000000E+99

> <Gold.Chemscore.Hbonds>
donor molecule, donor type, donor heavy atom, donor atom, acceptor molecule, acceptor atom, score
      L1  H     6    30       P1  8028  0.86
      L1  H     9    31       P1  8028  0.98
      L1  H    16    36       P1 10171  0.81

> <Gold.Chemscore.Hbond.Weighted>
-9.5278

> <Gold.Chemscore.Metal.Weighted>
-0.0000

> <Gold.Chemscore.Lipo.Weighted>
-12.1148

> <Gold.Chemscore.Internal_Hbond.Weighted>
0.0000

> <Gold.Chemscore.DEClash.Weighted>
1.3265

> <Gold.Chemscore.DEInternal.Weighted>
4.5981

> <Gold.Chemscore.Rot.Weighted>
4.8714

> <Gold.Chemscore.Internal.Correction.Weighted>
   9.000000E+99

> <Gold.Protein.RotatedTorsions>
[ 6907 6896 6895 6894 ] final    5.97 input  -60.11 | X-H torsion
[ 7974 7965 7964 7962 ] final  171.72 input  175.53 | X-H torsion
[ 8008 7997 7996 7995 ] final  -23.84 input   59.86 | X-H torsion
[ 10167 10162 10161 10158 ] final  118.36 input  -65.29 | X-H torsion
[ 10718 10713 10712 10709 ] final -130.12 input   66.30 | X-H torsion
[ 10763 10752 10751 10750 ] final  -40.53 input  -60.55 | X-H torsion
[ 11005 11000 10999 10996 ] final -147.47 input  -57.11 | X-H torsion

> <Gold.Protein.ActiveResidues>
 VAL166  LYS551  ARG553  GLY616  TRP617  ASP618  TYR619  PRO620  LYS621  CYS622 
 ASP623  PHE694  ASN695  SER759  ASP760  ASP761  ALA762  ILE779  LEU786  VAL792 
 PHE793  MET794  SER795  GLU796  ALA797  LYS798  CYS799  TRP800  GLU811  SER814 

> <Gold.Protein.RotatedAtoms>
  151.6661  135.0982  160.0188 H   0  0  0  0  0  0  0  0  0  0  0  0  # atno 6907 bound_to 6896
  152.3919  133.6686  159.6253 H   0  0  0  0  0  0  0  0  0  0  0  0  # atno 6908 bound_to 6896
  150.7833  133.8857  159.3340 H   0  0  0  0  0  0  0  0  0  0  0  0  # atno 6909 bound_to 6896
  144.7287  139.9392  143.6428 H   0  0  0  0  0  0  0  0  0  0  0  0  # atno 7974 bound_to 7965
  154.4562  140.1970  156.0372 H   0  0  0  0  0  0  0  0  0  0  0  0  # atno 8008 bound_to 7997
  156.0751  140.3279  155.7596 H   0  0  0  0  0  0  0  0  0  0  0  0  # atno 8009 bound_to 7997
  155.5202  140.0569  157.2899 H   0  0  0  0  0  0  0  0  0  0  0  0  # atno 8010 bound_to 7997
  139.6116  144.7083  151.2830 H   0  0  0  0  0  0  0  0  0  0  0  0  # atno 10167 bound_to 10162
  156.2113  130.6920  151.0653 H   0  0  0  0  0  0  0  0  0  0  0  0  # atno 10718 bound_to 10713
  153.9475  135.6754  153.4744 H   0  0  0  0  0  0  0  0  0  0  0  0  # atno 10763 bound_to 10752
  153.0901  135.4879  154.8670 H   0  0  0  0  0  0  0  0  0  0  0  0  # atno 10764 bound_to 10752
  154.7344  135.3145  154.8796 H   0  0  0  0  0  0  0  0  0  0  0  0  # atno 10765 bound_to 10752
  140.7713  134.3185  157.5074 H   0  0  0  0  0  0  0  0  0  0  0  0  # atno 11005 bound_to 11000
  146.0798  139.3785  143.0472 LP  0  0  0  0  0  0  0  0  0  0  0  0  # atno 17320 bound_to 7965
  145.7857  140.9837  143.1076 LP  0  0  0  0  0  0  0  0  0  0  0  0  # atno 17321 bound_to 7965
  140.7323  143.6827  150.7988 LP  0  0  0  0  0  0  0  0  0  0  0  0  # atno 17342 bound_to 10162
  140.0422  143.5334  152.2712 LP  0  0  0  0  0  0  0  0  0  0  0  0  # atno 17343 bound_to 10162
  157.7040  131.0764  150.6729 LP  0  0  0  0  0  0  0  0  0  0  0  0  # atno 17370 bound_to 10713
  156.6788  130.4561  149.5634 LP  0  0  0  0  0  0  0  0  0  0  0  0  # atno 17371 bound_to 10713
  139.8755  134.9263  156.3396 LP  0  0  0  0  0  0  0  0  0  0  0  0  # atno 17394 bound_to 11000
  140.9570  133.7413  156.0350 LP  0  0  0  0  0  0  0  0  0  0  0  0  # atno 17395 bound_to 11000

$$$$
