AV-unprocessed.smi:2564|AV-procd|sdf|10064|dock1
  -GOLD-   2272014103D 1   1.00000     0.00000
 Structure written by MMmdl.
 30 31  0  0  0  0  0  0  0  0  3 V2000
  152.0007  141.6539  158.9785 C   0  0  0  0  0  0  0  0  0  0  0  0
  152.3266  143.0089  159.1653 C   0  0  0  0  0  0  0  0  0  0  0  0
  151.7194  144.0150  158.4977 N   0  0  0  0  0  0  0  0  0  0  0  0
  150.7577  143.6913  157.6151 N   0  3  0  0  0  0  0  0  0  0  0  0
  150.3685  142.4165  157.3613 C   0  0  0  0  0  0  0  0  0  0  0  0
  149.3520  142.2532  156.4109 N   0  0  0  0  0  0  0  0  0  0  0  0
  148.8647  140.9253  156.0689 C   0  0  0  0  0  0  0  0  0  0  0  0
  149.7907  140.2232  155.0642 C   0  0  2  0  0  0  0  0  0  0  0  0
  149.1045  139.0080  154.4076 C   0  0  0  0  0  0  0  0  0  0  0  0
  150.0501  138.3064  153.5168 N   0  3  0  0  0  0  0  0  0  0  0  0
  151.2862  137.9260  154.2279 C   0  0  0  0  0  0  0  0  0  0  0  0
  151.9062  139.1603  154.9035 C   0  0  0  0  0  0  0  0  0  0  0  0
  150.9454  139.7645  155.7642 O   0  0  0  0  0  0  0  0  0  0  0  0
  150.9918  141.3492  158.0488 C   0  0  0  0  0  0  0  0  0  0  0  0
  152.5082  140.8766  159.5305 H   0  0  0  0  0  0  0  0  0  0  0  0
  153.0944  143.2953  159.8689 H   0  0  0  0  0  0  0  0  0  0  0  0
  149.0796  143.0344  155.8312 H   0  0  0  0  0  0  0  0  0  0  0  0
  148.7665  140.3238  156.9735 H   0  0  0  0  0  0  0  0  0  0  0  0
  147.8687  141.0243  155.6355 H   0  0  0  0  0  0  0  0  0  0  0  0
  150.0872  140.9347  154.2907 H   0  0  0  0  0  0  0  0  0  0  0  0
  148.7493  138.3120  155.1691 H   0  0  0  0  0  0  0  0  0  0  0  0
  148.2358  139.3211  153.8277 H   0  0  0  0  0  0  0  0  0  0  0  0
  149.6099  137.4776  153.1424 H   0  0  0  0  0  0  0  0  0  0  0  0
  151.0511  137.1660  154.9740 H   0  0  0  0  0  0  0  0  0  0  0  0
  151.9875  137.4794  153.5230 H   0  0  0  0  0  0  0  0  0  0  0  0
  152.7767  138.8695  155.4920 H   0  0  0  0  0  0  0  0  0  0  0  0
  152.2505  139.8816  154.1605 H   0  0  0  0  0  0  0  0  0  0  0  0
  150.7139  140.3196  157.8797 H   0  0  0  0  0  0  0  0  0  0  0  0
  150.2939  138.9220  152.7536 H   0  0  0  0  0  0  0  0  0  0  0  0
  150.2958  144.4463  157.1079 H   0  0  0  0  0  0  0  0  0  0  0  0
  1 14  1  0  0  0  0
  1  2  2  0  0  0  0
  1 15  1  0  0  0  0
  2  3  1  0  0  0  0
  2 16  1  0  0  0  0
  3  4  2  0  0  0  0
  4  5  1  0  0  0  0
  4 30  1  0  0  0  0
  5  6  1  0  0  0  0
  5 14  2  0  0  0  0
  6  7  1  0  0  0  0
  6 17  1  0  0  0  0
  7  8  1  0  0  0  0
  7 18  1  0  0  0  0
  7 19  1  0  0  0  0
  8 13  1  0  0  0  0
  8  9  1  0  0  0  0
  8 20  1  0  0  0  0
  9 10  1  0  0  0  0
  9 21  1  0  0  0  0
  9 22  1  0  0  0  0
 10 11  1  0  0  0  0
 10 23  1  0  0  0  0
 10 29  1  0  0  0  0
 11 12  1  0  0  0  0
 11 24  1  0  0  0  0
 11 25  1  0  0  0  0
 12 13  1  0  0  0  0
 12 26  1  0  0  0  0
 12 27  1  0  0  0  0
 14 28  1  0  0  0  0
M  CHG  1   4   1
M  CHG  1  10   1
M  END
> <s_m_source_file>
AV-unprocessed.smi

> <i_m_source_file_index>
2564

> <i_lp_mmshare_version>
43012

> <i_f3d_flags>
0

> <s_epik_input>
W2NIXTFbY0hdW2NIXW5uYzFbTkhdW0NIMl1bQ0BASF0yW0NIMl1bTkhdW0NIMl1bQ0gyXU8y

> <s_epik_cmdline>
J2VwaWtfcHl0aG9uJywgJy1waCcsICc3LjAnLCAnLXRuJywgJzgnLCAnLW1hJywgJzIwMCcsICctbWV0YWxfYmluZGluZycsICctaW1hZScsICc8aW5maWxlLm1hZT4nLCAnLW9tYWUnLCAnPG91dGZpbGUubWFlPic=

> <r_lp_tautomer_probability>
0.966961

> <r_epik_Ionization_Penalty>
2.43489

> <r_epik_Ionization_Penalty_Charging>
2.43489

> <r_epik_Ionization_Penalty_Neutral>
2.70443e-06

> <r_epik_State_Penalty>
1.93608

> <r_epik_Charging_Adjusted_Penalty>
4.37096

> <i_epik_Tot_Q>
2

> <i_epik_Tot_abs_Q>
2

> <r_epik_Metal_State_Penalty>
1.94389

> <b_epik_Metal_Only>
0

> <s_lp_Force_Field>
OPLS_2005

> <r_lp_Energy>
28.6288

> <b_lp_Chiralities_Consistent>
1

> <s_lp_Variant>
AV-unprocessed.smi:2564-3

> <Gold.Version>
5.8.1

> <Gold.Id.Protein>
6NUR|6NUR_protein|mol2

> <Gold.PLP.Fitness>
46.2346

> <Gold.PLP.PLP>
-26.8093

> <Gold.PLP.part.hbond>
-4.2569

> <Gold.PLP.part.metal>
0.0000

> <Gold.PLP.part.buried>
-4.3865

> <Gold.PLP.part.nonpolar>
-19.7841

> <Gold.PLP.part.repulsive>
0.2170

> <Gold.PLP.ligand.clash>
0.0000

> <Gold.PLP.ligand.torsion>
0.2715

> <Gold.PLP.Chemscore.Hbond>
6.6560

> <Gold.PLP.Chemscore.CHOScore>
0.0000

> <Gold.PLP.Chemscore.Metal>
0.0000

> <Gold.Chemscore.Hbonds>
donor molecule, donor type, donor heavy atom, donor atom, acceptor molecule, acceptor atom, score
      L1  H     4    30       P1  8028  1.66
      L1  H     6    17       P1  8028  1.95
      L1  H    10    23       P1  7948  2.00
      L1  H    10    29       P1  7957  0.92

> <Gold.PLP.Chemscore.Internal.Correction>
0.0003

> <Gold.Rescore>
     Score         DG    S(hbond)    S(metal)    S(lipo)     H(rot)  DE(clash)    DE(int)     intcor
     17.89     -19.80       3.27        0.00      58.56       1.35       0.33       1.58       ----

> <Gold.Chemscore.Fitness>
17.8913

> <Gold.Chemscore.DG>
-19.8050

> <Gold.Chemscore.ZeroCoef>
-5.4800

> <Gold.Chemscore.Hbond>
3.2701

> <Gold.Chemscore.Metal>
0.0000

> <Gold.Chemscore.Lipo>
58.5617

> <Gold.Chemscore.Internal_Hbond>
0.0000

> <Gold.Chemscore.DEClash>
0.3308

> <Gold.Chemscore.DEInternal>
1.5829

> <Gold.Chemscore.Rot>
1.3472

> <Gold.Chemscore.Internal.Correction>
   9.000000E+99

> <Gold.Chemscore.Hbonds>
donor molecule, donor type, donor heavy atom, donor atom, acceptor molecule, acceptor atom, score
      L1  H     4    30       P1  8028  0.59
      L1  H     6    17       P1  8028  0.93
      L1  H    10    23       P1  7948  0.74
      L1  H    10    29       P1  7957  0.37

> <Gold.Chemscore.Hbond.Weighted>
-10.9222

> <Gold.Chemscore.Metal.Weighted>
-0.0000

> <Gold.Chemscore.Lipo.Weighted>
-6.8517

> <Gold.Chemscore.Internal_Hbond.Weighted>
0.0000

> <Gold.Chemscore.DEClash.Weighted>
0.3308

> <Gold.Chemscore.DEInternal.Weighted>
1.5829

> <Gold.Chemscore.Rot.Weighted>
3.4489

> <Gold.Chemscore.Internal.Correction.Weighted>
   9.000000E+99

> <Gold.Protein.RotatedTorsions>
[ 6907 6896 6895 6894 ] final   45.26 input  -60.11 | X-H torsion
[ 7974 7965 7964 7962 ] final -179.73 input  175.53 | X-H torsion
[ 8008 7997 7996 7995 ] final    9.15 input   59.86 | X-H torsion
[ 10167 10162 10161 10158 ] final   22.15 input  -65.29 | X-H torsion
[ 10718 10713 10712 10709 ] final   24.98 input   66.30 | X-H torsion
[ 10763 10752 10751 10750 ] final   93.67 input  -60.55 | X-H torsion
[ 11005 11000 10999 10996 ] final  -19.24 input  -57.11 | X-H torsion

> <Gold.Protein.ActiveResidues>
 VAL166  LYS551  ARG553  GLY616  TRP617  ASP618  TYR619  PRO620  LYS621  CYS622 
 ASP623  PHE694  ASN695  SER759  ASP760  ASP761  ALA762  ILE779  LEU786  VAL792 
 PHE793  MET794  SER795  GLU796  ALA797  LYS798  CYS799  TRP800  GLU811  SER814 

> <Gold.Protein.RotatedAtoms>
  152.2425  134.8215  160.0458 H   0  0  0  0  0  0  0  0  0  0  0  0  # atno 6907 bound_to 6896
  151.8924  133.3514  159.3811 H   0  0  0  0  0  0  0  0  0  0  0  0  # atno 6908 bound_to 6896
  150.7058  134.4836  159.5526 H   0  0  0  0  0  0  0  0  0  0  0  0  # atno 6909 bound_to 6896
  144.7139  140.0674  143.6430 H   0  0  0  0  0  0  0  0  0  0  0  0  # atno 7974 bound_to 7965
  154.7762  140.2811  155.6099 H   0  0  0  0  0  0  0  0  0  0  0  0  # atno 8008 bound_to 7997
  156.2942  140.2632  156.2504 H   0  0  0  0  0  0  0  0  0  0  0  0  # atno 8009 bound_to 7997
  154.9840  140.0374  157.2280 H   0  0  0  0  0  0  0  0  0  0  0  0  # atno 8010 bound_to 7997
  140.5371  143.9741  150.6498 H   0  0  0  0  0  0  0  0  0  0  0  0  # atno 10167 bound_to 10162
  157.1872  130.6829  149.6136 H   0  0  0  0  0  0  0  0  0  0  0  0  # atno 10718 bound_to 10713
  153.2329  135.4317  155.0615 H   0  0  0  0  0  0  0  0  0  0  0  0  # atno 10763 bound_to 10752
  154.8305  135.3384  154.6761 H   0  0  0  0  0  0  0  0  0  0  0  0  # atno 10764 bound_to 10752
  153.7187  135.7018  153.5074 H   0  0  0  0  0  0  0  0  0  0  0  0  # atno 10765 bound_to 10752
  140.8348  133.7970  155.9796 H   0  0  0  0  0  0  0  0  0  0  0  0  # atno 11005 bound_to 11000
  145.9812  139.2943  143.1040 LP  0  0  0  0  0  0  0  0  0  0  0  0  # atno 17320 bound_to 7965
  145.9008  140.9244  143.0504 LP  0  0  0  0  0  0  0  0  0  0  0  0  # atno 17321 bound_to 7965
  140.3132  143.3184  152.0858 LP  0  0  0  0  0  0  0  0  0  0  0  0  # atno 17342 bound_to 10162
  139.4975  144.6622  151.6437 LP  0  0  0  0  0  0  0  0  0  0  0  0  # atno 17343 bound_to 10162
  155.9716  130.4627  150.6154 LP  0  0  0  0  0  0  0  0  0  0  0  0  # atno 17370 bound_to 10713
  157.3895  131.0793  151.1406 LP  0  0  0  0  0  0  0  0  0  0  0  0  # atno 17371 bound_to 10713
  140.8960  134.2437  157.5068 LP  0  0  0  0  0  0  0  0  0  0  0  0  # atno 17394 bound_to 11000
  139.8704  134.9684  156.4629 LP  0  0  0  0  0  0  0  0  0  0  0  0  # atno 17395 bound_to 11000

$$$$
