AV-unprocessed.smi:914|AV-procd|sdf|4152|dock9
  -GOLD-   22720 2 53D 1   1.00000     0.00000
 Structure written by MMmdl.
 32 33  0  0  0  0  0  0  0  0  2 V2000
  150.3975  135.4313  154.8583 O   0  0  0  0  0  0  0  0  0  0  0  0
  150.6120  136.6335  155.0069 C   0  0  0  0  0  0  0  0  0  0  0  0
  151.8690  137.1445  155.1566 N   0  5  0  0  0  0  0  0  0  0  0  0
  152.1281  138.4787  155.3204 C   0  0  0  0  0  0  0  0  0  0  0  0
  153.2720  138.9119  155.4598 O   0  0  0  0  0  0  0  0  0  0  0  0
  151.0799  139.3558  155.3308 N   0  0  0  0  0  0  0  0  0  0  0  0
  151.2559  140.8035  155.5175 C   0  0  0  0  0  0  0  0  0  0  0  0
  150.0081  141.4444  156.1447 C   0  0  0  0  0  0  0  0  0  0  0  0
  150.3131  141.8517  157.4664 O   0  0  0  0  0  0  0  0  0  0  0  0
  151.2822  142.8816  157.5294 C   0  0  0  0  0  0  0  0  0  0  0  0
  151.0528  143.6762  158.8200 C   0  0  2  0  0  0  0  0  0  0  0  0
  151.9339  144.9191  158.9473 C   0  0  0  0  0  0  0  0  0  0  0  0
  151.9888  145.0998  160.4461 C   0  0  0  0  0  0  0  0  0  0  0  0
  152.0681  143.6540  160.9270 C   0  0  0  0  0  0  0  0  0  0  0  0
  151.3603  142.8796  159.9619 O   0  0  0  0  0  0  0  0  0  0  0  0
  149.7656  138.8804  155.1873 C   0  0  0  0  0  0  0  0  0  0  0  0
  149.4913  137.5712  155.0279 C   0  0  0  0  0  0  0  0  0  0  0  0
  147.8639  137.0162  154.8588 Cl  0  0  0  0  0  0  0  0  0  0  0  0
  152.1376  141.0277  156.1200 H   0  0  0  0  0  0  0  0  0  0  0  0
  151.4502  141.2675  154.5496 H   0  0  0  0  0  0  0  0  0  0  0  0
  149.6992  142.3124  155.5612 H   0  0  0  0  0  0  0  0  0  0  0  0
  149.1784  140.7356  156.1397 H   0  0  0  0  0  0  0  0  0  0  0  0
  152.2836  142.4490  157.5243 H   0  0  0  0  0  0  0  0  0  0  0  0
  151.2011  143.5388  156.6621 H   0  0  0  0  0  0  0  0  0  0  0  0
  150.0044  143.9683  158.8967 H   0  0  0  0  0  0  0  0  0  0  0  0
  152.9349  144.7263  158.5583 H   0  0  0  0  0  0  0  0  0  0  0  0
  151.5263  145.7848  158.4236 H   0  0  0  0  0  0  0  0  0  0  0  0
  152.8320  145.7072  160.7758 H   0  0  0  0  0  0  0  0  0  0  0  0
  151.0688  145.5666  160.8006 H   0  0  0  0  0  0  0  0  0  0  0  0
  153.1051  143.3167  160.9455 H   0  0  0  0  0  0  0  0  0  0  0  0
  151.6520  143.5251  161.9263 H   0  0  0  0  0  0  0  0  0  0  0  0
  148.9998  139.6416  155.2212 H   0  0  0  0  0  0  0  0  0  0  0  0
  1  2  2  0  0  0  0
  2 17  1  0  0  0  0
  2  3  1  0  0  0  0
  3  4  1  0  0  0  0
  4  5  2  0  0  0  0
  4  6  1  0  0  0  0
  6  7  1  0  0  0  0
  6 16  1  0  0  0  0
  7  8  1  0  0  0  0
  7 19  1  0  0  0  0
  7 20  1  0  0  0  0
  8  9  1  0  0  0  0
  8 21  1  0  0  0  0
  8 22  1  0  0  0  0
  9 10  1  0  0  0  0
 10 11  1  0  0  0  0
 10 23  1  0  0  0  0
 10 24  1  0  0  0  0
 11 15  1  0  0  0  0
 11 12  1  0  0  0  0
 11 25  1  0  0  0  0
 12 13  1  0  0  0  0
 12 26  1  0  0  0  0
 12 27  1  0  0  0  0
 13 14  1  0  0  0  0
 13 28  1  0  0  0  0
 13 29  1  0  0  0  0
 14 15  1  0  0  0  0
 14 30  1  0  0  0  0
 14 31  1  0  0  0  0
 16 17  2  0  0  0  0
 16 32  1  0  0  0  0
 17 18  1  0  0  0  0
M  CHG  1   3  -1
M  END
> <s_m_source_file>
AV-unprocessed.smi

> <i_m_source_file_index>
914

> <i_lp_mmshare_version>
43012

> <i_f3d_flags>
0

> <s_epik_input>
Tz1jMVtuSF1jKD1PKW4oW2NIXWMxQ2wpW0NIMl1bQ0gyXU9bQ0gyXVtDQEBIXTJbQ0gyXVtDSDJdW0NIMl1PMg==

> <s_epik_cmdline>
J2VwaWtfcHl0aG9uJywgJy1waCcsICc3LjAnLCAnLXRuJywgJzgnLCAnLW1hJywgJzIwMCcsICctbWV0YWxfYmluZGluZycsICctaW1hZScsICc8aW5maWxlLm1hZT4nLCAnLW9tYWUnLCAnPG91dGZpbGUubWFlPic=

> <r_epik_Ionization_Penalty>
1.76812

> <r_epik_Ionization_Penalty_Charging>
1.60097e-08

> <r_epik_Ionization_Penalty_Neutral>
1.76812

> <r_epik_State_Penalty>
1.87929

> <r_epik_Charging_Adjusted_Penalty>
1.87929

> <i_epik_Tot_Q>
-1

> <i_epik_Tot_abs_Q>
1

> <r_epik_Metal_State_Penalty>
0.0133872

> <b_epik_Metal_Only>
0

> <s_lp_Force_Field>
OPLS_2005

> <r_lp_Energy>
30.4793

> <b_lp_Chiralities_Consistent>
1

> <s_lp_Variant>
AV-unprocessed.smi:914-3

> <Gold.Version>
5.8.1

> <Gold.Id.Protein>
6NUR|6NUR_protein|mol2

> <Gold.PLP.Fitness>
41.9374

> <Gold.PLP.PLP>
-34.8462

> <Gold.PLP.part.hbond>
-2.6615

> <Gold.PLP.part.metal>
0.0000

> <Gold.PLP.part.buried>
-4.9490

> <Gold.PLP.part.nonpolar>
-27.8052

> <Gold.PLP.part.repulsive>
0.3083

> <Gold.PLP.ligand.clash>
0.0859

> <Gold.PLP.ligand.torsion>
0.9053

> <Gold.PLP.Chemscore.Hbond>
2.9840

> <Gold.PLP.Chemscore.CHOScore>
0.0000

> <Gold.PLP.Chemscore.Metal>
0.0000

> <Gold.Chemscore.Hbonds>
donor molecule, donor type, donor heavy atom, donor atom, acceptor molecule, acceptor atom, score
      P1  H  7997  8008       L1     5  1.00
      P1  H 10752 10765       L1     3  1.92

> <Gold.PLP.Chemscore.Internal.Correction>
0.0357

> <Gold.Rescore>
     Score         DG    S(hbond)    S(metal)    S(lipo)     H(rot)  DE(clash)    DE(int)     intcor
     13.95     -15.40       1.71        0.00      81.23       2.07       0.62       0.84       ----

> <Gold.Chemscore.Fitness>
13.9471

> <Gold.Chemscore.DG>
-15.4032

> <Gold.Chemscore.ZeroCoef>
-5.4800

> <Gold.Chemscore.Hbond>
1.7104

> <Gold.Chemscore.Metal>
0.0000

> <Gold.Chemscore.Lipo>
81.2316

> <Gold.Chemscore.Internal_Hbond>
0.0000

> <Gold.Chemscore.DEClash>
0.6192

> <Gold.Chemscore.DEInternal>
0.8369

> <Gold.Chemscore.Rot>
2.0678

> <Gold.Chemscore.Internal.Correction>
   9.000000E+99

> <Gold.Chemscore.Hbonds>
donor molecule, donor type, donor heavy atom, donor atom, acceptor molecule, acceptor atom, score
      P1  H  7997  8008       L1     5  0.98
      P1  H 10752 10765       L1     3  0.31

> <Gold.Chemscore.Hbond.Weighted>
-5.7127

> <Gold.Chemscore.Metal.Weighted>
-0.0000

> <Gold.Chemscore.Lipo.Weighted>
-9.5041

> <Gold.Chemscore.Internal_Hbond.Weighted>
0.0000

> <Gold.Chemscore.DEClash.Weighted>
0.6192

> <Gold.Chemscore.DEInternal.Weighted>
0.8369

> <Gold.Chemscore.Rot.Weighted>
5.2935

> <Gold.Chemscore.Internal.Correction.Weighted>
   9.000000E+99

> <Gold.Protein.RotatedTorsions>
[ 6907 6896 6895 6894 ] final -132.02 input  -60.11 | X-H torsion
[ 7974 7965 7964 7962 ] final   45.99 input  175.53 | X-H torsion
[ 8008 7997 7996 7995 ] final  -29.49 input   59.86 | X-H torsion
[ 10167 10162 10161 10158 ] final -161.92 input  -65.29 | X-H torsion
[ 10718 10713 10712 10709 ] final -150.04 input   66.30 | X-H torsion
[ 10763 10752 10751 10750 ] final -168.67 input  -60.55 | X-H torsion
[ 11005 11000 10999 10996 ] final -158.74 input  -57.11 | X-H torsion

> <Gold.Protein.ActiveResidues>
 VAL166  LYS551  ARG553  GLY616  TRP617  ASP618  TYR619  PRO620  LYS621  CYS622 
 ASP623  PHE694  ASN695  SER759  ASP760  ASP761  ALA762  ILE779  LEU786  VAL792 
 PHE793  MET794  SER795  GLU796  ALA797  LYS798  CYS799  TRP800  GLU811  SER814 

> <Gold.Protein.RotatedAtoms>
  150.9576  133.6480  159.2760 H   0  0  0  0  0  0  0  0  0  0  0  0  # atno 6907 bound_to 6896
  151.3814  135.0939  159.9507 H   0  0  0  0  0  0  0  0  0  0  0  0  # atno 6908 bound_to 6896
  152.5135  133.9110  159.7542 H   0  0  0  0  0  0  0  0  0  0  0  0  # atno 6909 bound_to 6896
  146.0430  139.4904  142.9766 H   0  0  0  0  0  0  0  0  0  0  0  0  # atno 7974 bound_to 7965
  154.4288  140.1817  156.1256 H   0  0  0  0  0  0  0  0  0  0  0  0  # atno 8008 bound_to 7997
  156.0108  140.3351  155.6914 H   0  0  0  0  0  0  0  0  0  0  0  0  # atno 8009 bound_to 7997
  155.6113  140.0650  157.2696 H   0  0  0  0  0  0  0  0  0  0  0  0  # atno 8010 bound_to 7997
  139.6430  144.0224  152.2106 H   0  0  0  0  0  0  0  0  0  0  0  0  # atno 10167 bound_to 10162
  156.4409  130.8121  151.2351 H   0  0  0  0  0  0  0  0  0  0  0  0  # atno 10718 bound_to 10713
  154.6604  135.2924  154.9874 H   0  0  0  0  0  0  0  0  0  0  0  0  # atno 10763 bound_to 10752
  154.0935  135.6587  153.4860 H   0  0  0  0  0  0  0  0  0  0  0  0  # atno 10764 bound_to 10752
  153.0426  135.5225  154.7552 H   0  0  0  0  0  0  0  0  0  0  0  0  # atno 10765 bound_to 10752
  140.6503  134.4458  157.5235 H   0  0  0  0  0  0  0  0  0  0  0  0  # atno 11005 bound_to 11000
  145.6852  141.0180  143.1585 LP  0  0  0  0  0  0  0  0  0  0  0  0  # atno 17320 bound_to 7965
  144.7084  139.8468  143.7422 LP  0  0  0  0  0  0  0  0  0  0  0  0  # atno 17321 bound_to 7965
  139.9919  144.6355  150.7807 LP  0  0  0  0  0  0  0  0  0  0  0  0  # atno 17342 bound_to 10162
  140.7500  143.2948  151.3233 LP  0  0  0  0  0  0  0  0  0  0  0  0  # atno 17343 bound_to 10162
  157.7506  131.0168  150.3560 LP  0  0  0  0  0  0  0  0  0  0  0  0  # atno 17370 bound_to 10713
  156.3918  130.3899  149.7024 LP  0  0  0  0  0  0  0  0  0  0  0  0  # atno 17371 bound_to 10713
  139.9048  134.8473  156.1749 LP  0  0  0  0  0  0  0  0  0  0  0  0  # atno 17394 bound_to 11000
  141.0542  133.6874  156.1828 LP  0  0  0  0  0  0  0  0  0  0  0  0  # atno 17395 bound_to 11000

$$$$
