AV-unprocessed.smi:149|AV-procd|sdf|1238|dock1
  -GOLD-   2262018453D 1   1.00000     0.00000
 Structure written by MMmdl.
 59 63  0  0  0  0  0  0  0  0  1 V2000
  153.1483  138.4737  154.6103 C   0  0  0  0  0  0  0  0  0  0  0  0
  151.8665  138.2129  155.4220 C   0  0  2  0  0  0  0  0  0  0  0  0
  151.7362  136.7176  155.7646 C   0  0  0  0  0  0  0  0  0  0  0  0
  150.4531  136.2820  155.2460 N   0  0  0  0  0  0  0  0  0  0  0  0
  149.9139  135.0951  155.6345 C   0  0  0  0  0  0  0  0  0  0  0  0
  149.7179  134.8739  156.9623 N   0  0  0  0  0  0  0  0  0  0  0  0
  149.1829  133.7283  157.3916 C   0  0  0  0  0  0  0  0  0  0  0  0
  148.7671  132.6833  156.6760 N   0  0  0  0  0  0  0  0  0  0  0  0
  148.9459  132.8968  155.3413 C   0  0  0  0  0  0  0  0  0  0  0  0
  149.5119  134.0583  154.7389 C   0  0  0  0  0  0  0  0  0  0  0  0
  149.5348  133.8969  153.3571 N   0  0  0  0  0  0  0  0  0  0  0  0
  149.0247  132.7130  153.1580 C   0  0  0  0  0  0  0  0  0  0  0  0
  148.6147  132.0547  154.2941 N   0  0  0  0  0  0  0  0  0  0  0  0
  148.0516  130.7384  154.3707 C   0  0  0  0  0  0  0  0  0  0  0  0
  148.6139  129.5805  153.5392 C   0  0  0  0  0  0  0  0  0  0  0  0
  147.1910  128.9827  153.4329 C   0  0  0  0  0  0  0  0  0  0  0  0
  146.7758  128.3729  152.0792 C   0  0  0  0  0  0  0  0  0  0  0  0
  146.7483  129.3285  151.0377 O   0  0  0  0  0  0  0  0  0  0  0  0
  146.8170  127.9618  154.5243 C   0  0  0  0  0  0  0  0  0  0  0  0
  145.4413  127.6410  154.4851 O   0  0  0  0  0  0  0  0  0  0  0  0
  146.7013  130.4203  153.7204 C   0  0  0  0  0  0  0  0  0  0  0  0
  149.6132  137.4481  155.0540 C   0  0  0  0  0  0  0  0  0  0  0  0
  150.5632  138.5935  154.6737 C   0  0  1  0  0  0  0  0  0  0  0  0
  150.0024  139.9208  154.9784 N   0  0  0  0  0  0  0  0  0  0  0  0
  149.8523  140.1265  156.4206 C   0  0  0  0  0  0  0  0  0  0  0  0
  149.2604  141.5058  156.7574 C   0  0  0  0  0  0  0  0  0  0  0  0
  148.0052  141.6556  156.1055 O   0  0  0  0  0  0  0  0  0  0  0  0
  148.1101  141.5218  154.6934 C   0  0  0  0  0  0  0  0  0  0  0  0
  148.7041  140.1461  154.3439 C   0  0  0  0  0  0  0  0  0  0  0  0
  153.1448  137.9095  153.6770 H   0  0  0  0  0  0  0  0  0  0  0  0
  154.0315  138.1723  155.1743 H   0  0  0  0  0  0  0  0  0  0  0  0
  153.2712  139.5246  154.3552 H   0  0  0  0  0  0  0  0  0  0  0  0
  151.9188  138.7644  156.3619 H   0  0  0  0  0  0  0  0  0  0  0  0
  152.5336  136.1366  155.3008 H   0  0  0  0  0  0  0  0  0  0  0  0
  151.7865  136.5606  156.8430 H   0  0  0  0  0  0  0  0  0  0  0  0
  149.0669  133.6381  158.4618 H   0  0  0  0  0  0  0  0  0  0  0  0
  148.9256  132.2911  152.1683 H   0  0  0  0  0  0  0  0  0  0  0  0
  148.0388  130.4797  155.4309 H   0  0  0  0  0  0  0  0  0  0  0  0
  149.0173  129.9150  152.5820 H   0  0  0  0  0  0  0  0  0  0  0  0
  149.3386  128.9605  154.0675 H   0  0  0  0  0  0  0  0  0  0  0  0
  147.4610  127.5805  151.7772 H   0  0  0  0  0  0  0  0  0  0  0  0
  145.7845  127.9231  152.1453 H   0  0  0  0  0  0  0  0  0  0  0  0
  147.6218  129.6698  150.9205 H   0  0  0  0  0  0  0  0  0  0  0  0
  147.3785  127.0342  154.4117 H   0  0  0  0  0  0  0  0  0  0  0  0
  147.0580  128.3435  155.5170 H   0  0  0  0  0  0  0  0  0  0  0  0
  144.9440  128.4400  154.5714 H   0  0  0  0  0  0  0  0  0  0  0  0
  145.8499  130.4882  154.3985 H   0  0  0  0  0  0  0  0  0  0  0  0
  146.5276  131.0156  152.8226 H   0  0  0  0  0  0  0  0  0  0  0  0
  148.8693  137.2751  154.2753 H   0  0  0  0  0  0  0  0  0  0  0  0
  149.0912  137.6684  155.9869 H   0  0  0  0  0  0  0  0  0  0  0  0
  150.7551  138.5196  153.6018 H   0  0  0  0  0  0  0  0  0  0  0  0
  149.2119  139.3489  156.8397 H   0  0  0  0  0  0  0  0  0  0  0  0
  150.8168  140.0379  156.9203 H   0  0  0  0  0  0  0  0  0  0  0  0
  149.1168  141.6046  157.8333 H   0  0  0  0  0  0  0  0  0  0  0  0
  149.9378  142.3037  156.4492 H   0  0  0  0  0  0  0  0  0  0  0  0
  147.1199  141.6296  154.2507 H   0  0  0  0  0  0  0  0  0  0  0  0
  148.7305  142.3234  154.2899 H   0  0  0  0  0  0  0  0  0  0  0  0
  148.8027  140.0926  153.2607 H   0  0  0  0  0  0  0  0  0  0  0  0
  148.0048  139.3629  154.6406 H   0  0  0  0  0  0  0  0  0  0  0  0
  1  2  1  0  0  0  0
  1 30  1  0  0  0  0
  1 31  1  0  0  0  0
  1 32  1  0  0  0  0
  2 23  1  0  0  0  0
  2  3  1  0  0  0  0
  2 33  1  0  0  0  0
  3  4  1  0  0  0  0
  3 34  1  0  0  0  0
  3 35  1  0  0  0  0
  4  5  1  0  0  0  0
  4 22  1  0  0  0  0
  5 10  1  0  0  0  0
  5  6  2  0  0  0  0
  6  7  1  0  0  0  0
  7  8  2  0  0  0  0
  7 36  1  0  0  0  0
  8  9  1  0  0  0  0
  9 13  1  0  0  0  0
  9 10  2  0  0  0  0
 10 11  1  0  0  0  0
 11 12  2  0  0  0  0
 12 13  1  0  0  0  0
 12 37  1  0  0  0  0
 13 14  1  0  0  0  0
 14 21  1  0  0  0  0
 14 15  1  0  0  0  0
 14 38  1  0  0  0  0
 15 16  1  0  0  0  0
 15 39  1  0  0  0  0
 15 40  1  0  0  0  0
 16 17  1  0  0  0  0
 16 19  1  0  0  0  0
 16 21  1  0  0  0  0
 17 18  1  0  0  0  0
 17 41  1  0  0  0  0
 17 42  1  0  0  0  0
 18 43  1  0  0  0  0
 19 20  1  0  0  0  0
 19 44  1  0  0  0  0
 19 45  1  0  0  0  0
 20 46  1  0  0  0  0
 21 47  1  0  0  0  0
 21 48  1  0  0  0  0
 22 23  1  0  0  0  0
 22 49  1  0  0  0  0
 22 50  1  0  0  0  0
 23 24  1  0  0  0  0
 23 51  1  0  0  0  0
 24 29  1  0  0  0  0
 24 25  1  0  0  0  0
 25 26  1  0  0  0  0
 25 52  1  0  0  0  0
 25 53  1  0  0  0  0
 26 27  1  0  0  0  0
 26 54  1  0  0  0  0
 26 55  1  0  0  0  0
 27 28  1  0  0  0  0
 28 29  1  0  0  0  0
 28 56  1  0  0  0  0
 28 57  1  0  0  0  0
 29 58  1  0  0  0  0
 29 59  1  0  0  0  0
M  END
> <s_m_source_file>
AV-unprocessed.smi

> <i_m_source_file_index>
149

> <i_lp_mmshare_version>
43012

> <i_f3d_flags>
0

> <s_epik_input>
W0NIMl0xW0NIMl1PW0NIMl1bQ0gyXU4xW0NAQEhdMltDSDJdTihbQ0gyXVtDQEhdMltDSDNdKWMobltjSF1uMyljKGMzNCluW2NIXW40W0NIXShbQ0gyXTUpW0NIMl1DNShbQ0gyXVtPSF0pW0NIMl1bT0hd

> <s_epik_cmdline>
J2VwaWtfcHl0aG9uJywgJy1waCcsICc3LjAnLCAnLXRuJywgJzgnLCAnLW1hJywgJzIwMCcsICctbWV0YWxfYmluZGluZycsICctaW1hZScsICc8aW5maWxlLm1hZT4nLCAnLW9tYWUnLCAnPG91dGZpbGUubWFlPic=

> <r_lp_tautomer_probability>
1

> <r_epik_Ionization_Penalty>
0.41918

> <r_epik_Ionization_Penalty_Charging>
0

> <r_epik_Ionization_Penalty_Neutral>
0.41918

> <r_epik_State_Penalty>
0.654916

> <r_epik_Charging_Adjusted_Penalty>
0.654916

> <i_epik_Tot_Q>
0

> <i_epik_Tot_abs_Q>
0

> <r_epik_Metal_State_Penalty>
0.653217

> <b_epik_Metal_Only>
0

> <s_lp_Force_Field>
OPLS_2005

> <r_lp_Energy>
75.7626

> <b_lp_Chiralities_Consistent>
1

> <s_lp_Variant>
AV-unprocessed.smi:149-5

> <Gold.Version>
5.8.1

> <Gold.Id.Protein>
6NUR|6NUR_protein|mol2

> <Gold.PLP.Fitness>
43.7644

> <Gold.PLP.PLP>
-35.0971

> <Gold.PLP.part.hbond>
-2.2796

> <Gold.PLP.part.metal>
0.0000

> <Gold.PLP.part.buried>
-2.4660

> <Gold.PLP.part.nonpolar>
-33.5369

> <Gold.PLP.part.repulsive>
3.1456

> <Gold.PLP.ligand.clash>
0.0000

> <Gold.PLP.ligand.torsion>
0.8842

> <Gold.PLP.Chemscore.Hbond>
2.1462

> <Gold.PLP.Chemscore.CHOScore>
1.0000

> <Gold.PLP.Chemscore.Metal>
0.0000

> <Gold.Chemscore.Hbonds>
donor molecule, donor type, donor heavy atom, donor atom, acceptor molecule, acceptor atom, score
      L1  H    18    43       P1 10747  1.00
      L1  H    20    46       P1 10956  1.00
      P1  H  7989  7998       L1    24  0.04
      L1  C    12    37       P1 10747  1.00

> <Gold.PLP.Chemscore.Internal.Correction>
0.9970

> <Gold.Rescore>
     Score         DG    S(hbond)    S(metal)    S(lipo)     H(rot)  DE(clash)    DE(int)     intcor
     12.02     -13.24       1.92        0.00      84.55       3.34       0.22       0.99       ----

> <Gold.Chemscore.Fitness>
12.0187

> <Gold.Chemscore.DG>
-13.2376

> <Gold.Chemscore.ZeroCoef>
-5.4800

> <Gold.Chemscore.Hbond>
1.9222

> <Gold.Chemscore.Metal>
0.0000

> <Gold.Chemscore.Lipo>
84.5468

> <Gold.Chemscore.Internal_Hbond>
0.0000

> <Gold.Chemscore.DEClash>
0.2244

> <Gold.Chemscore.DEInternal>
0.9945

> <Gold.Chemscore.Rot>
3.3416

> <Gold.Chemscore.Internal.Correction>
   9.000000E+99

> <Gold.Chemscore.Hbonds>
donor molecule, donor type, donor heavy atom, donor atom, acceptor molecule, acceptor atom, score
      L1  H    18    43       P1 10747  0.97
      L1  H    20    46       P1 10956  0.94

> <Gold.Chemscore.Hbond.Weighted>
-6.4200

> <Gold.Chemscore.Metal.Weighted>
-0.0000

> <Gold.Chemscore.Lipo.Weighted>
-9.8920

> <Gold.Chemscore.Internal_Hbond.Weighted>
0.0000

> <Gold.Chemscore.DEClash.Weighted>
0.2244

> <Gold.Chemscore.DEInternal.Weighted>
0.9945

> <Gold.Chemscore.Rot.Weighted>
8.5545

> <Gold.Chemscore.Internal.Correction.Weighted>
   9.000000E+99

> <Gold.Protein.RotatedTorsions>
[ 6907 6896 6895 6894 ] final  115.90 input  -60.11 | X-H torsion
[ 7974 7965 7964 7962 ] final -100.97 input  175.53 | X-H torsion
[ 8008 7997 7996 7995 ] final  -67.77 input   59.86 | X-H torsion
[ 10167 10162 10161 10158 ] final   44.41 input  -65.29 | X-H torsion
[ 10718 10713 10712 10709 ] final -111.19 input   66.30 | X-H torsion
[ 10763 10752 10751 10750 ] final  -69.91 input  -60.55 | X-H torsion
[ 11005 11000 10999 10996 ] final  -11.70 input  -57.11 | X-H torsion

> <Gold.Protein.ActiveResidues>
 VAL166  LYS551  ARG553  GLY616  TRP617  ASP618  TYR619  PRO620  LYS621  CYS622 
 ASP623  PHE694  ASN695  SER759  ASP760  ASP761  ALA762  ILE779  LEU786  VAL792 
 PHE793  MET794  SER795  GLU796  ALA797  LYS798  CYS799  TRP800  GLU811  SER814 

> <Gold.Protein.RotatedAtoms>
  152.4712  133.8035  159.6965 H   0  0  0  0  0  0  0  0  0  0  0  0  # atno 6907 bound_to 6896
  150.8703  133.7506  159.2970 H   0  0  0  0  0  0  0  0  0  0  0  0  # atno 6908 bound_to 6896
  151.5043  135.1066  159.9889 H   0  0  0  0  0  0  0  0  0  0  0  0  # atno 6909 bound_to 6896
  145.2877  140.9344  143.2896 H   0  0  0  0  0  0  0  0  0  0  0  0  # atno 7974 bound_to 7965
  154.4822  140.0886  156.7404 H   0  0  0  0  0  0  0  0  0  0  0  0  # atno 8008 bound_to 7997
  155.4441  140.3455  155.4275 H   0  0  0  0  0  0  0  0  0  0  0  0  # atno 8009 bound_to 7997
  156.1209  140.1474  156.9194 H   0  0  0  0  0  0  0  0  0  0  0  0  # atno 8010 bound_to 7997
  140.3345  144.2547  150.6163 H   0  0  0  0  0  0  0  0  0  0  0  0  # atno 10167 bound_to 10162
  156.0633  130.5854  150.8339 H   0  0  0  0  0  0  0  0  0  0  0  0  # atno 10718 bound_to 10713
  154.4102  135.6011  153.5948 H   0  0  0  0  0  0  0  0  0  0  0  0  # atno 10763 bound_to 10752
  152.9790  135.5927  154.4079 H   0  0  0  0  0  0  0  0  0  0  0  0  # atno 10764 bound_to 10752
  154.3890  135.2842  155.2144 H   0  0  0  0  0  0  0  0  0  0  0  0  # atno 10765 bound_to 10752
  140.7580  133.8538  155.9100 H   0  0  0  0  0  0  0  0  0  0  0  0  # atno 11005 bound_to 11000
  144.9199  139.4424  143.6546 LP  0  0  0  0  0  0  0  0  0  0  0  0  # atno 17320 bound_to 7965
  146.3195  139.8054  142.8956 LP  0  0  0  0  0  0  0  0  0  0  0  0  # atno 17321 bound_to 7965
  140.5366  143.2232  151.8153 LP  0  0  0  0  0  0  0  0  0  0  0  0  # atno 17342 bound_to 10162
  139.4850  144.4653  151.9491 LP  0  0  0  0  0  0  0  0  0  0  0  0  # atno 17343 bound_to 10162
  157.5657  131.0946  150.9493 LP  0  0  0  0  0  0  0  0  0  0  0  0  # atno 17370 bound_to 10713
  156.9721  130.5495  149.5291 LP  0  0  0  0  0  0  0  0  0  0  0  0  # atno 17371 bound_to 10713
  140.9689  134.1557  157.4592 LP  0  0  0  0  0  0  0  0  0  0  0  0  # atno 17394 bound_to 11000
  139.8776  134.9972  156.5832 LP  0  0  0  0  0  0  0  0  0  0  0  0  # atno 17395 bound_to 11000

$$$$
