AV-unprocessed.smi:212|AV-procd|sdf|1622|dock8
  -GOLD-   2262019563D 1   1.00000     0.00000
 Structure written by MMmdl.
 65 68  0  0  0  0  0  0  0  0  2 V2000
  147.5562  131.2426  153.5143 C   0  0  0  0  0  0  0  0  0  0  0  0
  148.0029  132.7074  153.3720 C   0  0  1  0  0  0  0  0  0  0  0  0
  147.5144  133.3404  152.0510 C   0  0  0  0  0  0  0  0  0  0  0  0
  146.0529  133.6110  152.0762 N   0  3  2  0  0  0  0  0  0  0  0  0
  145.5284  134.1128  150.7785 C   0  0  0  0  0  0  0  0  0  0  0  0
  144.7132  133.0457  150.0105 C   0  0  0  0  0  0  0  0  0  0  0  0
  145.6474  131.9369  149.4981 C   0  0  0  0  0  0  0  0  0  0  0  0
  143.5880  132.4400  150.8701 C   0  0  0  0  0  0  0  0  0  0  0  0
  144.1294  133.6378  148.8672 O   0  0  0  0  0  0  0  0  0  0  0  0
  145.6601  134.4547  153.2343 C   0  0  0  0  0  0  0  0  0  0  0  0
  146.1387  133.8324  154.5585 C   0  0  0  0  0  0  0  0  0  0  0  0
  147.5673  133.5171  154.5121 N   0  0  0  0  0  0  0  0  0  0  0  0
  148.4561  134.4433  154.9582 C   0  0  0  0  0  0  0  0  0  0  0  0
  149.7908  134.2324  154.8060 N   0  0  0  0  0  0  0  0  0  0  0  0
  150.6727  135.1321  155.2504 C   0  0  0  0  0  0  0  0  0  0  0  0
  150.4411  136.2952  155.8608 N   0  0  0  0  0  0  0  0  0  0  0  0
  149.1043  136.5198  156.0075 C   0  0  0  0  0  0  0  0  0  0  0  0
  148.0540  135.6529  155.5928 C   0  0  0  0  0  0  0  0  0  0  0  0
  146.8232  136.2183  155.9062 N   0  0  0  0  0  0  0  0  0  0  0  0
  147.1283  137.3529  156.4750 C   0  0  0  0  0  0  0  0  0  0  0  0
  148.4757  137.6190  156.5658 N   0  0  0  0  0  0  0  0  0  0  0  0
  149.0885  138.8064  157.1369 C   0  0  0  0  0  0  0  0  0  0  0  0
  150.1501  139.4554  156.2142 C   0  0  1  0  0  0  0  0  0  0  0  0
  149.4780  140.0620  154.9593 C   0  0  0  0  0  0  0  0  0  0  0  0
  150.1391  139.6360  153.7859 O   0  0  0  0  0  0  0  0  0  0  0  0
  151.0760  140.4535  156.9670 C   0  0  2  0  0  0  0  0  0  0  0  0
  151.8434  139.8802  158.1563 C   0  0  0  0  0  0  0  0  0  0  0  0
  151.9365  141.0689  159.1026 C   0  0  0  0  0  0  0  0  0  0  0  0
  150.6731  141.6898  158.9397 O   0  0  0  0  0  0  0  0  0  0  0  0
  150.3708  141.6916  157.5502 C   0  0  0  0  0  0  0  0  0  0  0  0
  147.9389  130.6375  152.6922 H   0  0  0  0  0  0  0  0  0  0  0  0
  146.4708  131.1419  153.5172 H   0  0  0  0  0  0  0  0  0  0  0  0
  147.9338  130.8100  154.4415 H   0  0  0  0  0  0  0  0  0  0  0  0
  149.0918  132.6934  153.3272 H   0  0  0  0  0  0  0  0  0  0  0  0
  148.0422  134.2796  151.8768 H   0  0  0  0  0  0  0  0  0  0  0  0
  147.7584  132.6832  151.2153 H   0  0  0  0  0  0  0  0  0  0  0  0
  144.9337  135.0145  150.9350 H   0  0  0  0  0  0  0  0  0  0  0  0
  146.3597  134.4244  150.1439 H   0  0  0  0  0  0  0  0  0  0  0  0
  146.1366  131.4200  150.3245 H   0  0  0  0  0  0  0  0  0  0  0  0
  146.4304  132.3398  148.8542 H   0  0  0  0  0  0  0  0  0  0  0  0
  145.1018  131.1888  148.9217 H   0  0  0  0  0  0  0  0  0  0  0  0
  143.9883  131.9831  151.7758 H   0  0  0  0  0  0  0  0  0  0  0  0
  143.0459  131.6664  150.3247 H   0  0  0  0  0  0  0  0  0  0  0  0
  142.8582  133.1913  151.1744 H   0  0  0  0  0  0  0  0  0  0  0  0
  144.8140  133.8315  148.2442 H   0  0  0  0  0  0  0  0  0  0  0  0
  146.0834  135.4526  153.1120 H   0  0  0  0  0  0  0  0  0  0  0  0
  144.5776  134.5760  153.2628 H   0  0  0  0  0  0  0  0  0  0  0  0
  145.9098  134.4915  155.3969 H   0  0  0  0  0  0  0  0  0  0  0  0
  145.5890  132.9108  154.7499 H   0  0  0  0  0  0  0  0  0  0  0  0
  151.7126  134.8858  155.0938 H   0  0  0  0  0  0  0  0  0  0  0  0
  146.3744  138.0369  156.8376 H   0  0  0  0  0  0  0  0  0  0  0  0
  148.2906  139.5163  157.3579 H   0  0  0  0  0  0  0  0  0  0  0  0
  149.5364  138.5422  158.0955 H   0  0  0  0  0  0  0  0  0  0  0  0
  150.8039  138.6535  155.8671 H   0  0  0  0  0  0  0  0  0  0  0  0
  148.4298  139.7705  154.8921 H   0  0  0  0  0  0  0  0  0  0  0  0
  149.5035  141.1507  154.9748 H   0  0  0  0  0  0  0  0  0  0  0  0
  149.5779  139.8095  153.0453 H   0  0  0  0  0  0  0  0  0  0  0  0
  151.8123  140.8433  156.2633 H   0  0  0  0  0  0  0  0  0  0  0  0
  151.2903  139.0791  158.6445 H   0  0  0  0  0  0  0  0  0  0  0  0
  152.8228  139.4892  157.8813 H   0  0  0  0  0  0  0  0  0  0  0  0
  152.1126  140.7736  160.1370 H   0  0  0  0  0  0  0  0  0  0  0  0
  152.7285  141.7548  158.7965 H   0  0  0  0  0  0  0  0  0  0  0  0
  150.7722  142.6015  157.1015 H   0  0  0  0  0  0  0  0  0  0  0  0
  149.2928  141.7019  157.3910 H   0  0  0  0  0  0  0  0  0  0  0  0
  145.6132  132.7130  152.2190 H   0  0  0  0  0  0  0  0  0  0  0  0
  1  2  1  0  0  0  0
  1 31  1  0  0  0  0
  1 32  1  0  0  0  0
  1 33  1  0  0  0  0
  2 12  1  0  0  0  0
  2  3  1  0  0  0  0
  2 34  1  0  0  0  0
  3  4  1  0  0  0  0
  3 35  1  0  0  0  0
  3 36  1  0  0  0  0
  4  5  1  0  0  0  0
  4 10  1  0  0  0  0
  4 65  1  0  0  0  0
  5  6  1  0  0  0  0
  5 37  1  0  0  0  0
  5 38  1  0  0  0  0
  6  7  1  0  0  0  0
  6  8  1  0  0  0  0
  6  9  1  0  0  0  0
  7 39  1  0  0  0  0
  7 40  1  0  0  0  0
  7 41  1  0  0  0  0
  8 42  1  0  0  0  0
  8 43  1  0  0  0  0
  8 44  1  0  0  0  0
  9 45  1  0  0  0  0
 10 11  1  0  0  0  0
 10 46  1  0  0  0  0
 10 47  1  0  0  0  0
 11 12  1  0  0  0  0
 11 48  1  0  0  0  0
 11 49  1  0  0  0  0
 12 13  1  0  0  0  0
 13 18  1  0  0  0  0
 13 14  2  0  0  0  0
 14 15  1  0  0  0  0
 15 16  2  0  0  0  0
 15 50  1  0  0  0  0
 16 17  1  0  0  0  0
 17 21  1  0  0  0  0
 17 18  2  0  0  0  0
 18 19  1  0  0  0  0
 19 20  2  0  0  0  0
 20 21  1  0  0  0  0
 20 51  1  0  0  0  0
 21 22  1  0  0  0  0
 22 23  1  0  0  0  0
 22 52  1  0  0  0  0
 22 53  1  0  0  0  0
 23 24  1  0  0  0  0
 23 26  1  0  0  0  0
 23 54  1  0  0  0  0
 24 25  1  0  0  0  0
 24 55  1  0  0  0  0
 24 56  1  0  0  0  0
 25 57  1  0  0  0  0
 26 30  1  0  0  0  0
 26 27  1  0  0  0  0
 26 58  1  0  0  0  0
 27 28  1  0  0  0  0
 27 59  1  0  0  0  0
 27 60  1  0  0  0  0
 28 29  1  0  0  0  0
 28 61  1  0  0  0  0
 28 62  1  0  0  0  0
 29 30  1  0  0  0  0
 30 63  1  0  0  0  0
 30 64  1  0  0  0  0
M  CHG  1   4   1
M  END
> <s_m_source_file>
AV-unprocessed.smi

> <i_m_source_file_index>
212

> <i_lp_mmshare_version>
43012

> <i_f3d_flags>
0

> <s_epik_input>
W0NIM11bQ0BASF0xW0NIMl1OKFtDSDJdQyhbQ0gzXSkoW0NIM10pW09IXSlbQ0gyXVtDSDJdTjFjKG5bY0hdbjIpYyhjMjMpbltjSF1uM1tDSDJdW0NASF0oW0NIMl1bT0hdKVtDQEBIXTRbQ0gyXVtDSDJdT1tDSDJdNA==

> <s_epik_cmdline>
J2VwaWtfcHl0aG9uJywgJy1waCcsICc3LjAnLCAnLXRuJywgJzgnLCAnLW1hJywgJzIwMCcsICctbWV0YWxfYmluZGluZycsICctaW1hZScsICc8aW5maWxlLm1hZT4nLCAnLW9tYWUnLCAnPG91dGZpbGUubWFlPic=

> <r_lp_tautomer_probability>
1

> <r_epik_Ionization_Penalty>
0.00182193

> <r_epik_Ionization_Penalty_Charging>
0.00173996

> <r_epik_Ionization_Penalty_Neutral>
8.19718e-05

> <r_epik_State_Penalty>
-0

> <r_epik_Charging_Adjusted_Penalty>
0.00173996

> <i_epik_Tot_Q>
1

> <i_epik_Tot_abs_Q>
1

> <r_epik_Metal_State_Penalty>
-0

> <b_epik_Metal_Only>
0

> <s_lp_Force_Field>
OPLS_2005

> <r_lp_Energy>
60.7413

> <b_lp_Chiralities_Consistent>
1

> <s_lp_Variant>
AV-unprocessed.smi:212-6

> <Gold.Version>
5.8.1

> <Gold.Id.Protein>
6NUR|6NUR_protein|mol2

> <Gold.PLP.Fitness>
46.3347

> <Gold.PLP.PLP>
-40.5696

> <Gold.PLP.part.hbond>
-3.8400

> <Gold.PLP.part.metal>
0.0000

> <Gold.PLP.part.buried>
-7.3152

> <Gold.PLP.part.nonpolar>
-29.5525

> <Gold.PLP.part.repulsive>
0.2266

> <Gold.PLP.ligand.clash>
0.0000

> <Gold.PLP.ligand.torsion>
1.7544

> <Gold.PLP.Chemscore.Hbond>
2.7440

> <Gold.PLP.Chemscore.CHOScore>
0.0000

> <Gold.PLP.Chemscore.Metal>
0.0000

> <Gold.Chemscore.Hbonds>
donor molecule, donor type, donor heavy atom, donor atom, acceptor molecule, acceptor atom, score
      L1  H     9    45       P1  7921  1.00
      L1  H    25    57       P1  7957  0.83
      P1  H  7989  7998       L1    25  0.93

> <Gold.PLP.Chemscore.Internal.Correction>
1.0418

> <Gold.Rescore>
     Score         DG    S(hbond)    S(metal)    S(lipo)     H(rot)  DE(clash)    DE(int)     intcor
     13.50     -16.30       2.58        0.00      93.16       3.40       0.03       2.76       ----

> <Gold.Chemscore.Fitness>
13.5023

> <Gold.Chemscore.DG>
-16.2987

> <Gold.Chemscore.ZeroCoef>
-5.4800

> <Gold.Chemscore.Hbond>
2.5806

> <Gold.Chemscore.Metal>
0.0000

> <Gold.Chemscore.Lipo>
93.1627

> <Gold.Chemscore.Internal_Hbond>
0.0000

> <Gold.Chemscore.DEClash>
0.0323

> <Gold.Chemscore.DEInternal>
2.7641

> <Gold.Chemscore.Rot>
3.3986

> <Gold.Chemscore.Internal.Correction>
   9.000000E+99

> <Gold.Chemscore.Hbonds>
donor molecule, donor type, donor heavy atom, donor atom, acceptor molecule, acceptor atom, score
      L1  H     9    45       P1  7921  0.96
      L1  H    25    57       P1  7957  0.83
      P1  H  7989  7998       L1    25  0.20

> <Gold.Chemscore.Hbond.Weighted>
-8.6191

> <Gold.Chemscore.Metal.Weighted>
-0.0000

> <Gold.Chemscore.Lipo.Weighted>
-10.9000

> <Gold.Chemscore.Internal_Hbond.Weighted>
0.0000

> <Gold.Chemscore.DEClash.Weighted>
0.0323

> <Gold.Chemscore.DEInternal.Weighted>
2.7641

> <Gold.Chemscore.Rot.Weighted>
8.7005

> <Gold.Chemscore.Internal.Correction.Weighted>
   9.000000E+99

> <Gold.Protein.RotatedTorsions>
[ 6907 6896 6895 6894 ] final  168.14 input  -60.11 | X-H torsion
[ 7974 7965 7964 7962 ] final   42.71 input  175.53 | X-H torsion
[ 8008 7997 7996 7995 ] final   45.11 input   59.86 | X-H torsion
[ 10167 10162 10161 10158 ] final   51.74 input  -65.29 | X-H torsion
[ 10718 10713 10712 10709 ] final   86.22 input   66.30 | X-H torsion
[ 10763 10752 10751 10750 ] final   38.13 input  -60.55 | X-H torsion
[ 11005 11000 10999 10996 ] final   62.07 input  -57.11 | X-H torsion

> <Gold.Protein.ActiveResidues>
 VAL166  LYS551  ARG553  GLY616  TRP617  ASP618  TYR619  PRO620  LYS621  CYS622 
 ASP623  PHE694  ASN695  SER759  ASP760  ASP761  ALA762  ILE779  LEU786  VAL792 
 PHE793  MET794  SER795  GLU796  ALA797  LYS798  CYS799  TRP800  GLU811  SER814 

> <Gold.Protein.RotatedAtoms>
  151.8523  133.3442  159.3677 H   0  0  0  0  0  0  0  0  0  0  0  0  # atno 6907 bound_to 6896
  150.7203  134.5287  159.5698 H   0  0  0  0  0  0  0  0  0  0  0  0  # atno 6908 bound_to 6896
  152.2783  134.7858  160.0452 H   0  0  0  0  0  0  0  0  0  0  0  0  # atno 6909 bound_to 6896
  146.0718  139.5270  142.9593 H   0  0  0  0  0  0  0  0  0  0  0  0  # atno 7974 bound_to 7965
  155.3304  140.3402  155.4239 H   0  0  0  0  0  0  0  0  0  0  0  0  # atno 8008 bound_to 7997
  156.1864  140.1682  156.8213 H   0  0  0  0  0  0  0  0  0  0  0  0  # atno 8009 bound_to 7997
  154.5391  140.0728  156.8463 H   0  0  0  0  0  0  0  0  0  0  0  0  # atno 8010 bound_to 7997
  140.2587  144.3397  150.6325 H   0  0  0  0  0  0  0  0  0  0  0  0  # atno 10167 bound_to 10162
  157.6926  131.0206  150.2940 H   0  0  0  0  0  0  0  0  0  0  0  0  # atno 10718 bound_to 10713
  153.0012  135.6258  154.2255 H   0  0  0  0  0  0  0  0  0  0  0  0  # atno 10763 bound_to 10752
  154.1998  135.2804  155.2996 H   0  0  0  0  0  0  0  0  0  0  0  0  # atno 10764 bound_to 10752
  154.5693  135.5681  153.7139 H   0  0  0  0  0  0  0  0  0  0  0  0  # atno 10765 bound_to 10752
  140.0117  134.6286  155.9770 H   0  0  0  0  0  0  0  0  0  0  0  0  # atno 11005 bound_to 11000
  145.6378  141.0290  143.1828 LP  0  0  0  0  0  0  0  0  0  0  0  0  # atno 17320 bound_to 7965
  144.7236  139.7948  143.7373 LP  0  0  0  0  0  0  0  0  0  0  0  0  # atno 17321 bound_to 7965
  140.5983  143.2167  151.7122 LP  0  0  0  0  0  0  0  0  0  0  0  0  # atno 17342 bound_to 10162
  139.5023  144.3833  152.0354 LP  0  0  0  0  0  0  0  0  0  0  0  0  # atno 17343 bound_to 10162
  156.3466  130.3824  149.7364 LP  0  0  0  0  0  0  0  0  0  0  0  0  # atno 17370 bound_to 10713
  156.4855  130.8061  151.3073 LP  0  0  0  0  0  0  0  0  0  0  0  0  # atno 17371 bound_to 10713
  141.1715  133.6537  156.4671 LP  0  0  0  0  0  0  0  0  0  0  0  0  # atno 17394 bound_to 11000
  140.4542  134.6900  157.5054 LP  0  0  0  0  0  0  0  0  0  0  0  0  # atno 17395 bound_to 11000

$$$$
