AV-unprocessed.smi:2324|AV-procd|sdf|9293|dock3
  -GOLD-   2272012513D 1   1.00000     0.00000
 Structure written by MMmdl.
 37 39  0  0  0  0  0  0  0  0  1 V2000
  145.6417  138.5430  153.0521 O   0  0  0  0  0  0  0  0  0  0  0  0
  146.5819  137.8615  152.6470 C   0  0  0  0  0  0  0  0  0  0  0  0
  147.8589  138.2434  152.8629 N   0  0  0  0  0  0  0  0  0  0  0  0
  148.4073  139.3828  153.5214 C   0  0  0  0  0  0  0  0  0  0  0  0
  147.5481  140.5011  153.5791 C   0  0  0  0  0  0  0  0  0  0  0  0
  148.0096  141.6693  154.2090 C   0  0  0  0  0  0  0  0  0  0  0  0
  149.3090  141.6417  154.7426 C   0  0  0  0  0  0  0  0  0  0  0  0
  150.0998  140.5500  154.6658 N   0  0  0  0  0  0  0  0  0  0  0  0
  149.6526  139.4430  154.0642 N   0  0  0  0  0  0  0  0  0  0  0  0
  146.4075  136.7090  151.9792 N   0  0  0  0  0  0  0  0  0  0  0  0
  145.1209  136.1055  151.6478 C   0  0  2  0  0  0  0  0  0  0  0  0
  144.2954  135.8425  152.9185 C   0  0  0  0  0  0  0  0  0  0  0  0
  143.0184  135.0562  152.5831 C   0  0  0  0  0  0  0  0  0  0  0  0
  143.3532  133.8448  151.9146 O   0  0  0  0  0  0  0  0  0  0  0  0
  144.0069  134.0551  150.6668 C   0  0  2  0  0  0  0  0  0  0  0  0
  144.2047  132.7051  150.0065 C   0  0  0  0  0  0  0  0  0  0  0  0
  144.7527  131.5349  150.7896 C   0  0  0  0  0  0  0  0  0  0  0  0
  145.5925  132.1835  149.7152 C   0  0  0  0  0  0  0  0  0  0  0  0
  145.3446  134.7806  150.9040 C   0  0  0  0  0  0  0  0  0  0  0  0
  148.5492  137.6093  152.4882 H   0  0  0  0  0  0  0  0  0  0  0  0
  146.5565  140.4678  153.1514 H   0  0  0  0  0  0  0  0  0  0  0  0
  147.3913  142.5519  154.2803 H   0  0  0  0  0  0  0  0  0  0  0  0
  149.7215  142.5073  155.2393 H   0  0  0  0  0  0  0  0  0  0  0  0
  147.2336  136.2102  151.6799 H   0  0  0  0  0  0  0  0  0  0  0  0
  144.5646  136.7775  150.9916 H   0  0  0  0  0  0  0  0  0  0  0  0
  144.8888  135.2719  153.6344 H   0  0  0  0  0  0  0  0  0  0  0  0
  144.0356  136.7822  153.4071 H   0  0  0  0  0  0  0  0  0  0  0  0
  142.4770  134.8145  153.4978 H   0  0  0  0  0  0  0  0  0  0  0  0
  142.3455  135.6520  151.9643 H   0  0  0  0  0  0  0  0  0  0  0  0
  143.3671  134.6643  150.0253 H   0  0  0  0  0  0  0  0  0  0  0  0
  143.4441  132.4647  149.2659 H   0  0  0  0  0  0  0  0  0  0  0  0
  145.0420  131.7072  151.8246 H   0  0  0  0  0  0  0  0  0  0  0  0
  144.3364  130.5520  150.5793 H   0  0  0  0  0  0  0  0  0  0  0  0
  145.7372  131.6327  148.7882 H   0  0  0  0  0  0  0  0  0  0  0  0
  146.4389  132.7879  150.0354 H   0  0  0  0  0  0  0  0  0  0  0  0
  145.8450  134.9648  149.9526 H   0  0  0  0  0  0  0  0  0  0  0  0
  146.0074  134.1379  151.4859 H   0  0  0  0  0  0  0  0  0  0  0  0
  1  2  2  0  0  0  0
  2  3  1  0  0  0  0
  2 10  1  0  0  0  0
  3  4  1  0  0  0  0
  3 20  1  0  0  0  0
  4  9  1  0  0  0  0
  4  5  2  0  0  0  0
  5  6  1  0  0  0  0
  5 21  1  0  0  0  0
  6  7  2  0  0  0  0
  6 22  1  0  0  0  0
  7  8  1  0  0  0  0
  7 23  1  0  0  0  0
  8  9  2  0  0  0  0
 10 11  1  0  0  0  0
 10 24  1  0  0  0  0
 11 19  1  0  0  0  0
 11 12  1  0  0  0  0
 11 25  1  0  0  0  0
 12 13  1  0  0  0  0
 12 26  1  0  0  0  0
 12 27  1  0  0  0  0
 13 14  1  0  0  0  0
 13 28  1  0  0  0  0
 13 29  1  0  0  0  0
 14 15  1  0  0  0  0
 15 16  1  0  0  0  0
 15 19  1  0  0  0  0
 15 30  1  0  0  0  0
 16 18  1  0  0  0  0
 16 17  1  0  0  0  0
 16 31  1  0  0  0  0
 17 18  1  0  0  0  0
 17 32  1  0  0  0  0
 17 33  1  0  0  0  0
 18 34  1  0  0  0  0
 18 35  1  0  0  0  0
 19 36  1  0  0  0  0
 19 37  1  0  0  0  0
M  END
> <s_m_source_file>
AV-unprocessed.smi

> <i_m_source_file_index>
2324

> <i_lp_mmshare_version>
43012

> <i_f3d_flags>
0

> <s_epik_input>
bjFuW2NIXVtjSF1bY0hdYzFbTkhdQyg9TylbTkhdW0NAQEhdMltDSDJdW0NIMl1PW0NASF0oW0NIMl0yKVtDSF0zW0NIMl1bQ0gyXTM=

> <s_epik_cmdline>
J2VwaWtfcHl0aG9uJywgJy1waCcsICc3LjAnLCAnLXRuJywgJzgnLCAnLW1hJywgJzIwMCcsICctbWV0YWxfYmluZGluZycsICctaW1hZScsICc8aW5maWxlLm1hZT4nLCAnLW9tYWUnLCAnPG91dGZpbGUubWFlPic=

> <r_lp_tautomer_probability>
1

> <r_epik_Ionization_Penalty>
0.00521499

> <r_epik_Ionization_Penalty_Charging>
0

> <r_epik_Ionization_Penalty_Neutral>
0.00521499

> <r_epik_State_Penalty>
-0

> <r_epik_Charging_Adjusted_Penalty>
0

> <i_epik_Tot_Q>
0

> <i_epik_Tot_abs_Q>
0

> <r_epik_Metal_State_Penalty>
-0

> <b_epik_Metal_Only>
0

> <s_lp_Force_Field>
OPLS_2005

> <r_lp_Energy>
26.0154

> <b_lp_Chiralities_Consistent>
1

> <s_lp_Variant>
AV-unprocessed.smi:2324-3

> <Gold.Version>
5.8.1

> <Gold.Id.Protein>
6NUR|6NUR_protein|mol2

> <Gold.PLP.Fitness>
43.1217

> <Gold.PLP.PLP>
-32.9621

> <Gold.PLP.part.hbond>
-3.8399

> <Gold.PLP.part.metal>
0.0000

> <Gold.PLP.part.buried>
-1.8264

> <Gold.PLP.part.nonpolar>
-31.3813

> <Gold.PLP.part.repulsive>
3.6330

> <Gold.PLP.ligand.clash>
0.0000

> <Gold.PLP.ligand.torsion>
0.9599

> <Gold.PLP.Chemscore.Hbond>
2.6688

> <Gold.PLP.Chemscore.CHOScore>
1.0000

> <Gold.PLP.Chemscore.Metal>
0.0000

> <Gold.Chemscore.Hbonds>
donor molecule, donor type, donor heavy atom, donor atom, acceptor molecule, acceptor atom, score
      L1  H     3    20       P1  7948  1.00
      L1  H    10    24       P1  7948  0.85
      P1  H  7989  7998       L1     8  0.81
      L1  C     7    23       P1  8028  1.00

> <Gold.PLP.Chemscore.Internal.Correction>
1.0729

> <Gold.Rescore>
     Score         DG    S(hbond)    S(metal)    S(lipo)     H(rot)  DE(clash)    DE(int)     intcor
     13.31     -16.82       1.92        0.00      69.53       1.25       0.02       3.50       ----

> <Gold.Chemscore.Fitness>
13.3076

> <Gold.Chemscore.DG>
-16.8202

> <Gold.Chemscore.ZeroCoef>
-5.4800

> <Gold.Chemscore.Hbond>
1.9158

> <Gold.Chemscore.Metal>
0.0000

> <Gold.Chemscore.Lipo>
69.5323

> <Gold.Chemscore.Internal_Hbond>
0.0000

> <Gold.Chemscore.DEClash>
0.0174

> <Gold.Chemscore.DEInternal>
3.4952

> <Gold.Chemscore.Rot>
1.2476

> <Gold.Chemscore.Internal.Correction>
   9.000000E+99

> <Gold.Chemscore.Hbonds>
donor molecule, donor type, donor heavy atom, donor atom, acceptor molecule, acceptor atom, score
      L1  H     3    20       P1  7948  0.92
      L1  H    10    24       P1  7948  0.83
      P1  H  7989  7998       L1     8  0.12

> <Gold.Chemscore.Hbond.Weighted>
-6.3987

> <Gold.Chemscore.Metal.Weighted>
-0.0000

> <Gold.Chemscore.Lipo.Weighted>
-8.1353

> <Gold.Chemscore.Internal_Hbond.Weighted>
0.0000

> <Gold.Chemscore.DEClash.Weighted>
0.0174

> <Gold.Chemscore.DEInternal.Weighted>
3.4952

> <Gold.Chemscore.Rot.Weighted>
3.1938

> <Gold.Chemscore.Internal.Correction.Weighted>
   9.000000E+99

> <Gold.Protein.RotatedTorsions>
[ 6907 6896 6895 6894 ] final   12.96 input  -60.11 | X-H torsion
[ 7974 7965 7964 7962 ] final -177.93 input  175.53 | X-H torsion
[ 8008 7997 7996 7995 ] final   21.38 input   59.86 | X-H torsion
[ 10167 10162 10161 10158 ] final -165.13 input  -65.29 | X-H torsion
[ 10718 10713 10712 10709 ] final   -7.63 input   66.30 | X-H torsion
[ 10763 10752 10751 10750 ] final -158.77 input  -60.55 | X-H torsion
[ 11005 11000 10999 10996 ] final  -19.22 input  -57.11 | X-H torsion

> <Gold.Protein.ActiveResidues>
 VAL166  LYS551  ARG553  GLY616  TRP617  ASP618  TYR619  PRO620  LYS621  CYS622 
 ASP623  PHE694  ASN695  SER759  ASP760  ASP761  ALA762  ILE779  LEU786  VAL792 
 PHE793  MET794  SER795  GLU796  ALA797  LYS798  CYS799  TRP800  GLU811  SER814 

> <Gold.Protein.RotatedAtoms>
  151.7786  135.0767  160.0370 H   0  0  0  0  0  0  0  0  0  0  0  0  # atno 6907 bound_to 6896
  152.3239  133.5879  159.5771 H   0  0  0  0  0  0  0  0  0  0  0  0  # atno 6908 bound_to 6896
  150.7384  133.9886  159.3641 H   0  0  0  0  0  0  0  0  0  0  0  0  # atno 6909 bound_to 6896
  144.7129  140.0945  143.6419 H   0  0  0  0  0  0  0  0  0  0  0  0  # atno 7974 bound_to 7965
  154.9497  140.3064  155.5081 H   0  0  0  0  0  0  0  0  0  0  0  0  # atno 8008 bound_to 7997
  156.2988  140.2321  156.4511 H   0  0  0  0  0  0  0  0  0  0  0  0  # atno 8009 bound_to 7997
  154.8066  140.0431  157.1301 H   0  0  0  0  0  0  0  0  0  0  0  0  # atno 8010 bound_to 7997
  139.6203  144.0638  152.1926 H   0  0  0  0  0  0  0  0  0  0  0  0  # atno 10167 bound_to 10162
  156.7143  130.5131  149.5884 H   0  0  0  0  0  0  0  0  0  0  0  0  # atno 10718 bound_to 10713
  154.7530  135.3097  154.8523 H   0  0  0  0  0  0  0  0  0  0  0  0  # atno 10763 bound_to 10752
  153.9305  135.6786  153.4750 H   0  0  0  0  0  0  0  0  0  0  0  0  # atno 10764 bound_to 10752
  153.1126  135.4859  154.8990 H   0  0  0  0  0  0  0  0  0  0  0  0  # atno 10765 bound_to 10752
  140.8345  133.7972  155.9794 H   0  0  0  0  0  0  0  0  0  0  0  0  # atno 11005 bound_to 11000
  145.9591  139.2788  143.1166 LP  0  0  0  0  0  0  0  0  0  0  0  0  # atno 17320 bound_to 7965
  145.9240  140.9095  143.0390 LP  0  0  0  0  0  0  0  0  0  0  0  0  # atno 17321 bound_to 7965
  140.0278  144.6104  150.7513 LP  0  0  0  0  0  0  0  0  0  0  0  0  # atno 17342 bound_to 10162
  140.7377  143.2769  151.3714 LP  0  0  0  0  0  0  0  0  0  0  0  0  # atno 17343 bound_to 10162
  156.1639  130.6392  151.0753 LP  0  0  0  0  0  0  0  0  0  0  0  0  # atno 17370 bound_to 10713
  157.6923  131.0806  150.7070 LP  0  0  0  0  0  0  0  0  0  0  0  0  # atno 17371 bound_to 10713
  140.8962  134.2435  157.5067 LP  0  0  0  0  0  0  0  0  0  0  0  0  # atno 17394 bound_to 11000
  139.8704  134.9685  156.4633 LP  0  0  0  0  0  0  0  0  0  0  0  0  # atno 17395 bound_to 11000

$$$$
