AV-unprocessed.smi:1233|AV-procd|sdf|5172|dock1
  -GOLD-   22720 4243D 1   1.00000     0.00000
 Structure written by MMmdl.
 38 39  0  0  0  0  0  0  0  0  1 V2000
  150.8735  138.8335  154.7231 C   0  0  0  0  0  0  0  0  0  0  0  0
  149.6221  138.5089  154.1270 O   0  0  0  0  0  0  0  0  0  0  0  0
  148.6216  139.4626  154.1302 C   0  0  0  0  0  0  0  0  0  0  0  0
  148.8682  140.6507  154.7375 N   0  0  0  0  0  0  0  0  0  0  0  0
  147.8954  141.5841  154.7430 C   0  0  0  0  0  0  0  0  0  0  0  0
  146.6364  141.3858  154.1485 C   0  0  0  0  0  0  0  0  0  0  0  0
  146.3778  140.1550  153.5174 C   0  0  0  0  0  0  0  0  0  0  0  0
  147.3888  139.1616  153.5032 C   0  0  0  0  0  0  0  0  0  0  0  0
  147.2530  137.8781  152.9000 N   0  0  0  0  0  0  0  0  0  0  0  0
  146.1500  137.1473  152.6613 C   0  0  0  0  0  0  0  0  0  0  0  0
  144.9961  137.4737  152.9358 O   0  0  0  0  0  0  0  0  0  0  0  0
  146.4658  135.9860  152.0703 N   0  0  0  0  0  0  0  0  0  0  0  0
  145.5238  134.9292  151.6965 C   0  0  1  0  0  0  0  0  0  0  0  0
  146.2547  133.8137  150.9156 C   0  0  0  0  0  0  0  0  0  0  0  0
  145.3316  132.9666  150.0250 C   0  0  0  0  0  0  0  0  0  0  0  0
  144.2608  132.1668  150.7819 C   0  0  0  0  0  0  0  0  0  0  0  0
  143.2221  133.0474  151.4980 C   0  0  0  0  0  0  0  0  0  0  0  0
  143.7174  133.5885  152.7576 N   0  0  0  0  0  0  0  0  0  0  0  0
  144.7470  134.4314  152.9301 C   0  0  0  0  0  0  0  0  0  0  0  0
  145.0721  134.7959  154.0600 O   0  0  0  0  0  0  0  0  0  0  0  0
  151.5466  137.9809  154.6348 H   0  0  0  0  0  0  0  0  0  0  0  0
  150.7642  139.0598  155.7846 H   0  0  0  0  0  0  0  0  0  0  0  0
  151.3458  139.6802  154.2225 H   0  0  0  0  0  0  0  0  0  0  0  0
  148.1274  142.5166  155.2359 H   0  0  0  0  0  0  0  0  0  0  0  0
  145.8853  142.1614  154.1755 H   0  0  0  0  0  0  0  0  0  0  0  0
  145.4114  140.0108  153.0631 H   0  0  0  0  0  0  0  0  0  0  0  0
  148.1235  137.4557  152.6117 H   0  0  0  0  0  0  0  0  0  0  0  0
  147.4407  135.7977  151.8866 H   0  0  0  0  0  0  0  0  0  0  0  0
  144.7841  135.3855  151.0358 H   0  0  0  0  0  0  0  0  0  0  0  0
  147.0112  134.2570  150.2666 H   0  0  0  0  0  0  0  0  0  0  0  0
  146.8017  133.1696  151.6058 H   0  0  0  0  0  0  0  0  0  0  0  0
  144.8516  133.6076  149.2845 H   0  0  0  0  0  0  0  0  0  0  0  0
  145.9469  132.2682  149.4568 H   0  0  0  0  0  0  0  0  0  0  0  0
  143.7370  131.5411  150.0583 H   0  0  0  0  0  0  0  0  0  0  0  0
  144.7277  131.4785  151.4875 H   0  0  0  0  0  0  0  0  0  0  0  0
  142.8716  133.8517  150.8499 H   0  0  0  0  0  0  0  0  0  0  0  0
  142.3460  132.4434  151.7353 H   0  0  0  0  0  0  0  0  0  0  0  0
  143.2331  133.2852  153.5901 H   0  0  0  0  0  0  0  0  0  0  0  0
  1  2  1  0  0  0  0
  1 21  1  0  0  0  0
  1 22  1  0  0  0  0
  1 23  1  0  0  0  0
  2  3  1  0  0  0  0
  3  8  1  0  0  0  0
  3  4  2  0  0  0  0
  4  5  1  0  0  0  0
  5  6  2  0  0  0  0
  5 24  1  0  0  0  0
  6  7  1  0  0  0  0
  6 25  1  0  0  0  0
  7  8  2  0  0  0  0
  7 26  1  0  0  0  0
  8  9  1  0  0  0  0
  9 10  1  0  0  0  0
  9 27  1  0  0  0  0
 10 11  2  0  0  0  0
 10 12  1  0  0  0  0
 12 13  1  0  0  0  0
 12 28  1  0  0  0  0
 13 19  1  0  0  0  0
 13 14  1  0  0  0  0
 13 29  1  0  0  0  0
 14 15  1  0  0  0  0
 14 30  1  0  0  0  0
 14 31  1  0  0  0  0
 15 16  1  0  0  0  0
 15 32  1  0  0  0  0
 15 33  1  0  0  0  0
 16 17  1  0  0  0  0
 16 34  1  0  0  0  0
 16 35  1  0  0  0  0
 17 18  1  0  0  0  0
 17 36  1  0  0  0  0
 17 37  1  0  0  0  0
 18 19  1  0  0  0  0
 18 38  1  0  0  0  0
 19 20  2  0  0  0  0
M  END
> <s_m_source_file>
AV-unprocessed.smi

> <i_m_source_file_index>
1233

> <i_lp_mmshare_version>
43012

> <i_f3d_flags>
0

> <s_epik_input>
W0NIM11PYzFuW2NIXVtjSF1bY0hdYzFbTkhdQyg9TylbTkhdW0NAQEhdMltDSDJdW0NIMl1bQ0gyXVtDSDJdW05IXUMyPU8=

> <s_epik_cmdline>
J2VwaWtfcHl0aG9uJywgJy1waCcsICc3LjAnLCAnLXRuJywgJzgnLCAnLW1hJywgJzIwMCcsICctbWV0YWxfYmluZGluZycsICctaW1hZScsICc8aW5maWxlLm1hZT4nLCAnLW9tYWUnLCAnPG91dGZpbGUubWFlPic=

> <r_lp_tautomer_probability>
1

> <r_epik_Ionization_Penalty>
8.308e-05

> <r_epik_Ionization_Penalty_Charging>
0

> <r_epik_Ionization_Penalty_Neutral>
8.308e-05

> <r_epik_State_Penalty>
-0

> <r_epik_Charging_Adjusted_Penalty>
0

> <i_epik_Tot_Q>
0

> <i_epik_Tot_abs_Q>
0

> <r_epik_Metal_State_Penalty>
-0

> <b_epik_Metal_Only>
0

> <s_lp_Force_Field>
OPLS_2005

> <r_lp_Energy>
13.1294

> <b_lp_Chiralities_Consistent>
1

> <s_lp_Variant>
AV-unprocessed.smi:1233-2

> <Gold.Version>
5.8.1

> <Gold.Id.Protein>
6NUR|6NUR_protein|mol2

> <Gold.PLP.Fitness>
39.6070

> <Gold.PLP.PLP>
-28.0724

> <Gold.PLP.part.hbond>
-2.8297

> <Gold.PLP.part.metal>
0.0000

> <Gold.PLP.part.buried>
-1.3556

> <Gold.PLP.part.nonpolar>
-25.5419

> <Gold.PLP.part.repulsive>
0.7275

> <Gold.PLP.ligand.clash>
0.0000

> <Gold.PLP.ligand.torsion>
0.1625

> <Gold.PLP.Chemscore.Hbond>
2.9440

> <Gold.PLP.Chemscore.CHOScore>
1.0000

> <Gold.PLP.Chemscore.Metal>
0.0000

> <Gold.Chemscore.Hbonds>
donor molecule, donor type, donor heavy atom, donor atom, acceptor molecule, acceptor atom, score
      L1  H     9    27       P1  7948  1.00
      L1  H    12    28       P1  7948  1.00
      L1  H    18    38       P1 10957  0.96
      L1  C     5    24       P1  8028  1.00

> <Gold.PLP.Chemscore.Internal.Correction>
0.0276

> <Gold.Rescore>
     Score         DG    S(hbond)    S(metal)    S(lipo)     H(rot)  DE(clash)    DE(int)     intcor
     18.69     -19.77       2.86        0.00      69.08       1.31       0.66       0.42       ----

> <Gold.Chemscore.Fitness>
18.6934

> <Gold.Chemscore.DG>
-19.7723

> <Gold.Chemscore.ZeroCoef>
-5.4800

> <Gold.Chemscore.Hbond>
2.8627

> <Gold.Chemscore.Metal>
0.0000

> <Gold.Chemscore.Lipo>
69.0752

> <Gold.Chemscore.Internal_Hbond>
0.0000

> <Gold.Chemscore.DEClash>
0.6567

> <Gold.Chemscore.DEInternal>
0.4222

> <Gold.Chemscore.Rot>
1.3090

> <Gold.Chemscore.Internal.Correction>
   9.000000E+99

> <Gold.Chemscore.Hbonds>
donor molecule, donor type, donor heavy atom, donor atom, acceptor molecule, acceptor atom, score
      L1  H     9    27       P1  7948  0.95
      L1  H    12    28       P1  7948  0.92
      L1  H    18    38       P1 10957  0.87

> <Gold.Chemscore.Hbond.Weighted>
-9.5614

> <Gold.Chemscore.Metal.Weighted>
-0.0000

> <Gold.Chemscore.Lipo.Weighted>
-8.0818

> <Gold.Chemscore.Internal_Hbond.Weighted>
0.0000

> <Gold.Chemscore.DEClash.Weighted>
0.6567

> <Gold.Chemscore.DEInternal.Weighted>
0.4222

> <Gold.Chemscore.Rot.Weighted>
3.3509

> <Gold.Chemscore.Internal.Correction.Weighted>
   9.000000E+99

> <Gold.Protein.RotatedTorsions>
[ 6907 6896 6895 6894 ] final   79.45 input  -60.11 | X-H torsion
[ 7974 7965 7964 7962 ] final   49.78 input  175.53 | X-H torsion
[ 8008 7997 7996 7995 ] final  164.99 input   59.86 | X-H torsion
[ 10167 10162 10161 10158 ] final  -79.55 input  -65.29 | X-H torsion
[ 10718 10713 10712 10709 ] final -151.35 input   66.30 | X-H torsion
[ 10763 10752 10751 10750 ] final  -22.97 input  -60.55 | X-H torsion
[ 11005 11000 10999 10996 ] final  -71.65 input  -57.11 | X-H torsion

> <Gold.Protein.ActiveResidues>
 VAL166  LYS551  ARG553  GLY616  TRP617  ASP618  TYR619  PRO620  LYS621  CYS622 
 ASP623  PHE694  ASN695  SER759  ASP760  ASP761  ALA762  ILE779  LEU786  VAL792 
 PHE793  MET794  SER795  GLU796  ALA797  LYS798  CYS799  TRP800  GLU811  SER814 

> <Gold.Protein.RotatedAtoms>
  152.5199  134.3510  159.9250 H   0  0  0  0  0  0  0  0  0  0  0  0  # atno 6907 bound_to 6896
  151.3461  133.3937  159.2683 H   0  0  0  0  0  0  0  0  0  0  0  0  # atno 6908 bound_to 6896
  150.9765  134.9146  159.7877 H   0  0  0  0  0  0  0  0  0  0  0  0  # atno 6909 bound_to 6896
  146.0075  139.4507  142.9976 H   0  0  0  0  0  0  0  0  0  0  0  0  # atno 7974 bound_to 7965
  156.1836  140.1682  156.8227 H   0  0  0  0  0  0  0  0  0  0  0  0  # atno 8008 bound_to 7997
  154.5388  140.0741  156.8507 H   0  0  0  0  0  0  0  0  0  0  0  0  # atno 8009 bound_to 7997
  155.3256  140.3376  155.4242 H   0  0  0  0  0  0  0  0  0  0  0  0  # atno 8010 bound_to 7997
  140.4583  143.2461  151.8386 H   0  0  0  0  0  0  0  0  0  0  0  0  # atno 10167 bound_to 10162
  156.4580  130.8200  151.2431 H   0  0  0  0  0  0  0  0  0  0  0  0  # atno 10718 bound_to 10713
  153.6604  135.6976  153.5179 H   0  0  0  0  0  0  0  0  0  0  0  0  # atno 10763 bound_to 10752
  153.2636  135.4237  155.0918 H   0  0  0  0  0  0  0  0  0  0  0  0  # atno 10764 bound_to 10752
  154.8453  135.3561  154.6149 H   0  0  0  0  0  0  0  0  0  0  0  0  # atno 10765 bound_to 10752
  141.1596  133.6823  156.6938 H   0  0  0  0  0  0  0  0  0  0  0  0  # atno 11005 bound_to 11000
  145.7393  141.0014  143.1310 LP  0  0  0  0  0  0  0  0  0  0  0  0  # atno 17320 bound_to 7965
  144.6941  139.9079  143.7462 LP  0  0  0  0  0  0  0  0  0  0  0  0  # atno 17321 bound_to 7965
  139.4803  144.5038  151.9025 LP  0  0  0  0  0  0  0  0  0  0  0  0  # atno 17342 bound_to 10162
  140.4124  144.2351  150.5888 LP  0  0  0  0  0  0  0  0  0  0  0  0  # atno 17343 bound_to 10162
  157.7499  131.0116  150.3352 LP  0  0  0  0  0  0  0  0  0  0  0  0  # atno 17370 bound_to 10713
  156.3746  130.3869  149.7149 LP  0  0  0  0  0  0  0  0  0  0  0  0  # atno 17371 bound_to 10713
  140.3010  134.8164  157.4098 LP  0  0  0  0  0  0  0  0  0  0  0  0  # atno 17394 bound_to 11000
  140.1262  134.5155  155.8143 LP  0  0  0  0  0  0  0  0  0  0  0  0  # atno 17395 bound_to 11000

$$$$
