AV-unprocessed.smi:269|AV-procd|sdf|2042|dock1
  -GOLD-   2262021263D 1   1.00000     0.00000
 Structure written by MMmdl.
 62 65  0  0  0  0  0  0  0  0  2 V2000
  146.7466  128.5418  151.7124 C   0  0  0  0  0  0  0  0  0  0  0  0
  146.3545  129.2312  153.0260 C   0  0  0  0  0  0  0  0  0  0  0  0
  145.8926  130.5962  152.8014 N   0  0  0  0  0  0  0  0  0  0  0  0
  146.4565  131.6959  153.3234 C   0  0  0  0  0  0  0  0  0  0  0  0
  147.4522  131.6675  154.0475 O   0  0  0  0  0  0  0  0  0  0  0  0
  145.8018  133.0324  152.9582 C   0  0  0  0  0  0  0  0  0  0  0  0
  144.9359  133.5692  154.0392 N   0  3  0  0  0  0  0  0  0  0  0  0
  144.5402  134.9874  153.8244 C   0  0  0  0  0  0  0  0  0  0  0  0
  143.5755  135.4648  154.9237 C   0  0  0  0  0  0  0  0  0  0  0  0
  144.1530  135.2485  156.2476 N   0  0  0  0  0  0  0  0  0  0  0  0
  144.8942  136.2697  156.7564 C   0  0  0  0  0  0  0  0  0  0  0  0
  144.4491  136.9502  157.8463 N   0  0  0  0  0  0  0  0  0  0  0  0
  145.1729  137.9449  158.3668 C   0  0  0  0  0  0  0  0  0  0  0  0
  146.3504  138.4196  157.9594 N   0  0  0  0  0  0  0  0  0  0  0  0
  146.7987  137.7561  156.8562 C   0  0  0  0  0  0  0  0  0  0  0  0
  146.1409  136.6771  156.1992 C   0  0  0  0  0  0  0  0  0  0  0  0
  146.8986  136.2577  155.1126 N   0  0  0  0  0  0  0  0  0  0  0  0
  147.9491  137.0307  155.1364 C   0  0  0  0  0  0  0  0  0  0  0  0
  147.9643  137.9738  156.1400 N   0  0  0  0  0  0  0  0  0  0  0  0
  149.0093  138.9564  156.3994 C   0  0  0  0  0  0  0  0  0  0  0  0
  149.4868  139.7637  155.1497 C   0  0  0  0  0  0  0  0  0  0  0  0
  148.2783  140.2731  154.3196 C   0  0  0  0  0  0  0  0  0  0  0  0
  148.6820  140.9415  153.1409 O   0  0  0  0  0  0  0  0  0  0  0  0
  150.3346  140.9970  155.5520 C   0  0  0  0  0  0  0  0  0  0  0  0
  151.7199  140.6153  156.1059 C   0  0  0  0  0  0  0  0  0  0  0  0
  152.4228  139.8315  155.1510 O   0  0  0  0  0  0  0  0  0  0  0  0
  151.7685  138.6031  154.8615 C   0  0  0  0  0  0  0  0  0  0  0  0
  150.3825  138.8761  154.2489 C   0  0  0  0  0  0  0  0  0  0  0  0
  144.5703  133.8679  156.4941 C   0  0  0  0  0  0  0  0  0  0  0  0
  145.5171  133.3563  155.3896 C   0  0  0  0  0  0  0  0  0  0  0  0
  147.0610  127.5140  151.8949 H   0  0  0  0  0  0  0  0  0  0  0  0
  147.5738  129.0574  151.2234 H   0  0  0  0  0  0  0  0  0  0  0  0
  145.9083  128.5138  151.0154 H   0  0  0  0  0  0  0  0  0  0  0  0
  145.5496  128.6746  153.5067 H   0  0  0  0  0  0  0  0  0  0  0  0
  147.1943  129.2257  153.7230 H   0  0  0  0  0  0  0  0  0  0  0  0
  145.0813  130.7097  152.2105 H   0  0  0  0  0  0  0  0  0  0  0  0
  146.6128  133.7339  152.7577 H   0  0  0  0  0  0  0  0  0  0  0  0
  145.2297  132.9412  152.0330 H   0  0  0  0  0  0  0  0  0  0  0  0
  145.4328  135.6151  153.8145 H   0  0  0  0  0  0  0  0  0  0  0  0
  144.0611  135.1050  152.8523 H   0  0  0  0  0  0  0  0  0  0  0  0
  143.3176  136.5085  154.7519 H   0  0  0  0  0  0  0  0  0  0  0  0
  142.6400  134.9073  154.8629 H   0  0  0  0  0  0  0  0  0  0  0  0
  144.7485  138.4297  159.2339 H   0  0  0  0  0  0  0  0  0  0  0  0
  148.7436  136.9361  154.4106 H   0  0  0  0  0  0  0  0  0  0  0  0
  148.6474  139.6226  157.1814 H   0  0  0  0  0  0  0  0  0  0  0  0
  149.8530  138.4287  156.8457 H   0  0  0  0  0  0  0  0  0  0  0  0
  147.6107  139.4547  154.0510 H   0  0  0  0  0  0  0  0  0  0  0  0
  147.6777  140.9702  154.9056 H   0  0  0  0  0  0  0  0  0  0  0  0
  148.9066  140.2951  152.4897 H   0  0  0  0  0  0  0  0  0  0  0  0
  150.4921  141.6284  154.6764 H   0  0  0  0  0  0  0  0  0  0  0  0
  149.8022  141.6223  156.2680 H   0  0  0  0  0  0  0  0  0  0  0  0
  152.2981  141.5168  156.3083 H   0  0  0  0  0  0  0  0  0  0  0  0
  151.6450  140.0755  157.0497 H   0  0  0  0  0  0  0  0  0  0  0  0
  152.3806  138.0434  154.1539 H   0  0  0  0  0  0  0  0  0  0  0  0
  151.6974  137.9915  155.7614 H   0  0  0  0  0  0  0  0  0  0  0  0
  149.8874  137.9293  154.0301 H   0  0  0  0  0  0  0  0  0  0  0  0
  150.5310  139.3667  153.2859 H   0  0  0  0  0  0  0  0  0  0  0  0
  145.0313  133.7651  157.4772 H   0  0  0  0  0  0  0  0  0  0  0  0
  143.6736  133.2476  156.5183 H   0  0  0  0  0  0  0  0  0  0  0  0
  145.7119  132.2945  155.5449 H   0  0  0  0  0  0  0  0  0  0  0  0
  146.4801  133.8651  155.4491 H   0  0  0  0  0  0  0  0  0  0  0  0
  144.0848  133.0254  154.0121 H   0  0  0  0  0  0  0  0  0  0  0  0
  1  2  1  0  0  0  0
  1 31  1  0  0  0  0
  1 32  1  0  0  0  0
  1 33  1  0  0  0  0
  2  3  1  0  0  0  0
  2 34  1  0  0  0  0
  2 35  1  0  0  0  0
  3  4  1  0  0  0  0
  3 36  1  0  0  0  0
  4  5  2  0  0  0  0
  4  6  1  0  0  0  0
  6  7  1  0  0  0  0
  6 37  1  0  0  0  0
  6 38  1  0  0  0  0
  7 30  1  0  0  0  0
  7  8  1  0  0  0  0
  7 62  1  0  0  0  0
  8  9  1  0  0  0  0
  8 39  1  0  0  0  0
  8 40  1  0  0  0  0
  9 10  1  0  0  0  0
  9 41  1  0  0  0  0
  9 42  1  0  0  0  0
 10 11  1  0  0  0  0
 10 29  1  0  0  0  0
 11 16  1  0  0  0  0
 11 12  2  0  0  0  0
 12 13  1  0  0  0  0
 13 14  2  0  0  0  0
 13 43  1  0  0  0  0
 14 15  1  0  0  0  0
 15 19  1  0  0  0  0
 15 16  2  0  0  0  0
 16 17  1  0  0  0  0
 17 18  2  0  0  0  0
 18 19  1  0  0  0  0
 18 44  1  0  0  0  0
 19 20  1  0  0  0  0
 20 21  1  0  0  0  0
 20 45  1  0  0  0  0
 20 46  1  0  0  0  0
 21 28  1  0  0  0  0
 21 22  1  0  0  0  0
 21 24  1  0  0  0  0
 22 23  1  0  0  0  0
 22 47  1  0  0  0  0
 22 48  1  0  0  0  0
 23 49  1  0  0  0  0
 24 25  1  0  0  0  0
 24 50  1  0  0  0  0
 24 51  1  0  0  0  0
 25 26  1  0  0  0  0
 25 52  1  0  0  0  0
 25 53  1  0  0  0  0
 26 27  1  0  0  0  0
 27 28  1  0  0  0  0
 27 54  1  0  0  0  0
 27 55  1  0  0  0  0
 28 56  1  0  0  0  0
 28 57  1  0  0  0  0
 29 30  1  0  0  0  0
 29 58  1  0  0  0  0
 29 59  1  0  0  0  0
 30 60  1  0  0  0  0
 30 61  1  0  0  0  0
M  CHG  1   7   1
M  END
> <s_m_source_file>
AV-unprocessed.smi

> <i_m_source_file_index>
269

> <i_lp_mmshare_version>
43012

> <i_f3d_flags>
0

> <s_epik_input>
W0NIM11bQ0gyXVtOSF1DKD1PKVtDSDJdTjFbQ0gyXVtDSDJdTihbQ0gyXVtDSDJdMSljKG5bY0hdbjIpYyhjMjMpbltjSF1uM1tDSDJdQzQoW0NIMl1bT0hdKVtDSDJdW0NIMl1PW0NIMl1bQ0gyXTQ=

> <s_epik_cmdline>
J2VwaWtfcHl0aG9uJywgJy1waCcsICc3LjAnLCAnLXRuJywgJzgnLCAnLW1hJywgJzIwMCcsICctbWV0YWxfYmluZGluZycsICctaW1hZScsICc8aW5maWxlLm1hZT4nLCAnLW9tYWUnLCAnPG91dGZpbGUubWFlPic=

> <r_lp_tautomer_probability>
1

> <r_epik_Ionization_Penalty>
0.146524

> <r_epik_Ionization_Penalty_Charging>
0.146459

> <r_epik_Ionization_Penalty_Neutral>
6.45448e-05

> <r_epik_State_Penalty>
0.136576

> <r_epik_Charging_Adjusted_Penalty>
0.283035

> <i_epik_Tot_Q>
1

> <i_epik_Tot_abs_Q>
1

> <r_epik_Metal_State_Penalty>
0.148847

> <b_epik_Metal_Only>
0

> <s_lp_Force_Field>
OPLS_2005

> <r_lp_Energy>
42.6281

> <b_lp_Chiralities_Consistent>
1

> <s_lp_Variant>
AV-unprocessed.smi:269-1

> <Gold.Version>
5.8.1

> <Gold.Id.Protein>
6NUR|6NUR_protein|mol2

> <Gold.PLP.Fitness>
45.2828

> <Gold.PLP.PLP>
-30.4365

> <Gold.PLP.part.hbond>
-3.9764

> <Gold.PLP.part.metal>
0.0000

> <Gold.PLP.part.buried>
-5.4404

> <Gold.PLP.part.nonpolar>
-21.1348

> <Gold.PLP.part.repulsive>
0.1883

> <Gold.PLP.ligand.clash>
0.0000

> <Gold.PLP.ligand.torsion>
0.9477

> <Gold.PLP.Chemscore.Hbond>
4.4986

> <Gold.PLP.Chemscore.CHOScore>
0.7821

> <Gold.PLP.Chemscore.Metal>
0.0000

> <Gold.Chemscore.Hbonds>
donor molecule, donor type, donor heavy atom, donor atom, acceptor molecule, acceptor atom, score
      L1  H     7    62       P1 10957  1.92
      L1  H    23    49       P1  7957  0.89
      P1  H  7989  7998       L1    26  0.35
      P1  H  7997  8008       L1    26  0.50
      P1  H  8011  8017       L1    23  0.75
      L1  C    18    44       P1  7948  0.72

> <Gold.PLP.Chemscore.Internal.Correction>
0.8994

> <Gold.Rescore>
     Score         DG    S(hbond)    S(metal)    S(lipo)     H(rot)  DE(clash)    DE(int)     intcor
      9.93     -13.12       2.51        0.00      67.34       3.37       0.02       3.17       ----

> <Gold.Chemscore.Fitness>
9.9338

> <Gold.Chemscore.DG>
-13.1207

> <Gold.Chemscore.ZeroCoef>
-5.4800

> <Gold.Chemscore.Hbond>
2.5146

> <Gold.Chemscore.Metal>
0.0000

> <Gold.Chemscore.Lipo>
67.3405

> <Gold.Chemscore.Internal_Hbond>
0.0000

> <Gold.Chemscore.DEClash>
0.0177

> <Gold.Chemscore.DEInternal>
3.1692

> <Gold.Chemscore.Rot>
3.3738

> <Gold.Chemscore.Internal.Correction>
   9.000000E+99

> <Gold.Chemscore.Hbonds>
donor molecule, donor type, donor heavy atom, donor atom, acceptor molecule, acceptor atom, score
      L1  H     7    62       P1 10957  0.87
      L1  H    23    49       P1  7957  0.81
      P1  H  7989  7998       L1    26  0.01
      P1  H  7997  8008       L1    26  0.13
      P1  H  8011  8017       L1    23  0.09

> <Gold.Chemscore.Hbond.Weighted>
-8.3987

> <Gold.Chemscore.Metal.Weighted>
-0.0000

> <Gold.Chemscore.Lipo.Weighted>
-7.8788

> <Gold.Chemscore.Internal_Hbond.Weighted>
0.0000

> <Gold.Chemscore.DEClash.Weighted>
0.0177

> <Gold.Chemscore.DEInternal.Weighted>
3.1692

> <Gold.Chemscore.Rot.Weighted>
8.6369

> <Gold.Chemscore.Internal.Correction.Weighted>
   9.000000E+99

> <Gold.Protein.RotatedTorsions>
[ 6907 6896 6895 6894 ] final -178.42 input  -60.11 | X-H torsion
[ 7974 7965 7964 7962 ] final   66.23 input  175.53 | X-H torsion
[ 8008 7997 7996 7995 ] final   -6.95 input   59.86 | X-H torsion
[ 10167 10162 10161 10158 ] final   90.57 input  -65.29 | X-H torsion
[ 10718 10713 10712 10709 ] final  166.14 input   66.30 | X-H torsion
[ 10763 10752 10751 10750 ] final  119.47 input  -60.55 | X-H torsion
[ 11005 11000 10999 10996 ] final -102.51 input  -57.11 | X-H torsion

> <Gold.Protein.ActiveResidues>
 VAL166  LYS551  ARG553  GLY616  TRP617  ASP618  TYR619  PRO620  LYS621  CYS622 
 ASP623  PHE694  ASN695  SER759  ASP760  ASP761  ALA762  ILE779  LEU786  VAL792 
 PHE793  MET794  SER795  GLU796  ALA797  LYS798  CYS799  TRP800  GLU811  SER814 

> <Gold.Protein.RotatedAtoms>
  151.6369  133.3328  159.3121 H   0  0  0  0  0  0  0  0  0  0  0  0  # atno 6907 bound_to 6896
  150.8028  134.7137  159.6627 H   0  0  0  0  0  0  0  0  0  0  0  0  # atno 6908 bound_to 6896
  152.4121  134.6110  160.0077 H   0  0  0  0  0  0  0  0  0  0  0  0  # atno 6909 bound_to 6896
  145.8290  139.3128  143.0998 H   0  0  0  0  0  0  0  0  0  0  0  0  # atno 7974 bound_to 7965
  154.5886  140.2419  155.7952 H   0  0  0  0  0  0  0  0  0  0  0  0  # atno 8008 bound_to 7997
  156.2231  140.2991  155.9955 H   0  0  0  0  0  0  0  0  0  0  0  0  # atno 8009 bound_to 7997
  155.2414  140.0407  157.2966 H   0  0  0  0  0  0  0  0  0  0  0  0  # atno 8010 bound_to 7997
  139.8460  144.6617  150.9226 H   0  0  0  0  0  0  0  0  0  0  0  0  # atno 10167 bound_to 10162
  157.0701  131.0364  151.2615 H   0  0  0  0  0  0  0  0  0  0  0  0  # atno 10718 bound_to 10713
  153.5835  135.3479  155.2884 H   0  0  0  0  0  0  0  0  0  0  0  0  # atno 10763 bound_to 10752
  154.8664  135.4188  154.2594 H   0  0  0  0  0  0  0  0  0  0  0  0  # atno 10764 bound_to 10752
  153.3385  135.7048  153.6957 H   0  0  0  0  0  0  0  0  0  0  0  0  # atno 10765 bound_to 10752
  141.1186  133.8564  157.1369 H   0  0  0  0  0  0  0  0  0  0  0  0  # atno 11005 bound_to 11000
  145.9591  140.8849  143.0220 LP  0  0  0  0  0  0  0  0  0  0  0  0  # atno 17320 bound_to 7965
  144.6741  140.1787  143.7407 LP  0  0  0  0  0  0  0  0  0  0  0  0  # atno 17321 bound_to 7965
  140.7793  143.3869  151.1377 LP  0  0  0  0  0  0  0  0  0  0  0  0  # atno 17342 bound_to 10162
  139.7512  143.8776  152.3077 LP  0  0  0  0  0  0  0  0  0  0  0  0  # atno 17343 bound_to 10162
  157.4884  130.7807  149.7483 LP  0  0  0  0  0  0  0  0  0  0  0  0  # atno 17370 bound_to 10713
  155.9953  130.3913  150.2825 LP  0  0  0  0  0  0  0  0  0  0  0  0  # atno 17371 bound_to 10713
  140.0126  134.9981  157.0427 LP  0  0  0  0  0  0  0  0  0  0  0  0  # atno 17394 bound_to 11000
  140.4574  134.1520  155.7187 LP  0  0  0  0  0  0  0  0  0  0  0  0  # atno 17395 bound_to 11000

$$$$
