AV-unprocessed.smi:1302|AV-procd|sdf|5425|dock4
  -GOLD-   22720 4583D 1   1.00000     0.00000
 Structure written by MMmdl.
 43 44  0  0  0  0  0  0  0  0  1 V2000
  146.0828  143.0171  154.5682 C   0  0  0  0  0  0  0  0  0  0  0  0
  147.3209  142.3186  153.9844 C   0  0  0  0  0  0  0  0  0  0  0  0
  146.9902  140.9083  153.4787 C   0  0  0  0  0  0  0  0  0  0  0  0
  148.3797  142.2396  154.9863 N   0  0  0  0  0  0  0  0  0  0  0  0
  149.5248  141.5485  154.8577 C   0  0  0  0  0  0  0  0  0  0  0  0
  149.8027  140.8672  153.8705 O   0  0  0  0  0  0  0  0  0  0  0  0
  150.4485  141.5993  156.0401 C   0  0  0  0  0  0  0  0  0  0  0  0
  150.4339  142.7035  156.9174 C   0  0  0  0  0  0  0  0  0  0  0  0
  151.2963  142.7077  158.0305 C   0  0  0  0  0  0  0  0  0  0  0  0
  152.1520  141.6017  158.2462 C   0  0  0  0  0  0  0  0  0  0  0  0
  153.0273  141.5863  159.3540 N   0  0  0  0  0  0  0  0  0  0  0  0
  153.8303  140.3762  159.5080 C   0  0  0  0  0  0  0  0  0  0  0  0
  154.9524  140.6024  160.5389 C   0  0  2  0  0  0  0  0  0  0  0  0
  155.7398  139.3188  160.8220 C   0  0  0  0  0  0  0  0  0  0  0  0
  154.3813  141.0550  161.7634 O   0  0  0  0  0  0  0  0  0  0  0  0
  153.6960  142.2958  161.6186 C   0  0  2  0  0  0  0  0  0  0  0  0
  153.2065  142.7394  163.0009 C   0  0  0  0  0  0  0  0  0  0  0  0
  152.5349  142.1169  160.6235 C   0  0  0  0  0  0  0  0  0  0  0  0
  152.1512  140.5328  157.4121 N   0  0  0  0  0  0  0  0  0  0  0  0
  151.3234  140.5334  156.3461 C   0  0  0  0  0  0  0  0  0  0  0  0
  145.2885  143.0893  153.8250 H   0  0  0  0  0  0  0  0  0  0  0  0
  146.3174  144.0302  154.8962 H   0  0  0  0  0  0  0  0  0  0  0  0
  145.6869  142.4722  155.4261 H   0  0  0  0  0  0  0  0  0  0  0  0
  147.6776  142.9002  153.1324 H   0  0  0  0  0  0  0  0  0  0  0  0
  146.2204  140.9399  152.7071 H   0  0  0  0  0  0  0  0  0  0  0  0
  146.6265  140.2708  154.2852 H   0  0  0  0  0  0  0  0  0  0  0  0
  147.8697  140.4300  153.0458 H   0  0  0  0  0  0  0  0  0  0  0  0
  148.2299  142.7500  155.8446 H   0  0  0  0  0  0  0  0  0  0  0  0
  149.7732  143.5413  156.7464 H   0  0  0  0  0  0  0  0  0  0  0  0
  151.2793  143.5472  158.7094 H   0  0  0  0  0  0  0  0  0  0  0  0
  153.1784  139.5644  159.8337 H   0  0  0  0  0  0  0  0  0  0  0  0
  154.2741  140.0650  158.5633 H   0  0  0  0  0  0  0  0  0  0  0  0
  155.6455  141.3590  160.1666 H   0  0  0  0  0  0  0  0  0  0  0  0
  156.2105  138.9390  159.9150 H   0  0  0  0  0  0  0  0  0  0  0  0
  155.0905  138.5364  161.2157 H   0  0  0  0  0  0  0  0  0  0  0  0
  156.5268  139.4985  161.5548 H   0  0  0  0  0  0  0  0  0  0  0  0
  154.3914  143.0472  161.2403 H   0  0  0  0  0  0  0  0  0  0  0  0
  152.6803  143.6926  162.9437 H   0  0  0  0  0  0  0  0  0  0  0  0
  154.0430  142.8625  163.6892 H   0  0  0  0  0  0  0  0  0  0  0  0
  152.5251  142.0055  163.4325 H   0  0  0  0  0  0  0  0  0  0  0  0
  152.0445  143.0782  160.4640 H   0  0  0  0  0  0  0  0  0  0  0  0
  151.7897  141.4333  161.0330 H   0  0  0  0  0  0  0  0  0  0  0  0
  151.3648  139.6490  155.7271 H   0  0  0  0  0  0  0  0  0  0  0  0
  1  2  1  0  0  0  0
  1 21  1  0  0  0  0
  1 22  1  0  0  0  0
  1 23  1  0  0  0  0
  2  3  1  0  0  0  0
  2  4  1  0  0  0  0
  2 24  1  0  0  0  0
  3 25  1  0  0  0  0
  3 26  1  0  0  0  0
  3 27  1  0  0  0  0
  4  5  1  0  0  0  0
  4 28  1  0  0  0  0
  5  6  2  0  0  0  0
  5  7  1  0  0  0  0
  7 20  1  0  0  0  0
  7  8  2  0  0  0  0
  8  9  1  0  0  0  0
  8 29  1  0  0  0  0
  9 10  2  0  0  0  0
  9 30  1  0  0  0  0
 10 11  1  0  0  0  0
 10 19  1  0  0  0  0
 11 18  1  0  0  0  0
 11 12  1  0  0  0  0
 12 13  1  0  0  0  0
 12 31  1  0  0  0  0
 12 32  1  0  0  0  0
 13 14  1  0  0  0  0
 13 15  1  0  0  0  0
 13 33  1  0  0  0  0
 14 34  1  0  0  0  0
 14 35  1  0  0  0  0
 14 36  1  0  0  0  0
 15 16  1  0  0  0  0
 16 17  1  0  0  0  0
 16 18  1  0  0  0  0
 16 37  1  0  0  0  0
 17 38  1  0  0  0  0
 17 39  1  0  0  0  0
 17 40  1  0  0  0  0
 18 41  1  0  0  0  0
 18 42  1  0  0  0  0
 19 20  2  0  0  0  0
 20 43  1  0  0  0  0
M  END
> <s_m_source_file>
AV-unprocessed.smi

> <i_m_source_file_index>
1302

> <i_lp_mmshare_version>
43012

> <i_f3d_flags>
0

> <s_epik_input>
W0NIM11bQ0hdKFtDSDNdKVtOSF1DKD1PKWMxW2NIXVtjSF1jKG5bY0hdMSlOMltDSDJdW0NAQEhdKFtDSDNdKU9bQ0BASF0oW0NIM10pW0NIMl0y

> <s_epik_cmdline>
J2VwaWtfcHl0aG9uJywgJy1waCcsICc3LjAnLCAnLXRuJywgJzgnLCAnLW1hJywgJzIwMCcsICctbWV0YWxfYmluZGluZycsICctaW1hZScsICc8aW5maWxlLm1hZT4nLCAnLW9tYWUnLCAnPG91dGZpbGUubWFlPic=

> <r_lp_tautomer_probability>
1

> <r_epik_Ionization_Penalty>
2.23089e-05

> <r_epik_Ionization_Penalty_Charging>
0

> <r_epik_Ionization_Penalty_Neutral>
2.23089e-05

> <r_epik_State_Penalty>
-0

> <r_epik_Charging_Adjusted_Penalty>
0

> <i_epik_Tot_Q>
0

> <i_epik_Tot_abs_Q>
0

> <r_epik_Metal_State_Penalty>
-0

> <b_epik_Metal_Only>
0

> <s_lp_Force_Field>
OPLS_2005

> <r_lp_Energy>
16.9164

> <b_lp_Chiralities_Consistent>
1

> <s_lp_Variant>
AV-unprocessed.smi:1302-1

> <Gold.Version>
5.8.1

> <Gold.Id.Protein>
6NUR|6NUR_protein|mol2

> <Gold.PLP.Fitness>
43.5834

> <Gold.PLP.PLP>
-40.9258

> <Gold.PLP.part.hbond>
-3.6152

> <Gold.PLP.part.metal>
0.0000

> <Gold.PLP.part.buried>
-2.7261

> <Gold.PLP.part.nonpolar>
-35.6049

> <Gold.PLP.part.repulsive>
2.1799

> <Gold.PLP.ligand.clash>
0.0000

> <Gold.PLP.ligand.torsion>
0.7014

> <Gold.PLP.Chemscore.Hbond>
1.2405

> <Gold.PLP.Chemscore.CHOScore>
0.0000

> <Gold.PLP.Chemscore.Metal>
0.0000

> <Gold.Chemscore.Hbonds>
donor molecule, donor type, donor heavy atom, donor atom, acceptor molecule, acceptor atom, score
      L1  H     4    28       P1  8028  0.20
      P1  H  7989  7998       L1     6  0.46
      P1  H  8011  8017       L1     6  0.59

> <Gold.PLP.Chemscore.Internal.Correction>
0.3390

> <Gold.Rescore>
     Score         DG    S(hbond)    S(metal)    S(lipo)     H(rot)  DE(clash)    DE(int)     intcor
     14.10     -18.46       1.02        0.00     107.00       1.15       2.39       1.96       ----

> <Gold.Chemscore.Fitness>
14.1049

> <Gold.Chemscore.DG>
-18.4617

> <Gold.Chemscore.ZeroCoef>
-5.4800

> <Gold.Chemscore.Hbond>
1.0207

> <Gold.Chemscore.Metal>
0.0000

> <Gold.Chemscore.Lipo>
106.9967

> <Gold.Chemscore.Internal_Hbond>
0.0000

> <Gold.Chemscore.DEClash>
2.3921

> <Gold.Chemscore.DEInternal>
1.9647

> <Gold.Chemscore.Rot>
1.1508

> <Gold.Chemscore.Internal.Correction>
   9.000000E+99

> <Gold.Chemscore.Hbonds>
donor molecule, donor type, donor heavy atom, donor atom, acceptor molecule, acceptor atom, score
      L1  H     4    28       P1  8028  0.18
      P1  H  7989  7998       L1     6  0.39
      P1  H  8011  8017       L1     6  0.15

> <Gold.Chemscore.Hbond.Weighted>
-3.4092

> <Gold.Chemscore.Metal.Weighted>
-0.0000

> <Gold.Chemscore.Lipo.Weighted>
-12.5186

> <Gold.Chemscore.Internal_Hbond.Weighted>
0.0000

> <Gold.Chemscore.DEClash.Weighted>
2.3921

> <Gold.Chemscore.DEInternal.Weighted>
1.9647

> <Gold.Chemscore.Rot.Weighted>
2.9461

> <Gold.Chemscore.Internal.Correction.Weighted>
   9.000000E+99

> <Gold.Protein.RotatedTorsions>
[ 6907 6896 6895 6894 ] final   45.10 input  -60.11 | X-H torsion
[ 7974 7965 7964 7962 ] final -150.07 input  175.53 | X-H torsion
[ 8008 7997 7996 7995 ] final   19.84 input   59.86 | X-H torsion
[ 10167 10162 10161 10158 ] final  144.45 input  -65.29 | X-H torsion
[ 10718 10713 10712 10709 ] final -145.07 input   66.30 | X-H torsion
[ 10763 10752 10751 10750 ] final   66.40 input  -60.55 | X-H torsion
[ 11005 11000 10999 10996 ] final  -12.71 input  -57.11 | X-H torsion

> <Gold.Protein.ActiveResidues>
 VAL166  LYS551  ARG553  GLY616  TRP617  ASP618  TYR619  PRO620  LYS621  CYS622 
 ASP623  PHE694  ASN695  SER759  ASP760  ASP761  ALA762  ILE779  LEU786  VAL792 
 PHE793  MET794  SER795  GLU796  ALA797  LYS798  CYS799  TRP800  GLU811  SER814 

> <Gold.Protein.RotatedAtoms>
  152.2405  134.8233  160.0460 H   0  0  0  0  0  0  0  0  0  0  0  0  # atno 6907 bound_to 6896
  151.8949  133.3519  159.3819 H   0  0  0  0  0  0  0  0  0  0  0  0  # atno 6908 bound_to 6896
  150.7052  134.4813  159.5516 H   0  0  0  0  0  0  0  0  0  0  0  0  # atno 6909 bound_to 6896
  144.7929  140.4981  143.5760 H   0  0  0  0  0  0  0  0  0  0  0  0  # atno 7974 bound_to 7965
  154.9266  140.3034  155.5189 H   0  0  0  0  0  0  0  0  0  0  0  0  # atno 8008 bound_to 7997
  156.3006  140.2361  156.4258 H   0  0  0  0  0  0  0  0  0  0  0  0  # atno 8009 bound_to 7997
  154.8278  140.0420  157.1444 H   0  0  0  0  0  0  0  0  0  0  0  0  # atno 8010 bound_to 7997
  139.4947  144.5971  151.6559 H   0  0  0  0  0  0  0  0  0  0  0  0  # atno 10167 bound_to 10162
  156.3779  130.7821  151.2010 H   0  0  0  0  0  0  0  0  0  0  0  0  # atno 10718 bound_to 10713
  153.0138  135.5322  154.6817 H   0  0  0  0  0  0  0  0  0  0  0  0  # atno 10763 bound_to 10752
  154.5975  135.2865  155.0573 H   0  0  0  0  0  0  0  0  0  0  0  0  # atno 10764 bound_to 10752
  154.1642  135.6542  153.5046 H   0  0  0  0  0  0  0  0  0  0  0  0  # atno 10765 bound_to 10752
  140.7686  133.8457  155.9187 H   0  0  0  0  0  0  0  0  0  0  0  0  # atno 11005 bound_to 11000
  145.5747  139.1485  143.3269 LP  0  0  0  0  0  0  0  0  0  0  0  0  # atno 17320 bound_to 7965
  146.2188  140.5879  142.9026 LP  0  0  0  0  0  0  0  0  0  0  0  0  # atno 17321 bound_to 7965
  140.5612  144.0266  150.6170 LP  0  0  0  0  0  0  0  0  0  0  0  0  # atno 17342 bound_to 10162
  140.3352  143.3053  152.0646 LP  0  0  0  0  0  0  0  0  0  0  0  0  # atno 17343 bound_to 10162
  157.7490  131.0353  150.4356 LP  0  0  0  0  0  0  0  0  0  0  0  0  # atno 17370 bound_to 10713
  156.4595  130.4029  149.6585 LP  0  0  0  0  0  0  0  0  0  0  0  0  # atno 17371 bound_to 10713
  140.9596  134.1673  157.4665 LP  0  0  0  0  0  0  0  0  0  0  0  0  # atno 17394 bound_to 11000
  139.8759  134.9939  156.5670 LP  0  0  0  0  0  0  0  0  0  0  0  0  # atno 17395 bound_to 11000

$$$$
