AV-unprocessed.smi:500|AV-procd|sdf|2735|dock3
  -GOLD-   2262023183D 1   1.00000     0.00000
 Structure written by MMmdl.
 45 47  0  0  0  0  0  0  0  0  1 V2000
  147.0414  142.2172  154.0479 C   0  0  0  0  0  0  0  0  0  0  0  0
  147.9360  140.9836  153.9070 C   0  0  0  0  0  0  0  0  0  0  0  0
  149.2927  141.3883  154.0149 O   0  0  0  0  0  0  0  0  0  0  0  0
  150.0361  140.6647  154.9845 C   0  0  0  0  0  0  0  0  0  0  0  0
  149.3058  140.6226  156.3373 C   0  0  0  0  0  0  0  0  0  0  0  0
  150.2362  140.4353  157.4392 N   0  0  0  0  0  0  0  0  0  0  0  0
  150.4775  139.3089  158.1588 C   0  0  0  0  0  0  0  0  0  0  0  0
  149.7589  138.0099  157.8862 C   0  0  1  0  0  0  0  0  0  0  0  0
  150.7071  136.9348  157.3394 C   0  0  0  0  0  0  0  0  0  0  0  0
  149.1367  137.5458  159.1251 N   0  0  0  0  0  0  0  0  0  0  0  0
  148.4541  136.3986  159.2716 C   0  0  0  0  0  0  0  0  0  0  0  0
  148.3079  135.5746  158.3691 O   0  0  0  0  0  0  0  0  0  0  0  0
  147.8784  136.1621  160.6086 C   0  0  0  0  0  0  0  0  0  0  0  0
  147.5300  135.0039  161.2531 C   0  0  0  0  0  0  0  0  0  0  0  0
  147.0417  135.3821  162.5343 C   0  0  0  0  0  0  0  0  0  0  0  0
  147.1316  136.7436  162.5836 C   0  0  0  0  0  0  0  0  0  0  0  0
  147.6429  137.2330  161.4215 O   0  0  0  0  0  0  0  0  0  0  0  0
  151.4144  139.4231  159.1049 N   0  0  0  0  0  0  0  0  0  0  0  0
  151.7900  140.7477  159.0093 C   0  0  0  0  0  0  0  0  0  0  0  0
  152.7365  141.4896  159.7515 C   0  0  0  0  0  0  0  0  0  0  0  0
  152.9516  142.8549  159.4712 C   0  0  0  0  0  0  0  0  0  0  0  0
  152.2259  143.4959  158.4463 C   0  0  0  0  0  0  0  0  0  0  0  0
  151.2799  142.7739  157.6934 C   0  0  0  0  0  0  0  0  0  0  0  0
  151.0688  141.4112  157.9775 C   0  0  0  0  0  0  0  0  0  0  0  0
  145.9883  141.9445  153.9769 H   0  0  0  0  0  0  0  0  0  0  0  0
  147.2519  142.9451  153.2639 H   0  0  0  0  0  0  0  0  0  0  0  0
  147.1967  142.7055  155.0105 H   0  0  0  0  0  0  0  0  0  0  0  0
  147.6963  140.2624  154.6897 H   0  0  0  0  0  0  0  0  0  0  0  0
  147.7474  140.5026  152.9472 H   0  0  0  0  0  0  0  0  0  0  0  0
  150.1523  139.6459  154.6133 H   0  0  0  0  0  0  0  0  0  0  0  0
  151.0431  141.0710  155.0841 H   0  0  0  0  0  0  0  0  0  0  0  0
  148.7241  141.5262  156.5140 H   0  0  0  0  0  0  0  0  0  0  0  0
  148.5894  139.8009  156.3440 H   0  0  0  0  0  0  0  0  0  0  0  0
  148.9697  138.1677  157.1511 H   0  0  0  0  0  0  0  0  0  0  0  0
  151.1656  137.2592  156.4050 H   0  0  0  0  0  0  0  0  0  0  0  0
  150.1735  136.0051  157.1396 H   0  0  0  0  0  0  0  0  0  0  0  0
  151.5095  136.7150  158.0446 H   0  0  0  0  0  0  0  0  0  0  0  0
  149.2010  138.1615  159.9228 H   0  0  0  0  0  0  0  0  0  0  0  0
  147.6171  134.0040  160.8537 H   0  0  0  0  0  0  0  0  0  0  0  0
  146.6743  134.7398  163.3209 H   0  0  0  0  0  0  0  0  0  0  0  0
  146.8913  137.4855  163.3309 H   0  0  0  0  0  0  0  0  0  0  0  0
  153.2964  141.0080  160.5394 H   0  0  0  0  0  0  0  0  0  0  0  0
  153.6761  143.4131  160.0458 H   0  0  0  0  0  0  0  0  0  0  0  0
  152.3957  144.5424  158.2391 H   0  0  0  0  0  0  0  0  0  0  0  0
  150.7217  143.2625  156.9086 H   0  0  0  0  0  0  0  0  0  0  0  0
  1  2  1  0  0  0  0
  1 25  1  0  0  0  0
  1 26  1  0  0  0  0
  1 27  1  0  0  0  0
  2  3  1  0  0  0  0
  2 28  1  0  0  0  0
  2 29  1  0  0  0  0
  3  4  1  0  0  0  0
  4  5  1  0  0  0  0
  4 30  1  0  0  0  0
  4 31  1  0  0  0  0
  5  6  1  0  0  0  0
  5 32  1  0  0  0  0
  5 33  1  0  0  0  0
  6 24  1  0  0  0  0
  6  7  1  0  0  0  0
  7  8  1  0  0  0  0
  7 18  2  0  0  0  0
  8  9  1  0  0  0  0
  8 10  1  0  0  0  0
  8 34  1  0  0  0  0
  9 35  1  0  0  0  0
  9 36  1  0  0  0  0
  9 37  1  0  0  0  0
 10 11  1  0  0  0  0
 10 38  1  0  0  0  0
 11 12  2  0  0  0  0
 11 13  1  0  0  0  0
 13 17  1  0  0  0  0
 13 14  2  0  0  0  0
 14 15  1  0  0  0  0
 14 39  1  0  0  0  0
 15 16  2  0  0  0  0
 15 40  1  0  0  0  0
 16 17  1  0  0  0  0
 16 41  1  0  0  0  0
 18 19  1  0  0  0  0
 19 24  2  0  0  0  0
 19 20  1  0  0  0  0
 20 21  2  0  0  0  0
 20 42  1  0  0  0  0
 21 22  1  0  0  0  0
 21 43  1  0  0  0  0
 22 23  2  0  0  0  0
 22 44  1  0  0  0  0
 23 24  1  0  0  0  0
 23 45  1  0  0  0  0
M  END
> <s_m_source_file>
AV-unprocessed.smi

> <i_m_source_file_index>
500

> <i_lp_mmshare_version>
43012

> <i_f3d_flags>
0

> <s_epik_input>
W0NIM11bQ0gyXU9bQ0gyXVtDSDJdbihjKGMxMilbY0hdW2NIXVtjSF1bY0hdMiljKG4xKVtDQEhdKFtDSDNdKVtOSF1DKD1PKWMzW2NIXVtjSF1bY0hdbzM=

> <s_epik_cmdline>
J2VwaWtfcHl0aG9uJywgJy1waCcsICc3LjAnLCAnLXRuJywgJzgnLCAnLW1hJywgJzIwMCcsICctbWV0YWxfYmluZGluZycsICctaW1hZScsICc8aW5maWxlLm1hZT4nLCAnLW9tYWUnLCAnPG91dGZpbGUubWFlPic=

> <r_epik_Ionization_Penalty>
0.109801

> <r_epik_Ionization_Penalty_Charging>
0

> <r_epik_Ionization_Penalty_Neutral>
0.109801

> <r_epik_State_Penalty>
0.0995533

> <r_epik_Charging_Adjusted_Penalty>
0.0995533

> <i_epik_Tot_Q>
0

> <i_epik_Tot_abs_Q>
0

> <r_epik_Metal_State_Penalty>
0.0918163

> <b_epik_Metal_Only>
0

> <s_lp_Force_Field>
OPLS_2005

> <r_lp_Energy>
7.77682

> <b_lp_Chiralities_Consistent>
1

> <s_lp_Variant>
AV-unprocessed.smi:500-2

> <Gold.Version>
5.8.1

> <Gold.Id.Protein>
6NUR|6NUR_protein|mol2

> <Gold.PLP.Fitness>
55.2286

> <Gold.PLP.PLP>
-49.9016

> <Gold.PLP.part.hbond>
-4.0000

> <Gold.PLP.part.metal>
0.0000

> <Gold.PLP.part.buried>
-5.1134

> <Gold.PLP.part.nonpolar>
-40.6839

> <Gold.PLP.part.repulsive>
0.4158

> <Gold.PLP.ligand.clash>
0.0000

> <Gold.PLP.ligand.torsion>
1.0615

> <Gold.PLP.Chemscore.Hbond>
2.4498

> <Gold.PLP.Chemscore.CHOScore>
0.0000

> <Gold.PLP.Chemscore.Metal>
0.0000

> <Gold.Chemscore.Hbonds>
donor molecule, donor type, donor heavy atom, donor atom, acceptor molecule, acceptor atom, score
      P1  H  6931  6943       L1    17  0.96
      P1  H  6934  6947       L1    17  0.82
      P1  H  8011  8017       L1     3  0.73

> <Gold.PLP.Chemscore.Internal.Correction>
0.1005

> <Gold.Rescore>
     Score         DG    S(hbond)    S(metal)    S(lipo)     H(rot)  DE(clash)    DE(int)     intcor
     19.53     -20.64       1.83        0.00     119.28       1.92       0.10       1.02       ----

> <Gold.Chemscore.Fitness>
19.5269

> <Gold.Chemscore.DG>
-20.6413

> <Gold.Chemscore.ZeroCoef>
-5.4800

> <Gold.Chemscore.Hbond>
1.8293

> <Gold.Chemscore.Metal>
0.0000

> <Gold.Chemscore.Lipo>
119.2773

> <Gold.Chemscore.Internal_Hbond>
0.0000

> <Gold.Chemscore.DEClash>
0.0951

> <Gold.Chemscore.DEInternal>
1.0193

> <Gold.Chemscore.Rot>
1.9156

> <Gold.Chemscore.Internal.Correction>
   9.000000E+99

> <Gold.Chemscore.Hbonds>
donor molecule, donor type, donor heavy atom, donor atom, acceptor molecule, acceptor atom, score
      P1  H  6931  6943       L1    17  0.45
      P1  H  6934  6947       L1    17  0.77
      P1  H  8011  8017       L1     3  0.48

> <Gold.Chemscore.Hbond.Weighted>
-6.1099

> <Gold.Chemscore.Metal.Weighted>
-0.0000

> <Gold.Chemscore.Lipo.Weighted>
-13.9554

> <Gold.Chemscore.Internal_Hbond.Weighted>
0.0000

> <Gold.Chemscore.DEClash.Weighted>
0.0951

> <Gold.Chemscore.DEInternal.Weighted>
1.0193

> <Gold.Chemscore.Rot.Weighted>
4.9041

> <Gold.Chemscore.Internal.Correction.Weighted>
   9.000000E+99

> <Gold.Protein.RotatedTorsions>
[ 6907 6896 6895 6894 ] final  -59.08 input  -60.11 | X-H torsion
[ 7974 7965 7964 7962 ] final  -49.68 input  175.53 | X-H torsion
[ 8008 7997 7996 7995 ] final  176.39 input   59.86 | X-H torsion
[ 10167 10162 10161 10158 ] final  -48.05 input  -65.29 | X-H torsion
[ 10718 10713 10712 10709 ] final -148.08 input   66.30 | X-H torsion
[ 10763 10752 10751 10750 ] final -151.42 input  -60.55 | X-H torsion
[ 11005 11000 10999 10996 ] final    7.96 input  -57.11 | X-H torsion

> <Gold.Protein.ActiveResidues>
 VAL166  LYS551  ARG553  GLY616  TRP617  ASP618  TYR619  PRO620  LYS621  CYS622 
 ASP623  PHE694  ASN695  SER759  ASP760  ASP761  ALA762  ILE779  LEU786  VAL792 
 PHE793  MET794  SER795  GLU796  ALA797  LYS798  CYS799  TRP800  GLU811  SER814 

> <Gold.Protein.RotatedAtoms>
  150.7958  134.7015  159.6552 H   0  0  0  0  0  0  0  0  0  0  0  0  # atno 6907 bound_to 6896
  152.4069  134.6188  160.0055 H   0  0  0  0  0  0  0  0  0  0  0  0  # atno 6908 bound_to 6896
  151.6442  133.3287  159.3173 H   0  0  0  0  0  0  0  0  0  0  0  0  # atno 6909 bound_to 6896
  145.9380  140.7689  142.9566 H   0  0  0  0  0  0  0  0  0  0  0  0  # atno 7974 bound_to 7965
  156.0769  140.1385  156.9760 H   0  0  0  0  0  0  0  0  0  0  0  0  # atno 8008 bound_to 7997
  154.4563  140.0960  156.6816 H   0  0  0  0  0  0  0  0  0  0  0  0  # atno 8009 bound_to 7997
  155.5138  140.3454  155.4395 H   0  0  0  0  0  0  0  0  0  0  0  0  # atno 8010 bound_to 7997
  140.6748  143.2757  151.4014 H   0  0  0  0  0  0  0  0  0  0  0  0  # atno 10167 bound_to 10162
  156.4157  130.8004  151.2224 H   0  0  0  0  0  0  0  0  0  0  0  0  # atno 10718 bound_to 10713
  154.8059  135.3260  154.7433 H   0  0  0  0  0  0  0  0  0  0  0  0  # atno 10763 bound_to 10752
  153.8092  135.6897  153.4848 H   0  0  0  0  0  0  0  0  0  0  0  0  # atno 10764 bound_to 10752
  153.1804  135.4589  154.9965 H   0  0  0  0  0  0  0  0  0  0  0  0  # atno 10765 bound_to 10752
  140.5424  134.0361  155.7908 H   0  0  0  0  0  0  0  0  0  0  0  0  # atno 11005 bound_to 11000
  144.6774  140.2233  143.7364 LP  0  0  0  0  0  0  0  0  0  0  0  0  # atno 17320 bound_to 7965
  145.8338  139.2098  143.1867 LP  0  0  0  0  0  0  0  0  0  0  0  0  # atno 17321 bound_to 7965
  139.6035  144.1246  152.2224 LP  0  0  0  0  0  0  0  0  0  0  0  0  # atno 17342 bound_to 10162
  140.0638  144.5835  150.7243 LP  0  0  0  0  0  0  0  0  0  0  0  0  # atno 17343 bound_to 10162
  157.7508  131.0244  150.3874 LP  0  0  0  0  0  0  0  0  0  0  0  0  # atno 17370 bound_to 10713
  156.4181  130.3947  149.6844 LP  0  0  0  0  0  0  0  0  0  0  0  0  # atno 17371 bound_to 10713
  141.1219  133.9447  157.2712 LP  0  0  0  0  0  0  0  0  0  0  0  0  # atno 17394 bound_to 11000
  139.9497  135.0178  156.8957 LP  0  0  0  0  0  0  0  0  0  0  0  0  # atno 17395 bound_to 11000

$$$$
