AV-unprocessed.smi:331|AV-procd|sdf|2350|dock9
  -GOLD-   2262022263D 1   1.00000     0.00000
 Structure written by MMmdl.
 36 37  0  0  0  0  0  0  0  0  1 V2000
  144.9714  137.8964  152.9496 O   0  0  0  0  0  0  0  0  0  0  0  0
  146.0496  137.5499  152.4709 C   0  0  0  0  0  0  0  0  0  0  0  0
  147.0817  138.3892  152.2860 N   0  0  0  0  0  0  0  0  0  0  0  0
  147.0463  139.8284  152.5213 C   0  0  0  0  0  0  0  0  0  0  0  0
  146.8710  140.1676  154.0138 C   0  0  0  0  0  0  0  0  0  0  0  0
  148.1881  140.4175  154.7290 C   0  0  0  0  0  0  0  0  0  0  0  0
  148.2312  141.1385  155.9406 C   0  0  0  0  0  0  0  0  0  0  0  0
  149.4788  141.3596  156.5544 C   0  0  0  0  0  0  0  0  0  0  0  0
  150.6332  140.8458  155.9306 C   0  0  0  0  0  0  0  0  0  0  0  0
  150.6040  140.1527  154.7719 N   0  0  0  0  0  0  0  0  0  0  0  0
  149.4034  139.9459  154.1891 C   0  0  0  0  0  0  0  0  0  0  0  0
  146.2860  136.2810  152.0934 N   0  0  0  0  0  0  0  0  0  0  0  0
  145.3732  135.1372  152.1648 C   0  0  0  0  0  0  0  0  0  0  0  0
  146.0776  133.8487  151.6993 C   0  0  0  0  0  0  0  0  0  0  0  0
  145.1097  133.1625  150.7344 C   0  0  0  0  0  0  0  0  0  0  0  0
  144.3378  134.3130  150.0970 C   0  0  0  0  0  0  0  0  0  0  0  0
  144.1560  135.3184  151.2348 C   0  0  0  0  0  0  0  0  0  0  0  0
  147.9356  138.0119  151.9017 H   0  0  0  0  0  0  0  0  0  0  0  0
  147.9428  140.3055  152.1226 H   0  0  0  0  0  0  0  0  0  0  0  0
  146.2059  140.2313  151.9554 H   0  0  0  0  0  0  0  0  0  0  0  0
  146.2389  141.0503  154.1193 H   0  0  0  0  0  0  0  0  0  0  0  0
  146.3422  139.3567  154.5161 H   0  0  0  0  0  0  0  0  0  0  0  0
  147.3264  141.5236  156.3880 H   0  0  0  0  0  0  0  0  0  0  0  0
  149.5497  141.9104  157.4806 H   0  0  0  0  0  0  0  0  0  0  0  0
  151.6065  140.9970  156.3737 H   0  0  0  0  0  0  0  0  0  0  0  0
  149.4137  139.3930  153.2613 H   0  0  0  0  0  0  0  0  0  0  0  0
  147.2246  136.0726  151.7844 H   0  0  0  0  0  0  0  0  0  0  0  0
  145.0308  134.9980  153.1922 H   0  0  0  0  0  0  0  0  0  0  0  0
  146.9995  134.0854  151.1647 H   0  0  0  0  0  0  0  0  0  0  0  0
  146.3478  133.2021  152.5351 H   0  0  0  0  0  0  0  0  0  0  0  0
  145.6205  132.5397  149.9996 H   0  0  0  0  0  0  0  0  0  0  0  0
  144.4231  132.5249  151.2931 H   0  0  0  0  0  0  0  0  0  0  0  0
  144.9364  134.7608  149.3024 H   0  0  0  0  0  0  0  0  0  0  0  0
  143.3900  133.9945  149.6618 H   0  0  0  0  0  0  0  0  0  0  0  0
  143.2463  135.0768  151.7860 H   0  0  0  0  0  0  0  0  0  0  0  0
  144.0415  136.3368  150.8608 H   0  0  0  0  0  0  0  0  0  0  0  0
  1  2  2  0  0  0  0
  2  3  1  0  0  0  0
  2 12  1  0  0  0  0
  3  4  1  0  0  0  0
  3 18  1  0  0  0  0
  4  5  1  0  0  0  0
  4 19  1  0  0  0  0
  4 20  1  0  0  0  0
  5  6  1  0  0  0  0
  5 21  1  0  0  0  0
  5 22  1  0  0  0  0
  6 11  1  0  0  0  0
  6  7  2  0  0  0  0
  7  8  1  0  0  0  0
  7 23  1  0  0  0  0
  8  9  2  0  0  0  0
  8 24  1  0  0  0  0
  9 10  1  0  0  0  0
  9 25  1  0  0  0  0
 10 11  2  0  0  0  0
 11 26  1  0  0  0  0
 12 13  1  0  0  0  0
 12 27  1  0  0  0  0
 13 17  1  0  0  0  0
 13 14  1  0  0  0  0
 13 28  1  0  0  0  0
 14 15  1  0  0  0  0
 14 29  1  0  0  0  0
 14 30  1  0  0  0  0
 15 16  1  0  0  0  0
 15 31  1  0  0  0  0
 15 32  1  0  0  0  0
 16 17  1  0  0  0  0
 16 33  1  0  0  0  0
 16 34  1  0  0  0  0
 17 35  1  0  0  0  0
 17 36  1  0  0  0  0
M  END
> <s_m_source_file>
AV-unprocessed.smi

> <i_m_source_file_index>
331

> <i_lp_mmshare_version>
43012

> <i_f3d_flags>
0

> <s_epik_input>
W0NIMl0xW0NIMl1bQ0gyXVtDSDJdW0NIXTFbTkhdQyg9TylbTkhdW0NIMl1bQ0gyXWMyW2NIXVtjSF1bY0hdbltjSF0y

> <s_epik_cmdline>
J2VwaWtfcHl0aG9uJywgJy1waCcsICc3LjAnLCAnLXRuJywgJzgnLCAnLW1hJywgJzIwMCcsICctbWV0YWxfYmluZGluZycsICctaW1hZScsICc8aW5maWxlLm1hZT4nLCAnLW9tYWUnLCAnPG91dGZpbGUubWFlPic=

> <r_epik_Ionization_Penalty>
0.0144384

> <r_epik_Ionization_Penalty_Charging>
0

> <r_epik_Ionization_Penalty_Neutral>
0.0144384

> <r_epik_State_Penalty>
0.0112394

> <r_epik_Charging_Adjusted_Penalty>
0.0112394

> <i_epik_Tot_Q>
0

> <i_epik_Tot_abs_Q>
0

> <r_epik_Metal_State_Penalty>
0.0109726

> <b_epik_Metal_Only>
0

> <s_lp_Force_Field>
OPLS_2005

> <r_lp_Energy>
25.692

> <b_lp_Chiralities_Consistent>
1

> <s_lp_Variant>
AV-unprocessed.smi:331-1

> <Gold.Version>
5.8.1

> <Gold.Id.Protein>
6NUR|6NUR_protein|mol2

> <Gold.PLP.Fitness>
37.2503

> <Gold.PLP.PLP>
-26.9999

> <Gold.PLP.part.hbond>
-3.4282

> <Gold.PLP.part.metal>
0.0000

> <Gold.PLP.part.buried>
-1.0764

> <Gold.PLP.part.nonpolar>
-23.9722

> <Gold.PLP.part.repulsive>
1.0135

> <Gold.PLP.ligand.clash>
0.0000

> <Gold.PLP.ligand.torsion>
0.5544

> <Gold.PLP.Chemscore.Hbond>
2.7840

> <Gold.PLP.Chemscore.CHOScore>
1.0000

> <Gold.PLP.Chemscore.Metal>
0.0000

> <Gold.Chemscore.Hbonds>
donor molecule, donor type, donor heavy atom, donor atom, acceptor molecule, acceptor atom, score
      L1  H     3    18       P1  7948  0.80
      L1  H    12    27       P1  7948  1.00
      P1  H  7989  7998       L1    10  1.00
      L1  C    11    26       P1  7957  1.00

> <Gold.PLP.Chemscore.Internal.Correction>
0.0072

> <Gold.Rescore>
     Score         DG    S(hbond)    S(metal)    S(lipo)     H(rot)  DE(clash)    DE(int)     intcor
     17.55     -18.38       2.69        0.00      66.52       1.51       0.34       0.49       ----

> <Gold.Chemscore.Fitness>
17.5483

> <Gold.Chemscore.DG>
-18.3806

> <Gold.Chemscore.ZeroCoef>
-5.4800

> <Gold.Chemscore.Hbond>
2.6865

> <Gold.Chemscore.Metal>
0.0000

> <Gold.Chemscore.Lipo>
66.5201

> <Gold.Chemscore.Internal_Hbond>
0.0000

> <Gold.Chemscore.DEClash>
0.3434

> <Gold.Chemscore.DEInternal>
0.4889

> <Gold.Chemscore.Rot>
1.5060

> <Gold.Chemscore.Internal.Correction>
   9.000000E+99

> <Gold.Chemscore.Hbonds>
donor molecule, donor type, donor heavy atom, donor atom, acceptor molecule, acceptor atom, score
      L1  H     3    18       P1  7948  0.75
      L1  H    12    27       P1  7948  0.98
      P1  H  7989  7998       L1    10  0.43

> <Gold.Chemscore.Hbond.Weighted>
-8.9731

> <Gold.Chemscore.Metal.Weighted>
-0.0000

> <Gold.Chemscore.Lipo.Weighted>
-7.7828

> <Gold.Chemscore.Internal_Hbond.Weighted>
0.0000

> <Gold.Chemscore.DEClash.Weighted>
0.3434

> <Gold.Chemscore.DEInternal.Weighted>
0.4889

> <Gold.Chemscore.Rot.Weighted>
3.8553

> <Gold.Chemscore.Internal.Correction.Weighted>
   9.000000E+99

> <Gold.Protein.RotatedTorsions>
[ 6907 6896 6895 6894 ] final   52.51 input  -60.11 | X-H torsion
[ 7974 7965 7964 7962 ] final  132.36 input  175.53 | X-H torsion
[ 8008 7997 7996 7995 ] final  133.94 input   59.86 | X-H torsion
[ 10167 10162 10161 10158 ] final  135.16 input  -65.29 | X-H torsion
[ 10718 10713 10712 10709 ] final -112.62 input   66.30 | X-H torsion
[ 10763 10752 10751 10750 ] final -152.90 input  -60.55 | X-H torsion
[ 11005 11000 10999 10996 ] final  -91.63 input  -57.11 | X-H torsion

> <Gold.Protein.ActiveResidues>
 VAL166  LYS551  ARG553  GLY616  TRP617  ASP618  TYR619  PRO620  LYS621  CYS622 
 ASP623  PHE694  ASN695  SER759  ASP760  ASP761  ALA762  ILE779  LEU786  VAL792 
 PHE793  MET794  SER795  GLU796  ALA797  LYS798  CYS799  TRP800  GLU811  SER814 

> <Gold.Protein.RotatedAtoms>
  152.3240  134.7344  160.0306 H   0  0  0  0  0  0  0  0  0  0  0  0  # atno 6907 bound_to 6896
  151.7783  133.3342  159.3472 H   0  0  0  0  0  0  0  0  0  0  0  0  # atno 6908 bound_to 6896
  150.7385  134.5886  159.6020 H   0  0  0  0  0  0  0  0  0  0  0  0  # atno 6909 bound_to 6896
  144.9977  139.4343  143.5308 H   0  0  0  0  0  0  0  0  0  0  0  0  # atno 7974 bound_to 7965
  156.2996  140.2508  156.3336 H   0  0  0  0  0  0  0  0  0  0  0  0  # atno 8008 bound_to 7997
  154.9121  140.0403  157.1971 H   0  0  0  0  0  0  0  0  0  0  0  0  # atno 8009 bound_to 7997
  154.8394  140.2888  155.5673 H   0  0  0  0  0  0  0  0  0  0  0  0  # atno 8010 bound_to 7997
  139.5228  144.6531  151.5243 H   0  0  0  0  0  0  0  0  0  0  0  0  # atno 10167 bound_to 10162
  156.0717  130.5929  150.8533 H   0  0  0  0  0  0  0  0  0  0  0  0  # atno 10718 bound_to 10713
  154.7963  135.3225  154.7658 H   0  0  0  0  0  0  0  0  0  0  0  0  # atno 10763 bound_to 10752
  153.8335  135.6877  153.4816 H   0  0  0  0  0  0  0  0  0  0  0  0  # atno 10764 bound_to 10752
  153.1657  135.4643  154.9775 H   0  0  0  0  0  0  0  0  0  0  0  0  # atno 10765 bound_to 10752
  141.1540  133.7768  156.9907 H   0  0  0  0  0  0  0  0  0  0  0  0  # atno 11005 bound_to 11000
  146.3445  139.9347  142.8749 LP  0  0  0  0  0  0  0  0  0  0  0  0  # atno 17320 bound_to 7965
  145.2197  140.9930  143.4053 LP  0  0  0  0  0  0  0  0  0  0  0  0  # atno 17321 bound_to 7965
  140.6345  143.9012  150.6635 LP  0  0  0  0  0  0  0  0  0  0  0  0  # atno 17342 bound_to 10162
  140.2326  143.3724  152.1553 LP  0  0  0  0  0  0  0  0  0  0  0  0  # atno 17343 bound_to 10162
  157.5791  131.0946  150.9300 LP  0  0  0  0  0  0  0  0  0  0  0  0  # atno 17370 bound_to 10713
  156.9499  130.5416  149.5282 LP  0  0  0  0  0  0  0  0  0  0  0  0  # atno 17371 bound_to 10713
  140.1005  134.9538  157.1915 LP  0  0  0  0  0  0  0  0  0  0  0  0  # atno 17394 bound_to 11000
  140.3325  134.2794  155.7225 LP  0  0  0  0  0  0  0  0  0  0  0  0  # atno 17395 bound_to 11000

$$$$
