AV-unprocessed.smi:2973|AV-procd|sdf|11341|dock3
  -GOLD-   2272016253D 1   1.00000     0.00000
 Structure written by MMmdl.
 50 52  0  0  0  0  0  0  0  0  2 V2000
  152.0748  140.5284  159.2966 C   0  0  0  0  0  0  0  0  0  0  0  0
  152.2288  142.0142  158.9072 C   0  0  2  0  0  0  0  0  0  0  0  0
  151.9739  142.9268  160.1265 C   0  0  0  0  0  0  0  0  0  0  0  0
  152.2137  144.4065  159.7887 C   0  0  0  0  0  0  0  0  0  0  0  0
  151.3565  144.8574  158.5979 C   0  0  0  0  0  0  0  0  0  0  0  0
  151.5949  143.9616  157.3693 C   0  0  0  0  0  0  0  0  0  0  0  0
  151.3891  142.4547  157.6657 C   0  0  1  0  0  0  0  0  0  0  0  0
  151.7422  141.6740  156.4926 N   0  0  0  0  0  0  0  0  0  0  0  0
  150.7121  140.9861  155.9854 C   0  0  0  0  0  0  0  0  0  0  0  0
  150.7681  140.2434  155.0064 O   0  0  0  0  0  0  0  0  0  0  0  0
  149.6252  141.2405  156.7344 N   0  0  0  0  0  0  0  0  0  0  0  0
  148.3121  140.6219  156.5128 C   0  0  0  0  0  0  0  0  0  0  0  0
  147.5522  141.2429  155.3324 C   0  0  0  0  0  0  0  0  0  0  0  0
  147.4780  140.6592  154.2499 O   0  0  0  0  0  0  0  0  0  0  0  0
  146.9807  142.4345  155.5614 N   0  0  0  0  0  0  0  0  0  0  0  0
  146.2236  143.1999  154.5781 C   0  0  0  0  0  0  0  0  0  0  0  0
  144.7064  143.0213  154.7631 C   0  0  0  0  0  0  0  0  0  0  0  0
  143.9848  144.3473  154.8998 C   0  0  0  0  0  0  0  0  0  0  0  0
  144.3722  145.3165  155.8504 C   0  0  0  0  0  0  0  0  0  0  0  0
  143.6639  146.5342  155.9204 C   0  0  0  0  0  0  0  0  0  0  0  0
  142.5855  146.7570  155.0393 C   0  0  0  0  0  0  0  0  0  0  0  0
  142.2427  145.7555  154.1082 C   0  0  0  0  0  0  0  0  0  0  0  0
  142.9460  144.6022  154.0715 N   0  3  0  0  0  0  0  0  0  0  0  0
  149.9074  142.0793  157.7409 C   0  0  0  0  0  0  0  0  0  0  0  0
  149.1258  142.4826  158.6024 O   0  0  0  0  0  0  0  0  0  0  0  0
  151.0627  140.2994  159.6310 H   0  0  0  0  0  0  0  0  0  0  0  0
  152.7511  140.2694  160.1116 H   0  0  0  0  0  0  0  0  0  0  0  0
  152.3086  139.8659  158.4631 H   0  0  0  0  0  0  0  0  0  0  0  0
  153.2775  142.1443  158.6353 H   0  0  0  0  0  0  0  0  0  0  0  0
  150.9566  142.7938  160.4953 H   0  0  0  0  0  0  0  0  0  0  0  0
  152.6311  142.6378  160.9475 H   0  0  0  0  0  0  0  0  0  0  0  0
  151.9948  145.0261  160.6587 H   0  0  0  0  0  0  0  0  0  0  0  0
  153.2682  144.5615  159.5573 H   0  0  0  0  0  0  0  0  0  0  0  0
  150.3031  144.8441  158.8773 H   0  0  0  0  0  0  0  0  0  0  0  0
  151.5890  145.8929  158.3480 H   0  0  0  0  0  0  0  0  0  0  0  0
  150.9407  144.2839  156.5575 H   0  0  0  0  0  0  0  0  0  0  0  0
  152.6128  144.1210  157.0104 H   0  0  0  0  0  0  0  0  0  0  0  0
  152.6784  141.6522  156.1151 H   0  0  0  0  0  0  0  0  0  0  0  0
  148.4204  139.5515  156.3305 H   0  0  0  0  0  0  0  0  0  0  0  0
  147.7100  140.7092  157.4192 H   0  0  0  0  0  0  0  0  0  0  0  0
  147.0810  142.8399  156.4809 H   0  0  0  0  0  0  0  0  0  0  0  0
  146.4947  144.2553  154.6415 H   0  0  0  0  0  0  0  0  0  0  0  0
  146.5220  142.8617  153.5855 H   0  0  0  0  0  0  0  0  0  0  0  0
  144.2875  142.4749  153.9168 H   0  0  0  0  0  0  0  0  0  0  0  0
  144.4996  142.4185  155.6485 H   0  0  0  0  0  0  0  0  0  0  0  0
  145.2028  145.1320  156.5166 H   0  0  0  0  0  0  0  0  0  0  0  0
  143.9452  147.2884  156.6410 H   0  0  0  0  0  0  0  0  0  0  0  0
  142.0301  147.6830  155.0769 H   0  0  0  0  0  0  0  0  0  0  0  0
  141.4336  145.8410  153.3974 H   0  0  0  0  0  0  0  0  0  0  0  0
  142.6803  143.8915  153.3892 H   0  0  0  0  0  0  0  0  0  0  0  0
  1  2  1  0  0  0  0
  1 26  1  0  0  0  0
  1 27  1  0  0  0  0
  1 28  1  0  0  0  0
  2  7  1  0  0  0  0
  2  3  1  0  0  0  0
  2 29  1  0  0  0  0
  3  4  1  0  0  0  0
  3 30  1  0  0  0  0
  3 31  1  0  0  0  0
  4  5  1  0  0  0  0
  4 32  1  0  0  0  0
  4 33  1  0  0  0  0
  5  6  1  0  0  0  0
  5 34  1  0  0  0  0
  5 35  1  0  0  0  0
  6  7  1  0  0  0  0
  6 36  1  0  0  0  0
  6 37  1  0  0  0  0
  7 24  1  0  0  0  0
  7  8  1  0  0  0  0
  8  9  1  0  0  0  0
  8 38  1  0  0  0  0
  9 10  2  0  0  0  0
  9 11  1  0  0  0  0
 11 12  1  0  0  0  0
 11 24  1  0  0  0  0
 12 13  1  0  0  0  0
 12 39  1  0  0  0  0
 12 40  1  0  0  0  0
 13 14  2  0  0  0  0
 13 15  1  0  0  0  0
 15 16  1  0  0  0  0
 15 41  1  0  0  0  0
 16 17  1  0  0  0  0
 16 42  1  0  0  0  0
 16 43  1  0  0  0  0
 17 18  1  0  0  0  0
 17 44  1  0  0  0  0
 17 45  1  0  0  0  0
 18 23  1  0  0  0  0
 18 19  2  0  0  0  0
 19 20  1  0  0  0  0
 19 46  1  0  0  0  0
 20 21  2  0  0  0  0
 20 47  1  0  0  0  0
 21 22  1  0  0  0  0
 21 48  1  0  0  0  0
 22 23  2  0  0  0  0
 22 49  1  0  0  0  0
 23 50  1  0  0  0  0
 24 25  2  0  0  0  0
M  CHG  1  23   1
M  END
> <s_m_source_file>
AV-unprocessed.smi

> <i_m_source_file_index>
2973

> <i_lp_mmshare_version>
43012

> <i_f3d_flags>
0

> <s_epik_input>
W0NIMl0xW0NIMl1bQ0gyXVtDSDJdW0NAQEhdKFtDSDNdKVtDQF0xMltOSF1DKD1PKU4oQzI9TylbQ0gyXUMoPU8pW05IXVtDSDJdW0NIMl1jM1tjSF1bY0hdW2NIXVtjSF1uMw==

> <s_epik_cmdline>
J2VwaWtfcHl0aG9uJywgJy1waCcsICc3LjAnLCAnLXRuJywgJzgnLCAnLW1hJywgJzIwMCcsICctbWV0YWxfYmluZGluZycsICctaW1hZScsICc8aW5maWxlLm1hZT4nLCAnLW9tYWUnLCAnPG91dGZpbGUubWFlPic=

> <r_lp_tautomer_probability>
1

> <r_epik_Ionization_Penalty>
1.90043

> <r_epik_Ionization_Penalty_Charging>
1.90039

> <r_epik_Ionization_Penalty_Neutral>
4.65525e-05

> <r_epik_State_Penalty>
2.02162

> <r_epik_Charging_Adjusted_Penalty>
3.922

> <i_epik_Tot_Q>
1

> <i_epik_Tot_abs_Q>
1

> <r_epik_Metal_State_Penalty>
2.06631

> <b_epik_Metal_Only>
0

> <s_lp_Force_Field>
OPLS_2005

> <r_lp_Energy>
22.6609

> <b_lp_Chiralities_Consistent>
1

> <s_lp_Variant>
AV-unprocessed.smi:2973-5

> <Gold.Version>
5.8.1

> <Gold.Id.Protein>
6NUR|6NUR_protein|mol2

> <Gold.PLP.Fitness>
51.0193

> <Gold.PLP.PLP>
-43.9373

> <Gold.PLP.part.hbond>
-3.2474

> <Gold.PLP.part.metal>
0.0000

> <Gold.PLP.part.buried>
-3.5645

> <Gold.PLP.part.nonpolar>
-37.8297

> <Gold.PLP.part.repulsive>
0.5819

> <Gold.PLP.ligand.clash>
0.0000

> <Gold.PLP.ligand.torsion>
0.9712

> <Gold.PLP.Chemscore.Hbond>
3.0000

> <Gold.PLP.Chemscore.CHOScore>
0.0000

> <Gold.PLP.Chemscore.Metal>
0.0000

> <Gold.Chemscore.Hbonds>
donor molecule, donor type, donor heavy atom, donor atom, acceptor molecule, acceptor atom, score
      L1  H    23    50       P1 10174  2.00
      P1  H  7989  7998       L1    10  1.00

> <Gold.PLP.Chemscore.Internal.Correction>
0.0243

> <Gold.Rescore>
     Score         DG    S(hbond)    S(metal)    S(lipo)     H(rot)  DE(clash)    DE(int)     intcor
     17.81     -20.26       1.94        0.00     113.87       1.96       1.58       0.86       ----

> <Gold.Chemscore.Fitness>
17.8111

> <Gold.Chemscore.DG>
-20.2572

> <Gold.Chemscore.ZeroCoef>
-5.4800

> <Gold.Chemscore.Hbond>
1.9408

> <Gold.Chemscore.Metal>
0.0000

> <Gold.Chemscore.Lipo>
113.8653

> <Gold.Chemscore.Internal_Hbond>
0.0000

> <Gold.Chemscore.DEClash>
1.5831

> <Gold.Chemscore.DEInternal>
0.8630

> <Gold.Chemscore.Rot>
1.9638

> <Gold.Chemscore.Internal.Correction>
   9.000000E+99

> <Gold.Chemscore.Hbonds>
donor molecule, donor type, donor heavy atom, donor atom, acceptor molecule, acceptor atom, score
      L1  H    23    50       P1 10174  1.00
      P1  H  7989  7998       L1    10  0.94

> <Gold.Chemscore.Hbond.Weighted>
-6.4823

> <Gold.Chemscore.Metal.Weighted>
-0.0000

> <Gold.Chemscore.Lipo.Weighted>
-13.3222

> <Gold.Chemscore.Internal_Hbond.Weighted>
0.0000

> <Gold.Chemscore.DEClash.Weighted>
1.5831

> <Gold.Chemscore.DEInternal.Weighted>
0.8630

> <Gold.Chemscore.Rot.Weighted>
5.0274

> <Gold.Chemscore.Internal.Correction.Weighted>
   9.000000E+99

> <Gold.Protein.RotatedTorsions>
[ 6907 6896 6895 6894 ] final   45.45 input  -60.11 | X-H torsion
[ 7974 7965 7964 7962 ] final  -74.73 input  175.53 | X-H torsion
[ 8008 7997 7996 7995 ] final  -84.64 input   59.86 | X-H torsion
[ 10167 10162 10161 10158 ] final  156.52 input  -65.29 | X-H torsion
[ 10718 10713 10712 10709 ] final -167.36 input   66.30 | X-H torsion
[ 10763 10752 10751 10750 ] final   36.89 input  -60.55 | X-H torsion
[ 11005 11000 10999 10996 ] final   60.60 input  -57.11 | X-H torsion

> <Gold.Protein.ActiveResidues>
 VAL166  LYS551  ARG553  GLY616  TRP617  ASP618  TYR619  PRO620  LYS621  CYS622 
 ASP623  PHE694  ASN695  SER759  ASP760  ASP761  ALA762  ILE779  LEU786  VAL792 
 PHE793  MET794  SER795  GLU796  ALA797  LYS798  CYS799  TRP800  GLU811  SER814 

> <Gold.Protein.RotatedAtoms>
  152.2447  134.8194  160.0454 H   0  0  0  0  0  0  0  0  0  0  0  0  # atno 6907 bound_to 6896
  151.8896  133.3508  159.3802 H   0  0  0  0  0  0  0  0  0  0  0  0  # atno 6908 bound_to 6896
  150.7064  134.4864  159.5539 H   0  0  0  0  0  0  0  0  0  0  0  0  # atno 6909 bound_to 6896
  145.6353  140.9326  143.1065 H   0  0  0  0  0  0  0  0  0  0  0  0  # atno 7974 bound_to 7965
  154.6320  140.0602  156.9743 H   0  0  0  0  0  0  0  0  0  0  0  0  # atno 8008 bound_to 7997
  155.1651  140.3286  155.4385 H   0  0  0  0  0  0  0  0  0  0  0  0  # atno 8009 bound_to 7997
  156.2488  140.1924  156.6756 H   0  0  0  0  0  0  0  0  0  0  0  0  # atno 8010 bound_to 7997
  139.4821  144.5001  151.8181 H   0  0  0  0  0  0  0  0  0  0  0  0  # atno 10167 bound_to 10162
  156.6812  130.9122  151.3057 H   0  0  0  0  0  0  0  0  0  0  0  0  # atno 10718 bound_to 10713
  153.0059  135.6293  154.2057 H   0  0  0  0  0  0  0  0  0  0  0  0  # atno 10763 bound_to 10752
  154.1800  135.2814  155.3056 H   0  0  0  0  0  0  0  0  0  0  0  0  # atno 10764 bound_to 10752
  154.5842  135.5638  153.7274 H   0  0  0  0  0  0  0  0  0  0  0  0  # atno 10765 bound_to 10752
  140.0220  134.6139  155.9626 H   0  0  0  0  0  0  0  0  0  0  0  0  # atno 11005 bound_to 11000
  144.7178  139.8136  143.7393 LP  0  0  0  0  0  0  0  0  0  0  0  0  # atno 17320 bound_to 7965
  146.1324  139.4362  143.0160 LP  0  0  0  0  0  0  0  0  0  0  0  0  # atno 17321 bound_to 7965
  140.4493  144.1877  150.5896 LP  0  0  0  0  0  0  0  0  0  0  0  0  # atno 17342 bound_to 10162
  140.4601  143.2452  151.9231 LP  0  0  0  0  0  0  0  0  0  0  0  0  # atno 17343 bound_to 10162
  157.7043  130.9367  150.0881 LP  0  0  0  0  0  0  0  0  0  0  0  0  # atno 17370 bound_to 10713
  156.1866  130.3652  149.8964 LP  0  0  0  0  0  0  0  0  0  0  0  0  # atno 17371 bound_to 10713
  141.1779  133.6542  156.4903 LP  0  0  0  0  0  0  0  0  0  0  0  0  # atno 17394 bound_to 11000
  140.4371  134.7049  157.4972 LP  0  0  0  0  0  0  0  0  0  0  0  0  # atno 17395 bound_to 11000

$$$$
