AV-unprocessed.smi:2212|AV-procd|sdf|8951|dock3
  -GOLD-   2272012163D 1   1.00000     0.00000
 Structure written by MMmdl.
 31 32  0  0  0  0  0  0  0  0  1 V2000
  152.1719  141.4282  159.2684 C   0  0  0  0  0  0  0  0  0  0  0  0
  151.1771  142.4404  159.3528 O   0  0  0  0  0  0  0  0  0  0  0  0
  151.6040  143.7652  159.0335 C   0  0  0  0  0  0  0  0  0  0  0  0
  152.0497  143.8860  157.5696 C   0  0  0  0  0  0  0  0  0  0  0  0
  150.9925  143.4450  156.6698 N   0  0  0  0  0  0  0  0  0  0  0  0
  150.8447  142.1869  156.2360 C   0  0  0  0  0  0  0  0  0  0  0  0
  151.5995  141.2660  156.5505 O   0  0  0  0  0  0  0  0  0  0  0  0
  149.7808  142.0679  155.4273 N   0  0  0  0  0  0  0  0  0  0  0  0
  149.3360  140.8826  154.7975 C   0  0  0  0  0  0  0  0  0  0  0  0
  148.0569  140.6576  154.5098 N   0  0  0  0  0  0  0  0  0  0  0  0
  148.0540  139.4057  153.9102 C   0  0  0  0  0  0  0  0  0  0  0  0
  149.3452  138.9445  153.8709 C   0  0  0  0  0  0  0  0  0  0  0  0
  150.1762  139.8758  154.4334 O   0  0  0  0  0  0  0  0  0  0  0  0
  150.5289  144.7463  159.5381 C   0  0  0  0  0  0  0  0  0  0  0  0
  151.6457  145.6017  160.1391 C   0  0  0  0  0  0  0  0  0  0  0  0
  152.5140  144.3426  160.1365 C   0  0  0  0  0  0  0  0  0  0  0  0
  151.7579  140.4895  159.6360 H   0  0  0  0  0  0  0  0  0  0  0  0
  153.0466  141.6635  159.8748 H   0  0  0  0  0  0  0  0  0  0  0  0
  152.4920  141.2596  158.2404 H   0  0  0  0  0  0  0  0  0  0  0  0
  152.2973  144.9223  157.3348 H   0  0  0  0  0  0  0  0  0  0  0  0
  152.9576  143.3112  157.3832 H   0  0  0  0  0  0  0  0  0  0  0  0
  150.3280  144.1432  156.3691 H   0  0  0  0  0  0  0  0  0  0  0  0
  149.2380  142.8989  155.2455 H   0  0  0  0  0  0  0  0  0  0  0  0
  147.1419  138.9444  153.5613 H   0  0  0  0  0  0  0  0  0  0  0  0
  149.8082  138.0407  153.5033 H   0  0  0  0  0  0  0  0  0  0  0  0
  149.9534  145.2421  158.7557 H   0  0  0  0  0  0  0  0  0  0  0  0
  149.8766  144.3167  160.3007 H   0  0  0  0  0  0  0  0  0  0  0  0
  152.0083  146.3700  159.4542 H   0  0  0  0  0  0  0  0  0  0  0  0
  151.4301  146.0068  161.1281 H   0  0  0  0  0  0  0  0  0  0  0  0
  152.4528  143.7959  161.0793 H   0  0  0  0  0  0  0  0  0  0  0  0
  153.5490  144.5079  159.8360 H   0  0  0  0  0  0  0  0  0  0  0  0
  1  2  1  0  0  0  0
  1 17  1  0  0  0  0
  1 18  1  0  0  0  0
  1 19  1  0  0  0  0
  2  3  1  0  0  0  0
  3 16  1  0  0  0  0
  3  4  1  0  0  0  0
  3 14  1  0  0  0  0
  4  5  1  0  0  0  0
  4 20  1  0  0  0  0
  4 21  1  0  0  0  0
  5  6  1  0  0  0  0
  5 22  1  0  0  0  0
  6  7  2  0  0  0  0
  6  8  1  0  0  0  0
  8  9  1  0  0  0  0
  8 23  1  0  0  0  0
  9 13  1  0  0  0  0
  9 10  2  0  0  0  0
 10 11  1  0  0  0  0
 11 12  2  0  0  0  0
 11 24  1  0  0  0  0
 12 13  1  0  0  0  0
 12 25  1  0  0  0  0
 14 15  1  0  0  0  0
 14 26  1  0  0  0  0
 14 27  1  0  0  0  0
 15 16  1  0  0  0  0
 15 28  1  0  0  0  0
 15 29  1  0  0  0  0
 16 30  1  0  0  0  0
 16 31  1  0  0  0  0
M  END
> <s_m_source_file>
AV-unprocessed.smi

> <i_m_source_file_index>
2212

> <i_lp_mmshare_version>
43012

> <i_f3d_flags>
0

> <s_epik_input>
W0NIMl0xW0NIMl1bQ0gyXUMxKE9bQ0gzXSlbQ0gyXVtOSF1DKD1PKVtOSF1jMm5bY0hdW2NIXW8y

> <s_epik_cmdline>
J2VwaWtfcHl0aG9uJywgJy1waCcsICc3LjAnLCAnLXRuJywgJzgnLCAnLW1hJywgJzIwMCcsICctbWV0YWxfYmluZGluZycsICctaW1hZScsICc8aW5maWxlLm1hZT4nLCAnLW9tYWUnLCAnPG91dGZpbGUubWFlPic=

> <r_lp_tautomer_probability>
0.785861

> <r_epik_Ionization_Penalty>
4.58897e-05

> <r_epik_Ionization_Penalty_Charging>
0

> <r_epik_Ionization_Penalty_Neutral>
4.58897e-05

> <r_epik_State_Penalty>
0.0380021

> <r_epik_Charging_Adjusted_Penalty>
0.0380021

> <i_epik_Tot_Q>
0

> <i_epik_Tot_abs_Q>
0

> <r_epik_Metal_State_Penalty>
0.0585611

> <b_epik_Metal_Only>
0

> <s_lp_Force_Field>
OPLS_2005

> <r_lp_Energy>
14.4029

> <b_lp_Chiralities_Consistent>
1

> <s_lp_Variant>
AV-unprocessed.smi:2212-1

> <Gold.Version>
5.8.1

> <Gold.Id.Protein>
6NUR|6NUR_protein|mol2

> <Gold.PLP.Fitness>
42.5384

> <Gold.PLP.PLP>
-31.3638

> <Gold.PLP.part.hbond>
-3.5715

> <Gold.PLP.part.metal>
0.0000

> <Gold.PLP.part.buried>
-2.2761

> <Gold.PLP.part.nonpolar>
-25.3413

> <Gold.PLP.part.repulsive>
0.4797

> <Gold.PLP.ligand.clash>
0.0000

> <Gold.PLP.ligand.torsion>
0.5136

> <Gold.PLP.Chemscore.Hbond>
2.9760

> <Gold.PLP.Chemscore.CHOScore>
1.0000

> <Gold.PLP.Chemscore.Metal>
0.0000

> <Gold.Chemscore.Hbonds>
donor molecule, donor type, donor heavy atom, donor atom, acceptor molecule, acceptor atom, score
      L1  H     5    22       P1  8028  1.00
      L1  H     8    23       P1  8028  0.98
      P1  H  7989  7998       L1    13  1.00
      L1  C    12    25       P1  7948  0.95

> <Gold.PLP.Chemscore.Internal.Correction>
0.2740

> <Gold.Rescore>
     Score         DG    S(hbond)    S(metal)    S(lipo)     H(rot)  DE(clash)    DE(int)     intcor
     15.15     -19.33       2.70        0.00      77.25       1.64       1.06       3.12       ----

> <Gold.Chemscore.Fitness>
15.1461

> <Gold.Chemscore.DG>
-19.3272

> <Gold.Chemscore.ZeroCoef>
-5.4800

> <Gold.Chemscore.Hbond>
2.6977

> <Gold.Chemscore.Metal>
0.0000

> <Gold.Chemscore.Lipo>
77.2477

> <Gold.Chemscore.Internal_Hbond>
0.0000

> <Gold.Chemscore.DEClash>
1.0593

> <Gold.Chemscore.DEInternal>
3.1218

> <Gold.Chemscore.Rot>
1.6411

> <Gold.Chemscore.Internal.Correction>
   9.000000E+99

> <Gold.Chemscore.Hbonds>
donor molecule, donor type, donor heavy atom, donor atom, acceptor molecule, acceptor atom, score
      L1  H     5    22       P1  8028  0.99
      L1  H     8    23       P1  8028  0.93
      P1  H  7989  7998       L1    13  0.33

> <Gold.Chemscore.Hbond.Weighted>
-9.0104

> <Gold.Chemscore.Metal.Weighted>
-0.0000

> <Gold.Chemscore.Lipo.Weighted>
-9.0380

> <Gold.Chemscore.Internal_Hbond.Weighted>
0.0000

> <Gold.Chemscore.DEClash.Weighted>
1.0593

> <Gold.Chemscore.DEInternal.Weighted>
3.1218

> <Gold.Chemscore.Rot.Weighted>
4.2011

> <Gold.Chemscore.Internal.Correction.Weighted>
   9.000000E+99

> <Gold.Protein.RotatedTorsions>
[ 6907 6896 6895 6894 ] final  -36.33 input  -60.11 | X-H torsion
[ 7974 7965 7964 7962 ] final  151.63 input  175.53 | X-H torsion
[ 8008 7997 7996 7995 ] final -140.07 input   59.86 | X-H torsion
[ 10167 10162 10161 10158 ] final -131.28 input  -65.29 | X-H torsion
[ 10718 10713 10712 10709 ] final  -30.83 input   66.30 | X-H torsion
[ 10763 10752 10751 10750 ] final  141.99 input  -60.55 | X-H torsion
[ 11005 11000 10999 10996 ] final   97.76 input  -57.11 | X-H torsion

> <Gold.Protein.ActiveResidues>
 VAL166  LYS551  ARG553  GLY616  TRP617  ASP618  TYR619  PRO620  LYS621  CYS622 
 ASP623  PHE694  ASN695  SER759  ASP760  ASP761  ALA762  ILE779  LEU786  VAL792 
 PHE793  MET794  SER795  GLU796  ALA797  LYS798  CYS799  TRP800  GLU811  SER814 

> <Gold.Protein.RotatedAtoms>
  151.0285  134.9522  159.8097 H   0  0  0  0  0  0  0  0  0  0  0  0  # atno 6907 bound_to 6896
  152.5340  134.2811  159.9017 H   0  0  0  0  0  0  0  0  0  0  0  0  # atno 6908 bound_to 6896
  151.2820  133.4163  159.2661 H   0  0  0  0  0  0  0  0  0  0  0  0  # atno 6909 bound_to 6896
  144.8278  139.6563  143.6072 H   0  0  0  0  0  0  0  0  0  0  0  0  # atno 7974 bound_to 7965
  155.4552  140.0541  157.2997 H   0  0  0  0  0  0  0  0  0  0  0  0  # atno 8008 bound_to 7997
  154.4760  140.2061  155.9832 H   0  0  0  0  0  0  0  0  0  0  0  0  # atno 8009 bound_to 7997
  156.1132  140.3200  155.8107 H   0  0  0  0  0  0  0  0  0  0  0  0  # atno 8010 bound_to 7997
  139.9206  143.6387  152.2554 H   0  0  0  0  0  0  0  0  0  0  0  0  # atno 10167 bound_to 10162
  156.3948  130.4379  149.7367 H   0  0  0  0  0  0  0  0  0  0  0  0  # atno 10718 bound_to 10713
  153.9484  135.2972  155.3440 H   0  0  0  0  0  0  0  0  0  0  0  0  # atno 10763 bound_to 10752
  154.7440  135.5012  153.9174 H   0  0  0  0  0  0  0  0  0  0  0  0  # atno 10764 bound_to 10752
  153.1006  135.6733  153.9787 H   0  0  0  0  0  0  0  0  0  0  0  0  # atno 10765 bound_to 10752
  139.8774  134.9017  156.4356 H   0  0  0  0  0  0  0  0  0  0  0  0  # atno 11005 bound_to 11000
  146.2583  139.6352  142.9380 LP  0  0  0  0  0  0  0  0  0  0  0  0  # atno 17320 bound_to 7965
  145.4961  141.0438  143.2566 LP  0  0  0  0  0  0  0  0  0  0  0  0  # atno 17321 bound_to 7965
  139.6865  144.7651  151.1515 LP  0  0  0  0  0  0  0  0  0  0  0  0  # atno 17342 bound_to 10162
  140.7663  143.5650  150.9058 LP  0  0  0  0  0  0  0  0  0  0  0  0  # atno 17343 bound_to 10162
  156.4406  130.7859  151.2880 LP  0  0  0  0  0  0  0  0  0  0  0  0  # atno 17370 bound_to 10713
  157.7501  131.0126  150.3391 LP  0  0  0  0  0  0  0  0  0  0  0  0  # atno 17371 bound_to 10713
  140.9036  133.7762  155.9709 LP  0  0  0  0  0  0  0  0  0  0  0  0  # atno 17394 bound_to 11000
  140.8624  134.2825  157.5228 LP  0  0  0  0  0  0  0  0  0  0  0  0  # atno 17395 bound_to 11000

$$$$
