AV-unprocessed.smi:907|AV-procd|sdf|4111|dock9
  -GOLD-   22720 2 03D 1   1.00000     0.00000
 Structure written by MMmdl.
 54 57  0  0  0  0  0  0  0  0  3 V2000
  152.4763  139.9034  156.0057 O   0  0  0  0  0  0  0  0  0  0  0  0
  151.3034  139.8901  155.6315 C   0  0  0  0  0  0  0  0  0  0  0  0
  150.3909  140.7456  156.1206 N   0  0  0  0  0  0  0  0  0  0  0  0
  150.6699  141.7670  157.1208 C   0  0  0  0  0  0  0  0  0  0  0  0
  151.4489  141.1718  158.3017 C   0  0  0  0  0  0  0  0  0  0  0  0
  151.6921  142.1877  159.4015 C   0  0  0  0  0  0  0  0  0  0  0  0
  152.3771  141.8568  160.5909 C   0  0  0  0  0  0  0  0  0  0  0  0
  152.5728  142.8504  161.5729 C   0  0  0  0  0  0  0  0  0  0  0  0
  152.0821  144.1527  161.3444 C   0  0  0  0  0  0  0  0  0  0  0  0
  151.4066  144.4288  160.1382 C   0  0  0  0  0  0  0  0  0  0  0  0
  151.2380  143.4495  159.2224 N   0  3  0  0  0  0  0  0  0  0  0  0
  150.8200  138.9920  154.7365 N   0  0  0  0  0  0  0  0  0  0  0  0
  151.5016  137.7835  154.2578 C   0  0  0  0  0  0  0  0  0  0  0  0
  150.8387  136.5410  154.8835 C   0  0  0  0  0  0  0  0  0  0  0  0
  149.3674  136.4966  154.6316 N   0  3  0  0  0  0  0  0  0  0  0  0
  148.6666  135.3397  155.2709 C   0  0  1  0  0  0  0  0  0  0  0  0
  147.2937  135.0536  154.6052 C   0  0  0  0  0  0  0  0  0  0  0  0
  147.3693  133.5621  154.2399 C   0  0  2  0  0  0  0  0  0  0  0  0
  147.3386  132.7141  155.5222 C   0  0  0  0  0  0  0  0  0  0  0  0
  148.7307  132.9719  156.1238 C   0  0  0  0  0  0  0  0  0  0  0  0
  149.3652  133.9577  155.1223 C   0  0  1  0  0  0  0  0  0  0  0  0
  148.8208  133.4330  153.7984 C   0  0  0  0  0  0  0  0  0  0  0  0
  148.7052  137.7936  154.9643 C   0  0  0  0  0  0  0  0  0  0  0  0
  149.4193  138.9898  154.3129 C   0  0  0  0  0  0  0  0  0  0  0  0
  149.4402  140.6716  155.7892 H   0  0  0  0  0  0  0  0  0  0  0  0
  151.2450  142.5707  156.6581 H   0  0  0  0  0  0  0  0  0  0  0  0
  149.7321  142.2010  157.4721 H   0  0  0  0  0  0  0  0  0  0  0  0
  150.9057  140.3226  158.7192 H   0  0  0  0  0  0  0  0  0  0  0  0
  152.4092  140.7845  157.9579 H   0  0  0  0  0  0  0  0  0  0  0  0
  152.7494  140.8552  160.7510 H   0  0  0  0  0  0  0  0  0  0  0  0
  153.0932  142.6164  162.4901 H   0  0  0  0  0  0  0  0  0  0  0  0
  152.2222  144.9281  162.0835 H   0  0  0  0  0  0  0  0  0  0  0  0
  150.9992  145.3954  159.8800 H   0  0  0  0  0  0  0  0  0  0  0  0
  151.4185  137.7390  153.1707 H   0  0  0  0  0  0  0  0  0  0  0  0
  152.5716  137.7675  154.4645 H   0  0  0  0  0  0  0  0  0  0  0  0
  151.3298  135.6696  154.4557 H   0  0  0  0  0  0  0  0  0  0  0  0
  151.0227  136.5231  155.9588 H   0  0  0  0  0  0  0  0  0  0  0  0
  148.5402  135.5705  156.3301 H   0  0  0  0  0  0  0  0  0  0  0  0
  146.4565  135.2780  155.2674 H   0  0  0  0  0  0  0  0  0  0  0  0
  147.1552  135.6314  153.6903 H   0  0  0  0  0  0  0  0  0  0  0  0
  146.6324  133.2565  153.4962 H   0  0  0  0  0  0  0  0  0  0  0  0
  146.5316  133.0091  156.1940 H   0  0  0  0  0  0  0  0  0  0  0  0
  147.2112  131.6561  155.2885 H   0  0  0  0  0  0  0  0  0  0  0  0
  148.6804  133.3769  157.1352 H   0  0  0  0  0  0  0  0  0  0  0  0
  149.3031  132.0441  156.1671 H   0  0  0  0  0  0  0  0  0  0  0  0
  150.4493  133.9508  155.2069 H   0  0  0  0  0  0  0  0  0  0  0  0
  149.1173  132.4044  153.5848 H   0  0  0  0  0  0  0  0  0  0  0  0
  149.0745  134.0638  152.9447 H   0  0  0  0  0  0  0  0  0  0  0  0
  147.6646  137.7911  154.6424 H   0  0  0  0  0  0  0  0  0  0  0  0
  148.6947  137.9243  156.0476 H   0  0  0  0  0  0  0  0  0  0  0  0
  148.9014  139.9161  154.5658 H   0  0  0  0  0  0  0  0  0  0  0  0
  149.3680  138.9120  153.2259 H   0  0  0  0  0  0  0  0  0  0  0  0
  149.2646  136.3750  153.6341 H   0  0  0  0  0  0  0  0  0  0  0  0
  150.7463  143.6732  158.3568 H   0  0  0  0  0  0  0  0  0  0  0  0
  1  2  2  0  0  0  0
  2  3  1  0  0  0  0
  2 12  1  0  0  0  0
  3  4  1  0  0  0  0
  3 25  1  0  0  0  0
  4  5  1  0  0  0  0
  4 26  1  0  0  0  0
  4 27  1  0  0  0  0
  5  6  1  0  0  0  0
  5 28  1  0  0  0  0
  5 29  1  0  0  0  0
  6 11  1  0  0  0  0
  6  7  2  0  0  0  0
  7  8  1  0  0  0  0
  7 30  1  0  0  0  0
  8  9  2  0  0  0  0
  8 31  1  0  0  0  0
  9 10  1  0  0  0  0
  9 32  1  0  0  0  0
 10 11  2  0  0  0  0
 10 33  1  0  0  0  0
 11 54  1  0  0  0  0
 12 24  1  0  0  0  0
 12 13  1  0  0  0  0
 13 14  1  0  0  0  0
 13 34  1  0  0  0  0
 13 35  1  0  0  0  0
 14 15  1  0  0  0  0
 14 36  1  0  0  0  0
 14 37  1  0  0  0  0
 15 16  1  0  0  0  0
 15 23  1  0  0  0  0
 15 53  1  0  0  0  0
 16 21  1  0  0  0  0
 16 17  1  0  0  0  0
 16 38  1  0  0  0  0
 17 18  1  0  0  0  0
 17 39  1  0  0  0  0
 17 40  1  0  0  0  0
 18 22  1  0  0  0  0
 18 19  1  0  0  0  0
 18 41  1  0  0  0  0
 19 20  1  0  0  0  0
 19 42  1  0  0  0  0
 19 43  1  0  0  0  0
 20 21  1  0  0  0  0
 20 44  1  0  0  0  0
 20 45  1  0  0  0  0
 21 22  1  0  0  0  0
 21 46  1  0  0  0  0
 22 47  1  0  0  0  0
 22 48  1  0  0  0  0
 23 24  1  0  0  0  0
 23 49  1  0  0  0  0
 23 50  1  0  0  0  0
 24 51  1  0  0  0  0
 24 52  1  0  0  0  0
M  CHG  1  11   1
M  CHG  1  15   1
M  END
> <s_m_source_file>
AV-unprocessed.smi

> <i_m_source_file_index>
907

> <i_lp_mmshare_version>
43012

> <i_f3d_flags>
0

> <s_epik_input>
W0NIMl0xW0NIMl1bQ0BASF0oW0NIMl0yKVtDQEBIXShbQ0gyXVtDQEhdMTIpTihbQ0gyXVtDSDJdMylbQ0gyXVtDSDJdTjNDKD1PKVtOSF1bQ0gyXVtDSDJdYzRbY0hdW2NIXVtjSF1bY0hdbjQ=

> <s_epik_cmdline>
J2VwaWtfcHl0aG9uJywgJy1waCcsICc3LjAnLCAnLXRuJywgJzgnLCAnLW1hJywgJzIwMCcsICctbWV0YWxfYmluZGluZycsICctaW1hZScsICc8aW5maWxlLm1hZT4nLCAnLW9tYWUnLCAnPG91dGZpbGUubWFlPic=

> <r_epik_Ionization_Penalty>
1.63018

> <r_epik_Ionization_Penalty_Charging>
1.63015

> <r_epik_Ionization_Penalty_Neutral>
2.64641e-05

> <r_epik_State_Penalty>
1.72761

> <r_epik_Charging_Adjusted_Penalty>
3.35777

> <i_epik_Tot_Q>
2

> <i_epik_Tot_abs_Q>
2

> <r_epik_Metal_State_Penalty>
1.76501

> <b_epik_Metal_Only>
0

> <s_lp_Force_Field>
OPLS_2005

> <r_lp_Energy>
104.704

> <b_lp_Chiralities_Consistent>
1

> <s_lp_Variant>
AV-unprocessed.smi:907-6

> <Gold.Version>
5.8.1

> <Gold.Id.Protein>
6NUR|6NUR_protein|mol2

> <Gold.PLP.Fitness>
52.2513

> <Gold.PLP.PLP>
-45.4984

> <Gold.PLP.part.hbond>
-2.0237

> <Gold.PLP.part.metal>
0.0000

> <Gold.PLP.part.buried>
-3.4496

> <Gold.PLP.part.nonpolar>
-40.3780

> <Gold.PLP.part.repulsive>
0.1646

> <Gold.PLP.ligand.clash>
1.7708

> <Gold.PLP.ligand.torsion>
0.2892

> <Gold.PLP.Chemscore.Hbond>
3.0000

> <Gold.PLP.Chemscore.CHOScore>
0.0000

> <Gold.PLP.Chemscore.Metal>
0.0000

> <Gold.Chemscore.Hbonds>
donor molecule, donor type, donor heavy atom, donor atom, acceptor molecule, acceptor atom, score
      L1  H    15    53       P1  7948  2.00
      P1  H  7997  8010       L1     1  1.00

> <Gold.PLP.Chemscore.Internal.Correction>
0.1022

> <Gold.Rescore>
     Score         DG    S(hbond)    S(metal)    S(lipo)     H(rot)  DE(clash)    DE(int)     intcor
     20.45     -22.07       1.93        0.00     118.69       1.46       0.01       1.61       ----

> <Gold.Chemscore.Fitness>
20.4473

> <Gold.Chemscore.DG>
-22.0718

> <Gold.Chemscore.ZeroCoef>
-5.4800

> <Gold.Chemscore.Hbond>
1.9268

> <Gold.Chemscore.Metal>
0.0000

> <Gold.Chemscore.Lipo>
118.6915

> <Gold.Chemscore.Internal_Hbond>
0.0000

> <Gold.Chemscore.DEClash>
0.0127

> <Gold.Chemscore.DEInternal>
1.6119

> <Gold.Chemscore.Rot>
1.4572

> <Gold.Chemscore.Internal.Correction>
   9.000000E+99

> <Gold.Chemscore.Hbonds>
donor molecule, donor type, donor heavy atom, donor atom, acceptor molecule, acceptor atom, score
      L1  H    15    53       P1  7948  0.91
      P1  H  7997  8010       L1     1  0.98

> <Gold.Chemscore.Hbond.Weighted>
-6.4355

> <Gold.Chemscore.Metal.Weighted>
-0.0000

> <Gold.Chemscore.Lipo.Weighted>
-13.8869

> <Gold.Chemscore.Internal_Hbond.Weighted>
0.0000

> <Gold.Chemscore.DEClash.Weighted>
0.0127

> <Gold.Chemscore.DEInternal.Weighted>
1.6119

> <Gold.Chemscore.Rot.Weighted>
3.7305

> <Gold.Chemscore.Internal.Correction.Weighted>
   9.000000E+99

> <Gold.Protein.RotatedTorsions>
[ 6907 6896 6895 6894 ] final  162.43 input  -60.11 | X-H torsion
[ 7974 7965 7964 7962 ] final  175.92 input  175.53 | X-H torsion
[ 8008 7997 7996 7995 ] final   95.10 input   59.86 | X-H torsion
[ 10167 10162 10161 10158 ] final -109.68 input  -65.29 | X-H torsion
[ 10718 10713 10712 10709 ] final  -20.29 input   66.30 | X-H torsion
[ 10763 10752 10751 10750 ] final   35.89 input  -60.55 | X-H torsion
[ 11005 11000 10999 10996 ] final  -60.26 input  -57.11 | X-H torsion

> <Gold.Protein.ActiveResidues>
 VAL166  LYS551  ARG553  GLY616  TRP617  ASP618  TYR619  PRO620  LYS621  CYS622 
 ASP623  PHE694  ASN695  SER759  ASP760  ASP761  ALA762  ILE779  LEU786  VAL792 
 PHE793  MET794  SER795  GLU796  ALA797  LYS798  CYS799  TRP800  GLU811  SER814 

> <Gold.Protein.RotatedAtoms>
  151.9405  133.3636  159.3963 H   0  0  0  0  0  0  0  0  0  0  0  0  # atno 6907 bound_to 6896
  150.6999  134.4444  159.5316 H   0  0  0  0  0  0  0  0  0  0  0  0  # atno 6908 bound_to 6896
  152.2100  134.8510  160.0549 H   0  0  0  0  0  0  0  0  0  0  0  0  # atno 6909 bound_to 6896
  144.7193  140.0018  143.6440 H   0  0  0  0  0  0  0  0  0  0  0  0  # atno 7974 bound_to 7965
  156.0651  140.3291  155.7508 H   0  0  0  0  0  0  0  0  0  0  0  0  # atno 8008 bound_to 7997
  155.5393  140.0600  157.2890 H   0  0  0  0  0  0  0  0  0  0  0  0  # atno 8009 bound_to 7997
  154.4501  140.1913  156.0563 H   0  0  0  0  0  0  0  0  0  0  0  0  # atno 8010 bound_to 7997
  140.1527  143.4186  152.1483 H   0  0  0  0  0  0  0  0  0  0  0  0  # atno 10167 bound_to 10162
  156.5338  130.4661  149.6533 H   0  0  0  0  0  0  0  0  0  0  0  0  # atno 10718 bound_to 10713
  153.0100  135.6321  154.1898 H   0  0  0  0  0  0  0  0  0  0  0  0  # atno 10763 bound_to 10752
  154.1640  135.2822  155.3102 H   0  0  0  0  0  0  0  0  0  0  0  0  # atno 10764 bound_to 10752
  154.5959  135.5603  153.7386 H   0  0  0  0  0  0  0  0  0  0  0  0  # atno 10765 bound_to 10752
  141.1280  133.6621  156.5196 H   0  0  0  0  0  0  0  0  0  0  0  0  # atno 11005 bound_to 11000
  146.0329  139.3351  143.0744 LP  0  0  0  0  0  0  0  0  0  0  0  0  # atno 17320 bound_to 7965
  145.8430  140.9570  143.0789 LP  0  0  0  0  0  0  0  0  0  0  0  0  # atno 17321 bound_to 7965
  139.5418  144.7263  151.4709 LP  0  0  0  0  0  0  0  0  0  0  0  0  # atno 17342 bound_to 10162
  140.6692  143.8330  150.6979 LP  0  0  0  0  0  0  0  0  0  0  0  0  # atno 17343 bound_to 10162
  156.3035  130.7190  151.2067 LP  0  0  0  0  0  0  0  0  0  0  0  0  # atno 17370 bound_to 10713
  157.7417  131.0500  150.5077 LP  0  0  0  0  0  0  0  0  0  0  0  0  # atno 17371 bound_to 10713
  140.4303  134.7107  157.4938 LP  0  0  0  0  0  0  0  0  0  0  0  0  # atno 17394 bound_to 11000
  140.0298  134.6423  155.9122 LP  0  0  0  0  0  0  0  0  0  0  0  0  # atno 17395 bound_to 11000

$$$$
