AV-unprocessed.smi:1738|AV-procd|sdf|6999|dock2
  -GOLD-   22720 8213D 1   1.00000     0.00000
 Structure written by MMmdl.
 46 48  0  0  0  0  0  0  0  0  2 V2000
  155.0220  136.4931  157.9272 C   0  0  0  0  0  0  0  0  0  0  0  0
  153.4713  137.3498  158.4202 S   0  0  0  0  0  0  0  0  0  0  0  0
  153.0239  136.7726  159.6976 O   0  0  0  0  0  0  0  0  0  0  0  0
  153.6921  138.8006  158.3169 O   0  0  0  0  0  0  0  0  0  0  0  0
  152.3023  136.8788  157.1499 C   0  0  0  0  0  0  0  0  0  0  0  0
  152.1895  137.6362  155.9670 C   0  0  0  0  0  0  0  0  0  0  0  0
  151.2307  137.2418  155.0142 C   0  0  0  0  0  0  0  0  0  0  0  0
  150.4116  136.1186  155.2901 C   0  0  0  0  0  0  0  0  0  0  0  0
  149.4183  135.6050  154.4115 N   0  0  0  0  0  0  0  0  0  0  0  0
  148.5971  134.5543  154.5801 C   0  0  0  0  0  0  0  0  0  0  0  0
  148.5742  133.8131  155.5617 O   0  0  0  0  0  0  0  0  0  0  0  0
  147.7897  134.3988  153.5212 N   0  0  0  0  0  0  0  0  0  0  0  0
  146.7743  133.3580  153.3841 C   0  0  2  0  0  0  0  0  0  0  0  0
  147.3548  131.9357  153.4773 C   0  0  0  0  0  0  0  0  0  0  0  0
  146.5558  131.1003  152.4572 C   0  0  0  0  0  0  0  0  0  0  0  0
  145.5341  132.0163  151.9149 N   0  3  2  0  0  0  0  0  0  0  0  0
  144.9954  131.7069  150.5725 C   0  0  0  0  0  0  0  0  0  0  0  0
  143.8888  132.7222  150.2225 C   0  0  0  0  0  0  0  0  0  0  0  0
  144.3776  134.1772  150.3724 C   0  0  0  0  0  0  0  0  0  0  0  0
  145.0127  134.4123  151.7565 C   0  0  0  0  0  0  0  0  0  0  0  0
  146.1125  133.3659  152.0035 C   0  0  1  0  0  0  0  0  0  0  0  0
  150.6122  135.4426  156.5133 C   0  0  0  0  0  0  0  0  0  0  0  0
  151.5269  135.8114  157.4343 N   0  0  0  0  0  0  0  0  0  0  0  0
  155.8040  136.7130  158.6533 H   0  0  0  0  0  0  0  0  0  0  0  0
  155.3325  136.8415  156.9424 H   0  0  0  0  0  0  0  0  0  0  0  0
  154.8484  135.4178  157.8935 H   0  0  0  0  0  0  0  0  0  0  0  0
  152.8214  138.4927  155.7854 H   0  0  0  0  0  0  0  0  0  0  0  0
  151.1559  137.8029  154.0966 H   0  0  0  0  0  0  0  0  0  0  0  0
  149.3494  136.0789  153.5229 H   0  0  0  0  0  0  0  0  0  0  0  0
  147.8830  135.0495  152.7547 H   0  0  0  0  0  0  0  0  0  0  0  0
  146.0082  133.4653  154.1551 H   0  0  0  0  0  0  0  0  0  0  0  0
  148.4142  131.9189  153.2160 H   0  0  0  0  0  0  0  0  0  0  0  0
  147.2620  131.5394  154.4890 H   0  0  0  0  0  0  0  0  0  0  0  0
  147.2143  130.7563  151.6582 H   0  0  0  0  0  0  0  0  0  0  0  0
  146.0880  130.2260  152.9103 H   0  0  0  0  0  0  0  0  0  0  0  0
  145.7961  131.7431  149.8321 H   0  0  0  0  0  0  0  0  0  0  0  0
  144.5929  130.6934  150.5639 H   0  0  0  0  0  0  0  0  0  0  0  0
  143.5318  132.5508  149.2066 H   0  0  0  0  0  0  0  0  0  0  0  0
  143.0330  132.5625  150.8797 H   0  0  0  0  0  0  0  0  0  0  0  0
  145.1119  134.3943  149.5956 H   0  0  0  0  0  0  0  0  0  0  0  0
  143.5498  134.8695  150.2166 H   0  0  0  0  0  0  0  0  0  0  0  0
  145.4266  135.4195  151.8070 H   0  0  0  0  0  0  0  0  0  0  0  0
  144.2493  134.3470  152.5329 H   0  0  0  0  0  0  0  0  0  0  0  0
  146.8850  133.4640  151.2368 H   0  0  0  0  0  0  0  0  0  0  0  0
  150.0154  134.5778  156.7643 H   0  0  0  0  0  0  0  0  0  0  0  0
  144.7585  131.9963  152.5619 H   0  0  0  0  0  0  0  0  0  0  0  0
  1  2  1  0  0  0  0
  1 24  1  0  0  0  0
  1 25  1  0  0  0  0
  1 26  1  0  0  0  0
  2  3  2  0  0  0  0
  2  4  2  0  0  0  0
  2  5  1  0  0  0  0
  5 23  1  0  0  0  0
  5  6  2  0  0  0  0
  6  7  1  0  0  0  0
  6 27  1  0  0  0  0
  7  8  2  0  0  0  0
  7 28  1  0  0  0  0
  8  9  1  0  0  0  0
  8 22  1  0  0  0  0
  9 10  1  0  0  0  0
  9 29  1  0  0  0  0
 10 11  2  0  0  0  0
 10 12  1  0  0  0  0
 12 13  1  0  0  0  0
 12 30  1  0  0  0  0
 13 21  1  0  0  0  0
 13 14  1  0  0  0  0
 13 31  1  0  0  0  0
 14 15  1  0  0  0  0
 14 32  1  0  0  0  0
 14 33  1  0  0  0  0
 15 16  1  0  0  0  0
 15 34  1  0  0  0  0
 15 35  1  0  0  0  0
 16 21  1  0  0  0  0
 16 17  1  0  0  0  0
 16 46  1  0  0  0  0
 17 18  1  0  0  0  0
 17 36  1  0  0  0  0
 17 37  1  0  0  0  0
 18 19  1  0  0  0  0
 18 38  1  0  0  0  0
 18 39  1  0  0  0  0
 19 20  1  0  0  0  0
 19 40  1  0  0  0  0
 19 41  1  0  0  0  0
 20 21  1  0  0  0  0
 20 42  1  0  0  0  0
 20 43  1  0  0  0  0
 21 44  1  0  0  0  0
 22 23  2  0  0  0  0
 22 45  1  0  0  0  0
M  CHG  1  16   1
M  END
> <s_m_source_file>
AV-unprocessed.smi

> <i_m_source_file_index>
1738

> <i_lp_mmshare_version>
43012

> <i_f3d_flags>
0

> <s_epik_input>
W0NIM11TKD1PKSg9TyljMVtjSF1bY0hdYyhbY0hdbjEpW05IXUMoPU8pW05IXVtDQEhdKFtDSDJdW0NIMl0yKVtDQEBIXShOMjMpW0NIMl1bQ0gyXVtDSDJdW0NIMl0z

> <s_epik_cmdline>
J2VwaWtfcHl0aG9uJywgJy1waCcsICc3LjAnLCAnLXRuJywgJzgnLCAnLW1hJywgJzIwMCcsICctbWV0YWxfYmluZGluZycsICctaW1hZScsICc8aW5maWxlLm1hZT4nLCAnLW9tYWUnLCAnPG91dGZpbGUubWFlPic=

> <r_epik_Ionization_Penalty>
0.00100042

> <r_epik_Ionization_Penalty_Charging>
0.000974069

> <r_epik_Ionization_Penalty_Neutral>
2.63543e-05

> <r_epik_State_Penalty>
0.000633842

> <r_epik_Charging_Adjusted_Penalty>
0.00160791

> <i_epik_Tot_Q>
1

> <i_epik_Tot_abs_Q>
1

> <r_epik_Metal_State_Penalty>
-0

> <b_epik_Metal_Only>
0

> <s_lp_Force_Field>
OPLS_2005

> <r_lp_Energy>
37.3357

> <b_lp_Chiralities_Consistent>
1

> <s_lp_Variant>
AV-unprocessed.smi:1738-3

> <Gold.Version>
5.8.1

> <Gold.Id.Protein>
6NUR|6NUR_protein|mol2

> <Gold.PLP.Fitness>
43.7048

> <Gold.PLP.PLP>
-31.8504

> <Gold.PLP.part.hbond>
-5.0000

> <Gold.PLP.part.metal>
0.0000

> <Gold.PLP.part.buried>
-4.9719

> <Gold.PLP.part.nonpolar>
-22.2984

> <Gold.PLP.part.repulsive>
0.0591

> <Gold.PLP.ligand.clash>
0.0000

> <Gold.PLP.ligand.torsion>
1.0274

> <Gold.PLP.Chemscore.Hbond>
3.9600

> <Gold.PLP.Chemscore.CHOScore>
0.0000

> <Gold.PLP.Chemscore.Metal>
0.0000

> <Gold.Chemscore.Hbonds>
donor molecule, donor type, donor heavy atom, donor atom, acceptor molecule, acceptor atom, score
      L1  H     9    29       P1  7948  1.00
      L1  H    12    30       P1  7948  0.94
      P1  H  6896  6908       L1     3  1.00
      P1  H  7997  8009       L1     4  1.00

> <Gold.PLP.Chemscore.Internal.Correction>
2.0291

> <Gold.Rescore>
     Score         DG    S(hbond)    S(metal)    S(lipo)     H(rot)  DE(clash)    DE(int)     intcor
     20.73     -23.18       3.53        0.00      72.53       1.00       0.02       2.43       ----

> <Gold.Chemscore.Fitness>
20.7283

> <Gold.Chemscore.DG>
-23.1802

> <Gold.Chemscore.ZeroCoef>
-5.4800

> <Gold.Chemscore.Hbond>
3.5251

> <Gold.Chemscore.Metal>
0.0000

> <Gold.Chemscore.Lipo>
72.5335

> <Gold.Chemscore.Internal_Hbond>
0.0000

> <Gold.Chemscore.DEClash>
0.0206

> <Gold.Chemscore.DEInternal>
2.4313

> <Gold.Chemscore.Rot>
1.0000

> <Gold.Chemscore.Internal.Correction>
   9.000000E+99

> <Gold.Chemscore.Hbonds>
donor molecule, donor type, donor heavy atom, donor atom, acceptor molecule, acceptor atom, score
      L1  H     9    29       P1  7948  0.69
      L1  H    12    30       P1  7948  0.89
      P1  H  6896  6908       L1     3  0.94
      P1  H  7997  8009       L1     4  0.93

> <Gold.Chemscore.Hbond.Weighted>
-11.7737

> <Gold.Chemscore.Metal.Weighted>
-0.0000

> <Gold.Chemscore.Lipo.Weighted>
-8.4864

> <Gold.Chemscore.Internal_Hbond.Weighted>
0.0000

> <Gold.Chemscore.DEClash.Weighted>
0.0206

> <Gold.Chemscore.DEInternal.Weighted>
2.4313

> <Gold.Chemscore.Rot.Weighted>
2.5600

> <Gold.Chemscore.Internal.Correction.Weighted>
   9.000000E+99

> <Gold.Protein.RotatedTorsions>
[ 6907 6896 6895 6894 ] final  -97.59 input  -60.11 | X-H torsion
[ 7974 7965 7964 7962 ] final -104.19 input  175.53 | X-H torsion
[ 8008 7997 7996 7995 ] final  130.12 input   59.86 | X-H torsion
[ 10167 10162 10161 10158 ] final  164.92 input  -65.29 | X-H torsion
[ 10718 10713 10712 10709 ] final  -60.74 input   66.30 | X-H torsion
[ 10763 10752 10751 10750 ] final   -6.83 input  -60.55 | X-H torsion
[ 11005 11000 10999 10996 ] final    1.80 input  -57.11 | X-H torsion

> <Gold.Protein.ActiveResidues>
 VAL166  LYS551  ARG553  GLY616  TRP617  ASP618  TYR619  PRO620  LYS621  CYS622 
 ASP623  PHE694  ASN695  SER759  ASP760  ASP761  ALA762  ILE779  LEU786  VAL792 
 PHE793  MET794  SER795  GLU796  ALA797  LYS798  CYS799  TRP800  GLU811  SER814 

> <Gold.Protein.RotatedAtoms>
  150.7021  134.1324  159.4074 H   0  0  0  0  0  0  0  0  0  0  0  0  # atno 6907 bound_to 6896
  151.9310  135.0254  160.0538 H   0  0  0  0  0  0  0  0  0  0  0  0  # atno 6908 bound_to 6896
  152.2175  133.4923  159.5181 H   0  0  0  0  0  0  0  0  0  0  0  0  # atno 6909 bound_to 6896
  145.2463  140.9222  143.3121 H   0  0  0  0  0  0  0  0  0  0  0  0  # atno 7974 bound_to 7965
  156.2949  140.2604  156.2709 H   0  0  0  0  0  0  0  0  0  0  0  0  # atno 8008 bound_to 7997
  154.9695  140.0391  157.2246 H   0  0  0  0  0  0  0  0  0  0  0  0  # atno 8009 bound_to 7997
  154.7871  140.2805  155.6024 H   0  0  0  0  0  0  0  0  0  0  0  0  # atno 8010 bound_to 7997
  139.4897  144.4186  151.9214 H   0  0  0  0  0  0  0  0  0  0  0  0  # atno 10167 bound_to 10162
  156.0969  130.4191  150.0897 H   0  0  0  0  0  0  0  0  0  0  0  0  # atno 10718 bound_to 10713
  153.4178  135.7009  153.6314 H   0  0  0  0  0  0  0  0  0  0  0  0  # atno 10763 bound_to 10752
  153.4782  135.3699  155.2428 H   0  0  0  0  0  0  0  0  0  0  0  0  # atno 10764 bound_to 10752
  154.8720  135.4059  154.3541 H   0  0  0  0  0  0  0  0  0  0  0  0  # atno 10765 bound_to 10752
  140.6115  133.9744  155.8179 H   0  0  0  0  0  0  0  0  0  0  0  0  # atno 11005 bound_to 11000
  144.9543  139.4048  143.6387 LP  0  0  0  0  0  0  0  0  0  0  0  0  # atno 17320 bound_to 7965
  146.3315  139.8566  142.8863 LP  0  0  0  0  0  0  0  0  0  0  0  0  # atno 17321 bound_to 7965
  140.3629  144.2950  150.5931 LP  0  0  0  0  0  0  0  0  0  0  0  0  # atno 17342 bound_to 10162
  140.5387  143.2228  151.8121 LP  0  0  0  0  0  0  0  0  0  0  0  0  # atno 17343 bound_to 10162
  156.8894  130.9583  151.3590 LP  0  0  0  0  0  0  0  0  0  0  0  0  # atno 17370 bound_to 10713
  157.6132  130.8598  149.8985 LP  0  0  0  0  0  0  0  0  0  0  0  0  # atno 17371 bound_to 10713
  141.0805  134.0070  157.3393 LP  0  0  0  0  0  0  0  0  0  0  0  0  # atno 17394 bound_to 11000
  139.9190  135.0199  156.7993 LP  0  0  0  0  0  0  0  0  0  0  0  0  # atno 17395 bound_to 11000

$$$$
