AV-unprocessed.smi:377|AV-procd|sdf|2456|dock9
  -GOLD-   2262022393D 1   1.00000     0.00000
 Structure written by MMmdl.
 33 34  0  0  0  0  0  0  0  0  1 V2000
  149.8536  135.1419  155.6088 C   0  0  0  0  0  0  0  0  0  0  0  0
  150.1401  135.9601  156.8747 C   0  0  0  0  0  0  0  0  0  0  0  0
  150.9753  137.1197  156.5854 N   0  0  0  0  0  0  0  0  0  0  0  0
  152.3165  137.1296  156.6043 C   0  0  0  0  0  0  0  0  0  0  0  0
  152.9938  136.1371  156.8777 O   0  0  0  0  0  0  0  0  0  0  0  0
  152.9785  138.4722  156.2568 C   0  0  0  0  0  0  0  0  0  0  0  0
  152.1015  139.6420  156.4834 N   0  0  0  0  0  0  0  0  0  0  0  0
  151.1381  139.9712  155.4956 C   0  0  0  0  0  0  0  0  0  0  0  0
  151.0099  139.2849  154.4802 O   0  0  0  0  0  0  0  0  0  0  0  0
  150.3437  141.1673  155.7657 C   0  0  0  0  0  0  0  0  0  0  0  0
  149.3865  141.5490  154.7812 C   0  0  0  0  0  0  0  0  0  0  0  0
  148.6136  141.8374  153.9693 N   0  0  0  0  0  0  0  0  0  0  0  0
  150.5200  141.8773  156.8990 C   0  0  0  0  0  0  0  0  0  0  0  0
  151.4344  141.5173  157.8648 N   0  0  0  0  0  0  0  0  0  0  0  0
  151.7184  142.3695  158.9848 C   0  0  0  0  0  0  0  0  0  0  0  0
  152.1138  143.8158  158.7588 C   0  0  0  0  0  0  0  0  0  0  0  0
  153.1437  142.8171  159.2267 C   0  0  0  0  0  0  0  0  0  0  0  0
  152.2896  140.4136  157.6558 C   0  0  0  0  0  0  0  0  0  0  0  0
  153.1804  140.1351  158.4627 O   0  0  0  0  0  0  0  0  0  0  0  0
  149.1977  134.3004  155.8326 H   0  0  0  0  0  0  0  0  0  0  0  0
  150.7716  134.7404  155.1781 H   0  0  0  0  0  0  0  0  0  0  0  0
  149.3646  135.7513  154.8482 H   0  0  0  0  0  0  0  0  0  0  0  0
  149.2023  136.3157  157.3019 H   0  0  0  0  0  0  0  0  0  0  0  0
  150.6094  135.3341  157.6351 H   0  0  0  0  0  0  0  0  0  0  0  0
  150.4979  137.9783  156.3521 H   0  0  0  0  0  0  0  0  0  0  0  0
  153.9020  138.5603  156.8312 H   0  0  0  0  0  0  0  0  0  0  0  0
  153.3164  138.4334  155.2198 H   0  0  0  0  0  0  0  0  0  0  0  0
  149.9184  142.7603  157.0610 H   0  0  0  0  0  0  0  0  0  0  0  0
  151.1248  142.1761  159.8767 H   0  0  0  0  0  0  0  0  0  0  0  0
  152.1985  144.1728  157.7342 H   0  0  0  0  0  0  0  0  0  0  0  0
  151.7594  144.5497  159.4796 H   0  0  0  0  0  0  0  0  0  0  0  0
  153.4790  142.8881  160.2594 H   0  0  0  0  0  0  0  0  0  0  0  0
  153.9054  142.5153  158.5102 H   0  0  0  0  0  0  0  0  0  0  0  0
  1  2  1  0  0  0  0
  1 20  1  0  0  0  0
  1 21  1  0  0  0  0
  1 22  1  0  0  0  0
  2  3  1  0  0  0  0
  2 23  1  0  0  0  0
  2 24  1  0  0  0  0
  3  4  1  0  0  0  0
  3 25  1  0  0  0  0
  4  5  2  0  0  0  0
  4  6  1  0  0  0  0
  6  7  1  0  0  0  0
  6 26  1  0  0  0  0
  6 27  1  0  0  0  0
  7 18  1  0  0  0  0
  7  8  1  0  0  0  0
  8  9  2  0  0  0  0
  8 10  1  0  0  0  0
 10 11  1  0  0  0  0
 10 13  2  0  0  0  0
 11 12  3  0  0  0  0
 13 14  1  0  0  0  0
 13 28  1  0  0  0  0
 14 15  1  0  0  0  0
 14 18  1  0  0  0  0
 15 17  1  0  0  0  0
 15 16  1  0  0  0  0
 15 29  1  0  0  0  0
 16 17  1  0  0  0  0
 16 30  1  0  0  0  0
 16 31  1  0  0  0  0
 17 32  1  0  0  0  0
 17 33  1  0  0  0  0
 18 19  2  0  0  0  0
M  END
> <s_m_source_file>
AV-unprocessed.smi

> <i_m_source_file_index>
377

> <i_lp_mmshare_version>
43012

> <i_f3d_flags>
0

> <s_epik_input>
W0NIM11bQ0gyXVtOSF1DKD1PKVtDSDJdbjFjKD1PKWMoQyNOKVtjSF1uKGMxPU8pW0NIXTJbQ0gyXVtDSDJdMg==

> <s_epik_cmdline>
J2VwaWtfcHl0aG9uJywgJy1waCcsICc3LjAnLCAnLXRuJywgJzgnLCAnLW1hJywgJzIwMCcsICctbWV0YWxfYmluZGluZycsICctaW1hZScsICc8aW5maWxlLm1hZT4nLCAnLW9tYWUnLCAnPG91dGZpbGUubWFlPic=

> <r_lp_tautomer_probability>
1

> <r_epik_Ionization_Penalty>
1.81858e-08

> <r_epik_Ionization_Penalty_Charging>
8.22213e-11

> <r_epik_Ionization_Penalty_Neutral>
1.81036e-08

> <r_epik_State_Penalty>
-0

> <r_epik_Charging_Adjusted_Penalty>
8.22213e-11

> <i_epik_Tot_Q>
0

> <i_epik_Tot_abs_Q>
0

> <r_epik_Metal_State_Penalty>
-0

> <b_epik_Metal_Only>
0

> <s_lp_Force_Field>
OPLS_2005

> <r_lp_Energy>
28.0616

> <b_lp_Chiralities_Consistent>
1

> <s_lp_Variant>
AV-unprocessed.smi:377-1

> <Gold.Version>
5.8.1

> <Gold.Id.Protein>
6NUR|6NUR_protein|mol2

> <Gold.PLP.Fitness>
43.8424

> <Gold.PLP.PLP>
-34.4442

> <Gold.PLP.part.hbond>
-4.0000

> <Gold.PLP.part.metal>
0.0000

> <Gold.PLP.part.buried>
0.1098

> <Gold.PLP.part.nonpolar>
-28.9013

> <Gold.PLP.part.repulsive>
0.3937

> <Gold.PLP.ligand.clash>
0.0000

> <Gold.PLP.ligand.torsion>
0.9179

> <Gold.PLP.Chemscore.Hbond>
2.6744

> <Gold.PLP.Chemscore.CHOScore>
1.0000

> <Gold.PLP.Chemscore.Metal>
0.0000

> <Gold.Chemscore.Hbonds>
donor molecule, donor type, donor heavy atom, donor atom, acceptor molecule, acceptor atom, score
      P1  H  7989  7998       L1     9  0.35
      P1  H  7997  8009       L1    19  0.79
      P1  H  8011  8017       L1    12  0.42
      P1  H 10752 10764       L1     5  1.00
      L1  C    13    28       P1  8028  0.78

> <Gold.PLP.Chemscore.Internal.Correction>
0.2107

> <Gold.Rescore>
     Score         DG    S(hbond)    S(metal)    S(lipo)     H(rot)  DE(clash)    DE(int)     intcor
     11.32     -13.50       1.78        0.00      59.17       1.89       0.05       2.13       ----

> <Gold.Chemscore.Fitness>
11.3232

> <Gold.Chemscore.DG>
-13.4993

> <Gold.Chemscore.ZeroCoef>
-5.4800

> <Gold.Chemscore.Hbond>
1.7777

> <Gold.Chemscore.Metal>
0.0000

> <Gold.Chemscore.Lipo>
59.1653

> <Gold.Chemscore.Internal_Hbond>
0.0000

> <Gold.Chemscore.DEClash>
0.0491

> <Gold.Chemscore.DEInternal>
2.1269

> <Gold.Chemscore.Rot>
1.8908

> <Gold.Chemscore.Internal.Correction>
   9.000000E+99

> <Gold.Chemscore.Hbonds>
donor molecule, donor type, donor heavy atom, donor atom, acceptor molecule, acceptor atom, score
      P1  H  7989  7998       L1     9  0.01
      P1  H  7997  8009       L1    19  0.11
      P1  H  8011  8017       L1    12  0.18
      P1  H 10752 10764       L1     5  0.29

> <Gold.Chemscore.Hbond.Weighted>
-5.9375

> <Gold.Chemscore.Metal.Weighted>
-0.0000

> <Gold.Chemscore.Lipo.Weighted>
-6.9223

> <Gold.Chemscore.Internal_Hbond.Weighted>
0.0000

> <Gold.Chemscore.DEClash.Weighted>
0.0491

> <Gold.Chemscore.DEInternal.Weighted>
2.1269

> <Gold.Chemscore.Rot.Weighted>
4.8406

> <Gold.Chemscore.Internal.Correction.Weighted>
   9.000000E+99

> <Gold.Protein.RotatedTorsions>
[ 6907 6896 6895 6894 ] final -135.68 input  -60.11 | X-H torsion
[ 7974 7965 7964 7962 ] final  168.57 input  175.53 | X-H torsion
[ 8008 7997 7996 7995 ] final  148.57 input   59.86 | X-H torsion
[ 10167 10162 10161 10158 ] final  -59.72 input  -65.29 | X-H torsion
[ 10718 10713 10712 10709 ] final    7.07 input   66.30 | X-H torsion
[ 10763 10752 10751 10750 ] final  -20.41 input  -60.55 | X-H torsion
[ 11005 11000 10999 10996 ] final -166.54 input  -57.11 | X-H torsion

> <Gold.Protein.ActiveResidues>
 VAL166  LYS551  ARG553  GLY616  TRP617  ASP618  TYR619  PRO620  LYS621  CYS622 
 ASP623  PHE694  ASN695  SER759  ASP760  ASP761  ALA762  ILE779  LEU786  VAL792 
 PHE793  MET794  SER795  GLU796  ALA797  LYS798  CYS799  TRP800  GLU811  SER814 

> <Gold.Protein.RotatedAtoms>
  151.0008  133.6058  159.2695 H   0  0  0  0  0  0  0  0  0  0  0  0  # atno 6907 bound_to 6896
  151.3245  135.0826  159.9327 H   0  0  0  0  0  0  0  0  0  0  0  0  # atno 6908 bound_to 6896
  152.5273  133.9649  159.7789 H   0  0  0  0  0  0  0  0  0  0  0  0  # atno 6909 bound_to 6896
  144.7384  139.8926  143.6404 H   0  0  0  0  0  0  0  0  0  0  0  0  # atno 7974 bound_to 7965
  156.2786  140.2125  156.5719 H   0  0  0  0  0  0  0  0  0  0  0  0  # atno 8008 bound_to 7997
  154.7128  140.0510  157.0589 H   0  0  0  0  0  0  0  0  0  0  0  0  # atno 8009 bound_to 7997
  155.0582  140.3163  155.4672 H   0  0  0  0  0  0  0  0  0  0  0  0  # atno 8010 bound_to 7997
  140.6117  143.2389  151.5693 H   0  0  0  0  0  0  0  0  0  0  0  0  # atno 10167 bound_to 10162
  156.9315  130.5827  149.5649 H   0  0  0  0  0  0  0  0  0  0  0  0  # atno 10718 bound_to 10713
  153.6201  135.6993  153.5314 H   0  0  0  0  0  0  0  0  0  0  0  0  # atno 10763 bound_to 10752
  153.2945  135.4147  155.1196 H   0  0  0  0  0  0  0  0  0  0  0  0  # atno 10764 bound_to 10752
  154.8545  135.3633  154.5741 H   0  0  0  0  0  0  0  0  0  0  0  0  # atno 10765 bound_to 10752
  140.5633  134.5311  157.5147 H   0  0  0  0  0  0  0  0  0  0  0  0  # atno 11005 bound_to 11000
  146.1130  139.4137  143.0275 LP  0  0  0  0  0  0  0  0  0  0  0  0  # atno 17320 bound_to 7965
  145.7415  141.0006  143.1298 LP  0  0  0  0  0  0  0  0  0  0  0  0  # atno 17321 bound_to 7965
  139.5366  144.2762  152.1265 LP  0  0  0  0  0  0  0  0  0  0  0  0  # atno 17342 bound_to 10162
  140.1963  144.4702  150.6453 LP  0  0  0  0  0  0  0  0  0  0  0  0  # atno 17343 bound_to 10162
  156.0445  130.5523  150.8849 LP  0  0  0  0  0  0  0  0  0  0  0  0  # atno 17370 bound_to 10713
  157.5844  131.0946  150.9220 LP  0  0  0  0  0  0  0  0  0  0  0  0  # atno 17371 bound_to 10713
  139.9397  134.7810  156.0710 LP  0  0  0  0  0  0  0  0  0  0  0  0  # atno 17394 bound_to 11000
  141.1101  133.6646  156.2958 LP  0  0  0  0  0  0  0  0  0  0  0  0  # atno 17395 bound_to 11000

$$$$
