AV-unprocessed.smi:1489|AV-procd|sdf|6028|dock1
  -GOLD-   22720 6133D 1   1.00000     0.00000
 Structure written by MMmdl.
 47 49  0  0  0  0  0  0  0  0  2 V2000
  146.6348  137.1000  153.6825 O   0  0  0  0  0  0  0  0  0  0  0  0
  145.9257  138.0104  153.2552 C   0  0  0  0  0  0  0  0  0  0  0  0
  146.1351  139.3192  153.4787 N   0  0  0  0  0  0  0  0  0  0  0  0
  147.1560  139.9264  154.2583 C   0  0  0  0  0  0  0  0  0  0  0  0
  148.2072  139.1069  154.7226 C   0  0  0  0  0  0  0  0  0  0  0  0
  149.2496  139.6712  155.4859 C   0  0  0  0  0  0  0  0  0  0  0  0
  149.2326  141.0575  155.7660 C   0  0  0  0  0  0  0  0  0  0  0  0
  150.2235  141.7164  156.5075 N   0  0  0  0  0  0  0  0  0  0  0  0
  149.7530  142.3842  157.7096 C   0  0  0  0  0  0  0  0  0  0  0  0
  151.0067  142.6532  158.5442 C   0  0  0  0  0  0  0  0  0  0  0  0
  152.0345  141.6279  158.0511 C   0  0  0  0  0  0  0  0  0  0  0  0
  151.3281  140.8683  156.9242 C   0  0  0  0  0  0  0  0  0  0  0  0
  148.2173  141.8109  155.2903 N   0  3  0  0  0  0  0  0  0  0  0  0
  147.1978  141.3096  154.5597 C   0  0  0  0  0  0  0  0  0  0  0  0
  144.8464  137.8198  152.4792 N   0  0  0  0  0  0  0  0  0  0  0  0
  144.3149  136.5464  151.9885 C   0  0  2  0  0  0  0  0  0  0  0  0
  143.3815  135.8561  153.0054 C   0  0  0  0  0  0  0  0  0  0  0  0
  142.7785  134.5681  152.4159 C   0  0  0  0  0  0  0  0  0  0  0  0
  143.8594  133.6036  151.8878 C   0  0  2  0  0  0  0  0  0  0  0  0
  144.5865  133.0515  152.9675 O   0  0  0  0  0  0  0  0  0  0  0  0
  144.8233  134.3038  150.9099 C   0  0  0  0  0  0  0  0  0  0  0  0
  145.4243  135.5888  151.5058 C   0  0  0  0  0  0  0  0  0  0  0  0
  145.5223  139.9561  152.9909 H   0  0  0  0  0  0  0  0  0  0  0  0
  148.2154  138.0496  154.5013 H   0  0  0  0  0  0  0  0  0  0  0  0
  150.0514  139.0424  155.8449 H   0  0  0  0  0  0  0  0  0  0  0  0
  149.2301  143.3093  157.4649 H   0  0  0  0  0  0  0  0  0  0  0  0
  149.0647  141.7453  158.2640 H   0  0  0  0  0  0  0  0  0  0  0  0
  151.3737  143.6633  158.3584 H   0  0  0  0  0  0  0  0  0  0  0  0
  150.8074  142.5637  159.6125 H   0  0  0  0  0  0  0  0  0  0  0  0
  152.9195  142.1400  157.6711 H   0  0  0  0  0  0  0  0  0  0  0  0
  152.3572  140.9526  158.8440 H   0  0  0  0  0  0  0  0  0  0  0  0
  150.9595  139.9095  157.2918 H   0  0  0  0  0  0  0  0  0  0  0  0
  152.0043  140.6706  156.0919 H   0  0  0  0  0  0  0  0  0  0  0  0
  146.4692  142.0386  154.2382 H   0  0  0  0  0  0  0  0  0  0  0  0
  144.3407  138.6430  152.1869 H   0  0  0  0  0  0  0  0  0  0  0  0
  143.7110  136.8098  151.1191 H   0  0  0  0  0  0  0  0  0  0  0  0
  143.9234  135.6104  153.9187 H   0  0  0  0  0  0  0  0  0  0  0  0
  142.5791  136.5347  153.2968 H   0  0  0  0  0  0  0  0  0  0  0  0
  142.1585  134.0694  153.1618 H   0  0  0  0  0  0  0  0  0  0  0  0
  142.1101  134.8341  151.5960 H   0  0  0  0  0  0  0  0  0  0  0  0
  143.3747  132.7724  151.3747 H   0  0  0  0  0  0  0  0  0  0  0  0
  143.9742  132.6873  153.5880 H   0  0  0  0  0  0  0  0  0  0  0  0
  145.6197  133.6214  150.6101 H   0  0  0  0  0  0  0  0  0  0  0  0
  144.2820  134.5565  149.9974 H   0  0  0  0  0  0  0  0  0  0  0  0
  146.0456  136.0824  150.7578 H   0  0  0  0  0  0  0  0  0  0  0  0
  146.0880  135.3245  152.3295 H   0  0  0  0  0  0  0  0  0  0  0  0
  148.2207  142.8114  155.4908 H   0  0  0  0  0  0  0  0  0  0  0  0
  1  2  2  0  0  0  0
  2  3  1  0  0  0  0
  2 15  1  0  0  0  0
  3  4  1  0  0  0  0
  3 23  1  0  0  0  0
  4 14  1  0  0  0  0
  4  5  2  0  0  0  0
  5  6  1  0  0  0  0
  5 24  1  0  0  0  0
  6  7  2  0  0  0  0
  6 25  1  0  0  0  0
  7  8  1  0  0  0  0
  7 13  1  0  0  0  0
  8 12  1  0  0  0  0
  8  9  1  0  0  0  0
  9 10  1  0  0  0  0
  9 26  1  0  0  0  0
  9 27  1  0  0  0  0
 10 11  1  0  0  0  0
 10 28  1  0  0  0  0
 10 29  1  0  0  0  0
 11 12  1  0  0  0  0
 11 30  1  0  0  0  0
 11 31  1  0  0  0  0
 12 32  1  0  0  0  0
 12 33  1  0  0  0  0
 13 14  2  0  0  0  0
 13 47  1  0  0  0  0
 14 34  1  0  0  0  0
 15 16  1  0  0  0  0
 15 35  1  0  0  0  0
 16 22  1  0  0  0  0
 16 17  1  0  0  0  0
 16 36  1  0  0  0  0
 17 18  1  0  0  0  0
 17 37  1  0  0  0  0
 17 38  1  0  0  0  0
 18 19  1  0  0  0  0
 18 39  1  0  0  0  0
 18 40  1  0  0  0  0
 19 20  1  0  0  0  0
 19 21  1  0  0  0  0
 19 41  1  0  0  0  0
 20 42  1  0  0  0  0
 21 22  1  0  0  0  0
 21 43  1  0  0  0  0
 21 44  1  0  0  0  0
 22 45  1  0  0  0  0
 22 46  1  0  0  0  0
M  CHG  1  13   1
M  END
> <s_m_source_file>
AV-unprocessed.smi

> <i_m_source_file_index>
1489

> <i_lp_mmshare_version>
43012

> <i_f3d_flags>
0

> <s_epik_input>
W0NIMl0xW0NIMl1bQ0BIXShbT0hdKVtDSDJdW0NIMl1bQ0BIXTFbTkhdQyg9TylbTkhdYzJbY0hdW2NIXWMobltjSF0yKU4zW0NIMl1bQ0gyXVtDSDJdW0NIMl0z

> <s_epik_cmdline>
J2VwaWtfcHl0aG9uJywgJy1waCcsICc3LjAnLCAnLXRuJywgJzgnLCAnLW1hJywgJzIwMCcsICctbWV0YWxfYmluZGluZycsICctaW1hZScsICc8aW5maWxlLm1hZT4nLCAnLW9tYWUnLCAnPG91dGZpbGUubWFlPic=

> <r_lp_tautomer_probability>
0.999994

> <r_epik_Ionization_Penalty>
1.08454

> <r_epik_Ionization_Penalty_Charging>
1.08452

> <r_epik_Ionization_Penalty_Neutral>
2.18252e-05

> <r_epik_State_Penalty>
1.14025

> <r_epik_Charging_Adjusted_Penalty>
2.22477

> <i_epik_Tot_Q>
1

> <i_epik_Tot_abs_Q>
1

> <r_epik_Metal_State_Penalty>
1.22975

> <b_epik_Metal_Only>
0

> <s_lp_Force_Field>
OPLS_2005

> <r_lp_Energy>
45.8336

> <b_lp_Chiralities_Consistent>
1

> <s_lp_Variant>
AV-unprocessed.smi:1489-4

> <Gold.Version>
5.8.1

> <Gold.Id.Protein>
6NUR|6NUR_protein|mol2

> <Gold.PLP.Fitness>
44.9040

> <Gold.PLP.PLP>
-30.5811

> <Gold.PLP.part.hbond>
-5.0000

> <Gold.PLP.part.metal>
0.0000

> <Gold.PLP.part.buried>
-5.9495

> <Gold.PLP.part.nonpolar>
-21.5688

> <Gold.PLP.part.repulsive>
0.8874

> <Gold.PLP.ligand.clash>
0.0000

> <Gold.PLP.ligand.torsion>
0.3202

> <Gold.PLP.Chemscore.Hbond>
4.9750

> <Gold.PLP.Chemscore.CHOScore>
0.0000

> <Gold.PLP.Chemscore.Metal>
0.0000

> <Gold.Chemscore.Hbonds>
donor molecule, donor type, donor heavy atom, donor atom, acceptor molecule, acceptor atom, score
      L1  H     3    23       P1 10175  0.99
      L1  H    13    47       P1  8028  2.00
      L1  H    15    35       P1 10175  1.00
      L1  H    20    42       P1 10957  1.00

> <Gold.PLP.Chemscore.Internal.Correction>
0.0383

> <Gold.Rescore>
     Score         DG    S(hbond)    S(metal)    S(lipo)     H(rot)  DE(clash)    DE(int)     intcor
     19.34     -22.69       3.82        0.00      74.92       1.69       0.23       3.12       ----

> <Gold.Chemscore.Fitness>
19.3405

> <Gold.Chemscore.DG>
-22.6856

> <Gold.Chemscore.ZeroCoef>
-5.4800

> <Gold.Chemscore.Hbond>
3.8245

> <Gold.Chemscore.Metal>
0.0000

> <Gold.Chemscore.Lipo>
74.9206

> <Gold.Chemscore.Internal_Hbond>
0.0000

> <Gold.Chemscore.DEClash>
0.2287

> <Gold.Chemscore.DEInternal>
3.1164

> <Gold.Chemscore.Rot>
1.6929

> <Gold.Chemscore.Internal.Correction>
   9.000000E+99

> <Gold.Chemscore.Hbonds>
donor molecule, donor type, donor heavy atom, donor atom, acceptor molecule, acceptor atom, score
      L1  H     3    23       P1 10175  0.91
      L1  H    13    47       P1  8028  0.92
      L1  H    15    35       P1 10175  0.97
      L1  H    20    42       P1 10957  0.54

> <Gold.Chemscore.Hbond.Weighted>
-12.7737

> <Gold.Chemscore.Metal.Weighted>
-0.0000

> <Gold.Chemscore.Lipo.Weighted>
-8.7657

> <Gold.Chemscore.Internal_Hbond.Weighted>
0.0000

> <Gold.Chemscore.DEClash.Weighted>
0.2287

> <Gold.Chemscore.DEInternal.Weighted>
3.1164

> <Gold.Chemscore.Rot.Weighted>
4.3338

> <Gold.Chemscore.Internal.Correction.Weighted>
   9.000000E+99

> <Gold.Protein.RotatedTorsions>
[ 6907 6896 6895 6894 ] final   35.40 input  -60.11 | X-H torsion
[ 7974 7965 7964 7962 ] final  160.81 input  175.53 | X-H torsion
[ 8008 7997 7996 7995 ] final    6.49 input   59.86 | X-H torsion
[ 10167 10162 10161 10158 ] final  -94.93 input  -65.29 | X-H torsion
[ 10718 10713 10712 10709 ] final   89.06 input   66.30 | X-H torsion
[ 10763 10752 10751 10750 ] final   -0.45 input  -60.55 | X-H torsion
[ 11005 11000 10999 10996 ] final  -75.99 input  -57.11 | X-H torsion

> <Gold.Protein.ActiveResidues>
 VAL166  LYS551  ARG553  GLY616  TRP617  ASP618  TYR619  PRO620  LYS621  CYS622 
 ASP623  PHE694  ASN695  SER759  ASP760  ASP761  ALA762  ILE779  LEU786  VAL792 
 PHE793  MET794  SER795  GLU796  ALA797  LYS798  CYS799  TRP800  GLU811  SER814 

> <Gold.Protein.RotatedAtoms>
  152.1156  134.9243  160.0564 H   0  0  0  0  0  0  0  0  0  0  0  0  # atno 6907 bound_to 6896
  152.0404  133.3970  159.4342 H   0  0  0  0  0  0  0  0  0  0  0  0  # atno 6908 bound_to 6896
  150.6846  134.3342  159.4884 H   0  0  0  0  0  0  0  0  0  0  0  0  # atno 6909 bound_to 6896
  144.7718  139.7809  143.6294 H   0  0  0  0  0  0  0  0  0  0  0  0  # atno 7974 bound_to 7965
  154.7417  140.2750  155.6367 H   0  0  0  0  0  0  0  0  0  0  0  0  # atno 8008 bound_to 7997
  156.2875  140.2695  156.2073 H   0  0  0  0  0  0  0  0  0  0  0  0  # atno 8009 bound_to 7997
  155.0249  140.0371  157.2441 H   0  0  0  0  0  0  0  0  0  0  0  0  # atno 8010 bound_to 7997
  140.3094  143.3114  152.0165 H   0  0  0  0  0  0  0  0  0  0  0  0  # atno 10167 bound_to 10162
  157.6953  131.0319  150.3369 H   0  0  0  0  0  0  0  0  0  0  0  0  # atno 10718 bound_to 10713
  153.3321  135.6975  153.6939 H   0  0  0  0  0  0  0  0  0  0  0  0  # atno 10763 bound_to 10752
  153.5738  135.3511  155.2848 H   0  0  0  0  0  0  0  0  0  0  0  0  # atno 10764 bound_to 10752
  154.8620  135.4278  154.2512 H   0  0  0  0  0  0  0  0  0  0  0  0  # atno 10765 bound_to 10752
  141.1650  133.6967  156.7601 H   0  0  0  0  0  0  0  0  0  0  0  0  # atno 11005 bound_to 11000
  146.1869  139.5089  142.9830 LP  0  0  0  0  0  0  0  0  0  0  0  0  # atno 17320 bound_to 7965
  145.6302  141.0305  143.1867 LP  0  0  0  0  0  0  0  0  0  0  0  0  # atno 17321 bound_to 7965
  139.4897  144.6396  151.6904 LP  0  0  0  0  0  0  0  0  0  0  0  0  # atno 17342 bound_to 10162
  140.5582  144.0313  150.6157 LP  0  0  0  0  0  0  0  0  0  0  0  0  # atno 17343 bound_to 10162
  156.3835  130.3885  149.7083 LP  0  0  0  0  0  0  0  0  0  0  0  0  # atno 17370 bound_to 10713
  156.4458  130.7883  151.2904 LP  0  0  0  0  0  0  0  0  0  0  0  0  # atno 17371 bound_to 10713
  140.2540  134.8518  157.3695 LP  0  0  0  0  0  0  0  0  0  0  0  0  # atno 17394 bound_to 11000
  140.1675  134.4650  155.7853 LP  0  0  0  0  0  0  0  0  0  0  0  0  # atno 17395 bound_to 11000

$$$$
