AV-unprocessed.smi:1824|AV-procd|sdf|7409|dock6
  -GOLD-   22720 9 83D 1   1.00000     0.00000
 Structure written by MMmdl.
 45 47  0  0  0  0  0  0  0  0  2 V2000
  150.1418  137.0073  154.9157 C   0  0  0  0  0  0  0  0  0  0  0  0
  149.1441  137.8543  155.7242 C   0  0  2  0  0  0  0  0  0  0  0  0
  147.7861  138.0389  155.0185 C   0  0  0  0  0  0  0  0  0  0  0  0
  147.8534  138.9627  153.8908 N   0  0  0  0  0  0  0  0  0  0  0  0
  146.5418  139.1022  153.2557 C   0  0  0  0  0  0  0  0  0  0  0  0
  146.2392  138.0955  152.1280 C   0  0  1  0  0  0  0  0  0  0  0  0
  147.1408  138.3345  151.0653 O   0  0  0  0  0  0  0  0  0  0  0  0
  146.3914  136.6414  152.6156 C   0  0  0  0  0  0  0  0  0  0  0  0
  145.4323  135.7227  151.9849 N   0  0  0  0  0  0  0  0  0  0  0  0
  144.2886  135.9984  151.3012 C   0  0  0  0  0  0  0  0  0  0  0  0
  143.7453  134.8118  150.9123 N   0  3  0  0  0  0  0  0  0  0  0  0
  144.5544  133.7618  151.3522 C   0  0  0  0  0  0  0  0  0  0  0  0
  144.4220  132.3850  151.2023 C   0  0  0  0  0  0  0  0  0  0  0  0
  145.4331  131.5837  151.7722 C   0  0  0  0  0  0  0  0  0  0  0  0
  145.3538  130.2371  151.6547 F   0  0  0  0  0  0  0  0  0  0  0  0
  146.5233  132.1571  152.4602 C   0  0  0  0  0  0  0  0  0  0  0  0
  147.4736  131.3513  152.9906 F   0  0  0  0  0  0  0  0  0  0  0  0
  146.6455  133.5545  152.6072 C   0  0  0  0  0  0  0  0  0  0  0  0
  145.6414  134.3394  152.0414 C   0  0  0  0  0  0  0  0  0  0  0  0
  148.3954  140.2362  154.3576 C   0  0  0  0  0  0  0  0  0  0  0  0
  149.7787  140.0684  155.0129 C   0  0  1  0  0  0  0  0  0  0  0  0
  150.3075  141.3870  155.5874 C   0  0  0  0  0  0  0  0  0  0  0  0
  149.6909  139.1252  156.0792 O   0  0  0  0  0  0  0  0  0  0  0  0
  149.7495  136.0043  154.7465 H   0  0  0  0  0  0  0  0  0  0  0  0
  151.0874  136.9063  155.4485 H   0  0  0  0  0  0  0  0  0  0  0  0
  150.3530  137.4422  153.9391 H   0  0  0  0  0  0  0  0  0  0  0  0
  148.9651  137.3256  156.6608 H   0  0  0  0  0  0  0  0  0  0  0  0
  147.4157  137.0685  154.6855 H   0  0  0  0  0  0  0  0  0  0  0  0
  147.0613  138.4094  155.7455 H   0  0  0  0  0  0  0  0  0  0  0  0
  145.7625  138.9999  154.0128 H   0  0  0  0  0  0  0  0  0  0  0  0
  146.4419  140.1171  152.8680 H   0  0  0  0  0  0  0  0  0  0  0  0
  145.2246  138.2244  151.7534 H   0  0  0  0  0  0  0  0  0  0  0  0
  147.8182  138.9160  151.3772 H   0  0  0  0  0  0  0  0  0  0  0  0
  147.4046  136.2717  152.4555 H   0  0  0  0  0  0  0  0  0  0  0  0
  146.2173  136.5935  153.6912 H   0  0  0  0  0  0  0  0  0  0  0  0
  143.8848  136.9812  151.1031 H   0  0  0  0  0  0  0  0  0  0  0  0
  143.5899  131.9417  150.6753 H   0  0  0  0  0  0  0  0  0  0  0  0
  147.4881  133.9814  153.1301 H   0  0  0  0  0  0  0  0  0  0  0  0
  148.4927  140.9359  153.5290 H   0  0  0  0  0  0  0  0  0  0  0  0
  147.7062  140.6909  155.0710 H   0  0  0  0  0  0  0  0  0  0  0  0
  150.4914  139.7091  154.2699 H   0  0  0  0  0  0  0  0  0  0  0  0
  150.4051  142.1439  154.8087 H   0  0  0  0  0  0  0  0  0  0  0  0
  151.2896  141.2484  156.0400 H   0  0  0  0  0  0  0  0  0  0  0  0
  149.6394  141.7794  156.3547 H   0  0  0  0  0  0  0  0  0  0  0  0
  142.8856  134.7283  150.3846 H   0  0  0  0  0  0  0  0  0  0  0  0
  1  2  1  0  0  0  0
  1 24  1  0  0  0  0
  1 25  1  0  0  0  0
  1 26  1  0  0  0  0
  2 23  1  0  0  0  0
  2  3  1  0  0  0  0
  2 27  1  0  0  0  0
  3  4  1  0  0  0  0
  3 28  1  0  0  0  0
  3 29  1  0  0  0  0
  4  5  1  0  0  0  0
  4 20  1  0  0  0  0
  5  6  1  0  0  0  0
  5 30  1  0  0  0  0
  5 31  1  0  0  0  0
  6  7  1  0  0  0  0
  6  8  1  0  0  0  0
  6 32  1  0  0  0  0
  7 33  1  0  0  0  0
  8  9  1  0  0  0  0
  8 34  1  0  0  0  0
  8 35  1  0  0  0  0
  9 19  1  0  0  0  0
  9 10  1  0  0  0  0
 10 11  2  0  0  0  0
 10 36  1  0  0  0  0
 11 12  1  0  0  0  0
 11 45  1  0  0  0  0
 12 19  2  0  0  0  0
 12 13  1  0  0  0  0
 13 14  2  0  0  0  0
 13 37  1  0  0  0  0
 14 15  1  0  0  0  0
 14 16  1  0  0  0  0
 16 17  1  0  0  0  0
 16 18  2  0  0  0  0
 18 19  1  0  0  0  0
 18 38  1  0  0  0  0
 20 21  1  0  0  0  0
 20 39  1  0  0  0  0
 20 40  1  0  0  0  0
 21 22  1  0  0  0  0
 21 23  1  0  0  0  0
 21 41  1  0  0  0  0
 22 42  1  0  0  0  0
 22 43  1  0  0  0  0
 22 44  1  0  0  0  0
M  CHG  1  11   1
M  END
> <s_m_source_file>
AV-unprocessed.smi

> <i_m_source_file_index>
1824

> <i_lp_mmshare_version>
43012

> <i_f3d_flags>
0

> <s_epik_input>
W0NIM11bQ0BASF0xW0NIMl1OKFtDSDJdW0NASF0oTzEpW0NIM10pW0NIMl1bQ0BIXShbT0hdKVtDSDJdbihbY0hdbjIpYyhjMjMpW2NIXWMoRiljKEYpW2NIXTM=

> <s_epik_cmdline>
J2VwaWtfcHl0aG9uJywgJy1waCcsICc3LjAnLCAnLXRuJywgJzgnLCAnLW1hJywgJzIwMCcsICctbWV0YWxfYmluZGluZycsICctaW1hZScsICc8aW5maWxlLm1hZT4nLCAnLW9tYWUnLCAnPG91dGZpbGUubWFlPic=

> <r_epik_Ionization_Penalty>
2.58709

> <r_epik_Ionization_Penalty_Charging>
2.37273

> <r_epik_Ionization_Penalty_Neutral>
0.214359

> <r_epik_State_Penalty>
2.71799

> <r_epik_Charging_Adjusted_Penalty>
5.09071

> <i_epik_Tot_Q>
1

> <i_epik_Tot_abs_Q>
1

> <r_epik_Metal_State_Penalty>
6.80217

> <b_epik_Metal_Only>
0

> <s_lp_Force_Field>
OPLS_2005

> <r_lp_Energy>
35.2621

> <b_lp_Chiralities_Consistent>
1

> <s_lp_Variant>
AV-unprocessed.smi:1824-17

> <Gold.Version>
5.8.1

> <Gold.Id.Protein>
6NUR|6NUR_protein|mol2

> <Gold.PLP.Fitness>
45.1709

> <Gold.PLP.PLP>
-34.6580

> <Gold.PLP.part.hbond>
-3.9239

> <Gold.PLP.part.metal>
0.0000

> <Gold.PLP.part.buried>
-0.6652

> <Gold.PLP.part.nonpolar>
-31.4753

> <Gold.PLP.part.repulsive>
0.1887

> <Gold.PLP.ligand.clash>
0.0000

> <Gold.PLP.ligand.torsion>
1.0707

> <Gold.PLP.Chemscore.Hbond>
3.2113

> <Gold.PLP.Chemscore.CHOScore>
1.0000

> <Gold.PLP.Chemscore.Metal>
0.0000

> <Gold.Chemscore.Hbonds>
donor molecule, donor type, donor heavy atom, donor atom, acceptor molecule, acceptor atom, score
      L1  H     7    33       P1  7957  0.88
      L1  H    11    45       P1 10186  1.82
      P1  H  7954  7966       L1     7  0.35
      L1  C    10    36       P1 10171  1.00

> <Gold.PLP.Chemscore.Internal.Correction>
0.0206

> <Gold.Rescore>
     Score         DG    S(hbond)    S(metal)    S(lipo)     H(rot)  DE(clash)    DE(int)     intcor
      9.54     -12.15       1.03        0.00      78.49       2.32       1.59       1.02       ----

> <Gold.Chemscore.Fitness>
9.5376

> <Gold.Chemscore.DG>
-12.1523

> <Gold.Chemscore.ZeroCoef>
-5.4800

> <Gold.Chemscore.Hbond>
1.0273

> <Gold.Chemscore.Metal>
0.0000

> <Gold.Chemscore.Lipo>
78.4866

> <Gold.Chemscore.Internal_Hbond>
0.0000

> <Gold.Chemscore.DEClash>
1.5928

> <Gold.Chemscore.DEInternal>
1.0219

> <Gold.Chemscore.Rot>
2.3210

> <Gold.Chemscore.Internal.Correction>
   9.000000E+99

> <Gold.Chemscore.Hbonds>
donor molecule, donor type, donor heavy atom, donor atom, acceptor molecule, acceptor atom, score
      L1  H     7    33       P1  7957  0.54
      L1  H    11    45       P1 10186  0.30
      P1  H  7954  7966       L1     7  0.01

> <Gold.Chemscore.Hbond.Weighted>
-3.4311

> <Gold.Chemscore.Metal.Weighted>
-0.0000

> <Gold.Chemscore.Lipo.Weighted>
-9.1829

> <Gold.Chemscore.Internal_Hbond.Weighted>
0.0000

> <Gold.Chemscore.DEClash.Weighted>
1.5928

> <Gold.Chemscore.DEInternal.Weighted>
1.0219

> <Gold.Chemscore.Rot.Weighted>
5.9416

> <Gold.Chemscore.Internal.Correction.Weighted>
   9.000000E+99

> <Gold.Protein.RotatedTorsions>
[ 6907 6896 6895 6894 ] final  -77.25 input  -60.11 | X-H torsion
[ 7974 7965 7964 7962 ] final  136.83 input  175.53 | X-H torsion
[ 8008 7997 7996 7995 ] final -155.70 input   59.86 | X-H torsion
[ 10167 10162 10161 10158 ] final  -29.33 input  -65.29 | X-H torsion
[ 10718 10713 10712 10709 ] final -163.39 input   66.30 | X-H torsion
[ 10763 10752 10751 10750 ] final  -93.49 input  -60.55 | X-H torsion
[ 11005 11000 10999 10996 ] final  -87.36 input  -57.11 | X-H torsion

> <Gold.Protein.ActiveResidues>
 VAL166  LYS551  ARG553  GLY616  TRP617  ASP618  TYR619  PRO620  LYS621  CYS622 
 ASP623  PHE694  ASN695  SER759  ASP760  ASP761  ALA762  ILE779  LEU786  VAL792 
 PHE793  MET794  SER795  GLU796  ALA797  LYS798  CYS799  TRP800  GLU811  SER814 

> <Gold.Protein.RotatedAtoms>
  150.7004  134.4450  159.5309 H   0  0  0  0  0  0  0  0  0  0  0  0  # atno 6907 bound_to 6896
  152.2153  134.8461  160.0501 H   0  0  0  0  0  0  0  0  0  0  0  0  # atno 6908 bound_to 6896
  151.9331  133.3582  159.3975 H   0  0  0  0  0  0  0  0  0  0  0  0  # atno 6909 bound_to 6896
  144.9527  139.4800  143.5518 H   0  0  0  0  0  0  0  0  0  0  0  0  # atno 7974 bound_to 7965
  155.7059  140.0772  157.2391 H   0  0  0  0  0  0  0  0  0  0  0  0  # atno 8008 bound_to 7997
  154.4066  140.1639  156.2296 H   0  0  0  0  0  0  0  0  0  0  0  0  # atno 8009 bound_to 7997
  155.9326  140.3390  155.6264 H   0  0  0  0  0  0  0  0  0  0  0  0  # atno 8010 bound_to 7997
  140.7261  143.3937  151.1385 H   0  0  0  0  0  0  0  0  0  0  0  0  # atno 10167 bound_to 10162
  156.6241  130.8902  151.2964 H   0  0  0  0  0  0  0  0  0  0  0  0  # atno 10718 bound_to 10713
  154.6964  135.5192  153.8464 H   0  0  0  0  0  0  0  0  0  0  0  0  # atno 10763 bound_to 10752
  153.0670  135.6588  154.0341 H   0  0  0  0  0  0  0  0  0  0  0  0  # atno 10764 bound_to 10752
  154.0207  135.2994  155.3361 H   0  0  0  0  0  0  0  0  0  0  0  0  # atno 10765 bound_to 10752
  141.1618  133.7507  156.9296 H   0  0  0  0  0  0  0  0  0  0  0  0  # atno 11005 bound_to 11000
  146.3326  139.8623  142.8854 LP  0  0  0  0  0  0  0  0  0  0  0  0  # atno 17320 bound_to 7965
  145.2820  141.0141  143.3712 LP  0  0  0  0  0  0  0  0  0  0  0  0  # atno 17321 bound_to 7965
  139.7546  143.8727  152.3085 LP  0  0  0  0  0  0  0  0  0  0  0  0  # atno 17342 bound_to 10162
  139.8592  144.7126  150.9120 LP  0  0  0  0  0  0  0  0  0  0  0  0  # atno 17343 bound_to 10162
  157.7219  130.9570  150.1474 LP  0  0  0  0  0  0  0  0  0  0  0  0  # atno 17370 bound_to 10713
  156.2288  130.3680  149.8469 LP  0  0  0  0  0  0  0  0  0  0  0  0  # atno 17371 bound_to 10713
  140.1396  134.9302  157.2448 LP  0  0  0  0  0  0  0  0  0  0  0  0  # atno 17394 bound_to 11000
  140.2853  134.3302  155.7331 LP  0  0  0  0  0  0  0  0  0  0  0  0  # atno 17395 bound_to 11000

$$$$
