AV-unprocessed.smi:2222|AV-procd|sdf|8988|dock8
  -GOLD-   2272012203D 1   1.00000     0.00000
 Structure written by MMmdl.
 34 35  0  0  0  0  0  0  0  0  1 V2000
  151.5503  145.6101  159.9717 C   0  0  0  0  0  0  0  0  0  0  0  0
  151.3400  144.4676  159.1549 O   0  0  0  0  0  0  0  0  0  0  0  0
  152.0129  143.3037  159.4726 C   0  0  0  0  0  0  0  0  0  0  0  0
  152.8777  143.1770  160.5894 C   0  0  0  0  0  0  0  0  0  0  0  0
  153.5201  141.9502  160.8303 C   0  0  0  0  0  0  0  0  0  0  0  0
  153.2742  140.8864  159.9442 C   0  0  0  0  0  0  0  0  0  0  0  0
  153.9316  139.5367  160.1417 C   0  0  0  0  0  0  0  0  0  0  0  0
  152.4548  140.9947  158.8793 N   0  0  0  0  0  0  0  0  0  0  0  0
  151.8293  142.1729  158.6355 C   0  0  0  0  0  0  0  0  0  0  0  0
  150.9532  142.3681  157.5330 N   0  0  0  0  0  0  0  0  0  0  0  0
  150.6741  141.5276  156.5170 C   0  0  0  0  0  0  0  0  0  0  0  0
  151.1247  140.3887  156.4061 O   0  0  0  0  0  0  0  0  0  0  0  0
  149.8049  142.0199  155.6159 N   0  0  0  0  0  0  0  0  0  0  0  0
  149.3090  141.3821  154.4332 C   0  0  1  0  0  0  0  0  0  0  0  0
  149.0960  139.8863  154.5117 C   0  0  0  0  0  0  0  0  0  0  0  0
  147.9073  140.8082  154.4596 C   0  0  2  0  0  0  0  0  0  0  0  0
  147.0305  140.8418  153.2269 C   0  0  0  0  0  0  0  0  0  0  0  0
  150.9553  146.4393  159.5890 H   0  0  0  0  0  0  0  0  0  0  0  0
  152.5955  145.9219  159.9602 H   0  0  0  0  0  0  0  0  0  0  0  0
  151.2380  145.4280  161.0009 H   0  0  0  0  0  0  0  0  0  0  0  0
  153.0624  143.9964  161.2672 H   0  0  0  0  0  0  0  0  0  0  0  0
  154.1835  141.8332  161.6745 H   0  0  0  0  0  0  0  0  0  0  0  0
  154.4828  139.4989  161.0815 H   0  0  0  0  0  0  0  0  0  0  0  0
  154.6281  139.3335  159.3280 H   0  0  0  0  0  0  0  0  0  0  0  0
  153.1804  138.7463  160.1573 H   0  0  0  0  0  0  0  0  0  0  0  0
  150.4886  143.2639  157.5095 H   0  0  0  0  0  0  0  0  0  0  0  0
  149.4044  142.9225  155.8272 H   0  0  0  0  0  0  0  0  0  0  0  0
  149.6783  141.7390  153.4728 H   0  0  0  0  0  0  0  0  0  0  0  0
  149.3246  139.3017  153.6227 H   0  0  0  0  0  0  0  0  0  0  0  0
  149.3012  139.3891  155.4578 H   0  0  0  0  0  0  0  0  0  0  0  0
  147.3555  140.9278  155.3902 H   0  0  0  0  0  0  0  0  0  0  0  0
  147.6273  140.7195  152.3226 H   0  0  0  0  0  0  0  0  0  0  0  0
  146.5041  141.7943  153.1692 H   0  0  0  0  0  0  0  0  0  0  0  0
  146.2944  140.0389  153.2692 H   0  0  0  0  0  0  0  0  0  0  0  0
  1  2  1  0  0  0  0
  1 18  1  0  0  0  0
  1 19  1  0  0  0  0
  1 20  1  0  0  0  0
  2  3  1  0  0  0  0
  3  9  1  0  0  0  0
  3  4  2  0  0  0  0
  4  5  1  0  0  0  0
  4 21  1  0  0  0  0
  5  6  2  0  0  0  0
  5 22  1  0  0  0  0
  6  7  1  0  0  0  0
  6  8  1  0  0  0  0
  7 23  1  0  0  0  0
  7 24  1  0  0  0  0
  7 25  1  0  0  0  0
  8  9  2  0  0  0  0
  9 10  1  0  0  0  0
 10 11  1  0  0  0  0
 10 26  1  0  0  0  0
 11 12  2  0  0  0  0
 11 13  1  0  0  0  0
 13 14  1  0  0  0  0
 13 27  1  0  0  0  0
 14 16  1  0  0  0  0
 14 15  1  0  0  0  0
 14 28  1  0  0  0  0
 15 16  1  0  0  0  0
 15 29  1  0  0  0  0
 15 30  1  0  0  0  0
 16 17  1  0  0  0  0
 16 31  1  0  0  0  0
 17 32  1  0  0  0  0
 17 33  1  0  0  0  0
 17 34  1  0  0  0  0
M  END
> <s_m_source_file>
AV-unprocessed.smi

> <i_m_source_file_index>
2222

> <i_lp_mmshare_version>
43012

> <i_f3d_flags>
0

> <s_epik_input>
W0NIM11PYzFbY0hdW2NIXWMoW0NIM10pbmMxW05IXUMoPU8pW05IXVtDQEBIXTJbQ0gyXVtDQEhdMltDSDNd

> <s_epik_cmdline>
J2VwaWtfcHl0aG9uJywgJy1waCcsICc3LjAnLCAnLXRuJywgJzgnLCAnLW1hJywgJzIwMCcsICctbWV0YWxfYmluZGluZycsICctaW1hZScsICc8aW5maWxlLm1hZT4nLCAnLW9tYWUnLCAnPG91dGZpbGUubWFlPic=

> <r_lp_tautomer_probability>
1

> <r_epik_Ionization_Penalty>
6.59103e-05

> <r_epik_Ionization_Penalty_Charging>
0

> <r_epik_Ionization_Penalty_Neutral>
6.59103e-05

> <r_epik_State_Penalty>
-0

> <r_epik_Charging_Adjusted_Penalty>
0

> <i_epik_Tot_Q>
0

> <i_epik_Tot_abs_Q>
0

> <r_epik_Metal_State_Penalty>
-0

> <b_epik_Metal_Only>
0

> <s_lp_Force_Field>
OPLS_2005

> <r_lp_Energy>
33.3795

> <b_lp_Chiralities_Consistent>
1

> <s_lp_Variant>
AV-unprocessed.smi:2222-4

> <Gold.Version>
5.8.1

> <Gold.Id.Protein>
6NUR|6NUR_protein|mol2

> <Gold.PLP.Fitness>
40.4366

> <Gold.PLP.PLP>
-38.0030

> <Gold.PLP.part.hbond>
-1.0000

> <Gold.PLP.part.metal>
0.0000

> <Gold.PLP.part.buried>
-4.4299

> <Gold.PLP.part.nonpolar>
-32.4948

> <Gold.PLP.part.repulsive>
0.2846

> <Gold.PLP.ligand.clash>
0.0000

> <Gold.PLP.ligand.torsion>
0.3000

> <Gold.PLP.Chemscore.Hbond>
1.0000

> <Gold.PLP.Chemscore.CHOScore>
0.0000

> <Gold.PLP.Chemscore.Metal>
0.0000

> <Gold.Chemscore.Hbonds>
donor molecule, donor type, donor heavy atom, donor atom, acceptor molecule, acceptor atom, score
      L1  H    13    27       P1  8028  1.00

> <Gold.PLP.Chemscore.Internal.Correction>
0.0335

> <Gold.Rescore>
     Score         DG    S(hbond)    S(metal)    S(lipo)     H(rot)  DE(clash)    DE(int)     intcor
     13.63     -16.45       1.00        0.00      91.94       1.22       0.07       2.75       ----

> <Gold.Chemscore.Fitness>
13.6308

> <Gold.Chemscore.DG>
-16.4529

> <Gold.Chemscore.ZeroCoef>
-5.4800

> <Gold.Chemscore.Hbond>
0.9974

> <Gold.Chemscore.Metal>
0.0000

> <Gold.Chemscore.Lipo>
91.9379

> <Gold.Chemscore.Internal_Hbond>
0.0000

> <Gold.Chemscore.DEClash>
0.0722

> <Gold.Chemscore.DEInternal>
2.7500

> <Gold.Chemscore.Rot>
1.2168

> <Gold.Chemscore.Internal.Correction>
   9.000000E+99

> <Gold.Chemscore.Hbonds>
donor molecule, donor type, donor heavy atom, donor atom, acceptor molecule, acceptor atom, score
      L1  H    13    27       P1  8028  1.00

> <Gold.Chemscore.Hbond.Weighted>
-3.3312

> <Gold.Chemscore.Metal.Weighted>
-0.0000

> <Gold.Chemscore.Lipo.Weighted>
-10.7567

> <Gold.Chemscore.Internal_Hbond.Weighted>
0.0000

> <Gold.Chemscore.DEClash.Weighted>
0.0722

> <Gold.Chemscore.DEInternal.Weighted>
2.7500

> <Gold.Chemscore.Rot.Weighted>
3.1150

> <Gold.Chemscore.Internal.Correction.Weighted>
   9.000000E+99

> <Gold.Protein.RotatedTorsions>
[ 6907 6896 6895 6894 ] final   74.87 input  -60.11 | X-H torsion
[ 7974 7965 7964 7962 ] final -151.63 input  175.53 | X-H torsion
[ 8008 7997 7996 7995 ] final  -32.35 input   59.86 | X-H torsion
[ 10167 10162 10161 10158 ] final -113.02 input  -65.29 | X-H torsion
[ 10718 10713 10712 10709 ] final  -51.83 input   66.30 | X-H torsion
[ 10763 10752 10751 10750 ] final  -64.65 input  -60.55 | X-H torsion
[ 11005 11000 10999 10996 ] final   15.29 input  -57.11 | X-H torsion

> <Gold.Protein.ActiveResidues>
 VAL166  LYS551  ARG553  GLY616  TRP617  ASP618  TYR619  PRO620  LYS621  CYS622 
 ASP623  PHE694  ASN695  SER759  ASP760  ASP761  ALA762  ILE779  LEU786  VAL792 
 PHE793  MET794  SER795  GLU796  ALA797  LYS798  CYS799  TRP800  GLU811  SER814 

> <Gold.Protein.RotatedAtoms>
  152.4998  134.4206  159.9479 H   0  0  0  0  0  0  0  0  0  0  0  0  # atno 6907 bound_to 6896
  151.4179  133.3701  159.2760 H   0  0  0  0  0  0  0  0  0  0  0  0  # atno 6908 bound_to 6896
  150.9244  134.8683  159.7570 H   0  0  0  0  0  0  0  0  0  0  0  0  # atno 6909 bound_to 6896
  144.7839  140.4771  143.5820 H   0  0  0  0  0  0  0  0  0  0  0  0  # atno 7974 bound_to 7965
  154.4183  140.1740  156.1713 H   0  0  0  0  0  0  0  0  0  0  0  0  # atno 8008 bound_to 7997
  155.9758  140.3382  155.6593 H   0  0  0  0  0  0  0  0  0  0  0  0  # atno 8009 bound_to 7997
  155.6565  140.0696  157.2559 H   0  0  0  0  0  0  0  0  0  0  0  0  # atno 8010 bound_to 7997
  140.1164  143.4482  152.1719 H   0  0  0  0  0  0  0  0  0  0  0  0  # atno 10167 bound_to 10162
  156.1675  130.4149  149.9697 H   0  0  0  0  0  0  0  0  0  0  0  0  # atno 10718 bound_to 10713
  154.3332  135.6172  153.5561 H   0  0  0  0  0  0  0  0  0  0  0  0  # atno 10763 bound_to 10752
  152.9810  135.5752  154.4937 H   0  0  0  0  0  0  0  0  0  0  0  0  # atno 10764 bound_to 10752
  154.4628  135.2856  155.1677 H   0  0  0  0  0  0  0  0  0  0  0  0  # atno 10765 bound_to 10752
  140.4600  134.1137  155.7715 H   0  0  0  0  0  0  0  0  0  0  0  0  # atno 11005 bound_to 11000
  145.5975  139.1501  143.3148 LP  0  0  0  0  0  0  0  0  0  0  0  0  # atno 17320 bound_to 7965
  146.2061  140.6098  142.9080 LP  0  0  0  0  0  0  0  0  0  0  0  0  # atno 17321 bound_to 7965
  139.5592  144.7394  151.4205 LP  0  0  0  0  0  0  0  0  0  0  0  0  # atno 17342 bound_to 10162
  140.6897  143.7891  150.7237 LP  0  0  0  0  0  0  0  0  0  0  0  0  # atno 17343 bound_to 10162
  156.7508  130.9114  151.3637 LP  0  0  0  0  0  0  0  0  0  0  0  0  # atno 17370 bound_to 10713
  157.6779  130.9111  150.0194 LP  0  0  0  0  0  0  0  0  0  0  0  0  # atno 17371 bound_to 10713
  141.1625  133.8765  157.1807 LP  0  0  0  0  0  0  0  0  0  0  0  0  # atno 17394 bound_to 11000
  139.9951  135.0050  157.0065 LP  0  0  0  0  0  0  0  0  0  0  0  0  # atno 17395 bound_to 11000

$$$$
