AV-unprocessed.smi:1480|AV-procd|sdf|5986|dock3
  -GOLD-   22720 6 83D 1   1.00000     0.00000
 Structure written by MMmdl.
 37 38  0  0  0  0  0  0  0  0  1 V2000
  152.0965  145.4207  160.2816 C   0  0  0  0  0  0  0  0  0  0  0  0
  152.0498  144.0460  159.7804 N   0  0  0  0  0  0  0  0  0  0  0  0
  151.5502  143.9015  158.4056 C   0  0  0  0  0  0  0  0  0  0  0  0
  151.1242  142.4703  158.0540 C   0  0  0  0  0  0  0  0  0  0  0  0
  152.2103  141.4764  158.4848 C   0  0  2  0  0  0  0  0  0  0  0  0
  151.8274  140.0433  158.0869 C   0  0  0  0  0  0  0  0  0  0  0  0
  152.4113  139.4939  157.1528 O   0  0  0  0  0  0  0  0  0  0  0  0
  150.8509  139.4747  158.8180 N   0  0  0  0  0  0  0  0  0  0  0  0
  150.2789  138.1833  158.6817 C   0  0  0  0  0  0  0  0  0  0  0  0
  150.6080  137.2166  157.6841 C   0  0  0  0  0  0  0  0  0  0  0  0
  149.7869  136.1670  157.9824 C   0  0  0  0  0  0  0  0  0  0  0  0
  149.0395  136.5240  159.0869 N   0  0  0  0  0  0  0  0  0  0  0  0
  148.0276  135.7457  159.7791 C   0  0  0  0  0  0  0  0  0  0  0  0
  148.2354  135.7919  161.2936 C   0  0  0  0  0  0  0  0  0  0  0  0
  148.3868  134.6244  161.9242 N   0  0  0  0  0  0  0  0  0  0  0  0
  148.2596  136.8682  161.8864 O   0  0  0  0  0  0  0  0  0  0  0  0
  149.3428  137.7685  159.5184 N   0  0  0  0  0  0  0  0  0  0  0  0
  152.4377  141.5845  160.0064 C   0  0  0  0  0  0  0  0  0  0  0  0
  152.5277  143.0263  160.5343 C   0  0  0  0  0  0  0  0  0  0  0  0
  153.0103  143.2027  161.6533 O   0  0  0  0  0  0  0  0  0  0  0  0
  153.1238  145.7147  160.5018 H   0  0  0  0  0  0  0  0  0  0  0  0
  151.5107  145.5157  161.1969 H   0  0  0  0  0  0  0  0  0  0  0  0
  151.7011  146.1377  159.5614 H   0  0  0  0  0  0  0  0  0  0  0  0
  150.7058  144.5719  158.2391 H   0  0  0  0  0  0  0  0  0  0  0  0
  152.3414  144.2230  157.7269 H   0  0  0  0  0  0  0  0  0  0  0  0
  150.1821  142.2409  158.5553 H   0  0  0  0  0  0  0  0  0  0  0  0
  150.9333  142.3961  156.9824 H   0  0  0  0  0  0  0  0  0  0  0  0
  153.1396  141.7426  157.9770 H   0  0  0  0  0  0  0  0  0  0  0  0
  150.4660  140.0392  159.5613 H   0  0  0  0  0  0  0  0  0  0  0  0
  151.3221  137.2664  156.8764 H   0  0  0  0  0  0  0  0  0  0  0  0
  149.6732  135.2039  157.5067 H   0  0  0  0  0  0  0  0  0  0  0  0
  147.0349  136.1191  159.5218 H   0  0  0  0  0  0  0  0  0  0  0  0
  148.0820  134.7140  159.4292 H   0  0  0  0  0  0  0  0  0  0  0  0
  148.5328  134.6062  162.9233 H   0  0  0  0  0  0  0  0  0  0  0  0
  148.3607  133.7632  161.3974 H   0  0  0  0  0  0  0  0  0  0  0  0
  151.6255  141.0992  160.5499 H   0  0  0  0  0  0  0  0  0  0  0  0
  153.3503  141.0531  160.2800 H   0  0  0  0  0  0  0  0  0  0  0  0
  1  2  1  0  0  0  0
  1 21  1  0  0  0  0
  1 22  1  0  0  0  0
  1 23  1  0  0  0  0
  2 19  1  0  0  0  0
  2  3  1  0  0  0  0
  3  4  1  0  0  0  0
  3 24  1  0  0  0  0
  3 25  1  0  0  0  0
  4  5  1  0  0  0  0
  4 26  1  0  0  0  0
  4 27  1  0  0  0  0
  5  6  1  0  0  0  0
  5 18  1  0  0  0  0
  5 28  1  0  0  0  0
  6  7  2  0  0  0  0
  6  8  1  0  0  0  0
  8  9  1  0  0  0  0
  8 29  1  0  0  0  0
  9 17  2  0  0  0  0
  9 10  1  0  0  0  0
 10 11  2  0  0  0  0
 10 30  1  0  0  0  0
 11 12  1  0  0  0  0
 11 31  1  0  0  0  0
 12 13  1  0  0  0  0
 12 17  1  0  0  0  0
 13 14  1  0  0  0  0
 13 32  1  0  0  0  0
 13 33  1  0  0  0  0
 14 15  1  0  0  0  0
 14 16  2  0  0  0  0
 15 34  1  0  0  0  0
 15 35  1  0  0  0  0
 18 19  1  0  0  0  0
 18 36  1  0  0  0  0
 18 37  1  0  0  0  0
 19 20  2  0  0  0  0
M  END
> <s_m_source_file>
AV-unprocessed.smi

> <i_m_source_file_index>
1480

> <i_lp_mmshare_version>
43012

> <i_f3d_flags>
0

> <s_epik_input>
W0NIM11OMVtDSDJdW0NIMl1bQ0BIXShbQ0gyXUMxPU8pQyg9TylbTkhdYzJbY0hdW2NIXW4objIpW0NIMl1DKD1PKVtOSDJd

> <s_epik_cmdline>
J2VwaWtfcHl0aG9uJywgJy1waCcsICc3LjAnLCAnLXRuJywgJzgnLCAnLW1hJywgJzIwMCcsICctbWV0YWxfYmluZGluZycsICctaW1hZScsICc8aW5maWxlLm1hZT4nLCAnLW9tYWUnLCAnPG91dGZpbGUubWFlPic=

> <r_lp_tautomer_probability>
1

> <r_epik_Ionization_Penalty>
3.93272e-06

> <r_epik_Ionization_Penalty_Charging>
0

> <r_epik_Ionization_Penalty_Neutral>
3.93272e-06

> <r_epik_State_Penalty>
-0

> <r_epik_Charging_Adjusted_Penalty>
0

> <i_epik_Tot_Q>
0

> <i_epik_Tot_abs_Q>
0

> <r_epik_Metal_State_Penalty>
-0

> <b_epik_Metal_Only>
0

> <s_lp_Force_Field>
OPLS_2005

> <r_lp_Energy>
16.8293

> <b_lp_Chiralities_Consistent>
1

> <s_lp_Variant>
AV-unprocessed.smi:1480-2

> <Gold.Version>
5.8.1

> <Gold.Id.Protein>
6NUR|6NUR_protein|mol2

> <Gold.PLP.Fitness>
45.1312

> <Gold.PLP.PLP>
-37.4519

> <Gold.PLP.part.hbond>
-4.3761

> <Gold.PLP.part.metal>
0.0000

> <Gold.PLP.part.buried>
-6.2312

> <Gold.PLP.part.nonpolar>
-28.8160

> <Gold.PLP.part.repulsive>
0.3939

> <Gold.PLP.ligand.clash>
0.0000

> <Gold.PLP.ligand.torsion>
0.4272

> <Gold.PLP.Chemscore.Hbond>
2.8400

> <Gold.PLP.Chemscore.CHOScore>
0.0000

> <Gold.PLP.Chemscore.Metal>
0.0000

> <Gold.Chemscore.Hbonds>
donor molecule, donor type, donor heavy atom, donor atom, acceptor molecule, acceptor atom, score
      P1  H  6931  6943       L1    16  1.00
      P1  H  7997  8008       L1     7  0.70

> <Gold.PLP.Chemscore.Internal.Correction>
0.0137

> <Gold.Rescore>
     Score         DG    S(hbond)    S(metal)    S(lipo)     H(rot)  DE(clash)    DE(int)     intcor
     13.85     -16.60       2.78        0.00      60.07       2.03       0.01       2.75       ----

> <Gold.Chemscore.Fitness>
13.8476

> <Gold.Chemscore.DG>
-16.6030

> <Gold.Chemscore.ZeroCoef>
-5.4800

> <Gold.Chemscore.Hbond>
2.7794

> <Gold.Chemscore.Metal>
0.0000

> <Gold.Chemscore.Lipo>
60.0738

> <Gold.Chemscore.Internal_Hbond>
0.0000

> <Gold.Chemscore.DEClash>
0.0069

> <Gold.Chemscore.DEInternal>
2.7485

> <Gold.Chemscore.Rot>
2.0269

> <Gold.Chemscore.Internal.Correction>
   9.000000E+99

> <Gold.Chemscore.Hbonds>
donor molecule, donor type, donor heavy atom, donor atom, acceptor molecule, acceptor atom, score
      P1  H  6931  6943       L1    16  0.97
      P1  H  7997  8008       L1     7  0.67

> <Gold.Chemscore.Hbond.Weighted>
-9.2831

> <Gold.Chemscore.Metal.Weighted>
-0.0000

> <Gold.Chemscore.Lipo.Weighted>
-7.0286

> <Gold.Chemscore.Internal_Hbond.Weighted>
0.0000

> <Gold.Chemscore.DEClash.Weighted>
0.0069

> <Gold.Chemscore.DEInternal.Weighted>
2.7485

> <Gold.Chemscore.Rot.Weighted>
5.1888

> <Gold.Chemscore.Internal.Correction.Weighted>
   9.000000E+99

> <Gold.Protein.RotatedTorsions>
[ 6907 6896 6895 6894 ] final  -77.10 input  -60.11 | X-H torsion
[ 7974 7965 7964 7962 ] final   36.82 input  175.53 | X-H torsion
[ 8008 7997 7996 7995 ] final  -73.62 input   59.86 | X-H torsion
[ 10167 10162 10161 10158 ] final  147.74 input  -65.29 | X-H torsion
[ 10718 10713 10712 10709 ] final  103.62 input   66.30 | X-H torsion
[ 10763 10752 10751 10750 ] final -138.69 input  -60.55 | X-H torsion
[ 11005 11000 10999 10996 ] final -133.36 input  -57.11 | X-H torsion

> <Gold.Protein.ActiveResidues>
 VAL166  LYS551  ARG553  GLY616  TRP617  ASP618  TYR619  PRO620  LYS621  CYS622 
 ASP623  PHE694  ASN695  SER759  ASP760  ASP761  ALA762  ILE779  LEU786  VAL792 
 PHE793  MET794  SER795  GLU796  ALA797  LYS798  CYS799  TRP800  GLU811  SER814 

> <Gold.Protein.RotatedAtoms>
  150.7008  134.4473  159.5319 H   0  0  0  0  0  0  0  0  0  0  0  0  # atno 6907 bound_to 6896
  152.2172  134.8444  160.0499 H   0  0  0  0  0  0  0  0  0  0  0  0  # atno 6908 bound_to 6896
  151.9307  133.3575  159.3967 H   0  0  0  0  0  0  0  0  0  0  0  0  # atno 6909 bound_to 6896
  146.1183  139.5970  142.9307 H   0  0  0  0  0  0  0  0  0  0  0  0  # atno 7974 bound_to 7965
  154.5263  140.0776  156.8264 H   0  0  0  0  0  0  0  0  0  0  0  0  # atno 8008 bound_to 7997
  155.3469  140.3410  155.4221 H   0  0  0  0  0  0  0  0  0  0  0  0  # atno 8009 bound_to 7997
  156.1735  140.1627  156.8392 H   0  0  0  0  0  0  0  0  0  0  0  0  # atno 8010 bound_to 7997
  139.4885  144.5733  151.7014 H   0  0  0  0  0  0  0  0  0  0  0  0  # atno 10167 bound_to 10162
  157.6767  131.0783  150.5582 H   0  0  0  0  0  0  0  0  0  0  0  0  # atno 10718 bound_to 10713
  154.8630  135.3604  154.5426 H   0  0  0  0  0  0  0  0  0  0  0  0  # atno 10763 bound_to 10752
  153.6047  135.7011  153.5375 H   0  0  0  0  0  0  0  0  0  0  0  0  # atno 10764 bound_to 10752
  153.3261  135.4137  155.1418 H   0  0  0  0  0  0  0  0  0  0  0  0  # atno 10765 bound_to 10752
  140.9088  134.1595  157.4405 H   0  0  0  0  0  0  0  0  0  0  0  0  # atno 11005 bound_to 11000
  145.5520  141.0412  143.2273 LP  0  0  0  0  0  0  0  0  0  0  0  0  # atno 17320 bound_to 7965
  144.7573  139.7042  143.7249 LP  0  0  0  0  0  0  0  0  0  0  0  0  # atno 17321 bound_to 7965
  140.5324  144.0709  150.6058 LP  0  0  0  0  0  0  0  0  0  0  0  0  # atno 17342 bound_to 10162
  140.3704  143.2858  152.0285 LP  0  0  0  0  0  0  0  0  0  0  0  0  # atno 17343 bound_to 10162
  156.5886  130.4323  149.5946 LP  0  0  0  0  0  0  0  0  0  0  0  0  # atno 17370 bound_to 10713
  156.2602  130.6958  151.1724 LP  0  0  0  0  0  0  0  0  0  0  0  0  # atno 17371 bound_to 10713
  139.8754  134.9927  156.5610 LP  0  0  0  0  0  0  0  0  0  0  0  0  # atno 17394 bound_to 11000
  140.8137  133.8408  155.8833 LP  0  0  0  0  0  0  0  0  0  0  0  0  # atno 17395 bound_to 11000

$$$$
