AV-unprocessed.smi:234|AV-procd|sdf|1785|dock4
  -GOLD-   2262020333D 1   1.00000     0.00000
 Structure written by MMmdl.
 59 62  0  0  0  0  0  0  0  0  1 V2000
  152.1901  144.6645  158.7158 C   0  0  0  0  0  0  0  0  0  0  0  0
  151.1108  143.9911  157.8657 C   0  0  0  0  0  0  0  0  0  0  0  0
  151.3206  142.5889  157.8837 O   0  0  0  0  0  0  0  0  0  0  0  0
  150.5078  141.8959  156.9485 C   0  0  2  0  0  0  0  0  0  0  0  0
  149.0415  141.7406  157.3735 C   0  0  0  0  0  0  0  0  0  0  0  0
  149.1241  140.2865  156.8900 C   0  0  1  0  0  0  0  0  0  0  0  0
  148.5722  140.0577  155.5390 N   0  0  0  0  0  0  0  0  0  0  0  0
  149.1481  140.6212  154.3135 C   0  0  0  0  0  0  0  0  0  0  0  0
  147.8482  138.9161  155.3920 C   0  0  0  0  0  0  0  0  0  0  0  0
  147.7534  138.0509  156.4379 N   0  0  0  0  0  0  0  0  0  0  0  0
  147.0296  136.9334  156.3312 C   0  0  0  0  0  0  0  0  0  0  0  0
  146.3310  136.4893  155.2858 N   0  0  0  0  0  0  0  0  0  0  0  0
  146.4307  137.3426  154.2270 C   0  0  0  0  0  0  0  0  0  0  0  0
  147.1654  138.5624  154.1915 C   0  0  0  0  0  0  0  0  0  0  0  0
  147.0516  139.1397  152.9314 N   0  0  0  0  0  0  0  0  0  0  0  0
  146.2796  138.3223  152.2702 C   0  0  0  0  0  0  0  0  0  0  0  0
  145.8504  137.2220  152.9761 N   0  0  0  0  0  0  0  0  0  0  0  0
  144.9792  136.1613  152.4934 C   0  0  0  0  0  0  0  0  0  0  0  0
  145.7158  135.1130  151.6180 C   0  0  1  0  0  0  0  0  0  0  0  0
  146.3919  135.8028  150.5801 O   0  0  0  0  0  0  0  0  0  0  0  0
  146.7536  134.2998  152.3889 C   0  0  0  0  0  0  0  0  0  0  0  0
  146.7666  132.9687  151.6540 C   0  0  0  0  0  0  0  0  0  0  0  0
  145.3946  132.7729  151.3627 O   0  0  0  0  0  0  0  0  0  0  0  0
  144.8309  134.0176  150.9582 C   0  0  1  0  0  0  0  0  0  0  0  0
  143.3415  134.0063  151.3357 C   0  0  0  0  0  0  0  0  0  0  0  0
  150.6744  140.3580  157.0166 C   0  0  0  0  0  0  0  0  0  0  0  0
  151.5450  139.7050  155.9361 C   0  0  0  0  0  0  0  0  0  0  0  0
  151.1934  139.8088  158.3532 C   0  0  0  0  0  0  0  0  0  0  0  0
  152.0596  145.7467  158.7254 H   0  0  0  0  0  0  0  0  0  0  0  0
  153.1853  144.4508  158.3251 H   0  0  0  0  0  0  0  0  0  0  0  0
  152.1520  144.3132  159.7471 H   0  0  0  0  0  0  0  0  0  0  0  0
  150.1234  144.2330  158.2615 H   0  0  0  0  0  0  0  0  0  0  0  0
  151.1570  144.3648  156.8418 H   0  0  0  0  0  0  0  0  0  0  0  0
  150.6194  142.2771  155.9321 H   0  0  0  0  0  0  0  0  0  0  0  0
  148.9108  141.8076  158.4546 H   0  0  0  0  0  0  0  0  0  0  0  0
  148.3309  142.3876  156.8612 H   0  0  0  0  0  0  0  0  0  0  0  0
  148.7007  139.6261  157.6443 H   0  0  0  0  0  0  0  0  0  0  0  0
  148.4101  140.6062  153.5104 H   0  0  0  0  0  0  0  0  0  0  0  0
  150.0161  140.0583  153.9754 H   0  0  0  0  0  0  0  0  0  0  0  0
  149.4487  141.6594  154.4379 H   0  0  0  0  0  0  0  0  0  0  0  0
  147.0043  136.3066  157.2103 H   0  0  0  0  0  0  0  0  0  0  0  0
  145.9964  138.5046  151.2438 H   0  0  0  0  0  0  0  0  0  0  0  0
  144.5299  135.6839  153.3648 H   0  0  0  0  0  0  0  0  0  0  0  0
  144.1614  136.6189  151.9353 H   0  0  0  0  0  0  0  0  0  0  0  0
  147.2922  135.9260  150.8392 H   0  0  0  0  0  0  0  0  0  0  0  0
  147.7359  134.7717  152.4422 H   0  0  0  0  0  0  0  0  0  0  0  0
  146.4124  134.1285  153.4106 H   0  0  0  0  0  0  0  0  0  0  0  0
  147.3385  133.0335  150.7270 H   0  0  0  0  0  0  0  0  0  0  0  0
  147.1715  132.1560  152.2573 H   0  0  0  0  0  0  0  0  0  0  0  0
  144.9081  134.0718  149.8705 H   0  0  0  0  0  0  0  0  0  0  0  0
  142.8480  134.9316  151.0384 H   0  0  0  0  0  0  0  0  0  0  0  0
  143.2001  133.8713  152.4081 H   0  0  0  0  0  0  0  0  0  0  0  0
  142.8260  133.1873  150.8339 H   0  0  0  0  0  0  0  0  0  0  0  0
  151.3574  138.6332  155.8665 H   0  0  0  0  0  0  0  0  0  0  0  0
  152.6071  139.8367  156.1448 H   0  0  0  0  0  0  0  0  0  0  0  0
  151.3741  140.1304  154.9501 H   0  0  0  0  0  0  0  0  0  0  0  0
  151.1106  138.7222  158.3962 H   0  0  0  0  0  0  0  0  0  0  0  0
  150.6337  140.2047  159.2011 H   0  0  0  0  0  0  0  0  0  0  0  0
  152.2411  140.0653  158.5151 H   0  0  0  0  0  0  0  0  0  0  0  0
  1  2  1  0  0  0  0
  1 29  1  0  0  0  0
  1 30  1  0  0  0  0
  1 31  1  0  0  0  0
  2  3  1  0  0  0  0
  2 32  1  0  0  0  0
  2 33  1  0  0  0  0
  3  4  1  0  0  0  0
  4 26  1  0  0  0  0
  4  5  1  0  0  0  0
  4 34  1  0  0  0  0
  5  6  1  0  0  0  0
  5 35  1  0  0  0  0
  5 36  1  0  0  0  0
  6  7  1  0  0  0  0
  6 26  1  0  0  0  0
  6 37  1  0  0  0  0
  7  8  1  0  0  0  0
  7  9  1  0  0  0  0
  8 38  1  0  0  0  0
  8 39  1  0  0  0  0
  8 40  1  0  0  0  0
  9 14  1  0  0  0  0
  9 10  2  0  0  0  0
 10 11  1  0  0  0  0
 11 12  2  0  0  0  0
 11 41  1  0  0  0  0
 12 13  1  0  0  0  0
 13 17  1  0  0  0  0
 13 14  2  0  0  0  0
 14 15  1  0  0  0  0
 15 16  2  0  0  0  0
 16 17  1  0  0  0  0
 16 42  1  0  0  0  0
 17 18  1  0  0  0  0
 18 19  1  0  0  0  0
 18 43  1  0  0  0  0
 18 44  1  0  0  0  0
 19 24  1  0  0  0  0
 19 20  1  0  0  0  0
 19 21  1  0  0  0  0
 20 45  1  0  0  0  0
 21 22  1  0  0  0  0
 21 46  1  0  0  0  0
 21 47  1  0  0  0  0
 22 23  1  0  0  0  0
 22 48  1  0  0  0  0
 22 49  1  0  0  0  0
 23 24  1  0  0  0  0
 24 25  1  0  0  0  0
 24 50  1  0  0  0  0
 25 51  1  0  0  0  0
 25 52  1  0  0  0  0
 25 53  1  0  0  0  0
 26 27  1  0  0  0  0
 26 28  1  0  0  0  0
 27 54  1  0  0  0  0
 27 55  1  0  0  0  0
 27 56  1  0  0  0  0
 28 57  1  0  0  0  0
 28 58  1  0  0  0  0
 28 59  1  0  0  0  0
M  END
> <s_m_source_file>
AV-unprocessed.smi

> <i_m_source_file_index>
234

> <i_lp_mmshare_version>
43012

> <i_f3d_flags>
0

> <s_epik_input>
W0NIM11bQ0gyXU9bQ0BASF0oQzEoW0NIM10pW0NIM10pW0NIMl1bQ0BIXTFOKFtDSDNdKWMobltjSF1uMiljKGMyMyluW2NIXW4zW0NIMl1bQ0BAXTQoW09IXSlbQ0gyXVtDSDJdT1tDQEhdNFtDSDNd

> <s_epik_cmdline>
J2VwaWtfcHl0aG9uJywgJy1waCcsICc3LjAnLCAnLXRuJywgJzgnLCAnLW1hJywgJzIwMCcsICctbWV0YWxfYmluZGluZycsICctaW1hZScsICc8aW5maWxlLm1hZT4nLCAnLW9tYWUnLCAnPG91dGZpbGUubWFlPic=

> <r_lp_tautomer_probability>
1

> <r_epik_Ionization_Penalty>
0.00349132

> <r_epik_Ionization_Penalty_Charging>
0

> <r_epik_Ionization_Penalty_Neutral>
0.00349132

> <r_epik_State_Penalty>
0.00242418

> <r_epik_Charging_Adjusted_Penalty>
0.00242418

> <i_epik_Tot_Q>
0

> <i_epik_Tot_abs_Q>
0

> <r_epik_Metal_State_Penalty>
-0

> <b_epik_Metal_Only>
0

> <s_lp_Force_Field>
OPLS_2005

> <r_lp_Energy>
52.3915

> <b_lp_Chiralities_Consistent>
1

> <s_lp_Variant>
AV-unprocessed.smi:234-1

> <Gold.Version>
5.8.1

> <Gold.Id.Protein>
6NUR|6NUR_protein|mol2

> <Gold.PLP.Fitness>
41.6753

> <Gold.PLP.PLP>
-36.3969

> <Gold.PLP.part.hbond>
-1.3901

> <Gold.PLP.part.metal>
0.0000

> <Gold.PLP.part.buried>
0.4108

> <Gold.PLP.part.nonpolar>
-35.7686

> <Gold.PLP.part.repulsive>
0.4436

> <Gold.PLP.ligand.clash>
0.0000

> <Gold.PLP.ligand.torsion>
0.8673

> <Gold.PLP.Chemscore.Hbond>
1.0000

> <Gold.PLP.Chemscore.CHOScore>
0.9982

> <Gold.PLP.Chemscore.Metal>
0.0000

> <Gold.Chemscore.Hbonds>
donor molecule, donor type, donor heavy atom, donor atom, acceptor molecule, acceptor atom, score
      L1  H    20    45       P1  7948  1.00
      L1  C    16    42       P1 10171  0.95

> <Gold.PLP.Chemscore.Internal.Correction>
1.0186

> <Gold.Rescore>
     Score         DG    S(hbond)    S(metal)    S(lipo)     H(rot)  DE(clash)    DE(int)     intcor
     10.34     -13.95       0.94        0.00      97.31       2.37       0.52       3.10       ----

> <Gold.Chemscore.Fitness>
10.3393

> <Gold.Chemscore.DG>
-13.9531

> <Gold.Chemscore.ZeroCoef>
-5.4800

> <Gold.Chemscore.Hbond>
0.9429

> <Gold.Chemscore.Metal>
0.0000

> <Gold.Chemscore.Lipo>
97.3074

> <Gold.Chemscore.Internal_Hbond>
0.0000

> <Gold.Chemscore.DEClash>
0.5153

> <Gold.Chemscore.DEInternal>
3.0986

> <Gold.Chemscore.Rot>
2.3676

> <Gold.Chemscore.Internal.Correction>
   9.000000E+99

> <Gold.Chemscore.Hbonds>
donor molecule, donor type, donor heavy atom, donor atom, acceptor molecule, acceptor atom, score
      L1  H    20    45       P1  7948  0.78

> <Gold.Chemscore.Hbond.Weighted>
-3.1492

> <Gold.Chemscore.Metal.Weighted>
-0.0000

> <Gold.Chemscore.Lipo.Weighted>
-11.3850

> <Gold.Chemscore.Internal_Hbond.Weighted>
0.0000

> <Gold.Chemscore.DEClash.Weighted>
0.5153

> <Gold.Chemscore.DEInternal.Weighted>
3.0986

> <Gold.Chemscore.Rot.Weighted>
6.0610

> <Gold.Chemscore.Internal.Correction.Weighted>
   9.000000E+99

> <Gold.Protein.RotatedTorsions>
[ 6907 6896 6895 6894 ] final -179.54 input  -60.11 | X-H torsion
[ 7974 7965 7964 7962 ] final  -17.20 input  175.53 | X-H torsion
[ 8008 7997 7996 7995 ] final -149.96 input   59.86 | X-H torsion
[ 10167 10162 10161 10158 ] final    8.84 input  -65.29 | X-H torsion
[ 10718 10713 10712 10709 ] final   81.43 input   66.30 | X-H torsion
[ 10763 10752 10751 10750 ] final  -11.95 input  -60.55 | X-H torsion
[ 11005 11000 10999 10996 ] final -175.81 input  -57.11 | X-H torsion

> <Gold.Protein.ActiveResidues>
 VAL166  LYS551  ARG553  GLY616  TRP617  ASP618  TYR619  PRO620  LYS621  CYS622 
 ASP623  PHE694  ASN695  SER759  ASP760  ASP761  ALA762  ILE779  LEU786  VAL792 
 PHE793  MET794  SER795  GLU796  ALA797  LYS798  CYS799  TRP800  GLU811  SER814 

> <Gold.Protein.RotatedAtoms>
  151.6551  133.3319  159.3160 H   0  0  0  0  0  0  0  0  0  0  0  0  # atno 6907 bound_to 6896
  150.7941  134.6991  159.6549 H   0  0  0  0  0  0  0  0  0  0  0  0  # atno 6908 bound_to 6896
  152.4025  134.6266  160.0116 H   0  0  0  0  0  0  0  0  0  0  0  0  # atno 6909 bound_to 6896
  146.1952  140.3745  142.8443 H   0  0  0  0  0  0  0  0  0  0  0  0  # atno 7974 bound_to 7965
  155.6160  140.0676  157.2692 H   0  0  0  0  0  0  0  0  0  0  0  0  # atno 8008 bound_to 7997
  154.4241  140.1793  156.1370 H   0  0  0  0  0  0  0  0  0  0  0  0  # atno 8009 bound_to 7997
  156.0047  140.3332  155.6884 H   0  0  0  0  0  0  0  0  0  0  0  0  # atno 8010 bound_to 7997
  140.6290  143.8036  150.7271 H   0  0  0  0  0  0  0  0  0  0  0  0  # atno 10167 bound_to 10162
  157.6832  131.0003  150.2225 H   0  0  0  0  0  0  0  0  0  0  0  0  # atno 10718 bound_to 10713
  153.4912  135.7017  153.5883 H   0  0  0  0  0  0  0  0  0  0  0  0  # atno 10763 bound_to 10752
  153.4054  135.3861  155.2015 H   0  0  0  0  0  0  0  0  0  0  0  0  # atno 10764 bound_to 10752
  154.8716  135.3891  154.4373 H   0  0  0  0  0  0  0  0  0  0  0  0  # atno 10765 bound_to 10752
  140.4592  134.6271  157.4835 H   0  0  0  0  0  0  0  0  0  0  0  0  # atno 11005 bound_to 11000
  144.8566  140.7079  143.6134 LP  0  0  0  0  0  0  0  0  0  0  0  0  # atno 17320 bound_to 7965
  145.3666  139.1668  143.4354 LP  0  0  0  0  0  0  0  0  0  0  0  0  # atno 17321 bound_to 7965
  140.1643  143.4248  152.2045 LP  0  0  0  0  0  0  0  0  0  0  0  0  # atno 17342 bound_to 10162
  139.5506  144.7335  151.4445 LP  0  0  0  0  0  0  0  0  0  0  0  0  # atno 17343 bound_to 10162
  156.2874  130.3741  149.7875 LP  0  0  0  0  0  0  0  0  0  0  0  0  # atno 17370 bound_to 10713
  156.5545  130.8356  151.3310 LP  0  0  0  0  0  0  0  0  0  0  0  0  # atno 17371 bound_to 10713
  139.9956  134.6916  155.9615 LP  0  0  0  0  0  0  0  0  0  0  0  0  # atno 17394 bound_to 11000
  141.1629  133.6538  156.4380 LP  0  0  0  0  0  0  0  0  0  0  0  0  # atno 17395 bound_to 11000

$$$$
