AV-unprocessed.smi:2473|AV-procd|sdf|9746|dock4
  -GOLD-   2272013383D 1   1.00000     0.00000
 Structure written by MMmdl.
 48 49  0  0  0  0  0  0  0  0  2 V2000
  146.5459  138.7965  152.1013 C   0  0  0  0  0  0  0  0  0  0  0  0
  147.0829  139.5805  153.3074 C   0  0  1  0  0  0  0  0  0  0  0  0
  147.8326  140.8498  152.8552 C   0  0  0  0  0  0  0  0  0  0  0  0
  148.3657  141.7023  154.0296 C   0  0  2  0  0  0  0  0  0  0  0  0
  149.6764  141.1779  154.6464 C   0  0  0  0  0  0  0  0  0  0  0  0
  150.1800  140.1179  154.2738 O   0  0  0  0  0  0  0  0  0  0  0  0
  150.2446  141.9598  155.5763 N   0  0  0  0  0  0  0  0  0  0  0  0
  151.4858  141.6438  156.2685 C   0  0  0  0  0  0  0  0  0  0  0  0
  151.2873  141.7057  157.7881 C   0  0  0  0  0  0  0  0  0  0  0  0
  151.5817  143.0601  158.3538 C   0  0  0  0  0  0  0  0  0  0  0  0
  150.9779  144.1991  157.9946 N   0  3  0  0  0  0  0  0  0  0  0  0
  151.4735  145.2503  158.7170 C   0  0  0  0  0  0  0  0  0  0  0  0
  152.4185  144.7284  159.5612 C   0  0  0  0  0  0  0  0  0  0  0  0
  152.4610  143.3793  159.3182 N   0  0  0  0  0  0  0  0  0  0  0  0
  153.3221  142.3997  159.9844 C   0  0  0  0  0  0  0  0  0  0  0  0
  147.2527  141.9710  155.0746 C   0  0  0  0  0  0  0  0  0  0  0  0
  146.4218  140.7384  155.5260 C   0  0  0  0  0  0  0  0  0  0  0  0
  147.2069  139.8290  156.4970 C   0  0  0  0  0  0  0  0  0  0  0  0
  145.1797  141.2456  156.2868 C   0  0  0  0  0  0  0  0  0  0  0  0
  145.9471  139.9466  154.2832 C   0  0  0  0  0  0  0  0  0  0  0  0
  145.8371  139.3907  151.5237 H   0  0  0  0  0  0  0  0  0  0  0  0
  146.0357  137.8870  152.4199 H   0  0  0  0  0  0  0  0  0  0  0  0
  147.3559  138.5019  151.4336 H   0  0  0  0  0  0  0  0  0  0  0  0
  147.7812  138.9207  153.8199 H   0  0  0  0  0  0  0  0  0  0  0  0
  148.6504  140.5783  152.1857 H   0  0  0  0  0  0  0  0  0  0  0  0
  147.1584  141.4652  152.2578 H   0  0  0  0  0  0  0  0  0  0  0  0
  148.6364  142.6697  153.6032 H   0  0  0  0  0  0  0  0  0  0  0  0
  149.7818  142.8230  155.8226 H   0  0  0  0  0  0  0  0  0  0  0  0
  151.8174  140.6473  155.9722 H   0  0  0  0  0  0  0  0  0  0  0  0
  152.2623  142.3463  155.9627 H   0  0  0  0  0  0  0  0  0  0  0  0
  150.2643  141.4479  158.0641 H   0  0  0  0  0  0  0  0  0  0  0  0
  151.9464  140.9994  158.2949 H   0  0  0  0  0  0  0  0  0  0  0  0
  151.1244  146.2638  158.5812 H   0  0  0  0  0  0  0  0  0  0  0  0
  153.0469  145.2058  160.2992 H   0  0  0  0  0  0  0  0  0  0  0  0
  153.8822  142.8880  160.7824 H   0  0  0  0  0  0  0  0  0  0  0  0
  154.0198  141.9811  159.2590 H   0  0  0  0  0  0  0  0  0  0  0  0
  152.7094  141.6050  160.4108 H   0  0  0  0  0  0  0  0  0  0  0  0
  147.6665  142.4755  155.9490 H   0  0  0  0  0  0  0  0  0  0  0  0
  146.5724  142.6986  154.6293 H   0  0  0  0  0  0  0  0  0  0  0  0
  146.5752  139.0267  156.8798 H   0  0  0  0  0  0  0  0  0  0  0  0
  147.5738  140.3914  157.3561 H   0  0  0  0  0  0  0  0  0  0  0  0
  148.0654  139.3505  156.0326 H   0  0  0  0  0  0  0  0  0  0  0  0
  144.5496  140.4189  156.6168 H   0  0  0  0  0  0  0  0  0  0  0  0
  144.5627  141.8938  155.6636 H   0  0  0  0  0  0  0  0  0  0  0  0
  145.4614  141.8170  157.1721 H   0  0  0  0  0  0  0  0  0  0  0  0
  145.2069  140.5384  153.7421 H   0  0  0  0  0  0  0  0  0  0  0  0
  145.4284  139.0409  154.6005 H   0  0  0  0  0  0  0  0  0  0  0  0
  150.2563  144.2696  157.2882 H   0  0  0  0  0  0  0  0  0  0  0  0
  1  2  1  0  0  0  0
  1 21  1  0  0  0  0
  1 22  1  0  0  0  0
  1 23  1  0  0  0  0
  2 20  1  0  0  0  0
  2  3  1  0  0  0  0
  2 24  1  0  0  0  0
  3  4  1  0  0  0  0
  3 25  1  0  0  0  0
  3 26  1  0  0  0  0
  4  5  1  0  0  0  0
  4 16  1  0  0  0  0
  4 27  1  0  0  0  0
  5  6  2  0  0  0  0
  5  7  1  0  0  0  0
  7  8  1  0  0  0  0
  7 28  1  0  0  0  0
  8  9  1  0  0  0  0
  8 29  1  0  0  0  0
  8 30  1  0  0  0  0
  9 10  1  0  0  0  0
  9 31  1  0  0  0  0
  9 32  1  0  0  0  0
 10 14  1  0  0  0  0
 10 11  2  0  0  0  0
 11 12  1  0  0  0  0
 11 48  1  0  0  0  0
 12 13  2  0  0  0  0
 12 33  1  0  0  0  0
 13 14  1  0  0  0  0
 13 34  1  0  0  0  0
 14 15  1  0  0  0  0
 15 35  1  0  0  0  0
 15 36  1  0  0  0  0
 15 37  1  0  0  0  0
 16 17  1  0  0  0  0
 16 38  1  0  0  0  0
 16 39  1  0  0  0  0
 17 18  1  0  0  0  0
 17 19  1  0  0  0  0
 17 20  1  0  0  0  0
 18 40  1  0  0  0  0
 18 41  1  0  0  0  0
 18 42  1  0  0  0  0
 19 43  1  0  0  0  0
 19 44  1  0  0  0  0
 19 45  1  0  0  0  0
 20 46  1  0  0  0  0
 20 47  1  0  0  0  0
M  CHG  1  11   1
M  END
> <s_m_source_file>
AV-unprocessed.smi

> <i_m_source_file_index>
2473

> <i_lp_mmshare_version>
43012

> <i_f3d_flags>
0

> <s_epik_input>
W0NIM11bQ0BASF0oW0NIMl0xKVtDSDJdW0NASF0oW0NIMl1DMShbQ0gzXSlbQ0gzXSlDKD1PKVtOSF1bQ0gyXVtDSDJdYzJuW2NIXVtjSF1uMltDSDNd

> <s_epik_cmdline>
J2VwaWtfcHl0aG9uJywgJy1waCcsICc3LjAnLCAnLXRuJywgJzgnLCAnLW1hJywgJzIwMCcsICctbWV0YWxfYmluZGluZycsICctaW1hZScsICc8aW5maWxlLm1hZT4nLCAnLW9tYWUnLCAnPG91dGZpbGUubWFlPic=

> <r_lp_tautomer_probability>
1

> <r_epik_Ionization_Penalty>
0.0796112

> <r_epik_Ionization_Penalty_Charging>
0

> <r_epik_Ionization_Penalty_Neutral>
0.0796112

> <r_epik_State_Penalty>
0.0704541

> <r_epik_Charging_Adjusted_Penalty>
0.0704541

> <i_epik_Tot_Q>
1

> <i_epik_Tot_abs_Q>
1

> <r_epik_Metal_State_Penalty>
0.409899

> <b_epik_Metal_Only>
0

> <s_lp_Force_Field>
OPLS_2005

> <r_lp_Energy>
17.0115

> <b_lp_Chiralities_Consistent>
1

> <s_lp_Variant>
AV-unprocessed.smi:2473-4

> <Gold.Version>
5.8.1

> <Gold.Id.Protein>
6NUR|6NUR_protein|mol2

> <Gold.PLP.Fitness>
51.5660

> <Gold.PLP.PLP>
-40.0551

> <Gold.PLP.part.hbond>
-3.0973

> <Gold.PLP.part.metal>
0.0000

> <Gold.PLP.part.buried>
-1.0819

> <Gold.PLP.part.nonpolar>
-34.8703

> <Gold.PLP.part.repulsive>
0.3360

> <Gold.PLP.ligand.clash>
0.0000

> <Gold.PLP.ligand.torsion>
0.2687

> <Gold.PLP.Chemscore.Hbond>
3.9833

> <Gold.PLP.Chemscore.CHOScore>
0.0000

> <Gold.PLP.Chemscore.Metal>
0.0000

> <Gold.Chemscore.Hbonds>
donor molecule, donor type, donor heavy atom, donor atom, acceptor molecule, acceptor atom, score
      L1  H     7    28       P1  8028  0.81
      L1  H    11    48       P1  8028  1.43
      P1  H  7989  7998       L1     6  0.80

> <Gold.PLP.Chemscore.Internal.Correction>
0.0986

> <Gold.Rescore>
     Score         DG    S(hbond)    S(metal)    S(lipo)     H(rot)  DE(clash)    DE(int)     intcor
     16.82     -19.39       2.13        0.00      92.70       1.58       2.02       0.55       ----

> <Gold.Chemscore.Fitness>
16.8165

> <Gold.Chemscore.DG>
-19.3872

> <Gold.Chemscore.ZeroCoef>
-5.4800

> <Gold.Chemscore.Hbond>
2.1291

> <Gold.Chemscore.Metal>
0.0000

> <Gold.Chemscore.Lipo>
92.6960

> <Gold.Chemscore.Internal_Hbond>
0.0000

> <Gold.Chemscore.DEClash>
2.0189

> <Gold.Chemscore.DEInternal>
0.5518

> <Gold.Chemscore.Rot>
1.5818

> <Gold.Chemscore.Internal.Correction>
   9.000000E+99

> <Gold.Chemscore.Hbonds>
donor molecule, donor type, donor heavy atom, donor atom, acceptor molecule, acceptor atom, score
      L1  H     7    28       P1  8028  0.80
      L1  H    11    48       P1  8028  0.53
      P1  H  7989  7998       L1     6  0.11

> <Gold.Chemscore.Hbond.Weighted>
-7.1112

> <Gold.Chemscore.Metal.Weighted>
-0.0000

> <Gold.Chemscore.Lipo.Weighted>
-10.8454

> <Gold.Chemscore.Internal_Hbond.Weighted>
0.0000

> <Gold.Chemscore.DEClash.Weighted>
2.0189

> <Gold.Chemscore.DEInternal.Weighted>
0.5518

> <Gold.Chemscore.Rot.Weighted>
4.0495

> <Gold.Chemscore.Internal.Correction.Weighted>
   9.000000E+99

> <Gold.Protein.RotatedTorsions>
[ 6907 6896 6895 6894 ] final   -2.42 input  -60.11 | X-H torsion
[ 7974 7965 7964 7962 ] final -128.41 input  175.53 | X-H torsion
[ 8008 7997 7996 7995 ] final  -63.22 input   59.86 | X-H torsion
[ 10167 10162 10161 10158 ] final -142.21 input  -65.29 | X-H torsion
[ 10718 10713 10712 10709 ] final  157.55 input   66.30 | X-H torsion
[ 10763 10752 10751 10750 ] final   46.90 input  -60.55 | X-H torsion
[ 11005 11000 10999 10996 ] final  130.60 input  -57.11 | X-H torsion

> <Gold.Protein.ActiveResidues>
 VAL166  LYS551  ARG553  GLY616  TRP617  ASP618  TYR619  PRO620  LYS621  CYS622 
 ASP623  PHE694  ASN695  SER759  ASP760  ASP761  ALA762  ILE779  LEU786  VAL792 
 PHE793  MET794  SER795  GLU796  ALA797  LYS798  CYS799  TRP800  GLU811  SER814 

> <Gold.Protein.RotatedAtoms>
  151.5302  135.1068  159.9900 H   0  0  0  0  0  0  0  0  0  0  0  0  # atno 6907 bound_to 6896
  152.4582  133.7762  159.6836 H   0  0  0  0  0  0  0  0  0  0  0  0  # atno 6908 bound_to 6896
  150.8533  133.7688  159.3042 H   0  0  0  0  0  0  0  0  0  0  0  0  # atno 6909 bound_to 6896
  144.9674  140.7510  143.4692 H   0  0  0  0  0  0  0  0  0  0  0  0  # atno 7974 bound_to 7965
  154.4542  140.0979  156.6709 H   0  0  0  0  0  0  0  0  0  0  0  0  # atno 8008 bound_to 7997
  155.5189  140.3478  155.4384 H   0  0  0  0  0  0  0  0  0  0  0  0  # atno 8009 bound_to 7997
  156.0744  140.1357  156.9778 H   0  0  0  0  0  0  0  0  0  0  0  0  # atno 8010 bound_to 7997
  139.8111  143.7702  152.2663 H   0  0  0  0  0  0  0  0  0  0  0  0  # atno 10167 bound_to 10162
  157.1899  131.0652  151.2085 H   0  0  0  0  0  0  0  0  0  0  0  0  # atno 10718 bound_to 10713
  152.9805  135.5993  154.3675 H   0  0  0  0  0  0  0  0  0  0  0  0  # atno 10763 bound_to 10752
  154.3351  135.2768  155.2453 H   0  0  0  0  0  0  0  0  0  0  0  0  # atno 10764 bound_to 10752
  154.4560  135.5978  153.6279 H   0  0  0  0  0  0  0  0  0  0  0  0  # atno 10765 bound_to 10752
  139.9681  134.9585  156.9317 H   0  0  0  0  0  0  0  0  0  0  0  0  # atno 11005 bound_to 11000
  145.2610  139.1992  143.4892 LP  0  0  0  0  0  0  0  0  0  0  0  0  # atno 17320 bound_to 7965
  146.3372  140.2540  142.8599 LP  0  0  0  0  0  0  0  0  0  0  0  0  # atno 17321 bound_to 7965
  139.7851  144.7430  151.0033 LP  0  0  0  0  0  0  0  0  0  0  0  0  # atno 17342 bound_to 10162
  140.7817  143.4501  151.0426 LP  0  0  0  0  0  0  0  0  0  0  0  0  # atno 17343 bound_to 10162
  157.3870  130.7262  149.6670 LP  0  0  0  0  0  0  0  0  0  0  0  0  # atno 17370 bound_to 10713
  155.9713  130.4157  150.4193 LP  0  0  0  0  0  0  0  0  0  0  0  0  # atno 17371 bound_to 10713
  140.5352  134.0774  155.7326 LP  0  0  0  0  0  0  0  0  0  0  0  0  # atno 17394 bound_to 11000
  141.1361  133.9219  157.2430 LP  0  0  0  0  0  0  0  0  0  0  0  0  # atno 17395 bound_to 11000

$$$$
