AV-unprocessed.smi:1978|AV-procd|sdf|8012|dock3
  -GOLD-   2272010203D 1   1.00000     0.00000
 Structure written by MMmdl.
 44 45  0  0  0  0  0  0  0  0  3 V2000
  151.0366  142.5975  157.8324 C   0  0  0  0  0  0  0  0  0  0  0  0
  150.9637  141.4290  156.9107 C   0  0  0  0  0  0  0  0  0  0  0  0
  151.2742  140.1067  157.0584 C   0  0  0  0  0  0  0  0  0  0  0  0
  150.9671  139.5602  155.7838 C   0  0  0  0  0  0  0  0  0  0  0  0
  151.1579  138.1771  155.5244 N   0  0  0  0  0  0  0  0  0  0  0  0
  151.4661  137.1919  156.3877 C   0  0  0  0  0  0  0  0  0  0  0  0
  151.6137  137.4384  157.5907 O   0  0  0  0  0  0  0  0  0  0  0  0
  151.5763  135.9840  155.7701 N   0  5  0  0  0  0  0  0  0  0  0  0
  150.6976  135.5150  154.6988 C   0  0  0  0  0  0  0  0  0  0  0  0
  149.2445  135.3414  155.2199 C   0  0  2  0  0  0  0  0  0  0  0  0
  149.1398  134.6547  156.6061 C   0  0  0  0  0  0  0  0  0  0  0  0
  148.3804  134.6869  154.1764 N   0  3  1  0  0  0  0  0  0  0  0  0
  148.6690  133.2309  153.9695 C   0  0  0  0  0  0  0  0  0  0  0  0
  147.9606  132.6782  152.7276 C   0  0  0  0  0  0  0  0  0  0  0  0
  146.4507  132.8724  152.8574 C   0  0  0  0  0  0  0  0  0  0  0  0
  146.1496  134.3564  153.0784 C   0  0  0  0  0  0  0  0  0  0  0  0
  146.9032  134.9420  154.2960 C   0  0  2  0  0  0  0  0  0  0  0  0
  146.5334  136.4383  154.4024 C   0  0  0  0  0  0  0  0  0  0  0  0
  150.5056  140.4682  154.9364 N   0  0  0  0  0  0  0  0  0  0  0  0
  150.5012  141.6700  155.6541 O   0  0  0  0  0  0  0  0  0  0  0  0
  151.5937  142.3472  158.7354 H   0  0  0  0  0  0  0  0  0  0  0  0
  150.0378  142.9180  158.1284 H   0  0  0  0  0  0  0  0  0  0  0  0
  151.5344  143.4397  157.3514 H   0  0  0  0  0  0  0  0  0  0  0  0
  151.6615  139.6118  157.9367 H   0  0  0  0  0  0  0  0  0  0  0  0
  151.0411  137.8947  154.5629 H   0  0  0  0  0  0  0  0  0  0  0  0
  150.6777  136.2196  153.8658 H   0  0  0  0  0  0  0  0  0  0  0  0
  151.0441  134.5715  154.2766 H   0  0  0  0  0  0  0  0  0  0  0  0
  148.8993  136.3588  155.3734 H   0  0  0  0  0  0  0  0  0  0  0  0
  149.6340  135.2371  157.3857 H   0  0  0  0  0  0  0  0  0  0  0  0
  149.5825  133.6574  156.6219 H   0  0  0  0  0  0  0  0  0  0  0  0
  148.0974  134.5566  156.9101 H   0  0  0  0  0  0  0  0  0  0  0  0
  149.7396  133.0579  153.8587 H   0  0  0  0  0  0  0  0  0  0  0  0
  148.3488  132.6601  154.8422 H   0  0  0  0  0  0  0  0  0  0  0  0
  148.3292  133.1818  151.8328 H   0  0  0  0  0  0  0  0  0  0  0  0
  148.1900  131.6191  152.6077 H   0  0  0  0  0  0  0  0  0  0  0  0
  145.9438  132.5122  151.9616 H   0  0  0  0  0  0  0  0  0  0  0  0
  146.0675  132.2859  153.6935 H   0  0  0  0  0  0  0  0  0  0  0  0
  146.4188  134.9131  152.1794 H   0  0  0  0  0  0  0  0  0  0  0  0
  145.0741  134.4850  153.2061 H   0  0  0  0  0  0  0  0  0  0  0  0
  146.5456  134.4381  155.1952 H   0  0  0  0  0  0  0  0  0  0  0  0
  145.4622  136.5859  154.2627 H   0  0  0  0  0  0  0  0  0  0  0  0
  147.0460  137.0311  153.6439 H   0  0  0  0  0  0  0  0  0  0  0  0
  146.7607  136.8596  155.3807 H   0  0  0  0  0  0  0  0  0  0  0  0
  148.6487  135.1437  153.3163 H   0  0  0  0  0  0  0  0  0  0  0  0
  1  2  1  0  0  0  0
  1 21  1  0  0  0  0
  1 22  1  0  0  0  0
  1 23  1  0  0  0  0
  2 20  1  0  0  0  0
  2  3  2  0  0  0  0
  3  4  1  0  0  0  0
  3 24  1  0  0  0  0
  4  5  1  0  0  0  0
  4 19  2  0  0  0  0
  5  6  1  0  0  0  0
  5 25  1  0  0  0  0
  6  7  2  0  0  0  0
  6  8  1  0  0  0  0
  8  9  1  0  0  0  0
  9 10  1  0  0  0  0
  9 26  1  0  0  0  0
  9 27  1  0  0  0  0
 10 11  1  0  0  0  0
 10 12  1  0  0  0  0
 10 28  1  0  0  0  0
 11 29  1  0  0  0  0
 11 30  1  0  0  0  0
 11 31  1  0  0  0  0
 12 17  1  0  0  0  0
 12 13  1  0  0  0  0
 12 44  1  0  0  0  0
 13 14  1  0  0  0  0
 13 32  1  0  0  0  0
 13 33  1  0  0  0  0
 14 15  1  0  0  0  0
 14 34  1  0  0  0  0
 14 35  1  0  0  0  0
 15 16  1  0  0  0  0
 15 36  1  0  0  0  0
 15 37  1  0  0  0  0
 16 17  1  0  0  0  0
 16 38  1  0  0  0  0
 16 39  1  0  0  0  0
 17 18  1  0  0  0  0
 17 40  1  0  0  0  0
 18 41  1  0  0  0  0
 18 42  1  0  0  0  0
 18 43  1  0  0  0  0
 19 20  1  0  0  0  0
M  CHG  1   8  -1
M  CHG  1  12   1
M  END
> <s_m_source_file>
AV-unprocessed.smi

> <i_m_source_file_index>
1978

> <i_lp_mmshare_version>
43012

> <i_f3d_flags>
0

> <s_epik_input>
W0NIM11jMVtjSF1jKG5vMSlbTkhdQyg9TylbTkhdW0NIMl1bQ0BIXShbQ0gzXSlOMltDSDJdW0NIMl1bQ0gyXVtDSDJdW0NASF0yW0NIM10=

> <s_epik_cmdline>
J2VwaWtfcHl0aG9uJywgJy1waCcsICc3LjAnLCAnLXRuJywgJzgnLCAnLW1hJywgJzIwMCcsICctbWV0YWxfYmluZGluZycsICctaW1hZScsICc8aW5maWxlLm1hZT4nLCAnLW9tYWUnLCAnPG91dGZpbGUubWFlPic=

> <r_epik_Ionization_Penalty>
6.7666

> <r_epik_Ionization_Penalty_Charging>
6.7666

> <r_epik_Ionization_Penalty_Neutral>
5.77131e-06

> <r_epik_State_Penalty>
6.79217

> <r_epik_Charging_Adjusted_Penalty>
13.5588

> <i_epik_Tot_Q>
0

> <i_epik_Tot_abs_Q>
2

> <r_epik_Metal_State_Penalty>
2.72569

> <b_epik_Metal_Only>
1

> <s_lp_Force_Field>
OPLS_2005

> <r_lp_Energy>
22.8368

> <b_lp_Chiralities_Consistent>
1

> <s_lp_Variant>
AV-unprocessed.smi:1978-21

> <Gold.Version>
5.8.1

> <Gold.Id.Protein>
6NUR|6NUR_protein|mol2

> <Gold.PLP.Fitness>
38.3061

> <Gold.PLP.PLP>
-24.6183

> <Gold.PLP.part.hbond>
-4.0000

> <Gold.PLP.part.metal>
0.0000

> <Gold.PLP.part.buried>
-0.6514

> <Gold.PLP.part.nonpolar>
-20.2032

> <Gold.PLP.part.repulsive>
0.3399

> <Gold.PLP.ligand.clash>
0.2924

> <Gold.PLP.ligand.torsion>
0.6238

> <Gold.PLP.Chemscore.Hbond>
5.0000

> <Gold.PLP.Chemscore.CHOScore>
0.0000

> <Gold.PLP.Chemscore.Metal>
0.0000

> <Gold.Chemscore.Hbonds>
donor molecule, donor type, donor heavy atom, donor atom, acceptor molecule, acceptor atom, score
      L1  H    12    44       P1  7948  2.00
      P1  H  7989  7998       L1    19  1.00
      P1  H 10752 10765       L1     8  2.00

> <Gold.PLP.Chemscore.Internal.Correction>
0.2279

> <Gold.Rescore>
     Score         DG    S(hbond)    S(metal)    S(lipo)     H(rot)  DE(clash)    DE(int)     intcor
     13.81     -15.95       2.41        0.00      53.85       1.52       0.05       2.09       ----

> <Gold.Chemscore.Fitness>
13.8118

> <Gold.Chemscore.DG>
-15.9537

> <Gold.Chemscore.ZeroCoef>
-5.4800

> <Gold.Chemscore.Hbond>
2.4138

> <Gold.Chemscore.Metal>
0.0000

> <Gold.Chemscore.Lipo>
53.8483

> <Gold.Chemscore.Internal_Hbond>
0.0000

> <Gold.Chemscore.DEClash>
0.0473

> <Gold.Chemscore.DEInternal>
2.0947

> <Gold.Chemscore.Rot>
1.5190

> <Gold.Chemscore.Internal.Correction>
   9.000000E+99

> <Gold.Chemscore.Hbonds>
donor molecule, donor type, donor heavy atom, donor atom, acceptor molecule, acceptor atom, score
      L1  H    12    44       P1  7948  0.78
      P1  H  7989  7998       L1    19  0.31
      P1  H 10752 10765       L1     8  0.28

> <Gold.Chemscore.Hbond.Weighted>
-8.0621

> <Gold.Chemscore.Metal.Weighted>
-0.0000

> <Gold.Chemscore.Lipo.Weighted>
-6.3002

> <Gold.Chemscore.Internal_Hbond.Weighted>
0.0000

> <Gold.Chemscore.DEClash.Weighted>
0.0473

> <Gold.Chemscore.DEInternal.Weighted>
2.0947

> <Gold.Chemscore.Rot.Weighted>
3.8886

> <Gold.Chemscore.Internal.Correction.Weighted>
   9.000000E+99

> <Gold.Protein.RotatedTorsions>
[ 6907 6896 6895 6894 ] final    6.76 input  -60.11 | X-H torsion
[ 7974 7965 7964 7962 ] final  -42.68 input  175.53 | X-H torsion
[ 8008 7997 7996 7995 ] final  -89.45 input   59.86 | X-H torsion
[ 10167 10162 10161 10158 ] final -173.85 input  -65.29 | X-H torsion
[ 10718 10713 10712 10709 ] final -100.06 input   66.30 | X-H torsion
[ 10763 10752 10751 10750 ] final -141.85 input  -60.55 | X-H torsion
[ 11005 11000 10999 10996 ] final   94.09 input  -57.11 | X-H torsion

> <Gold.Protein.ActiveResidues>
 VAL166  LYS551  ARG553  GLY616  TRP617  ASP618  TYR619  PRO620  LYS621  CYS622 
 ASP623  PHE694  ASN695  SER759  ASP760  ASP761  ALA762  ILE779  LEU786  VAL792 
 PHE793  MET794  SER795  GLU796  ALA797  LYS798  CYS799  TRP800  GLU811  SER814 

> <Gold.Protein.RotatedAtoms>
  151.6789  135.0965  160.0211 H   0  0  0  0  0  0  0  0  0  0  0  0  # atno 6907 bound_to 6896
  152.3847  133.6591  159.6198 H   0  0  0  0  0  0  0  0  0  0  0  0  # atno 6908 bound_to 6896
  150.7776  133.8971  159.3371 H   0  0  0  0  0  0  0  0  0  0  0  0  # atno 6909 bound_to 6896
  146.0092  140.6984  142.9232 H   0  0  0  0  0  0  0  0  0  0  0  0  # atno 7974 bound_to 7965
  154.6867  140.0541  157.0322 H   0  0  0  0  0  0  0  0  0  0  0  0  # atno 8008 bound_to 7997
  155.0874  140.3216  155.4564 H   0  0  0  0  0  0  0  0  0  0  0  0  # atno 8009 bound_to 7997
  156.2714  140.2054  156.6002 H   0  0  0  0  0  0  0  0  0  0  0  0  # atno 8010 bound_to 7997
  139.5666  144.1742  152.1321 H   0  0  0  0  0  0  0  0  0  0  0  0  # atno 10167 bound_to 10162
  156.0152  130.5310  150.6761 H   0  0  0  0  0  0  0  0  0  0  0  0  # atno 10718 bound_to 10713
  154.8530  135.3512  154.5934 H   0  0  0  0  0  0  0  0  0  0  0  0  # atno 10763 bound_to 10752
  153.6544  135.6992  153.5203 H   0  0  0  0  0  0  0  0  0  0  0  0  # atno 10764 bound_to 10752
  153.2868  135.4247  155.1088 H   0  0  0  0  0  0  0  0  0  0  0  0  # atno 10765 bound_to 10752
  139.8802  134.8826  156.3813 H   0  0  0  0  0  0  0  0  0  0  0  0  # atno 11005 bound_to 11000
  144.6947  140.3369  143.7206 LP  0  0  0  0  0  0  0  0  0  0  0  0  # atno 17320 bound_to 7965
  145.7368  139.1752  143.2399 LP  0  0  0  0  0  0  0  0  0  0  0  0  # atno 17321 bound_to 7965
  140.1266  144.5326  150.6829 LP  0  0  0  0  0  0  0  0  0  0  0  0  # atno 17342 bound_to 10162
  140.6949  143.2398  151.5028 LP  0  0  0  0  0  0  0  0  0  0  0  0  # atno 17343 bound_to 10162
  157.4473  131.0868  151.0882 LP  0  0  0  0  0  0  0  0  0  0  0  0  # atno 17370 bound_to 10713
  157.1408  130.6142  149.5554 LP  0  0  0  0  0  0  0  0  0  0  0  0  # atno 17371 bound_to 10713
  140.9397  133.7523  156.0130 LP  0  0  0  0  0  0  0  0  0  0  0  0  # atno 17394 bound_to 11000
  140.8234  134.3263  157.5374 LP  0  0  0  0  0  0  0  0  0  0  0  0  # atno 17395 bound_to 11000

$$$$
