AV-unprocessed.smi:258|AV-procd|sdf|1969|dock8
  -GOLD-   2262021123D 1   1.00000     0.00000
 Structure written by MMmdl.
 57 60  0  0  0  0  0  0  0  0  1 V2000
  146.7767  132.2065  150.2158 O   0  0  0  0  0  0  0  0  0  0  0  0
  146.6102  133.0046  151.3683 C   0  0  0  0  0  0  0  0  0  0  0  0
  147.7612  132.7603  152.3520 C   0  0  0  0  0  0  0  0  0  0  0  0
  147.5558  133.5574  153.5094 O   0  0  0  0  0  0  0  0  0  0  0  0
  148.6046  133.4911  154.4670 C   0  0  2  0  0  0  0  0  0  0  0  0
  148.5798  132.1491  155.2244 C   0  0  0  0  0  0  0  0  0  0  0  0
  149.6245  132.1567  156.3504 C   0  0  0  0  0  0  0  0  0  0  0  0
  149.4186  133.3544  157.2920 C   0  0  0  0  0  0  0  0  0  0  0  0
  149.3730  134.6099  156.5402 N   0  0  0  0  0  0  0  0  0  0  0  0
  149.6195  135.7419  157.2508 C   0  0  0  0  0  0  0  0  0  0  0  0
  148.8918  135.9369  158.3820 N   0  0  0  0  0  0  0  0  0  0  0  0
  149.0893  137.0181  159.1409 C   0  0  0  0  0  0  0  0  0  0  0  0
  149.9514  138.0186  158.9585 N   0  0  0  0  0  0  0  0  0  0  0  0
  150.6817  137.8381  157.8217 C   0  0  0  0  0  0  0  0  0  0  0  0
  150.5845  136.7411  156.9165 C   0  0  0  0  0  0  0  0  0  0  0  0
  151.4882  136.9222  155.8733 N   0  0  0  0  0  0  0  0  0  0  0  0
  152.0867  138.0474  156.1505 C   0  0  0  0  0  0  0  0  0  0  0  0
  151.6594  138.6668  157.3016 N   0  0  0  0  0  0  0  0  0  0  0  0
  152.1464  139.9198  157.8499 C   0  0  0  0  0  0  0  0  0  0  0  0
  151.1730  141.1076  157.6513 C   0  0  2  0  0  0  0  0  0  0  0  0
  150.7092  141.2723  156.1807 C   0  0  0  0  0  0  0  0  0  0  0  0
  149.5457  142.0683  156.0893 O   0  0  0  0  0  0  0  0  0  0  0  0
  151.7891  142.3993  158.2475 C   0  0  1  0  0  0  0  0  0  0  0  0
  150.8750  143.6187  158.2961 C   0  0  0  0  0  0  0  0  0  0  0  0
  151.4636  144.4127  159.4536 C   0  0  0  0  0  0  0  0  0  0  0  0
  151.7858  143.4019  160.3942 O   0  0  0  0  0  0  0  0  0  0  0  0
  152.3102  142.2804  159.6907 C   0  0  0  0  0  0  0  0  0  0  0  0
  148.4032  134.6597  155.4471 C   0  0  0  0  0  0  0  0  0  0  0  0
  147.4883  131.6036  150.3681 H   0  0  0  0  0  0  0  0  0  0  0  0
  146.6124  134.0469  151.0491 H   0  0  0  0  0  0  0  0  0  0  0  0
  145.6426  132.8104  151.8319 H   0  0  0  0  0  0  0  0  0  0  0  0
  147.8499  131.6998  152.5901 H   0  0  0  0  0  0  0  0  0  0  0  0
  148.6982  133.0652  151.8839 H   0  0  0  0  0  0  0  0  0  0  0  0
  149.5702  133.6203  153.9741 H   0  0  0  0  0  0  0  0  0  0  0  0
  147.5874  131.9812  155.6447 H   0  0  0  0  0  0  0  0  0  0  0  0
  148.7793  131.3166  154.5505 H   0  0  0  0  0  0  0  0  0  0  0  0
  149.5734  131.2259  156.9157 H   0  0  0  0  0  0  0  0  0  0  0  0
  150.6249  132.2023  155.9181 H   0  0  0  0  0  0  0  0  0  0  0  0
  148.4805  133.2422  157.8368 H   0  0  0  0  0  0  0  0  0  0  0  0
  150.2139  133.3598  158.0375 H   0  0  0  0  0  0  0  0  0  0  0  0
  148.4689  137.0906  160.0221 H   0  0  0  0  0  0  0  0  0  0  0  0
  152.8559  138.4613  155.5150 H   0  0  0  0  0  0  0  0  0  0  0  0
  152.3372  139.7621  158.9121 H   0  0  0  0  0  0  0  0  0  0  0  0
  153.1120  140.1425  157.3941 H   0  0  0  0  0  0  0  0  0  0  0  0
  150.2854  140.9033  158.2523 H   0  0  0  0  0  0  0  0  0  0  0  0
  151.4740  141.7565  155.5750 H   0  0  0  0  0  0  0  0  0  0  0  0
  150.5157  140.3022  155.7221 H   0  0  0  0  0  0  0  0  0  0  0  0
  149.7845  142.9120  155.7367 H   0  0  0  0  0  0  0  0  0  0  0  0
  152.6524  142.6703  157.6369 H   0  0  0  0  0  0  0  0  0  0  0  0
  150.8639  144.1805  157.3617 H   0  0  0  0  0  0  0  0  0  0  0  0
  149.8484  143.3433  158.5366 H   0  0  0  0  0  0  0  0  0  0  0  0
  152.3718  144.9352  159.1492 H   0  0  0  0  0  0  0  0  0  0  0  0
  150.7655  145.1409  159.8672 H   0  0  0  0  0  0  0  0  0  0  0  0
  152.0085  141.3588  160.1875 H   0  0  0  0  0  0  0  0  0  0  0  0
  153.4002  142.3165  159.7067 H   0  0  0  0  0  0  0  0  0  0  0  0
  148.4994  135.5996  154.9020 H   0  0  0  0  0  0  0  0  0  0  0  0
  147.3959  134.6243  155.8642 H   0  0  0  0  0  0  0  0  0  0  0  0
  1  2  1  0  0  0  0
  1 29  1  0  0  0  0
  2  3  1  0  0  0  0
  2 30  1  0  0  0  0
  2 31  1  0  0  0  0
  3  4  1  0  0  0  0
  3 32  1  0  0  0  0
  3 33  1  0  0  0  0
  4  5  1  0  0  0  0
  5 28  1  0  0  0  0
  5  6  1  0  0  0  0
  5 34  1  0  0  0  0
  6  7  1  0  0  0  0
  6 35  1  0  0  0  0
  6 36  1  0  0  0  0
  7  8  1  0  0  0  0
  7 37  1  0  0  0  0
  7 38  1  0  0  0  0
  8  9  1  0  0  0  0
  8 39  1  0  0  0  0
  8 40  1  0  0  0  0
  9 10  1  0  0  0  0
  9 28  1  0  0  0  0
 10 15  1  0  0  0  0
 10 11  2  0  0  0  0
 11 12  1  0  0  0  0
 12 13  2  0  0  0  0
 12 41  1  0  0  0  0
 13 14  1  0  0  0  0
 14 18  1  0  0  0  0
 14 15  2  0  0  0  0
 15 16  1  0  0  0  0
 16 17  2  0  0  0  0
 17 18  1  0  0  0  0
 17 42  1  0  0  0  0
 18 19  1  0  0  0  0
 19 20  1  0  0  0  0
 19 43  1  0  0  0  0
 19 44  1  0  0  0  0
 20 21  1  0  0  0  0
 20 23  1  0  0  0  0
 20 45  1  0  0  0  0
 21 22  1  0  0  0  0
 21 46  1  0  0  0  0
 21 47  1  0  0  0  0
 22 48  1  0  0  0  0
 23 27  1  0  0  0  0
 23 24  1  0  0  0  0
 23 49  1  0  0  0  0
 24 25  1  0  0  0  0
 24 50  1  0  0  0  0
 24 51  1  0  0  0  0
 25 26  1  0  0  0  0
 25 52  1  0  0  0  0
 25 53  1  0  0  0  0
 26 27  1  0  0  0  0
 27 54  1  0  0  0  0
 27 55  1  0  0  0  0
 28 56  1  0  0  0  0
 28 57  1  0  0  0  0
M  END
> <s_m_source_file>
AV-unprocessed.smi

> <i_m_source_file_index>
258

> <i_lp_mmshare_version>
43012

> <i_f3d_flags>
0

> <s_epik_input>
W09IXVtDSDJdW0NIMl1PW0NAQEhdMVtDSDJdW0NIMl1bQ0gyXU4oW0NIMl0xKWMobltjSF1uMiljKGMyMyluW2NIXW4zW0NIMl1bQ0BIXShbQ0gyXVtPSF0pW0NAQEhdNFtDSDJdW0NIMl1PW0NIMl00

> <s_epik_cmdline>
J2VwaWtfcHl0aG9uJywgJy1waCcsICc3LjAnLCAnLXRuJywgJzgnLCAnLW1hJywgJzIwMCcsICctbWV0YWxfYmluZGluZycsICctaW1hZScsICc8aW5maWxlLm1hZT4nLCAnLW9tYWUnLCAnPG91dGZpbGUubWFlPic=

> <r_lp_tautomer_probability>
1

> <r_epik_Ionization_Penalty>
0.00349036

> <r_epik_Ionization_Penalty_Charging>
0

> <r_epik_Ionization_Penalty_Neutral>
0.00349036

> <r_epik_State_Penalty>
0.00229798

> <r_epik_Charging_Adjusted_Penalty>
0.00229798

> <i_epik_Tot_Q>
0

> <i_epik_Tot_abs_Q>
0

> <r_epik_Metal_State_Penalty>
-0

> <b_epik_Metal_Only>
0

> <s_lp_Force_Field>
OPLS_2005

> <r_lp_Energy>
47.936

> <b_lp_Chiralities_Consistent>
1

> <s_lp_Variant>
AV-unprocessed.smi:258-5

> <Gold.Version>
5.8.1

> <Gold.Id.Protein>
6NUR|6NUR_protein|mol2

> <Gold.PLP.Fitness>
50.2200

> <Gold.PLP.PLP>
-43.0179

> <Gold.PLP.part.hbond>
-4.0000

> <Gold.PLP.part.metal>
0.0000

> <Gold.PLP.part.buried>
-3.8272

> <Gold.PLP.part.nonpolar>
-36.1628

> <Gold.PLP.part.repulsive>
0.2689

> <Gold.PLP.ligand.clash>
0.0000

> <Gold.PLP.ligand.torsion>
1.6819

> <Gold.PLP.Chemscore.Hbond>
3.3004

> <Gold.PLP.Chemscore.CHOScore>
0.0000

> <Gold.PLP.Chemscore.Metal>
0.0000

> <Gold.Chemscore.Hbonds>
donor molecule, donor type, donor heavy atom, donor atom, acceptor molecule, acceptor atom, score
      L1  H     1    29       P1 10747  1.00
      L1  H    22    48       P1  8028  0.70
      P1  H 10752 10765       L1    16  0.23

> <Gold.PLP.Chemscore.Internal.Correction>
0.6648

> <Gold.Rescore>
     Score         DG    S(hbond)    S(metal)    S(lipo)     H(rot)  DE(clash)    DE(int)     intcor
     14.23     -16.51       2.72        0.00     102.69       3.94       0.23       2.05       ----

> <Gold.Chemscore.Fitness>
14.2345

> <Gold.Chemscore.DG>
-16.5145

> <Gold.Chemscore.ZeroCoef>
-5.4800

> <Gold.Chemscore.Hbond>
2.7231

> <Gold.Chemscore.Metal>
0.0000

> <Gold.Chemscore.Lipo>
102.6876

> <Gold.Chemscore.Internal_Hbond>
0.0000

> <Gold.Chemscore.DEClash>
0.2256

> <Gold.Chemscore.DEInternal>
2.0545

> <Gold.Chemscore.Rot>
3.9356

> <Gold.Chemscore.Internal.Correction>
   9.000000E+99

> <Gold.Chemscore.Hbonds>
donor molecule, donor type, donor heavy atom, donor atom, acceptor molecule, acceptor atom, score
      L1  H     1    29       P1 10747  1.00
      L1  H    22    48       P1  8028  0.66
      P1  H 10752 10765       L1    16  0.15

> <Gold.Chemscore.Hbond.Weighted>
-9.0952

> <Gold.Chemscore.Metal.Weighted>
-0.0000

> <Gold.Chemscore.Lipo.Weighted>
-12.0145

> <Gold.Chemscore.Internal_Hbond.Weighted>
0.0000

> <Gold.Chemscore.DEClash.Weighted>
0.2256

> <Gold.Chemscore.DEInternal.Weighted>
2.0545

> <Gold.Chemscore.Rot.Weighted>
10.0751

> <Gold.Chemscore.Internal.Correction.Weighted>
   9.000000E+99

> <Gold.Protein.RotatedTorsions>
[ 6907 6896 6895 6894 ] final  156.00 input  -60.11 | X-H torsion
[ 7974 7965 7964 7962 ] final  -15.08 input  175.53 | X-H torsion
[ 8008 7997 7996 7995 ] final   53.31 input   59.86 | X-H torsion
[ 10167 10162 10161 10158 ] final -171.76 input  -65.29 | X-H torsion
[ 10718 10713 10712 10709 ] final  121.53 input   66.30 | X-H torsion
[ 10763 10752 10751 10750 ] final  179.23 input  -60.55 | X-H torsion
[ 11005 11000 10999 10996 ] final   85.09 input  -57.11 | X-H torsion

> <Gold.Protein.ActiveResidues>
 VAL166  LYS551  ARG553  GLY616  TRP617  ASP618  TYR619  PRO620  LYS621  CYS622 
 ASP623  PHE694  ASN695  SER759  ASP760  ASP761  ALA762  ILE779  LEU786  VAL792 
 PHE793  MET794  SER795  GLU796  ALA797  LYS798  CYS799  TRP800  GLU811  SER814 

> <Gold.Protein.RotatedAtoms>
  152.0361  133.3957  159.4316 H   0  0  0  0  0  0  0  0  0  0  0  0  # atno 6907 bound_to 6896
  150.6879  134.3467  159.4900 H   0  0  0  0  0  0  0  0  0  0  0  0  # atno 6908 bound_to 6896
  152.1260  134.9170  160.0611 H   0  0  0  0  0  0  0  0  0  0  0  0  # atno 6909 bound_to 6896
  146.2047  140.3440  142.8411 H   0  0  0  0  0  0  0  0  0  0  0  0  # atno 7974 bound_to 7965
  155.4662  140.3463  155.4319 H   0  0  0  0  0  0  0  0  0  0  0  0  # atno 8008 bound_to 7997
  156.1129  140.1466  156.9342 H   0  0  0  0  0  0  0  0  0  0  0  0  # atno 8009 bound_to 7997
  154.4769  140.0882  156.7262 H   0  0  0  0  0  0  0  0  0  0  0  0  # atno 8010 bound_to 7997
  139.5783  144.1481  152.1481 H   0  0  0  0  0  0  0  0  0  0  0  0  # atno 10167 bound_to 10162
  157.5811  131.1075  150.8186 H   0  0  0  0  0  0  0  0  0  0  0  0  # atno 10718 bound_to 10713
  154.5179  135.2792  155.1287 H   0  0  0  0  0  0  0  0  0  0  0  0  # atno 10763 bound_to 10752
  154.2856  135.6277  153.5368 H   0  0  0  0  0  0  0  0  0  0  0  0  # atno 10764 bound_to 10752
  152.9931  135.5661  154.5661 H   0  0  0  0  0  0  0  0  0  0  0  0  # atno 10765 bound_to 10752
  139.8981  134.8262  156.2534 H   0  0  0  0  0  0  0  0  0  0  0  0  # atno 11005 bound_to 11000
  144.8765  140.7343  143.6013 LP  0  0  0  0  0  0  0  0  0  0  0  0  # atno 17320 bound_to 7965
  145.3360  139.1746  143.4511 LP  0  0  0  0  0  0  0  0  0  0  0  0  # atno 17321 bound_to 7965
  140.1029  144.5524  150.6977 LP  0  0  0  0  0  0  0  0  0  0  0  0  # atno 17342 bound_to 10162
  140.7064  143.2471  151.4714 LP  0  0  0  0  0  0  0  0  0  0  0  0  # atno 17343 bound_to 10162
  156.8632  130.5120  149.5302 LP  0  0  0  0  0  0  0  0  0  0  0  0  # atno 17370 bound_to 10713
  156.0856  130.5856  150.9643 LP  0  0  0  0  0  0  0  0  0  0  0  0  # atno 17371 bound_to 10713
  141.0209  133.7042  156.1266 LP  0  0  0  0  0  0  0  0  0  0  0  0  # atno 17394 bound_to 11000
  140.7235  134.4332  157.5573 LP  0  0  0  0  0  0  0  0  0  0  0  0  # atno 17395 bound_to 11000

$$$$
