AV-unprocessed.smi:1413|AV-procd|sdf|5756|dock4
  -GOLD-   22720 5393D 1   1.00000     0.00000
 Structure written by MMmdl.
 53 55  0  0  0  0  0  0  0  0  1 V2000
  152.2861  144.6273  157.7222 C   0  0  0  0  0  0  0  0  0  0  0  0
  151.3669  143.8146  158.6512 C   0  0  1  0  0  0  0  0  0  0  0  0
  150.4396  142.8399  157.8987 C   0  0  0  0  0  0  0  0  0  0  0  0
  151.1752  141.6678  157.4329 N   0  0  0  0  0  0  0  0  0  0  0  0
  150.4929  140.8595  156.4988 C   0  0  0  0  0  0  0  0  0  0  0  0
  149.0825  140.7683  156.5370 C   0  0  0  0  0  0  0  0  0  0  0  0
  148.4228  139.9514  155.5998 C   0  0  0  0  0  0  0  0  0  0  0  0
  149.1781  139.2449  154.6437 C   0  0  0  0  0  0  0  0  0  0  0  0
  148.4695  138.4230  153.7234 N   0  0  0  0  0  0  0  0  0  0  0  0
  147.1520  138.3728  153.4597 C   0  0  0  0  0  0  0  0  0  0  0  0
  146.2842  139.0508  154.0073 O   0  0  0  0  0  0  0  0  0  0  0  0
  146.8875  137.4656  152.5088 N   0  0  0  0  0  0  0  0  0  0  0  0
  145.5617  137.1610  151.9740 C   0  0  2  0  0  0  0  0  0  0  0  0
  144.5527  137.0196  153.1259 C   0  0  0  0  0  0  0  0  0  0  0  0
  145.6258  135.8884  151.1075 C   0  0  2  0  0  0  0  0  0  0  0  0
  144.2668  135.3856  150.6118 C   0  0  0  0  0  0  0  0  0  0  0  0
  144.5347  133.9117  150.4152 C   0  0  0  0  0  0  0  0  0  0  0  0
  145.4349  133.6054  151.6066 C   0  0  0  0  0  0  0  0  0  0  0  0
  146.1691  134.8011  151.8551 O   0  0  0  0  0  0  0  0  0  0  0  0
  150.5852  139.3990  154.6816 C   0  0  0  0  0  0  0  0  0  0  0  0
  151.2212  140.1835  155.5774 N   0  0  0  0  0  0  0  0  0  0  0  0
  151.9283  141.0053  158.4941 C   0  0  0  0  0  0  0  0  0  0  0  0
  152.8610  142.0094  159.1948 C   0  0  2  0  0  0  0  0  0  0  0  0
  153.5762  141.3838  160.3967 C   0  0  0  0  0  0  0  0  0  0  0  0
  152.0998  143.1216  159.6639 O   0  0  0  0  0  0  0  0  0  0  0  0
  151.6985  145.2496  157.0473 H   0  0  0  0  0  0  0  0  0  0  0  0
  152.9190  143.9906  157.1045 H   0  0  0  0  0  0  0  0  0  0  0  0
  152.9342  145.2875  158.2987 H   0  0  0  0  0  0  0  0  0  0  0  0
  150.7350  144.5336  159.1732 H   0  0  0  0  0  0  0  0  0  0  0  0
  149.6494  142.4989  158.5688 H   0  0  0  0  0  0  0  0  0  0  0  0
  149.9478  143.3655  157.0813 H   0  0  0  0  0  0  0  0  0  0  0  0
  148.5039  141.3218  157.2617 H   0  0  0  0  0  0  0  0  0  0  0  0
  147.3455  139.8723  155.6174 H   0  0  0  0  0  0  0  0  0  0  0  0
  149.0429  137.7754  153.2031 H   0  0  0  0  0  0  0  0  0  0  0  0
  147.6616  136.9499  152.1167 H   0  0  0  0  0  0  0  0  0  0  0  0
  145.2409  137.9840  151.3326 H   0  0  0  0  0  0  0  0  0  0  0  0
  143.5516  136.8113  152.7480 H   0  0  0  0  0  0  0  0  0  0  0  0
  144.4933  137.9357  153.7141 H   0  0  0  0  0  0  0  0  0  0  0  0
  144.8293  136.2078  153.7993 H   0  0  0  0  0  0  0  0  0  0  0  0
  146.2761  136.0518  150.2462 H   0  0  0  0  0  0  0  0  0  0  0  0
  143.5018  135.5246  151.3771 H   0  0  0  0  0  0  0  0  0  0  0  0
  143.9334  135.8838  149.7012 H   0  0  0  0  0  0  0  0  0  0  0  0
  143.6276  133.3072  150.3978 H   0  0  0  0  0  0  0  0  0  0  0  0
  145.0747  133.7495  149.4814 H   0  0  0  0  0  0  0  0  0  0  0  0
  144.8344  133.3797  152.4887 H   0  0  0  0  0  0  0  0  0  0  0  0
  146.0982  132.7601  151.4222 H   0  0  0  0  0  0  0  0  0  0  0  0
  151.2452  138.8886  153.9995 H   0  0  0  0  0  0  0  0  0  0  0  0
  151.2306  140.5726  159.2126 H   0  0  0  0  0  0  0  0  0  0  0  0
  152.5216  140.1879  158.0822 H   0  0  0  0  0  0  0  0  0  0  0  0
  153.6209  142.3534  158.4930 H   0  0  0  0  0  0  0  0  0  0  0  0
  154.1794  140.5279  160.0927 H   0  0  0  0  0  0  0  0  0  0  0  0
  152.8626  141.0412  161.1465 H   0  0  0  0  0  0  0  0  0  0  0  0
  154.2400  142.1055  160.8735 H   0  0  0  0  0  0  0  0  0  0  0  0
  1  2  1  0  0  0  0
  1 26  1  0  0  0  0
  1 27  1  0  0  0  0
  1 28  1  0  0  0  0
  2 25  1  0  0  0  0
  2  3  1  0  0  0  0
  2 29  1  0  0  0  0
  3  4  1  0  0  0  0
  3 30  1  0  0  0  0
  3 31  1  0  0  0  0
  4  5  1  0  0  0  0
  4 22  1  0  0  0  0
  5 21  1  0  0  0  0
  5  6  2  0  0  0  0
  6  7  1  0  0  0  0
  6 32  1  0  0  0  0
  7  8  2  0  0  0  0
  7 33  1  0  0  0  0
  8  9  1  0  0  0  0
  8 20  1  0  0  0  0
  9 10  1  0  0  0  0
  9 34  1  0  0  0  0
 10 11  2  0  0  0  0
 10 12  1  0  0  0  0
 12 13  1  0  0  0  0
 12 35  1  0  0  0  0
 13 14  1  0  0  0  0
 13 15  1  0  0  0  0
 13 36  1  0  0  0  0
 14 37  1  0  0  0  0
 14 38  1  0  0  0  0
 14 39  1  0  0  0  0
 15 19  1  0  0  0  0
 15 16  1  0  0  0  0
 15 40  1  0  0  0  0
 16 17  1  0  0  0  0
 16 41  1  0  0  0  0
 16 42  1  0  0  0  0
 17 18  1  0  0  0  0
 17 43  1  0  0  0  0
 17 44  1  0  0  0  0
 18 19  1  0  0  0  0
 18 45  1  0  0  0  0
 18 46  1  0  0  0  0
 20 21  2  0  0  0  0
 20 47  1  0  0  0  0
 22 23  1  0  0  0  0
 22 48  1  0  0  0  0
 22 49  1  0  0  0  0
 23 24  1  0  0  0  0
 23 25  1  0  0  0  0
 23 50  1  0  0  0  0
 24 51  1  0  0  0  0
 24 52  1  0  0  0  0
 24 53  1  0  0  0  0
M  END
> <s_m_source_file>
AV-unprocessed.smi

> <i_m_source_file_index>
1413

> <i_lp_mmshare_version>
43012

> <i_f3d_flags>
0

> <s_epik_input>
W0NIM11bQ0BASF0xW0NIMl1OKFtDSDJdW0NASF0oTzEpW0NIM10pYzJbY0hdW2NIXWMoW2NIXW4yKVtOSF1DKD1PKVtOSF1bQ0BIXShbQ0gzXSlbQ0BASF0zW0NIMl1bQ0gyXVtDSDJdTzM=

> <s_epik_cmdline>
J2VwaWtfcHl0aG9uJywgJy1waCcsICc3LjAnLCAnLXRuJywgJzgnLCAnLW1hJywgJzIwMCcsICctbWV0YWxfYmluZGluZycsICctaW1hZScsICc8aW5maWxlLm1hZT4nLCAnLW9tYWUnLCAnPG91dGZpbGUubWFlPic=

> <r_lp_tautomer_probability>
1

> <r_epik_Ionization_Penalty>
0.00271172

> <r_epik_Ionization_Penalty_Charging>
0

> <r_epik_Ionization_Penalty_Neutral>
0.00271172

> <r_epik_State_Penalty>
0.00186503

> <r_epik_Charging_Adjusted_Penalty>
0.00186503

> <i_epik_Tot_Q>
0

> <i_epik_Tot_abs_Q>
0

> <r_epik_Metal_State_Penalty>
-0

> <b_epik_Metal_Only>
0

> <s_lp_Force_Field>
OPLS_2005

> <r_lp_Energy>
36.1099

> <b_lp_Chiralities_Consistent>
1

> <s_lp_Variant>
AV-unprocessed.smi:1413-9

> <Gold.Version>
5.8.1

> <Gold.Id.Protein>
6NUR|6NUR_protein|mol2

> <Gold.PLP.Fitness>
47.8979

> <Gold.PLP.PLP>
-43.3771

> <Gold.PLP.part.hbond>
-3.2642

> <Gold.PLP.part.metal>
0.0000

> <Gold.PLP.part.buried>
-6.3077

> <Gold.PLP.part.nonpolar>
-35.7641

> <Gold.PLP.part.repulsive>
0.9121

> <Gold.PLP.ligand.clash>
0.0000

> <Gold.PLP.ligand.torsion>
0.7344

> <Gold.PLP.Chemscore.Hbond>
1.8882

> <Gold.PLP.Chemscore.CHOScore>
0.0000

> <Gold.PLP.Chemscore.Metal>
0.0000

> <Gold.Chemscore.Hbonds>
donor molecule, donor type, donor heavy atom, donor atom, acceptor molecule, acceptor atom, score
      L1  H     9    34       P1  7948  0.88
      L1  H    12    35       P1  7948  0.88

> <Gold.PLP.Chemscore.Internal.Correction>
0.3251

> <Gold.Rescore>
     Score         DG    S(hbond)    S(metal)    S(lipo)     H(rot)  DE(clash)    DE(int)     intcor
     17.91     -21.68       1.93        0.00     112.86       1.35       0.26       3.51       ----

> <Gold.Chemscore.Fitness>
17.9128

> <Gold.Chemscore.DG>
-21.6843

> <Gold.Chemscore.ZeroCoef>
-5.4800

> <Gold.Chemscore.Hbond>
1.9305

> <Gold.Chemscore.Metal>
0.0000

> <Gold.Chemscore.Lipo>
112.8635

> <Gold.Chemscore.Internal_Hbond>
0.0000

> <Gold.Chemscore.DEClash>
0.2604

> <Gold.Chemscore.DEInternal>
3.5111

> <Gold.Chemscore.Rot>
1.3471

> <Gold.Chemscore.Internal.Correction>
   9.000000E+99

> <Gold.Chemscore.Hbonds>
donor molecule, donor type, donor heavy atom, donor atom, acceptor molecule, acceptor atom, score
      L1  H     9    34       P1  7948  0.82
      L1  H    12    35       P1  7948  0.86

> <Gold.Chemscore.Hbond.Weighted>
-6.4478

> <Gold.Chemscore.Metal.Weighted>
-0.0000

> <Gold.Chemscore.Lipo.Weighted>
-13.2050

> <Gold.Chemscore.Internal_Hbond.Weighted>
0.0000

> <Gold.Chemscore.DEClash.Weighted>
0.2604

> <Gold.Chemscore.DEInternal.Weighted>
3.5111

> <Gold.Chemscore.Rot.Weighted>
3.4485

> <Gold.Chemscore.Internal.Correction.Weighted>
   9.000000E+99

> <Gold.Protein.RotatedTorsions>
[ 6907 6896 6895 6894 ] final -107.31 input  -60.11 | X-H torsion
[ 7974 7965 7964 7962 ] final   60.57 input  175.53 | X-H torsion
[ 8008 7997 7996 7995 ] final  170.79 input   59.86 | X-H torsion
[ 10167 10162 10161 10158 ] final   51.23 input  -65.29 | X-H torsion
[ 10718 10713 10712 10709 ] final  134.09 input   66.30 | X-H torsion
[ 10763 10752 10751 10750 ] final  134.08 input  -60.55 | X-H torsion
[ 11005 11000 10999 10996 ] final  -28.94 input  -57.11 | X-H torsion

> <Gold.Protein.ActiveResidues>
 VAL166  LYS551  ARG553  GLY616  TRP617  ASP618  TYR619  PRO620  LYS621  CYS622 
 ASP623  PHE694  ASN695  SER759  ASP760  ASP761  ALA762  ILE779  LEU786  VAL792 
 PHE793  MET794  SER795  GLU796  ALA797  LYS798  CYS799  TRP800  GLU811  SER814 

> <Gold.Protein.RotatedAtoms>
  150.7437  133.9846  159.3587 H   0  0  0  0  0  0  0  0  0  0  0  0  # atno 6907 bound_to 6896
  151.7789  135.0764  160.0380 H   0  0  0  0  0  0  0  0  0  0  0  0  # atno 6908 bound_to 6896
  152.3287  133.5897  159.5831 H   0  0  0  0  0  0  0  0  0  0  0  0  # atno 6909 bound_to 6896
  145.8946  139.3536  143.0629 H   0  0  0  0  0  0  0  0  0  0  0  0  # atno 7974 bound_to 7965
  156.1332  140.1529  156.9033 H   0  0  0  0  0  0  0  0  0  0  0  0  # atno 8008 bound_to 7997
  154.4926  140.0847  156.7667 H   0  0  0  0  0  0  0  0  0  0  0  0  # atno 8009 bound_to 7997
  155.4217  140.3423  155.4274 H   0  0  0  0  0  0  0  0  0  0  0  0  # atno 8010 bound_to 7997
  140.2641  144.3340  150.6309 H   0  0  0  0  0  0  0  0  0  0  0  0  # atno 10167 bound_to 10162
  157.4708  131.1080  150.9805 H   0  0  0  0  0  0  0  0  0  0  0  0  # atno 10718 bound_to 10713
  153.8177  135.3120  155.3407 H   0  0  0  0  0  0  0  0  0  0  0  0  # atno 10763 bound_to 10752
  154.8026  135.4717  154.0315 H   0  0  0  0  0  0  0  0  0  0  0  0  # atno 10764 bound_to 10752
  153.1713  135.6878  153.8693 H   0  0  0  0  0  0  0  0  0  0  0  0  # atno 10765 bound_to 10752
  140.9252  133.7373  156.0858 H   0  0  0  0  0  0  0  0  0  0  0  0  # atno 11005 bound_to 11000
  145.8866  140.9329  143.0573 LP  0  0  0  0  0  0  0  0  0  0  0  0  # atno 17320 bound_to 7965
  144.6732  140.0851  143.7467 LP  0  0  0  0  0  0  0  0  0  0  0  0  # atno 17321 bound_to 7965
  140.5942  143.2167  151.7195 LP  0  0  0  0  0  0  0  0  0  0  0  0  # atno 17342 bound_to 10162
  139.5008  144.3892  152.0297 LP  0  0  0  0  0  0  0  0  0  0  0  0  # atno 17343 bound_to 10162
  157.0571  130.5810  149.5379 LP  0  0  0  0  0  0  0  0  0  0  0  0  # atno 17370 bound_to 10713
  156.0072  130.5160  150.7870 LP  0  0  0  0  0  0  0  0  0  0  0  0  # atno 17371 bound_to 10713
  140.7935  134.3591  157.5458 LP  0  0  0  0  0  0  0  0  0  0  0  0  # atno 17394 bound_to 11000
  139.8784  134.9154  156.3131 LP  0  0  0  0  0  0  0  0  0  0  0  0  # atno 17395 bound_to 11000

$$$$
