AV-unprocessed.smi:618|AV-procd|sdf|3076|dock2
  -GOLD-   22720 0 03D 1   1.00000     0.00000
 Structure written by MMmdl.
 41 43  0  0  0  0  0  0  0  0  2 V2000
  145.0758  138.0897  152.8186 O   0  0  0  0  0  0  0  0  0  0  0  0
  146.1526  137.5703  152.5265 C   0  0  0  0  0  0  0  0  0  0  0  0
  146.2539  136.3997  151.8818 N   0  0  0  0  0  0  0  0  0  0  0  0
  145.1253  135.5932  151.4295 C   0  0  0  0  0  0  0  0  0  0  0  0
  145.3252  134.1000  151.7439 C   0  0  2  0  0  0  0  0  0  0  0  0
  146.7467  133.6226  151.3909 C   0  0  0  0  0  0  0  0  0  0  0  0
  146.8980  132.1599  151.5726 N   0  3  1  0  0  0  0  0  0  0  0  0
  147.1253  131.6873  152.9563 C   0  0  0  0  0  0  0  0  0  0  0  0
  146.4989  130.2866  153.0424 C   0  0  0  0  0  0  0  0  0  0  0  0
  145.9881  129.9796  151.6306 C   0  0  0  0  0  0  0  0  0  0  0  0
  145.8023  131.3568  150.9919 C   0  0  1  0  0  0  0  0  0  0  0  0
  144.4206  131.9694  151.3154 C   0  0  0  0  0  0  0  0  0  0  0  0
  144.3989  133.3469  150.9692 O   0  0  0  0  0  0  0  0  0  0  0  0
  147.3651  138.0743  152.8114 N   0  0  0  0  0  0  0  0  0  0  0  0
  147.6864  139.2968  153.4609 C   0  0  0  0  0  0  0  0  0  0  0  0
  148.8376  139.3291  154.2746 C   0  0  0  0  0  0  0  0  0  0  0  0
  149.1917  140.5307  154.9166 C   0  0  0  0  0  0  0  0  0  0  0  0
  148.3806  141.6634  154.7112 C   0  0  0  0  0  0  0  0  0  0  0  0
  147.2842  141.6553  153.9242 N   0  0  0  0  0  0  0  0  0  0  0  0
  146.9491  140.4983  153.3132 C   0  0  0  0  0  0  0  0  0  0  0  0
  147.1774  136.0423  151.6841 H   0  0  0  0  0  0  0  0  0  0  0  0
  144.2222  135.9624  151.9163 H   0  0  0  0  0  0  0  0  0  0  0  0
  144.9810  135.7392  150.3576 H   0  0  0  0  0  0  0  0  0  0  0  0
  145.1372  133.9326  152.8057 H   0  0  0  0  0  0  0  0  0  0  0  0
  146.9551  133.8511  150.3449 H   0  0  0  0  0  0  0  0  0  0  0  0
  147.4967  134.1496  151.9817 H   0  0  0  0  0  0  0  0  0  0  0  0
  148.1947  131.6685  153.1682 H   0  0  0  0  0  0  0  0  0  0  0  0
  146.6559  132.3510  153.6836 H   0  0  0  0  0  0  0  0  0  0  0  0
  147.2110  129.5362  153.3870 H   0  0  0  0  0  0  0  0  0  0  0  0
  145.6673  130.2965  153.7482 H   0  0  0  0  0  0  0  0  0  0  0  0
  146.7511  129.4250  151.0823 H   0  0  0  0  0  0  0  0  0  0  0  0
  145.0787  129.3774  151.6286 H   0  0  0  0  0  0  0  0  0  0  0  0
  145.9263  131.3068  149.9094 H   0  0  0  0  0  0  0  0  0  0  0  0
  143.6433  131.4521  150.7529 H   0  0  0  0  0  0  0  0  0  0  0  0
  144.1674  131.8551  152.3709 H   0  0  0  0  0  0  0  0  0  0  0  0
  148.1543  137.4898  152.5779 H   0  0  0  0  0  0  0  0  0  0  0  0
  149.4423  138.4440  154.4103 H   0  0  0  0  0  0  0  0  0  0  0  0
  150.0643  140.5836  155.5506 H   0  0  0  0  0  0  0  0  0  0  0  0
  148.6220  142.6024  155.1869 H   0  0  0  0  0  0  0  0  0  0  0  0
  146.0796  140.5627  152.6781 H   0  0  0  0  0  0  0  0  0  0  0  0
  147.7313  131.8911  151.0686 H   0  0  0  0  0  0  0  0  0  0  0  0
  1  2  2  0  0  0  0
  2  3  1  0  0  0  0
  2 14  1  0  0  0  0
  3  4  1  0  0  0  0
  3 21  1  0  0  0  0
  4  5  1  0  0  0  0
  4 22  1  0  0  0  0
  4 23  1  0  0  0  0
  5 13  1  0  0  0  0
  5  6  1  0  0  0  0
  5 24  1  0  0  0  0
  6  7  1  0  0  0  0
  6 25  1  0  0  0  0
  6 26  1  0  0  0  0
  7 11  1  0  0  0  0
  7  8  1  0  0  0  0
  7 41  1  0  0  0  0
  8  9  1  0  0  0  0
  8 27  1  0  0  0  0
  8 28  1  0  0  0  0
  9 10  1  0  0  0  0
  9 29  1  0  0  0  0
  9 30  1  0  0  0  0
 10 11  1  0  0  0  0
 10 31  1  0  0  0  0
 10 32  1  0  0  0  0
 11 12  1  0  0  0  0
 11 33  1  0  0  0  0
 12 13  1  0  0  0  0
 12 34  1  0  0  0  0
 12 35  1  0  0  0  0
 14 15  1  0  0  0  0
 14 36  1  0  0  0  0
 15 20  1  0  0  0  0
 15 16  2  0  0  0  0
 16 17  1  0  0  0  0
 16 37  1  0  0  0  0
 17 18  2  0  0  0  0
 17 38  1  0  0  0  0
 18 19  1  0  0  0  0
 18 39  1  0  0  0  0
 19 20  2  0  0  0  0
 20 40  1  0  0  0  0
M  CHG  1   7   1
M  END
> <s_m_source_file>
AV-unprocessed.smi

> <i_m_source_file_index>
618

> <i_lp_mmshare_version>
43012

> <i_f3d_flags>
0

> <s_epik_input>
W2NIXTFuW2NIXVtjSF1bY0hdYzFbTkhdQyg9TylbTkhdW0NIMl1bQ0BIXShbQ0gyXTIpT1tDSDJdW0NAQEhdKE4yMylbQ0gyXVtDSDJdW0NIMl0z

> <s_epik_cmdline>
J2VwaWtfcHl0aG9uJywgJy1waCcsICc3LjAnLCAnLXRuJywgJzgnLCAnLW1hJywgJzIwMCcsICctbWV0YWxfYmluZGluZycsICctaW1hZScsICc8aW5maWxlLm1hZT4nLCAnLW9tYWUnLCAnPG91dGZpbGUubWFlPic=

> <r_epik_Ionization_Penalty>
0.111044

> <r_epik_Ionization_Penalty_Charging>
0.10673

> <r_epik_Ionization_Penalty_Neutral>
0.00431361

> <r_epik_State_Penalty>
0.0978747

> <r_epik_Charging_Adjusted_Penalty>
0.204605

> <i_epik_Tot_Q>
1

> <i_epik_Tot_abs_Q>
1

> <r_epik_Metal_State_Penalty>
0.0947591

> <b_epik_Metal_Only>
0

> <s_lp_Force_Field>
OPLS_2005

> <r_lp_Energy>
38.5016

> <b_lp_Chiralities_Consistent>
1

> <s_lp_Variant>
AV-unprocessed.smi:618-3

> <Gold.Version>
5.8.1

> <Gold.Id.Protein>
6NUR|6NUR_protein|mol2

> <Gold.PLP.Fitness>
48.1185

> <Gold.PLP.PLP>
-34.2531

> <Gold.PLP.part.hbond>
-3.0957

> <Gold.PLP.part.metal>
0.0000

> <Gold.PLP.part.buried>
-2.2484

> <Gold.PLP.part.nonpolar>
-30.8335

> <Gold.PLP.part.repulsive>
2.7687

> <Gold.PLP.ligand.clash>
0.0000

> <Gold.PLP.ligand.torsion>
0.4602

> <Gold.PLP.Chemscore.Hbond>
2.9280

> <Gold.PLP.Chemscore.CHOScore>
2.0000

> <Gold.PLP.Chemscore.Metal>
0.0000

> <Gold.Chemscore.Hbonds>
donor molecule, donor type, donor heavy atom, donor atom, acceptor molecule, acceptor atom, score
      L1  H     3    21       P1  7948  0.99
      L1  H     7    41       P1 10747  1.00
      L1  H    14    36       P1  7948  1.00
      L1  C    18    39       P1  8028  1.00
      L1  C    20    40       P1 10175  1.00

> <Gold.PLP.Chemscore.Internal.Correction>
0.0019

> <Gold.Rescore>
     Score         DG    S(hbond)    S(metal)    S(lipo)     H(rot)  DE(clash)    DE(int)     intcor
     21.18     -22.24       2.92        0.00      87.64       1.27       0.66       0.40       ----

> <Gold.Chemscore.Fitness>
21.1789

> <Gold.Chemscore.DG>
-22.2353

> <Gold.Chemscore.ZeroCoef>
-5.4800

> <Gold.Chemscore.Hbond>
2.9166

> <Gold.Chemscore.Metal>
0.0000

> <Gold.Chemscore.Lipo>
87.6388

> <Gold.Chemscore.Internal_Hbond>
0.0000

> <Gold.Chemscore.DEClash>
0.6553

> <Gold.Chemscore.DEInternal>
0.4011

> <Gold.Chemscore.Rot>
1.2656

> <Gold.Chemscore.Internal.Correction>
   9.000000E+99

> <Gold.Chemscore.Hbonds>
donor molecule, donor type, donor heavy atom, donor atom, acceptor molecule, acceptor atom, score
      L1  H     3    21       P1  7948  0.93
      L1  H     7    41       P1 10747  1.00
      L1  H    14    36       P1  7948  0.98

> <Gold.Chemscore.Hbond.Weighted>
-9.7414

> <Gold.Chemscore.Metal.Weighted>
-0.0000

> <Gold.Chemscore.Lipo.Weighted>
-10.2537

> <Gold.Chemscore.Internal_Hbond.Weighted>
0.0000

> <Gold.Chemscore.DEClash.Weighted>
0.6553

> <Gold.Chemscore.DEInternal.Weighted>
0.4011

> <Gold.Chemscore.Rot.Weighted>
3.2399

> <Gold.Chemscore.Internal.Correction.Weighted>
   9.000000E+99

> <Gold.Protein.RotatedTorsions>
[ 6907 6896 6895 6894 ] final -105.34 input  -60.11 | X-H torsion
[ 7974 7965 7964 7962 ] final   82.85 input  175.53 | X-H torsion
[ 8008 7997 7996 7995 ] final   19.15 input   59.86 | X-H torsion
[ 10167 10162 10161 10158 ] final -168.71 input  -65.29 | X-H torsion
[ 10718 10713 10712 10709 ] final -159.95 input   66.30 | X-H torsion
[ 10763 10752 10751 10750 ] final  -23.83 input  -60.55 | X-H torsion
[ 11005 11000 10999 10996 ] final -118.74 input  -57.11 | X-H torsion

> <Gold.Protein.ActiveResidues>
 VAL166  LYS551  ARG553  GLY616  TRP617  ASP618  TYR619  PRO620  LYS621  CYS622 
 ASP623  PHE694  ASN695  SER759  ASP760  ASP761  ALA762  ILE779  LEU786  VAL792 
 PHE793  MET794  SER795  GLU796  ALA797  LYS798  CYS799  TRP800  GLU811  SER814 

> <Gold.Protein.RotatedAtoms>
  150.7332  134.0141  159.3679 H   0  0  0  0  0  0  0  0  0  0  0  0  # atno 6907 bound_to 6896
  151.8103  135.0681  160.0421 H   0  0  0  0  0  0  0  0  0  0  0  0  # atno 6908 bound_to 6896
  152.3078  133.5685  159.5697 H   0  0  0  0  0  0  0  0  0  0  0  0  # atno 6909 bound_to 6896
  145.6196  139.2383  143.2146 H   0  0  0  0  0  0  0  0  0  0  0  0  # atno 7974 bound_to 7965
  154.9164  140.3021  155.5239 H   0  0  0  0  0  0  0  0  0  0  0  0  # atno 8008 bound_to 7997
  156.3012  140.2379  156.4145 H   0  0  0  0  0  0  0  0  0  0  0  0  # atno 8009 bound_to 7997
  154.8374  140.0415  157.1507 H   0  0  0  0  0  0  0  0  0  0  0  0  # atno 8010 bound_to 7997
  139.5968  144.1095  152.1698 H   0  0  0  0  0  0  0  0  0  0  0  0  # atno 10167 bound_to 10162
  156.5753  130.8706  151.2849 H   0  0  0  0  0  0  0  0  0  0  0  0  # atno 10718 bound_to 10713
  153.6741  135.6970  153.5138 H   0  0  0  0  0  0  0  0  0  0  0  0  # atno 10763 bound_to 10752
  153.2535  135.4267  155.0821 H   0  0  0  0  0  0  0  0  0  0  0  0  # atno 10764 bound_to 10752
  154.8418  135.3537  154.6285 H   0  0  0  0  0  0  0  0  0  0  0  0  # atno 10765 bound_to 10752
  141.0265  134.0046  157.3207 H   0  0  0  0  0  0  0  0  0  0  0  0  # atno 11005 bound_to 11000
  146.1441  140.7017  142.9353 LP  0  0  0  0  0  0  0  0  0  0  0  0  # atno 17320 bound_to 7965
  144.7236  140.4454  143.6989 LP  0  0  0  0  0  0  0  0  0  0  0  0  # atno 17321 bound_to 7965
  140.0682  144.5801  150.7211 LP  0  0  0  0  0  0  0  0  0  0  0  0  # atno 17342 bound_to 10162
  140.7218  143.2596  151.4253 LP  0  0  0  0  0  0  0  0  0  0  0  0  # atno 17343 bound_to 10162
  157.7339  130.9737  150.2001 LP  0  0  0  0  0  0  0  0  0  0  0  0  # atno 17370 bound_to 10713
  156.2679  130.3718  149.8062 LP  0  0  0  0  0  0  0  0  0  0  0  0  # atno 17371 bound_to 10713
  139.9179  135.0198  156.7953 LP  0  0  0  0  0  0  0  0  0  0  0  0  # atno 17394 bound_to 11000
  140.6482  133.9755  155.7742 LP  0  0  0  0  0  0  0  0  0  0  0  0  # atno 17395 bound_to 11000

$$$$
