AV-unprocessed.smi:1185|AV-procd|sdf|4974|dock1
  -GOLD-   22720 3563D 1   1.00000     0.00000
 Structure written by MMmdl.
 38 40  0  0  0  0  0  0  0  0  1 V2000
  152.5356  138.4606  158.3905 O   0  0  0  0  0  0  0  0  0  0  0  0
  152.4804  139.6602  158.6640 C   0  0  0  0  0  0  0  0  0  0  0  0
  153.2791  140.2896  159.7266 C   0  0  0  0  0  0  0  0  0  0  0  0
  154.2276  139.4029  160.5290 C   0  0  0  0  0  0  0  0  0  0  0  0
  155.1249  138.8037  159.7449 F   0  0  0  0  0  0  0  0  0  0  0  0
  154.8916  140.1259  161.4314 F   0  0  0  0  0  0  0  0  0  0  0  0
  153.5503  138.4518  161.1733 F   0  0  0  0  0  0  0  0  0  0  0  0
  153.1705  141.6203  159.9605 C   0  0  0  0  0  0  0  0  0  0  0  0
  152.2625  142.4296  159.1732 C   0  0  0  0  0  0  0  0  0  0  0  0
  152.1053  143.9097  159.3687 C   0  0  0  0  0  0  0  0  0  0  0  0
  151.2035  144.7361  158.4807 C   0  0  0  0  0  0  0  0  0  0  0  0
  152.7022  144.9092  158.4041 C   0  0  0  0  0  0  0  0  0  0  0  0
  151.5531  141.8731  158.2506 N   0  0  0  0  0  0  0  0  0  0  0  0
  151.6696  140.5229  157.9839 N   0  0  0  0  0  0  0  0  0  0  0  0
  150.8661  140.0655  156.8420 C   0  0  0  0  0  0  0  0  0  0  0  0
  151.2311  140.7983  155.5299 C   0  0  1  0  0  0  0  0  0  0  0  0
  152.4630  140.2859  155.0632 O   0  0  0  0  0  0  0  0  0  0  0  0
  150.1296  140.7074  154.4776 C   0  0  0  0  0  0  0  0  0  0  0  0
  149.5271  141.8846  153.9800 C   0  0  0  0  0  0  0  0  0  0  0  0
  148.5312  141.8114  152.9875 C   0  0  0  0  0  0  0  0  0  0  0  0
  148.1314  140.5600  152.4825 C   0  0  0  0  0  0  0  0  0  0  0  0
  148.7307  139.3829  152.9692 C   0  0  0  0  0  0  0  0  0  0  0  0
  149.7268  139.4535  153.9625 C   0  0  0  0  0  0  0  0  0  0  0  0
  150.3006  138.3100  154.4077 F   0  0  0  0  0  0  0  0  0  0  0  0
  153.7516  142.1021  160.7325 H   0  0  0  0  0  0  0  0  0  0  0  0
  152.1315  144.1656  160.4262 H   0  0  0  0  0  0  0  0  0  0  0  0
  150.7141  144.2383  157.6458 H   0  0  0  0  0  0  0  0  0  0  0  0
  150.6283  145.5311  158.9506 H   0  0  0  0  0  0  0  0  0  0  0  0
  153.1249  145.8201  158.8229 H   0  0  0  0  0  0  0  0  0  0  0  0
  153.2001  144.5314  157.5130 H   0  0  0  0  0  0  0  0  0  0  0  0
  150.9761  138.9870  156.7141 H   0  0  0  0  0  0  0  0  0  0  0  0
  149.8075  140.2200  157.0606 H   0  0  0  0  0  0  0  0  0  0  0  0
  151.4122  141.8494  155.7551 H   0  0  0  0  0  0  0  0  0  0  0  0
  152.4627  139.3490  155.1867 H   0  0  0  0  0  0  0  0  0  0  0  0
  149.8339  142.8507  154.3529 H   0  0  0  0  0  0  0  0  0  0  0  0
  148.0768  142.7161  152.6113 H   0  0  0  0  0  0  0  0  0  0  0  0
  147.3697  140.5033  151.7189 H   0  0  0  0  0  0  0  0  0  0  0  0
  148.4288  138.4230  152.5770 H   0  0  0  0  0  0  0  0  0  0  0  0
  1  2  2  0  0  0  0
  2 14  1  0  0  0  0
  2  3  1  0  0  0  0
  3  4  1  0  0  0  0
  3  8  2  0  0  0  0
  4  5  1  0  0  0  0
  4  6  1  0  0  0  0
  4  7  1  0  0  0  0
  8  9  1  0  0  0  0
  8 25  1  0  0  0  0
  9 10  1  0  0  0  0
  9 13  2  0  0  0  0
 10 12  1  0  0  0  0
 10 11  1  0  0  0  0
 10 26  1  0  0  0  0
 11 12  1  0  0  0  0
 11 27  1  0  0  0  0
 11 28  1  0  0  0  0
 12 29  1  0  0  0  0
 12 30  1  0  0  0  0
 13 14  1  0  0  0  0
 14 15  1  0  0  0  0
 15 16  1  0  0  0  0
 15 31  1  0  0  0  0
 15 32  1  0  0  0  0
 16 17  1  0  0  0  0
 16 18  1  0  0  0  0
 16 33  1  0  0  0  0
 17 34  1  0  0  0  0
 18 23  1  0  0  0  0
 18 19  2  0  0  0  0
 19 20  1  0  0  0  0
 19 35  1  0  0  0  0
 20 21  2  0  0  0  0
 20 36  1  0  0  0  0
 21 22  1  0  0  0  0
 21 37  1  0  0  0  0
 22 23  2  0  0  0  0
 22 38  1  0  0  0  0
 23 24  1  0  0  0  0
M  END
> <s_m_source_file>
AV-unprocessed.smi

> <i_m_source_file_index>
1185

> <i_lp_mmshare_version>
43012

> <i_f3d_flags>
0

> <s_epik_input>
Tz1jMWMoQyhGKShGKUYpW2NIXWMoW0NIXTJbQ0gyXVtDSDJdMilubjFbQ0gyXVtDQEhdKFtPSF0pYzNbY0hdW2NIXVtjSF1bY0hdYzNG

> <s_epik_cmdline>
J2VwaWtfcHl0aG9uJywgJy1waCcsICc3LjAnLCAnLXRuJywgJzgnLCAnLW1hJywgJzIwMCcsICctbWV0YWxfYmluZGluZycsICctaW1hZScsICc8aW5maWxlLm1hZT4nLCAnLW9tYWUnLCAnPG91dGZpbGUubWFlPic=

> <r_lp_tautomer_probability>
1

> <r_epik_Ionization_Penalty>
7.26807e-08

> <r_epik_Ionization_Penalty_Charging>
9.677e-10

> <r_epik_Ionization_Penalty_Neutral>
7.1713e-08

> <r_epik_State_Penalty>
-0

> <r_epik_Charging_Adjusted_Penalty>
9.677e-10

> <i_epik_Tot_Q>
0

> <i_epik_Tot_abs_Q>
0

> <r_epik_Metal_State_Penalty>
-0

> <b_epik_Metal_Only>
0

> <s_lp_Force_Field>
OPLS_2005

> <r_lp_Energy>
30.0942

> <b_lp_Chiralities_Consistent>
1

> <s_lp_Variant>
AV-unprocessed.smi:1185-2

> <Gold.Version>
5.8.1

> <Gold.Id.Protein>
6NUR|6NUR_protein|mol2

> <Gold.PLP.Fitness>
52.4057

> <Gold.PLP.PLP>
-51.1725

> <Gold.PLP.part.hbond>
-1.0000

> <Gold.PLP.part.metal>
0.0000

> <Gold.PLP.part.buried>
-4.6988

> <Gold.PLP.part.nonpolar>
-45.2935

> <Gold.PLP.part.repulsive>
0.0112

> <Gold.PLP.ligand.clash>
1.3440

> <Gold.PLP.ligand.torsion>
0.3562

> <Gold.PLP.Chemscore.Hbond>
0.8640

> <Gold.PLP.Chemscore.CHOScore>
0.0000

> <Gold.PLP.Chemscore.Metal>
0.0000

> <Gold.PLP.Chemscore.Internal.Correction>
0.6976

> <Gold.Rescore>
     Score         DG    S(hbond)    S(metal)    S(lipo)     H(rot)  DE(clash)    DE(int)     intcor
     12.68     -16.30       0.80        0.00     117.66       2.20       0.18       3.44       ----

> <Gold.Chemscore.Fitness>
12.6777

> <Gold.Chemscore.DG>
-16.3004

> <Gold.Chemscore.ZeroCoef>
-5.4800

> <Gold.Chemscore.Hbond>
0.8043

> <Gold.Chemscore.Metal>
0.0000

> <Gold.Chemscore.Lipo>
117.6647

> <Gold.Chemscore.Internal_Hbond>
0.0000

> <Gold.Chemscore.DEClash>
0.1819

> <Gold.Chemscore.DEInternal>
3.4408

> <Gold.Chemscore.Rot>
2.2003

> <Gold.Chemscore.Internal.Correction>
   9.000000E+99

> <Gold.Chemscore.Hbond.Weighted>
-2.6864

> <Gold.Chemscore.Metal.Weighted>
-0.0000

> <Gold.Chemscore.Lipo.Weighted>
-13.7668

> <Gold.Chemscore.Internal_Hbond.Weighted>
0.0000

> <Gold.Chemscore.DEClash.Weighted>
0.1819

> <Gold.Chemscore.DEInternal.Weighted>
3.4408

> <Gold.Chemscore.Rot.Weighted>
5.6328

> <Gold.Chemscore.Internal.Correction.Weighted>
   9.000000E+99

> <Gold.Protein.RotatedTorsions>
[ 6907 6896 6895 6894 ] final  163.15 input  -60.11 | X-H torsion
[ 7974 7965 7964 7962 ] final  -19.67 input  175.53 | X-H torsion
[ 8008 7997 7996 7995 ] final  -77.54 input   59.86 | X-H torsion
[ 10167 10162 10161 10158 ] final -129.96 input  -65.29 | X-H torsion
[ 10718 10713 10712 10709 ] final  163.83 input   66.30 | X-H torsion
[ 10763 10752 10751 10750 ] final  118.25 input  -60.55 | X-H torsion
[ 11005 11000 10999 10996 ] final  144.90 input  -57.11 | X-H torsion

> <Gold.Protein.ActiveResidues>
 VAL166  LYS551  ARG553  GLY616  TRP617  ASP618  TYR619  PRO620  LYS621  CYS622 
 ASP623  PHE694  ASN695  SER759  ASP760  ASP761  ALA762  ILE779  LEU786  VAL792 
 PHE793  MET794  SER795  GLU796  ALA797  LYS798  CYS799  TRP800  GLU811  SER814 

> <Gold.Protein.RotatedAtoms>
  151.9296  133.3607  159.3925 H   0  0  0  0  0  0  0  0  0  0  0  0  # atno 6907 bound_to 6896
  150.7020  134.4551  159.5364 H   0  0  0  0  0  0  0  0  0  0  0  0  # atno 6908 bound_to 6896
  152.2189  134.8431  160.0539 H   0  0  0  0  0  0  0  0  0  0  0  0  # atno 6909 bound_to 6896
  146.1829  140.4095  142.8487 H   0  0  0  0  0  0  0  0  0  0  0  0  # atno 7974 bound_to 7965
  154.5605  140.0709  156.8812 H   0  0  0  0  0  0  0  0  0  0  0  0  # atno 8008 bound_to 7997
  155.2820  140.3372  155.4239 H   0  0  0  0  0  0  0  0  0  0  0  0  # atno 8009 bound_to 7997
  156.2038  140.1732  156.7828 H   0  0  0  0  0  0  0  0  0  0  0  0  # atno 8010 bound_to 7997
  139.9343  143.6236  152.2521 H   0  0  0  0  0  0  0  0  0  0  0  0  # atno 10167 bound_to 10162
  157.1029  131.0448  151.2490 H   0  0  0  0  0  0  0  0  0  0  0  0  # atno 10718 bound_to 10713
  153.5648  135.3513  155.2814 H   0  0  0  0  0  0  0  0  0  0  0  0  # atno 10763 bound_to 10752
  154.8690  135.4145  154.2790 H   0  0  0  0  0  0  0  0  0  0  0  0  # atno 10764 bound_to 10752
  153.3544  135.7057  153.6832 H   0  0  0  0  0  0  0  0  0  0  0  0  # atno 10765 bound_to 10752
  140.0669  134.9173  157.1279 H   0  0  0  0  0  0  0  0  0  0  0  0  # atno 11005 bound_to 11000
  144.8346  140.6761  143.6269 LP  0  0  0  0  0  0  0  0  0  0  0  0  # atno 17320 bound_to 7965
  145.4024  139.1595  143.4170 LP  0  0  0  0  0  0  0  0  0  0  0  0  # atno 17321 bound_to 7965
  139.6756  144.7659  151.1702 LP  0  0  0  0  0  0  0  0  0  0  0  0  # atno 17342 bound_to 10162
  140.7629  143.5800  150.8905 LP  0  0  0  0  0  0  0  0  0  0  0  0  # atno 17343 bound_to 10162
  157.4625  130.7661  149.7249 LP  0  0  0  0  0  0  0  0  0  0  0  0  # atno 17370 bound_to 10713
  155.9869  130.3971  150.3191 LP  0  0  0  0  0  0  0  0  0  0  0  0  # atno 17371 bound_to 10713
  140.3686  134.2416  155.7180 LP  0  0  0  0  0  0  0  0  0  0  0  0  # atno 17394 bound_to 11000
  141.1996  133.8007  157.0528 LP  0  0  0  0  0  0  0  0  0  0  0  0  # atno 17395 bound_to 11000

$$$$
