AV-unprocessed.smi:1100|AV-procd|sdf|4760|dock9
  -GOLD-   22720 3293D 1   1.00000     0.00000
 Structure written by MMmdl.
 43 44  0  0  0  0  0  0  0  0  1 V2000
  150.1677  136.1248  157.3761 C   0  0  0  0  0  0  0  0  0  0  0  0
  149.9057  135.9084  155.8637 C   0  0  1  0  0  0  0  0  0  0  0  0
  148.4233  135.4747  155.6645 C   0  0  0  0  0  0  0  0  0  0  0  0
  148.0776  135.2040  154.2713 N   0  0  0  0  0  0  0  0  0  0  0  0
  147.0511  134.4436  153.8641 C   0  0  0  0  0  0  0  0  0  0  0  0
  146.2984  133.8577  154.6414 O   0  0  0  0  0  0  0  0  0  0  0  0
  146.9628  134.4383  152.5215 N   0  0  0  0  0  0  0  0  0  0  0  0
  146.0401  133.7779  151.6981 C   0  0  0  0  0  0  0  0  0  0  0  0
  144.5923  133.8274  151.8442 C   0  0  0  0  0  0  0  0  0  0  0  0
  143.7893  133.1545  150.9962 C   0  0  0  0  0  0  0  0  0  0  0  0
  144.3297  132.3489  149.8984 C   0  0  0  0  0  0  0  0  0  0  0  0
  143.6054  131.7329  149.1161 O   0  0  0  0  0  0  0  0  0  0  0  0
  145.6901  132.3234  149.8014 N   0  0  0  0  0  0  0  0  0  0  0  0
  146.3303  131.5428  148.7398 C   0  0  0  0  0  0  0  0  0  0  0  0
  146.5231  133.0257  150.6924 C   0  0  0  0  0  0  0  0  0  0  0  0
  150.2886  137.0812  155.0431 N   0  0  0  0  0  0  0  0  0  0  0  0
  149.3961  138.2276  155.2520 C   0  0  0  0  0  0  0  0  0  0  0  0
  149.8029  139.4627  154.4300 C   0  0  0  0  0  0  0  0  0  0  0  0
  151.1408  139.8247  154.7408 O   0  0  0  0  0  0  0  0  0  0  0  0
  152.0529  138.7680  154.4760 C   0  0  0  0  0  0  0  0  0  0  0  0
  151.6636  137.5269  155.2984 C   0  0  0  0  0  0  0  0  0  0  0  0
  149.8433  135.2789  157.9808 H   0  0  0  0  0  0  0  0  0  0  0  0
  149.6474  137.0094  157.7446 H   0  0  0  0  0  0  0  0  0  0  0  0
  151.2275  136.2388  157.5992 H   0  0  0  0  0  0  0  0  0  0  0  0
  150.5296  135.0690  155.5529 H   0  0  0  0  0  0  0  0  0  0  0  0
  148.2204  134.5736  156.2441 H   0  0  0  0  0  0  0  0  0  0  0  0
  147.7251  136.2321  156.0183 H   0  0  0  0  0  0  0  0  0  0  0  0
  148.6478  135.6500  153.5677 H   0  0  0  0  0  0  0  0  0  0  0  0
  147.6430  134.9977  152.0282 H   0  0  0  0  0  0  0  0  0  0  0  0
  144.1208  134.3867  152.6355 H   0  0  0  0  0  0  0  0  0  0  0  0
  142.7190  133.2046  151.1317 H   0  0  0  0  0  0  0  0  0  0  0  0
  147.4146  131.6582  148.7267 H   0  0  0  0  0  0  0  0  0  0  0  0
  145.9621  131.8497  147.7597 H   0  0  0  0  0  0  0  0  0  0  0  0
  146.1151  130.4808  148.8663 H   0  0  0  0  0  0  0  0  0  0  0  0
  147.5815  132.9189  150.5019 H   0  0  0  0  0  0  0  0  0  0  0  0
  148.3762  137.9777  154.9651 H   0  0  0  0  0  0  0  0  0  0  0  0
  149.3731  138.4899  156.3108 H   0  0  0  0  0  0  0  0  0  0  0  0
  149.7090  139.2648  153.3611 H   0  0  0  0  0  0  0  0  0  0  0  0
  149.1459  140.3019  154.6588 H   0  0  0  0  0  0  0  0  0  0  0  0
  152.0573  138.5391  153.4091 H   0  0  0  0  0  0  0  0  0  0  0  0
  153.0597  139.0941  154.7373 H   0  0  0  0  0  0  0  0  0  0  0  0
  151.7925  137.7412  156.3604 H   0  0  0  0  0  0  0  0  0  0  0  0
  152.3760  136.7452  155.0433 H   0  0  0  0  0  0  0  0  0  0  0  0
  1  2  1  0  0  0  0
  1 22  1  0  0  0  0
  1 23  1  0  0  0  0
  1 24  1  0  0  0  0
  2  3  1  0  0  0  0
  2 16  1  0  0  0  0
  2 25  1  0  0  0  0
  3  4  1  0  0  0  0
  3 26  1  0  0  0  0
  3 27  1  0  0  0  0
  4  5  1  0  0  0  0
  4 28  1  0  0  0  0
  5  6  2  0  0  0  0
  5  7  1  0  0  0  0
  7  8  1  0  0  0  0
  7 29  1  0  0  0  0
  8 15  2  0  0  0  0
  8  9  1  0  0  0  0
  9 10  2  0  0  0  0
  9 30  1  0  0  0  0
 10 11  1  0  0  0  0
 10 31  1  0  0  0  0
 11 12  2  0  0  0  0
 11 13  1  0  0  0  0
 13 14  1  0  0  0  0
 13 15  1  0  0  0  0
 14 32  1  0  0  0  0
 14 33  1  0  0  0  0
 14 34  1  0  0  0  0
 15 35  1  0  0  0  0
 16 21  1  0  0  0  0
 16 17  1  0  0  0  0
 17 18  1  0  0  0  0
 17 36  1  0  0  0  0
 17 37  1  0  0  0  0
 18 19  1  0  0  0  0
 18 38  1  0  0  0  0
 18 39  1  0  0  0  0
 19 20  1  0  0  0  0
 20 21  1  0  0  0  0
 20 40  1  0  0  0  0
 20 41  1  0  0  0  0
 21 42  1  0  0  0  0
 21 43  1  0  0  0  0
M  END
> <s_m_source_file>
AV-unprocessed.smi

> <i_m_source_file_index>
1100

> <i_lp_mmshare_version>
43012

> <i_f3d_flags>
0

> <s_epik_input>
W0NIMl0xW0NIMl1PW0NIMl1bQ0gyXU4xW0NASF0oW0NIM10pW0NIMl1bTkhdQyg9TylbTkhdYzJbY0hdW2NIXWMoPU8pbihbQ0gzXSlbY0hdMg==

> <s_epik_cmdline>
J2VwaWtfcHl0aG9uJywgJy1waCcsICc3LjAnLCAnLXRuJywgJzgnLCAnLW1hJywgJzIwMCcsICctbWV0YWxfYmluZGluZycsICctaW1hZScsICc8aW5maWxlLm1hZT4nLCAnLW9tYWUnLCAnPG91dGZpbGUubWFlPic=

> <r_lp_tautomer_probability>
1

> <r_epik_Ionization_Penalty>
0.266016

> <r_epik_Ionization_Penalty_Charging>
5.79683e-06

> <r_epik_Ionization_Penalty_Neutral>
0.26601

> <r_epik_State_Penalty>
0.257924

> <r_epik_Charging_Adjusted_Penalty>
0.25793

> <i_epik_Tot_Q>
0

> <i_epik_Tot_abs_Q>
0

> <r_epik_Metal_State_Penalty>
0.260326

> <b_epik_Metal_Only>
0

> <s_lp_Force_Field>
OPLS_2005

> <r_lp_Energy>
41.8839

> <b_lp_Chiralities_Consistent>
1

> <s_lp_Variant>
AV-unprocessed.smi:1100-2

> <Gold.Version>
5.8.1

> <Gold.Id.Protein>
6NUR|6NUR_protein|mol2

> <Gold.PLP.Fitness>
47.9388

> <Gold.PLP.PLP>
-34.4963

> <Gold.PLP.part.hbond>
-4.0000

> <Gold.PLP.part.metal>
0.0000

> <Gold.PLP.part.buried>
-4.8149

> <Gold.PLP.part.nonpolar>
-26.5755

> <Gold.PLP.part.repulsive>
0.5488

> <Gold.PLP.ligand.clash>
0.0000

> <Gold.PLP.ligand.torsion>
0.6636

> <Gold.PLP.Chemscore.Hbond>
3.9120

> <Gold.PLP.Chemscore.CHOScore>
1.0000

> <Gold.PLP.Chemscore.Metal>
0.0000

> <Gold.Chemscore.Hbonds>
donor molecule, donor type, donor heavy atom, donor atom, acceptor molecule, acceptor atom, score
      L1  H     4    28       P1  7948  1.00
      L1  H     7    29       P1  7948  1.00
      P1  H  7989  7998       L1    19  0.85
      P1  H 10785 10796       L1    12  0.86
      L1  C    15    35       P1 10747  1.00

> <Gold.PLP.Chemscore.Internal.Correction>
0.0338

> <Gold.Rescore>
     Score         DG    S(hbond)    S(metal)    S(lipo)     H(rot)  DE(clash)    DE(int)     intcor
     19.93     -20.77       3.15        0.00      73.55       1.49       0.10       0.73       ----

> <Gold.Chemscore.Fitness>
19.9338

> <Gold.Chemscore.DG>
-20.7691

> <Gold.Chemscore.ZeroCoef>
-5.4800

> <Gold.Chemscore.Hbond>
3.1462

> <Gold.Chemscore.Metal>
0.0000

> <Gold.Chemscore.Lipo>
73.5459

> <Gold.Chemscore.Internal_Hbond>
0.0000

> <Gold.Chemscore.DEClash>
0.1025

> <Gold.Chemscore.DEInternal>
0.7328

> <Gold.Chemscore.Rot>
1.4938

> <Gold.Chemscore.Internal.Correction>
   9.000000E+99

> <Gold.Chemscore.Hbonds>
donor molecule, donor type, donor heavy atom, donor atom, acceptor molecule, acceptor atom, score
      L1  H     4    28       P1  7948  0.95
      L1  H     7    29       P1  7948  0.84
      P1  H  7989  7998       L1    19  0.08
      P1  H 10785 10796       L1    12  0.85

> <Gold.Chemscore.Hbond.Weighted>
-10.5084

> <Gold.Chemscore.Metal.Weighted>
-0.0000

> <Gold.Chemscore.Lipo.Weighted>
-8.6049

> <Gold.Chemscore.Internal_Hbond.Weighted>
0.0000

> <Gold.Chemscore.DEClash.Weighted>
0.1025

> <Gold.Chemscore.DEInternal.Weighted>
0.7328

> <Gold.Chemscore.Rot.Weighted>
3.8242

> <Gold.Chemscore.Internal.Correction.Weighted>
   9.000000E+99

> <Gold.Protein.RotatedTorsions>
[ 6907 6896 6895 6894 ] final -143.29 input  -60.11 | X-H torsion
[ 7974 7965 7964 7962 ] final -126.46 input  175.53 | X-H torsion
[ 8008 7997 7996 7995 ] final  131.81 input   59.86 | X-H torsion
[ 10167 10162 10161 10158 ] final   99.41 input  -65.29 | X-H torsion
[ 10718 10713 10712 10709 ] final   25.24 input   66.30 | X-H torsion
[ 10763 10752 10751 10750 ] final   69.83 input  -60.55 | X-H torsion
[ 11005 11000 10999 10996 ] final  117.03 input  -57.11 | X-H torsion

> <Gold.Protein.ActiveResidues>
 VAL166  LYS551  ARG553  GLY616  TRP617  ASP618  TYR619  PRO620  LYS621  CYS622 
 ASP623  PHE694  ASN695  SER759  ASP760  ASP761  ALA762  ILE779  LEU786  VAL792 
 PHE793  MET794  SER795  GLU796  ALA797  LYS798  CYS799  TRP800  GLU811  SER814 

> <Gold.Protein.RotatedAtoms>
  151.0985  133.5261  159.2610 H   0  0  0  0  0  0  0  0  0  0  0  0  # atno 6907 bound_to 6896
  151.2101  135.0477  159.8918 H   0  0  0  0  0  0  0  0  0  0  0  0  # atno 6908 bound_to 6896
  152.5441  134.0802  159.8285 H   0  0  0  0  0  0  0  0  0  0  0  0  # atno 6909 bound_to 6896
  144.9870  140.7696  143.4577 H   0  0  0  0  0  0  0  0  0  0  0  0  # atno 7974 bound_to 7965
  156.2975  140.2562  156.2987 H   0  0  0  0  0  0  0  0  0  0  0  0  # atno 8008 bound_to 7997
  154.9439  140.0395  157.2129 H   0  0  0  0  0  0  0  0  0  0  0  0  # atno 8009 bound_to 7997
  154.8100  140.2843  155.5864 H   0  0  0  0  0  0  0  0  0  0  0  0  # atno 8010 bound_to 7997
  139.7619  144.6951  151.0279 H   0  0  0  0  0  0  0  0  0  0  0  0  # atno 10167 bound_to 10162
  157.1907  130.6844  149.6149 H   0  0  0  0  0  0  0  0  0  0  0  0  # atno 10718 bound_to 10713
  153.0308  135.5196  154.7348 H   0  0  0  0  0  0  0  0  0  0  0  0  # atno 10763 bound_to 10752
  154.6365  135.2907  155.0157 H   0  0  0  0  0  0  0  0  0  0  0  0  # atno 10764 bound_to 10752
  154.1090  135.6625  153.4934 H   0  0  0  0  0  0  0  0  0  0  0  0  # atno 10765 bound_to 10752
  139.9061  134.9605  156.7288 H   0  0  0  0  0  0  0  0  0  0  0  0  # atno 11005 bound_to 11000
  145.2339  139.2102  143.5028 LP  0  0  0  0  0  0  0  0  0  0  0  0  # atno 17320 bound_to 7965
  146.3422  140.2221  142.8591 LP  0  0  0  0  0  0  0  0  0  0  0  0  # atno 17321 bound_to 7965
  140.7808  143.4687  151.0177 LP  0  0  0  0  0  0  0  0  0  0  0  0  # atno 17342 bound_to 10162
  139.8373  143.7611  152.3180 LP  0  0  0  0  0  0  0  0  0  0  0  0  # atno 17343 bound_to 10162
  155.9712  130.4616  150.6114 LP  0  0  0  0  0  0  0  0  0  0  0  0  # atno 17370 bound_to 10713
  157.3864  131.0789  151.1432 LP  0  0  0  0  0  0  0  0  0  0  0  0  # atno 17371 bound_to 10713
  140.6941  133.9364  155.7984 LP  0  0  0  0  0  0  0  0  0  0  0  0  # atno 17394 bound_to 11000
  141.0420  134.0608  157.3891 LP  0  0  0  0  0  0  0  0  0  0  0  0  # atno 17395 bound_to 11000

$$$$
