AV-unprocessed.smi:135|AV-procd|sdf|1170|dock7
  -GOLD-   2262018313D 1   1.00000     0.00000
 Structure written by MMmdl.
 51 54  0  0  0  0  0  0  0  0  1 V2000
  154.0603  139.6623  154.2831 O   0  0  0  0  0  0  0  0  0  0  0  0
  153.9868  138.7443  155.0999 C   0  0  0  0  0  0  0  0  0  0  0  0
  152.7215  138.5651  155.9536 C   0  0  0  0  0  0  0  0  0  0  0  0
  151.9949  139.8288  156.2050 N   0  0  0  0  0  0  0  0  0  0  0  0
  151.0695  140.2809  155.2320 C   0  0  0  0  0  0  0  0  0  0  0  0
  150.8628  139.6388  154.2011 O   0  0  0  0  0  0  0  0  0  0  0  0
  150.3990  141.5397  155.5372 C   0  0  0  0  0  0  0  0  0  0  0  0
  149.4951  142.0377  154.6764 F   0  0  0  0  0  0  0  0  0  0  0  0
  150.6693  142.2139  156.6739 C   0  0  0  0  0  0  0  0  0  0  0  0
  151.5872  141.7681  157.6086 N   0  0  0  0  0  0  0  0  0  0  0  0
  151.8789  142.5361  158.8808 C   0  0  1  0  0  0  0  0  0  0  0  0
  152.6111  143.8544  158.5649 C   0  0  0  0  0  0  0  0  0  0  0  0
  151.7807  144.8840  159.3052 C   0  0  0  0  0  0  0  0  0  0  0  0
  150.3983  144.2498  159.2796 C   0  0  0  0  0  0  0  0  0  0  0  0
  150.6797  142.8768  159.5170 O   0  0  0  0  0  0  0  0  0  0  0  0
  152.2708  140.5523  157.3894 C   0  0  0  0  0  0  0  0  0  0  0  0
  153.0923  140.1386  158.2105 O   0  0  0  0  0  0  0  0  0  0  0  0
  154.9608  137.8509  155.3496 N   0  0  0  0  0  0  0  0  0  0  0  0
  156.2445  137.6840  154.7539 C   0  0  0  0  0  0  0  0  0  0  0  0
  156.6943  138.4131  153.6241 C   0  0  0  0  0  0  0  0  0  0  0  0
  157.9821  138.1930  153.0992 C   0  0  0  0  0  0  0  0  0  0  0  0
  158.8359  137.2464  153.6927 C   0  0  0  0  0  0  0  0  0  0  0  0
  158.3970  136.5127  154.8089 C   0  0  0  0  0  0  0  0  0  0  0  0
  157.1049  136.7182  155.3339 C   0  0  0  0  0  0  0  0  0  0  0  0
  156.7151  135.9810  156.4252 O   0  0  0  0  0  0  0  0  0  0  0  0
  157.4269  136.1326  157.5901 C   0  0  0  0  0  0  0  0  0  0  0  0
  156.9296  136.8988  158.6685 C   0  0  0  0  0  0  0  0  0  0  0  0
  157.6854  137.0339  159.8493 C   0  0  0  0  0  0  0  0  0  0  0  0
  158.9380  136.4006  159.9609 C   0  0  0  0  0  0  0  0  0  0  0  0
  159.4338  135.6293  158.8920 C   0  0  0  0  0  0  0  0  0  0  0  0
  158.6779  135.4937  157.7115 C   0  0  0  0  0  0  0  0  0  0  0  0
  152.0663  137.8386  155.4687 H   0  0  0  0  0  0  0  0  0  0  0  0
  153.0073  138.0777  156.8867 H   0  0  0  0  0  0  0  0  0  0  0  0
  150.1355  143.1368  156.8408 H   0  0  0  0  0  0  0  0  0  0  0  0
  152.4438  141.8513  159.5157 H   0  0  0  0  0  0  0  0  0  0  0  0
  153.6480  143.8161  158.8997 H   0  0  0  0  0  0  0  0  0  0  0  0
  152.5917  144.0507  157.4918 H   0  0  0  0  0  0  0  0  0  0  0  0
  152.1292  144.9784  160.3345 H   0  0  0  0  0  0  0  0  0  0  0  0
  151.8076  145.8702  158.8413 H   0  0  0  0  0  0  0  0  0  0  0  0
  149.7304  144.6599  160.0373 H   0  0  0  0  0  0  0  0  0  0  0  0
  149.9314  144.3762  158.3017 H   0  0  0  0  0  0  0  0  0  0  0  0
  154.7505  137.1840  156.0781 H   0  0  0  0  0  0  0  0  0  0  0  0
  156.0776  139.1463  153.1311 H   0  0  0  0  0  0  0  0  0  0  0  0
  158.3155  138.7544  152.2390 H   0  0  0  0  0  0  0  0  0  0  0  0
  159.8247  137.0816  153.2910 H   0  0  0  0  0  0  0  0  0  0  0  0
  159.0516  135.7832  155.2626 H   0  0  0  0  0  0  0  0  0  0  0  0
  155.9686  137.3867  158.5950 H   0  0  0  0  0  0  0  0  0  0  0  0
  157.3033  137.6231  160.6698 H   0  0  0  0  0  0  0  0  0  0  0  0
  159.5167  136.5042  160.8670 H   0  0  0  0  0  0  0  0  0  0  0  0
  160.3932  135.1407  158.9780 H   0  0  0  0  0  0  0  0  0  0  0  0
  159.0620  134.9011  156.8940 H   0  0  0  0  0  0  0  0  0  0  0  0
  1  2  2  0  0  0  0
  2  3  1  0  0  0  0
  2 18  1  0  0  0  0
  3  4  1  0  0  0  0
  3 32  1  0  0  0  0
  3 33  1  0  0  0  0
  4 16  1  0  0  0  0
  4  5  1  0  0  0  0
  5  6  2  0  0  0  0
  5  7  1  0  0  0  0
  7  8  1  0  0  0  0
  7  9  2  0  0  0  0
  9 10  1  0  0  0  0
  9 34  1  0  0  0  0
 10 11  1  0  0  0  0
 10 16  1  0  0  0  0
 11 15  1  0  0  0  0
 11 12  1  0  0  0  0
 11 35  1  0  0  0  0
 12 13  1  0  0  0  0
 12 36  1  0  0  0  0
 12 37  1  0  0  0  0
 13 14  1  0  0  0  0
 13 38  1  0  0  0  0
 13 39  1  0  0  0  0
 14 15  1  0  0  0  0
 14 40  1  0  0  0  0
 14 41  1  0  0  0  0
 16 17  2  0  0  0  0
 18 19  1  0  0  0  0
 18 42  1  0  0  0  0
 19 24  1  0  0  0  0
 19 20  2  0  0  0  0
 20 21  1  0  0  0  0
 20 43  1  0  0  0  0
 21 22  2  0  0  0  0
 21 44  1  0  0  0  0
 22 23  1  0  0  0  0
 22 45  1  0  0  0  0
 23 24  2  0  0  0  0
 23 46  1  0  0  0  0
 24 25  1  0  0  0  0
 25 26  1  0  0  0  0
 26 31  1  0  0  0  0
 26 27  2  0  0  0  0
 27 28  1  0  0  0  0
 27 47  1  0  0  0  0
 28 29  2  0  0  0  0
 28 48  1  0  0  0  0
 29 30  1  0  0  0  0
 29 49  1  0  0  0  0
 30 31  2  0  0  0  0
 30 50  1  0  0  0  0
 31 51  1  0  0  0  0
M  END
> <s_m_source_file>
AV-unprocessed.smi

> <i_m_source_file_index>
135

> <i_lp_mmshare_version>
43012

> <i_f3d_flags>
0

> <s_epik_input>
TzFbQ0gyXVtDSDJdW0NIMl1bQ0BIXTFuKGMyPU8pW2NIXWMoRiljKD1PKW4yW0NIMl1DKD1PKVtOSF1jM1tjSF1bY0hdW2NIXVtjSF1jM09jNFtjSF1bY0hdW2NIXVtjSF1bY0hdNA==

> <s_epik_cmdline>
J2VwaWtfcHl0aG9uJywgJy1waCcsICc3LjAnLCAnLXRuJywgJzgnLCAnLW1hJywgJzIwMCcsICctbWV0YWxfYmluZGluZycsICctaW1hZScsICc8aW5maWxlLm1hZT4nLCAnLW9tYWUnLCAnPG91dGZpbGUubWFlPic=

> <r_lp_tautomer_probability>
1

> <r_epik_Ionization_Penalty>
1.89877e-06

> <r_epik_Ionization_Penalty_Charging>
3.88729e-08

> <r_epik_Ionization_Penalty_Neutral>
1.8599e-06

> <r_epik_State_Penalty>
-0

> <r_epik_Charging_Adjusted_Penalty>
3.88729e-08

> <i_epik_Tot_Q>
0

> <i_epik_Tot_abs_Q>
0

> <r_epik_Metal_State_Penalty>
-0

> <b_epik_Metal_Only>
0

> <s_epik_Chemistry_Notes>
This compound contains an acetal/aminal-like group ( X-CH(R)-Y where X, Y are N, S, or O) that may be acid/base labile, releasing an aldehyde.

> <s_lp_Force_Field>
OPLS_2005

> <r_lp_Energy>
40.6736

> <b_lp_Chiralities_Consistent>
1

> <s_lp_Variant>
AV-unprocessed.smi:135-2

> <Gold.Version>
5.8.1

> <Gold.Id.Protein>
6NUR|6NUR_protein|mol2

> <Gold.PLP.Fitness>
51.4474

> <Gold.PLP.PLP>
-46.2363

> <Gold.PLP.part.hbond>
-4.7981

> <Gold.PLP.part.metal>
0.0000

> <Gold.PLP.part.buried>
3.2462

> <Gold.PLP.part.nonpolar>
-48.5070

> <Gold.PLP.part.repulsive>
3.1874

> <Gold.PLP.ligand.clash>
0.0000

> <Gold.PLP.ligand.torsion>
1.1471

> <Gold.PLP.Chemscore.Hbond>
1.4700

> <Gold.PLP.Chemscore.CHOScore>
1.0000

> <Gold.PLP.Chemscore.Metal>
0.0000

> <Gold.Chemscore.Hbonds>
donor molecule, donor type, donor heavy atom, donor atom, acceptor molecule, acceptor atom, score
      P1  H  7989  7998       L1     6  0.20
      P1  H  7997  8009       L1    17  0.94
      P1  H  7997  8010       L1     1  0.10
      L1  C     9    34       P1  8028  1.00

> <Gold.PLP.Chemscore.Internal.Correction>
0.0952

> <Gold.Rescore>
     Score         DG    S(hbond)    S(metal)    S(lipo)     H(rot)  DE(clash)    DE(int)     intcor
     11.44     -16.93       0.75        0.00     120.91       2.04       3.16       2.33       ----

> <Gold.Chemscore.Fitness>
11.4431

> <Gold.Chemscore.DG>
-16.9260

> <Gold.Chemscore.ZeroCoef>
-5.4800

> <Gold.Chemscore.Hbond>
0.7532

> <Gold.Chemscore.Metal>
0.0000

> <Gold.Chemscore.Lipo>
120.9129

> <Gold.Chemscore.Internal_Hbond>
0.0000

> <Gold.Chemscore.DEClash>
3.1568

> <Gold.Chemscore.DEInternal>
2.3261

> <Gold.Chemscore.Rot>
2.0377

> <Gold.Chemscore.Internal.Correction>
   9.000000E+99

> <Gold.Chemscore.Hbonds>
donor molecule, donor type, donor heavy atom, donor atom, acceptor molecule, acceptor atom, score
      P1  H  7997  8009       L1    17  0.23

> <Gold.Chemscore.Hbond.Weighted>
-2.5157

> <Gold.Chemscore.Metal.Weighted>
-0.0000

> <Gold.Chemscore.Lipo.Weighted>
-14.1468

> <Gold.Chemscore.Internal_Hbond.Weighted>
0.0000

> <Gold.Chemscore.DEClash.Weighted>
3.1568

> <Gold.Chemscore.DEInternal.Weighted>
2.3261

> <Gold.Chemscore.Rot.Weighted>
5.2165

> <Gold.Chemscore.Internal.Correction.Weighted>
   9.000000E+99

> <Gold.Protein.RotatedTorsions>
[ 6907 6896 6895 6894 ] final   63.03 input  -60.11 | X-H torsion
[ 7974 7965 7964 7962 ] final  111.32 input  175.53 | X-H torsion
[ 8008 7997 7996 7995 ] final  147.28 input   59.86 | X-H torsion
[ 10167 10162 10161 10158 ] final -113.56 input  -65.29 | X-H torsion
[ 10718 10713 10712 10709 ] final  -71.85 input   66.30 | X-H torsion
[ 10763 10752 10751 10750 ] final -164.50 input  -60.55 | X-H torsion
[ 11005 11000 10999 10996 ] final   47.63 input  -57.11 | X-H torsion

> <Gold.Protein.ActiveResidues>
 VAL166  LYS551  ARG553  GLY616  TRP617  ASP618  TYR619  PRO620  LYS621  CYS622 
 ASP623  PHE694  ASN695  SER759  ASP760  ASP761  ALA762  ILE779  LEU786  VAL792 
 PHE793  MET794  SER795  GLU796  ALA797  LYS798  CYS799  TRP800  GLU811  SER814 

> <Gold.Protein.RotatedAtoms>
  152.4220  134.5937  159.9980 H   0  0  0  0  0  0  0  0  0  0  0  0  # atno 6907 bound_to 6896
  151.6084  133.3344  159.3070 H   0  0  0  0  0  0  0  0  0  0  0  0  # atno 6908 bound_to 6896
  150.8109  134.7301  159.6752 H   0  0  0  0  0  0  0  0  0  0  0  0  # atno 6909 bound_to 6896
  145.2438  139.2768  143.4104 H   0  0  0  0  0  0  0  0  0  0  0  0  # atno 7974 bound_to 7965
  156.2830  140.2160  156.5512 H   0  0  0  0  0  0  0  0  0  0  0  0  # atno 8008 bound_to 7997
  154.7290  140.0497  157.0731 H   0  0  0  0  0  0  0  0  0  0  0  0  # atno 8009 bound_to 7997
  155.0379  140.3142  155.4738 H   0  0  0  0  0  0  0  0  0  0  0  0  # atno 8010 bound_to 7997
  140.1105  143.4531  152.1755 H   0  0  0  0  0  0  0  0  0  0  0  0  # atno 10167 bound_to 10162
  156.0345  130.4360  150.2505 H   0  0  0  0  0  0  0  0  0  0  0  0  # atno 10718 bound_to 10713
  154.7022  135.2990  154.9323 H   0  0  0  0  0  0  0  0  0  0  0  0  # atno 10763 bound_to 10752
  154.0252  135.6677  153.4780 H   0  0  0  0  0  0  0  0  0  0  0  0  # atno 10764 bound_to 10752
  153.0690  135.5071  154.8173 H   0  0  0  0  0  0  0  0  0  0  0  0  # atno 10765 bound_to 10752
  140.1262  134.4765  155.8558 H   0  0  0  0  0  0  0  0  0  0  0  0  # atno 11005 bound_to 11000
  146.3321  140.2809  142.8610 LP  0  0  0  0  0  0  0  0  0  0  0  0  # atno 17320 bound_to 7965
  144.9565  140.8232  143.5540 LP  0  0  0  0  0  0  0  0  0  0  0  0  # atno 17321 bound_to 7965
  139.5622  144.7412  151.4124 LP  0  0  0  0  0  0  0  0  0  0  0  0  # atno 17342 bound_to 10162
  140.6928  143.7821  150.7281 LP  0  0  0  0  0  0  0  0  0  0  0  0  # atno 17343 bound_to 10162
  157.0605  131.0088  151.3224 LP  0  0  0  0  0  0  0  0  0  0  0  0  # atno 17370 bound_to 10713
  157.5074  130.7917  149.7668 LP  0  0  0  0  0  0  0  0  0  0  0  0  # atno 17371 bound_to 10713
  141.2161  133.6778  156.6982 LP  0  0  0  0  0  0  0  0  0  0  0  0  # atno 17394 bound_to 11000
  140.2901  134.8247  157.4009 LP  0  0  0  0  0  0  0  0  0  0  0  0  # atno 17395 bound_to 11000

$$$$
