AV-unprocessed.smi:1260|AV-procd|sdf|5299|dock4
  -GOLD-   22720 4413D 1   1.00000     0.00000
 Structure written by MMmdl.
 37 39  0  0  0  0  0  0  0  0  2 V2000
  146.3143  136.0818  153.2757 O   0  0  0  0  0  0  0  0  0  0  0  0
  146.1691  137.0116  152.4818 C   0  0  0  0  0  0  0  0  0  0  0  0
  147.2177  138.1234  152.3821 C   0  0  0  0  0  0  0  0  0  0  0  0
  147.2688  138.9282  153.5895 N   0  0  0  0  0  0  0  0  0  0  0  0
  148.0718  139.9354  153.9392 C   0  0  0  0  0  0  0  0  0  0  0  0
  147.7786  140.3987  155.1446 N   0  0  0  0  0  0  0  0  0  0  0  0
  146.7168  139.6015  155.5382 N   0  0  0  0  0  0  0  0  0  0  0  0
  146.4091  138.7278  154.6191 N   0  0  0  0  0  0  0  0  0  0  0  0
  145.1036  137.1234  151.6740 N   0  0  0  0  0  0  0  0  0  0  0  0
  144.0003  136.1678  151.6150 C   0  0  2  0  0  0  0  0  0  0  0  0
  143.5470  135.6812  152.9856 C   0  0  0  0  0  0  0  0  0  0  0  0
  142.7763  134.3969  152.6618 C   0  0  0  0  0  0  0  0  0  0  0  0
  143.3265  133.8741  151.3866 N   0  3  2  0  0  0  0  0  0  0  0  0
  143.8037  132.4673  151.4655 C   0  0  0  0  0  0  0  0  0  0  0  0
  144.7065  132.1259  150.2709 C   0  0  0  0  0  0  0  0  0  0  0  0
  145.9706  133.0061  150.2510 C   0  0  0  0  0  0  0  0  0  0  0  0
  145.7711  134.3418  150.9933 C   0  0  0  0  0  0  0  0  0  0  0  0
  144.3170  134.8588  150.8656 C   0  0  2  0  0  0  0  0  0  0  0  0
  148.2085  137.7005  152.2096 H   0  0  0  0  0  0  0  0  0  0  0  0
  146.9859  138.7634  151.5294 H   0  0  0  0  0  0  0  0  0  0  0  0
  148.8642  140.3245  153.3168 H   0  0  0  0  0  0  0  0  0  0  0  0
  145.0555  137.9211  151.0563 H   0  0  0  0  0  0  0  0  0  0  0  0
  143.1444  136.6476  151.1351 H   0  0  0  0  0  0  0  0  0  0  0  0
  144.4111  135.4456  153.6086 H   0  0  0  0  0  0  0  0  0  0  0  0
  142.9387  136.4138  153.5170 H   0  0  0  0  0  0  0  0  0  0  0  0
  142.8343  133.6791  153.4814 H   0  0  0  0  0  0  0  0  0  0  0  0
  141.7210  134.6218  152.5033 H   0  0  0  0  0  0  0  0  0  0  0  0
  144.3611  132.3091  152.3904 H   0  0  0  0  0  0  0  0  0  0  0  0
  142.9413  131.8009  151.4995 H   0  0  0  0  0  0  0  0  0  0  0  0
  144.9856  131.0720  150.2912 H   0  0  0  0  0  0  0  0  0  0  0  0
  144.1441  132.2741  149.3479 H   0  0  0  0  0  0  0  0  0  0  0  0
  146.8067  132.4717  150.7037 H   0  0  0  0  0  0  0  0  0  0  0  0
  146.2563  133.1926  149.2152 H   0  0  0  0  0  0  0  0  0  0  0  0
  146.0149  134.2078  152.0482 H   0  0  0  0  0  0  0  0  0  0  0  0
  146.4852  135.0698  150.6079 H   0  0  0  0  0  0  0  0  0  0  0  0
  144.1157  135.0066  149.8033 H   0  0  0  0  0  0  0  0  0  0  0  0
  142.5622  133.8814  150.7261 H   0  0  0  0  0  0  0  0  0  0  0  0
  1  2  2  0  0  0  0
  2  3  1  0  0  0  0
  2  9  1  0  0  0  0
  3  4  1  0  0  0  0
  3 19  1  0  0  0  0
  3 20  1  0  0  0  0
  4  8  1  0  0  0  0
  4  5  1  0  0  0  0
  5  6  2  0  0  0  0
  5 21  1  0  0  0  0
  6  7  1  0  0  0  0
  7  8  2  0  0  0  0
  9 10  1  0  0  0  0
  9 22  1  0  0  0  0
 10 18  1  0  0  0  0
 10 11  1  0  0  0  0
 10 23  1  0  0  0  0
 11 12  1  0  0  0  0
 11 24  1  0  0  0  0
 11 25  1  0  0  0  0
 12 13  1  0  0  0  0
 12 26  1  0  0  0  0
 12 27  1  0  0  0  0
 13 18  1  0  0  0  0
 13 14  1  0  0  0  0
 13 37  1  0  0  0  0
 14 15  1  0  0  0  0
 14 28  1  0  0  0  0
 14 29  1  0  0  0  0
 15 16  1  0  0  0  0
 15 30  1  0  0  0  0
 15 31  1  0  0  0  0
 16 17  1  0  0  0  0
 16 32  1  0  0  0  0
 16 33  1  0  0  0  0
 17 18  1  0  0  0  0
 17 34  1  0  0  0  0
 17 35  1  0  0  0  0
 18 36  1  0  0  0  0
M  CHG  1  13   1
M  END
> <s_m_source_file>
AV-unprocessed.smi

> <i_m_source_file_index>
1260

> <i_lp_mmshare_version>
43012

> <i_f3d_flags>
0

> <s_epik_input>
bjFubltjSF1uMVtDSDJdQyg9TylbTkhdW0NASF0oW0NIMl1bQ0gyXTIpW0NAQEhdKE4yMylbQ0gyXVtDSDJdW0NIMl1bQ0gyXTM=

> <s_epik_cmdline>
J2VwaWtfcHl0aG9uJywgJy1waCcsICc3LjAnLCAnLXRuJywgJzgnLCAnLW1hJywgJzIwMCcsICctbWV0YWxfYmluZGluZycsICctaW1hZScsICc8aW5maWxlLm1hZT4nLCAnLW9tYWUnLCAnPG91dGZpbGUubWFlPic=

> <r_lp_tautomer_probability>
1

> <r_epik_Ionization_Penalty>
0.00234324

> <r_epik_Ionization_Penalty_Charging>
0.00233897

> <r_epik_Ionization_Penalty_Neutral>
4.26861e-06

> <r_epik_State_Penalty>
0.00161477

> <r_epik_Charging_Adjusted_Penalty>
0.00395374

> <i_epik_Tot_Q>
1

> <i_epik_Tot_abs_Q>
1

> <r_epik_Metal_State_Penalty>
-0

> <b_epik_Metal_Only>
0

> <s_lp_Force_Field>
OPLS_2005

> <r_lp_Energy>
44.1786

> <b_lp_Chiralities_Consistent>
1

> <s_lp_Variant>
AV-unprocessed.smi:1260-7

> <Gold.Version>
5.8.1

> <Gold.Id.Protein>
6NUR|6NUR_protein|mol2

> <Gold.PLP.Fitness>
36.9465

> <Gold.PLP.PLP>
-25.8613

> <Gold.PLP.part.hbond>
-1.6174

> <Gold.PLP.part.metal>
0.0000

> <Gold.PLP.part.buried>
-1.9022

> <Gold.PLP.part.nonpolar>
-23.8667

> <Gold.PLP.part.repulsive>
0.4017

> <Gold.PLP.ligand.clash>
0.0000

> <Gold.PLP.ligand.torsion>
0.2907

> <Gold.PLP.Chemscore.Hbond>
2.8882

> <Gold.PLP.Chemscore.CHOScore>
1.0000

> <Gold.PLP.Chemscore.Metal>
0.0000

> <Gold.Chemscore.Hbonds>
donor molecule, donor type, donor heavy atom, donor atom, acceptor molecule, acceptor atom, score
      L1  H     9    22       P1 10171  0.75
      L1  H    13    37       P1 10186  2.00
      L1  C     5    21       P1  7957  1.00

> <Gold.PLP.Chemscore.Internal.Correction>
0.0021

> <Gold.Rescore>
     Score         DG    S(hbond)    S(metal)    S(lipo)     H(rot)  DE(clash)    DE(int)     intcor
      9.96     -13.21       1.75        0.00      59.28       1.98       0.07       3.18       ----

> <Gold.Chemscore.Fitness>
9.9585

> <Gold.Chemscore.DG>
-13.2051

> <Gold.Chemscore.ZeroCoef>
-5.4800

> <Gold.Chemscore.Hbond>
1.7506

> <Gold.Chemscore.Metal>
0.0000

> <Gold.Chemscore.Lipo>
59.2814

> <Gold.Chemscore.Internal_Hbond>
0.0000

> <Gold.Chemscore.DEClash>
0.0655

> <Gold.Chemscore.DEInternal>
3.1811

> <Gold.Chemscore.Rot>
1.9757

> <Gold.Chemscore.Internal.Correction>
   9.000000E+99

> <Gold.Chemscore.Hbonds>
donor molecule, donor type, donor heavy atom, donor atom, acceptor molecule, acceptor atom, score
      L1  H     9    22       P1 10171  0.74
      L1  H    13    37       P1 10186  0.74

> <Gold.Chemscore.Hbond.Weighted>
-5.8469

> <Gold.Chemscore.Metal.Weighted>
-0.0000

> <Gold.Chemscore.Lipo.Weighted>
-6.9359

> <Gold.Chemscore.Internal_Hbond.Weighted>
0.0000

> <Gold.Chemscore.DEClash.Weighted>
0.0655

> <Gold.Chemscore.DEInternal.Weighted>
3.1811

> <Gold.Chemscore.Rot.Weighted>
5.0578

> <Gold.Chemscore.Internal.Correction.Weighted>
   9.000000E+99

> <Gold.Protein.RotatedTorsions>
[ 6907 6896 6895 6894 ] final   51.26 input  -60.11 | X-H torsion
[ 7974 7965 7964 7962 ] final   95.33 input  175.53 | X-H torsion
[ 8008 7997 7996 7995 ] final -105.93 input   59.86 | X-H torsion
[ 10167 10162 10161 10158 ] final -172.23 input  -65.29 | X-H torsion
[ 10718 10713 10712 10709 ] final   43.79 input   66.30 | X-H torsion
[ 10763 10752 10751 10750 ] final  110.13 input  -60.55 | X-H torsion
[ 11005 11000 10999 10996 ] final  -52.10 input  -57.11 | X-H torsion

> <Gold.Protein.ActiveResidues>
 VAL166  LYS551  ARG553  GLY616  TRP617  ASP618  TYR619  PRO620  LYS621  CYS622 
 ASP623  PHE694  ASN695  SER759  ASP760  ASP761  ALA762  ILE779  LEU786  VAL792 
 PHE793  MET794  SER795  GLU796  ALA797  LYS798  CYS799  TRP800  GLU811  SER814 

> <Gold.Protein.RotatedAtoms>
  152.3107  134.7500  160.0336 H   0  0  0  0  0  0  0  0  0  0  0  0  # atno 6907 bound_to 6896
  151.7982  133.3361  159.3527 H   0  0  0  0  0  0  0  0  0  0  0  0  # atno 6908 bound_to 6896
  150.7319  134.5709  159.5934 H   0  0  0  0  0  0  0  0  0  0  0  0  # atno 6909 bound_to 6896
  145.4537  139.2291  143.3026 H   0  0  0  0  0  0  0  0  0  0  0  0  # atno 7974 bound_to 7965
  154.9070  140.0411  157.1925 H   0  0  0  0  0  0  0  0  0  0  0  0  # atno 8008 bound_to 7997
  154.8386  140.2910  155.5653 H   0  0  0  0  0  0  0  0  0  0  0  0  # atno 8009 bound_to 7997
  156.2991  140.2487  156.3324 H   0  0  0  0  0  0  0  0  0  0  0  0  # atno 8010 bound_to 7997
  139.5756  144.1539  152.1446 H   0  0  0  0  0  0  0  0  0  0  0  0  # atno 10167 bound_to 10162
  157.4198  130.7962  149.7504 H   0  0  0  0  0  0  0  0  0  0  0  0  # atno 10718 bound_to 10713
  153.4446  135.3758  155.2248 H   0  0  0  0  0  0  0  0  0  0  0  0  # atno 10763 bound_to 10752
  154.8755  135.3871  154.4112 H   0  0  0  0  0  0  0  0  0  0  0  0  # atno 10764 bound_to 10752
  153.4662  135.7087  153.6084 H   0  0  0  0  0  0  0  0  0  0  0  0  # atno 10765 bound_to 10752
  141.0906  133.6633  156.3974 H   0  0  0  0  0  0  0  0  0  0  0  0  # atno 11005 bound_to 11000
  146.2490  140.5298  142.8901 LP  0  0  0  0  0  0  0  0  0  0  0  0  # atno 17320 bound_to 7965
  144.8046  140.6275  143.6456 LP  0  0  0  0  0  0  0  0  0  0  0  0  # atno 17321 bound_to 7965
  140.1082  144.5481  150.6943 LP  0  0  0  0  0  0  0  0  0  0  0  0  # atno 17342 bound_to 10162
  140.7039  143.2454  151.4784 LP  0  0  0  0  0  0  0  0  0  0  0  0  # atno 17343 bound_to 10162
  155.9877  130.3965  150.3154 LP  0  0  0  0  0  0  0  0  0  0  0  0  # atno 17370 bound_to 10713
  157.1301  131.0269  151.2973 LP  0  0  0  0  0  0  0  0  0  0  0  0  # atno 17371 bound_to 10713
  140.5260  134.6258  157.5334 LP  0  0  0  0  0  0  0  0  0  0  0  0  # atno 17394 bound_to 11000
  139.9731  134.7259  156.0001 LP  0  0  0  0  0  0  0  0  0  0  0  0  # atno 17395 bound_to 11000

$$$$
