AV-unprocessed.smi:952|AV-procd|sdf|4256|dock8
  -GOLD-   22720 2163D 1   1.00000     0.00000
 Structure written by MMmdl.
 35 35  0  0  0  0  0  0  0  0  1 V2000
  145.7869  143.4742  153.7521 C   0  0  0  0  0  0  0  0  0  0  0  0
  147.0475  142.6032  153.7576 C   0  0  0  0  0  0  0  0  0  0  0  0
  146.7781  141.1840  154.2837 C   0  0  0  0  0  0  0  0  0  0  0  0
  146.3203  140.2967  153.2211 N   0  0  0  0  0  0  0  0  0  0  0  0
  146.8941  139.1298  152.8904 C   0  0  0  0  0  0  0  0  0  0  0  0
  147.8981  138.6882  153.4516 O   0  0  0  0  0  0  0  0  0  0  0  0
  146.2389  138.3617  151.7358 C   0  0  0  0  0  0  0  0  0  0  0  0
  146.5575  136.9362  151.7455 N   0  0  0  0  0  0  0  0  0  0  0  0
  145.6636  135.9430  151.8804 C   0  0  0  0  0  0  0  0  0  0  0  0
  144.4535  136.1397  152.0013 O   0  0  0  0  0  0  0  0  0  0  0  0
  146.2312  134.5151  151.8733 C   0  0  1  0  0  0  0  0  0  0  0  0
  146.1816  133.8458  153.2591 C   0  0  0  0  0  0  0  0  0  0  0  0
  145.5474  133.7022  150.8758 N   0  0  0  0  0  0  0  0  0  0  0  0
  145.8892  132.4542  150.3909 C   0  0  0  0  0  0  0  0  0  0  0  0
  144.9474  132.1017  149.4675 C   0  0  0  0  0  0  0  0  0  0  0  0
  144.0587  133.2122  149.4515 C   0  0  0  0  0  0  0  0  0  0  0  0
  144.4206  134.1676  150.2923 N   0  0  0  0  0  0  0  0  0  0  0  0
  146.0091  144.4759  153.3834 H   0  0  0  0  0  0  0  0  0  0  0  0
  145.3713  143.5730  154.7554 H   0  0  0  0  0  0  0  0  0  0  0  0
  145.0167  143.0465  153.1096 H   0  0  0  0  0  0  0  0  0  0  0  0
  147.4494  142.5539  152.7450 H   0  0  0  0  0  0  0  0  0  0  0  0
  147.8125  143.0822  154.3699 H   0  0  0  0  0  0  0  0  0  0  0  0
  147.6928  140.7642  154.7034 H   0  0  0  0  0  0  0  0  0  0  0  0
  146.0475  141.2077  155.0943 H   0  0  0  0  0  0  0  0  0  0  0  0
  145.5020  140.5865  152.7051 H   0  0  0  0  0  0  0  0  0  0  0  0
  145.1565  138.5024  151.7565 H   0  0  0  0  0  0  0  0  0  0  0  0
  146.5914  138.7847  150.7951 H   0  0  0  0  0  0  0  0  0  0  0  0
  147.5316  136.6865  151.6539 H   0  0  0  0  0  0  0  0  0  0  0  0
  147.2827  134.5897  151.5877 H   0  0  0  0  0  0  0  0  0  0  0  0
  146.7005  134.4467  154.0069 H   0  0  0  0  0  0  0  0  0  0  0  0
  146.6640  132.8684  153.2344 H   0  0  0  0  0  0  0  0  0  0  0  0
  145.1567  133.6984  153.6021 H   0  0  0  0  0  0  0  0  0  0  0  0
  146.7644  131.9269  150.7409 H   0  0  0  0  0  0  0  0  0  0  0  0
  144.9011  131.1900  148.8907 H   0  0  0  0  0  0  0  0  0  0  0  0
  143.1675  133.3521  148.8574 H   0  0  0  0  0  0  0  0  0  0  0  0
  1  2  1  0  0  0  0
  1 18  1  0  0  0  0
  1 19  1  0  0  0  0
  1 20  1  0  0  0  0
  2  3  1  0  0  0  0
  2 21  1  0  0  0  0
  2 22  1  0  0  0  0
  3  4  1  0  0  0  0
  3 23  1  0  0  0  0
  3 24  1  0  0  0  0
  4  5  1  0  0  0  0
  4 25  1  0  0  0  0
  5  6  2  0  0  0  0
  5  7  1  0  0  0  0
  7  8  1  0  0  0  0
  7 26  1  0  0  0  0
  7 27  1  0  0  0  0
  8  9  1  0  0  0  0
  8 28  1  0  0  0  0
  9 10  2  0  0  0  0
  9 11  1  0  0  0  0
 11 12  1  0  0  0  0
 11 13  1  0  0  0  0
 11 29  1  0  0  0  0
 12 30  1  0  0  0  0
 12 31  1  0  0  0  0
 12 32  1  0  0  0  0
 13 17  1  0  0  0  0
 13 14  1  0  0  0  0
 14 15  2  0  0  0  0
 14 33  1  0  0  0  0
 15 16  1  0  0  0  0
 15 34  1  0  0  0  0
 16 17  2  0  0  0  0
 16 35  1  0  0  0  0
M  END
> <s_m_source_file>
AV-unprocessed.smi

> <i_m_source_file_index>
952

> <i_lp_mmshare_version>
43012

> <i_f3d_flags>
0

> <s_epik_input>
W0NIM11bQ0gyXVtDSDJdW05IXUMoPU8pW0NIMl1bTkhdQyg9TylbQ0BIXShbQ0gzXSluMVtjSF1bY0hdW2NIXW4x

> <s_epik_cmdline>
J2VwaWtfcHl0aG9uJywgJy1waCcsICc3LjAnLCAnLXRuJywgJzgnLCAnLW1hJywgJzIwMCcsICctbWV0YWxfYmluZGluZycsICctaW1hZScsICc8aW5maWxlLm1hZT4nLCAnLW9tYWUnLCAnPG91dGZpbGUubWFlPic=

> <r_lp_tautomer_probability>
1

> <r_epik_Ionization_Penalty>
2.62173e-05

> <r_epik_Ionization_Penalty_Charging>
0

> <r_epik_Ionization_Penalty_Neutral>
2.62173e-05

> <r_epik_State_Penalty>
-0

> <r_epik_Charging_Adjusted_Penalty>
0

> <i_epik_Tot_Q>
0

> <i_epik_Tot_abs_Q>
0

> <r_epik_Metal_State_Penalty>
-0

> <b_epik_Metal_Only>
0

> <s_lp_Force_Field>
OPLS_2005

> <r_lp_Energy>
2.421

> <b_lp_Chiralities_Consistent>
1

> <s_lp_Variant>
AV-unprocessed.smi:952-2

> <Gold.Version>
5.8.1

> <Gold.Id.Protein>
6NUR|6NUR_protein|mol2

> <Gold.PLP.Fitness>
42.5857

> <Gold.PLP.PLP>
-32.2682

> <Gold.PLP.part.hbond>
-1.9743

> <Gold.PLP.part.metal>
0.0000

> <Gold.PLP.part.buried>
-4.0097

> <Gold.PLP.part.nonpolar>
-28.0979

> <Gold.PLP.part.repulsive>
0.6614

> <Gold.PLP.ligand.clash>
0.0000

> <Gold.PLP.ligand.torsion>
0.8094

> <Gold.PLP.Chemscore.Hbond>
1.9913

> <Gold.PLP.Chemscore.CHOScore>
1.9590

> <Gold.PLP.Chemscore.Metal>
0.0000

> <Gold.Chemscore.Hbonds>
donor molecule, donor type, donor heavy atom, donor atom, acceptor molecule, acceptor atom, score
      L1  H     4    25       P1 10175  0.99
      L1  H     8    28       P1  7948  0.86
      L1  C    14    33       P1 10747  1.00
      L1  C    16    35       P1 10186  0.97

> <Gold.PLP.Chemscore.Internal.Correction>
0.0856

> <Gold.Rescore>
     Score         DG    S(hbond)    S(metal)    S(lipo)     H(rot)  DE(clash)    DE(int)     intcor
     11.46     -13.96       1.92        0.00      66.54       2.24       0.06       2.44       ----

> <Gold.Chemscore.Fitness>
11.4566

> <Gold.Chemscore.DG>
-13.9587

> <Gold.Chemscore.ZeroCoef>
-5.4800

> <Gold.Chemscore.Hbond>
1.9218

> <Gold.Chemscore.Metal>
0.0000

> <Gold.Chemscore.Lipo>
66.5390

> <Gold.Chemscore.Internal_Hbond>
0.0000

> <Gold.Chemscore.DEClash>
0.0613

> <Gold.Chemscore.DEInternal>
2.4408

> <Gold.Chemscore.Rot>
2.2364

> <Gold.Chemscore.Internal.Correction>
   9.000000E+99

> <Gold.Chemscore.Hbonds>
donor molecule, donor type, donor heavy atom, donor atom, acceptor molecule, acceptor atom, score
      L1  H     4    25       P1 10175  0.52
      L1  H     8    28       P1  7948  0.84

> <Gold.Chemscore.Hbond.Weighted>
-6.4188

> <Gold.Chemscore.Metal.Weighted>
-0.0000

> <Gold.Chemscore.Lipo.Weighted>
-7.7851

> <Gold.Chemscore.Internal_Hbond.Weighted>
0.0000

> <Gold.Chemscore.DEClash.Weighted>
0.0613

> <Gold.Chemscore.DEInternal.Weighted>
2.4408

> <Gold.Chemscore.Rot.Weighted>
5.7251

> <Gold.Chemscore.Internal.Correction.Weighted>
   9.000000E+99

> <Gold.Protein.RotatedTorsions>
[ 6907 6896 6895 6894 ] final -104.03 input  -60.11 | X-H torsion
[ 7974 7965 7964 7962 ] final -144.58 input  175.53 | X-H torsion
[ 8008 7997 7996 7995 ] final   71.05 input   59.86 | X-H torsion
[ 10167 10162 10161 10158 ] final   92.67 input  -65.29 | X-H torsion
[ 10718 10713 10712 10709 ] final  123.66 input   66.30 | X-H torsion
[ 10763 10752 10751 10750 ] final   75.77 input  -60.55 | X-H torsion
[ 11005 11000 10999 10996 ] final  111.39 input  -57.11 | X-H torsion

> <Gold.Protein.ActiveResidues>
 VAL166  LYS551  ARG553  GLY616  TRP617  ASP618  TYR619  PRO620  LYS621  CYS622 
 ASP623  PHE694  ASN695  SER759  ASP760  ASP761  ALA762  ILE779  LEU786  VAL792 
 PHE793  MET794  SER795  GLU796  ALA797  LYS798  CYS799  TRP800  GLU811  SER814 

> <Gold.Protein.RotatedAtoms>
  150.7268  134.0340  159.3742 H   0  0  0  0  0  0  0  0  0  0  0  0  # atno 6907 bound_to 6896
  151.8310  135.0619  160.0446 H   0  0  0  0  0  0  0  0  0  0  0  0  # atno 6908 bound_to 6896
  152.2933  133.5547  159.5608 H   0  0  0  0  0  0  0  0  0  0  0  0  # atno 6909 bound_to 6896
  144.8288  140.5692  143.5529 H   0  0  0  0  0  0  0  0  0  0  0  0  # atno 7974 bound_to 7965
  155.7481  140.3489  155.5137 H   0  0  0  0  0  0  0  0  0  0  0  0  # atno 8008 bound_to 7997
  155.9031  140.1037  157.1356 H   0  0  0  0  0  0  0  0  0  0  0  0  # atno 8009 bound_to 7997
  154.4046  140.1282  156.4448 H   0  0  0  0  0  0  0  0  0  0  0  0  # atno 8010 bound_to 7997
  139.8254  144.6712  150.9466 H   0  0  0  0  0  0  0  0  0  0  0  0  # atno 10167 bound_to 10162
  157.5647  131.1087  150.8476 H   0  0  0  0  0  0  0  0  0  0  0  0  # atno 10718 bound_to 10713
  153.0678  135.4976  154.8239 H   0  0  0  0  0  0  0  0  0  0  0  0  # atno 10763 bound_to 10752
  154.6979  135.2996  154.9387 H   0  0  0  0  0  0  0  0  0  0  0  0  # atno 10764 bound_to 10752
  154.0120  135.6753  153.4819 H   0  0  0  0  0  0  0  0  0  0  0  0  # atno 10765 bound_to 10752
  139.8902  134.9507  156.6425 H   0  0  0  0  0  0  0  0  0  0  0  0  # atno 11005 bound_to 11000
  145.4942  139.1487  143.3693 LP  0  0  0  0  0  0  0  0  0  0  0  0  # atno 17320 bound_to 7965
  146.2592  140.5081  142.8861 LP  0  0  0  0  0  0  0  0  0  0  0  0  # atno 17321 bound_to 7965
  140.7810  143.4052  151.1083 LP  0  0  0  0  0  0  0  0  0  0  0  0  # atno 17342 bound_to 10162
  139.7709  143.8495  152.3120 LP  0  0  0  0  0  0  0  0  0  0  0  0  # atno 17343 bound_to 10162
  156.8964  130.5231  149.5284 LP  0  0  0  0  0  0  0  0  0  0  0  0  # atno 17370 bound_to 10713
  156.0696  130.5732  150.9357 LP  0  0  0  0  0  0  0  0  0  0  0  0  # atno 17371 bound_to 10713
  140.7583  133.8839  155.8398 LP  0  0  0  0  0  0  0  0  0  0  0  0  # atno 17394 bound_to 11000
  140.9944  134.1235  157.4378 LP  0  0  0  0  0  0  0  0  0  0  0  0  # atno 17395 bound_to 11000

$$$$
