AV-unprocessed.smi:3292|AV-procd|sdf|12623|dock4
  -GOLD-   2272018553D 1   1.00000     0.00000
 Structure written by MMmdl.
 39 40  0  0  0  0  0  0  0  0  2 V2000
  148.0606  131.4533  153.4121 C   0  0  0  0  0  0  0  0  0  0  0  0
  147.2962  132.7370  153.0622 C   0  0  2  0  0  0  0  0  0  0  0  0
  146.7784  132.7017  151.6065 C   0  0  0  0  0  0  0  0  0  0  0  0
  145.6734  133.6378  151.3669 N   0  0  0  0  0  0  0  0  0  0  0  0
  145.7183  135.0075  151.4180 C   0  0  0  0  0  0  0  0  0  0  0  0
  144.4615  135.4519  151.0968 C   0  0  0  0  0  0  0  0  0  0  0  0
  143.7007  134.3361  150.8718 N   0  3  0  0  0  0  0  0  0  0  0  0
  144.4371  133.2341  151.0451 C   0  0  0  0  0  0  0  0  0  0  0  0
  148.1737  133.8874  153.2786 N   0  0  0  0  0  0  0  0  0  0  0  0
  148.8335  134.1551  154.4151 C   0  0  0  0  0  0  0  0  0  0  0  0
  148.8375  133.4177  155.4012 O   0  0  0  0  0  0  0  0  0  0  0  0
  149.4360  135.3508  154.3729 N   0  0  0  0  0  0  0  0  0  0  0  0
  150.0859  135.9925  155.5110 C   0  0  0  0  0  0  0  0  0  0  0  0
  150.0575  137.5309  155.3982 C   0  0  1  0  0  0  0  0  0  0  0  0
  150.8370  138.2527  156.4872 C   0  0  0  0  0  0  0  0  0  0  0  0
  151.3588  139.5180  155.7959 C   0  0  0  0  0  0  0  0  0  0  0  0
  150.8841  139.4562  154.4560 O   0  0  0  0  0  0  0  0  0  0  0  0
  150.6887  138.0922  154.1268 C   0  0  0  0  0  0  0  0  0  0  0  0
  147.4258  130.5747  153.2935 H   0  0  0  0  0  0  0  0  0  0  0  0
  148.4061  131.4706  154.4462 H   0  0  0  0  0  0  0  0  0  0  0  0
  148.9329  131.3217  152.7707 H   0  0  0  0  0  0  0  0  0  0  0  0
  146.4412  132.7969  153.7384 H   0  0  0  0  0  0  0  0  0  0  0  0
  147.5825  132.9236  150.9027 H   0  0  0  0  0  0  0  0  0  0  0  0
  146.4112  131.7045  151.3604 H   0  0  0  0  0  0  0  0  0  0  0  0
  146.6207  135.5499  151.6600 H   0  0  0  0  0  0  0  0  0  0  0  0
  144.0628  136.4521  151.0112 H   0  0  0  0  0  0  0  0  0  0  0  0
  144.1020  132.2187  150.9301 H   0  0  0  0  0  0  0  0  0  0  0  0
  148.2408  134.5547  152.5237 H   0  0  0  0  0  0  0  0  0  0  0  0
  149.3879  135.8822  153.5157 H   0  0  0  0  0  0  0  0  0  0  0  0
  149.6088  135.6712  156.4385 H   0  0  0  0  0  0  0  0  0  0  0  0
  151.1162  135.6383  155.5538 H   0  0  0  0  0  0  0  0  0  0  0  0
  149.0251  137.8817  155.4423 H   0  0  0  0  0  0  0  0  0  0  0  0
  150.2071  138.4817  157.3475 H   0  0  0  0  0  0  0  0  0  0  0  0
  151.6760  137.6511  156.8392 H   0  0  0  0  0  0  0  0  0  0  0  0
  151.0078  140.4292  156.2808 H   0  0  0  0  0  0  0  0  0  0  0  0
  152.4495  139.5325  155.7954 H   0  0  0  0  0  0  0  0  0  0  0  0
  151.6508  137.6213  153.9180 H   0  0  0  0  0  0  0  0  0  0  0  0
  150.0501  137.9803  153.2506 H   0  0  0  0  0  0  0  0  0  0  0  0
  142.7224  134.3416  150.6104 H   0  0  0  0  0  0  0  0  0  0  0  0
  1  2  1  0  0  0  0
  1 19  1  0  0  0  0
  1 20  1  0  0  0  0
  1 21  1  0  0  0  0
  2  3  1  0  0  0  0
  2  9  1  0  0  0  0
  2 22  1  0  0  0  0
  3  4  1  0  0  0  0
  3 23  1  0  0  0  0
  3 24  1  0  0  0  0
  4  8  1  0  0  0  0
  4  5  1  0  0  0  0
  5  6  2  0  0  0  0
  5 25  1  0  0  0  0
  6  7  1  0  0  0  0
  6 26  1  0  0  0  0
  7  8  2  0  0  0  0
  7 39  1  0  0  0  0
  8 27  1  0  0  0  0
  9 10  1  0  0  0  0
  9 28  1  0  0  0  0
 10 11  2  0  0  0  0
 10 12  1  0  0  0  0
 12 13  1  0  0  0  0
 12 29  1  0  0  0  0
 13 14  1  0  0  0  0
 13 30  1  0  0  0  0
 13 31  1  0  0  0  0
 14 18  1  0  0  0  0
 14 15  1  0  0  0  0
 14 32  1  0  0  0  0
 15 16  1  0  0  0  0
 15 33  1  0  0  0  0
 15 34  1  0  0  0  0
 16 17  1  0  0  0  0
 16 35  1  0  0  0  0
 16 36  1  0  0  0  0
 17 18  1  0  0  0  0
 18 37  1  0  0  0  0
 18 38  1  0  0  0  0
M  CHG  1   7   1
M  END
> <s_m_source_file>
AV-unprocessed.smi

> <i_m_source_file_index>
3292

> <i_lp_mmshare_version>
43012

> <i_f3d_flags>
0

> <s_epik_input>
W2NIXTFuW2NIXVtjSF1uMVtDSDJdW0NAQEhdKFtDSDNdKVtOSF1DKD1PKVtOSF1bQ0gyXVtDQEBIXTJbQ0gyXVtDSDJdT1tDSDJdMg==

> <s_epik_cmdline>
J2VwaWtfcHl0aG9uJywgJy1waCcsICc3LjAnLCAnLXRuJywgJzgnLCAnLW1hJywgJzIwMCcsICctbWV0YWxfYmluZGluZycsICctaW1hZScsICc8aW5maWxlLm1hZT4nLCAnLW9tYWUnLCAnPG91dGZpbGUubWFlPic=

> <r_lp_tautomer_probability>
1

> <r_epik_Ionization_Penalty>
0.255703

> <r_epik_Ionization_Penalty_Charging>
0

> <r_epik_Ionization_Penalty_Neutral>
0.255703

> <r_epik_State_Penalty>
0.247169

> <r_epik_Charging_Adjusted_Penalty>
0.247169

> <i_epik_Tot_Q>
1

> <i_epik_Tot_abs_Q>
1

> <r_epik_Metal_State_Penalty>
0.536791

> <b_epik_Metal_Only>
0

> <s_lp_Force_Field>
OPLS_2005

> <r_lp_Energy>
18.6884

> <b_lp_Chiralities_Consistent>
1

> <s_lp_Variant>
AV-unprocessed.smi:3292-3

> <Gold.Version>
5.8.1

> <Gold.Id.Protein>
6NUR|6NUR_protein|mol2

> <Gold.PLP.Fitness>
48.1022

> <Gold.PLP.PLP>
-30.9130

> <Gold.PLP.part.hbond>
-4.0000

> <Gold.PLP.part.metal>
0.0000

> <Gold.PLP.part.buried>
-3.4449

> <Gold.PLP.part.nonpolar>
-22.9969

> <Gold.PLP.part.repulsive>
0.1894

> <Gold.PLP.ligand.clash>
0.0000

> <Gold.PLP.ligand.torsion>
0.4321

> <Gold.PLP.Chemscore.Hbond>
5.0000

> <Gold.PLP.Chemscore.CHOScore>
1.0000

> <Gold.PLP.Chemscore.Metal>
0.0000

> <Gold.Chemscore.Hbonds>
donor molecule, donor type, donor heavy atom, donor atom, acceptor molecule, acceptor atom, score
      L1  H     7    39       P1 10186  2.00
      L1  H     9    28       P1  7948  0.98
      L1  H    12    29       P1  7948  1.00
      P1  H  7989  7998       L1    17  1.00
      L1  C     5    25       P1  7948  1.00

> <Gold.PLP.Chemscore.Internal.Correction>
0.0534

> <Gold.Rescore>
     Score         DG    S(hbond)    S(metal)    S(lipo)     H(rot)  DE(clash)    DE(int)     intcor
     15.30     -17.01       3.45        0.00      49.06       2.24       0.05       1.67       ----

> <Gold.Chemscore.Fitness>
15.2989

> <Gold.Chemscore.DG>
-17.0127

> <Gold.Chemscore.ZeroCoef>
-5.4800

> <Gold.Chemscore.Hbond>
3.4485

> <Gold.Chemscore.Metal>
0.0000

> <Gold.Chemscore.Lipo>
49.0635

> <Gold.Chemscore.Internal_Hbond>
0.0000

> <Gold.Chemscore.DEClash>
0.0456

> <Gold.Chemscore.DEInternal>
1.6682

> <Gold.Chemscore.Rot>
2.2367

> <Gold.Chemscore.Internal.Correction>
   9.000000E+99

> <Gold.Chemscore.Hbonds>
donor molecule, donor type, donor heavy atom, donor atom, acceptor molecule, acceptor atom, score
      L1  H     7    39       P1 10186  0.48
      L1  H     9    28       P1  7948  0.24
      L1  H    12    29       P1  7948  0.49
      P1  H  7989  7998       L1    17  0.70

> <Gold.Chemscore.Hbond.Weighted>
-11.5181

> <Gold.Chemscore.Metal.Weighted>
-0.0000

> <Gold.Chemscore.Lipo.Weighted>
-5.7404

> <Gold.Chemscore.Internal_Hbond.Weighted>
0.0000

> <Gold.Chemscore.DEClash.Weighted>
0.0456

> <Gold.Chemscore.DEInternal.Weighted>
1.6682

> <Gold.Chemscore.Rot.Weighted>
5.7259

> <Gold.Chemscore.Internal.Correction.Weighted>
   9.000000E+99

> <Gold.Protein.RotatedTorsions>
[ 6907 6896 6895 6894 ] final  -26.51 input  -60.11 | X-H torsion
[ 7974 7965 7964 7962 ] final   78.25 input  175.53 | X-H torsion
[ 8008 7997 7996 7995 ] final  152.45 input   59.86 | X-H torsion
[ 10167 10162 10161 10158 ] final  171.64 input  -65.29 | X-H torsion
[ 10718 10713 10712 10709 ] final   34.80 input   66.30 | X-H torsion
[ 10763 10752 10751 10750 ] final -143.39 input  -60.55 | X-H torsion
[ 11005 11000 10999 10996 ] final  169.89 input  -57.11 | X-H torsion

> <Gold.Protein.ActiveResidues>
 VAL166  LYS551  ARG553  GLY616  TRP617  ASP618  TYR619  PRO620  LYS621  CYS622 
 ASP623  PHE694  ASN695  SER759  ASP760  ASP761  ALA762  ILE779  LEU786  VAL792 
 PHE793  MET794  SER795  GLU796  ALA797  LYS798  CYS799  TRP800  GLU811  SER814 

> <Gold.Protein.RotatedAtoms>
  151.1599  135.0268  159.8705 H   0  0  0  0  0  0  0  0  0  0  0  0  # atno 6907 bound_to 6896
  152.5451  134.1291  159.8441 H   0  0  0  0  0  0  0  0  0  0  0  0  # atno 6908 bound_to 6896
  151.1385  133.4941  159.2630 H   0  0  0  0  0  0  0  0  0  0  0  0  # atno 6909 bound_to 6896
  145.6796  139.2520  143.1822 H   0  0  0  0  0  0  0  0  0  0  0  0  # atno 7974 bound_to 7965
  156.2628  140.2020  156.6335 H   0  0  0  0  0  0  0  0  0  0  0  0  # atno 8008 bound_to 7997
  154.6664  140.0555  157.0143 H   0  0  0  0  0  0  0  0  0  0  0  0  # atno 8009 bound_to 7997
  155.1200  140.3224  155.4502 H   0  0  0  0  0  0  0  0  0  0  0  0  # atno 8010 bound_to 7997
  139.5053  144.3463  151.9968 H   0  0  0  0  0  0  0  0  0  0  0  0  # atno 10167 bound_to 10162
  157.3148  130.7418  149.6748 H   0  0  0  0  0  0  0  0  0  0  0  0  # atno 10718 bound_to 10713
  154.8472  135.3469  154.6180 H   0  0  0  0  0  0  0  0  0  0  0  0  # atno 10763 bound_to 10752
  153.6788  135.6981  153.5129 H   0  0  0  0  0  0  0  0  0  0  0  0  # atno 10764 bound_to 10752
  153.2684  135.4300  155.0920 H   0  0  0  0  0  0  0  0  0  0  0  0  # atno 10765 bound_to 10752
  140.3026  134.7583  157.3928 H   0  0  0  0  0  0  0  0  0  0  0  0  # atno 11005 bound_to 11000
  146.0976  140.7582  142.9565 LP  0  0  0  0  0  0  0  0  0  0  0  0  # atno 17320 bound_to 7965
  144.7030  140.3736  143.7140 LP  0  0  0  0  0  0  0  0  0  0  0  0  # atno 17321 bound_to 7965
  140.2900  144.3764  150.6091 LP  0  0  0  0  0  0  0  0  0  0  0  0  # atno 17342 bound_to 10162
  140.5954  143.2167  151.7175 LP  0  0  0  0  0  0  0  0  0  0  0  0  # atno 17343 bound_to 10162
  155.9681  130.4240  150.4590 LP  0  0  0  0  0  0  0  0  0  0  0  0  # atno 17370 bound_to 10713
  157.2595  131.0564  151.2329 LP  0  0  0  0  0  0  0  0  0  0  0  0  # atno 17371 bound_to 10713
  140.1096  134.5363  155.8278 LP  0  0  0  0  0  0  0  0  0  0  0  0  # atno 17394 bound_to 11000
  141.2125  133.6720  156.6664 LP  0  0  0  0  0  0  0  0  0  0  0  0  # atno 17395 bound_to 11000

$$$$
