AV-unprocessed.smi:3045|AV-procd|sdf|11611|dock1
  -GOLD-   2272016593D 1   1.00000     0.00000
 Structure written by MMmdl.
 36 37  0  0  0  0  0  0  0  0  2 V2000
  154.3878  140.8236  161.5497 C   0  0  0  0  0  0  0  0  0  0  0  0
  153.5978  141.9125  160.9913 N   0  0  0  0  0  0  0  0  0  0  0  0
  153.5056  142.1134  159.5557 C   0  0  0  0  0  0  0  0  0  0  0  0
  152.4577  143.2311  159.3596 C   0  0  1  0  0  0  0  0  0  0  0  0
  151.1631  142.7084  158.7172 C   0  0  0  0  0  0  0  0  0  0  0  0
  150.0666  143.0458  159.1656 O   0  0  0  0  0  0  0  0  0  0  0  0
  151.3040  141.8823  157.6689 N   0  0  0  0  0  0  0  0  0  0  0  0
  150.2025  141.2918  156.9181 C   0  0  0  0  0  0  0  0  0  0  0  0
  150.6597  140.7758  155.5430 C   0  0  0  0  0  0  0  0  0  0  0  0
  149.4882  140.4377  154.6418 C   0  0  0  0  0  0  0  0  0  0  0  0
  148.4690  141.3874  154.4075 C   0  0  0  0  0  0  0  0  0  0  0  0
  147.3916  141.0518  153.5614 C   0  0  0  0  0  0  0  0  0  0  0  0
  147.3569  139.7725  152.9697 C   0  0  0  0  0  0  0  0  0  0  0  0
  148.3493  138.8896  153.2180 N   0  3  0  0  0  0  0  0  0  0  0  0
  149.3985  139.1730  154.0210 C   0  0  0  0  0  0  0  0  0  0  0  0
  152.2040  143.7982  160.7720 C   0  0  0  0  0  0  0  0  0  0  0  0
  152.9268  142.8296  161.6933 C   0  0  0  0  0  0  0  0  0  0  0  0
  152.8709  142.9059  162.9196 O   0  0  0  0  0  0  0  0  0  0  0  0
  155.1833  141.2137  162.1855 H   0  0  0  0  0  0  0  0  0  0  0  0
  154.8470  140.2265  160.7614 H   0  0  0  0  0  0  0  0  0  0  0  0
  153.7588  140.1655  162.1502 H   0  0  0  0  0  0  0  0  0  0  0  0
  154.4784  142.4228  159.1710 H   0  0  0  0  0  0  0  0  0  0  0  0
  153.2352  141.1813  159.0566 H   0  0  0  0  0  0  0  0  0  0  0  0
  152.8779  144.0128  158.7241 H   0  0  0  0  0  0  0  0  0  0  0  0
  152.2403  141.6567  157.3640 H   0  0  0  0  0  0  0  0  0  0  0  0
  149.7517  140.4865  157.5007 H   0  0  0  0  0  0  0  0  0  0  0  0
  149.4319  142.0527  156.7917 H   0  0  0  0  0  0  0  0  0  0  0  0
  151.2888  141.5210  155.0541 H   0  0  0  0  0  0  0  0  0  0  0  0
  151.2752  139.8824  155.6559 H   0  0  0  0  0  0  0  0  0  0  0  0
  148.5139  142.3637  154.8684 H   0  0  0  0  0  0  0  0  0  0  0  0
  146.6041  141.7659  153.3689 H   0  0  0  0  0  0  0  0  0  0  0  0
  146.5721  139.4316  152.3101 H   0  0  0  0  0  0  0  0  0  0  0  0
  150.1283  138.3852  154.1399 H   0  0  0  0  0  0  0  0  0  0  0  0
  152.6365  144.7932  160.8805 H   0  0  0  0  0  0  0  0  0  0  0  0
  151.1475  143.8602  161.0385 H   0  0  0  0  0  0  0  0  0  0  0  0
  148.3047  137.9690  152.7799 H   0  0  0  0  0  0  0  0  0  0  0  0
  1  2  1  0  0  0  0
  1 19  1  0  0  0  0
  1 20  1  0  0  0  0
  1 21  1  0  0  0  0
  2 17  1  0  0  0  0
  2  3  1  0  0  0  0
  3  4  1  0  0  0  0
  3 22  1  0  0  0  0
  3 23  1  0  0  0  0
  4  5  1  0  0  0  0
  4 16  1  0  0  0  0
  4 24  1  0  0  0  0
  5  6  2  0  0  0  0
  5  7  1  0  0  0  0
  7  8  1  0  0  0  0
  7 25  1  0  0  0  0
  8  9  1  0  0  0  0
  8 26  1  0  0  0  0
  8 27  1  0  0  0  0
  9 10  1  0  0  0  0
  9 28  1  0  0  0  0
  9 29  1  0  0  0  0
 10 15  1  0  0  0  0
 10 11  2  0  0  0  0
 11 12  1  0  0  0  0
 11 30  1  0  0  0  0
 12 13  2  0  0  0  0
 12 31  1  0  0  0  0
 13 14  1  0  0  0  0
 13 32  1  0  0  0  0
 14 15  2  0  0  0  0
 14 36  1  0  0  0  0
 15 33  1  0  0  0  0
 16 17  1  0  0  0  0
 16 34  1  0  0  0  0
 16 35  1  0  0  0  0
 17 18  2  0  0  0  0
M  CHG  1  14   1
M  END
> <s_m_source_file>
AV-unprocessed.smi

> <i_m_source_file_index>
3045

> <i_lp_mmshare_version>
43012

> <i_f3d_flags>
0

> <s_epik_input>
W0NIM11OMVtDSDJdW0NASF0oW0NIMl1DMT1PKUMoPU8pW05IXVtDSDJdW0NIMl1jMltjSF1bY0hdW2NIXW5bY0hdMg==

> <s_epik_cmdline>
J2VwaWtfcHl0aG9uJywgJy1waCcsICc3LjAnLCAnLXRuJywgJzgnLCAnLW1hJywgJzIwMCcsICctbWV0YWxfYmluZGluZycsICctaW1hZScsICc8aW5maWxlLm1hZT4nLCAnLW9tYWUnLCAnPG91dGZpbGUubWFlPic=

> <r_epik_Ionization_Penalty>
2.26523

> <r_epik_Ionization_Penalty_Charging>
2.26523

> <r_epik_Ionization_Penalty_Neutral>
2.92809e-08

> <r_epik_State_Penalty>
2.41338

> <r_epik_Charging_Adjusted_Penalty>
4.67861

> <i_epik_Tot_Q>
1

> <i_epik_Tot_abs_Q>
1

> <r_epik_Metal_State_Penalty>
2.42626

> <b_epik_Metal_Only>
0

> <s_lp_Force_Field>
OPLS_2005

> <r_lp_Energy>
17.4677

> <b_lp_Chiralities_Consistent>
1

> <s_lp_Variant>
AV-unprocessed.smi:3045-3

> <Gold.Version>
5.8.1

> <Gold.Id.Protein>
6NUR|6NUR_protein|mol2

> <Gold.PLP.Fitness>
48.9176

> <Gold.PLP.PLP>
-44.1611

> <Gold.PLP.part.hbond>
-2.5431

> <Gold.PLP.part.metal>
0.0000

> <Gold.PLP.part.buried>
-3.1515

> <Gold.PLP.part.nonpolar>
-39.0213

> <Gold.PLP.part.repulsive>
0.5305

> <Gold.PLP.ligand.clash>
0.0000

> <Gold.PLP.ligand.torsion>
0.6357

> <Gold.PLP.Chemscore.Hbond>
2.0000

> <Gold.PLP.Chemscore.CHOScore>
0.0000

> <Gold.PLP.Chemscore.Metal>
0.0000

> <Gold.Chemscore.Hbonds>
donor molecule, donor type, donor heavy atom, donor atom, acceptor molecule, acceptor atom, score
      L1  H    14    36       P1  7948  1.89

> <Gold.PLP.Chemscore.Internal.Correction>
0.0280

> <Gold.Rescore>
     Score         DG    S(hbond)    S(metal)    S(lipo)     H(rot)  DE(clash)    DE(int)     intcor
     13.96     -15.09       0.99        0.00      91.35       1.71       0.40       0.74       ----

> <Gold.Chemscore.Fitness>
13.9583

> <Gold.Chemscore.DG>
-15.0929

> <Gold.Chemscore.ZeroCoef>
-5.4800

> <Gold.Chemscore.Hbond>
0.9891

> <Gold.Chemscore.Metal>
0.0000

> <Gold.Chemscore.Lipo>
91.3525

> <Gold.Chemscore.Internal_Hbond>
0.0000

> <Gold.Chemscore.DEClash>
0.3967

> <Gold.Chemscore.DEInternal>
0.7378

> <Gold.Chemscore.Rot>
1.7105

> <Gold.Chemscore.Internal.Correction>
   9.000000E+99

> <Gold.Chemscore.Hbonds>
donor molecule, donor type, donor heavy atom, donor atom, acceptor molecule, acceptor atom, score
      L1  H    14    36       P1  7948  0.89

> <Gold.Chemscore.Hbond.Weighted>
-3.3035

> <Gold.Chemscore.Metal.Weighted>
-0.0000

> <Gold.Chemscore.Lipo.Weighted>
-10.6882

> <Gold.Chemscore.Internal_Hbond.Weighted>
0.0000

> <Gold.Chemscore.DEClash.Weighted>
0.3967

> <Gold.Chemscore.DEInternal.Weighted>
0.7378

> <Gold.Chemscore.Rot.Weighted>
4.3789

> <Gold.Chemscore.Internal.Correction.Weighted>
   9.000000E+99

> <Gold.Protein.RotatedTorsions>
[ 6907 6896 6895 6894 ] final  -40.42 input  -60.11 | X-H torsion
[ 7974 7965 7964 7962 ] final -120.33 input  175.53 | X-H torsion
[ 8008 7997 7996 7995 ] final   68.75 input   59.86 | X-H torsion
[ 10167 10162 10161 10158 ] final -154.59 input  -65.29 | X-H torsion
[ 10718 10713 10712 10709 ] final -146.08 input   66.30 | X-H torsion
[ 10763 10752 10751 10750 ] final  -26.38 input  -60.55 | X-H torsion
[ 11005 11000 10999 10996 ] final  111.45 input  -57.11 | X-H torsion

> <Gold.Protein.ActiveResidues>
 VAL166  LYS551  ARG553  GLY616  TRP617  ASP618  TYR619  PRO620  LYS621  CYS622 
 ASP623  PHE694  ASN695  SER759  ASP760  ASP761  ALA762  ILE779  LEU786  VAL792 
 PHE793  MET794  SER795  GLU796  ALA797  LYS798  CYS799  TRP800  GLU811  SER814 

> <Gold.Protein.RotatedAtoms>
  150.9787  134.9146  159.7830 H   0  0  0  0  0  0  0  0  0  0  0  0  # atno 6907 bound_to 6896
  152.5214  134.3441  159.9237 H   0  0  0  0  0  0  0  0  0  0  0  0  # atno 6908 bound_to 6896
  151.3448  133.3907  159.2709 H   0  0  0  0  0  0  0  0  0  0  0  0  # atno 6909 bound_to 6896
  145.0526  140.8230  143.4200 H   0  0  0  0  0  0  0  0  0  0  0  0  # atno 7974 bound_to 7965
  155.7131  140.3494  155.4983 H   0  0  0  0  0  0  0  0  0  0  0  0  # atno 8008 bound_to 7997
  155.9337  140.1089  157.1133 H   0  0  0  0  0  0  0  0  0  0  0  0  # atno 8009 bound_to 7997
  154.4090  140.1226  156.4823 H   0  0  0  0  0  0  0  0  0  0  0  0  # atno 8010 bound_to 7997
  139.7001  143.9277  152.2425 H   0  0  0  0  0  0  0  0  0  0  0  0  # atno 10167 bound_to 10162
  156.3905  130.7883  151.2085 H   0  0  0  0  0  0  0  0  0  0  0  0  # atno 10718 bound_to 10713
  153.7151  135.6948  153.5027 H   0  0  0  0  0  0  0  0  0  0  0  0  # atno 10763 bound_to 10752
  153.2244  135.4358  155.0525 H   0  0  0  0  0  0  0  0  0  0  0  0  # atno 10764 bound_to 10752
  154.8302  135.3468  154.6686 H   0  0  0  0  0  0  0  0  0  0  0  0  # atno 10765 bound_to 10752
  139.8904  134.9508  156.6434 H   0  0  0  0  0  0  0  0  0  0  0  0  # atno 11005 bound_to 11000
  145.1508  139.2515  143.5442 LP  0  0  0  0  0  0  0  0  0  0  0  0  # atno 17320 bound_to 7965
  146.3519  140.1210  142.8600 LP  0  0  0  0  0  0  0  0  0  0  0  0  # atno 17321 bound_to 7965
  139.9117  144.6852  150.8555 LP  0  0  0  0  0  0  0  0  0  0  0  0  # atno 17342 bound_to 10162
  140.7707  143.3438  151.2153 LP  0  0  0  0  0  0  0  0  0  0  0  0  # atno 17343 bound_to 10162
  157.7498  131.0317  150.4193 LP  0  0  0  0  0  0  0  0  0  0  0  0  # atno 17370 bound_to 10713
  156.4454  130.4000  149.6670 LP  0  0  0  0  0  0  0  0  0  0  0  0  # atno 17371 bound_to 10713
  140.7576  133.8844  155.8394 LP  0  0  0  0  0  0  0  0  0  0  0  0  # atno 17394 bound_to 11000
  140.9949  134.1229  157.4373 LP  0  0  0  0  0  0  0  0  0  0  0  0  # atno 17395 bound_to 11000

$$$$
