AV-unprocessed.smi:220|AV-procd|sdf|1684|dock7
  -GOLD-   2262020123D 1   1.00000     0.00000
 Structure written by MMmdl.
 51 55  0  0  0  0  0  0  0  0  1 V2000
  154.2945  141.4859  162.0167 N   0  0  0  0  0  0  0  0  0  0  0  0
  153.1861  141.9644  161.4467 C   0  0  0  0  0  0  0  0  0  0  0  0
  152.2009  142.2903  162.1072 O   0  0  0  0  0  0  0  0  0  0  0  0
  153.2003  142.0971  159.9118 C   0  0  2  0  0  0  0  0  0  0  0  0
  152.8777  143.5292  159.4222 C   0  0  2  0  0  0  0  0  0  0  0  0
  151.8490  144.3578  160.2114 C   0  0  0  0  0  0  0  0  0  0  0  0
  151.2729  145.3234  159.1751 C   0  0  0  0  0  0  0  0  0  0  0  0
  151.2820  144.5538  157.8473 C   0  0  0  0  0  0  0  0  0  0  0  0
  152.1993  143.3383  158.0678 C   0  0  2  0  0  0  0  0  0  0  0  0
  151.4615  142.0031  158.2283 C   0  0  0  0  0  0  0  0  0  0  0  0
  152.2144  141.2570  159.2294 N   0  0  0  0  0  0  0  0  0  0  0  0
  152.2171  139.8957  159.2201 C   0  0  0  0  0  0  0  0  0  0  0  0
  151.0107  139.2697  159.2205 N   0  0  0  0  0  0  0  0  0  0  0  0
  150.9332  137.9371  159.2273 C   0  0  0  0  0  0  0  0  0  0  0  0
  151.9240  137.0461  159.2292 N   0  0  0  0  0  0  0  0  0  0  0  0
  153.1412  137.6594  159.2182 C   0  0  0  0  0  0  0  0  0  0  0  0
  153.3797  139.0654  159.2150 C   0  0  0  0  0  0  0  0  0  0  0  0
  154.7511  139.2977  159.1983 N   0  0  0  0  0  0  0  0  0  0  0  0
  155.2866  138.1089  159.2056 C   0  0  0  0  0  0  0  0  0  0  0  0
  154.3920  137.0642  159.2010 N   0  0  0  0  0  0  0  0  0  0  0  0
  154.7079  135.6424  159.2026 C   0  0  0  0  0  0  0  0  0  0  0  0
  155.5485  135.1790  160.4122 C   0  0  0  0  0  0  0  0  0  0  0  0
  156.9314  135.8525  160.4017 C   0  0  0  0  0  0  0  0  0  0  0  0
  157.7255  135.4028  161.4805 O   0  0  0  0  0  0  0  0  0  0  0  0
  154.8263  135.2024  161.7678 C   0  0  0  0  0  0  0  0  0  0  0  0
  154.7317  133.7640  161.8228 O   0  0  0  0  0  0  0  0  0  0  0  0
  155.5613  133.6623  160.6467 C   0  0  0  0  0  0  0  0  0  0  0  0
  154.3355  141.3812  163.0202 H   0  0  0  0  0  0  0  0  0  0  0  0
  155.0868  141.2319  161.4450 H   0  0  0  0  0  0  0  0  0  0  0  0
  154.1872  141.8277  159.5340 H   0  0  0  0  0  0  0  0  0  0  0  0
  153.7916  144.1140  159.3073 H   0  0  0  0  0  0  0  0  0  0  0  0
  151.0479  143.7206  160.5895 H   0  0  0  0  0  0  0  0  0  0  0  0
  152.2912  144.8764  161.0628 H   0  0  0  0  0  0  0  0  0  0  0  0
  150.2772  145.6756  159.4461 H   0  0  0  0  0  0  0  0  0  0  0  0
  151.9203  146.1977  159.0944 H   0  0  0  0  0  0  0  0  0  0  0  0
  150.2752  144.2444  157.5646 H   0  0  0  0  0  0  0  0  0  0  0  0
  151.6585  145.1889  157.0448 H   0  0  0  0  0  0  0  0  0  0  0  0
  152.9492  143.2510  157.2803 H   0  0  0  0  0  0  0  0  0  0  0  0
  150.4467  142.1451  158.6023 H   0  0  0  0  0  0  0  0  0  0  0  0
  151.4002  141.4801  157.2728 H   0  0  0  0  0  0  0  0  0  0  0  0
  149.9343  137.5265  159.2330 H   0  0  0  0  0  0  0  0  0  0  0  0
  156.3568  137.9665  159.2139 H   0  0  0  0  0  0  0  0  0  0  0  0
  153.7644  135.0962  159.1666 H   0  0  0  0  0  0  0  0  0  0  0  0
  155.2157  135.4018  158.2679 H   0  0  0  0  0  0  0  0  0  0  0  0
  157.4617  135.6775  159.4659 H   0  0  0  0  0  0  0  0  0  0  0  0
  156.8326  136.9346  160.4932 H   0  0  0  0  0  0  0  0  0  0  0  0
  157.7222  136.0656  162.1542 H   0  0  0  0  0  0  0  0  0  0  0  0
  155.4292  135.6005  162.5851 H   0  0  0  0  0  0  0  0  0  0  0  0
  153.8442  135.6732  161.7507 H   0  0  0  0  0  0  0  0  0  0  0  0
  155.0854  133.0874  159.8514 H   0  0  0  0  0  0  0  0  0  0  0  0
  156.5473  133.2575  160.8795 H   0  0  0  0  0  0  0  0  0  0  0  0
  1  2  1  0  0  0  0
  1 28  1  0  0  0  0
  1 29  1  0  0  0  0
  2  3  2  0  0  0  0
  2  4  1  0  0  0  0
  4 11  1  0  0  0  0
  4  5  1  0  0  0  0
  4 30  1  0  0  0  0
  5  9  1  0  0  0  0
  5  6  1  0  0  0  0
  5 31  1  0  0  0  0
  6  7  1  0  0  0  0
  6 32  1  0  0  0  0
  6 33  1  0  0  0  0
  7  8  1  0  0  0  0
  7 34  1  0  0  0  0
  7 35  1  0  0  0  0
  8  9  1  0  0  0  0
  8 36  1  0  0  0  0
  8 37  1  0  0  0  0
  9 10  1  0  0  0  0
  9 38  1  0  0  0  0
 10 11  1  0  0  0  0
 10 39  1  0  0  0  0
 10 40  1  0  0  0  0
 11 12  1  0  0  0  0
 12 17  1  0  0  0  0
 12 13  2  0  0  0  0
 13 14  1  0  0  0  0
 14 15  2  0  0  0  0
 14 41  1  0  0  0  0
 15 16  1  0  0  0  0
 16 20  1  0  0  0  0
 16 17  2  0  0  0  0
 17 18  1  0  0  0  0
 18 19  2  0  0  0  0
 19 20  1  0  0  0  0
 19 42  1  0  0  0  0
 20 21  1  0  0  0  0
 21 22  1  0  0  0  0
 21 43  1  0  0  0  0
 21 44  1  0  0  0  0
 22 27  1  0  0  0  0
 22 23  1  0  0  0  0
 22 25  1  0  0  0  0
 23 24  1  0  0  0  0
 23 45  1  0  0  0  0
 23 46  1  0  0  0  0
 24 47  1  0  0  0  0
 25 26  1  0  0  0  0
 25 48  1  0  0  0  0
 25 49  1  0  0  0  0
 26 27  1  0  0  0  0
 27 50  1  0  0  0  0
 27 51  1  0  0  0  0
M  END
> <s_m_source_file>
AV-unprocessed.smi

> <i_m_source_file_index>
220

> <i_lp_mmshare_version>
43012

> <i_f3d_flags>
0

> <s_epik_input>
W0NIMl0xW0NIMl1bQ0gyXVtDQEhdKFtDQEhdMTIpW0NIMl1OKFtDQEBIXTJDKD1PKVtOSDJdKWMobltjSF1uMyljKGMzNCluW2NIXW40W0NIMl1DNShbQ0gyXVtPSF0pW0NIMl1PW0NIMl01

> <s_epik_cmdline>
J2VwaWtfcHl0aG9uJywgJy1waCcsICc3LjAnLCAnLXRuJywgJzgnLCAnLW1hJywgJzIwMCcsICctbWV0YWxfYmluZGluZycsICctaW1hZScsICc8aW5maWxlLm1hZT4nLCAnLW9tYWUnLCAnPG91dGZpbGUubWFlPic=

> <r_lp_tautomer_probability>
1

> <r_epik_Ionization_Penalty>
0.00118987

> <r_epik_Ionization_Penalty_Charging>
0

> <r_epik_Ionization_Penalty_Neutral>
0.00118987

> <r_epik_State_Penalty>
0.000654261

> <r_epik_Charging_Adjusted_Penalty>
0.000654261

> <i_epik_Tot_Q>
0

> <i_epik_Tot_abs_Q>
0

> <r_epik_Metal_State_Penalty>
-0

> <b_epik_Metal_Only>
0

> <s_lp_Force_Field>
OPLS_2005

> <r_lp_Energy>
60.6153

> <b_lp_Chiralities_Consistent>
1

> <s_lp_Variant>
AV-unprocessed.smi:220-3

> <Gold.Version>
5.8.1

> <Gold.Id.Protein>
6NUR|6NUR_protein|mol2

> <Gold.PLP.Fitness>
49.8094

> <Gold.PLP.PLP>
-43.9131

> <Gold.PLP.part.hbond>
-4.1218

> <Gold.PLP.part.metal>
0.0000

> <Gold.PLP.part.buried>
-6.3927

> <Gold.PLP.part.nonpolar>
-34.8479

> <Gold.PLP.part.repulsive>
0.1068

> <Gold.PLP.ligand.clash>
0.0000

> <Gold.PLP.ligand.torsion>
0.9235

> <Gold.PLP.Chemscore.Hbond>
2.4418

> <Gold.PLP.Chemscore.CHOScore>
0.0000

> <Gold.PLP.Chemscore.Metal>
0.0000

> <Gold.Chemscore.Hbonds>
donor molecule, donor type, donor heavy atom, donor atom, acceptor molecule, acceptor atom, score
      P1  H  6896  6909       L1    15  0.94
      P1  H  6933  6945       L1     3  0.53
      P1  H  7997  8008       L1    18  1.00

> <Gold.PLP.Chemscore.Internal.Correction>
0.4179

> <Gold.Rescore>
     Score         DG    S(hbond)    S(metal)    S(lipo)     H(rot)  DE(clash)    DE(int)     intcor
     12.78     -15.41       1.84        0.00      95.62       2.89       0.32       2.31       ----

> <Gold.Chemscore.Fitness>
12.7828

> <Gold.Chemscore.DG>
-15.4132

> <Gold.Chemscore.ZeroCoef>
-5.4800

> <Gold.Chemscore.Hbond>
1.8373

> <Gold.Chemscore.Metal>
0.0000

> <Gold.Chemscore.Lipo>
95.6174

> <Gold.Chemscore.Internal_Hbond>
0.0000

> <Gold.Chemscore.DEClash>
0.3172

> <Gold.Chemscore.DEInternal>
2.3132

> <Gold.Chemscore.Rot>
2.8869

> <Gold.Chemscore.Internal.Correction>
   9.000000E+99

> <Gold.Chemscore.Hbonds>
donor molecule, donor type, donor heavy atom, donor atom, acceptor molecule, acceptor atom, score
      P1  H  6896  6909       L1    15  0.86
      P1  H  6933  6945       L1     3  0.49
      P1  H  7997  8008       L1    18  0.24

> <Gold.Chemscore.Hbond.Weighted>
-6.1365

> <Gold.Chemscore.Metal.Weighted>
-0.0000

> <Gold.Chemscore.Lipo.Weighted>
-11.1872

> <Gold.Chemscore.Internal_Hbond.Weighted>
0.0000

> <Gold.Chemscore.DEClash.Weighted>
0.3172

> <Gold.Chemscore.DEInternal.Weighted>
2.3132

> <Gold.Chemscore.Rot.Weighted>
7.3905

> <Gold.Chemscore.Internal.Correction.Weighted>
   9.000000E+99

> <Gold.Protein.RotatedTorsions>
[ 6907 6896 6895 6894 ] final  126.39 input  -60.11 | X-H torsion
[ 7974 7965 7964 7962 ] final   72.39 input  175.53 | X-H torsion
[ 8008 7997 7996 7995 ] final -127.31 input   59.86 | X-H torsion
[ 10167 10162 10161 10158 ] final -178.01 input  -65.29 | X-H torsion
[ 10718 10713 10712 10709 ] final  -31.34 input   66.30 | X-H torsion
[ 10763 10752 10751 10750 ] final -152.28 input  -60.55 | X-H torsion
[ 11005 11000 10999 10996 ] final -156.80 input  -57.11 | X-H torsion

> <Gold.Protein.ActiveResidues>
 VAL166  LYS551  ARG553  GLY616  TRP617  ASP618  TYR619  PRO620  LYS621  CYS622 
 ASP623  PHE694  ASN695  SER759  ASP760  ASP761  ALA762  ILE779  LEU786  VAL792 
 PHE793  MET794  SER795  GLU796  ALA797  LYS798  CYS799  TRP800  GLU811  SER814 

> <Gold.Protein.RotatedAtoms>
  152.3908  133.6676  159.6235 H   0  0  0  0  0  0  0  0  0  0  0  0  # atno 6907 bound_to 6896
  150.7817  133.8957  159.3335 H   0  0  0  0  0  0  0  0  0  0  0  0  # atno 6908 bound_to 6896
  151.6744  135.0972  160.0255 H   0  0  0  0  0  0  0  0  0  0  0  0  # atno 6909 bound_to 6896
  145.7539  139.2771  143.1415 H   0  0  0  0  0  0  0  0  0  0  0  0  # atno 7974 bound_to 7965
  155.2440  140.0430  157.2978 H   0  0  0  0  0  0  0  0  0  0  0  0  # atno 8008 bound_to 7997
  154.5810  140.2400  155.8023 H   0  0  0  0  0  0  0  0  0  0  0  0  # atno 8009 bound_to 7997
  156.2193  140.2975  155.9922 H   0  0  0  0  0  0  0  0  0  0  0  0  # atno 8010 bound_to 7997
  139.5453  144.2253  152.0975 H   0  0  0  0  0  0  0  0  0  0  0  0  # atno 10167 bound_to 10162
  156.3885  130.4368  149.7413 H   0  0  0  0  0  0  0  0  0  0  0  0  # atno 10718 bound_to 10713
  154.8004  135.3240  154.7563 H   0  0  0  0  0  0  0  0  0  0  0  0  # atno 10763 bound_to 10752
  153.8233  135.6886  153.4828 H   0  0  0  0  0  0  0  0  0  0  0  0  # atno 10764 bound_to 10752
  153.1718  135.4620  154.9855 H   0  0  0  0  0  0  0  0  0  0  0  0  # atno 10765 bound_to 10752
  140.6716  134.4241  157.5231 H   0  0  0  0  0  0  0  0  0  0  0  0  # atno 11005 bound_to 11000
  146.0330  140.8240  142.9866 LP  0  0  0  0  0  0  0  0  0  0  0  0  # atno 17320 bound_to 7965
  144.6844  140.2797  143.7294 LP  0  0  0  0  0  0  0  0  0  0  0  0  # atno 17321 bound_to 7965
  140.1739  144.4910  150.6565 LP  0  0  0  0  0  0  0  0  0  0  0  0  # atno 17342 bound_to 10162
  140.6698  143.2281  151.5653 LP  0  0  0  0  0  0  0  0  0  0  0  0  # atno 17343 bound_to 10162
  156.4476  130.7891  151.2912 LP  0  0  0  0  0  0  0  0  0  0  0  0  # atno 17370 bound_to 10713
  157.7497  131.0105  150.3310 LP  0  0  0  0  0  0  0  0  0  0  0  0  # atno 17371 bound_to 10713
  139.8980  134.8624  156.2022 LP  0  0  0  0  0  0  0  0  0  0  0  0  # atno 17394 bound_to 11000
  141.0387  133.6949  156.1559 LP  0  0  0  0  0  0  0  0  0  0  0  0  # atno 17395 bound_to 11000

$$$$
