AV-unprocessed.smi:2641|AV-procd|sdf|10272|dock4
  -GOLD-   2272014283D 1   1.00000     0.00000
 Structure written by MMmdl.
 39 40  0  0  0  0  0  0  0  0  2 V2000
  152.0385  144.9630  160.5012 C   0  0  0  0  0  0  0  0  0  0  0  0
  151.9025  143.8182  159.5190 C   0  0  0  0  0  0  0  0  0  0  0  0
  152.7847  142.7180  159.5636 C   0  0  0  0  0  0  0  0  0  0  0  0
  152.6091  141.6801  158.6282 C   0  0  0  0  0  0  0  0  0  0  0  0
  151.5624  141.7807  157.6884 C   0  0  0  0  0  0  0  0  0  0  0  0
  151.3259  140.6846  156.6645 C   0  0  0  0  0  0  0  0  0  0  0  0
  151.1697  139.3276  157.3530 C   0  0  0  0  0  0  0  0  0  0  0  0
  151.2681  139.2607  158.5775 O   0  0  0  0  0  0  0  0  0  0  0  0
  150.9247  138.2867  156.5347 N   0  0  0  0  0  0  0  0  0  0  0  0
  150.6990  136.8550  156.7956 C   0  0  0  0  0  0  0  0  0  0  0  0
  151.8912  136.4170  157.6858 C   0  0  0  0  0  0  0  0  0  0  0  0
  151.9186  136.8234  158.8695 O   0  0  0  0  0  0  0  0  0  0  0  0
  152.7888  135.7195  157.1621 O   0  5  0  0  0  0  0  0  0  0  0  0
  149.3512  136.7443  157.5657 C   0  0  0  0  0  0  0  0  0  0  0  0
  148.9372  135.2918  157.8760 C   0  0  0  0  0  0  0  0  0  0  0  0
  148.8685  134.4464  156.5965 C   0  0  0  0  0  0  0  0  0  0  0  0
  150.1922  134.5063  155.8212 C   0  0  0  0  0  0  0  0  0  0  0  0
  150.5927  135.9631  155.5163 C   0  0  0  0  0  0  0  0  0  0  0  0
  150.7385  142.9257  157.7268 C   0  0  0  0  0  0  0  0  0  0  0  0
  150.8990  143.9258  158.6202 N   0  0  0  0  0  0  0  0  0  0  0  0
  152.8094  144.7572  161.2443 H   0  0  0  0  0  0  0  0  0  0  0  0
  151.0972  145.1280  161.0266 H   0  0  0  0  0  0  0  0  0  0  0  0
  152.3066  145.8810  159.9777 H   0  0  0  0  0  0  0  0  0  0  0  0
  153.5775  142.6671  160.2959 H   0  0  0  0  0  0  0  0  0  0  0  0
  153.2664  140.8228  158.6337 H   0  0  0  0  0  0  0  0  0  0  0  0
  150.4239  140.9002  156.0906 H   0  0  0  0  0  0  0  0  0  0  0  0
  152.1530  140.6647  155.9528 H   0  0  0  0  0  0  0  0  0  0  0  0
  150.8607  138.5255  155.5559 H   0  0  0  0  0  0  0  0  0  0  0  0
  149.3803  137.3187  158.4929 H   0  0  0  0  0  0  0  0  0  0  0  0
  148.5637  137.2067  156.9686 H   0  0  0  0  0  0  0  0  0  0  0  0
  149.6409  134.8410  158.5765 H   0  0  0  0  0  0  0  0  0  0  0  0
  147.9673  135.2843  158.3740 H   0  0  0  0  0  0  0  0  0  0  0  0
  148.6280  133.4124  156.8446 H   0  0  0  0  0  0  0  0  0  0  0  0
  148.0586  134.8099  155.9627 H   0  0  0  0  0  0  0  0  0  0  0  0
  150.9767  134.0089  156.3924 H   0  0  0  0  0  0  0  0  0  0  0  0
  150.0969  133.9491  154.8889 H   0  0  0  0  0  0  0  0  0  0  0  0
  149.8331  136.3740  154.8504 H   0  0  0  0  0  0  0  0  0  0  0  0
  151.5247  135.9691  154.9494 H   0  0  0  0  0  0  0  0  0  0  0  0
  149.9275  143.0423  157.0228 H   0  0  0  0  0  0  0  0  0  0  0  0
  1  2  1  0  0  0  0
  1 21  1  0  0  0  0
  1 22  1  0  0  0  0
  1 23  1  0  0  0  0
  2 20  1  0  0  0  0
  2  3  2  0  0  0  0
  3  4  1  0  0  0  0
  3 24  1  0  0  0  0
  4  5  2  0  0  0  0
  4 25  1  0  0  0  0
  5  6  1  0  0  0  0
  5 19  1  0  0  0  0
  6  7  1  0  0  0  0
  6 26  1  0  0  0  0
  6 27  1  0  0  0  0
  7  8  2  0  0  0  0
  7  9  1  0  0  0  0
  9 10  1  0  0  0  0
  9 28  1  0  0  0  0
 10 18  1  0  0  0  0
 10 11  1  0  0  0  0
 10 14  1  0  0  0  0
 11 12  2  0  0  0  0
 11 13  1  0  0  0  0
 14 15  1  0  0  0  0
 14 29  1  0  0  0  0
 14 30  1  0  0  0  0
 15 16  1  0  0  0  0
 15 31  1  0  0  0  0
 15 32  1  0  0  0  0
 16 17  1  0  0  0  0
 16 33  1  0  0  0  0
 16 34  1  0  0  0  0
 17 18  1  0  0  0  0
 17 35  1  0  0  0  0
 17 36  1  0  0  0  0
 18 37  1  0  0  0  0
 18 38  1  0  0  0  0
 19 20  2  0  0  0  0
 19 39  1  0  0  0  0
M  CHG  1  13  -1
M  END
> <s_m_source_file>
AV-unprocessed.smi

> <i_m_source_file_index>
2641

> <i_lp_mmshare_version>
43012

> <i_f3d_flags>
0

> <s_epik_input>
W0NIM11jMVtjSF1bY0hdYyhbY0hdbjEpW0NIMl1DKD1PKVtOSF1DMihDKD1PKVtPSF0pW0NIMl1bQ0gyXVtDSDJdW0NIMl1bQ0gyXTI=

> <s_epik_cmdline>
J2VwaWtfcHl0aG9uJywgJy1waCcsICc3LjAnLCAnLXRuJywgJzgnLCAnLW1hJywgJzIwMCcsICctbWV0YWxfYmluZGluZycsICctaW1hZScsICc8aW5maWxlLm1hZT4nLCAnLW9tYWUnLCAnPG91dGZpbGUubWFlPic=

> <r_epik_Ionization_Penalty>
0.0190831

> <r_epik_Ionization_Penalty_Charging>
0.000391215

> <r_epik_Ionization_Penalty_Neutral>
0.0186919

> <r_epik_State_Penalty>
0.0148876

> <r_epik_Charging_Adjusted_Penalty>
0.0152789

> <i_epik_Tot_Q>
-1

> <i_epik_Tot_abs_Q>
1

> <r_epik_Metal_State_Penalty>
0.0144298

> <b_epik_Metal_Only>
0

> <s_lp_Force_Field>
OPLS_2005

> <r_lp_Energy>
4.43457

> <b_lp_Chiralities_Consistent>
1

> <s_lp_Variant>
AV-unprocessed.smi:2641-1

> <Gold.Version>
5.8.1

> <Gold.Id.Protein>
6NUR|6NUR_protein|mol2

> <Gold.PLP.Fitness>
40.6626

> <Gold.PLP.PLP>
-27.8502

> <Gold.PLP.part.hbond>
-2.0000

> <Gold.PLP.part.metal>
0.0000

> <Gold.PLP.part.buried>
-4.3187

> <Gold.PLP.part.nonpolar>
-22.5892

> <Gold.PLP.part.repulsive>
0.1554

> <Gold.PLP.ligand.clash>
0.0000

> <Gold.PLP.ligand.torsion>
0.7098

> <Gold.PLP.Chemscore.Hbond>
3.7280

> <Gold.PLP.Chemscore.CHOScore>
1.0000

> <Gold.PLP.Chemscore.Metal>
0.0000

> <Gold.Chemscore.Hbonds>
donor molecule, donor type, donor heavy atom, donor atom, acceptor molecule, acceptor atom, score
      P1  H  6896  6909       L1    12  1.73
      P1  H 10752 10764       L1    13  2.00
      L1  C    19    39       P1  8028  1.00

> <Gold.PLP.Chemscore.Internal.Correction>
0.0480

> <Gold.Rescore>
     Score         DG    S(hbond)    S(metal)    S(lipo)     H(rot)  DE(clash)    DE(int)     intcor
     13.03     -16.88       1.72        0.00      88.74       1.85       0.12       3.73       ----

> <Gold.Chemscore.Fitness>
13.0288

> <Gold.Chemscore.DG>
-16.8812

> <Gold.Chemscore.ZeroCoef>
-5.4800

> <Gold.Chemscore.Hbond>
1.7210

> <Gold.Chemscore.Metal>
0.0000

> <Gold.Chemscore.Lipo>
88.7391

> <Gold.Chemscore.Internal_Hbond>
0.0000

> <Gold.Chemscore.DEClash>
0.1213

> <Gold.Chemscore.DEInternal>
3.7311

> <Gold.Chemscore.Rot>
1.8474

> <Gold.Chemscore.Internal.Correction>
   9.000000E+99

> <Gold.Chemscore.Hbonds>
donor molecule, donor type, donor heavy atom, donor atom, acceptor molecule, acceptor atom, score
      P1  H  6896  6909       L1    12  0.36
      P1  H 10752 10764       L1    13  0.96

> <Gold.Chemscore.Hbond.Weighted>
-5.7482

> <Gold.Chemscore.Metal.Weighted>
-0.0000

> <Gold.Chemscore.Lipo.Weighted>
-10.3825

> <Gold.Chemscore.Internal_Hbond.Weighted>
0.0000

> <Gold.Chemscore.DEClash.Weighted>
0.1213

> <Gold.Chemscore.DEInternal.Weighted>
3.7311

> <Gold.Chemscore.Rot.Weighted>
4.7294

> <Gold.Chemscore.Internal.Correction.Weighted>
   9.000000E+99

> <Gold.Protein.RotatedTorsions>
[ 6907 6896 6895 6894 ] final  116.06 input  -60.11 | X-H torsion
[ 7974 7965 7964 7962 ] final    7.26 input  175.53 | X-H torsion
[ 8008 7997 7996 7995 ] final  114.07 input   59.86 | X-H torsion
[ 10167 10162 10161 10158 ] final -111.36 input  -65.29 | X-H torsion
[ 10718 10713 10712 10709 ] final   68.74 input   66.30 | X-H torsion
[ 10763 10752 10751 10750 ] final   -7.97 input  -60.55 | X-H torsion
[ 11005 11000 10999 10996 ] final  -13.74 input  -57.11 | X-H torsion

> <Gold.Protein.ActiveResidues>
 VAL166  LYS551  ARG553  GLY616  TRP617  ASP618  TYR619  PRO620  LYS621  CYS622 
 ASP623  PHE694  ASN695  SER759  ASP760  ASP761  ALA762  ILE779  LEU786  VAL792 
 PHE793  MET794  SER795  GLU796  ALA797  LYS798  CYS799  TRP800  GLU811  SER814 

> <Gold.Protein.RotatedAtoms>
  152.4702  133.8012  159.6953 H   0  0  0  0  0  0  0  0  0  0  0  0  # atno 6907 bound_to 6896
  150.8687  133.7527  159.2975 H   0  0  0  0  0  0  0  0  0  0  0  0  # atno 6908 bound_to 6896
  151.5069  135.1067  159.9896 H   0  0  0  0  0  0  0  0  0  0  0  0  # atno 6909 bound_to 6896
  146.2428  140.0111  142.8406 H   0  0  0  0  0  0  0  0  0  0  0  0  # atno 7974 bound_to 7965
  156.2298  140.2967  156.0159 H   0  0  0  0  0  0  0  0  0  0  0  0  # atno 8008 bound_to 7997
  155.2257  140.0417  157.2972 H   0  0  0  0  0  0  0  0  0  0  0  0  # atno 8009 bound_to 7997
  154.5976  140.2418  155.7843 H   0  0  0  0  0  0  0  0  0  0  0  0  # atno 8010 bound_to 7997
  140.1344  143.4333  152.1605 H   0  0  0  0  0  0  0  0  0  0  0  0  # atno 10167 bound_to 10162
  157.6306  130.9389  150.0419 H   0  0  0  0  0  0  0  0  0  0  0  0  # atno 10718 bound_to 10713
  153.4338  135.7012  153.6213 H   0  0  0  0  0  0  0  0  0  0  0  0  # atno 10763 bound_to 10752
  153.4617  135.3735  155.2342 H   0  0  0  0  0  0  0  0  0  0  0  0  # atno 10764 bound_to 10752
  154.8726  135.4021  154.3726 H   0  0  0  0  0  0  0  0  0  0  0  0  # atno 10765 bound_to 10752
  140.7793  133.8376  155.9277 H   0  0  0  0  0  0  0  0  0  0  0  0  # atno 11005 bound_to 11000
  145.1327  140.9527  143.4535 LP  0  0  0  0  0  0  0  0  0  0  0  0  # atno 17320 bound_to 7965
  145.0372  139.3291  143.5995 LP  0  0  0  0  0  0  0  0  0  0  0  0  # atno 17321 bound_to 7965
  139.5503  144.7332  151.4455 LP  0  0  0  0  0  0  0  0  0  0  0  0  # atno 17342 bound_to 10162
  140.6798  143.8108  150.7106 LP  0  0  0  0  0  0  0  0  0  0  0  0  # atno 17343 bound_to 10162
  156.1508  130.3642  149.9441 LP  0  0  0  0  0  0  0  0  0  0  0  0  # atno 17370 bound_to 10713
  156.7462  130.9098  151.3635 LP  0  0  0  0  0  0  0  0  0  0  0  0  # atno 17371 bound_to 10713
  140.9498  134.1793  157.4736 LP  0  0  0  0  0  0  0  0  0  0  0  0  # atno 17394 bound_to 11000
  139.8745  134.9905  156.5505 LP  0  0  0  0  0  0  0  0  0  0  0  0  # atno 17395 bound_to 11000

$$$$
