AV-unprocessed.smi:3051|AV-procd|sdf|11633|dock10
  -GOLD-   2272017 23D 1   1.00000     0.00000
 Structure written by MMmdl.
 37 37  0  0  0  0  0  0  0  0  1 V2000
  149.7189  137.2005  158.7961 C   0  0  0  0  0  0  0  0  0  0  0  0
  151.1234  137.3888  158.2081 C   0  0  0  0  0  0  0  0  0  0  0  0
  151.0712  137.9828  156.8779 N   0  0  0  0  0  0  0  0  0  0  0  0
  151.6044  137.4448  155.7695 C   0  0  0  0  0  0  0  0  0  0  0  0
  152.2050  136.3703  155.7576 O   0  0  0  0  0  0  0  0  0  0  0  0
  151.4264  138.2349  154.4717 C   0  0  0  0  0  0  0  0  0  0  0  0
  150.6664  139.4525  154.6927 N   0  0  0  0  0  0  0  0  0  0  0  0
  149.5913  139.9354  153.9720 C   0  0  0  0  0  0  0  0  0  0  0  0
  149.2059  141.1126  154.5482 C   0  0  0  0  0  0  0  0  0  0  0  0
  150.1184  141.2606  155.6280 C   0  0  0  0  0  0  0  0  0  0  0  0
  150.0687  142.3587  156.4948 N   0  0  0  0  0  0  0  0  0  0  0  0
  151.0171  142.4867  157.5953 C   0  0  2  0  0  0  0  0  0  0  0  0
  151.1000  141.1788  158.4006 C   0  0  0  0  0  0  0  0  0  0  0  0
  150.6217  143.6634  158.5006 C   0  0  0  0  0  0  0  0  0  0  0  0
  151.7584  144.0942  159.2317 O   0  0  0  0  0  0  0  0  0  0  0  0
  152.7705  144.6291  158.3971 C   0  0  0  0  0  0  0  0  0  0  0  0
  150.9945  140.2713  155.7164 N   0  0  0  0  0  0  0  0  0  0  0  0
  149.7738  136.7881  159.8037 H   0  0  0  0  0  0  0  0  0  0  0  0
  149.1229  136.5165  158.1911 H   0  0  0  0  0  0  0  0  0  0  0  0
  149.1856  138.1500  158.8541 H   0  0  0  0  0  0  0  0  0  0  0  0
  151.7056  138.0481  158.8523 H   0  0  0  0  0  0  0  0  0  0  0  0
  151.6542  136.4359  158.1783 H   0  0  0  0  0  0  0  0  0  0  0  0
  150.5996  138.8719  156.7924 H   0  0  0  0  0  0  0  0  0  0  0  0
  152.4002  138.5025  154.0597 H   0  0  0  0  0  0  0  0  0  0  0  0
  150.9222  137.6160  153.7273 H   0  0  0  0  0  0  0  0  0  0  0  0
  149.1964  139.4065  153.1172 H   0  0  0  0  0  0  0  0  0  0  0  0
  148.3986  141.7625  154.2446 H   0  0  0  0  0  0  0  0  0  0  0  0
  149.3941  143.0943  156.3414 H   0  0  0  0  0  0  0  0  0  0  0  0
  152.0052  142.6989  157.1847 H   0  0  0  0  0  0  0  0  0  0  0  0
  151.8178  141.2663  159.2165 H   0  0  0  0  0  0  0  0  0  0  0  0
  151.4195  140.3432  157.7777 H   0  0  0  0  0  0  0  0  0  0  0  0
  150.1341  140.9187  158.8350 H   0  0  0  0  0  0  0  0  0  0  0  0
  150.2075  144.4825  157.9095 H   0  0  0  0  0  0  0  0  0  0  0  0
  149.8493  143.3470  159.2036 H   0  0  0  0  0  0  0  0  0  0  0  0
  153.6173  144.9461  159.0056 H   0  0  0  0  0  0  0  0  0  0  0  0
  152.4093  145.4978  157.8453 H   0  0  0  0  0  0  0  0  0  0  0  0
  153.1278  143.8845  157.6847 H   0  0  0  0  0  0  0  0  0  0  0  0
  1  2  1  0  0  0  0
  1 18  1  0  0  0  0
  1 19  1  0  0  0  0
  1 20  1  0  0  0  0
  2  3  1  0  0  0  0
  2 21  1  0  0  0  0
  2 22  1  0  0  0  0
  3  4  1  0  0  0  0
  3 23  1  0  0  0  0
  4  5  2  0  0  0  0
  4  6  1  0  0  0  0
  6  7  1  0  0  0  0
  6 24  1  0  0  0  0
  6 25  1  0  0  0  0
  7 17  1  0  0  0  0
  7  8  1  0  0  0  0
  8  9  2  0  0  0  0
  8 26  1  0  0  0  0
  9 10  1  0  0  0  0
  9 27  1  0  0  0  0
 10 11  1  0  0  0  0
 10 17  2  0  0  0  0
 11 12  1  0  0  0  0
 11 28  1  0  0  0  0
 12 13  1  0  0  0  0
 12 14  1  0  0  0  0
 12 29  1  0  0  0  0
 13 30  1  0  0  0  0
 13 31  1  0  0  0  0
 13 32  1  0  0  0  0
 14 15  1  0  0  0  0
 14 33  1  0  0  0  0
 14 34  1  0  0  0  0
 15 16  1  0  0  0  0
 16 35  1  0  0  0  0
 16 36  1  0  0  0  0
 16 37  1  0  0  0  0
M  END
> <s_m_source_file>
AV-unprocessed.smi

> <i_m_source_file_index>
3051

> <i_lp_mmshare_version>
43012

> <i_f3d_flags>
0

> <s_epik_input>
W0NIM11bQ0gyXVtOSF1DKD1PKVtDSDJdbjFbY0hdW2NIXWMobjEpW05IXVtDQEhdKFtDSDNdKVtDSDJdT1tDSDNd

> <s_epik_cmdline>
J2VwaWtfcHl0aG9uJywgJy1waCcsICc3LjAnLCAnLXRuJywgJzgnLCAnLW1hJywgJzIwMCcsICctbWV0YWxfYmluZGluZycsICctaW1hZScsICc8aW5maWxlLm1hZT4nLCAnLW9tYWUnLCAnPG91dGZpbGUubWFlPic=

> <r_lp_tautomer_probability>
1

> <r_epik_Ionization_Penalty>
0.00023157

> <r_epik_Ionization_Penalty_Charging>
0

> <r_epik_Ionization_Penalty_Neutral>
0.00023157

> <r_epik_State_Penalty>
-0

> <r_epik_Charging_Adjusted_Penalty>
0

> <i_epik_Tot_Q>
0

> <i_epik_Tot_abs_Q>
0

> <r_epik_Metal_State_Penalty>
-0

> <b_epik_Metal_Only>
0

> <s_lp_Force_Field>
OPLS_2005

> <r_lp_Energy>
4.00538

> <b_lp_Chiralities_Consistent>
1

> <s_lp_Variant>
AV-unprocessed.smi:3051-1

> <Gold.Version>
5.8.1

> <Gold.Id.Protein>
6NUR|6NUR_protein|mol2

> <Gold.PLP.Fitness>
40.4172

> <Gold.PLP.PLP>
-32.9120

> <Gold.PLP.part.hbond>
-2.0338

> <Gold.PLP.part.metal>
0.0000

> <Gold.PLP.part.buried>
-2.1225

> <Gold.PLP.part.nonpolar>
-28.3939

> <Gold.PLP.part.repulsive>
0.1558

> <Gold.PLP.ligand.clash>
0.0000

> <Gold.PLP.ligand.torsion>
0.4170

> <Gold.PLP.Chemscore.Hbond>
2.0000

> <Gold.PLP.Chemscore.CHOScore>
0.7714

> <Gold.PLP.Chemscore.Metal>
0.0000

> <Gold.Chemscore.Hbonds>
donor molecule, donor type, donor heavy atom, donor atom, acceptor molecule, acceptor atom, score
      L1  H    11    28       P1  8028  1.00
      P1  H 10752 10763       L1     5  0.94
      L1  C     8    26       P1  7957  0.83

> <Gold.PLP.Chemscore.Internal.Correction>
0.0250

> <Gold.Rescore>
     Score         DG    S(hbond)    S(metal)    S(lipo)     H(rot)  DE(clash)    DE(int)     intcor
     11.31     -14.56       1.98        0.00      68.85       2.19       0.00       3.24       ----

> <Gold.Chemscore.Fitness>
11.3147

> <Gold.Chemscore.DG>
-14.5568

> <Gold.Chemscore.ZeroCoef>
-5.4800

> <Gold.Chemscore.Hbond>
1.9837

> <Gold.Chemscore.Metal>
0.0000

> <Gold.Chemscore.Lipo>
68.8464

> <Gold.Chemscore.Internal_Hbond>
0.0000

> <Gold.Chemscore.DEClash>
0.0029

> <Gold.Chemscore.DEInternal>
3.2393

> <Gold.Chemscore.Rot>
2.1890

> <Gold.Chemscore.Internal.Correction>
   9.000000E+99

> <Gold.Chemscore.Hbonds>
donor molecule, donor type, donor heavy atom, donor atom, acceptor molecule, acceptor atom, score
      L1  H    11    28       P1  8028  0.97
      P1  H 10752 10763       L1     5  0.86

> <Gold.Chemscore.Hbond.Weighted>
-6.6257

> <Gold.Chemscore.Metal.Weighted>
-0.0000

> <Gold.Chemscore.Lipo.Weighted>
-8.0550

> <Gold.Chemscore.Internal_Hbond.Weighted>
0.0000

> <Gold.Chemscore.DEClash.Weighted>
0.0029

> <Gold.Chemscore.DEInternal.Weighted>
3.2393

> <Gold.Chemscore.Rot.Weighted>
5.6039

> <Gold.Chemscore.Internal.Correction.Weighted>
   9.000000E+99

> <Gold.Protein.RotatedTorsions>
[ 6907 6896 6895 6894 ] final -161.76 input  -60.11 | X-H torsion
[ 7974 7965 7964 7962 ] final  105.04 input  175.53 | X-H torsion
[ 8008 7997 7996 7995 ] final  -89.14 input   59.86 | X-H torsion
[ 10167 10162 10161 10158 ] final -145.29 input  -65.29 | X-H torsion
[ 10718 10713 10712 10709 ] final  -86.91 input   66.30 | X-H torsion
[ 10763 10752 10751 10750 ] final   97.49 input  -60.55 | X-H torsion
[ 11005 11000 10999 10996 ] final  123.63 input  -57.11 | X-H torsion

> <Gold.Protein.ActiveResidues>
 VAL166  LYS551  ARG553  GLY616  TRP617  ASP618  TYR619  PRO620  LYS621  CYS622 
 ASP623  PHE694  ASN695  SER759  ASP760  ASP761  ALA762  ILE779  LEU786  VAL792 
 PHE793  MET794  SER795  GLU796  ALA797  LYS798  CYS799  TRP800  GLU811  SER814 

> <Gold.Protein.RotatedAtoms>
  151.3696  133.3859  159.2698 H   0  0  0  0  0  0  0  0  0  0  0  0  # atno 6907 bound_to 6896
  150.9661  134.9043  159.7770 H   0  0  0  0  0  0  0  0  0  0  0  0  # atno 6908 bound_to 6896
  152.5167  134.3657  159.9352 H   0  0  0  0  0  0  0  0  0  0  0  0  # atno 6909 bound_to 6896
  145.3248  139.2502  143.3692 H   0  0  0  0  0  0  0  0  0  0  0  0  # atno 7974 bound_to 7965
  154.6831  140.0545  157.0286 H   0  0  0  0  0  0  0  0  0  0  0  0  # atno 8008 bound_to 7997
  155.0923  140.3220  155.4551 H   0  0  0  0  0  0  0  0  0  0  0  0  # atno 8009 bound_to 7997
  156.2701  140.2046  156.6050 H   0  0  0  0  0  0  0  0  0  0  0  0  # atno 8010 bound_to 7997
  139.7820  143.8088  152.2640 H   0  0  0  0  0  0  0  0  0  0  0  0  # atno 10167 bound_to 10162
  155.9987  130.4781  150.4787 H   0  0  0  0  0  0  0  0  0  0  0  0  # atno 10718 bound_to 10713
  153.2775  135.4181  155.1047 H   0  0  0  0  0  0  0  0  0  0  0  0  # atno 10763 bound_to 10752
  154.8478  135.3487  154.6158 H   0  0  0  0  0  0  0  0  0  0  0  0  # atno 10764 bound_to 10752
  153.6578  135.7049  153.5245 H   0  0  0  0  0  0  0  0  0  0  0  0  # atno 10765 bound_to 10752
  139.9321  134.9641  156.8288 H   0  0  0  0  0  0  0  0  0  0  0  0  # atno 11005 bound_to 11000
  146.3068  140.3813  142.8684 LP  0  0  0  0  0  0  0  0  0  0  0  0  # atno 17320 bound_to 7965
  144.8910  140.7524  143.5926 LP  0  0  0  0  0  0  0  0  0  0  0  0  # atno 17321 bound_to 7965
  139.8153  144.7319  150.9643 LP  0  0  0  0  0  0  0  0  0  0  0  0  # atno 17342 bound_to 10162
  140.7818  143.4211  151.0840 LP  0  0  0  0  0  0  0  0  0  0  0  0  # atno 17343 bound_to 10162
  157.2794  131.0604  151.2207 LP  0  0  0  0  0  0  0  0  0  0  0  0  # atno 17370 bound_to 10713
  157.3259  130.6960  149.6296 LP  0  0  0  0  0  0  0  0  0  0  0  0  # atno 17371 bound_to 10713
  140.6173  134.0026  155.7603 LP  0  0  0  0  0  0  0  0  0  0  0  0  # atno 17394 bound_to 11000
  141.0915  133.9908  157.3228 LP  0  0  0  0  0  0  0  0  0  0  0  0  # atno 17395 bound_to 11000

$$$$
