AV-unprocessed.smi:1601|AV-procd|sdf|6438|dock7
  -GOLD-   22720 7 83D 1   1.00000     0.00000
 Structure written by MMmdl.
 42 43  0  0  0  0  0  0  0  0  2 V2000
  149.7175  133.3367  154.1472 C   0  0  0  0  0  0  0  0  0  0  0  0
  148.2593  133.8280  154.3250 C   0  0  1  0  0  0  0  0  0  0  0  0
  148.2126  135.1063  155.2034 C   0  0  0  0  0  0  0  0  0  0  0  0
  148.7994  136.2729  154.5478 N   0  0  0  0  0  0  0  0  0  0  0  0
  148.9270  137.4944  155.0917 C   0  0  0  0  0  0  0  0  0  0  0  0
  148.5422  137.7683  156.2291 O   0  0  0  0  0  0  0  0  0  0  0  0
  149.5834  138.5648  154.2055 C   0  0  1  0  0  0  0  0  0  0  0  0
  148.9123  139.9441  154.3390 C   0  0  0  0  0  0  0  0  0  0  0  0
  151.0114  138.6520  154.4812 N   0  0  0  0  0  0  0  0  0  0  0  0
  151.9950  137.7028  154.2789 C   0  0  0  0  0  0  0  0  0  0  0  0
  153.1759  138.2402  154.7038 C   0  0  0  0  0  0  0  0  0  0  0  0
  152.8113  139.5367  155.1614 C   0  0  0  0  0  0  0  0  0  0  0  0
  151.5175  139.7794  155.0283 N   0  0  0  0  0  0  0  0  0  0  0  0
  147.5527  134.0694  153.0228 N   0  3  0  0  0  0  0  0  0  0  0  0
  147.3613  132.8687  152.1618 C   0  0  0  0  0  0  0  0  0  0  0  0
  146.6556  133.2339  150.8442 C   0  0  0  0  0  0  0  0  0  0  0  0
  145.4135  133.8634  151.1192 O   0  0  0  0  0  0  0  0  0  0  0  0
  145.5944  135.0727  151.8401 C   0  0  0  0  0  0  0  0  0  0  0  0
  146.2488  134.7673  153.1973 C   0  0  0  0  0  0  0  0  0  0  0  0
  150.2103  133.1715  155.1045 H   0  0  0  0  0  0  0  0  0  0  0  0
  150.3162  134.0592  153.5917 H   0  0  0  0  0  0  0  0  0  0  0  0
  149.7691  132.3780  153.6315 H   0  0  0  0  0  0  0  0  0  0  0  0
  147.7255  133.0326  154.8476 H   0  0  0  0  0  0  0  0  0  0  0  0
  147.1856  135.3060  155.5135 H   0  0  0  0  0  0  0  0  0  0  0  0
  148.7790  134.9730  156.1229 H   0  0  0  0  0  0  0  0  0  0  0  0
  149.1474  136.1405  153.6088 H   0  0  0  0  0  0  0  0  0  0  0  0
  149.4575  138.2431  153.1697 H   0  0  0  0  0  0  0  0  0  0  0  0
  147.8467  139.8885  154.1140 H   0  0  0  0  0  0  0  0  0  0  0  0
  149.3552  140.6587  153.6448 H   0  0  0  0  0  0  0  0  0  0  0  0
  149.0206  140.3523  155.3445 H   0  0  0  0  0  0  0  0  0  0  0  0
  151.7739  136.7347  153.8539 H   0  0  0  0  0  0  0  0  0  0  0  0
  154.1508  137.7764  154.6928 H   0  0  0  0  0  0  0  0  0  0  0  0
  153.4436  140.3032  155.5849 H   0  0  0  0  0  0  0  0  0  0  0  0
  148.3192  132.4201  151.9004 H   0  0  0  0  0  0  0  0  0  0  0  0
  146.7818  132.1183  152.7019 H   0  0  0  0  0  0  0  0  0  0  0  0
  147.2820  133.8876  150.2349 H   0  0  0  0  0  0  0  0  0  0  0  0
  146.4718  132.3343  150.2563 H   0  0  0  0  0  0  0  0  0  0  0  0
  146.1990  135.7734  151.2619 H   0  0  0  0  0  0  0  0  0  0  0  0
  144.6215  135.5407  151.9902 H   0  0  0  0  0  0  0  0  0  0  0  0
  145.5804  134.1460  153.7958 H   0  0  0  0  0  0  0  0  0  0  0  0
  146.3711  135.7058  153.7343 H   0  0  0  0  0  0  0  0  0  0  0  0
  148.1479  134.6905  152.4931 H   0  0  0  0  0  0  0  0  0  0  0  0
  1  2  1  0  0  0  0
  1 20  1  0  0  0  0
  1 21  1  0  0  0  0
  1 22  1  0  0  0  0
  2  3  1  0  0  0  0
  2 14  1  0  0  0  0
  2 23  1  0  0  0  0
  3  4  1  0  0  0  0
  3 24  1  0  0  0  0
  3 25  1  0  0  0  0
  4  5  1  0  0  0  0
  4 26  1  0  0  0  0
  5  6  2  0  0  0  0
  5  7  1  0  0  0  0
  7  8  1  0  0  0  0
  7  9  1  0  0  0  0
  7 27  1  0  0  0  0
  8 28  1  0  0  0  0
  8 29  1  0  0  0  0
  8 30  1  0  0  0  0
  9 13  1  0  0  0  0
  9 10  1  0  0  0  0
 10 11  2  0  0  0  0
 10 31  1  0  0  0  0
 11 12  1  0  0  0  0
 11 32  1  0  0  0  0
 12 13  2  0  0  0  0
 12 33  1  0  0  0  0
 14 19  1  0  0  0  0
 14 15  1  0  0  0  0
 14 42  1  0  0  0  0
 15 16  1  0  0  0  0
 15 34  1  0  0  0  0
 15 35  1  0  0  0  0
 16 17  1  0  0  0  0
 16 36  1  0  0  0  0
 16 37  1  0  0  0  0
 17 18  1  0  0  0  0
 18 19  1  0  0  0  0
 18 38  1  0  0  0  0
 18 39  1  0  0  0  0
 19 40  1  0  0  0  0
 19 41  1  0  0  0  0
M  CHG  1  14   1
M  END
> <s_m_source_file>
AV-unprocessed.smi

> <i_m_source_file_index>
1601

> <i_lp_mmshare_version>
43012

> <i_f3d_flags>
0

> <s_epik_input>
W0NIMl0xW0NIMl1PW0NIMl1bQ0gyXU4xW0NASF0oW0NIM10pW0NIMl1bTkhdQyg9TylbQ0BIXShbQ0gzXSluMltjSF1bY0hdW2NIXW4y

> <s_epik_cmdline>
J2VwaWtfcHl0aG9uJywgJy1waCcsICc3LjAnLCAnLXRuJywgJzgnLCAnLW1hJywgJzIwMCcsICctbWV0YWxfYmluZGluZycsICctaW1hZScsICc8aW5maWxlLm1hZT4nLCAnLW9tYWUnLCAnPG91dGZpbGUubWFlPic=

> <r_lp_tautomer_probability>
1

> <r_epik_Ionization_Penalty>
0.732551

> <r_epik_Ionization_Penalty_Charging>
0.732531

> <r_epik_Ionization_Penalty_Neutral>
2.04647e-05

> <r_epik_State_Penalty>
0.757939

> <r_epik_Charging_Adjusted_Penalty>
1.49047

> <i_epik_Tot_Q>
1

> <i_epik_Tot_abs_Q>
1

> <r_epik_Metal_State_Penalty>
0.757952

> <b_epik_Metal_Only>
0

> <s_lp_Force_Field>
OPLS_2005

> <r_lp_Energy>
25.2472

> <b_lp_Chiralities_Consistent>
1

> <s_lp_Variant>
AV-unprocessed.smi:1601-8

> <Gold.Version>
5.8.1

> <Gold.Id.Protein>
6NUR|6NUR_protein|mol2

> <Gold.PLP.Fitness>
42.2047

> <Gold.PLP.PLP>
-30.0423

> <Gold.PLP.part.hbond>
-3.0000

> <Gold.PLP.part.metal>
0.0000

> <Gold.PLP.part.buried>
0.6519

> <Gold.PLP.part.nonpolar>
-27.7841

> <Gold.PLP.part.repulsive>
0.1846

> <Gold.PLP.ligand.clash>
0.0000

> <Gold.PLP.ligand.torsion>
0.9078

> <Gold.PLP.Chemscore.Hbond>
3.6650

> <Gold.PLP.Chemscore.CHOScore>
0.9543

> <Gold.PLP.Chemscore.Metal>
0.0000

> <Gold.Chemscore.Hbonds>
donor molecule, donor type, donor heavy atom, donor atom, acceptor molecule, acceptor atom, score
      L1  H     4    26       P1  7948  1.00
      L1  H    14    42       P1  7948  2.00
      P1  H  7989  7998       L1    13  0.85
      L1  C    10    31       P1  7949  0.96

> <Gold.PLP.Chemscore.Internal.Correction>
0.1200

> <Gold.Rescore>
     Score         DG    S(hbond)    S(metal)    S(lipo)     H(rot)  DE(clash)    DE(int)     intcor
     12.48     -15.66       1.88        0.00      74.24       1.86       2.21       0.96       ----

> <Gold.Chemscore.Fitness>
12.4841

> <Gold.Chemscore.DG>
-15.6599

> <Gold.Chemscore.ZeroCoef>
-5.4800

> <Gold.Chemscore.Hbond>
1.8753

> <Gold.Chemscore.Metal>
0.0000

> <Gold.Chemscore.Lipo>
74.2402

> <Gold.Chemscore.Internal_Hbond>
0.0000

> <Gold.Chemscore.DEClash>
2.2140

> <Gold.Chemscore.DEInternal>
0.9618

> <Gold.Chemscore.Rot>
1.8631

> <Gold.Chemscore.Internal.Correction>
   9.000000E+99

> <Gold.Chemscore.Hbonds>
donor molecule, donor type, donor heavy atom, donor atom, acceptor molecule, acceptor atom, score
      L1  H     4    26       P1  7948  0.90
      L1  H    14    42       P1  7948  0.45
      P1  H  7989  7998       L1    13  0.04

> <Gold.Chemscore.Hbond.Weighted>
-6.2635

> <Gold.Chemscore.Metal.Weighted>
-0.0000

> <Gold.Chemscore.Lipo.Weighted>
-8.6861

> <Gold.Chemscore.Internal_Hbond.Weighted>
0.0000

> <Gold.Chemscore.DEClash.Weighted>
2.2140

> <Gold.Chemscore.DEInternal.Weighted>
0.9618

> <Gold.Chemscore.Rot.Weighted>
4.7697

> <Gold.Chemscore.Internal.Correction.Weighted>
   9.000000E+99

> <Gold.Protein.RotatedTorsions>
[ 6907 6896 6895 6894 ] final  113.99 input  -60.11 | X-H torsion
[ 7974 7965 7964 7962 ] final  -50.23 input  175.53 | X-H torsion
[ 8008 7997 7996 7995 ] final  -64.91 input   59.86 | X-H torsion
[ 10167 10162 10161 10158 ] final  -90.41 input  -65.29 | X-H torsion
[ 10718 10713 10712 10709 ] final   37.05 input   66.30 | X-H torsion
[ 10763 10752 10751 10750 ] final  156.69 input  -60.55 | X-H torsion
[ 11005 11000 10999 10996 ] final  -84.72 input  -57.11 | X-H torsion

> <Gold.Protein.ActiveResidues>
 VAL166  LYS551  ARG553  GLY616  TRP617  ASP618  TYR619  PRO620  LYS621  CYS622 
 ASP623  PHE694  ASN695  SER759  ASP760  ASP761  ALA762  ILE779  LEU786  VAL792 
 PHE793  MET794  SER795  GLU796  ALA797  LYS798  CYS799  TRP800  GLU811  SER814 

> <Gold.Protein.RotatedAtoms>
  152.4829  133.8299  159.7097 H   0  0  0  0  0  0  0  0  0  0  0  0  # atno 6907 bound_to 6896
  150.8892  133.7256  159.2916 H   0  0  0  0  0  0  0  0  0  0  0  0  # atno 6908 bound_to 6896
  151.4735  135.1051  159.9810 H   0  0  0  0  0  0  0  0  0  0  0  0  # atno 6909 bound_to 6896
  145.9321  140.7740  142.9594 H   0  0  0  0  0  0  0  0  0  0  0  0  # atno 7974 bound_to 7965
  154.4640  140.0944  156.6970 H   0  0  0  0  0  0  0  0  0  0  0  0  # atno 8008 bound_to 7997
  155.4912  140.3471  155.4337 H   0  0  0  0  0  0  0  0  0  0  0  0  # atno 8009 bound_to 7997
  156.0922  140.1400  156.9565 H   0  0  0  0  0  0  0  0  0  0  0  0  # atno 8010 bound_to 7997
  140.3551  143.2870  151.9680 H   0  0  0  0  0  0  0  0  0  0  0  0  # atno 10167 bound_to 10162
  157.3423  130.7554  149.6920 H   0  0  0  0  0  0  0  0  0  0  0  0  # atno 10718 bound_to 10713
  154.1883  135.2796  155.3030 H   0  0  0  0  0  0  0  0  0  0  0  0  # atno 10763 bound_to 10752
  154.5949  135.5548  153.7319 H   0  0  0  0  0  0  0  0  0  0  0  0  # atno 10764 bound_to 10752
  153.0119  135.6377  154.2022 H   0  0  0  0  0  0  0  0  0  0  0  0  # atno 10765 bound_to 10752
  141.1648  133.7361  156.8910 H   0  0  0  0  0  0  0  0  0  0  0  0  # atno 11005 bound_to 11000
  144.6766  140.2143  143.7373 LP  0  0  0  0  0  0  0  0  0  0  0  0  # atno 17320 bound_to 7965
  145.8412  139.2131  143.1826 LP  0  0  0  0  0  0  0  0  0  0  0  0  # atno 17321 bound_to 7965
  139.4821  144.6042  151.7552 LP  0  0  0  0  0  0  0  0  0  0  0  0  # atno 17342 bound_to 10162
  140.5181  144.0922  150.6014 LP  0  0  0  0  0  0  0  0  0  0  0  0  # atno 17343 bound_to 10162
  155.9709  130.4164  150.4229 LP  0  0  0  0  0  0  0  0  0  0  0  0  # atno 17370 bound_to 10713
  157.2279  131.0497  151.2509 LP  0  0  0  0  0  0  0  0  0  0  0  0  # atno 17371 bound_to 10713
  140.1649  134.9140  157.2761 LP  0  0  0  0  0  0  0  0  0  0  0  0  # atno 17394 bound_to 11000
  140.2569  134.3617  155.7421 LP  0  0  0  0  0  0  0  0  0  0  0  0  # atno 17395 bound_to 11000

$$$$
