AV-unprocessed.smi:2149|AV-procd|sdf|8752|dock1
  -GOLD-   2272011523D 1   1.00000     0.00000
 Structure written by MMmdl.
 42 43  0  0  0  0  0  0  0  0  1 V2000
  147.3517  138.8248  157.4820 C   0  0  0  0  0  0  0  0  0  0  0  0
  146.1514  140.2160  157.3978 S   0  0  0  0  0  0  0  0  0  0  0  0
  145.0315  139.8045  156.5376 O   0  0  0  0  0  0  0  0  0  0  0  0
  145.8867  140.6747  158.7701 O   0  0  0  0  0  0  0  0  0  0  0  0
  147.0208  141.4781  156.5730 N   0  0  0  0  0  0  0  0  0  0  0  0
  146.9859  141.5590  155.0983 C   0  0  0  0  0  0  0  0  0  0  0  0
  148.2759  141.0064  154.4675 C   0  0  0  0  0  0  0  0  0  0  0  0
  149.5173  141.6814  155.0615 C   0  0  0  0  0  0  0  0  0  0  0  0
  149.5226  141.5068  156.5907 C   0  0  1  0  0  0  0  0  0  0  0  0
  150.7526  142.1763  157.2186 C   0  0  0  0  0  0  0  0  0  0  0  0
  151.5675  141.5066  157.8540 O   0  0  0  0  0  0  0  0  0  0  0  0
  150.8734  143.5004  157.0354 N   0  0  0  0  0  0  0  0  0  0  0  0
  151.9612  144.3211  157.5542 C   0  0  0  0  0  0  0  0  0  0  0  0
  151.6596  144.8235  158.9757 C   0  0  0  0  0  0  0  0  0  0  0  0
  152.2304  143.9074  160.0415 C   0  0  0  0  0  0  0  0  0  0  0  0
  152.0587  144.2013  161.4111 C   0  0  0  0  0  0  0  0  0  0  0  0
  152.6151  143.3224  162.3605 C   0  0  0  0  0  0  0  0  0  0  0  0
  153.3185  142.1901  161.9065 C   0  0  0  0  0  0  0  0  0  0  0  0
  153.4353  141.9863  160.5171 C   0  0  0  0  0  0  0  0  0  0  0  0
  152.9067  142.8236  159.5986 N   0  0  0  0  0  0  0  0  0  0  0  0
  148.2198  142.0762  157.1960 C   0  0  0  0  0  0  0  0  0  0  0  0
  146.8736  137.9724  157.9639 H   0  0  0  0  0  0  0  0  0  0  0  0
  148.2196  139.1195  158.0693 H   0  0  0  0  0  0  0  0  0  0  0  0
  147.6580  138.5369  156.4782 H   0  0  0  0  0  0  0  0  0  0  0  0
  146.1162  141.0317  154.7076 H   0  0  0  0  0  0  0  0  0  0  0  0
  146.8630  142.6051  154.8155 H   0  0  0  0  0  0  0  0  0  0  0  0
  148.3364  139.9293  154.6178 H   0  0  0  0  0  0  0  0  0  0  0  0
  148.2525  141.1617  153.3886 H   0  0  0  0  0  0  0  0  0  0  0  0
  150.4178  141.2485  154.6238 H   0  0  0  0  0  0  0  0  0  0  0  0
  149.5169  142.7401  154.7968 H   0  0  0  0  0  0  0  0  0  0  0  0
  149.5737  140.4401  156.8076 H   0  0  0  0  0  0  0  0  0  0  0  0
  150.1602  143.9741  156.4999 H   0  0  0  0  0  0  0  0  0  0  0  0
  152.8972  143.7600  157.5345 H   0  0  0  0  0  0  0  0  0  0  0  0
  152.0948  145.1691  156.8821 H   0  0  0  0  0  0  0  0  0  0  0  0
  152.0656  145.8268  159.1109 H   0  0  0  0  0  0  0  0  0  0  0  0
  150.5822  144.9072  159.1260 H   0  0  0  0  0  0  0  0  0  0  0  0
  151.5153  145.0792  161.7289 H   0  0  0  0  0  0  0  0  0  0  0  0
  152.5044  143.5135  163.4177 H   0  0  0  0  0  0  0  0  0  0  0  0
  153.7581  141.4943  162.6055 H   0  0  0  0  0  0  0  0  0  0  0  0
  153.9676  141.1286  160.1334 H   0  0  0  0  0  0  0  0  0  0  0  0
  148.1760  143.1560  157.0457 H   0  0  0  0  0  0  0  0  0  0  0  0
  148.1987  141.9182  158.2743 H   0  0  0  0  0  0  0  0  0  0  0  0
  1  2  1  0  0  0  0
  1 22  1  0  0  0  0
  1 23  1  0  0  0  0
  1 24  1  0  0  0  0
  2  3  2  0  0  0  0
  2  4  2  0  0  0  0
  2  5  1  0  0  0  0
  5 21  1  0  0  0  0
  5  6  1  0  0  0  0
  6  7  1  0  0  0  0
  6 25  1  0  0  0  0
  6 26  1  0  0  0  0
  7  8  1  0  0  0  0
  7 27  1  0  0  0  0
  7 28  1  0  0  0  0
  8  9  1  0  0  0  0
  8 29  1  0  0  0  0
  8 30  1  0  0  0  0
  9 10  1  0  0  0  0
  9 21  1  0  0  0  0
  9 31  1  0  0  0  0
 10 11  2  0  0  0  0
 10 12  1  0  0  0  0
 12 13  1  0  0  0  0
 12 32  1  0  0  0  0
 13 14  1  0  0  0  0
 13 33  1  0  0  0  0
 13 34  1  0  0  0  0
 14 15  1  0  0  0  0
 14 35  1  0  0  0  0
 14 36  1  0  0  0  0
 15 20  1  0  0  0  0
 15 16  2  0  0  0  0
 16 17  1  0  0  0  0
 16 37  1  0  0  0  0
 17 18  2  0  0  0  0
 17 38  1  0  0  0  0
 18 19  1  0  0  0  0
 18 39  1  0  0  0  0
 19 20  2  0  0  0  0
 19 40  1  0  0  0  0
 21 41  1  0  0  0  0
 21 42  1  0  0  0  0
M  END
> <s_m_source_file>
AV-unprocessed.smi

> <i_m_source_file_index>
2149

> <i_lp_mmshare_version>
43012

> <i_f3d_flags>
0

> <s_epik_input>
W0NIM11TKD1PKSg9TylOMVtDSDJdW0NIMl1bQ0gyXVtDQEhdKFtDSDJdMSlDKD1PKVtOSF1bQ0gyXVtDSDJdYzJbY0hdW2NIXVtjSF1bY0hdbjI=

> <s_epik_cmdline>
J2VwaWtfcHl0aG9uJywgJy1waCcsICc3LjAnLCAnLXRuJywgJzgnLCAnLW1hJywgJzIwMCcsICctbWV0YWxfYmluZGluZycsICctaW1hZScsICc8aW5maWxlLm1hZT4nLCAnLW9tYWUnLCAnPG91dGZpbGUubWFlPic=

> <r_epik_Ionization_Penalty>
0.0273806

> <r_epik_Ionization_Penalty_Charging>
0

> <r_epik_Ionization_Penalty_Neutral>
0.0273806

> <r_epik_State_Penalty>
0.0224071

> <r_epik_Charging_Adjusted_Penalty>
0.0224071

> <i_epik_Tot_Q>
0

> <i_epik_Tot_abs_Q>
0

> <r_epik_Metal_State_Penalty>
0.0214134

> <b_epik_Metal_Only>
0

> <s_lp_Force_Field>
OPLS_2005

> <r_lp_Energy>
-0.402048

> <b_lp_Chiralities_Consistent>
1

> <s_lp_Variant>
AV-unprocessed.smi:2149-1

> <Gold.Version>
5.8.1

> <Gold.Id.Protein>
6NUR|6NUR_protein|mol2

> <Gold.PLP.Fitness>
49.8861

> <Gold.PLP.PLP>
-46.6958

> <Gold.PLP.part.hbond>
-2.0000

> <Gold.PLP.part.metal>
0.0000

> <Gold.PLP.part.buried>
-5.7350

> <Gold.PLP.part.nonpolar>
-38.4174

> <Gold.PLP.part.repulsive>
0.0536

> <Gold.PLP.ligand.clash>
0.0000

> <Gold.PLP.ligand.torsion>
1.4438

> <Gold.PLP.Chemscore.Hbond>
1.3169

> <Gold.PLP.Chemscore.CHOScore>
0.0000

> <Gold.PLP.Chemscore.Metal>
0.0000

> <Gold.Chemscore.Hbonds>
donor molecule, donor type, donor heavy atom, donor atom, acceptor molecule, acceptor atom, score
      L1  H    12    32       P1  8028  1.00
      P1  H  6934  6946       L1     4  0.26

> <Gold.PLP.Chemscore.Internal.Correction>
2.1271

> <Gold.Rescore>
     Score         DG    S(hbond)    S(metal)    S(lipo)     H(rot)  DE(clash)    DE(int)     intcor
     16.05     -19.15       1.23        0.00     115.86       1.56       0.10       3.00       ----

> <Gold.Chemscore.Fitness>
16.0531

> <Gold.Chemscore.DG>
-19.1514

> <Gold.Chemscore.ZeroCoef>
-5.4800

> <Gold.Chemscore.Hbond>
1.2337

> <Gold.Chemscore.Metal>
0.0000

> <Gold.Chemscore.Lipo>
115.8581

> <Gold.Chemscore.Internal_Hbond>
0.0000

> <Gold.Chemscore.DEClash>
0.0964

> <Gold.Chemscore.DEInternal>
3.0020

> <Gold.Chemscore.Rot>
1.5643

> <Gold.Chemscore.Internal.Correction>
   9.000000E+99

> <Gold.Chemscore.Hbonds>
donor molecule, donor type, donor heavy atom, donor atom, acceptor molecule, acceptor atom, score
      L1  H    12    32       P1  8028  1.00
      P1  H  6934  6946       L1     4  0.26

> <Gold.Chemscore.Hbond.Weighted>
-4.1206

> <Gold.Chemscore.Metal.Weighted>
-0.0000

> <Gold.Chemscore.Lipo.Weighted>
-13.5554

> <Gold.Chemscore.Internal_Hbond.Weighted>
0.0000

> <Gold.Chemscore.DEClash.Weighted>
0.0964

> <Gold.Chemscore.DEInternal.Weighted>
3.0020

> <Gold.Chemscore.Rot.Weighted>
4.0046

> <Gold.Chemscore.Internal.Correction.Weighted>
   9.000000E+99

> <Gold.Protein.RotatedTorsions>
[ 6907 6896 6895 6894 ] final   34.61 input  -60.11 | X-H torsion
[ 7974 7965 7964 7962 ] final -117.31 input  175.53 | X-H torsion
[ 8008 7997 7996 7995 ] final -175.01 input   59.86 | X-H torsion
[ 10167 10162 10161 10158 ] final -147.43 input  -65.29 | X-H torsion
[ 10718 10713 10712 10709 ] final -121.47 input   66.30 | X-H torsion
[ 10763 10752 10751 10750 ] final  129.07 input  -60.55 | X-H torsion
[ 11005 11000 10999 10996 ] final   91.10 input  -57.11 | X-H torsion

> <Gold.Protein.ActiveResidues>
 VAL166  LYS551  ARG553  GLY616  TRP617  ASP618  TYR619  PRO620  LYS621  CYS622 
 ASP623  PHE694  ASN695  SER759  ASP760  ASP761  ALA762  ILE779  LEU786  VAL792 
 PHE793  MET794  SER795  GLU796  ALA797  LYS798  CYS799  TRP800  GLU811  SER814 

> <Gold.Protein.RotatedAtoms>
  152.1047  134.9317  160.0568 H   0  0  0  0  0  0  0  0  0  0  0  0  # atno 6907 bound_to 6896
  152.0517  133.4017  159.4388 H   0  0  0  0  0  0  0  0  0  0  0  0  # atno 6908 bound_to 6896
  150.6841  134.3220  159.4834 H   0  0  0  0  0  0  0  0  0  0  0  0  # atno 6909 bound_to 6896
  145.0867  140.8463  143.4006 H   0  0  0  0  0  0  0  0  0  0  0  0  # atno 7974 bound_to 7965
  155.9773  140.1175  157.0758 H   0  0  0  0  0  0  0  0  0  0  0  0  # atno 8008 bound_to 7997
  154.4173  140.1151  156.5455 H   0  0  0  0  0  0  0  0  0  0  0  0  # atno 8009 bound_to 7997
  155.6517  140.3473  155.4753 H   0  0  0  0  0  0  0  0  0  0  0  0  # atno 8010 bound_to 7997
  139.7623  143.8359  152.2609 H   0  0  0  0  0  0  0  0  0  0  0  0  # atno 10167 bound_to 10162
  156.1340  130.6417  150.9667 H   0  0  0  0  0  0  0  0  0  0  0  0  # atno 10718 bound_to 10713
  153.7357  135.3232  155.3294 H   0  0  0  0  0  0  0  0  0  0  0  0  # atno 10763 bound_to 10752
  154.8311  135.4533  154.1076 H   0  0  0  0  0  0  0  0  0  0  0  0  # atno 10764 bound_to 10752
  153.2237  135.6951  153.8052 H   0  0  0  0  0  0  0  0  0  0  0  0  # atno 10765 bound_to 10752
  139.8844  134.8654  156.3379 H   0  0  0  0  0  0  0  0  0  0  0  0  # atno 11005 bound_to 11000
  145.1113  139.2755  143.5636 LP  0  0  0  0  0  0  0  0  0  0  0  0  # atno 17320 bound_to 7965
  146.3531  140.0710  142.8623 LP  0  0  0  0  0  0  0  0  0  0  0  0  # atno 17321 bound_to 7965
  139.8369  144.7228  150.9380 LP  0  0  0  0  0  0  0  0  0  0  0  0  # atno 17342 bound_to 10162
  140.7808  143.4019  151.1135 LP  0  0  0  0  0  0  0  0  0  0  0  0  # atno 17343 bound_to 10162
  157.6515  131.0896  150.8040 LP  0  0  0  0  0  0  0  0  0  0  0  0  # atno 17370 bound_to 10713
  156.8122  130.4956  149.5354 LP  0  0  0  0  0  0  0  0  0  0  0  0  # atno 17371 bound_to 10713
  140.9678  133.7347  156.0492 LP  0  0  0  0  0  0  0  0  0  0  0  0  # atno 17394 bound_to 11000
  140.7909  134.3619  157.5465 LP  0  0  0  0  0  0  0  0  0  0  0  0  # atno 17395 bound_to 11000

$$$$
