AV-unprocessed.smi:525|AV-procd|sdf|2809|dock7
  -GOLD-   2262023283D 1   1.00000     0.00000
 Structure written by MMmdl.
 44 46  0  0  0  0  0  0  0  0  2 V2000
  147.8940  127.5798  151.0750 C   0  0  0  0  0  0  0  0  0  0  0  0
  146.9631  128.0752  152.0213 O   0  0  0  0  0  0  0  0  0  0  0  0
  146.4995  129.3743  151.6973 C   0  0  0  0  0  0  0  0  0  0  0  0
  146.6735  130.2795  152.9227 C   0  0  0  0  0  0  0  0  0  0  0  0
  146.8128  131.6911  152.5433 N   0  0  0  0  0  0  0  0  0  0  0  0
  147.7720  132.6028  152.8660 C   0  0  0  0  0  0  0  0  0  0  0  0
  149.1808  132.3106  153.8903 S   0  0  0  0  0  0  0  0  0  0  0  0
  148.8834  133.2020  155.4532 C   0  0  2  0  0  0  0  0  0  0  0  0
  150.0945  133.2098  156.3953 C   0  0  0  0  0  0  0  0  0  0  0  0
  151.1933  132.5517  156.0131 N   0  0  0  0  0  0  0  0  0  0  0  0
  150.0333  133.8020  157.4706 O   0  0  0  0  0  0  0  0  0  0  0  0
  147.6535  132.6517  156.1711 C   0  0  0  0  0  0  0  0  0  0  0  0
  147.6017  131.3101  156.6157 C   0  0  0  0  0  0  0  0  0  0  0  0
  146.4524  130.8188  157.2640 C   0  0  0  0  0  0  0  0  0  0  0  0
  145.3466  131.6637  157.4750 C   0  0  0  0  0  0  0  0  0  0  0  0
  145.3918  133.0016  157.0395 C   0  0  0  0  0  0  0  0  0  0  0  0
  146.5408  133.4932  156.3906 C   0  0  0  0  0  0  0  0  0  0  0  0
  147.4409  133.7786  152.2636 N   0  3  0  0  0  0  0  0  0  0  0  0
  146.2492  133.6216  151.5552 C   0  0  0  0  0  0  0  0  0  0  0  0
  145.5155  134.5265  150.7945 C   0  0  0  0  0  0  0  0  0  0  0  0
  144.3304  134.0411  150.2036 C   0  0  0  0  0  0  0  0  0  0  0  0
  143.9156  132.7048  150.3794 C   0  0  0  0  0  0  0  0  0  0  0  0
  144.6681  131.7959  151.1523 C   0  0  0  0  0  0  0  0  0  0  0  0
  145.8389  132.2834  151.7319 C   0  0  0  0  0  0  0  0  0  0  0  0
  148.2154  126.5798  151.3659 H   0  0  0  0  0  0  0  0  0  0  0  0
  148.7788  128.2155  151.0228 H   0  0  0  0  0  0  0  0  0  0  0  0
  147.4501  127.5146  150.0808 H   0  0  0  0  0  0  0  0  0  0  0  0
  147.0623  129.7712  150.8509 H   0  0  0  0  0  0  0  0  0  0  0  0
  145.4482  129.3345  151.4066 H   0  0  0  0  0  0  0  0  0  0  0  0
  145.8087  130.1929  153.5812 H   0  0  0  0  0  0  0  0  0  0  0  0
  147.5415  129.9829  153.5121 H   0  0  0  0  0  0  0  0  0  0  0  0
  148.6881  134.2391  155.1759 H   0  0  0  0  0  0  0  0  0  0  0  0
  152.0066  132.5363  156.6113 H   0  0  0  0  0  0  0  0  0  0  0  0
  151.2052  132.0698  155.1258 H   0  0  0  0  0  0  0  0  0  0  0  0
  148.4427  130.6500  156.4618 H   0  0  0  0  0  0  0  0  0  0  0  0
  146.4196  129.7928  157.6003 H   0  0  0  0  0  0  0  0  0  0  0  0
  144.4652  131.2870  157.9729 H   0  0  0  0  0  0  0  0  0  0  0  0
  144.5449  133.6513  157.2045 H   0  0  0  0  0  0  0  0  0  0  0  0
  146.5639  134.5221  156.0624 H   0  0  0  0  0  0  0  0  0  0  0  0
  145.8305  135.5510  150.6601 H   0  0  0  0  0  0  0  0  0  0  0  0
  143.7266  134.7073  149.6044 H   0  0  0  0  0  0  0  0  0  0  0  0
  143.0007  132.3699  149.9122 H   0  0  0  0  0  0  0  0  0  0  0  0
  144.3406  130.7750  151.2830 H   0  0  0  0  0  0  0  0  0  0  0  0
  147.9855  134.6277  152.3430 H   0  0  0  0  0  0  0  0  0  0  0  0
  1  2  1  0  0  0  0
  1 25  1  0  0  0  0
  1 26  1  0  0  0  0
  1 27  1  0  0  0  0
  2  3  1  0  0  0  0
  3  4  1  0  0  0  0
  3 28  1  0  0  0  0
  3 29  1  0  0  0  0
  4  5  1  0  0  0  0
  4 30  1  0  0  0  0
  4 31  1  0  0  0  0
  5 24  1  0  0  0  0
  5  6  1  0  0  0  0
  6  7  1  0  0  0  0
  6 18  2  0  0  0  0
  7  8  1  0  0  0  0
  8  9  1  0  0  0  0
  8 12  1  0  0  0  0
  8 32  1  0  0  0  0
  9 10  1  0  0  0  0
  9 11  2  0  0  0  0
 10 33  1  0  0  0  0
 10 34  1  0  0  0  0
 12 17  1  0  0  0  0
 12 13  2  0  0  0  0
 13 14  1  0  0  0  0
 13 35  1  0  0  0  0
 14 15  2  0  0  0  0
 14 36  1  0  0  0  0
 15 16  1  0  0  0  0
 15 37  1  0  0  0  0
 16 17  2  0  0  0  0
 16 38  1  0  0  0  0
 17 39  1  0  0  0  0
 18 19  1  0  0  0  0
 18 44  1  0  0  0  0
 19 24  2  0  0  0  0
 19 20  1  0  0  0  0
 20 21  2  0  0  0  0
 20 40  1  0  0  0  0
 21 22  1  0  0  0  0
 21 41  1  0  0  0  0
 22 23  2  0  0  0  0
 22 42  1  0  0  0  0
 23 24  1  0  0  0  0
 23 43  1  0  0  0  0
M  CHG  1  18   1
M  END
> <s_m_source_file>
AV-unprocessed.smi

> <i_m_source_file_index>
525

> <i_lp_mmshare_version>
43012

> <i_f3d_flags>
0

> <s_epik_input>
W2NIXTFbY0hdW2NIXVtjSF1jKGMxMiluKFtDSDJdW0NIMl1PW0NIM10pYyhuMilTW0NASF0oQyg9TylbTkgyXSljM1tjSF1bY0hdW2NIXVtjSF1bY0hdMw==

> <s_epik_cmdline>
J2VwaWtfcHl0aG9uJywgJy1waCcsICc3LjAnLCAnLXRuJywgJzgnLCAnLW1hJywgJzIwMCcsICctbWV0YWxfYmluZGluZycsICctaW1hZScsICc8aW5maWxlLm1hZT4nLCAnLW9tYWUnLCAnPG91dGZpbGUubWFlPic=

> <r_epik_Ionization_Penalty>
1.29485

> <r_epik_Ionization_Penalty_Charging>
1.29485

> <r_epik_Ionization_Penalty_Neutral>
1.02965e-06

> <r_epik_State_Penalty>
1.36828

> <r_epik_Charging_Adjusted_Penalty>
2.66313

> <i_epik_Tot_Q>
1

> <i_epik_Tot_abs_Q>
1

> <r_epik_Metal_State_Penalty>
1.43316

> <b_epik_Metal_Only>
0

> <s_lp_Force_Field>
OPLS_2005

> <r_lp_Energy>
14.4741

> <b_lp_Chiralities_Consistent>
1

> <s_lp_Variant>
AV-unprocessed.smi:525-3

> <Gold.Version>
5.8.1

> <Gold.Id.Protein>
6NUR|6NUR_protein|mol2

> <Gold.PLP.Fitness>
47.1376

> <Gold.PLP.PLP>
-39.3563

> <Gold.PLP.part.hbond>
-2.0000

> <Gold.PLP.part.metal>
0.0000

> <Gold.PLP.part.buried>
-4.9656

> <Gold.PLP.part.nonpolar>
-32.0806

> <Gold.PLP.part.repulsive>
0.1836

> <Gold.PLP.ligand.clash>
0.0000

> <Gold.PLP.ligand.torsion>
0.7177

> <Gold.PLP.Chemscore.Hbond>
3.0000

> <Gold.PLP.Chemscore.CHOScore>
0.0000

> <Gold.PLP.Chemscore.Metal>
0.0000

> <Gold.Chemscore.Hbonds>
donor molecule, donor type, donor heavy atom, donor atom, acceptor molecule, acceptor atom, score
      L1  H    18    44       P1  7948  2.00
      P1  H  6896  6909       L1    11  1.00

> <Gold.PLP.Chemscore.Internal.Correction>
0.2168

> <Gold.Rescore>
     Score         DG    S(hbond)    S(metal)    S(lipo)     H(rot)  DE(clash)    DE(int)     intcor
     14.16     -14.92       1.79        0.00      84.58       2.51       0.06       0.71       ----

> <Gold.Chemscore.Fitness>
14.1564

> <Gold.Chemscore.DG>
-14.9224

> <Gold.Chemscore.ZeroCoef>
-5.4800

> <Gold.Chemscore.Hbond>
1.7914

> <Gold.Chemscore.Metal>
0.0000

> <Gold.Chemscore.Lipo>
84.5843

> <Gold.Chemscore.Internal_Hbond>
0.0000

> <Gold.Chemscore.DEClash>
0.0580

> <Gold.Chemscore.DEInternal>
0.7080

> <Gold.Chemscore.Rot>
2.5145

> <Gold.Chemscore.Internal.Correction>
   9.000000E+99

> <Gold.Chemscore.Hbonds>
donor molecule, donor type, donor heavy atom, donor atom, acceptor molecule, acceptor atom, score
      L1  H    18    44       P1  7948  0.45
      P1  H  6896  6909       L1    11  0.95

> <Gold.Chemscore.Hbond.Weighted>
-5.9832

> <Gold.Chemscore.Metal.Weighted>
-0.0000

> <Gold.Chemscore.Lipo.Weighted>
-9.8964

> <Gold.Chemscore.Internal_Hbond.Weighted>
0.0000

> <Gold.Chemscore.DEClash.Weighted>
0.0580

> <Gold.Chemscore.DEInternal.Weighted>
0.7080

> <Gold.Chemscore.Rot.Weighted>
6.4372

> <Gold.Chemscore.Internal.Correction.Weighted>
   9.000000E+99

> <Gold.Protein.RotatedTorsions>
[ 6907 6896 6895 6894 ] final   -1.87 input  -60.11 | X-H torsion
[ 7974 7965 7964 7962 ] final -113.23 input  175.53 | X-H torsion
[ 8008 7997 7996 7995 ] final   18.20 input   59.86 | X-H torsion
[ 10167 10162 10161 10158 ] final  108.79 input  -65.29 | X-H torsion
[ 10718 10713 10712 10709 ] final  -22.12 input   66.30 | X-H torsion
[ 10763 10752 10751 10750 ] final  -35.70 input  -60.55 | X-H torsion
[ 11005 11000 10999 10996 ] final  177.53 input  -57.11 | X-H torsion

> <Gold.Protein.ActiveResidues>
 VAL166  LYS551  ARG553  GLY616  TRP617  ASP618  TYR619  PRO620  LYS621  CYS622 
 ASP623  PHE694  ASN695  SER759  ASP760  ASP761  ALA762  ILE779  LEU786  VAL792 
 PHE793  MET794  SER795  GLU796  ALA797  LYS798  CYS799  TRP800  GLU811  SER814 

> <Gold.Protein.RotatedAtoms>
  151.5390  135.1068  159.9921 H   0  0  0  0  0  0  0  0  0  0  0  0  # atno 6907 bound_to 6896
  152.4544  133.7689  159.6798 H   0  0  0  0  0  0  0  0  0  0  0  0  # atno 6908 bound_to 6896
  150.8482  133.7761  159.3059 H   0  0  0  0  0  0  0  0  0  0  0  0  # atno 6909 bound_to 6896
  145.1345  140.8743  143.3738 H   0  0  0  0  0  0  0  0  0  0  0  0  # atno 7974 bound_to 7965
  154.9026  140.3002  155.5309 H   0  0  0  0  0  0  0  0  0  0  0  0  # atno 8008 bound_to 7997
  156.3018  140.2404  156.3990 H   0  0  0  0  0  0  0  0  0  0  0  0  # atno 8009 bound_to 7997
  154.8506  140.0409  157.1590 H   0  0  0  0  0  0  0  0  0  0  0  0  # atno 8010 bound_to 7997
  139.6818  144.7117  151.1503 H   0  0  0  0  0  0  0  0  0  0  0  0  # atno 10167 bound_to 10162
  156.5089  130.4605  149.6659 H   0  0  0  0  0  0  0  0  0  0  0  0  # atno 10718 bound_to 10713
  153.8676  135.6834  153.4777 H   0  0  0  0  0  0  0  0  0  0  0  0  # atno 10763 bound_to 10752
  153.1306  135.4700  154.9340 H   0  0  0  0  0  0  0  0  0  0  0  0  # atno 10764 bound_to 10752
  154.7729  135.3244  154.8102 H   0  0  0  0  0  0  0  0  0  0  0  0  # atno 10765 bound_to 10752
  140.3851  134.6912  157.4474 H   0  0  0  0  0  0  0  0  0  0  0  0  # atno 11005 bound_to 11000
  145.0600  139.3113  143.5885 LP  0  0  0  0  0  0  0  0  0  0  0  0  # atno 17320 bound_to 7965
  146.3511  140.0038  142.8673 LP  0  0  0  0  0  0  0  0  0  0  0  0  # atno 17321 bound_to 7965
  140.7654  143.5688  150.9018 LP  0  0  0  0  0  0  0  0  0  0  0  0  # atno 17342 bound_to 10162
  139.9361  143.6436  152.3065 LP  0  0  0  0  0  0  0  0  0  0  0  0  # atno 17343 bound_to 10162
  156.3259  130.7306  151.2226 LP  0  0  0  0  0  0  0  0  0  0  0  0  # atno 17370 bound_to 10713
  157.7453  131.0443  150.4786 LP  0  0  0  0  0  0  0  0  0  0  0  0  # atno 17371 bound_to 10713
  140.0449  134.6214  155.8934 LP  0  0  0  0  0  0  0  0  0  0  0  0  # atno 17394 bound_to 11000
  141.1910  133.6570  156.5438 LP  0  0  0  0  0  0  0  0  0  0  0  0  # atno 17395 bound_to 11000

$$$$
