AV-unprocessed.smi:2144|AV-procd|sdf|8732|dock4
  -GOLD-   2272011503D 1   1.00000     0.00000
 Structure written by MMmdl.
 41 43  0  0  0  0  0  0  0  0  2 V2000
  147.0573  138.5050  151.4269 O   0  0  0  0  0  0  0  0  0  0  0  0
  146.8406  139.2521  152.6028 C   0  0  0  0  0  0  0  0  0  0  0  0
  148.0997  139.4680  153.3754 C   0  0  0  0  0  0  0  0  0  0  0  0
  149.1815  138.6393  153.3869 N   0  3  0  0  0  0  0  0  0  0  0  0
  150.1645  139.1575  154.2307 C   0  0  0  0  0  0  0  0  0  0  0  0
  151.4269  138.6748  154.5616 C   0  0  0  0  0  0  0  0  0  0  0  0
  152.1872  139.4533  155.4588 C   0  0  0  0  0  0  0  0  0  0  0  0
  151.6862  140.6595  155.9901 C   0  0  0  0  0  0  0  0  0  0  0  0
  150.4040  141.1379  155.6487 C   0  0  0  0  0  0  0  0  0  0  0  0
  149.6579  140.3620  154.7615 C   0  0  0  0  0  0  0  0  0  0  0  0
  148.3810  140.5123  154.2066 N   0  0  0  0  0  0  0  0  0  0  0  0
  147.5589  141.6791  154.5648 C   0  0  0  0  0  0  0  0  0  0  0  0
  146.4703  141.3460  155.6047 C   0  0  2  0  0  0  0  0  0  0  0  0
  145.5269  140.4529  155.0481 O   0  0  0  0  0  0  0  0  0  0  0  0
  145.7296  142.5964  156.1001 C   0  0  0  0  0  0  0  0  0  0  0  0
  145.3816  143.3941  154.9765 O   0  0  0  0  0  0  0  0  0  0  0  0
  144.4320  144.3799  155.1410 C   0  0  0  0  0  0  0  0  0  0  0  0
  143.7377  144.6210  156.3540 C   0  0  0  0  0  0  0  0  0  0  0  0
  142.7808  145.6514  156.4359 C   0  0  0  0  0  0  0  0  0  0  0  0
  142.5064  146.4520  155.3120 C   0  0  0  0  0  0  0  0  0  0  0  0
  143.1906  146.2209  154.1045 C   0  0  0  0  0  0  0  0  0  0  0  0
  144.1472  145.1906  154.0212 C   0  0  0  0  0  0  0  0  0  0  0  0
  144.7982  144.9777  152.8526 F   0  0  0  0  0  0  0  0  0  0  0  0
  147.6221  137.7757  151.6334 H   0  0  0  0  0  0  0  0  0  0  0  0
  146.4076  140.2169  152.3377 H   0  0  0  0  0  0  0  0  0  0  0  0
  146.1114  138.7338  153.2257 H   0  0  0  0  0  0  0  0  0  0  0  0
  151.8130  137.7512  154.1557 H   0  0  0  0  0  0  0  0  0  0  0  0
  153.1742  139.1192  155.7445 H   0  0  0  0  0  0  0  0  0  0  0  0
  152.2976  141.2307  156.6735 H   0  0  0  0  0  0  0  0  0  0  0  0
  150.0336  142.0652  156.0599 H   0  0  0  0  0  0  0  0  0  0  0  0
  148.2361  142.4357  154.9628 H   0  0  0  0  0  0  0  0  0  0  0  0
  147.1266  142.1107  153.6619 H   0  0  0  0  0  0  0  0  0  0  0  0
  146.9232  140.8448  156.4609 H   0  0  0  0  0  0  0  0  0  0  0  0
  145.4364  139.7140  155.6300 H   0  0  0  0  0  0  0  0  0  0  0  0
  144.8403  142.3089  156.6639 H   0  0  0  0  0  0  0  0  0  0  0  0
  146.3811  143.1696  156.7624 H   0  0  0  0  0  0  0  0  0  0  0  0
  143.9213  144.0296  157.2380 H   0  0  0  0  0  0  0  0  0  0  0  0
  142.2573  145.8271  157.3641 H   0  0  0  0  0  0  0  0  0  0  0  0
  141.7727  147.2420  155.3760 H   0  0  0  0  0  0  0  0  0  0  0  0
  142.9819  146.8341  153.2402 H   0  0  0  0  0  0  0  0  0  0  0  0
  149.2371  137.7785  152.8579 H   0  0  0  0  0  0  0  0  0  0  0  0
  1  2  1  0  0  0  0
  1 24  1  0  0  0  0
  2  3  1  0  0  0  0
  2 25  1  0  0  0  0
  2 26  1  0  0  0  0
  3 11  1  0  0  0  0
  3  4  2  0  0  0  0
  4  5  1  0  0  0  0
  4 41  1  0  0  0  0
  5 10  2  0  0  0  0
  5  6  1  0  0  0  0
  6  7  2  0  0  0  0
  6 27  1  0  0  0  0
  7  8  1  0  0  0  0
  7 28  1  0  0  0  0
  8  9  2  0  0  0  0
  8 29  1  0  0  0  0
  9 10  1  0  0  0  0
  9 30  1  0  0  0  0
 10 11  1  0  0  0  0
 11 12  1  0  0  0  0
 12 13  1  0  0  0  0
 12 31  1  0  0  0  0
 12 32  1  0  0  0  0
 13 14  1  0  0  0  0
 13 15  1  0  0  0  0
 13 33  1  0  0  0  0
 14 34  1  0  0  0  0
 15 16  1  0  0  0  0
 15 35  1  0  0  0  0
 15 36  1  0  0  0  0
 16 17  1  0  0  0  0
 17 22  1  0  0  0  0
 17 18  2  0  0  0  0
 18 19  1  0  0  0  0
 18 37  1  0  0  0  0
 19 20  2  0  0  0  0
 19 38  1  0  0  0  0
 20 21  1  0  0  0  0
 20 39  1  0  0  0  0
 21 22  2  0  0  0  0
 21 40  1  0  0  0  0
 22 23  1  0  0  0  0
M  CHG  1   4   1
M  END
> <s_m_source_file>
AV-unprocessed.smi

> <i_m_source_file_index>
2144

> <i_lp_mmshare_version>
43012

> <i_f3d_flags>
0

> <s_epik_input>
W2NIXTFbY0hdW2NIXVtjSF1jKGMxMiluKGMobjIpW0NIMl1bT0hdKVtDSDJdW0NASF0oW09IXSlbQ0gyXU9jM1tjSF1bY0hdW2NIXVtjSF1jM0Y=

> <s_epik_cmdline>
J2VwaWtfcHl0aG9uJywgJy1waCcsICc3LjAnLCAnLXRuJywgJzgnLCAnLW1hJywgJzIwMCcsICctbWV0YWxfYmluZGluZycsICctaW1hZScsICc8aW5maWxlLm1hZT4nLCAnLW9tYWUnLCAnPG91dGZpbGUubWFlPic=

> <r_lp_tautomer_probability>
1

> <r_epik_Ionization_Penalty>
1.44003

> <r_epik_Ionization_Penalty_Charging>
1.43917

> <r_epik_Ionization_Penalty_Neutral>
0.000858184

> <r_epik_State_Penalty>
1.52442

> <r_epik_Charging_Adjusted_Penalty>
2.96359

> <i_epik_Tot_Q>
1

> <i_epik_Tot_abs_Q>
1

> <r_epik_Metal_State_Penalty>
5.57019

> <b_epik_Metal_Only>
0

> <s_lp_Force_Field>
OPLS_2005

> <r_lp_Energy>
18.2987

> <b_lp_Chiralities_Consistent>
1

> <s_lp_Variant>
AV-unprocessed.smi:2144-3

> <Gold.Version>
5.8.1

> <Gold.Id.Protein>
6NUR|6NUR_protein|mol2

> <Gold.PLP.Fitness>
57.5923

> <Gold.PLP.PLP>
-50.0622

> <Gold.PLP.part.hbond>
-5.7738

> <Gold.PLP.part.metal>
0.0000

> <Gold.PLP.part.buried>
-3.1797

> <Gold.PLP.part.nonpolar>
-42.9137

> <Gold.PLP.part.repulsive>
0.2805

> <Gold.PLP.ligand.clash>
0.0000

> <Gold.PLP.ligand.torsion>
0.8160

> <Gold.PLP.Chemscore.Hbond>
3.0000

> <Gold.PLP.Chemscore.CHOScore>
0.0000

> <Gold.PLP.Chemscore.Metal>
0.0000

> <Gold.Chemscore.Hbonds>
donor molecule, donor type, donor heavy atom, donor atom, acceptor molecule, acceptor atom, score
      L1  H     1    24       P1  7948  1.00
      L1  H     4    41       P1  7948  2.00

> <Gold.PLP.Chemscore.Internal.Correction>
0.1622

> <Gold.Rescore>
     Score         DG    S(hbond)    S(metal)    S(lipo)     H(rot)  DE(clash)    DE(int)     intcor
     12.89     -15.40       1.97        0.00     101.19       3.31       0.91       1.61       ----

> <Gold.Chemscore.Fitness>
12.8886

> <Gold.Chemscore.DG>
-15.4038

> <Gold.Chemscore.ZeroCoef>
-5.4800

> <Gold.Chemscore.Hbond>
1.9662

> <Gold.Chemscore.Metal>
0.0000

> <Gold.Chemscore.Lipo>
101.1873

> <Gold.Chemscore.Internal_Hbond>
0.0000

> <Gold.Chemscore.DEClash>
0.9052

> <Gold.Chemscore.DEInternal>
1.6099

> <Gold.Chemscore.Rot>
3.3134

> <Gold.Chemscore.Internal.Correction>
   9.000000E+99

> <Gold.Chemscore.Hbonds>
donor molecule, donor type, donor heavy atom, donor atom, acceptor molecule, acceptor atom, score
      L1  H     1    24       P1  7948  0.94
      L1  H     4    41       P1  7948  0.97

> <Gold.Chemscore.Hbond.Weighted>
-6.5672

> <Gold.Chemscore.Metal.Weighted>
-0.0000

> <Gold.Chemscore.Lipo.Weighted>
-11.8389

> <Gold.Chemscore.Internal_Hbond.Weighted>
0.0000

> <Gold.Chemscore.DEClash.Weighted>
0.9052

> <Gold.Chemscore.DEInternal.Weighted>
1.6099

> <Gold.Chemscore.Rot.Weighted>
8.4823

> <Gold.Chemscore.Internal.Correction.Weighted>
   9.000000E+99

> <Gold.Protein.RotatedTorsions>
[ 6907 6896 6895 6894 ] final  -80.66 input  -60.11 | X-H torsion
[ 7974 7965 7964 7962 ] final    5.11 input  175.53 | X-H torsion
[ 8008 7997 7996 7995 ] final -133.16 input   59.86 | X-H torsion
[ 10167 10162 10161 10158 ] final  -16.44 input  -65.29 | X-H torsion
[ 10718 10713 10712 10709 ] final -137.62 input   66.30 | X-H torsion
[ 10763 10752 10751 10750 ] final  -97.22 input  -60.55 | X-H torsion
[ 11005 11000 10999 10996 ] final  175.12 input  -57.11 | X-H torsion

> <Gold.Protein.ActiveResidues>
 VAL166  LYS551  ARG553  GLY616  TRP617  ASP618  TYR619  PRO620  LYS621  CYS622 
 ASP623  PHE694  ASN695  SER759  ASP760  ASP761  ALA762  ILE779  LEU786  VAL792 
 PHE793  MET794  SER795  GLU796  ALA797  LYS798  CYS799  TRP800  GLU811  SER814 

> <Gold.Protein.RotatedAtoms>
  150.6925  134.3936  159.5087 H   0  0  0  0  0  0  0  0  0  0  0  0  # atno 6907 bound_to 6896
  152.1721  134.8823  160.0542 H   0  0  0  0  0  0  0  0  0  0  0  0  # atno 6908 bound_to 6896
  151.9845  133.3734  159.4157 H   0  0  0  0  0  0  0  0  0  0  0  0  # atno 6909 bound_to 6896
  146.2442  140.0433  142.8380 H   0  0  0  0  0  0  0  0  0  0  0  0  # atno 7974 bound_to 7965
  155.3410  140.0472  157.3045 H   0  0  0  0  0  0  0  0  0  0  0  0  # atno 8008 bound_to 7997
  154.5277  140.2246  155.8824 H   0  0  0  0  0  0  0  0  0  0  0  0  # atno 8009 bound_to 7997
  156.1757  140.3085  155.9060 H   0  0  0  0  0  0  0  0  0  0  0  0  # atno 8010 bound_to 7997
  140.7233  143.5116  150.9743 H   0  0  0  0  0  0  0  0  0  0  0  0  # atno 10167 bound_to 10162
  156.2901  130.7370  151.1393 H   0  0  0  0  0  0  0  0  0  0  0  0  # atno 10718 bound_to 10713
  154.7309  135.5054  153.8963 H   0  0  0  0  0  0  0  0  0  0  0  0  # atno 10763 bound_to 10752
  153.0949  135.6669  153.9791 H   0  0  0  0  0  0  0  0  0  0  0  0  # atno 10764 bound_to 10752
  153.9592  135.3049  155.3413 H   0  0  0  0  0  0  0  0  0  0  0  0  # atno 10765 bound_to 10752
  140.3588  134.7131  157.4317 H   0  0  0  0  0  0  0  0  0  0  0  0  # atno 11005 bound_to 11000
  145.1050  140.9369  143.4690 LP  0  0  0  0  0  0  0  0  0  0  0  0  # atno 17320 bound_to 7965
  145.0634  139.3087  143.5869 LP  0  0  0  0  0  0  0  0  0  0  0  0  # atno 17321 bound_to 7965
  139.8830  143.7048  152.3155 LP  0  0  0  0  0  0  0  0  0  0  0  0  # atno 17342 bound_to 10162
  139.7337  144.7576  151.0761 LP  0  0  0  0  0  0  0  0  0  0  0  0  # atno 17343 bound_to 10162
  157.7340  131.0586  150.5548 LP  0  0  0  0  0  0  0  0  0  0  0  0  # atno 17370 bound_to 10713
  156.5663  130.4268  149.6039 LP  0  0  0  0  0  0  0  0  0  0  0  0  # atno 17371 bound_to 10713
  140.0644  134.5951  155.8712 LP  0  0  0  0  0  0  0  0  0  0  0  0  # atno 17394 bound_to 11000
  141.1990  133.6604  156.5823 LP  0  0  0  0  0  0  0  0  0  0  0  0  # atno 17395 bound_to 11000

$$$$
