AV-unprocessed.smi:910|AV-procd|sdf|4128|dock5
  -GOLD-   22720 2 33D 1   1.00000     0.00000
 Structure written by MMmdl.
 47 48  0  0  0  0  0  0  0  0  2 V2000
  149.5316  131.9987  153.1621 C   0  0  0  0  0  0  0  0  0  0  0  0
  150.1410  133.0897  153.9852 C   0  0  0  0  0  0  0  0  0  0  0  0
  149.9869  134.4508  153.8615 N   0  3  0  0  0  0  0  0  0  0  0  0
  150.7104  135.0665  154.7934 C   0  0  0  0  0  0  0  0  0  0  0  0
  150.7776  136.4701  154.9486 N   0  0  0  0  0  0  0  0  0  0  0  0
  151.7609  137.1378  155.5705 C   0  0  0  0  0  0  0  0  0  0  0  0
  152.7623  136.6110  156.0564 O   0  0  0  0  0  0  0  0  0  0  0  0
  151.5223  138.4577  155.6039 N   0  0  0  0  0  0  0  0  0  0  0  0
  152.3810  139.4449  156.2515 C   0  0  0  0  0  0  0  0  0  0  0  0
  151.5861  140.3295  157.2228 C   0  0  0  0  0  0  0  0  0  0  0  0
  152.4883  141.0539  158.0438 O   0  0  0  0  0  0  0  0  0  0  0  0
  151.8704  142.0215  158.8798 C   0  0  2  0  0  0  0  0  0  0  0  0
  151.1898  143.0531  157.9627 C   0  0  0  0  0  0  0  0  0  0  0  0
  150.5945  144.2157  158.7701 C   0  0  0  0  0  0  0  0  0  0  0  0
  151.6657  144.8806  159.6473 C   0  0  0  0  0  0  0  0  0  0  0  0
  152.3503  143.8537  160.5635 C   0  0  0  0  0  0  0  0  0  0  0  0
  152.9536  142.6829  159.7614 C   0  0  1  0  0  0  0  0  0  0  0  0
  153.6299  141.6700  160.6994 C   0  0  0  0  0  0  0  0  0  0  0  0
  151.3644  134.1593  155.5678 O   0  0  0  0  0  0  0  0  0  0  0  0
  150.9990  132.9329  155.0522 C   0  0  0  0  0  0  0  0  0  0  0  0
  151.5709  131.7206  155.7069 C   0  0  0  0  0  0  0  0  0  0  0  0
  150.2952  131.4536  152.6067 H   0  0  0  0  0  0  0  0  0  0  0  0
  148.8180  132.3963  152.4401 H   0  0  0  0  0  0  0  0  0  0  0  0
  149.0021  131.2808  153.7888 H   0  0  0  0  0  0  0  0  0  0  0  0
  149.4042  134.8785  153.1528 H   0  0  0  0  0  0  0  0  0  0  0  0
  150.6766  138.8056  155.1761 H   0  0  0  0  0  0  0  0  0  0  0  0
  153.2158  138.9640  156.7642 H   0  0  0  0  0  0  0  0  0  0  0  0
  152.8173  140.0677  155.4704 H   0  0  0  0  0  0  0  0  0  0  0  0
  150.9643  141.0305  156.6642 H   0  0  0  0  0  0  0  0  0  0  0  0
  150.9217  139.7144  157.8323 H   0  0  0  0  0  0  0  0  0  0  0  0
  151.1110  141.5716  159.5235 H   0  0  0  0  0  0  0  0  0  0  0  0
  151.9157  143.4437  157.2480 H   0  0  0  0  0  0  0  0  0  0  0  0
  150.4080  142.5700  157.3755 H   0  0  0  0  0  0  0  0  0  0  0  0
  150.1566  144.9517  158.0952 H   0  0  0  0  0  0  0  0  0  0  0  0
  149.7818  143.8481  159.3978 H   0  0  0  0  0  0  0  0  0  0  0  0
  152.4127  145.3593  159.0128 H   0  0  0  0  0  0  0  0  0  0  0  0
  151.2159  145.6726  160.2467 H   0  0  0  0  0  0  0  0  0  0  0  0
  153.1294  144.3483  161.1448 H   0  0  0  0  0  0  0  0  0  0  0  0
  151.6251  143.4717  161.2837 H   0  0  0  0  0  0  0  0  0  0  0  0
  153.7239  143.0896  159.1042 H   0  0  0  0  0  0  0  0  0  0  0  0
  152.9050  141.2023  161.3664 H   0  0  0  0  0  0  0  0  0  0  0  0
  154.3878  142.1523  161.3172 H   0  0  0  0  0  0  0  0  0  0  0  0
  154.1250  140.8780  160.1375 H   0  0  0  0  0  0  0  0  0  0  0  0
  150.7789  131.0378  156.0149 H   0  0  0  0  0  0  0  0  0  0  0  0
  152.1489  131.9867  156.5922 H   0  0  0  0  0  0  0  0  0  0  0  0
  152.2299  131.1873  155.0214 H   0  0  0  0  0  0  0  0  0  0  0  0
  150.0110  137.0058  154.5694 H   0  0  0  0  0  0  0  0  0  0  0  0
  1 22  1  0  0  0  0
  1 23  1  0  0  0  0
  1 24  1  0  0  0  0
  1  2  1  0  0  0  0
  2  3  1  0  0  0  0
  2 20  2  0  0  0  0
  3 25  1  0  0  0  0
  3  4  2  0  0  0  0
  4 19  1  0  0  0  0
  4  5  1  0  0  0  0
  5  6  1  0  0  0  0
  5 47  1  0  0  0  0
  6  8  1  0  0  0  0
  6  7  2  0  0  0  0
  8  9  1  0  0  0  0
  8 26  1  0  0  0  0
  9 10  1  0  0  0  0
  9 27  1  0  0  0  0
  9 28  1  0  0  0  0
 10 11  1  0  0  0  0
 10 29  1  0  0  0  0
 10 30  1  0  0  0  0
 11 12  1  0  0  0  0
 12 17  1  0  0  0  0
 12 13  1  0  0  0  0
 12 31  1  0  0  0  0
 13 14  1  0  0  0  0
 13 32  1  0  0  0  0
 13 33  1  0  0  0  0
 14 15  1  0  0  0  0
 14 34  1  0  0  0  0
 14 35  1  0  0  0  0
 15 16  1  0  0  0  0
 15 36  1  0  0  0  0
 15 37  1  0  0  0  0
 16 17  1  0  0  0  0
 16 38  1  0  0  0  0
 16 39  1  0  0  0  0
 17 18  1  0  0  0  0
 17 40  1  0  0  0  0
 18 41  1  0  0  0  0
 18 42  1  0  0  0  0
 18 43  1  0  0  0  0
 19 20  1  0  0  0  0
 20 21  1  0  0  0  0
 21 44  1  0  0  0  0
 21 45  1  0  0  0  0
 21 46  1  0  0  0  0
M  CHG  1   3   1
M  END
> <s_m_source_file>
AV-unprocessed.smi

> <i_m_source_file_index>
910

> <i_lp_mmshare_version>
43012

> <i_f3d_flags>
0

> <s_epik_input>
W0NIM11jMW5jKG9jMVtDSDNdKVtOSF1DKD1PKVtOSF1bQ0gyXVtDSDJdT1tDQEBIXTJbQ0gyXVtDSDJdW0NIMl1bQ0gyXVtDQEhdMltDSDNd

> <s_epik_cmdline>
J2VwaWtfcHl0aG9uJywgJy1waCcsICc3LjAnLCAnLXRuJywgJzgnLCAnLW1hJywgJzIwMCcsICctbWV0YWxfYmluZGluZycsICctaW1hZScsICc8aW5maWxlLm1hZT4nLCAnLW9tYWUnLCAnPG91dGZpbGUubWFlPic=

> <r_epik_Ionization_Penalty>
7.32931

> <r_epik_Ionization_Penalty_Charging>
7.12214

> <r_epik_Ionization_Penalty_Neutral>
0.207166

> <r_epik_State_Penalty>
2.61278

> <r_epik_Charging_Adjusted_Penalty>
9.73492

> <i_epik_Tot_Q>
1

> <i_epik_Tot_abs_Q>
1

> <r_epik_Metal_State_Penalty>
2.64585

> <b_epik_Metal_Only>
0

> <s_lp_Force_Field>
OPLS_2005

> <r_lp_Energy>
16.0479

> <b_lp_Chiralities_Consistent>
1

> <s_lp_Variant>
AV-unprocessed.smi:910-13

> <Gold.Version>
5.8.1

> <Gold.Id.Protein>
6NUR|6NUR_protein|mol2

> <Gold.PLP.Fitness>
51.3461

> <Gold.PLP.PLP>
-43.1107

> <Gold.PLP.part.hbond>
-2.0754

> <Gold.PLP.part.metal>
0.0000

> <Gold.PLP.part.buried>
-3.8643

> <Gold.PLP.part.nonpolar>
-36.6202

> <Gold.PLP.part.repulsive>
0.2064

> <Gold.PLP.ligand.clash>
0.0000

> <Gold.PLP.ligand.torsion>
0.1862

> <Gold.PLP.Chemscore.Hbond>
2.8560

> <Gold.PLP.Chemscore.CHOScore>
0.0000

> <Gold.PLP.Chemscore.Metal>
0.0000

> <Gold.Chemscore.Hbonds>
donor molecule, donor type, donor heavy atom, donor atom, acceptor molecule, acceptor atom, score
      L1  H     3    25       P1  7948  0.70
      P1  H 10752 10765       L1     7  0.93

> <Gold.PLP.Chemscore.Internal.Correction>
0.0398

> <Gold.Rescore>
     Score         DG    S(hbond)    S(metal)    S(lipo)     H(rot)  DE(clash)    DE(int)     intcor
     17.70     -19.28       1.61        0.00     109.22       1.69       0.10       1.48       ----

> <Gold.Chemscore.Fitness>
17.7028

> <Gold.Chemscore.DG>
-19.2805

> <Gold.Chemscore.ZeroCoef>
-5.4800

> <Gold.Chemscore.Hbond>
1.6051

> <Gold.Chemscore.Metal>
0.0000

> <Gold.Chemscore.Lipo>
109.2187

> <Gold.Chemscore.Internal_Hbond>
0.0000

> <Gold.Chemscore.DEClash>
0.1019

> <Gold.Chemscore.DEInternal>
1.4758

> <Gold.Chemscore.Rot>
1.6949

> <Gold.Chemscore.Internal.Correction>
   9.000000E+99

> <Gold.Chemscore.Hbonds>
donor molecule, donor type, donor heavy atom, donor atom, acceptor molecule, acceptor atom, score
      L1  H     3    25       P1  7948  0.01
      P1  H 10752 10765       L1     7  0.55

> <Gold.Chemscore.Hbond.Weighted>
-5.3610

> <Gold.Chemscore.Metal.Weighted>
-0.0000

> <Gold.Chemscore.Lipo.Weighted>
-12.7786

> <Gold.Chemscore.Internal_Hbond.Weighted>
0.0000

> <Gold.Chemscore.DEClash.Weighted>
0.1019

> <Gold.Chemscore.DEInternal.Weighted>
1.4758

> <Gold.Chemscore.Rot.Weighted>
4.3390

> <Gold.Chemscore.Internal.Correction.Weighted>
   9.000000E+99

> <Gold.Protein.RotatedTorsions>
[ 6907 6896 6895 6894 ] final -115.91 input  -60.11 | X-H torsion
[ 7974 7965 7964 7962 ] final  173.91 input  175.53 | X-H torsion
[ 8008 7997 7996 7995 ] final -129.91 input   59.86 | X-H torsion
[ 10167 10162 10161 10158 ] final -154.06 input  -65.29 | X-H torsion
[ 10718 10713 10712 10709 ] final   17.59 input   66.30 | X-H torsion
[ 10763 10752 10751 10750 ] final -145.38 input  -60.55 | X-H torsion
[ 11005 11000 10999 10996 ] final -167.92 input  -57.11 | X-H torsion

> <Gold.Protein.ActiveResidues>
 VAL166  LYS551  ARG553  GLY616  TRP617  ASP618  TYR619  PRO620  LYS621  CYS622 
 ASP623  PHE694  ASN695  SER759  ASP760  ASP761  ALA762  ILE779  LEU786  VAL792 
 PHE793  MET794  SER795  GLU796  ALA797  LYS798  CYS799  TRP800  GLU811  SER814 

> <Gold.Protein.RotatedAtoms>
  150.8014  133.8592  159.3226 H   0  0  0  0  0  0  0  0  0  0  0  0  # atno 6907 bound_to 6896
  151.6403  135.1011  160.0149 H   0  0  0  0  0  0  0  0  0  0  0  0  # atno 6908 bound_to 6896
  152.4102  133.6911  159.6426 H   0  0  0  0  0  0  0  0  0  0  0  0  # atno 6909 bound_to 6896
  144.7233  139.9719  143.6437 H   0  0  0  0  0  0  0  0  0  0  0  0  # atno 7974 bound_to 7965
  155.2871  140.0446  157.3020 H   0  0  0  0  0  0  0  0  0  0  0  0  # atno 8008 bound_to 7997
  154.5563  140.2332  155.8373 H   0  0  0  0  0  0  0  0  0  0  0  0  # atno 8009 bound_to 7997
  156.2010  140.3025  155.9533 H   0  0  0  0  0  0  0  0  0  0  0  0  # atno 8010 bound_to 7997
  139.7045  143.9209  152.2443 H   0  0  0  0  0  0  0  0  0  0  0  0  # atno 10167 bound_to 10162
  157.0843  130.6401  149.5833 H   0  0  0  0  0  0  0  0  0  0  0  0  # atno 10718 bound_to 10713
  154.8386  135.3415  154.6495 H   0  0  0  0  0  0  0  0  0  0  0  0  # atno 10763 bound_to 10752
  153.7108  135.6964  153.5042 H   0  0  0  0  0  0  0  0  0  0  0  0  # atno 10764 bound_to 10752
  153.2453  135.4371  155.0695 H   0  0  0  0  0  0  0  0  0  0  0  0  # atno 10765 bound_to 10752
  140.5478  134.5458  157.5115 H   0  0  0  0  0  0  0  0  0  0  0  0  # atno 11005 bound_to 11000
  146.0556  139.3553  143.0612 LP  0  0  0  0  0  0  0  0  0  0  0  0  # atno 17320 bound_to 7965
  145.8159  140.9703  143.0924 LP  0  0  0  0  0  0  0  0  0  0  0  0  # atno 17321 bound_to 7965
  139.9061  144.6884  150.8613 LP  0  0  0  0  0  0  0  0  0  0  0  0  # atno 17342 bound_to 10162
  140.7718  143.3478  151.2076 LP  0  0  0  0  0  0  0  0  0  0  0  0  # atno 17343 bound_to 10162
  155.9915  130.4970  150.7302 LP  0  0  0  0  0  0  0  0  0  0  0  0  # atno 17370 bound_to 10713
  157.4774  131.0899  151.0574 LP  0  0  0  0  0  0  0  0  0  0  0  0  # atno 17371 bound_to 10713
  139.9471  134.7683  156.0537 LP  0  0  0  0  0  0  0  0  0  0  0  0  # atno 17394 bound_to 11000
  141.1189  133.6619  156.3165 LP  0  0  0  0  0  0  0  0  0  0  0  0  # atno 17395 bound_to 11000

$$$$
