AV-unprocessed.smi:2320|AV-procd|sdf|9280|dock5
  -GOLD-   2272012503D 1   1.00000     0.00000
 Structure written by MMmdl.
 41 42  0  0  0  0  0  0  0  0  1 V2000
  152.0071  145.0411  159.2219 C   0  0  0  0  0  0  0  0  0  0  0  0
  151.6837  143.5616  159.2505 C   0  0  0  0  0  0  0  0  0  0  0  0
  150.5662  143.0596  158.5543 C   0  0  0  0  0  0  0  0  0  0  0  0
  150.2743  141.6826  158.5875 C   0  0  0  0  0  0  0  0  0  0  0  0
  151.0878  140.7886  159.3132 C   0  0  0  0  0  0  0  0  0  0  0  0
  150.7274  139.4585  159.2914 O   0  0  0  0  0  0  0  0  0  0  0  0
  149.9859  138.9787  158.1773 C   0  0  0  0  0  0  0  0  0  0  0  0
  149.4030  137.6008  158.5276 C   0  0  1  0  0  0  0  0  0  0  0  0
  150.3660  136.9317  159.3164 O   0  0  0  0  0  0  0  0  0  0  0  0
  148.0840  137.7116  159.3259 C   0  0  0  0  0  0  0  0  0  0  0  0
  147.6222  136.4031  159.8189 N   0  0  0  0  0  0  0  0  0  0  0  0
  147.5075  135.3817  158.8608 C   0  0  0  0  0  0  0  0  0  0  0  0
  147.1077  134.1939  159.1783 N   0  0  0  0  0  0  0  0  0  0  0  0
  146.7797  133.9007  160.5050 C   0  0  0  0  0  0  0  0  0  0  0  0
  146.3120  132.4799  160.7659 C   0  0  0  0  0  0  0  0  0  0  0  0
  146.8783  134.8425  161.4827 C   0  0  0  0  0  0  0  0  0  0  0  0
  146.5317  134.5807  162.9434 C   0  0  0  0  0  0  0  0  0  0  0  0
  147.3353  136.1985  161.1368 C   0  0  0  0  0  0  0  0  0  0  0  0
  147.4514  137.0967  161.9727 O   0  0  0  0  0  0  0  0  0  0  0  0
  152.2110  141.3001  160.0110 C   0  0  0  0  0  0  0  0  0  0  0  0
  152.5039  142.6774  159.9782 C   0  0  0  0  0  0  0  0  0  0  0  0
  151.3023  145.5908  158.5972 H   0  0  0  0  0  0  0  0  0  0  0  0
  153.0100  145.2010  158.8250 H   0  0  0  0  0  0  0  0  0  0  0  0
  151.9649  145.4564  160.2290 H   0  0  0  0  0  0  0  0  0  0  0  0
  149.9290  143.7264  157.9920 H   0  0  0  0  0  0  0  0  0  0  0  0
  149.4153  141.3081  158.0505 H   0  0  0  0  0  0  0  0  0  0  0  0
  149.1762  139.6770  157.9575 H   0  0  0  0  0  0  0  0  0  0  0  0
  150.6201  138.9041  157.2920 H   0  0  0  0  0  0  0  0  0  0  0  0
  149.2571  137.0356  157.6062 H   0  0  0  0  0  0  0  0  0  0  0  0
  150.8477  137.5747  159.8141 H   0  0  0  0  0  0  0  0  0  0  0  0
  148.1821  138.4407  160.1327 H   0  0  0  0  0  0  0  0  0  0  0  0
  147.3061  138.1340  158.6867 H   0  0  0  0  0  0  0  0  0  0  0  0
  147.7818  135.6615  157.8420 H   0  0  0  0  0  0  0  0  0  0  0  0
  145.3013  132.4801  161.1745 H   0  0  0  0  0  0  0  0  0  0  0  0
  146.9755  131.9828  161.4739 H   0  0  0  0  0  0  0  0  0  0  0  0
  146.3010  131.8898  159.8485 H   0  0  0  0  0  0  0  0  0  0  0  0
  147.3935  134.7880  163.5785 H   0  0  0  0  0  0  0  0  0  0  0  0
  146.2259  133.5533  163.1348 H   0  0  0  0  0  0  0  0  0  0  0  0
  145.7150  135.2312  163.2577 H   0  0  0  0  0  0  0  0  0  0  0  0
  152.8656  140.6564  160.5784 H   0  0  0  0  0  0  0  0  0  0  0  0
  153.3629  143.0544  160.5141 H   0  0  0  0  0  0  0  0  0  0  0  0
  1  2  1  0  0  0  0
  1 22  1  0  0  0  0
  1 23  1  0  0  0  0
  1 24  1  0  0  0  0
  2 21  1  0  0  0  0
  2  3  2  0  0  0  0
  3  4  1  0  0  0  0
  3 25  1  0  0  0  0
  4  5  2  0  0  0  0
  4 26  1  0  0  0  0
  5  6  1  0  0  0  0
  5 20  1  0  0  0  0
  6  7  1  0  0  0  0
  7  8  1  0  0  0  0
  7 27  1  0  0  0  0
  7 28  1  0  0  0  0
  8  9  1  0  0  0  0
  8 10  1  0  0  0  0
  8 29  1  0  0  0  0
  9 30  1  0  0  0  0
 10 11  1  0  0  0  0
 10 31  1  0  0  0  0
 10 32  1  0  0  0  0
 11 18  1  0  0  0  0
 11 12  1  0  0  0  0
 12 13  2  0  0  0  0
 12 33  1  0  0  0  0
 13 14  1  0  0  0  0
 14 15  1  0  0  0  0
 14 16  2  0  0  0  0
 15 34  1  0  0  0  0
 15 35  1  0  0  0  0
 15 36  1  0  0  0  0
 16 17  1  0  0  0  0
 16 18  1  0  0  0  0
 17 37  1  0  0  0  0
 17 38  1  0  0  0  0
 17 39  1  0  0  0  0
 18 19  2  0  0  0  0
 20 21  2  0  0  0  0
 20 40  1  0  0  0  0
 21 41  1  0  0  0  0
M  END
> <s_m_source_file>
AV-unprocessed.smi

> <i_m_source_file_index>
2320

> <i_lp_mmshare_version>
43012

> <i_f3d_flags>
0

> <s_epik_input>
W0NIM11jMVtjSF1bY0hdYyhbY0hdW2NIXTEpT1tDSDJdW0NASF0oW09IXSlbQ0gyXW4yW2NIXW5jKFtDSDNdKWMoW0NIM10pYzI9Tw==

> <s_epik_cmdline>
J2VwaWtfcHl0aG9uJywgJy1waCcsICc3LjAnLCAnLXRuJywgJzgnLCAnLW1hJywgJzIwMCcsICctbWV0YWxfYmluZGluZycsICctaW1hZScsICc8aW5maWxlLm1hZT4nLCAnLW9tYWUnLCAnPG91dGZpbGUubWFlPic=

> <r_lp_tautomer_probability>
1

> <r_epik_Ionization_Penalty>
3.74127e-05

> <r_epik_Ionization_Penalty_Charging>
8.43242e-08

> <r_epik_Ionization_Penalty_Neutral>
3.73284e-05

> <r_epik_State_Penalty>
-0

> <r_epik_Charging_Adjusted_Penalty>
8.43242e-08

> <i_epik_Tot_Q>
0

> <i_epik_Tot_abs_Q>
0

> <r_epik_Metal_State_Penalty>
-0

> <b_epik_Metal_Only>
0

> <s_lp_Force_Field>
OPLS_2005

> <r_lp_Energy>
22.1305

> <b_lp_Chiralities_Consistent>
1

> <s_lp_Variant>
AV-unprocessed.smi:2320-2

> <Gold.Version>
5.8.1

> <Gold.Id.Protein>
6NUR|6NUR_protein|mol2

> <Gold.PLP.Fitness>
51.0558

> <Gold.PLP.PLP>
-44.3874

> <Gold.PLP.part.hbond>
-3.0000

> <Gold.PLP.part.metal>
0.0000

> <Gold.PLP.part.buried>
-4.4915

> <Gold.PLP.part.nonpolar>
-36.3473

> <Gold.PLP.part.repulsive>
0.0000

> <Gold.PLP.ligand.clash>
0.0015

> <Gold.PLP.ligand.torsion>
0.7260

> <Gold.PLP.Chemscore.Hbond>
2.6880

> <Gold.PLP.Chemscore.CHOScore>
0.0000

> <Gold.PLP.Chemscore.Metal>
0.0000

> <Gold.Chemscore.Hbonds>
donor molecule, donor type, donor heavy atom, donor atom, acceptor molecule, acceptor atom, score
      P1  H  6896  6909       L1     9  0.91
      P1  H  6931  6943       L1    19  0.96
      P1  H  6934  6947       L1    19  0.43

> <Gold.PLP.Chemscore.Internal.Correction>
0.0579

> <Gold.Rescore>
     Score         DG    S(hbond)    S(metal)    S(lipo)     H(rot)  DE(clash)    DE(int)     intcor
     20.08     -21.08       2.67        0.00     108.45       2.35       0.07       0.93       ----

> <Gold.Chemscore.Fitness>
20.0791

> <Gold.Chemscore.DG>
-21.0776

> <Gold.Chemscore.ZeroCoef>
-5.4800

> <Gold.Chemscore.Hbond>
2.6714

> <Gold.Chemscore.Metal>
0.0000

> <Gold.Chemscore.Lipo>
108.4500

> <Gold.Chemscore.Internal_Hbond>
0.0000

> <Gold.Chemscore.DEClash>
0.0686

> <Gold.Chemscore.DEInternal>
0.9299

> <Gold.Chemscore.Rot>
2.3490

> <Gold.Chemscore.Internal.Correction>
   9.000000E+99

> <Gold.Chemscore.Hbonds>
donor molecule, donor type, donor heavy atom, donor atom, acceptor molecule, acceptor atom, score
      P1  H  6896  6909       L1     9  0.53
      P1  H  6931  6943       L1    19  0.89
      P1  H  6934  6947       L1    19  0.29

> <Gold.Chemscore.Hbond.Weighted>
-8.9225

> <Gold.Chemscore.Metal.Weighted>
-0.0000

> <Gold.Chemscore.Lipo.Weighted>
-12.6887

> <Gold.Chemscore.Internal_Hbond.Weighted>
0.0000

> <Gold.Chemscore.DEClash.Weighted>
0.0686

> <Gold.Chemscore.DEInternal.Weighted>
0.9299

> <Gold.Chemscore.Rot.Weighted>
6.0136

> <Gold.Chemscore.Internal.Correction.Weighted>
   9.000000E+99

> <Gold.Protein.RotatedTorsions>
[ 6907 6896 6895 6894 ] final   90.49 input  -60.11 | X-H torsion
[ 7974 7965 7964 7962 ] final -127.24 input  175.53 | X-H torsion
[ 8008 7997 7996 7995 ] final   44.30 input   59.86 | X-H torsion
[ 10167 10162 10161 10158 ] final  121.12 input  -65.29 | X-H torsion
[ 10718 10713 10712 10709 ] final  121.31 input   66.30 | X-H torsion
[ 10763 10752 10751 10750 ] final  -27.18 input  -60.55 | X-H torsion
[ 11005 11000 10999 10996 ] final  118.80 input  -57.11 | X-H torsion

> <Gold.Protein.ActiveResidues>
 VAL166  LYS551  ARG553  GLY616  TRP617  ASP618  TYR619  PRO620  LYS621  CYS622 
 ASP623  PHE694  ASN695  SER759  ASP760  ASP761  ALA762  ILE779  LEU786  VAL792 
 PHE793  MET794  SER795  GLU796  ALA797  LYS798  CYS799  TRP800  GLU811  SER814 

> <Gold.Protein.RotatedAtoms>
  152.5445  134.1803  159.8632 H   0  0  0  0  0  0  0  0  0  0  0  0  # atno 6907 bound_to 6896
  151.1806  133.4720  159.2601 H   0  0  0  0  0  0  0  0  0  0  0  0  # atno 6908 bound_to 6896
  151.1182  135.0076  159.8581 H   0  0  0  0  0  0  0  0  0  0  0  0  # atno 6909 bound_to 6896
  144.9791  140.7622  143.4623 H   0  0  0  0  0  0  0  0  0  0  0  0  # atno 7974 bound_to 7965
  155.3171  140.3394  155.4242 H   0  0  0  0  0  0  0  0  0  0  0  0  # atno 8008 bound_to 7997
  156.1927  140.1703  156.8097 H   0  0  0  0  0  0  0  0  0  0  0  0  # atno 8009 bound_to 7997
  154.5462  140.0715  156.8576 H   0  0  0  0  0  0  0  0  0  0  0  0  # atno 8010 bound_to 7997
  139.5939  144.7035  151.3223 H   0  0  0  0  0  0  0  0  0  0  0  0  # atno 10167 bound_to 10162
  157.5827  131.1073  150.8155 H   0  0  0  0  0  0  0  0  0  0  0  0  # atno 10718 bound_to 10713
  153.7279  135.6940  153.4996 H   0  0  0  0  0  0  0  0  0  0  0  0  # atno 10763 bound_to 10752
  153.2157  135.4387  155.0430 H   0  0  0  0  0  0  0  0  0  0  0  0  # atno 10764 bound_to 10752
  154.8263  135.3448  154.6810 H   0  0  0  0  0  0  0  0  0  0  0  0  # atno 10765 bound_to 10752
  139.9123  134.9623  156.7558 H   0  0  0  0  0  0  0  0  0  0  0  0  # atno 11005 bound_to 11000
  145.2447  139.2057  143.4974 LP  0  0  0  0  0  0  0  0  0  0  0  0  # atno 17320 bound_to 7965
  146.3403  140.2349  142.8594 LP  0  0  0  0  0  0  0  0  0  0  0  0  # atno 17321 bound_to 7965
  140.7196  143.7173  150.7723 LP  0  0  0  0  0  0  0  0  0  0  0  0  # atno 17342 bound_to 10162
  140.0735  143.5038  152.2568 LP  0  0  0  0  0  0  0  0  0  0  0  0  # atno 17343 bound_to 10162
  156.8597  130.5109  149.5305 LP  0  0  0  0  0  0  0  0  0  0  0  0  # atno 17370 bound_to 10713
  156.0874  130.5869  150.9672 LP  0  0  0  0  0  0  0  0  0  0  0  0  # atno 17371 bound_to 10713
  140.6737  133.9537  155.7871 LP  0  0  0  0  0  0  0  0  0  0  0  0  # atno 17394 bound_to 11000
  141.0560  134.0416  157.3722 LP  0  0  0  0  0  0  0  0  0  0  0  0  # atno 17395 bound_to 11000

$$$$
