AV-unprocessed.smi:2024|AV-procd|sdf|8192|dock5
  -GOLD-   2272010443D 1   1.00000     0.00000
 Structure written by MMmdl.
 44 45  0  0  0  0  0  0  0  0  2 V2000
  146.5454  136.2953  153.7575 C   0  0  0  0  0  0  0  0  0  0  0  0
  145.4743  137.1583  153.2713 N   0  0  0  0  0  0  0  0  0  0  0  0
  144.7933  137.8952  154.3350 C   0  0  0  0  0  0  0  0  0  0  0  0
  145.6821  139.0052  154.9320 C   0  0  0  0  0  0  0  0  0  0  0  0
  146.1123  139.9698  153.8774 N   0  3  0  0  0  0  0  0  0  0  0  0
  146.8027  141.2152  154.3817 C   0  0  0  0  0  0  0  0  0  0  0  0
  146.8683  142.2990  153.2772 C   0  0  0  0  0  0  0  0  0  0  0  0
  146.0447  141.8206  155.5935 C   0  0  0  0  0  0  0  0  0  0  0  0
  148.2346  140.8269  154.8673 C   0  0  0  0  0  0  0  0  0  0  0  0
  148.9195  141.8740  155.6262 N   0  0  0  0  0  0  0  0  0  0  0  0
  149.8000  141.6721  156.6176 C   0  0  0  0  0  0  0  0  0  0  0  0
  150.1449  140.5539  157.0006 O   0  0  0  0  0  0  0  0  0  0  0  0
  150.2459  142.8379  157.1171 N   0  0  0  0  0  0  0  0  0  0  0  0
  151.1968  143.0425  158.1510 C   0  0  0  0  0  0  0  0  0  0  0  0
  151.7768  142.0586  158.8480 N   0  0  0  0  0  0  0  0  0  0  0  0
  152.6725  142.5495  159.8014 C   0  0  0  0  0  0  0  0  0  0  0  0
  152.7635  143.9190  159.8155 C   0  0  0  0  0  0  0  0  0  0  0  0
  151.7219  144.6515  158.6248 S   0  0  0  0  0  0  0  0  0  0  0  0
  146.8094  139.2183  152.7932 C   0  0  0  0  0  0  0  0  0  0  0  0
  145.9135  138.0911  152.2355 C   0  0  0  0  0  0  0  0  0  0  0  0
  146.1551  135.5838  154.4857 H   0  0  0  0  0  0  0  0  0  0  0  0
  147.3537  136.8525  154.2297 H   0  0  0  0  0  0  0  0  0  0  0  0
  146.9705  135.7224  152.9326 H   0  0  0  0  0  0  0  0  0  0  0  0
  143.8824  138.3363  153.9275 H   0  0  0  0  0  0  0  0  0  0  0  0
  144.4782  137.2006  155.1145 H   0  0  0  0  0  0  0  0  0  0  0  0
  145.1060  139.4997  155.7102 H   0  0  0  0  0  0  0  0  0  0  0  0
  146.5474  138.5651  155.4274 H   0  0  0  0  0  0  0  0  0  0  0  0
  147.2417  143.2457  153.6687 H   0  0  0  0  0  0  0  0  0  0  0  0
  145.8864  142.5038  152.8509 H   0  0  0  0  0  0  0  0  0  0  0  0
  147.5334  142.0141  152.4615 H   0  0  0  0  0  0  0  0  0  0  0  0
  146.5842  142.6557  156.0398 H   0  0  0  0  0  0  0  0  0  0  0  0
  145.8897  141.0800  156.3790 H   0  0  0  0  0  0  0  0  0  0  0  0
  145.0732  142.2269  155.3119 H   0  0  0  0  0  0  0  0  0  0  0  0
  148.1726  139.9517  155.5148 H   0  0  0  0  0  0  0  0  0  0  0  0
  148.8782  140.5300  154.0408 H   0  0  0  0  0  0  0  0  0  0  0  0
  148.6984  142.8281  155.3804 H   0  0  0  0  0  0  0  0  0  0  0  0
  149.8662  143.6783  156.7069 H   0  0  0  0  0  0  0  0  0  0  0  0
  153.2052  141.8510  160.4296 H   0  0  0  0  0  0  0  0  0  0  0  0
  153.3781  144.5385  160.4513 H   0  0  0  0  0  0  0  0  0  0  0  0
  147.0357  139.8648  151.9478 H   0  0  0  0  0  0  0  0  0  0  0  0
  147.7602  138.8233  153.1515 H   0  0  0  0  0  0  0  0  0  0  0  0
  146.4365  137.5436  151.4506 H   0  0  0  0  0  0  0  0  0  0  0  0
  145.0300  138.5280  151.7683 H   0  0  0  0  0  0  0  0  0  0  0  0
  145.2598  140.3032  153.4505 H   0  0  0  0  0  0  0  0  0  0  0  0
  1  2  1  0  0  0  0
  1 21  1  0  0  0  0
  1 22  1  0  0  0  0
  1 23  1  0  0  0  0
  2 20  1  0  0  0  0
  2  3  1  0  0  0  0
  3  4  1  0  0  0  0
  3 24  1  0  0  0  0
  3 25  1  0  0  0  0
  4  5  1  0  0  0  0
  4 26  1  0  0  0  0
  4 27  1  0  0  0  0
  5  6  1  0  0  0  0
  5 19  1  0  0  0  0
  5 44  1  0  0  0  0
  6  7  1  0  0  0  0
  6  8  1  0  0  0  0
  6  9  1  0  0  0  0
  7 28  1  0  0  0  0
  7 29  1  0  0  0  0
  7 30  1  0  0  0  0
  8 31  1  0  0  0  0
  8 32  1  0  0  0  0
  8 33  1  0  0  0  0
  9 10  1  0  0  0  0
  9 34  1  0  0  0  0
  9 35  1  0  0  0  0
 10 11  1  0  0  0  0
 10 36  1  0  0  0  0
 11 12  2  0  0  0  0
 11 13  1  0  0  0  0
 13 14  1  0  0  0  0
 13 37  1  0  0  0  0
 14 18  1  0  0  0  0
 14 15  2  0  0  0  0
 15 16  1  0  0  0  0
 16 17  2  0  0  0  0
 16 38  1  0  0  0  0
 17 18  1  0  0  0  0
 17 39  1  0  0  0  0
 19 20  1  0  0  0  0
 19 40  1  0  0  0  0
 19 41  1  0  0  0  0
 20 42  1  0  0  0  0
 20 43  1  0  0  0  0
M  CHG  1   5   1
M  END
> <s_m_source_file>
AV-unprocessed.smi

> <i_m_source_file_index>
2024

> <i_lp_mmshare_version>
43012

> <i_f3d_flags>
0

> <s_epik_input>
W0NIM11OMVtDSDJdW0NIMl1OKFtDSDJdW0NIMl0xKUMoW0NIM10pKFtDSDNdKVtDSDJdW05IXUMoPU8pW05IXWMybltjSF1bY0hdczI=

> <s_epik_cmdline>
J2VwaWtfcHl0aG9uJywgJy1waCcsICc3LjAnLCAnLXRuJywgJzgnLCAnLW1hJywgJzIwMCcsICctbWV0YWxfYmluZGluZycsICctaW1hZScsICc8aW5maWxlLm1hZT4nLCAnLW9tYWUnLCAnPG91dGZpbGUubWFlPic=

> <r_epik_Ionization_Penalty>
0.100627

> <r_epik_Ionization_Penalty_Charging>
0.0985296

> <r_epik_Ionization_Penalty_Neutral>
0.00209722

> <r_epik_State_Penalty>
1.056

> <r_epik_Charging_Adjusted_Penalty>
1.15453

> <i_epik_Tot_Q>
1

> <i_epik_Tot_abs_Q>
1

> <r_epik_Metal_State_Penalty>
1.08856

> <b_epik_Metal_Only>
0

> <s_lp_Force_Field>
OPLS_2005

> <r_lp_Energy>
25.1468

> <b_lp_Chiralities_Consistent>
1

> <s_lp_Variant>
AV-unprocessed.smi:2024-2

> <Gold.Version>
5.8.1

> <Gold.Id.Protein>
6NUR|6NUR_protein|mol2

> <Gold.PLP.Fitness>
42.5567

> <Gold.PLP.PLP>
-31.3912

> <Gold.PLP.part.hbond>
-3.0000

> <Gold.PLP.part.metal>
0.0000

> <Gold.PLP.part.buried>
-5.5751

> <Gold.PLP.part.nonpolar>
-23.8727

> <Gold.PLP.part.repulsive>
0.3172

> <Gold.PLP.ligand.clash>
0.0000

> <Gold.PLP.ligand.torsion>
0.4481

> <Gold.PLP.Chemscore.Hbond>
3.9920

> <Gold.PLP.Chemscore.CHOScore>
0.0000

> <Gold.PLP.Chemscore.Metal>
0.0000

> <Gold.Chemscore.Hbonds>
donor molecule, donor type, donor heavy atom, donor atom, acceptor molecule, acceptor atom, score
      L1  H     5    44       P1 10175  2.00
      L1  H    10    36       P1  8028  1.00
      L1  H    13    37       P1  8028  1.00

> <Gold.PLP.Chemscore.Internal.Correction>
0.0857

> <Gold.Rescore>
     Score         DG    S(hbond)    S(metal)    S(lipo)     H(rot)  DE(clash)    DE(int)     intcor
     17.54     -20.46       2.94        0.00      79.15       1.60       1.31       1.61       ----

> <Gold.Chemscore.Fitness>
17.5366

> <Gold.Chemscore.DG>
-20.4561

> <Gold.Chemscore.ZeroCoef>
-5.4800

> <Gold.Chemscore.Hbond>
2.9368

> <Gold.Chemscore.Metal>
0.0000

> <Gold.Chemscore.Lipo>
79.1522

> <Gold.Chemscore.Internal_Hbond>
0.0000

> <Gold.Chemscore.DEClash>
1.3080

> <Gold.Chemscore.DEInternal>
1.6115

> <Gold.Chemscore.Rot>
1.5991

> <Gold.Chemscore.Internal.Correction>
   9.000000E+99

> <Gold.Chemscore.Hbonds>
donor molecule, donor type, donor heavy atom, donor atom, acceptor molecule, acceptor atom, score
      L1  H     5    44       P1 10175  1.00
      L1  H    10    36       P1  8028  0.96
      L1  H    13    37       P1  8028  1.00

> <Gold.Chemscore.Hbond.Weighted>
-9.8089

> <Gold.Chemscore.Metal.Weighted>
-0.0000

> <Gold.Chemscore.Lipo.Weighted>
-9.2608

> <Gold.Chemscore.Internal_Hbond.Weighted>
0.0000

> <Gold.Chemscore.DEClash.Weighted>
1.3080

> <Gold.Chemscore.DEInternal.Weighted>
1.6115

> <Gold.Chemscore.Rot.Weighted>
4.0936

> <Gold.Chemscore.Internal.Correction.Weighted>
   9.000000E+99

> <Gold.Protein.RotatedTorsions>
[ 6907 6896 6895 6894 ] final   97.47 input  -60.11 | X-H torsion
[ 7974 7965 7964 7962 ] final  137.34 input  175.53 | X-H torsion
[ 8008 7997 7996 7995 ] final   75.87 input   59.86 | X-H torsion
[ 10167 10162 10161 10158 ] final -166.41 input  -65.29 | X-H torsion
[ 10718 10713 10712 10709 ] final -149.45 input   66.30 | X-H torsion
[ 10763 10752 10751 10750 ] final -134.56 input  -60.55 | X-H torsion
[ 11005 11000 10999 10996 ] final   84.24 input  -57.11 | X-H torsion

> <Gold.Protein.ActiveResidues>
 VAL166  LYS551  ARG553  GLY616  TRP617  ASP618  TYR619  PRO620  LYS621  CYS622 
 ASP623  PHE694  ASN695  SER759  ASP760  ASP761  ALA762  ILE779  LEU786  VAL792 
 PHE793  MET794  SER795  GLU796  ALA797  LYS798  CYS799  TRP800  GLU811  SER814 

> <Gold.Protein.RotatedAtoms>
  152.5423  134.0729  159.8201 H   0  0  0  0  0  0  0  0  0  0  0  0  # atno 6907 bound_to 6896
  151.0841  133.5360  159.2626 H   0  0  0  0  0  0  0  0  0  0  0  0  # atno 6908 bound_to 6896
  151.2176  135.0514  159.8990 H   0  0  0  0  0  0  0  0  0  0  0  0  # atno 6909 bound_to 6896
  144.9477  139.4855  143.5541 H   0  0  0  0  0  0  0  0  0  0  0  0  # atno 7974 bound_to 7965
  155.8191  140.3470  155.5503 H   0  0  0  0  0  0  0  0  0  0  0  0  # atno 8008 bound_to 7997
  155.8361  140.0934  157.1783 H   0  0  0  0  0  0  0  0  0  0  0  0  # atno 8009 bound_to 7997
  154.4004  140.1403  156.3659 H   0  0  0  0  0  0  0  0  0  0  0  0  # atno 8010 bound_to 7997
  139.6116  144.0802  152.1848 H   0  0  0  0  0  0  0  0  0  0  0  0  # atno 10167 bound_to 10162
  156.4333  130.8086  151.2314 H   0  0  0  0  0  0  0  0  0  0  0  0  # atno 10718 bound_to 10713
  154.8717  135.3731  154.4755 H   0  0  0  0  0  0  0  0  0  0  0  0  # atno 10763 bound_to 10752
  153.5412  135.7026  153.5640 H   0  0  0  0  0  0  0  0  0  0  0  0  # atno 10764 bound_to 10752
  153.3801  135.3999  155.1815 H   0  0  0  0  0  0  0  0  0  0  0  0  # atno 10765 bound_to 10752
  139.9006  134.8202  156.2418 H   0  0  0  0  0  0  0  0  0  0  0  0  # atno 11005 bound_to 11000
  146.3310  139.8541  142.8868 LP  0  0  0  0  0  0  0  0  0  0  0  0  # atno 17320 bound_to 7965
  145.2892  141.0162  143.3673 LP  0  0  0  0  0  0  0  0  0  0  0  0  # atno 17321 bound_to 7965
  140.0422  144.5998  150.7402 LP  0  0  0  0  0  0  0  0  0  0  0  0  # atno 17342 bound_to 10162
  140.7323  143.2704  151.3907 LP  0  0  0  0  0  0  0  0  0  0  0  0  # atno 17343 bound_to 10162
  157.7508  131.0191  150.3654 LP  0  0  0  0  0  0  0  0  0  0  0  0  # atno 17370 bound_to 10713
  156.3996  130.3913  149.6969 LP  0  0  0  0  0  0  0  0  0  0  0  0  # atno 17371 bound_to 10713
  141.0280  133.7004  156.1381 LP  0  0  0  0  0  0  0  0  0  0  0  0  # atno 17394 bound_to 11000
  140.7138  134.4433  157.5580 LP  0  0  0  0  0  0  0  0  0  0  0  0  # atno 17395 bound_to 11000

$$$$
