AV-unprocessed.smi:1643|AV-procd|sdf|6576|dock6
  -GOLD-   22720 7263D 1   1.00000     0.00000
 Structure written by MMmdl.
 53 55  0  0  0  0  0  0  0  0  1 V2000
  143.7069  140.2343  159.1288 C   0  0  0  0  0  0  0  0  0  0  0  0
  144.9113  141.1741  159.0341 C   0  0  0  0  0  0  0  0  0  0  0  0
  145.6584  141.2633  160.0087 O   0  0  0  0  0  0  0  0  0  0  0  0
  145.1122  141.8739  157.8917 N   0  0  0  0  0  0  0  0  0  0  0  0
  144.2474  141.7201  156.7164 C   0  0  0  0  0  0  0  0  0  0  0  0
  144.8066  140.6401  155.7757 C   0  0  0  0  0  0  0  0  0  0  0  0
  146.2636  140.8722  155.3223 C   0  0  0  0  0  0  0  0  0  0  0  0
  147.2505  140.7322  156.4024 N   0  0  0  0  0  0  0  0  0  0  0  0
  148.5255  140.1872  155.9298 C   0  0  0  0  0  0  0  0  0  0  0  0
  149.1509  140.9256  154.7282 C   0  0  2  0  0  0  0  0  0  0  0  0
  149.8165  139.9793  153.9143 O   0  0  0  0  0  0  0  0  0  0  0  0
  150.1645  141.9907  155.1864 C   0  0  0  0  0  0  0  0  0  0  0  0
  151.0956  141.4774  156.1748 N   0  0  0  0  0  0  0  0  0  0  0  0
  151.8522  140.3665  156.0853 C   0  0  0  0  0  0  0  0  0  0  0  0
  152.6442  140.0857  157.1165 N   0  0  0  0  0  0  0  0  0  0  0  0
  152.3656  141.1347  157.9766 C   0  0  0  0  0  0  0  0  0  0  0  0
  152.8759  141.4304  159.2596 C   0  0  0  0  0  0  0  0  0  0  0  0
  152.4389  142.5725  159.9680 C   0  0  0  0  0  0  0  0  0  0  0  0
  153.0102  142.8496  161.3476 C   0  0  0  0  0  0  0  0  0  0  0  0
  151.4787  143.4424  159.3913 C   0  0  0  0  0  0  0  0  0  0  0  0
  150.9914  144.6735  160.1348 C   0  0  0  0  0  0  0  0  0  0  0  0
  150.9611  143.1634  158.1092 C   0  0  0  0  0  0  0  0  0  0  0  0
  151.4010  142.0219  157.4165 C   0  0  0  0  0  0  0  0  0  0  0  0
  147.4898  142.0035  157.1023 C   0  0  0  0  0  0  0  0  0  0  0  0
  146.2583  142.7582  157.6522 C   0  0  0  0  0  0  0  0  0  0  0  0
  142.7768  140.7708  158.9425 H   0  0  0  0  0  0  0  0  0  0  0  0
  143.6413  139.7946  160.1245 H   0  0  0  0  0  0  0  0  0  0  0  0
  143.7957  139.4192  158.4106 H   0  0  0  0  0  0  0  0  0  0  0  0
  143.2281  141.4630  157.0088 H   0  0  0  0  0  0  0  0  0  0  0  0
  144.1526  142.6642  156.1789 H   0  0  0  0  0  0  0  0  0  0  0  0
  144.7337  139.6635  156.2567 H   0  0  0  0  0  0  0  0  0  0  0  0
  144.1679  140.5846  154.8940 H   0  0  0  0  0  0  0  0  0  0  0  0
  146.4610  140.1481  154.5341 H   0  0  0  0  0  0  0  0  0  0  0  0
  146.3647  141.8454  154.8396 H   0  0  0  0  0  0  0  0  0  0  0  0
  149.2334  140.1782  156.7601 H   0  0  0  0  0  0  0  0  0  0  0  0
  148.3964  139.1421  155.6436 H   0  0  0  0  0  0  0  0  0  0  0  0
  148.3867  141.4110  154.1225 H   0  0  0  0  0  0  0  0  0  0  0  0
  149.5027  140.0732  153.0280 H   0  0  0  0  0  0  0  0  0  0  0  0
  150.7419  142.3522  154.3345 H   0  0  0  0  0  0  0  0  0  0  0  0
  149.6498  142.8575  155.6041 H   0  0  0  0  0  0  0  0  0  0  0  0
  151.8233  139.7310  155.2120 H   0  0  0  0  0  0  0  0  0  0  0  0
  153.6080  140.7680  159.6980 H   0  0  0  0  0  0  0  0  0  0  0  0
  152.2140  142.8838  162.0914 H   0  0  0  0  0  0  0  0  0  0  0  0
  153.5365  143.8044  161.3579 H   0  0  0  0  0  0  0  0  0  0  0  0
  153.7159  142.0753  161.6493 H   0  0  0  0  0  0  0  0  0  0  0  0
  150.2885  145.2498  159.5319 H   0  0  0  0  0  0  0  0  0  0  0  0
  151.8278  145.3259  160.3872 H   0  0  0  0  0  0  0  0  0  0  0  0
  150.4848  144.3855  161.0563 H   0  0  0  0  0  0  0  0  0  0  0  0
  150.2295  143.8170  157.6573 H   0  0  0  0  0  0  0  0  0  0  0  0
  148.1531  141.8049  157.9448 H   0  0  0  0  0  0  0  0  0  0  0  0
  148.0454  142.6814  156.4525 H   0  0  0  0  0  0  0  0  0  0  0  0
  145.9814  143.5303  156.9338 H   0  0  0  0  0  0  0  0  0  0  0  0
  146.5286  143.3191  158.5473 H   0  0  0  0  0  0  0  0  0  0  0  0
  1  2  1  0  0  0  0
  1 26  1  0  0  0  0
  1 27  1  0  0  0  0
  1 28  1  0  0  0  0
  2  3  2  0  0  0  0
  2  4  1  0  0  0  0
  4 25  1  0  0  0  0
  4  5  1  0  0  0  0
  5  6  1  0  0  0  0
  5 29  1  0  0  0  0
  5 30  1  0  0  0  0
  6  7  1  0  0  0  0
  6 31  1  0  0  0  0
  6 32  1  0  0  0  0
  7  8  1  0  0  0  0
  7 33  1  0  0  0  0
  7 34  1  0  0  0  0
  8  9  1  0  0  0  0
  8 24  1  0  0  0  0
  9 10  1  0  0  0  0
  9 35  1  0  0  0  0
  9 36  1  0  0  0  0
 10 11  1  0  0  0  0
 10 12  1  0  0  0  0
 10 37  1  0  0  0  0
 11 38  1  0  0  0  0
 12 13  1  0  0  0  0
 12 39  1  0  0  0  0
 12 40  1  0  0  0  0
 13 23  1  0  0  0  0
 13 14  1  0  0  0  0
 14 15  2  0  0  0  0
 14 41  1  0  0  0  0
 15 16  1  0  0  0  0
 16 23  2  0  0  0  0
 16 17  1  0  0  0  0
 17 18  2  0  0  0  0
 17 42  1  0  0  0  0
 18 19  1  0  0  0  0
 18 20  1  0  0  0  0
 19 43  1  0  0  0  0
 19 44  1  0  0  0  0
 19 45  1  0  0  0  0
 20 21  1  0  0  0  0
 20 22  2  0  0  0  0
 21 46  1  0  0  0  0
 21 47  1  0  0  0  0
 21 48  1  0  0  0  0
 22 23  1  0  0  0  0
 22 49  1  0  0  0  0
 24 25  1  0  0  0  0
 24 50  1  0  0  0  0
 24 51  1  0  0  0  0
 25 52  1  0  0  0  0
 25 53  1  0  0  0  0
M  END
> <s_m_source_file>
AV-unprocessed.smi

> <i_m_source_file_index>
1643

> <i_lp_mmshare_version>
43012

> <i_f3d_flags>
0

> <s_epik_input>
W0NIM11DKD1PKU4xW0NIMl1bQ0gyXVtDSDJdTihbQ0gyXVtDSDJdMSlbQ0gyXVtDQEhdKFtPSF0pW0NIMl1uKFtjSF1uMiljKGMyMylbY0hdYyhbQ0gzXSljKFtjSF0zKVtDSDNd

> <s_epik_cmdline>
J2VwaWtfcHl0aG9uJywgJy1waCcsICc3LjAnLCAnLXRuJywgJzgnLCAnLW1hJywgJzIwMCcsICctbWV0YWxfYmluZGluZycsICctaW1hZScsICc8aW5maWxlLm1hZT4nLCAnLW9tYWUnLCAnPG91dGZpbGUubWFlPic=

> <r_epik_Ionization_Penalty>
1.17666

> <r_epik_Ionization_Penalty_Charging>
0

> <r_epik_Ionization_Penalty_Neutral>
1.17666

> <r_epik_State_Penalty>
1.20405

> <r_epik_Charging_Adjusted_Penalty>
1.20405

> <i_epik_Tot_Q>
0

> <i_epik_Tot_abs_Q>
0

> <r_epik_Metal_State_Penalty>
1.13307

> <b_epik_Metal_Only>
0

> <s_lp_Force_Field>
OPLS_2005

> <r_lp_Energy>
48.9616

> <b_lp_Chiralities_Consistent>
1

> <s_lp_Variant>
AV-unprocessed.smi:1643-5

> <Gold.Version>
5.8.1

> <Gold.Id.Protein>
6NUR|6NUR_protein|mol2

> <Gold.PLP.Fitness>
47.3341

> <Gold.PLP.PLP>
-39.0678

> <Gold.PLP.part.hbond>
-3.5996

> <Gold.PLP.part.metal>
0.0000

> <Gold.PLP.part.buried>
-4.5692

> <Gold.PLP.part.nonpolar>
-30.0990

> <Gold.PLP.part.repulsive>
0.0333

> <Gold.PLP.ligand.clash>
0.0000

> <Gold.PLP.ligand.torsion>
0.6522

> <Gold.PLP.Chemscore.Hbond>
3.1819

> <Gold.PLP.Chemscore.CHOScore>
0.0000

> <Gold.PLP.Chemscore.Metal>
0.0000

> <Gold.Chemscore.Hbonds>
donor molecule, donor type, donor heavy atom, donor atom, acceptor molecule, acceptor atom, score
      L1  H    11    38       P1  7957  1.00
      P1  H  6934  6946       L1     3  0.83
      P1  H  7989  7998       L1    11  0.48
      P1  H  7997  8010       L1    15  1.00

> <Gold.PLP.Chemscore.Internal.Correction>
0.0250

> <Gold.Rescore>
     Score         DG    S(hbond)    S(metal)    S(lipo)     H(rot)  DE(clash)    DE(int)     intcor
     18.93     -21.23       2.73        0.00     101.71       2.07       0.72       1.58       ----

> <Gold.Chemscore.Fitness>
18.9301

> <Gold.Chemscore.DG>
-21.2270

> <Gold.Chemscore.ZeroCoef>
-5.4800

> <Gold.Chemscore.Hbond>
2.7344

> <Gold.Chemscore.Metal>
0.0000

> <Gold.Chemscore.Lipo>
101.7148

> <Gold.Chemscore.Internal_Hbond>
0.0000

> <Gold.Chemscore.DEClash>
0.7152

> <Gold.Chemscore.DEInternal>
1.5817

> <Gold.Chemscore.Rot>
2.0650

> <Gold.Chemscore.Internal.Correction>
   9.000000E+99

> <Gold.Chemscore.Hbonds>
donor molecule, donor type, donor heavy atom, donor atom, acceptor molecule, acceptor atom, score
      L1  H    11    38       P1  7957  0.98
      P1  H  6934  6946       L1     3  0.77
      P1  H  7989  7998       L1    11  0.01
      P1  H  7997  8010       L1    15  0.58

> <Gold.Chemscore.Hbond.Weighted>
-9.1328

> <Gold.Chemscore.Metal.Weighted>
-0.0000

> <Gold.Chemscore.Lipo.Weighted>
-11.9006

> <Gold.Chemscore.Internal_Hbond.Weighted>
0.0000

> <Gold.Chemscore.DEClash.Weighted>
0.7152

> <Gold.Chemscore.DEInternal.Weighted>
1.5817

> <Gold.Chemscore.Rot.Weighted>
5.2865

> <Gold.Chemscore.Internal.Correction.Weighted>
   9.000000E+99

> <Gold.Protein.RotatedTorsions>
[ 6907 6896 6895 6894 ] final   98.69 input  -60.11 | X-H torsion
[ 7974 7965 7964 7962 ] final   92.31 input  175.53 | X-H torsion
[ 8008 7997 7996 7995 ] final   62.28 input   59.86 | X-H torsion
[ 10167 10162 10161 10158 ] final  135.30 input  -65.29 | X-H torsion
[ 10718 10713 10712 10709 ] final   -6.29 input   66.30 | X-H torsion
[ 10763 10752 10751 10750 ] final   95.04 input  -60.55 | X-H torsion
[ 11005 11000 10999 10996 ] final -140.28 input  -57.11 | X-H torsion

> <Gold.Protein.ActiveResidues>
 VAL166  LYS551  ARG553  GLY616  TRP617  ASP618  TYR619  PRO620  LYS621  CYS622 
 ASP623  PHE694  ASN695  SER759  ASP760  ASP761  ALA762  ILE779  LEU786  VAL792 
 PHE793  MET794  SER795  GLU796  ALA797  LYS798  CYS799  TRP800  GLU811  SER814 

> <Gold.Protein.RotatedAtoms>
  152.5405  134.0543  159.8123 H   0  0  0  0  0  0  0  0  0  0  0  0  # atno 6907 bound_to 6896
  151.0680  133.5482  159.2636 H   0  0  0  0  0  0  0  0  0  0  0  0  # atno 6908 bound_to 6896
  151.2356  135.0578  159.9058 H   0  0  0  0  0  0  0  0  0  0  0  0  # atno 6909 bound_to 6896
  145.4940  139.2276  143.2814 H   0  0  0  0  0  0  0  0  0  0  0  0  # atno 7974 bound_to 7965
  155.6118  140.3495  155.4625 H   0  0  0  0  0  0  0  0  0  0  0  0  # atno 8008 bound_to 7997
  156.0148  140.1241  157.0441 H   0  0  0  0  0  0  0  0  0  0  0  0  # atno 8009 bound_to 7997
  154.4293  140.1074  156.5867 H   0  0  0  0  0  0  0  0  0  0  0  0  # atno 8010 bound_to 7997
  139.5222  144.6524  151.5263 H   0  0  0  0  0  0  0  0  0  0  0  0  # atno 10167 bound_to 10162
  156.7340  130.5189  149.5839 H   0  0  0  0  0  0  0  0  0  0  0  0  # atno 10718 bound_to 10713
  153.2485  135.4268  155.0773 H   0  0  0  0  0  0  0  0  0  0  0  0  # atno 10763 bound_to 10752
  154.8372  135.3420  154.6546 H   0  0  0  0  0  0  0  0  0  0  0  0  # atno 10764 bound_to 10752
  153.6968  135.7030  153.5131 H   0  0  0  0  0  0  0  0  0  0  0  0  # atno 10765 bound_to 10752
  140.8438  134.2369  157.4796 H   0  0  0  0  0  0  0  0  0  0  0  0  # atno 11005 bound_to 11000
  146.2267  140.5736  142.8993 LP  0  0  0  0  0  0  0  0  0  0  0  0  # atno 17320 bound_to 7965
  144.7817  140.5855  143.6601 LP  0  0  0  0  0  0  0  0  0  0  0  0  # atno 17321 bound_to 7965
  140.6334  143.9031  150.6626 LP  0  0  0  0  0  0  0  0  0  0  0  0  # atno 17342 bound_to 10162
  140.2342  143.3712  152.1540 LP  0  0  0  0  0  0  0  0  0  0  0  0  # atno 17343 bound_to 10162
  156.1509  130.6309  151.0594 LP  0  0  0  0  0  0  0  0  0  0  0  0  # atno 17370 bound_to 10713
  157.6847  131.0828  150.7276 LP  0  0  0  0  0  0  0  0  0  0  0  0  # atno 17371 bound_to 10713
  139.8703  134.9649  156.4510 LP  0  0  0  0  0  0  0  0  0  0  0  0  # atno 17394 bound_to 11000
  140.8866  133.7879  155.9525 LP  0  0  0  0  0  0  0  0  0  0  0  0  # atno 17395 bound_to 11000

$$$$
