AV-unprocessed.smi:1447|AV-procd|sdf|5891|dock6
  -GOLD-   22720 5573D 1   1.00000     0.00000
 Structure written by MMmdl.
 48 50  0  0  0  0  0  0  0  0  2 V2000
  151.6864  143.4706  158.4881 C   0  0  0  0  0  0  0  0  0  0  0  0
  151.1662  142.2041  158.8508 O   0  0  0  0  0  0  0  0  0  0  0  0
  151.3884  141.2179  157.8564 C   0  0  0  0  0  0  0  0  0  0  0  0
  150.7890  141.6798  156.5179 C   0  0  0  0  0  0  0  0  0  0  0  0
  150.4996  140.5486  155.6292 N   0  0  0  0  0  0  0  0  0  0  0  0
  149.1497  140.3613  155.3817 N   0  0  0  0  0  0  0  0  0  0  0  0
  148.7570  139.4039  154.6050 C   0  0  0  0  0  0  0  0  0  0  0  0
  147.3150  139.1703  154.3157 C   0  0  0  0  0  0  0  0  0  0  0  0
  146.5694  140.0781  153.9441 O   0  0  0  0  0  0  0  0  0  0  0  0
  146.8912  137.9046  154.4860 N   0  0  0  0  0  0  0  0  0  0  0  0
  145.5263  137.4359  154.2702 C   0  0  2  0  0  0  0  0  0  0  0  0
  145.2204  137.3996  152.7638 C   0  0  0  0  0  0  0  0  0  0  0  0
  143.7589  136.9979  152.5023 C   0  0  0  0  0  0  0  0  0  0  0  0
  142.8211  137.9071  153.2066 N   0  3  1  0  0  0  0  0  0  0  0  0
  141.4091  137.6106  152.8805 C   0  0  0  0  0  0  0  0  0  0  0  0
  140.7208  136.7376  153.9038 C   0  0  0  0  0  0  0  0  0  0  0  0
  141.1467  136.1543  152.5748 C   0  0  0  0  0  0  0  0  0  0  0  0
  143.0667  137.9238  154.6699 C   0  0  0  0  0  0  0  0  0  0  0  0
  144.5107  138.3496  154.9824 C   0  0  0  0  0  0  0  0  0  0  0  0
  149.7177  138.5112  153.9800 C   0  0  0  0  0  0  0  0  0  0  0  0
  151.0310  138.7062  154.2300 C   0  0  0  0  0  0  0  0  0  0  0  0
  151.5026  139.7813  155.1044 C   0  0  0  0  0  0  0  0  0  0  0  0
  152.6934  139.9768  155.3450 O   0  0  0  0  0  0  0  0  0  0  0  0
  151.4838  144.1903  159.2810 H   0  0  0  0  0  0  0  0  0  0  0  0
  151.2236  143.8403  157.5722 H   0  0  0  0  0  0  0  0  0  0  0  0
  152.7664  143.4252  158.3422 H   0  0  0  0  0  0  0  0  0  0  0  0
  152.4620  141.0637  157.7370 H   0  0  0  0  0  0  0  0  0  0  0  0
  150.9562  140.2624  158.1594 H   0  0  0  0  0  0  0  0  0  0  0  0
  149.9026  142.2920  156.6913 H   0  0  0  0  0  0  0  0  0  0  0  0
  151.5001  142.3437  156.0230 H   0  0  0  0  0  0  0  0  0  0  0  0
  147.5681  137.2207  154.7935 H   0  0  0  0  0  0  0  0  0  0  0  0
  145.4330  136.4218  154.6637 H   0  0  0  0  0  0  0  0  0  0  0  0
  145.4102  138.3790  152.3215 H   0  0  0  0  0  0  0  0  0  0  0  0
  145.8897  136.6989  152.2631 H   0  0  0  0  0  0  0  0  0  0  0  0
  143.5602  137.0270  151.4304 H   0  0  0  0  0  0  0  0  0  0  0  0
  143.5865  135.9709  152.8283 H   0  0  0  0  0  0  0  0  0  0  0  0
  140.8578  138.3923  152.3604 H   0  0  0  0  0  0  0  0  0  0  0  0
  141.2819  136.4353  154.7864 H   0  0  0  0  0  0  0  0  0  0  0  0
  139.6555  136.8940  154.0617 H   0  0  0  0  0  0  0  0  0  0  0  0
  140.3619  135.9261  151.8565 H   0  0  0  0  0  0  0  0  0  0  0  0
  141.9891  135.4649  152.5775 H   0  0  0  0  0  0  0  0  0  0  0  0
  142.3724  138.6143  155.1503 H   0  0  0  0  0  0  0  0  0  0  0  0
  142.8680  136.9347  155.0859 H   0  0  0  0  0  0  0  0  0  0  0  0
  144.6714  138.3268  156.0610 H   0  0  0  0  0  0  0  0  0  0  0  0
  144.6588  139.3846  154.6706 H   0  0  0  0  0  0  0  0  0  0  0  0
  149.3985  137.7086  153.3310 H   0  0  0  0  0  0  0  0  0  0  0  0
  151.7562  138.0499  153.7719 H   0  0  0  0  0  0  0  0  0  0  0  0
  143.0070  138.8404  152.8681 H   0  0  0  0  0  0  0  0  0  0  0  0
  1  2  1  0  0  0  0
  1 24  1  0  0  0  0
  1 25  1  0  0  0  0
  1 26  1  0  0  0  0
  2  3  1  0  0  0  0
  3  4  1  0  0  0  0
  3 27  1  0  0  0  0
  3 28  1  0  0  0  0
  4  5  1  0  0  0  0
  4 29  1  0  0  0  0
  4 30  1  0  0  0  0
  5 22  1  0  0  0  0
  5  6  1  0  0  0  0
  6  7  2  0  0  0  0
  7  8  1  0  0  0  0
  7 20  1  0  0  0  0
  8  9  2  0  0  0  0
  8 10  1  0  0  0  0
 10 11  1  0  0  0  0
 10 31  1  0  0  0  0
 11 19  1  0  0  0  0
 11 12  1  0  0  0  0
 11 32  1  0  0  0  0
 12 13  1  0  0  0  0
 12 33  1  0  0  0  0
 12 34  1  0  0  0  0
 13 14  1  0  0  0  0
 13 35  1  0  0  0  0
 13 36  1  0  0  0  0
 14 15  1  0  0  0  0
 14 18  1  0  0  0  0
 14 48  1  0  0  0  0
 15 17  1  0  0  0  0
 15 16  1  0  0  0  0
 15 37  1  0  0  0  0
 16 17  1  0  0  0  0
 16 38  1  0  0  0  0
 16 39  1  0  0  0  0
 17 40  1  0  0  0  0
 17 41  1  0  0  0  0
 18 19  1  0  0  0  0
 18 42  1  0  0  0  0
 18 43  1  0  0  0  0
 19 44  1  0  0  0  0
 19 45  1  0  0  0  0
 20 21  2  0  0  0  0
 20 46  1  0  0  0  0
 21 22  1  0  0  0  0
 21 47  1  0  0  0  0
 22 23  2  0  0  0  0
M  CHG  1  14   1
M  END
> <s_m_source_file>
AV-unprocessed.smi

> <i_m_source_file_index>
1447

> <i_lp_mmshare_version>
43012

> <i_f3d_flags>
0

> <s_epik_input>
W0NIM11PW0NIMl1bQ0gyXW4xbmMoW2NIXVtjSF1jMT1PKUMoPU8pW05IXVtDSF0yW0NIMl1bQ0gyXU4oW0NIMl1bQ0gyXTIpW0NIXTNbQ0gyXVtDSDJdMw==

> <s_epik_cmdline>
J2VwaWtfcHl0aG9uJywgJy1waCcsICc3LjAnLCAnLXRuJywgJzgnLCAnLW1hJywgJzIwMCcsICctbWV0YWxfYmluZGluZycsICctaW1hZScsICc8aW5maWxlLm1hZT4nLCAnLW9tYWUnLCAnPG91dGZpbGUubWFlPic=

> <r_lp_tautomer_probability>
1

> <r_epik_Ionization_Penalty>
0.168623

> <r_epik_Ionization_Penalty_Charging>
0.16862

> <r_epik_Ionization_Penalty_Neutral>
2.93027e-06

> <r_epik_State_Penalty>
0.157986

> <r_epik_Charging_Adjusted_Penalty>
0.326605

> <i_epik_Tot_Q>
1

> <i_epik_Tot_abs_Q>
1

> <r_epik_Metal_State_Penalty>
0.157986

> <b_epik_Metal_Only>
0

> <s_lp_Force_Field>
OPLS_2005

> <r_lp_Energy>
46.6346

> <b_lp_Chiralities_Consistent>
1

> <s_lp_Variant>
AV-unprocessed.smi:1447-1

> <Gold.Version>
5.8.1

> <Gold.Id.Protein>
6NUR|6NUR_protein|mol2

> <Gold.PLP.Fitness>
39.7001

> <Gold.PLP.PLP>
-34.0667

> <Gold.PLP.part.hbond>
-2.6911

> <Gold.PLP.part.metal>
0.0000

> <Gold.PLP.part.buried>
-4.5159

> <Gold.PLP.part.nonpolar>
-27.1518

> <Gold.PLP.part.repulsive>
0.2936

> <Gold.PLP.ligand.clash>
0.5788

> <Gold.PLP.ligand.torsion>
2.0471

> <Gold.PLP.Chemscore.Hbond>
3.0000

> <Gold.PLP.Chemscore.CHOScore>
0.0000

> <Gold.PLP.Chemscore.Metal>
0.0000

> <Gold.Chemscore.Hbonds>
donor molecule, donor type, donor heavy atom, donor atom, acceptor molecule, acceptor atom, score
      L1  H    14    48       P1 10175  2.00
      P1  H  7997  8008       L1    23  1.00

> <Gold.PLP.Chemscore.Internal.Correction>
1.3064

> <Gold.Rescore>
     Score         DG    S(hbond)    S(metal)    S(lipo)     H(rot)  DE(clash)    DE(int)     intcor
     11.74     -15.90       2.00        0.00      70.58       1.76       0.01       4.15       ----

> <Gold.Chemscore.Fitness>
11.7391

> <Gold.Chemscore.DG>
-15.9031

> <Gold.Chemscore.ZeroCoef>
-5.4800

> <Gold.Chemscore.Hbond>
1.9978

> <Gold.Chemscore.Metal>
0.0000

> <Gold.Chemscore.Lipo>
70.5819

> <Gold.Chemscore.Internal_Hbond>
0.0000

> <Gold.Chemscore.DEClash>
0.0098

> <Gold.Chemscore.DEInternal>
4.1542

> <Gold.Chemscore.Rot>
1.7608

> <Gold.Chemscore.Internal.Correction>
   9.000000E+99

> <Gold.Chemscore.Hbonds>
donor molecule, donor type, donor heavy atom, donor atom, acceptor molecule, acceptor atom, score
      L1  H    14    48       P1 10175  1.00
      P1  H  7997  8008       L1    23  1.00

> <Gold.Chemscore.Hbond.Weighted>
-6.6727

> <Gold.Chemscore.Metal.Weighted>
-0.0000

> <Gold.Chemscore.Lipo.Weighted>
-8.2581

> <Gold.Chemscore.Internal_Hbond.Weighted>
0.0000

> <Gold.Chemscore.DEClash.Weighted>
0.0098

> <Gold.Chemscore.DEInternal.Weighted>
4.1542

> <Gold.Chemscore.Rot.Weighted>
4.5077

> <Gold.Chemscore.Internal.Correction.Weighted>
   9.000000E+99

> <Gold.Protein.RotatedTorsions>
[ 6907 6896 6895 6894 ] final  -34.18 input  -60.11 | X-H torsion
[ 7974 7965 7964 7962 ] final  149.14 input  175.53 | X-H torsion
[ 8008 7997 7996 7995 ] final  -15.85 input   59.86 | X-H torsion
[ 10167 10162 10161 10158 ] final   96.92 input  -65.29 | X-H torsion
[ 10718 10713 10712 10709 ] final  -10.19 input   66.30 | X-H torsion
[ 10763 10752 10751 10750 ] final  -91.70 input  -60.55 | X-H torsion
[ 11005 11000 10999 10996 ] final  -42.11 input  -57.11 | X-H torsion

> <Gold.Protein.ActiveResidues>
 VAL166  LYS551  ARG553  GLY616  TRP617  ASP618  TYR619  PRO620  LYS621  CYS622 
 ASP623  PHE694  ASN695  SER759  ASP760  ASP761  ALA762  ILE779  LEU786  VAL792 
 PHE793  MET794  SER795  GLU796  ALA797  LYS798  CYS799  TRP800  GLU811  SER814 

> <Gold.Protein.RotatedAtoms>
  151.0559  134.9704  159.8235 H   0  0  0  0  0  0  0  0  0  0  0  0  # atno 6907 bound_to 6896
  152.5388  134.2479  159.8897 H   0  0  0  0  0  0  0  0  0  0  0  0  # atno 6908 bound_to 6896
  151.2496  133.4314  159.2644 H   0  0  0  0  0  0  0  0  0  0  0  0  # atno 6909 bound_to 6896
  144.8460  139.6243  143.5995 H   0  0  0  0  0  0  0  0  0  0  0  0  # atno 7974 bound_to 7965
  154.5098  140.2185  155.9179 H   0  0  0  0  0  0  0  0  0  0  0  0  # atno 8008 bound_to 7997
  156.1538  140.3156  155.8659 H   0  0  0  0  0  0  0  0  0  0  0  0  # atno 8009 bound_to 7997
  155.3886  140.0477  157.3032 H   0  0  0  0  0  0  0  0  0  0  0  0  # atno 8010 bound_to 7997
  139.7849  144.6874  150.9972 H   0  0  0  0  0  0  0  0  0  0  0  0  # atno 10167 bound_to 10162
  156.6770  130.5026  149.5983 H   0  0  0  0  0  0  0  0  0  0  0  0  # atno 10718 bound_to 10713
  154.6787  135.5258  153.8233 H   0  0  0  0  0  0  0  0  0  0  0  0  # atno 10763 bound_to 10752
  153.0549  135.6547  154.0610 H   0  0  0  0  0  0  0  0  0  0  0  0  # atno 10764 bound_to 10752
  154.0500  135.2970  155.3321 H   0  0  0  0  0  0  0  0  0  0  0  0  # atno 10765 bound_to 10752
  141.0293  133.6827  156.2550 H   0  0  0  0  0  0  0  0  0  0  0  0  # atno 11005 bound_to 11000
  146.2745  139.6717  142.9273 LP  0  0  0  0  0  0  0  0  0  0  0  0  # atno 17320 bound_to 7965
  145.4596  141.0432  143.2759 LP  0  0  0  0  0  0  0  0  0  0  0  0  # atno 17321 bound_to 7965
  140.7819  143.4443  151.0505 LP  0  0  0  0  0  0  0  0  0  0  0  0  # atno 17342 bound_to 10162
  139.8122  143.7935  152.3172 LP  0  0  0  0  0  0  0  0  0  0  0  0  # atno 17343 bound_to 10162
  156.1896  130.6551  151.1046 LP  0  0  0  0  0  0  0  0  0  0  0  0  # atno 17370 bound_to 10713
  157.7057  131.0757  150.6674 LP  0  0  0  0  0  0  0  0  0  0  0  0  # atno 17371 bound_to 10713
  140.6435  134.5141  157.5571 LP  0  0  0  0  0  0  0  0  0  0  0  0  # atno 17394 bound_to 11000
  139.9197  134.8174  156.1251 LP  0  0  0  0  0  0  0  0  0  0  0  0  # atno 17395 bound_to 11000

$$$$
