AV-unprocessed.smi:3345|AV-procd|sdf|12903|dock4
  -GOLD-   2272019313D 1   1.00000     0.00000
 Structure written by MMmdl.
 41 42  0  0  0  0  0  0  0  0  2 V2000
  152.2419  140.0925  155.4179 C   0  0  0  0  0  0  0  0  0  0  0  0
  151.3070  140.7236  156.4580 C   0  0  2  0  0  0  0  0  0  0  0  0
  150.2283  141.6095  155.7939 C   0  0  0  0  0  0  0  0  0  0  0  0
  149.1122  140.8292  155.1985 N   0  3  0  0  0  0  0  0  0  0  0  0
  147.9984  141.6844  154.7253 C   0  0  0  0  0  0  0  0  0  0  0  0
  146.8468  140.8170  154.1884 C   0  0  0  0  0  0  0  0  0  0  0  0
  147.3265  139.9578  153.1612 O   0  0  0  0  0  0  0  0  0  0  0  0
  148.3406  139.0775  153.6306 C   0  0  0  0  0  0  0  0  0  0  0  0
  149.5411  139.8999  154.1258 C   0  0  0  0  0  0  0  0  0  0  0  0
  152.0951  141.5034  157.4118 N   0  0  0  0  0  0  0  0  0  0  0  0
  152.3165  141.1851  158.6980 C   0  0  0  0  0  0  0  0  0  0  0  0
  151.9430  140.1284  159.2072 O   0  0  0  0  0  0  0  0  0  0  0  0
  153.0260  142.2527  159.5427 C   0  0  2  0  0  0  0  0  0  0  0  0
  153.4476  141.7330  160.9319 C   0  0  0  0  0  0  0  0  0  0  0  0
  152.1860  143.4412  159.6300 N   0  0  0  0  0  0  0  0  0  0  0  0
  152.3456  144.6468  159.0797 C   0  0  0  0  0  0  0  0  0  0  0  0
  151.3459  145.4840  159.3175 N   0  0  0  0  0  0  0  0  0  0  0  0
  150.5472  144.6770  160.0766 C   0  0  0  0  0  0  0  0  0  0  0  0
  150.9911  143.4360  160.2727 N   0  0  0  0  0  0  0  0  0  0  0  0
  151.6814  139.4884  154.7039 H   0  0  0  0  0  0  0  0  0  0  0  0
  152.9756  139.4410  155.8942 H   0  0  0  0  0  0  0  0  0  0  0  0
  152.7863  140.8524  154.8560 H   0  0  0  0  0  0  0  0  0  0  0  0
  150.8101  139.9005  156.9732 H   0  0  0  0  0  0  0  0  0  0  0  0
  149.8171  142.2694  156.5596 H   0  0  0  0  0  0  0  0  0  0  0  0
  150.6724  142.2596  155.0387 H   0  0  0  0  0  0  0  0  0  0  0  0
  147.6345  142.3073  155.5430 H   0  0  0  0  0  0  0  0  0  0  0  0
  148.3587  142.3553  153.9438 H   0  0  0  0  0  0  0  0  0  0  0  0
  146.3985  140.2280  154.9888 H   0  0  0  0  0  0  0  0  0  0  0  0
  146.0585  141.4496  153.7804 H   0  0  0  0  0  0  0  0  0  0  0  0
  147.9502  138.4401  154.4258 H   0  0  0  0  0  0  0  0  0  0  0  0
  148.6446  138.4212  152.8153 H   0  0  0  0  0  0  0  0  0  0  0  0
  149.9742  140.4658  153.2996 H   0  0  0  0  0  0  0  0  0  0  0  0
  150.3154  139.2255  154.4894 H   0  0  0  0  0  0  0  0  0  0  0  0
  152.4566  142.3862  157.0802 H   0  0  0  0  0  0  0  0  0  0  0  0
  153.9366  142.5386  159.0132 H   0  0  0  0  0  0  0  0  0  0  0  0
  154.1024  140.8653  160.8448 H   0  0  0  0  0  0  0  0  0  0  0  0
  152.5903  141.4396  161.5392 H   0  0  0  0  0  0  0  0  0  0  0  0
  153.9940  142.4992  161.4826 H   0  0  0  0  0  0  0  0  0  0  0  0
  153.2064  144.9145  158.4847 H   0  0  0  0  0  0  0  0  0  0  0  0
  149.6002  145.0068  160.4778 H   0  0  0  0  0  0  0  0  0  0  0  0
  148.7338  140.2605  155.9427 H   0  0  0  0  0  0  0  0  0  0  0  0
  1  2  1  0  0  0  0
  1 20  1  0  0  0  0
  1 21  1  0  0  0  0
  1 22  1  0  0  0  0
  2  3  1  0  0  0  0
  2 10  1  0  0  0  0
  2 23  1  0  0  0  0
  3  4  1  0  0  0  0
  3 24  1  0  0  0  0
  3 25  1  0  0  0  0
  4  9  1  0  0  0  0
  4  5  1  0  0  0  0
  4 41  1  0  0  0  0
  5  6  1  0  0  0  0
  5 26  1  0  0  0  0
  5 27  1  0  0  0  0
  6  7  1  0  0  0  0
  6 28  1  0  0  0  0
  6 29  1  0  0  0  0
  7  8  1  0  0  0  0
  8  9  1  0  0  0  0
  8 30  1  0  0  0  0
  8 31  1  0  0  0  0
  9 32  1  0  0  0  0
  9 33  1  0  0  0  0
 10 11  1  0  0  0  0
 10 34  1  0  0  0  0
 11 12  2  0  0  0  0
 11 13  1  0  0  0  0
 13 14  1  0  0  0  0
 13 15  1  0  0  0  0
 13 35  1  0  0  0  0
 14 36  1  0  0  0  0
 14 37  1  0  0  0  0
 14 38  1  0  0  0  0
 15 19  1  0  0  0  0
 15 16  1  0  0  0  0
 16 17  2  0  0  0  0
 16 39  1  0  0  0  0
 17 18  1  0  0  0  0
 18 19  2  0  0  0  0
 18 40  1  0  0  0  0
M  CHG  1   4   1
M  END
> <s_m_source_file>
AV-unprocessed.smi

> <i_m_source_file_index>
3345

> <i_lp_mmshare_version>
43012

> <i_f3d_flags>
0

> <s_epik_input>
W0NIMl0xW0NIMl1PW0NIMl1bQ0gyXU4xW0NIMl1bQ0BASF0oW0NIM10pW05IXUMoPU8pW0NASF0oW0NIM10pbjJbY0hdbltjSF1uMg==

> <s_epik_cmdline>
J2VwaWtfcHl0aG9uJywgJy1waCcsICc3LjAnLCAnLXRuJywgJzgnLCAnLW1hJywgJzIwMCcsICctbWV0YWxfYmluZGluZycsICctaW1hZScsICc8aW5maWxlLm1hZT4nLCAnLW9tYWUnLCAnPG91dGZpbGUubWFlPic=

> <r_lp_tautomer_probability>
1

> <r_epik_Ionization_Penalty>
0.71326

> <r_epik_Ionization_Penalty_Charging>
0.713252

> <r_epik_Ionization_Penalty_Neutral>
8.27671e-06

> <r_epik_State_Penalty>
0.737017

> <r_epik_Charging_Adjusted_Penalty>
1.45027

> <i_epik_Tot_Q>
1

> <i_epik_Tot_abs_Q>
1

> <r_epik_Metal_State_Penalty>
0.73702

> <b_epik_Metal_Only>
0

> <s_lp_Force_Field>
OPLS_2005

> <r_lp_Energy>
25.9312

> <b_lp_Chiralities_Consistent>
1

> <s_lp_Variant>
AV-unprocessed.smi:3345-5

> <Gold.Version>
5.8.1

> <Gold.Id.Protein>
6NUR|6NUR_protein|mol2

> <Gold.PLP.Fitness>
38.4653

> <Gold.PLP.PLP>
-39.2474

> <Gold.PLP.part.hbond>
-1.3260

> <Gold.PLP.part.metal>
0.0000

> <Gold.PLP.part.buried>
-1.6999

> <Gold.PLP.part.nonpolar>
-36.0310

> <Gold.PLP.part.repulsive>
0.6153

> <Gold.PLP.ligand.clash>
0.0000

> <Gold.PLP.ligand.torsion>
0.4658

> <Gold.PLP.Chemscore.Hbond>
0.0000

> <Gold.PLP.Chemscore.CHOScore>
0.0000

> <Gold.PLP.Chemscore.Metal>
0.0000

> <Gold.PLP.Chemscore.Internal.Correction>
0.1495

> <Gold.Rescore>
     Score         DG    S(hbond)    S(metal)    S(lipo)     H(rot)  DE(clash)    DE(int)     intcor
      5.74      -6.46       0.00        0.00      65.53       2.61       0.10       0.62       ----

> <Gold.Chemscore.Fitness>
5.7407

> <Gold.Chemscore.DG>
-6.4563

> <Gold.Chemscore.ZeroCoef>
-5.4800

> <Gold.Chemscore.Hbond>
0.0000

> <Gold.Chemscore.Metal>
0.0000

> <Gold.Chemscore.Lipo>
65.5341

> <Gold.Chemscore.Internal_Hbond>
0.0000

> <Gold.Chemscore.DEClash>
0.0978

> <Gold.Chemscore.DEInternal>
0.6178

> <Gold.Chemscore.Rot>
2.6138

> <Gold.Chemscore.Internal.Correction>
   9.000000E+99

> <Gold.Chemscore.Hbond.Weighted>
-0.0000

> <Gold.Chemscore.Metal.Weighted>
-0.0000

> <Gold.Chemscore.Lipo.Weighted>
-7.6675

> <Gold.Chemscore.Internal_Hbond.Weighted>
0.0000

> <Gold.Chemscore.DEClash.Weighted>
0.0978

> <Gold.Chemscore.DEInternal.Weighted>
0.6178

> <Gold.Chemscore.Rot.Weighted>
6.6912

> <Gold.Chemscore.Internal.Correction.Weighted>
   9.000000E+99

> <Gold.Protein.RotatedTorsions>
[ 6907 6896 6895 6894 ] final   52.11 input  -60.11 | X-H torsion
[ 7974 7965 7964 7962 ] final   77.83 input  175.53 | X-H torsion
[ 8008 7997 7996 7995 ] final   99.95 input   59.86 | X-H torsion
[ 10167 10162 10161 10158 ] final  -35.81 input  -65.29 | X-H torsion
[ 10718 10713 10712 10709 ] final   93.15 input   66.30 | X-H torsion
[ 10763 10752 10751 10750 ] final  -56.77 input  -60.55 | X-H torsion
[ 11005 11000 10999 10996 ] final -128.29 input  -57.11 | X-H torsion

> <Gold.Protein.ActiveResidues>
 VAL166  LYS551  ARG553  GLY616  TRP617  ASP618  TYR619  PRO620  LYS621  CYS622 
 ASP623  PHE694  ASN695  SER759  ASP760  ASP761  ALA762  ILE779  LEU786  VAL792 
 PHE793  MET794  SER795  GLU796  ALA797  LYS798  CYS799  TRP800  GLU811  SER814 

> <Gold.Protein.RotatedAtoms>
  152.3198  134.7395  160.0316 H   0  0  0  0  0  0  0  0  0  0  0  0  # atno 6907 bound_to 6896
  151.7847  133.3348  159.3490 H   0  0  0  0  0  0  0  0  0  0  0  0  # atno 6908 bound_to 6896
  150.7364  134.5829  159.5992 H   0  0  0  0  0  0  0  0  0  0  0  0  # atno 6909 bound_to 6896
  145.6849  139.2535  143.1793 H   0  0  0  0  0  0  0  0  0  0  0  0  # atno 7974 bound_to 7965
  156.1155  140.3221  155.8133 H   0  0  0  0  0  0  0  0  0  0  0  0  # atno 8008 bound_to 7997
  155.4597  140.0538  157.3009 H   0  0  0  0  0  0  0  0  0  0  0  0  # atno 8009 bound_to 7997
  154.4790  140.2045  155.9823 H   0  0  0  0  0  0  0  0  0  0  0  0  # atno 8010 bound_to 7997
  140.7157  143.3452  151.2272 H   0  0  0  0  0  0  0  0  0  0  0  0  # atno 10167 bound_to 10162
  157.6956  131.0468  150.3991 H   0  0  0  0  0  0  0  0  0  0  0  0  # atno 10718 bound_to 10713
  154.2120  135.6393  153.5118 H   0  0  0  0  0  0  0  0  0  0  0  0  # atno 10763 bound_to 10752
  152.9988  135.5476  154.6205 H   0  0  0  0  0  0  0  0  0  0  0  0  # atno 10764 bound_to 10752
  154.5644  135.2911  155.0861 H   0  0  0  0  0  0  0  0  0  0  0  0  # atno 10765 bound_to 10752
  140.9528  134.1042  157.4045 H   0  0  0  0  0  0  0  0  0  0  0  0  # atno 11005 bound_to 11000
  146.0932  140.7631  142.9585 LP  0  0  0  0  0  0  0  0  0  0  0  0  # atno 17320 bound_to 7965
  144.7014  140.3670  143.7153 LP  0  0  0  0  0  0  0  0  0  0  0  0  # atno 17321 bound_to 7965
  139.6969  143.9597  152.2887 LP  0  0  0  0  0  0  0  0  0  0  0  0  # atno 17342 bound_to 10162
  139.9278  144.6760  150.8395 LP  0  0  0  0  0  0  0  0  0  0  0  0  # atno 17343 bound_to 10162
  156.4386  130.3987  149.6712 LP  0  0  0  0  0  0  0  0  0  0  0  0  # atno 17370 bound_to 10713
  156.3904  130.7624  151.2624 LP  0  0  0  0  0  0  0  0  0  0  0  0  # atno 17371 bound_to 10713
  139.8853  135.0071  156.6424 LP  0  0  0  0  0  0  0  0  0  0  0  0  # atno 17394 bound_to 11000
  140.7578  133.8843  155.8395 LP  0  0  0  0  0  0  0  0  0  0  0  0  # atno 17395 bound_to 11000

$$$$
