AV-unprocessed.smi:1669|AV-procd|sdf|6688|dock5
  -GOLD-   22720 7413D 1   1.00000     0.00000
 Structure written by MMmdl.
 47 49  0  0  0  0  0  0  0  0  1 V2000
  150.7328  132.4279  156.3298 C   0  0  0  0  0  0  0  0  0  0  0  0
  150.3252  133.7932  156.0098 N   0  0  0  0  0  0  0  0  0  0  0  0
  150.1389  133.9524  154.5630 C   0  0  0  0  0  0  0  0  0  0  0  0
  148.7737  133.5112  154.0631 C   0  0  0  0  0  0  0  0  0  0  0  0
  147.6180  134.2393  154.4174 C   0  0  0  0  0  0  0  0  0  0  0  0
  146.3532  133.8301  153.9515 C   0  0  0  0  0  0  0  0  0  0  0  0
  146.2398  132.6929  153.1285 C   0  0  0  0  0  0  0  0  0  0  0  0
  147.3914  131.9658  152.7704 C   0  0  0  0  0  0  0  0  0  0  0  0
  148.6565  132.3748  153.2353 C   0  0  0  0  0  0  0  0  0  0  0  0
  151.3085  134.7406  156.5380 C   0  0  0  0  0  0  0  0  0  0  0  0
  150.8371  136.2106  156.6192 C   0  0  1  0  0  0  0  0  0  0  0  0
  149.9461  136.3269  157.7085 O   0  0  0  0  0  0  0  0  0  0  0  0
  151.9858  137.2136  156.8470 C   0  0  0  0  0  0  0  0  0  0  0  0
  151.6289  138.5775  156.4766 N   0  0  0  0  0  0  0  0  0  0  0  0
  151.1326  139.0223  155.2937 C   0  0  0  0  0  0  0  0  0  0  0  0
  150.8689  138.0860  154.1475 C   0  0  0  0  0  0  0  0  0  0  0  0
  151.9764  137.2798  153.7990 O   0  0  0  0  0  0  0  0  0  0  0  0
  150.9077  140.3366  155.2219 N   0  0  0  0  0  0  0  0  0  0  0  0
  151.2813  140.7819  156.4738 C   0  0  0  0  0  0  0  0  0  0  0  0
  151.2789  142.0838  157.0236 C   0  0  0  0  0  0  0  0  0  0  0  0
  151.7142  142.3005  158.3474 C   0  0  0  0  0  0  0  0  0  0  0  0
  152.1568  141.2208  159.1385 C   0  0  0  0  0  0  0  0  0  0  0  0
  152.1682  139.9159  158.6094 C   0  0  0  0  0  0  0  0  0  0  0  0
  151.7332  139.7048  157.2868 C   0  0  0  0  0  0  0  0  0  0  0  0
  150.8546  132.3020  157.4060 H   0  0  0  0  0  0  0  0  0  0  0  0
  151.6797  132.1765  155.8499 H   0  0  0  0  0  0  0  0  0  0  0  0
  149.9846  131.7043  156.0055 H   0  0  0  0  0  0  0  0  0  0  0  0
  150.2444  134.9961  154.2729 H   0  0  0  0  0  0  0  0  0  0  0  0
  150.9188  133.4105  154.0251 H   0  0  0  0  0  0  0  0  0  0  0  0
  147.6996  135.1118  155.0489 H   0  0  0  0  0  0  0  0  0  0  0  0
  145.4701  134.3882  154.2254 H   0  0  0  0  0  0  0  0  0  0  0  0
  145.2700  132.3786  152.7720 H   0  0  0  0  0  0  0  0  0  0  0  0
  147.3043  131.0937  152.1390 H   0  0  0  0  0  0  0  0  0  0  0  0
  149.5353  131.8118  152.9566 H   0  0  0  0  0  0  0  0  0  0  0  0
  151.6168  134.4341  157.5390 H   0  0  0  0  0  0  0  0  0  0  0  0
  152.2078  134.6704  155.9262 H   0  0  0  0  0  0  0  0  0  0  0  0
  150.2966  136.5033  155.7221 H   0  0  0  0  0  0  0  0  0  0  0  0
  149.4162  137.0985  157.5769 H   0  0  0  0  0  0  0  0  0  0  0  0
  152.3008  137.2039  157.8906 H   0  0  0  0  0  0  0  0  0  0  0  0
  152.8622  136.9157  156.2702 H   0  0  0  0  0  0  0  0  0  0  0  0
  150.0352  137.4328  154.4037 H   0  0  0  0  0  0  0  0  0  0  0  0
  150.5814  138.6590  153.2663 H   0  0  0  0  0  0  0  0  0  0  0  0
  151.9350  137.0953  152.8733 H   0  0  0  0  0  0  0  0  0  0  0  0
  150.9417  142.9170  156.4251 H   0  0  0  0  0  0  0  0  0  0  0  0
  151.7089  143.2998  158.7575 H   0  0  0  0  0  0  0  0  0  0  0  0
  152.4887  141.3949  160.1515 H   0  0  0  0  0  0  0  0  0  0  0  0
  152.5110  139.0887  159.2130 H   0  0  0  0  0  0  0  0  0  0  0  0
  1  2  1  0  0  0  0
  1 25  1  0  0  0  0
  1 26  1  0  0  0  0
  1 27  1  0  0  0  0
  2  3  1  0  0  0  0
  2 10  1  0  0  0  0
  3  4  1  0  0  0  0
  3 28  1  0  0  0  0
  3 29  1  0  0  0  0
  4  9  1  0  0  0  0
  4  5  2  0  0  0  0
  5  6  1  0  0  0  0
  5 30  1  0  0  0  0
  6  7  2  0  0  0  0
  6 31  1  0  0  0  0
  7  8  1  0  0  0  0
  7 32  1  0  0  0  0
  8  9  2  0  0  0  0
  8 33  1  0  0  0  0
  9 34  1  0  0  0  0
 10 11  1  0  0  0  0
 10 35  1  0  0  0  0
 10 36  1  0  0  0  0
 11 12  1  0  0  0  0
 11 13  1  0  0  0  0
 11 37  1  0  0  0  0
 12 38  1  0  0  0  0
 13 14  1  0  0  0  0
 13 39  1  0  0  0  0
 13 40  1  0  0  0  0
 14 24  1  0  0  0  0
 14 15  1  0  0  0  0
 15 16  1  0  0  0  0
 15 18  2  0  0  0  0
 16 17  1  0  0  0  0
 16 41  1  0  0  0  0
 16 42  1  0  0  0  0
 17 43  1  0  0  0  0
 18 19  1  0  0  0  0
 19 24  2  0  0  0  0
 19 20  1  0  0  0  0
 20 21  2  0  0  0  0
 20 44  1  0  0  0  0
 21 22  1  0  0  0  0
 21 45  1  0  0  0  0
 22 23  2  0  0  0  0
 22 46  1  0  0  0  0
 23 24  1  0  0  0  0
 23 47  1  0  0  0  0
M  END
> <s_m_source_file>
AV-unprocessed.smi

> <i_m_source_file_index>
1669

> <i_lp_mmshare_version>
43012

> <i_f3d_flags>
0

> <s_epik_input>
W2NIXTFbY0hdW2NIXVtjSF1bY0hdYzFbQ0gyXU4oW0NIM10pW0NIMl1bQ0BIXShbT0hdKVtDSDJdbihjKG4yKVtDSDJdW09IXSljKGMyMylbY0hdW2NIXVtjSF1bY0hdMw==

> <s_epik_cmdline>
J2VwaWtfcHl0aG9uJywgJy1waCcsICc3LjAnLCAnLXRuJywgJzgnLCAnLW1hJywgJzIwMCcsICctbWV0YWxfYmluZGluZycsICctaW1hZScsICc8aW5maWxlLm1hZT4nLCAnLW9tYWUnLCAnPG91dGZpbGUubWFlPic=

> <r_epik_Ionization_Penalty>
1.56301

> <r_epik_Ionization_Penalty_Charging>
0

> <r_epik_Ionization_Penalty_Neutral>
1.56301

> <r_epik_State_Penalty>
1.64771

> <r_epik_Charging_Adjusted_Penalty>
1.64771

> <i_epik_Tot_Q>
0

> <i_epik_Tot_abs_Q>
0

> <r_epik_Metal_State_Penalty>
1.61258

> <b_epik_Metal_Only>
0

> <s_lp_Force_Field>
OPLS_2005

> <r_lp_Energy>
25.3744

> <b_lp_Chiralities_Consistent>
1

> <s_lp_Variant>
AV-unprocessed.smi:1669-6

> <Gold.Version>
5.8.1

> <Gold.Id.Protein>
6NUR|6NUR_protein|mol2

> <Gold.PLP.Fitness>
45.3779

> <Gold.PLP.PLP>
-37.8761

> <Gold.PLP.part.hbond>
-3.0000

> <Gold.PLP.part.metal>
0.0000

> <Gold.PLP.part.buried>
-7.2701

> <Gold.PLP.part.nonpolar>
-28.7564

> <Gold.PLP.part.repulsive>
0.0491

> <Gold.PLP.ligand.clash>
0.0000

> <Gold.PLP.ligand.torsion>
0.8181

> <Gold.PLP.Chemscore.Hbond>
2.9420

> <Gold.PLP.Chemscore.CHOScore>
0.0000

> <Gold.PLP.Chemscore.Metal>
0.0000

> <Gold.Chemscore.Hbonds>
donor molecule, donor type, donor heavy atom, donor atom, acceptor molecule, acceptor atom, score
      L1  H    17    43       P1  7949  0.94
      P1  H  7989  7998       L1    18  1.00
      P1  H 10752 10765       L1    17  0.74

> <Gold.PLP.Chemscore.Internal.Correction>
0.3121

> <Gold.Rescore>
     Score         DG    S(hbond)    S(metal)    S(lipo)     H(rot)  DE(clash)    DE(int)     intcor
     16.09     -17.57       2.50        0.00      98.86       3.06       0.63       0.84       ----

> <Gold.Chemscore.Fitness>
16.0880

> <Gold.Chemscore.DG>
-17.5679

> <Gold.Chemscore.ZeroCoef>
-5.4800

> <Gold.Chemscore.Hbond>
2.5023

> <Gold.Chemscore.Metal>
0.0000

> <Gold.Chemscore.Lipo>
98.8553

> <Gold.Chemscore.Internal_Hbond>
0.0000

> <Gold.Chemscore.DEClash>
0.6349

> <Gold.Chemscore.DEInternal>
0.8449

> <Gold.Chemscore.Rot>
3.0609

> <Gold.Chemscore.Internal.Correction>
   9.000000E+99

> <Gold.Chemscore.Hbonds>
donor molecule, donor type, donor heavy atom, donor atom, acceptor molecule, acceptor atom, score
      L1  H    17    43       P1  7949  0.90
      P1  H  7989  7998       L1    18  0.48
      P1  H 10752 10765       L1    17  0.10

> <Gold.Chemscore.Hbond.Weighted>
-8.3576

> <Gold.Chemscore.Metal.Weighted>
-0.0000

> <Gold.Chemscore.Lipo.Weighted>
-11.5661

> <Gold.Chemscore.Internal_Hbond.Weighted>
0.0000

> <Gold.Chemscore.DEClash.Weighted>
0.6349

> <Gold.Chemscore.DEInternal.Weighted>
0.8449

> <Gold.Chemscore.Rot.Weighted>
7.8358

> <Gold.Chemscore.Internal.Correction.Weighted>
   9.000000E+99

> <Gold.Protein.RotatedTorsions>
[ 6907 6896 6895 6894 ] final   41.94 input  -60.11 | X-H torsion
[ 7974 7965 7964 7962 ] final  -87.50 input  175.53 | X-H torsion
[ 8008 7997 7996 7995 ] final   73.58 input   59.86 | X-H torsion
[ 10167 10162 10161 10158 ] final  121.57 input  -65.29 | X-H torsion
[ 10718 10713 10712 10709 ] final  -42.60 input   66.30 | X-H torsion
[ 10763 10752 10751 10750 ] final  163.27 input  -60.55 | X-H torsion
[ 11005 11000 10999 10996 ] final -178.74 input  -57.11 | X-H torsion

> <Gold.Protein.ActiveResidues>
 VAL166  LYS551  ARG553  GLY616  TRP617  ASP618  TYR619  PRO620  LYS621  CYS622 
 ASP623  PHE694  ASN695  SER759  ASP760  ASP761  ALA762  ILE779  LEU786  VAL792 
 PHE793  MET794  SER795  GLU796  ALA797  LYS798  CYS799  TRP800  GLU811  SER814 

> <Gold.Protein.RotatedAtoms>
  152.2016  134.8583  160.0507 H   0  0  0  0  0  0  0  0  0  0  0  0  # atno 6907 bound_to 6896
  151.9434  133.3639  159.3981 H   0  0  0  0  0  0  0  0  0  0  0  0  # atno 6908 bound_to 6896
  150.6956  134.4340  159.5305 H   0  0  0  0  0  0  0  0  0  0  0  0  # atno 6909 bound_to 6896
  145.4657  140.9560  143.1945 H   0  0  0  0  0  0  0  0  0  0  0  0  # atno 7974 bound_to 7965
  155.7857  140.3480  155.5322 H   0  0  0  0  0  0  0  0  0  0  0  0  # atno 8008 bound_to 7997
  155.8684  140.0982  157.1587 H   0  0  0  0  0  0  0  0  0  0  0  0  # atno 8009 bound_to 7997
  154.4016  140.1345  156.4034 H   0  0  0  0  0  0  0  0  0  0  0  0  # atno 8010 bound_to 7997
  139.5911  144.7025  151.3287 H   0  0  0  0  0  0  0  0  0  0  0  0  # atno 10167 bound_to 10162
  156.2579  130.4194  149.8575 H   0  0  0  0  0  0  0  0  0  0  0  0  # atno 10718 bound_to 10713
  154.2911  135.2761  155.2654 H   0  0  0  0  0  0  0  0  0  0  0  0  # atno 10763 bound_to 10752
  154.5133  135.5776  153.6625 H   0  0  0  0  0  0  0  0  0  0  0  0  # atno 10764 bound_to 10752
  152.9914  135.6186  154.3076 H   0  0  0  0  0  0  0  0  0  0  0  0  # atno 10765 bound_to 10752
  140.4264  134.6559  157.4690 H   0  0  0  0  0  0  0  0  0  0  0  0  # atno 11005 bound_to 11000
  144.7976  139.6204  143.7086 LP  0  0  0  0  0  0  0  0  0  0  0  0  # atno 17320 bound_to 7965
  146.2426  139.6031  142.9481 LP  0  0  0  0  0  0  0  0  0  0  0  0  # atno 17321 bound_to 7965
  140.7174  143.7229  150.7682 LP  0  0  0  0  0  0  0  0  0  0  0  0  # atno 17342 bound_to 10162
  140.0785  143.4991  152.2542 LP  0  0  0  0  0  0  0  0  0  0  0  0  # atno 17343 bound_to 10162
  156.6101  130.8583  151.3452 LP  0  0  0  0  0  0  0  0  0  0  0  0  # atno 17370 bound_to 10713
  157.7239  130.9596  150.1554 LP  0  0  0  0  0  0  0  0  0  0  0  0  # atno 17371 bound_to 10713
  140.0165  134.6612  155.9303 LP  0  0  0  0  0  0  0  0  0  0  0  0  # atno 17394 bound_to 11000
  141.1763  133.6541  156.4843 LP  0  0  0  0  0  0  0  0  0  0  0  0  # atno 17395 bound_to 11000

$$$$
