AV-unprocessed.smi:3287|AV-procd|sdf|12599|dock8
  -GOLD-   2272018523D 1   1.00000     0.00000
 Structure written by MMmdl.
 43 44  0  0  0  0  0  0  0  0  2 V2000
  152.4711  143.4149  161.9543 C   0  0  0  0  0  0  0  0  0  0  0  0
  152.6303  143.6036  160.4350 C   0  0  1  0  0  0  0  0  0  0  0  0
  152.4134  142.2560  159.7178 C   0  0  0  0  0  0  0  0  0  0  0  0
  152.5696  142.3768  158.1938 C   0  0  0  0  0  0  0  0  0  0  0  0
  151.6378  143.4463  157.6003 C   0  0  1  0  0  0  0  0  0  0  0  0
  150.2284  142.9912  157.6456 N   0  3  0  0  0  0  0  0  0  0  0  0
  149.9797  141.6365  157.1071 C   0  0  0  0  0  0  0  0  0  0  0  0
  150.4005  141.5326  155.6311 C   0  0  2  0  0  0  0  0  0  0  0  0
  149.3021  141.8926  154.8153 O   0  0  0  0  0  0  0  0  0  0  0  0
  150.9140  140.1383  155.3071 C   0  0  0  0  0  0  0  0  0  0  0  0
  150.2205  139.3172  154.3933 C   0  0  0  0  0  0  0  0  0  0  0  0
  150.7347  138.0352  154.1141 C   0  0  0  0  0  0  0  0  0  0  0  0
  151.8624  137.5500  154.6763 N   0  0  0  0  0  0  0  0  0  0  0  0
  152.5243  138.3403  155.5482 C   0  0  0  0  0  0  0  0  0  0  0  0
  152.0963  139.6375  155.8951 C   0  0  0  0  0  0  0  0  0  0  0  0
  151.8460  144.7932  158.3235 C   0  0  0  0  0  0  0  0  0  0  0  0
  151.6861  144.6909  159.8566 C   0  0  2  0  0  0  0  0  0  0  0  0
  151.9056  146.0741  160.4950 C   0  0  0  0  0  0  0  0  0  0  0  0
  151.4415  143.1718  162.2188 H   0  0  0  0  0  0  0  0  0  0  0  0
  152.7586  144.3088  162.5069 H   0  0  0  0  0  0  0  0  0  0  0  0
  153.1053  142.6047  162.3156 H   0  0  0  0  0  0  0  0  0  0  0  0
  153.6596  143.9153  160.2497 H   0  0  0  0  0  0  0  0  0  0  0  0
  153.1248  141.5188  160.0923 H   0  0  0  0  0  0  0  0  0  0  0  0
  151.4221  141.8676  159.9555 H   0  0  0  0  0  0  0  0  0  0  0  0
  153.6041  142.6360  157.9638 H   0  0  0  0  0  0  0  0  0  0  0  0
  152.3880  141.4108  157.7208 H   0  0  0  0  0  0  0  0  0  0  0  0
  151.9056  143.5675  156.5497 H   0  0  0  0  0  0  0  0  0  0  0  0
  149.9418  142.9782  158.6144 H   0  0  0  0  0  0  0  0  0  0  0  0
  150.5445  140.9103  157.6916 H   0  0  0  0  0  0  0  0  0  0  0  0
  148.9239  141.3844  157.2169 H   0  0  0  0  0  0  0  0  0  0  0  0
  151.2003  142.2478  155.4328 H   0  0  0  0  0  0  0  0  0  0  0  0
  149.1095  142.8073  154.9587 H   0  0  0  0  0  0  0  0  0  0  0  0
  149.3145  139.6571  153.9131 H   0  0  0  0  0  0  0  0  0  0  0  0
  150.2273  137.3829  153.4188 H   0  0  0  0  0  0  0  0  0  0  0  0
  153.4234  137.9275  155.9814 H   0  0  0  0  0  0  0  0  0  0  0  0
  152.6670  140.2296  156.5956 H   0  0  0  0  0  0  0  0  0  0  0  0
  152.8516  145.1533  158.0999 H   0  0  0  0  0  0  0  0  0  0  0  0
  151.1724  145.5513  157.9245 H   0  0  0  0  0  0  0  0  0  0  0  0
  150.6572  144.3962  160.0681 H   0  0  0  0  0  0  0  0  0  0  0  0
  152.9392  146.4036  160.3833 H   0  0  0  0  0  0  0  0  0  0  0  0
  151.6668  146.0729  161.5581 H   0  0  0  0  0  0  0  0  0  0  0  0
  151.2674  146.8258  160.0299 H   0  0  0  0  0  0  0  0  0  0  0  0
  149.6526  143.6586  157.1527 H   0  0  0  0  0  0  0  0  0  0  0  0
  1  2  1  0  0  0  0
  1 19  1  0  0  0  0
  1 20  1  0  0  0  0
  1 21  1  0  0  0  0
  2 17  1  0  0  0  0
  2  3  1  0  0  0  0
  2 22  1  0  0  0  0
  3  4  1  0  0  0  0
  3 23  1  0  0  0  0
  3 24  1  0  0  0  0
  4  5  1  0  0  0  0
  4 25  1  0  0  0  0
  4 26  1  0  0  0  0
  5  6  1  0  0  0  0
  5 16  1  0  0  0  0
  5 27  1  0  0  0  0
  6  7  1  0  0  0  0
  6 28  1  0  0  0  0
  6 43  1  0  0  0  0
  7  8  1  0  0  0  0
  7 29  1  0  0  0  0
  7 30  1  0  0  0  0
  8  9  1  0  0  0  0
  8 10  1  0  0  0  0
  8 31  1  0  0  0  0
  9 32  1  0  0  0  0
 10 15  1  0  0  0  0
 10 11  2  0  0  0  0
 11 12  1  0  0  0  0
 11 33  1  0  0  0  0
 12 13  2  0  0  0  0
 12 34  1  0  0  0  0
 13 14  1  0  0  0  0
 14 15  2  0  0  0  0
 14 35  1  0  0  0  0
 15 36  1  0  0  0  0
 16 17  1  0  0  0  0
 16 37  1  0  0  0  0
 16 38  1  0  0  0  0
 17 18  1  0  0  0  0
 17 39  1  0  0  0  0
 18 40  1  0  0  0  0
 18 41  1  0  0  0  0
 18 42  1  0  0  0  0
M  CHG  1   6   1
M  END
> <s_m_source_file>
AV-unprocessed.smi

> <i_m_source_file_index>
3287

> <i_lp_mmshare_version>
43012

> <i_f3d_flags>
0

> <s_epik_input>
W0NIM11bQ0BASF0xW0NIMl1bQ0gyXVtDQEhdKFtDSDJdW0NASF0xW0NIM10pW05IXVtDSDJdW0NASF0oW09IXSljMltjSF1bY0hdbltjSF1bY0hdMg==

> <s_epik_cmdline>
J2VwaWtfcHl0aG9uJywgJy1waCcsICc3LjAnLCAnLXRuJywgJzgnLCAnLW1hJywgJzIwMCcsICctbWV0YWxfYmluZGluZycsICctaW1hZScsICc8aW5maWxlLm1hZT4nLCAnLW9tYWUnLCAnPG91dGZpbGUubWFlPic=

> <r_lp_tautomer_probability>
1

> <r_epik_Ionization_Penalty>
0.00537262

> <r_epik_Ionization_Penalty_Charging>
0.00321624

> <r_epik_Ionization_Penalty_Neutral>
0.00215638

> <r_epik_State_Penalty>
-0

> <r_epik_Charging_Adjusted_Penalty>
0.00321624

> <i_epik_Tot_Q>
1

> <i_epik_Tot_abs_Q>
1

> <r_epik_Metal_State_Penalty>
-0

> <b_epik_Metal_Only>
0

> <s_lp_Force_Field>
OPLS_2005

> <r_lp_Energy>
19.0403

> <b_lp_Chiralities_Consistent>
1

> <s_lp_Variant>
AV-unprocessed.smi:3287-10

> <Gold.Version>
5.8.1

> <Gold.Id.Protein>
6NUR|6NUR_protein|mol2

> <Gold.PLP.Fitness>
58.2988

> <Gold.PLP.PLP>
-45.4710

> <Gold.PLP.part.hbond>
-3.3479

> <Gold.PLP.part.metal>
0.0000

> <Gold.PLP.part.buried>
-2.6817

> <Gold.PLP.part.nonpolar>
-38.7947

> <Gold.PLP.part.repulsive>
0.1442

> <Gold.PLP.ligand.clash>
0.0000

> <Gold.PLP.ligand.torsion>
0.5057

> <Gold.PLP.Chemscore.Hbond>
3.5233

> <Gold.PLP.Chemscore.CHOScore>
1.0828

> <Gold.PLP.Chemscore.Metal>
0.0000

> <Gold.Chemscore.Hbonds>
donor molecule, donor type, donor heavy atom, donor atom, acceptor molecule, acceptor atom, score
      L1  H     6    43       P1  8028  2.00
      L1  H     9    32       P1  8028  0.99
      P1  H 10752 10765       L1    13  0.53
      L1  C    12    34       P1  7948  0.88
      L1  C    12    34       P1  7949  0.20

> <Gold.PLP.Chemscore.Internal.Correction>
0.0209

> <Gold.Rescore>
     Score         DG    S(hbond)    S(metal)    S(lipo)     H(rot)  DE(clash)    DE(int)     intcor
     23.59     -24.87       2.19        0.00     144.76       1.90       0.82       0.46       ----

> <Gold.Chemscore.Fitness>
23.5920

> <Gold.Chemscore.DG>
-24.8739

> <Gold.Chemscore.ZeroCoef>
-5.4800

> <Gold.Chemscore.Hbond>
2.1946

> <Gold.Chemscore.Metal>
0.0000

> <Gold.Chemscore.Lipo>
144.7596

> <Gold.Chemscore.Internal_Hbond>
0.0000

> <Gold.Chemscore.DEClash>
0.8230

> <Gold.Chemscore.DEInternal>
0.4589

> <Gold.Chemscore.Rot>
1.9035

> <Gold.Chemscore.Internal.Correction>
   9.000000E+99

> <Gold.Chemscore.Hbonds>
donor molecule, donor type, donor heavy atom, donor atom, acceptor molecule, acceptor atom, score
      L1  H     6    43       P1  8028  0.86
      L1  H     9    32       P1  8028  0.92
      P1  H 10752 10765       L1    13  0.40

> <Gold.Chemscore.Hbond.Weighted>
-7.3299

> <Gold.Chemscore.Metal.Weighted>
-0.0000

> <Gold.Chemscore.Lipo.Weighted>
-16.9369

> <Gold.Chemscore.Internal_Hbond.Weighted>
0.0000

> <Gold.Chemscore.DEClash.Weighted>
0.8230

> <Gold.Chemscore.DEInternal.Weighted>
0.4589

> <Gold.Chemscore.Rot.Weighted>
4.8729

> <Gold.Chemscore.Internal.Correction.Weighted>
   9.000000E+99

> <Gold.Protein.RotatedTorsions>
[ 6907 6896 6895 6894 ] final   33.94 input  -60.11 | X-H torsion
[ 7974 7965 7964 7962 ] final  110.34 input  175.53 | X-H torsion
[ 8008 7997 7996 7995 ] final  -29.38 input   59.86 | X-H torsion
[ 10167 10162 10161 10158 ] final -159.18 input  -65.29 | X-H torsion
[ 10718 10713 10712 10709 ] final  149.82 input   66.30 | X-H torsion
[ 10763 10752 10751 10750 ] final  164.25 input  -60.55 | X-H torsion
[ 11005 11000 10999 10996 ] final   -4.29 input  -57.11 | X-H torsion

> <Gold.Protein.ActiveResidues>
 VAL166  LYS551  ARG553  GLY616  TRP617  ASP618  TYR619  PRO620  LYS621  CYS622 
 ASP623  PHE694  ASN695  SER759  ASP760  ASP761  ALA762  ILE779  LEU786  VAL792 
 PHE793  MET794  SER795  GLU796  ALA797  LYS798  CYS799  TRP800  GLU811  SER814 

> <Gold.Protein.RotatedAtoms>
  152.0954  134.9378  160.0570 H   0  0  0  0  0  0  0  0  0  0  0  0  # atno 6907 bound_to 6896
  152.0613  133.4058  159.4427 H   0  0  0  0  0  0  0  0  0  0  0  0  # atno 6908 bound_to 6896
  150.6838  134.3117  159.4792 H   0  0  0  0  0  0  0  0  0  0  0  0  # atno 6909 bound_to 6896
  145.2562  139.2720  143.4041 H   0  0  0  0  0  0  0  0  0  0  0  0  # atno 7974 bound_to 7965
  154.4292  140.1820  156.1238 H   0  0  0  0  0  0  0  0  0  0  0  0  # atno 8008 bound_to 7997
  156.0122  140.3349  155.6927 H   0  0  0  0  0  0  0  0  0  0  0  0  # atno 8009 bound_to 7997
  155.6095  140.0648  157.2701 H   0  0  0  0  0  0  0  0  0  0  0  0  # atno 8010 bound_to 7997
  139.6635  143.9871  152.2240 H   0  0  0  0  0  0  0  0  0  0  0  0  # atno 10167 bound_to 10162
  157.2913  131.0854  151.1460 H   0  0  0  0  0  0  0  0  0  0  0  0  # atno 10718 bound_to 10713
  154.3061  135.2758  155.2588 H   0  0  0  0  0  0  0  0  0  0  0  0  # atno 10763 bound_to 10752
  154.5003  135.5810  153.6530 H   0  0  0  0  0  0  0  0  0  0  0  0  # atno 10764 bound_to 10752
  152.9894  135.6156  154.3235 H   0  0  0  0  0  0  0  0  0  0  0  0  # atno 10765 bound_to 10752
  140.6786  133.9173  155.8541 H   0  0  0  0  0  0  0  0  0  0  0  0  # atno 11005 bound_to 11000
  146.3288  140.2966  142.8618 LP  0  0  0  0  0  0  0  0  0  0  0  0  # atno 17320 bound_to 7965
  144.9459  140.8127  143.5602 LP  0  0  0  0  0  0  0  0  0  0  0  0  # atno 17321 bound_to 7965
  139.9616  144.6554  150.8074 LP  0  0  0  0  0  0  0  0  0  0  0  0  # atno 17342 bound_to 10162
  140.7590  143.3119  151.2826 LP  0  0  0  0  0  0  0  0  0  0  0  0  # atno 17343 bound_to 10162
  157.2855  130.6771  149.6087 LP  0  0  0  0  0  0  0  0  0  0  0  0  # atno 17370 bound_to 10713
  155.9667  130.4436  150.5430 LP  0  0  0  0  0  0  0  0  0  0  0  0  # atno 17371 bound_to 10713
  141.0335  134.0722  157.3986 LP  0  0  0  0  0  0  0  0  0  0  0  0  # atno 17394 bound_to 11000
  139.8959  135.0143  156.7023 LP  0  0  0  0  0  0  0  0  0  0  0  0  # atno 17395 bound_to 11000

$$$$
