AV-unprocessed.smi:798|AV-procd|sdf|3784|dock5
  -GOLD-   22720 1223D 1   1.00000     0.00000
 Structure written by MMmdl.
 33 35  0  0  0  0  0  0  0  0  2 V2000
  148.0020  137.7499  158.2417 O   0  0  0  0  0  0  0  0  0  0  0  0
  149.0352  137.0807  158.3163 C   0  0  0  0  0  0  0  0  0  0  0  0
  149.3179  136.1447  159.2510 N   0  5  0  0  0  0  0  0  0  0  0  0
  148.4668  135.9349  160.2686 C   0  0  0  0  0  0  0  0  0  0  0  0
  147.9752  136.9373  161.0146 N   0  0  0  0  0  0  0  0  0  0  0  0
  147.1105  136.5033  162.0106 N   0  0  0  0  0  0  0  0  0  0  0  0
  146.9658  135.1786  161.9849 C   0  0  0  0  0  0  0  0  0  0  0  0
  147.8687  134.3414  160.7399 S   0  0  0  0  0  0  0  0  0  0  0  0
  150.0139  137.2602  157.4183 N   0  0  0  0  0  0  0  0  0  0  0  0
  149.9938  138.2191  156.3143 C   0  0  1  0  0  0  0  0  0  0  0  0
  149.8075  139.6888  156.7739 C   0  0  1  0  0  0  0  0  0  0  0  0
  150.8088  140.0644  157.8872 C   0  0  0  0  0  0  0  0  0  0  0  0
  152.1526  140.0869  157.1357 C   0  0  0  0  0  0  0  0  0  0  0  0
  151.7389  139.7616  155.6868 C   0  0  2  0  0  0  0  0  0  0  0  0
  150.3857  140.4570  155.5926 C   0  0  0  0  0  0  0  0  0  0  0  0
  151.3618  138.2652  155.5819 C   0  0  2  0  0  0  0  0  0  0  0  0
  151.2958  137.7712  154.1233 C   0  0  0  0  0  0  0  0  0  0  0  0
  150.1611  138.3048  153.4745 O   0  0  0  0  0  0  0  0  0  0  0  0
  146.3209  134.6916  162.7008 H   0  0  0  0  0  0  0  0  0  0  0  0
  150.8404  136.6886  157.5118 H   0  0  0  0  0  0  0  0  0  0  0  0
  149.1988  137.9496  155.6163 H   0  0  0  0  0  0  0  0  0  0  0  0
  148.7749  139.9407  157.0172 H   0  0  0  0  0  0  0  0  0  0  0  0
  150.5810  141.0544  158.2845 H   0  0  0  0  0  0  0  0  0  0  0  0
  150.8078  139.3712  158.7285 H   0  0  0  0  0  0  0  0  0  0  0  0
  152.6088  141.0757  157.1981 H   0  0  0  0  0  0  0  0  0  0  0  0
  152.8654  139.3654  157.5364 H   0  0  0  0  0  0  0  0  0  0  0  0
  152.4740  140.0843  154.9489 H   0  0  0  0  0  0  0  0  0  0  0  0
  149.8581  140.2710  154.6562 H   0  0  0  0  0  0  0  0  0  0  0  0
  150.4397  141.5343  155.7601 H   0  0  0  0  0  0  0  0  0  0  0  0
  152.1137  137.6712  156.1051 H   0  0  0  0  0  0  0  0  0  0  0  0
  152.1907  138.0473  153.5657 H   0  0  0  0  0  0  0  0  0  0  0  0
  151.2229  136.6838  154.0966 H   0  0  0  0  0  0  0  0  0  0  0  0
  149.8001  137.6427  152.9054 H   0  0  0  0  0  0  0  0  0  0  0  0
  1  2  2  0  0  0  0
  2  3  1  0  0  0  0
  2  9  1  0  0  0  0
  3  4  1  0  0  0  0
  4  8  1  0  0  0  0
  4  5  2  0  0  0  0
  5  6  1  0  0  0  0
  6  7  2  0  0  0  0
  7  8  1  0  0  0  0
  7 19  1  0  0  0  0
  9 10  1  0  0  0  0
  9 20  1  0  0  0  0
 10 16  1  0  0  0  0
 10 11  1  0  0  0  0
 10 21  1  0  0  0  0
 11 15  1  0  0  0  0
 11 12  1  0  0  0  0
 11 22  1  0  0  0  0
 12 13  1  0  0  0  0
 12 23  1  0  0  0  0
 12 24  1  0  0  0  0
 13 14  1  0  0  0  0
 13 25  1  0  0  0  0
 13 26  1  0  0  0  0
 14 15  1  0  0  0  0
 14 16  1  0  0  0  0
 14 27  1  0  0  0  0
 15 28  1  0  0  0  0
 15 29  1  0  0  0  0
 16 17  1  0  0  0  0
 16 30  1  0  0  0  0
 17 18  1  0  0  0  0
 17 31  1  0  0  0  0
 17 32  1  0  0  0  0
 18 33  1  0  0  0  0
M  CHG  1   3  -1
M  END
> <s_m_source_file>
AV-unprocessed.smi

> <i_m_source_file_index>
798

> <i_lp_mmshare_version>
43012

> <i_f3d_flags>
0

> <s_epik_input>
W0NIMl0xW0NIMl1bQ0BASF0oW0NIMl0yKVtDQEBIXShbQ0gyXVtPSF0pW0NAQEhdKFtDQEhdMTIpW05IXUMoPU8pW05IXWMzbm5bY0hdczM=

> <s_epik_cmdline>
J2VwaWtfcHl0aG9uJywgJy1waCcsICc3LjAnLCAnLXRuJywgJzgnLCAnLW1hJywgJzIwMCcsICctbWV0YWxfYmluZGluZycsICctaW1hZScsICc8aW5maWxlLm1hZT4nLCAnLW9tYWUnLCAnPG91dGZpbGUubWFlPic=

> <r_lp_tautomer_probability>
1

> <r_epik_Ionization_Penalty>
4.53732

> <r_epik_Ionization_Penalty_Charging>
4.48632

> <r_epik_Ionization_Penalty_Neutral>
0.0510007

> <r_epik_State_Penalty>
4.48602

> <r_epik_Charging_Adjusted_Penalty>
8.97234

> <i_epik_Tot_Q>
-1

> <i_epik_Tot_abs_Q>
1

> <r_epik_Metal_State_Penalty>
0.812492

> <b_epik_Metal_Only>
1

> <s_lp_Force_Field>
OPLS_2005

> <r_lp_Energy>
46.8423

> <b_lp_Chiralities_Consistent>
1

> <s_lp_Variant>
AV-unprocessed.smi:798-16

> <Gold.Version>
5.8.1

> <Gold.Id.Protein>
6NUR|6NUR_protein|mol2

> <Gold.PLP.Fitness>
39.9775

> <Gold.PLP.PLP>
-27.9701

> <Gold.PLP.part.hbond>
-5.2465

> <Gold.PLP.part.metal>
0.0000

> <Gold.PLP.part.buried>
-2.6717

> <Gold.PLP.part.nonpolar>
-19.5414

> <Gold.PLP.part.repulsive>
0.0368

> <Gold.PLP.ligand.clash>
0.0000

> <Gold.PLP.ligand.torsion>
0.5627

> <Gold.PLP.Chemscore.Hbond>
4.3686

> <Gold.PLP.Chemscore.CHOScore>
0.0000

> <Gold.PLP.Chemscore.Metal>
0.0000

> <Gold.Chemscore.Hbonds>
donor molecule, donor type, donor heavy atom, donor atom, acceptor molecule, acceptor atom, score
      L1  H    18    33       P1  7948  1.00
      P1  H  6896  6907       L1     3  2.00
      P1  H  6931  6943       L1     5  1.00
      P1  H  6934  6947       L1     5  0.32

> <Gold.PLP.Chemscore.Internal.Correction>
0.0270

> <Gold.Rescore>
     Score         DG    S(hbond)    S(metal)    S(lipo)     H(rot)  DE(clash)    DE(int)     intcor
     13.82     -16.40       2.79        0.00      55.87       1.92       0.00       2.58       ----

> <Gold.Chemscore.Fitness>
13.8217

> <Gold.Chemscore.DG>
-16.4042

> <Gold.Chemscore.ZeroCoef>
-5.4800

> <Gold.Chemscore.Hbond>
2.7857

> <Gold.Chemscore.Metal>
0.0000

> <Gold.Chemscore.Lipo>
55.8717

> <Gold.Chemscore.Internal_Hbond>
0.0000

> <Gold.Chemscore.DEClash>
0.0000

> <Gold.Chemscore.DEInternal>
2.5825

> <Gold.Chemscore.Rot>
1.9207

> <Gold.Chemscore.Internal.Correction>
   9.000000E+99

> <Gold.Chemscore.Hbonds>
donor molecule, donor type, donor heavy atom, donor atom, acceptor molecule, acceptor atom, score
      L1  H    18    33       P1  7948  0.45
      P1  H  6896  6907       L1     3  0.28
      P1  H  6931  6943       L1     5  0.38
      P1  H  6934  6947       L1     5  0.05

> <Gold.Chemscore.Hbond.Weighted>
-9.3041

> <Gold.Chemscore.Metal.Weighted>
-0.0000

> <Gold.Chemscore.Lipo.Weighted>
-6.5370

> <Gold.Chemscore.Internal_Hbond.Weighted>
0.0000

> <Gold.Chemscore.DEClash.Weighted>
0.0000

> <Gold.Chemscore.DEInternal.Weighted>
2.5825

> <Gold.Chemscore.Rot.Weighted>
4.9169

> <Gold.Chemscore.Internal.Correction.Weighted>
   9.000000E+99

> <Gold.Protein.RotatedTorsions>
[ 6907 6896 6895 6894 ] final  -52.66 input  -60.11 | X-H torsion
[ 7974 7965 7964 7962 ] final  -39.27 input  175.53 | X-H torsion
[ 8008 7997 7996 7995 ] final  -78.98 input   59.86 | X-H torsion
[ 10167 10162 10161 10158 ] final  -54.40 input  -65.29 | X-H torsion
[ 10718 10713 10712 10709 ] final   88.47 input   66.30 | X-H torsion
[ 10763 10752 10751 10750 ] final  165.73 input  -60.55 | X-H torsion
[ 11005 11000 10999 10996 ] final   19.56 input  -57.11 | X-H torsion

> <Gold.Protein.ActiveResidues>
 VAL166  LYS551  ARG553  GLY616  TRP617  ASP618  TYR619  PRO620  LYS621  CYS622 
 ASP623  PHE694  ASN695  SER759  ASP760  ASP761  ALA762  ILE779  LEU786  VAL792 
 PHE793  MET794  SER795  GLU796  ALA797  LYS798  CYS799  TRP800  GLU811  SER814 

> <Gold.Protein.RotatedAtoms>
  150.8497  134.7818  159.6998 H   0  0  0  0  0  0  0  0  0  0  0  0  # atno 6907 bound_to 6896
  152.4565  134.5276  159.9811 H   0  0  0  0  0  0  0  0  0  0  0  0  # atno 6908 bound_to 6896
  151.5400  133.3396  159.2969 H   0  0  0  0  0  0  0  0  0  0  0  0  # atno 6909 bound_to 6896
  146.0412  140.6606  142.9086 H   0  0  0  0  0  0  0  0  0  0  0  0  # atno 7974 bound_to 7965
  154.5741  140.0685  156.9008 H   0  0  0  0  0  0  0  0  0  0  0  0  # atno 8008 bound_to 7997
  155.2580  140.3356  155.4257 H   0  0  0  0  0  0  0  0  0  0  0  0  # atno 8009 bound_to 7997
  156.2141  140.1771  156.7614 H   0  0  0  0  0  0  0  0  0  0  0  0  # atno 8010 bound_to 7997
  140.6432  143.2520  151.4931 H   0  0  0  0  0  0  0  0  0  0  0  0  # atno 10167 bound_to 10162
  157.6949  131.0296  150.3279 H   0  0  0  0  0  0  0  0  0  0  0  0  # atno 10718 bound_to 10713
  154.3283  135.2755  155.2484 H   0  0  0  0  0  0  0  0  0  0  0  0  # atno 10763 bound_to 10752
  154.4807  135.5859  153.6391 H   0  0  0  0  0  0  0  0  0  0  0  0  # atno 10764 bound_to 10752
  152.9869  135.6111  154.3474 H   0  0  0  0  0  0  0  0  0  0  0  0  # atno 10765 bound_to 10752
  140.4124  134.1604  155.7668 H   0  0  0  0  0  0  0  0  0  0  0  0  # atno 11005 bound_to 11000
  144.7075  140.3911  143.7106 LP  0  0  0  0  0  0  0  0  0  0  0  0  # atno 17320 bound_to 7965
  145.6882  139.1633  143.2662 LP  0  0  0  0  0  0  0  0  0  0  0  0  # atno 17321 bound_to 7965
  139.5642  144.2083  152.1739 LP  0  0  0  0  0  0  0  0  0  0  0  0  # atno 17342 bound_to 10162
  140.1359  144.5246  150.6773 LP  0  0  0  0  0  0  0  0  0  0  0  0  # atno 17343 bound_to 10162
  156.3757  130.3871  149.7141 LP  0  0  0  0  0  0  0  0  0  0  0  0  # atno 17370 bound_to 10713
  156.4540  130.7920  151.2941 LP  0  0  0  0  0  0  0  0  0  0  0  0  # atno 17371 bound_to 10713
  141.1816  133.8402  157.1238 LP  0  0  0  0  0  0  0  0  0  0  0  0  # atno 17394 bound_to 11000
  140.0258  134.9924  157.0683 LP  0  0  0  0  0  0  0  0  0  0  0  0  # atno 17395 bound_to 11000

$$$$
