AV-unprocessed.smi:703|AV-procd|sdf|3427|dock9
  -GOLD-   22720 0413D 1   1.00000     0.00000
 Structure written by MMmdl.
 38 39  0  0  0  0  0  0  0  0  2 V2000
  147.8107  131.8370  153.2736 C   0  0  0  0  0  0  0  0  0  0  0  0
  147.8785  133.2541  152.6887 C   0  0  0  0  0  0  0  0  0  0  0  0
  148.2662  134.2612  153.7040 N   0  3  2  0  0  0  0  0  0  0  0  0
  149.5753  134.0359  154.3478 C   0  0  0  0  0  0  0  0  0  0  0  0
  149.5484  134.8951  155.6141 C   0  0  1  0  0  0  0  0  0  0  0  0
  150.0206  136.3317  155.3059 C   0  0  0  0  0  0  0  0  0  0  0  0
  148.0788  134.7676  156.0677 C   0  0  1  0  0  0  0  0  0  0  0  0
  147.5882  135.9769  156.7404 N   0  0  0  0  0  0  0  0  0  0  0  0
  148.0513  136.2617  158.3787 S   0  0  0  0  0  0  0  0  0  0  0  0
  149.2623  135.4687  158.6393 O   0  0  0  0  0  0  0  0  0  0  0  0
  148.0658  137.7167  158.5942 O   0  0  0  0  0  0  0  0  0  0  0  0
  146.6430  135.5417  159.3234 C   0  0  0  0  0  0  0  0  0  0  0  0
  146.8875  135.7082  160.7959 C   0  0  0  0  0  0  0  0  0  0  0  0
  146.9578  134.7024  161.7993 C   0  0  0  0  0  0  0  0  0  0  0  0
  147.1955  135.4091  162.9428 C   0  0  0  0  0  0  0  0  0  0  0  0
  147.2633  136.7375  162.6745 O   0  0  0  0  0  0  0  0  0  0  0  0
  147.0639  136.9188  161.3012 N   0  0  0  0  0  0  0  0  0  0  0  0
  147.2802  134.4384  154.7916 C   0  0  0  0  0  0  0  0  0  0  0  0
  147.5864  131.1092  152.4937 H   0  0  0  0  0  0  0  0  0  0  0  0
  147.0334  131.7509  154.0330 H   0  0  0  0  0  0  0  0  0  0  0  0
  148.7597  131.5519  153.7284 H   0  0  0  0  0  0  0  0  0  0  0  0
  148.6195  133.2652  151.8882 H   0  0  0  0  0  0  0  0  0  0  0  0
  146.9236  133.5259  152.2367 H   0  0  0  0  0  0  0  0  0  0  0  0
  149.6688  132.9837  154.6224 H   0  0  0  0  0  0  0  0  0  0  0  0
  150.4057  134.2819  153.6852 H   0  0  0  0  0  0  0  0  0  0  0  0
  150.2155  134.4742  156.3680 H   0  0  0  0  0  0  0  0  0  0  0  0
  149.3715  136.8233  154.5802 H   0  0  0  0  0  0  0  0  0  0  0  0
  151.0312  136.3298  154.8972 H   0  0  0  0  0  0  0  0  0  0  0  0
  150.0433  136.9459  156.2065 H   0  0  0  0  0  0  0  0  0  0  0  0
  148.0044  133.9247  156.7565 H   0  0  0  0  0  0  0  0  0  0  0  0
  146.5808  136.0824  156.6224 H   0  0  0  0  0  0  0  0  0  0  0  0
  145.7259  136.0418  159.0099 H   0  0  0  0  0  0  0  0  0  0  0  0
  146.5541  134.4876  159.0614 H   0  0  0  0  0  0  0  0  0  0  0  0
  146.8542  133.6324  161.6959 H   0  0  0  0  0  0  0  0  0  0  0  0
  147.3332  135.1252  163.9758 H   0  0  0  0  0  0  0  0  0  0  0  0
  146.5853  135.2297  154.5087 H   0  0  0  0  0  0  0  0  0  0  0  0
  146.6972  133.5291  154.9467 H   0  0  0  0  0  0  0  0  0  0  0  0
  148.3281  135.1547  153.2373 H   0  0  0  0  0  0  0  0  0  0  0  0
  1  2  1  0  0  0  0
  1 19  1  0  0  0  0
  1 20  1  0  0  0  0
  1 21  1  0  0  0  0
  2  3  1  0  0  0  0
  2 22  1  0  0  0  0
  2 23  1  0  0  0  0
  3 18  1  0  0  0  0
  3  4  1  0  0  0  0
  3 38  1  0  0  0  0
  4  5  1  0  0  0  0
  4 24  1  0  0  0  0
  4 25  1  0  0  0  0
  5  6  1  0  0  0  0
  5  7  1  0  0  0  0
  5 26  1  0  0  0  0
  6 27  1  0  0  0  0
  6 28  1  0  0  0  0
  6 29  1  0  0  0  0
  7  8  1  0  0  0  0
  7 18  1  0  0  0  0
  7 30  1  0  0  0  0
  8  9  1  0  0  0  0
  8 31  1  0  0  0  0
  9 10  2  0  0  0  0
  9 11  2  0  0  0  0
  9 12  1  0  0  0  0
 12 13  1  0  0  0  0
 12 32  1  0  0  0  0
 12 33  1  0  0  0  0
 13 17  2  0  0  0  0
 13 14  1  0  0  0  0
 14 15  2  0  0  0  0
 14 34  1  0  0  0  0
 15 16  1  0  0  0  0
 15 35  1  0  0  0  0
 16 17  1  0  0  0  0
 18 36  1  0  0  0  0
 18 37  1  0  0  0  0
M  CHG  1   3   1
M  END
> <s_m_source_file>
AV-unprocessed.smi

> <i_m_source_file_index>
703

> <i_lp_mmshare_version>
43012

> <i_f3d_flags>
0

> <s_epik_input>
W0NIM11bQ0gyXU4xW0NIMl1bQ0BASF0oW0NIM10pW0NASF0oW0NIMl0xKVtOSF1TKD1PKSg9TylbQ0gyXWMyW2NIXVtjSF1vbjI=

> <s_epik_cmdline>
J2VwaWtfcHl0aG9uJywgJy1waCcsICc3LjAnLCAnLXRuJywgJzgnLCAnLW1hJywgJzIwMCcsICctbWV0YWxfYmluZGluZycsICctaW1hZScsICc8aW5maWxlLm1hZT4nLCAnLW9tYWUnLCAnPG91dGZpbGUubWFlPic=

> <r_epik_Ionization_Penalty>
0.00324529

> <r_epik_Ionization_Penalty_Charging>
0.0019384

> <r_epik_Ionization_Penalty_Neutral>
0.00130689

> <r_epik_State_Penalty>
0.00218682

> <r_epik_Charging_Adjusted_Penalty>
0.00412522

> <i_epik_Tot_Q>
1

> <i_epik_Tot_abs_Q>
1

> <r_epik_Metal_State_Penalty>
0.310831

> <b_epik_Metal_Only>
0

> <s_lp_Force_Field>
OPLS_2005

> <r_lp_Energy>
22.9594

> <b_lp_Chiralities_Consistent>
1

> <s_lp_Variant>
AV-unprocessed.smi:703-2

> <Gold.Version>
5.8.1

> <Gold.Id.Protein>
6NUR|6NUR_protein|mol2

> <Gold.PLP.Fitness>
40.4430

> <Gold.PLP.PLP>
-29.7654

> <Gold.PLP.part.hbond>
-5.2366

> <Gold.PLP.part.metal>
0.0000

> <Gold.PLP.part.buried>
-4.8937

> <Gold.PLP.part.nonpolar>
-19.3677

> <Gold.PLP.part.repulsive>
0.0000

> <Gold.PLP.ligand.clash>
0.0000

> <Gold.PLP.ligand.torsion>
0.7001

> <Gold.PLP.Chemscore.Hbond>
3.9760

> <Gold.PLP.Chemscore.CHOScore>
0.0000

> <Gold.PLP.Chemscore.Metal>
0.0000

> <Gold.Chemscore.Hbonds>
donor molecule, donor type, donor heavy atom, donor atom, acceptor molecule, acceptor atom, score
      L1  H     3    38       P1  7948  1.98
      P1  H  6896  6908       L1    10  1.00
      P1  H  6934  6947       L1    17  0.73

> <Gold.PLP.Chemscore.Internal.Correction>
0.1499

> <Gold.Rescore>
     Score         DG    S(hbond)    S(metal)    S(lipo)     H(rot)  DE(clash)    DE(int)     intcor
     15.47     -16.34       2.84        0.00      54.28       1.94       0.00       0.87       ----

> <Gold.Chemscore.Fitness>
15.4748

> <Gold.Chemscore.DG>
-16.3405

> <Gold.Chemscore.ZeroCoef>
-5.4800

> <Gold.Chemscore.Hbond>
2.8373

> <Gold.Chemscore.Metal>
0.0000

> <Gold.Chemscore.Lipo>
54.2757

> <Gold.Chemscore.Internal_Hbond>
0.0000

> <Gold.Chemscore.DEClash>
0.0004

> <Gold.Chemscore.DEInternal>
0.8652

> <Gold.Chemscore.Rot>
1.9400

> <Gold.Chemscore.Internal.Correction>
   9.000000E+99

> <Gold.Chemscore.Hbonds>
donor molecule, donor type, donor heavy atom, donor atom, acceptor molecule, acceptor atom, score
      L1  H     3    38       P1  7948  0.89
      P1  H  6896  6908       L1    10  1.00
      P1  H  6934  6947       L1    17  0.40

> <Gold.Chemscore.Hbond.Weighted>
-9.4767

> <Gold.Chemscore.Metal.Weighted>
-0.0000

> <Gold.Chemscore.Lipo.Weighted>
-6.3503

> <Gold.Chemscore.Internal_Hbond.Weighted>
0.0000

> <Gold.Chemscore.DEClash.Weighted>
0.0004

> <Gold.Chemscore.DEInternal.Weighted>
0.8652

> <Gold.Chemscore.Rot.Weighted>
4.9665

> <Gold.Chemscore.Internal.Correction.Weighted>
   9.000000E+99

> <Gold.Protein.RotatedTorsions>
[ 6907 6896 6895 6894 ] final  168.39 input  -60.11 | X-H torsion
[ 7974 7965 7964 7962 ] final -142.94 input  175.53 | X-H torsion
[ 8008 7997 7996 7995 ] final   22.27 input   59.86 | X-H torsion
[ 10167 10162 10161 10158 ] final  -33.32 input  -65.29 | X-H torsion
[ 10718 10713 10712 10709 ] final  139.09 input   66.30 | X-H torsion
[ 10763 10752 10751 10750 ] final  -72.86 input  -60.55 | X-H torsion
[ 11005 11000 10999 10996 ] final   52.07 input  -57.11 | X-H torsion

> <Gold.Protein.ActiveResidues>
 VAL166  LYS551  ARG553  GLY616  TRP617  ASP618  TYR619  PRO620  LYS621  CYS622 
 ASP623  PHE694  ASN695  SER759  ASP760  ASP761  ALA762  ILE779  LEU786  VAL792 
 PHE793  MET794  SER795  GLU796  ALA797  LYS798  CYS799  TRP800  GLU811  SER814 

> <Gold.Protein.RotatedAtoms>
  151.8483  133.3435  159.3664 H   0  0  0  0  0  0  0  0  0  0  0  0  # atno 6907 bound_to 6896
  150.7214  134.5324  159.5716 H   0  0  0  0  0  0  0  0  0  0  0  0  # atno 6908 bound_to 6896
  152.2812  134.7827  160.0447 H   0  0  0  0  0  0  0  0  0  0  0  0  # atno 6909 bound_to 6896
  144.8406  140.5896  143.5455 H   0  0  0  0  0  0  0  0  0  0  0  0  # atno 7974 bound_to 7965
  154.9631  140.3080  155.5021 H   0  0  0  0  0  0  0  0  0  0  0  0  # atno 8008 bound_to 7997
  156.2975  140.2297  156.4657 H   0  0  0  0  0  0  0  0  0  0  0  0  # atno 8009 bound_to 7997
  154.7946  140.0437  157.1215 H   0  0  0  0  0  0  0  0  0  0  0  0  # atno 8010 bound_to 7997
  140.7206  143.3629  151.1927 H   0  0  0  0  0  0  0  0  0  0  0  0  # atno 10167 bound_to 10162
  157.4181  131.1035  151.0382 H   0  0  0  0  0  0  0  0  0  0  0  0  # atno 10718 bound_to 10713
  154.4516  135.5916  153.6195 H   0  0  0  0  0  0  0  0  0  0  0  0  # atno 10763 bound_to 10752
  152.9814  135.6022  154.3598 H   0  0  0  0  0  0  0  0  0  0  0  0  # atno 10764 bound_to 10752
  154.3460  135.2841  155.2376 H   0  0  0  0  0  0  0  0  0  0  0  0  # atno 10765 bound_to 10752
  140.0880  134.5248  155.8880 H   0  0  0  0  0  0  0  0  0  0  0  0  # atno 11005 bound_to 11000
  145.4702  139.1504  143.3818 LP  0  0  0  0  0  0  0  0  0  0  0  0  # atno 17320 bound_to 7965
  146.2699  140.4835  142.8819 LP  0  0  0  0  0  0  0  0  0  0  0  0  # atno 17321 bound_to 7965
  139.7185  143.9262  152.2976 LP  0  0  0  0  0  0  0  0  0  0  0  0  # atno 17342 bound_to 10162
  139.9011  144.6911  150.8664 LP  0  0  0  0  0  0  0  0  0  0  0  0  # atno 17343 bound_to 10162
  157.1322  130.6107  149.5532 LP  0  0  0  0  0  0  0  0  0  0  0  0  # atno 17370 bound_to 10713
  155.9872  130.4910  150.7113 LP  0  0  0  0  0  0  0  0  0  0  0  0  # atno 17371 bound_to 10713
  141.2069  133.6659  156.6269 LP  0  0  0  0  0  0  0  0  0  0  0  0  # atno 17394 bound_to 11000
  140.3393  134.7863  157.4385 LP  0  0  0  0  0  0  0  0  0  0  0  0  # atno 17395 bound_to 11000

$$$$
