AV-unprocessed.smi:2011|AV-procd|sdf|8154|dock1
  -GOLD-   2272010393D 1   1.00000     0.00000
 Structure written by MMmdl.
 25 26  0  0  0  0  0  0  0  0  2 V2000
  150.8618  140.1608  158.3872 O   0  0  0  0  0  0  0  0  0  0  0  0
  152.0099  140.4181  158.0176 C   0  0  0  0  0  0  0  0  0  0  0  0
  152.7508  141.2961  158.7066 N   0  0  0  0  0  0  0  0  0  0  0  0
  152.3129  142.0102  159.8985 C   0  0  0  0  0  0  0  0  0  0  0  0
  152.4679  143.5140  159.7059 C   0  0  0  0  0  0  0  0  0  0  0  0
  151.7320  144.4790  160.6471 C   0  0  0  0  0  0  0  0  0  0  0  0
  151.5534  145.4291  159.4597 C   0  0  0  0  0  0  0  0  0  0  0  0
  151.7443  144.2156  158.5462 C   0  0  0  0  0  0  0  0  0  0  0  0
  152.6441  139.8914  156.9450 N   0  5  0  0  0  0  0  0  0  0  0  0
  151.9341  139.4638  155.8878 C   0  0  0  0  0  0  0  0  0  0  0  0
  151.1255  140.2770  155.1892 N   0  0  0  0  0  0  0  0  0  0  0  0
  150.4887  139.6389  154.1334 N   0  0  0  0  0  0  0  0  0  0  0  0
  150.8413  138.3557  154.0576 C   0  0  0  0  0  0  0  0  0  0  0  0
  151.9864  137.8118  155.2656 S   0  0  0  0  0  0  0  0  0  0  0  0
  153.6853  141.4837  158.3743 H   0  0  0  0  0  0  0  0  0  0  0  0
  151.2726  141.7567  160.1079 H   0  0  0  0  0  0  0  0  0  0  0  0
  152.9004  141.6758  160.7545 H   0  0  0  0  0  0  0  0  0  0  0  0
  153.5236  143.7932  159.6804 H   0  0  0  0  0  0  0  0  0  0  0  0
  150.7845  144.0777  161.0105 H   0  0  0  0  0  0  0  0  0  0  0  0
  152.3395  144.8740  161.4616 H   0  0  0  0  0  0  0  0  0  0  0  0
  150.5727  145.9011  159.3950 H   0  0  0  0  0  0  0  0  0  0  0  0
  152.3624  146.1563  159.3733 H   0  0  0  0  0  0  0  0  0  0  0  0
  152.3627  144.3962  157.6665 H   0  0  0  0  0  0  0  0  0  0  0  0
  150.8014  143.7338  158.2820 H   0  0  0  0  0  0  0  0  0  0  0  0
  150.4278  137.7267  153.2837 H   0  0  0  0  0  0  0  0  0  0  0  0
  1  2  2  0  0  0  0
  2  3  1  0  0  0  0
  2  9  1  0  0  0  0
  3  4  1  0  0  0  0
  3 15  1  0  0  0  0
  4  5  1  0  0  0  0
  4 16  1  0  0  0  0
  4 17  1  0  0  0  0
  5  8  1  0  0  0  0
  5  6  1  0  0  0  0
  5 18  1  0  0  0  0
  6  7  1  0  0  0  0
  6 19  1  0  0  0  0
  6 20  1  0  0  0  0
  7  8  1  0  0  0  0
  7 21  1  0  0  0  0
  7 22  1  0  0  0  0
  8 23  1  0  0  0  0
  8 24  1  0  0  0  0
  9 10  1  0  0  0  0
 10 14  1  0  0  0  0
 10 11  2  0  0  0  0
 11 12  1  0  0  0  0
 12 13  2  0  0  0  0
 13 14  1  0  0  0  0
 13 25  1  0  0  0  0
M  CHG  1   9  -1
M  END
> <s_m_source_file>
AV-unprocessed.smi

> <i_m_source_file_index>
2011

> <i_lp_mmshare_version>
43012

> <i_f3d_flags>
0

> <s_epik_input>
czFbY0hdbm5jMVtOSF1DKD1PKVtOSF1bQ0gyXVtDSF0yW0NIMl1bQ0gyXVtDSDJdMg==

> <s_epik_cmdline>
J2VwaWtfcHl0aG9uJywgJy1waCcsICc3LjAnLCAnLXRuJywgJzgnLCAnLW1hJywgJzIwMCcsICctbWV0YWxfYmluZGluZycsICctaW1hZScsICc8aW5maWxlLm1hZT4nLCAnLW9tYWUnLCAnPG91dGZpbGUubWFlPic=

> <r_lp_tautomer_probability>
1

> <r_epik_Ionization_Penalty>
4.51229

> <r_epik_Ionization_Penalty_Charging>
4.46823

> <r_epik_Ionization_Penalty_Neutral>
0.0440628

> <r_epik_State_Penalty>
4.46792

> <r_epik_Charging_Adjusted_Penalty>
8.93614

> <i_epik_Tot_Q>
-1

> <i_epik_Tot_abs_Q>
1

> <r_epik_Metal_State_Penalty>
0.803637

> <b_epik_Metal_Only>
1

> <s_lp_Force_Field>
OPLS_2005

> <r_lp_Energy>
10.4468

> <b_lp_Chiralities_Consistent>
1

> <s_lp_Variant>
AV-unprocessed.smi:2011-2

> <Gold.Version>
5.8.1

> <Gold.Id.Protein>
6NUR|6NUR_protein|mol2

> <Gold.PLP.Fitness>
42.3128

> <Gold.PLP.PLP>
-34.6276

> <Gold.PLP.part.hbond>
-3.0000

> <Gold.PLP.part.metal>
0.0000

> <Gold.PLP.part.buried>
-5.1095

> <Gold.PLP.part.nonpolar>
-27.1673

> <Gold.PLP.part.repulsive>
0.2813

> <Gold.PLP.ligand.clash>
0.0000

> <Gold.PLP.ligand.torsion>
0.7858

> <Gold.PLP.Chemscore.Hbond>
1.9840

> <Gold.PLP.Chemscore.CHOScore>
1.0753

> <Gold.PLP.Chemscore.Metal>
0.0000

> <Gold.Chemscore.Hbonds>
donor molecule, donor type, donor heavy atom, donor atom, acceptor molecule, acceptor atom, score
      P1  H  7997  8009       L1     9  1.89
      L1  C    13    25       P1  7948  0.73
      L1  C    13    25       P1  7949  0.38

> <Gold.PLP.Chemscore.Internal.Correction>
0.0789

> <Gold.Rescore>
     Score         DG    S(hbond)    S(metal)    S(lipo)     H(rot)  DE(clash)    DE(int)     intcor
     13.04     -13.80       0.89        0.00      74.69       1.32       0.00       0.75       ----

> <Gold.Chemscore.Fitness>
13.0444

> <Gold.Chemscore.DG>
-13.7983

> <Gold.Chemscore.ZeroCoef>
-5.4800

> <Gold.Chemscore.Hbond>
0.8896

> <Gold.Chemscore.Metal>
0.0000

> <Gold.Chemscore.Lipo>
74.6871

> <Gold.Chemscore.Internal_Hbond>
0.0000

> <Gold.Chemscore.DEClash>
0.0000

> <Gold.Chemscore.DEInternal>
0.7540

> <Gold.Chemscore.Rot>
1.3247

> <Gold.Chemscore.Internal.Correction>
   9.000000E+99

> <Gold.Chemscore.Hbonds>
donor molecule, donor type, donor heavy atom, donor atom, acceptor molecule, acceptor atom, score
      P1  H  7997  8009       L1     9  0.87

> <Gold.Chemscore.Hbond.Weighted>
-2.9711

> <Gold.Chemscore.Metal.Weighted>
-0.0000

> <Gold.Chemscore.Lipo.Weighted>
-8.7384

> <Gold.Chemscore.Internal_Hbond.Weighted>
0.0000

> <Gold.Chemscore.DEClash.Weighted>
0.0000

> <Gold.Chemscore.DEInternal.Weighted>
0.7540

> <Gold.Chemscore.Rot.Weighted>
3.3912

> <Gold.Chemscore.Internal.Correction.Weighted>
   9.000000E+99

> <Gold.Protein.RotatedTorsions>
[ 6907 6896 6895 6894 ] final  -74.81 input  -60.11 | X-H torsion
[ 7974 7965 7964 7962 ] final   66.64 input  175.53 | X-H torsion
[ 8008 7997 7996 7995 ] final  164.94 input   59.86 | X-H torsion
[ 10167 10162 10161 10158 ] final  140.47 input  -65.29 | X-H torsion
[ 10718 10713 10712 10709 ] final  146.28 input   66.30 | X-H torsion
[ 10763 10752 10751 10750 ] final  165.70 input  -60.55 | X-H torsion
[ 11005 11000 10999 10996 ] final  177.40 input  -57.11 | X-H torsion

> <Gold.Protein.ActiveResidues>
 VAL166  LYS551  ARG553  GLY616  TRP617  ASP618  TYR619  PRO620  LYS621  CYS622 
 ASP623  PHE694  ASN695  SER759  ASP760  ASP761  ALA762  ILE779  LEU786  VAL792 
 PHE793  MET794  SER795  GLU796  ALA797  LYS798  CYS799  TRP800  GLU811  SER814 

> <Gold.Protein.RotatedAtoms>
  150.7080  134.4813  159.5471 H   0  0  0  0  0  0  0  0  0  0  0  0  # atno 6907 bound_to 6896
  152.2450  134.8188  160.0464 H   0  0  0  0  0  0  0  0  0  0  0  0  # atno 6908 bound_to 6896
  151.8956  133.3491  159.3850 H   0  0  0  0  0  0  0  0  0  0  0  0  # atno 6909 bound_to 6896
  145.8242  139.3102  143.1025 H   0  0  0  0  0  0  0  0  0  0  0  0  # atno 7974 bound_to 7965
  156.1840  140.1683  156.8220 H   0  0  0  0  0  0  0  0  0  0  0  0  # atno 8008 bound_to 7997
  154.5393  140.0740  156.8515 H   0  0  0  0  0  0  0  0  0  0  0  0  # atno 8009 bound_to 7997
  155.3247  140.3375  155.4243 H   0  0  0  0  0  0  0  0  0  0  0  0  # atno 8010 bound_to 7997
  139.5048  144.6232  151.6000 H   0  0  0  0  0  0  0  0  0  0  0  0  # atno 10167 bound_to 10162
  157.3350  131.0926  151.1130 H   0  0  0  0  0  0  0  0  0  0  0  0  # atno 10718 bound_to 10713
  154.3280  135.2755  155.2486 H   0  0  0  0  0  0  0  0  0  0  0  0  # atno 10763 bound_to 10752
  154.4810  135.5858  153.6393 H   0  0  0  0  0  0  0  0  0  0  0  0  # atno 10764 bound_to 10752
  152.9869  135.6111  154.3470 H   0  0  0  0  0  0  0  0  0  0  0  0  # atno 10765 bound_to 10752
  140.3837  134.6924  157.4466 H   0  0  0  0  0  0  0  0  0  0  0  0  # atno 11005 bound_to 11000
  145.9642  140.8812  143.0195 LP  0  0  0  0  0  0  0  0  0  0  0  0  # atno 17320 bound_to 7965
  144.6745  140.1854  143.7402 LP  0  0  0  0  0  0  0  0  0  0  0  0  # atno 17321 bound_to 7965
  140.5941  143.9728  150.6343 LP  0  0  0  0  0  0  0  0  0  0  0  0  # atno 17342 bound_to 10162
  140.2918  143.3319  152.1055 LP  0  0  0  0  0  0  0  0  0  0  0  0  # atno 17343 bound_to 10162
  157.2364  130.6549  149.5871 LP  0  0  0  0  0  0  0  0  0  0  0  0  # atno 17370 bound_to 10713
  155.9700  130.4582  150.5992 LP  0  0  0  0  0  0  0  0  0  0  0  0  # atno 17371 bound_to 10713
  140.0459  134.6200  155.8921 LP  0  0  0  0  0  0  0  0  0  0  0  0  # atno 17394 bound_to 11000
  141.1915  133.6572  156.5458 LP  0  0  0  0  0  0  0  0  0  0  0  0  # atno 17395 bound_to 11000

$$$$
