AV-unprocessed.smi:1870|AV-procd|sdf|7596|dock5
  -GOLD-   22720 9313D 1   1.00000     0.00000
 Structure written by MMmdl.
 48 50  0  0  0  0  0  0  0  0  2 V2000
  148.2365  132.5334  153.8319 C   0  0  0  0  0  0  0  0  0  0  0  0
  149.1541  133.1445  154.8562 C   0  0  0  0  0  0  0  0  0  0  0  0
  149.1541  134.4345  154.9402 N   0  0  0  0  0  0  0  0  0  0  0  0
  149.9455  135.0964  155.8592 N   0  0  0  0  0  0  0  0  0  0  0  0
  149.7553  136.5541  155.8755 C   0  0  0  0  0  0  0  0  0  0  0  0
  151.0872  137.3247  155.7266 C   0  0  1  0  0  0  0  0  0  0  0  0
  151.5689  137.1287  154.4128 O   0  0  0  0  0  0  0  0  0  0  0  0
  150.9411  138.8424  155.9794 C   0  0  0  0  0  0  0  0  0  0  0  0
  150.0348  139.1838  157.1113 N   0  3  2  0  0  0  0  0  0  0  0  0
  149.1690  140.3751  156.9025 C   0  0  0  0  0  0  0  0  0  0  0  0
  150.0011  141.6585  156.7318 C   0  0  0  0  0  0  0  0  0  0  0  0
  151.1186  141.7695  157.7576 C   0  0  0  0  0  0  0  0  0  0  0  0
  151.8081  142.9902  157.9055 C   0  0  0  0  0  0  0  0  0  0  0  0
  152.8769  143.0940  158.8160 C   0  0  0  0  0  0  0  0  0  0  0  0
  153.2626  141.9759  159.5794 C   0  0  0  0  0  0  0  0  0  0  0  0
  152.5785  140.7538  159.4349 C   0  0  0  0  0  0  0  0  0  0  0  0
  151.5060  140.6425  158.5260 C   0  0  0  0  0  0  0  0  0  0  0  0
  150.7662  139.3136  158.3973 C   0  0  0  0  0  0  0  0  0  0  0  0
  150.8130  134.4864  156.7168 C   0  0  0  0  0  0  0  0  0  0  0  0
  151.5166  135.1175  157.5063 O   0  0  0  0  0  0  0  0  0  0  0  0
  150.8064  133.0255  156.6182 C   0  0  0  0  0  0  0  0  0  0  0  0
  151.6776  132.3453  157.5215 C   0  0  0  0  0  0  0  0  0  0  0  0
  152.3872  131.8129  158.2651 N   0  0  0  0  0  0  0  0  0  0  0  0
  150.0169  132.3635  155.7361 C   0  0  0  0  0  0  0  0  0  0  0  0
  149.9690  130.8480  155.5998 C   0  0  0  0  0  0  0  0  0  0  0  0
  148.8083  132.0198  153.0588 H   0  0  0  0  0  0  0  0  0  0  0  0
  147.6173  133.2849  153.3400 H   0  0  0  0  0  0  0  0  0  0  0  0
  147.5656  131.8096  154.2950 H   0  0  0  0  0  0  0  0  0  0  0  0
  149.0683  136.8373  155.0759 H   0  0  0  0  0  0  0  0  0  0  0  0
  149.2608  136.8555  156.8012 H   0  0  0  0  0  0  0  0  0  0  0  0
  151.8108  136.8841  156.4091 H   0  0  0  0  0  0  0  0  0  0  0  0
  150.9741  137.5430  153.8060 H   0  0  0  0  0  0  0  0  0  0  0  0
  151.9313  139.2592  156.1706 H   0  0  0  0  0  0  0  0  0  0  0  0
  150.5835  139.3504  155.0855 H   0  0  0  0  0  0  0  0  0  0  0  0
  148.4875  140.2415  156.0641 H   0  0  0  0  0  0  0  0  0  0  0  0
  148.5279  140.4793  157.7794 H   0  0  0  0  0  0  0  0  0  0  0  0
  150.4437  141.6929  155.7352 H   0  0  0  0  0  0  0  0  0  0  0  0
  149.3516  142.5311  156.8080 H   0  0  0  0  0  0  0  0  0  0  0  0
  151.5241  143.8489  157.3145 H   0  0  0  0  0  0  0  0  0  0  0  0
  153.4039  144.0305  158.9255 H   0  0  0  0  0  0  0  0  0  0  0  0
  154.0834  142.0562  160.2772 H   0  0  0  0  0  0  0  0  0  0  0  0
  152.8776  139.9021  160.0286 H   0  0  0  0  0  0  0  0  0  0  0  0
  150.0504  139.2448  159.2174 H   0  0  0  0  0  0  0  0  0  0  0  0
  151.4599  138.4814  158.5259 H   0  0  0  0  0  0  0  0  0  0  0  0
  150.7192  130.3545  156.2170 H   0  0  0  0  0  0  0  0  0  0  0  0
  150.1501  130.5461  154.5678 H   0  0  0  0  0  0  0  0  0  0  0  0
  148.9916  130.4708  155.9028 H   0  0  0  0  0  0  0  0  0  0  0  0
  149.4177  138.3908  157.2157 H   0  0  0  0  0  0  0  0  0  0  0  0
  1  2  1  0  0  0  0
  1 26  1  0  0  0  0
  1 27  1  0  0  0  0
  1 28  1  0  0  0  0
  2 24  1  0  0  0  0
  2  3  2  0  0  0  0
  3  4  1  0  0  0  0
  4  5  1  0  0  0  0
  4 19  1  0  0  0  0
  5  6  1  0  0  0  0
  5 29  1  0  0  0  0
  5 30  1  0  0  0  0
  6  7  1  0  0  0  0
  6  8  1  0  0  0  0
  6 31  1  0  0  0  0
  7 32  1  0  0  0  0
  8  9  1  0  0  0  0
  8 33  1  0  0  0  0
  8 34  1  0  0  0  0
  9 18  1  0  0  0  0
  9 10  1  0  0  0  0
  9 48  1  0  0  0  0
 10 11  1  0  0  0  0
 10 35  1  0  0  0  0
 10 36  1  0  0  0  0
 11 12  1  0  0  0  0
 11 37  1  0  0  0  0
 11 38  1  0  0  0  0
 12 17  2  0  0  0  0
 12 13  1  0  0  0  0
 13 14  2  0  0  0  0
 13 39  1  0  0  0  0
 14 15  1  0  0  0  0
 14 40  1  0  0  0  0
 15 16  2  0  0  0  0
 15 41  1  0  0  0  0
 16 17  1  0  0  0  0
 16 42  1  0  0  0  0
 17 18  1  0  0  0  0
 18 43  1  0  0  0  0
 18 44  1  0  0  0  0
 19 20  2  0  0  0  0
 19 21  1  0  0  0  0
 21 22  1  0  0  0  0
 21 24  2  0  0  0  0
 22 23  3  0  0  0  0
 24 25  1  0  0  0  0
 25 45  1  0  0  0  0
 25 46  1  0  0  0  0
 25 47  1  0  0  0  0
M  CHG  1   9   1
M  END
> <s_m_source_file>
AV-unprocessed.smi

> <i_m_source_file_index>
1870

> <i_lp_mmshare_version>
43012

> <i_f3d_flags>
0

> <s_epik_input>
TiNDYyhjMVtDSDNdKWMoPU8pbihuYzFbQ0gzXSlbQ0gyXVtDQEhdKFtPSF0pW0NIMl1OKFtDSDJdW0NIMl0yKVtDSDJdYyhjMjMpW2NIXVtjSF1bY0hdW2NIXTM=

> <s_epik_cmdline>
J2VwaWtfcHl0aG9uJywgJy1waCcsICc3LjAnLCAnLXRuJywgJzgnLCAnLW1hJywgJzIwMCcsICctbWV0YWxfYmluZGluZycsICctaW1hZScsICc8aW5maWxlLm1hZT4nLCAnLW9tYWUnLCAnPG91dGZpbGUubWFlPic=

> <r_epik_Ionization_Penalty>
0.0122865

> <r_epik_Ionization_Penalty_Charging>
0.0122864

> <r_epik_Ionization_Penalty_Neutral>
1.48087e-07

> <r_epik_State_Penalty>
0.00950248

> <r_epik_Charging_Adjusted_Penalty>
0.0217889

> <i_epik_Tot_Q>
1

> <i_epik_Tot_abs_Q>
1

> <r_epik_Metal_State_Penalty>
0.00950248

> <b_epik_Metal_Only>
0

> <s_lp_Force_Field>
OPLS_2005

> <r_lp_Energy>
37.2352

> <b_lp_Chiralities_Consistent>
1

> <s_lp_Variant>
AV-unprocessed.smi:1870-4

> <Gold.Version>
5.8.1

> <Gold.Id.Protein>
6NUR|6NUR_protein|mol2

> <Gold.PLP.Fitness>
48.0272

> <Gold.PLP.PLP>
-43.9339

> <Gold.PLP.part.hbond>
-4.0000

> <Gold.PLP.part.metal>
0.0000

> <Gold.PLP.part.buried>
-5.9201

> <Gold.PLP.part.nonpolar>
-36.7227

> <Gold.PLP.part.repulsive>
1.7331

> <Gold.PLP.ligand.clash>
0.0000

> <Gold.PLP.ligand.torsion>
0.7470

> <Gold.PLP.Chemscore.Hbond>
1.8500

> <Gold.PLP.Chemscore.CHOScore>
0.0000

> <Gold.PLP.Chemscore.Metal>
0.0000

> <Gold.Chemscore.Hbonds>
donor molecule, donor type, donor heavy atom, donor atom, acceptor molecule, acceptor atom, score
      P1  H  6896  6908       L1    23  0.10
      P1  H 10752 10764       L1     7  1.00

> <Gold.PLP.Chemscore.Internal.Correction>
0.0373

> <Gold.Rescore>
     Score         DG    S(hbond)    S(metal)    S(lipo)     H(rot)  DE(clash)    DE(int)     intcor
     14.30     -16.22       0.95        0.00     112.06       2.16       0.09       1.83       ----

> <Gold.Chemscore.Fitness>
14.3009

> <Gold.Chemscore.DG>
-16.2196

> <Gold.Chemscore.ZeroCoef>
-5.4800

> <Gold.Chemscore.Hbond>
0.9477

> <Gold.Chemscore.Metal>
0.0000

> <Gold.Chemscore.Lipo>
112.0614

> <Gold.Chemscore.Internal_Hbond>
0.0000

> <Gold.Chemscore.DEClash>
0.0855

> <Gold.Chemscore.DEInternal>
1.8333

> <Gold.Chemscore.Rot>
2.1628

> <Gold.Chemscore.Internal.Correction>
   9.000000E+99

> <Gold.Chemscore.Hbonds>
donor molecule, donor type, donor heavy atom, donor atom, acceptor molecule, acceptor atom, score
      P1  H  6896  6909       L1    20  0.01
      P1  H 10752 10764       L1     7  0.86

> <Gold.Chemscore.Hbond.Weighted>
-3.1652

> <Gold.Chemscore.Metal.Weighted>
-0.0000

> <Gold.Chemscore.Lipo.Weighted>
-13.1112

> <Gold.Chemscore.Internal_Hbond.Weighted>
0.0000

> <Gold.Chemscore.DEClash.Weighted>
0.0855

> <Gold.Chemscore.DEInternal.Weighted>
1.8333

> <Gold.Chemscore.Rot.Weighted>
5.5367

> <Gold.Chemscore.Internal.Correction.Weighted>
   9.000000E+99

> <Gold.Protein.RotatedTorsions>
[ 6907 6896 6895 6894 ] final   42.90 input  -60.11 | X-H torsion
[ 7974 7965 7964 7962 ] final  161.89 input  175.53 | X-H torsion
[ 8008 7997 7996 7995 ] final  -31.81 input   59.86 | X-H torsion
[ 10167 10162 10161 10158 ] final   44.66 input  -65.29 | X-H torsion
[ 10718 10713 10712 10709 ] final  -82.55 input   66.30 | X-H torsion
[ 10763 10752 10751 10750 ] final  -81.05 input  -60.55 | X-H torsion
[ 11005 11000 10999 10996 ] final   77.53 input  -57.11 | X-H torsion

> <Gold.Protein.ActiveResidues>
 VAL166  LYS551  ARG553  GLY616  TRP617  ASP618  TYR619  PRO620  LYS621  CYS622 
 ASP623  PHE694  ASN695  SER759  ASP760  ASP761  ALA762  ILE779  LEU786  VAL792 
 PHE793  MET794  SER795  GLU796  ALA797  LYS798  CYS799  TRP800  GLU811  SER814 

> <Gold.Protein.RotatedAtoms>
  152.2136  134.8478  160.0494 H   0  0  0  0  0  0  0  0  0  0  0  0  # atno 6907 bound_to 6896
  151.9287  133.3600  159.3931 H   0  0  0  0  0  0  0  0  0  0  0  0  # atno 6908 bound_to 6896
  150.6982  134.4484  159.5369 H   0  0  0  0  0  0  0  0  0  0  0  0  # atno 6909 bound_to 6896
  144.7663  139.7962  143.6314 H   0  0  0  0  0  0  0  0  0  0  0  0  # atno 7974 bound_to 7965
  154.4201  140.1754  156.1626 H   0  0  0  0  0  0  0  0  0  0  0  0  # atno 8008 bound_to 7997
  155.9825  140.3376  155.6652 H   0  0  0  0  0  0  0  0  0  0  0  0  # atno 8009 bound_to 7997
  155.6480  140.0687  157.2587 H   0  0  0  0  0  0  0  0  0  0  0  0  # atno 8010 bound_to 7997
  140.3321  144.2576  150.6166 H   0  0  0  0  0  0  0  0  0  0  0  0  # atno 10167 bound_to 10162
  156.0031  130.4638  150.4122 H   0  0  0  0  0  0  0  0  0  0  0  0  # atno 10718 bound_to 10713
  154.5588  135.5640  153.6988 H   0  0  0  0  0  0  0  0  0  0  0  0  # atno 10763 bound_to 10752
  153.0011  135.6269  154.2273 H   0  0  0  0  0  0  0  0  0  0  0  0  # atno 10764 bound_to 10752
  154.2211  135.2869  155.2904 H   0  0  0  0  0  0  0  0  0  0  0  0  # atno 10765 bound_to 10752
  139.9251  134.7690  156.1533 H   0  0  0  0  0  0  0  0  0  0  0  0  # atno 11005 bound_to 11000
  146.1773  139.4949  142.9889 LP  0  0  0  0  0  0  0  0  0  0  0  0  # atno 17320 bound_to 7965
  145.6460  141.0274  143.1786 LP  0  0  0  0  0  0  0  0  0  0  0  0  # atno 17321 bound_to 7965
  140.5388  143.2228  151.8119 LP  0  0  0  0  0  0  0  0  0  0  0  0  # atno 17342 bound_to 10162
  139.4855  144.4627  151.9521 LP  0  0  0  0  0  0  0  0  0  0  0  0  # atno 17343 bound_to 10162
  157.2184  131.0477  151.2560 LP  0  0  0  0  0  0  0  0  0  0  0  0  # atno 17370 bound_to 10713
  157.3823  130.7238  149.6639 LP  0  0  0  0  0  0  0  0  0  0  0  0  # atno 17371 bound_to 10713
  141.0802  133.6758  156.2320 LP  0  0  0  0  0  0  0  0  0  0  0  0  # atno 17394 bound_to 11000
  140.6361  134.5214  157.5565 LP  0  0  0  0  0  0  0  0  0  0  0  0  # atno 17395 bound_to 11000

$$$$
