AV-unprocessed.smi:1182|AV-procd|sdf|4967|dock3
  -GOLD-   22720 3563D 1   1.00000     0.00000
 Structure written by MMmdl.
 37 38  0  0  0  0  0  0  0  0  1 V2000
  144.3555  136.3241  152.5979 O   0  0  0  0  0  0  0  0  0  0  0  0
  145.5718  136.2609  152.4170 C   0  0  0  0  0  0  0  0  0  0  0  0
  146.4265  137.2285  152.7798 N   0  0  0  0  0  0  0  0  0  0  0  0
  146.0688  138.4811  153.4440 C   0  0  0  0  0  0  0  0  0  0  0  0
  147.2191  139.5187  153.4564 C   0  0  0  0  0  0  0  0  0  0  0  0
  147.6392  139.6789  152.1127 O   0  0  0  0  0  0  0  0  0  0  0  0
  146.7956  140.8960  154.0281 C   0  0  0  0  0  0  0  0  0  0  0  0
  147.9725  141.8779  154.1711 C   0  0  0  0  0  0  0  0  0  0  0  0
  149.1157  141.2714  154.9962 C   0  0  0  0  0  0  0  0  0  0  0  0
  149.5849  139.9439  154.3865 C   0  0  0  0  0  0  0  0  0  0  0  0
  148.4180  138.9492  154.2527 C   0  0  0  0  0  0  0  0  0  0  0  0
  146.2194  135.2370  151.8336 N   0  0  0  0  0  0  0  0  0  0  0  0
  145.6744  134.0293  151.3215 C   0  0  0  0  0  0  0  0  0  0  0  0
  144.2981  134.0811  151.0042 C   0  0  0  0  0  0  0  0  0  0  0  0
  143.6622  132.9355  150.4874 C   0  0  0  0  0  0  0  0  0  0  0  0
  144.4199  131.7655  150.3014 C   0  0  0  0  0  0  0  0  0  0  0  0
  145.7843  131.7982  150.6432 C   0  0  0  0  0  0  0  0  0  0  0  0
  146.3957  132.8951  151.1384 N   0  0  0  0  0  0  0  0  0  0  0  0
  147.4067  137.0930  152.5810 H   0  0  0  0  0  0  0  0  0  0  0  0
  145.1878  138.9145  152.9674 H   0  0  0  0  0  0  0  0  0  0  0  0
  145.7622  138.2474  154.4643 H   0  0  0  0  0  0  0  0  0  0  0  0
  148.5827  139.6309  152.0881 H   0  0  0  0  0  0  0  0  0  0  0  0
  146.0281  141.3545  153.4038 H   0  0  0  0  0  0  0  0  0  0  0  0
  146.3409  140.7496  155.0088 H   0  0  0  0  0  0  0  0  0  0  0  0
  148.3422  142.1571  153.1837 H   0  0  0  0  0  0  0  0  0  0  0  0
  147.6274  142.7998  154.6397 H   0  0  0  0  0  0  0  0  0  0  0  0
  149.9494  141.9721  155.0497 H   0  0  0  0  0  0  0  0  0  0  0  0
  148.7818  141.1074  156.0216 H   0  0  0  0  0  0  0  0  0  0  0  0
  150.0326  140.1263  153.4089 H   0  0  0  0  0  0  0  0  0  0  0  0
  150.3702  139.5099  155.0058 H   0  0  0  0  0  0  0  0  0  0  0  0
  148.0842  138.6749  155.2544 H   0  0  0  0  0  0  0  0  0  0  0  0
  148.7742  138.0266  153.7925 H   0  0  0  0  0  0  0  0  0  0  0  0
  147.2206  135.3305  151.7512 H   0  0  0  0  0  0  0  0  0  0  0  0
  143.7305  134.9882  151.1533 H   0  0  0  0  0  0  0  0  0  0  0  0
  142.6115  132.9556  150.2381 H   0  0  0  0  0  0  0  0  0  0  0  0
  143.9681  130.8673  149.9071 H   0  0  0  0  0  0  0  0  0  0  0  0
  146.4017  130.9215  150.5156 H   0  0  0  0  0  0  0  0  0  0  0  0
  1  2  2  0  0  0  0
  2  3  1  0  0  0  0
  2 12  1  0  0  0  0
  3  4  1  0  0  0  0
  3 19  1  0  0  0  0
  4  5  1  0  0  0  0
  4 20  1  0  0  0  0
  4 21  1  0  0  0  0
  5 11  1  0  0  0  0
  5  6  1  0  0  0  0
  5  7  1  0  0  0  0
  6 22  1  0  0  0  0
  7  8  1  0  0  0  0
  7 23  1  0  0  0  0
  7 24  1  0  0  0  0
  8  9  1  0  0  0  0
  8 25  1  0  0  0  0
  8 26  1  0  0  0  0
  9 10  1  0  0  0  0
  9 27  1  0  0  0  0
  9 28  1  0  0  0  0
 10 11  1  0  0  0  0
 10 29  1  0  0  0  0
 10 30  1  0  0  0  0
 11 31  1  0  0  0  0
 11 32  1  0  0  0  0
 12 13  1  0  0  0  0
 12 33  1  0  0  0  0
 13 18  1  0  0  0  0
 13 14  2  0  0  0  0
 14 15  1  0  0  0  0
 14 34  1  0  0  0  0
 15 16  2  0  0  0  0
 15 35  1  0  0  0  0
 16 17  1  0  0  0  0
 16 36  1  0  0  0  0
 17 18  2  0  0  0  0
 17 37  1  0  0  0  0
M  END
> <s_m_source_file>
AV-unprocessed.smi

> <i_m_source_file_index>
1182

> <i_lp_mmshare_version>
43012

> <i_f3d_flags>
0

> <s_epik_input>
bjFbY0hdW2NIXVtjSF1bY0hdYzFbTkhdQyg9TylbTkhdW0NIMl1DMihbT0hdKVtDSDJdW0NIMl1bQ0gyXVtDSDJdW0NIMl0y

> <s_epik_cmdline>
J2VwaWtfcHl0aG9uJywgJy1waCcsICc3LjAnLCAnLXRuJywgJzgnLCAnLW1hJywgJzIwMCcsICctbWV0YWxfYmluZGluZycsICctaW1hZScsICc8aW5maWxlLm1hZT4nLCAnLW9tYWUnLCAnPG91dGZpbGUubWFlPic=

> <r_lp_tautomer_probability>
1

> <r_epik_Ionization_Penalty>
5.55141e-05

> <r_epik_Ionization_Penalty_Charging>
0

> <r_epik_Ionization_Penalty_Neutral>
5.55141e-05

> <r_epik_State_Penalty>
-0

> <r_epik_Charging_Adjusted_Penalty>
0

> <i_epik_Tot_Q>
0

> <i_epik_Tot_abs_Q>
0

> <r_epik_Metal_State_Penalty>
-0

> <b_epik_Metal_Only>
0

> <s_lp_Force_Field>
OPLS_2005

> <r_lp_Energy>
16.5718

> <b_lp_Chiralities_Consistent>
1

> <s_lp_Variant>
AV-unprocessed.smi:1182-1

> <Gold.Version>
5.8.1

> <Gold.Id.Protein>
6NUR|6NUR_protein|mol2

> <Gold.PLP.Fitness>
44.0328

> <Gold.PLP.PLP>
-32.4592

> <Gold.PLP.part.hbond>
-2.5530

> <Gold.PLP.part.metal>
0.0000

> <Gold.PLP.part.buried>
-4.0950

> <Gold.PLP.part.nonpolar>
-26.7480

> <Gold.PLP.part.repulsive>
0.3261

> <Gold.PLP.ligand.clash>
0.0000

> <Gold.PLP.ligand.torsion>
0.1924

> <Gold.PLP.Chemscore.Hbond>
2.9913

> <Gold.PLP.Chemscore.CHOScore>
0.9929

> <Gold.PLP.Chemscore.Metal>
0.0000

> <Gold.Chemscore.Hbonds>
donor molecule, donor type, donor heavy atom, donor atom, acceptor molecule, acceptor atom, score
      L1  H     3    19       P1  7948  1.00
      L1  H     6    22       P1  7957  0.51
      L1  H    12    33       P1  7948  1.00
      L1  C    17    37       P1 10747  0.84

> <Gold.PLP.Chemscore.Internal.Correction>
0.0058

> <Gold.Rescore>
     Score         DG    S(hbond)    S(metal)    S(lipo)     H(rot)  DE(clash)    DE(int)     intcor
     17.46     -19.57       2.91        0.00      76.31       1.79       0.43       1.68       ----

> <Gold.Chemscore.Fitness>
17.4586

> <Gold.Chemscore.DG>
-19.5698

> <Gold.Chemscore.ZeroCoef>
-5.4800

> <Gold.Chemscore.Hbond>
2.9139

> <Gold.Chemscore.Metal>
0.0000

> <Gold.Chemscore.Lipo>
76.3071

> <Gold.Chemscore.Internal_Hbond>
0.0000

> <Gold.Chemscore.DEClash>
0.4286

> <Gold.Chemscore.DEInternal>
1.6825

> <Gold.Chemscore.Rot>
1.7853

> <Gold.Chemscore.Internal.Correction>
   9.000000E+99

> <Gold.Chemscore.Hbonds>
donor molecule, donor type, donor heavy atom, donor atom, acceptor molecule, acceptor atom, score
      L1  H     3    19       P1  7948  0.99
      L1  H     6    22       P1  7957  0.51
      L1  H    12    33       P1  7948  0.97

> <Gold.Chemscore.Hbond.Weighted>
-9.7323

> <Gold.Chemscore.Metal.Weighted>
-0.0000

> <Gold.Chemscore.Lipo.Weighted>
-8.9279

> <Gold.Chemscore.Internal_Hbond.Weighted>
0.0000

> <Gold.Chemscore.DEClash.Weighted>
0.4286

> <Gold.Chemscore.DEInternal.Weighted>
1.6825

> <Gold.Chemscore.Rot.Weighted>
4.5704

> <Gold.Chemscore.Internal.Correction.Weighted>
   9.000000E+99

> <Gold.Protein.RotatedTorsions>
[ 6907 6896 6895 6894 ] final   42.45 input  -60.11 | X-H torsion
[ 7974 7965 7964 7962 ] final   80.75 input  175.53 | X-H torsion
[ 8008 7997 7996 7995 ] final    1.08 input   59.86 | X-H torsion
[ 10167 10162 10161 10158 ] final  155.12 input  -65.29 | X-H torsion
[ 10718 10713 10712 10709 ] final  168.19 input   66.30 | X-H torsion
[ 10763 10752 10751 10750 ] final  -71.75 input  -60.55 | X-H torsion
[ 11005 11000 10999 10996 ] final  -89.22 input  -57.11 | X-H torsion

> <Gold.Protein.ActiveResidues>
 VAL166  LYS551  ARG553  GLY616  TRP617  ASP618  TYR619  PRO620  LYS621  CYS622 
 ASP623  PHE694  ASN695  SER759  ASP760  ASP761  ALA762  ILE779  LEU786  VAL792 
 PHE793  MET794  SER795  GLU796  ALA797  LYS798  CYS799  TRP800  GLU811  SER814 

> <Gold.Protein.RotatedAtoms>
  152.2081  134.8527  160.0500 H   0  0  0  0  0  0  0  0  0  0  0  0  # atno 6907 bound_to 6896
  151.9356  133.3618  159.3954 H   0  0  0  0  0  0  0  0  0  0  0  0  # atno 6908 bound_to 6896
  150.6970  134.4417  159.5339 H   0  0  0  0  0  0  0  0  0  0  0  0  # atno 6909 bound_to 6896
  145.6471  139.2439  143.1998 H   0  0  0  0  0  0  0  0  0  0  0  0  # atno 7974 bound_to 7965
  154.6756  140.2621  155.6961 H   0  0  0  0  0  0  0  0  0  0  0  0  # atno 8008 bound_to 7997
  156.2676  140.2820  156.1204 H   0  0  0  0  0  0  0  0  0  0  0  0  # atno 8009 bound_to 7997
  155.1105  140.0375  157.2713 H   0  0  0  0  0  0  0  0  0  0  0  0  # atno 8010 bound_to 7997
  139.4822  144.5127  151.8000 H   0  0  0  0  0  0  0  0  0  0  0  0  # atno 10167 bound_to 10162
  157.0407  131.0285  151.2714 H   0  0  0  0  0  0  0  0  0  0  0  0  # atno 10718 bound_to 10713
  154.4361  135.5952  153.6099 H   0  0  0  0  0  0  0  0  0  0  0  0  # atno 10763 bound_to 10752
  152.9802  135.5987  154.3780 H   0  0  0  0  0  0  0  0  0  0  0  0  # atno 10764 bound_to 10752
  154.3624  135.2841  155.2291 H   0  0  0  0  0  0  0  0  0  0  0  0  # atno 10765 bound_to 10752
  141.1588  133.7617  156.9563 H   0  0  0  0  0  0  0  0  0  0  0  0  # atno 11005 bound_to 11000
  146.1234  140.7280  142.9447 LP  0  0  0  0  0  0  0  0  0  0  0  0  # atno 17320 bound_to 7965
  144.7136  140.4129  143.7061 LP  0  0  0  0  0  0  0  0  0  0  0  0  # atno 17321 bound_to 7965
  140.4631  144.1693  150.5908 LP  0  0  0  0  0  0  0  0  0  0  0  0  # atno 17342 bound_to 10162
  140.4463  143.2505  151.9407 LP  0  0  0  0  0  0  0  0  0  0  0  0  # atno 17343 bound_to 10162
  157.5107  130.7937  149.7702 LP  0  0  0  0  0  0  0  0  0  0  0  0  # atno 17370 bound_to 10713
  156.0039  130.3865  150.2502 LP  0  0  0  0  0  0  0  0  0  0  0  0  # atno 17371 bound_to 10713
  140.1223  134.9409  157.2221 LP  0  0  0  0  0  0  0  0  0  0  0  0  # atno 17394 bound_to 11000
  140.3056  134.3081  155.7279 LP  0  0  0  0  0  0  0  0  0  0  0  0  # atno 17395 bound_to 11000

$$$$
