AV-unprocessed.smi:1717|AV-procd|sdf|6921|dock8
  -GOLD-   22720 8123D 1   1.00000     0.00000
 Structure written by MMmdl.
 40 41  0  0  0  0  0  0  0  0  3 V2000
  142.9844  137.4359  152.9710 C   0  0  0  0  0  0  0  0  0  0  0  0
  141.8038  136.6186  153.2257 N   0  5  0  0  0  0  0  0  0  0  0  0
  141.8420  135.2650  153.3524 C   0  0  0  0  0  0  0  0  0  0  0  0
  141.1002  134.4916  153.9673 O   0  0  0  0  0  0  0  0  0  0  0  0
  143.0067  134.6674  152.5545 C   0  0  0  0  0  0  0  0  0  0  0  0
  144.0409  134.1387  153.4784 N   0  3  2  0  0  0  0  0  0  0  0  0
  144.4224  135.1244  154.5211 C   0  0  0  0  0  0  0  0  0  0  0  0
  145.3741  134.4984  155.5556 C   0  0  0  0  0  0  0  0  0  0  0  0
  146.6282  133.8902  154.8967 C   0  0  2  0  0  0  0  0  0  0  0  0
  147.5344  134.9204  154.3895 N   0  0  0  0  0  0  0  0  0  0  0  0
  148.0845  135.8972  155.1254 C   0  0  0  0  0  0  0  0  0  0  0  0
  147.8594  136.0527  156.3254 O   0  0  0  0  0  0  0  0  0  0  0  0
  148.9023  136.6647  154.3872 N   0  0  0  0  0  0  0  0  0  0  0  0
  149.6564  137.7818  154.8264 C   0  0  0  0  0  0  0  0  0  0  0  0
  150.4009  138.7260  154.0597 C   0  0  0  0  0  0  0  0  0  0  0  0
  150.9759  139.6303  154.8400 N   0  0  0  0  0  0  0  0  0  0  0  0
  150.6088  139.2736  156.0914 N   0  0  0  0  0  0  0  0  0  0  0  0
  149.8075  138.1540  156.1287 C   0  0  0  0  0  0  0  0  0  0  0  0
  146.2107  132.9342  153.7658 C   0  0  0  0  0  0  0  0  0  0  0  0
  145.2354  133.5967  152.7761 C   0  0  0  0  0  0  0  0  0  0  0  0
  150.9108  139.7984  156.8999 H   0  0  0  0  0  0  0  0  0  0  0  0
  142.7353  138.4940  152.8920 H   0  0  0  0  0  0  0  0  0  0  0  0
  143.4859  137.1662  152.0410 H   0  0  0  0  0  0  0  0  0  0  0  0
  143.7261  137.3525  153.7660 H   0  0  0  0  0  0  0  0  0  0  0  0
  142.6897  133.8945  151.8509 H   0  0  0  0  0  0  0  0  0  0  0  0
  143.4233  135.4768  151.9535 H   0  0  0  0  0  0  0  0  0  0  0  0
  144.8867  135.9931  154.0515 H   0  0  0  0  0  0  0  0  0  0  0  0
  143.5287  135.4822  155.0334 H   0  0  0  0  0  0  0  0  0  0  0  0
  145.6525  135.2400  156.3052 H   0  0  0  0  0  0  0  0  0  0  0  0
  144.8417  133.7139  156.0950 H   0  0  0  0  0  0  0  0  0  0  0  0
  147.1705  133.3086  155.6446 H   0  0  0  0  0  0  0  0  0  0  0  0
  147.7793  134.8702  153.4116 H   0  0  0  0  0  0  0  0  0  0  0  0
  149.0077  136.4177  153.4144 H   0  0  0  0  0  0  0  0  0  0  0  0
  150.5471  138.7920  152.9921 H   0  0  0  0  0  0  0  0  0  0  0  0
  149.4284  137.7368  157.0500 H   0  0  0  0  0  0  0  0  0  0  0  0
  147.0900  132.5654  153.2361 H   0  0  0  0  0  0  0  0  0  0  0  0
  145.7300  132.0565  154.1999 H   0  0  0  0  0  0  0  0  0  0  0  0
  144.9348  132.8577  152.0333 H   0  0  0  0  0  0  0  0  0  0  0  0
  145.7339  134.3999  152.2315 H   0  0  0  0  0  0  0  0  0  0  0  0
  143.6060  133.3654  153.9614 H   0  0  0  0  0  0  0  0  0  0  0  0
  1  2  1  0  0  0  0
  1 22  1  0  0  0  0
  1 23  1  0  0  0  0
  1 24  1  0  0  0  0
  2  3  1  0  0  0  0
  3  4  2  0  0  0  0
  3  5  1  0  0  0  0
  5  6  1  0  0  0  0
  5 25  1  0  0  0  0
  5 26  1  0  0  0  0
  6 20  1  0  0  0  0
  6  7  1  0  0  0  0
  6 40  1  0  0  0  0
  7  8  1  0  0  0  0
  7 27  1  0  0  0  0
  7 28  1  0  0  0  0
  8  9  1  0  0  0  0
  8 29  1  0  0  0  0
  8 30  1  0  0  0  0
  9 10  1  0  0  0  0
  9 19  1  0  0  0  0
  9 31  1  0  0  0  0
 10 11  1  0  0  0  0
 10 32  1  0  0  0  0
 11 12  2  0  0  0  0
 11 13  1  0  0  0  0
 13 14  1  0  0  0  0
 13 33  1  0  0  0  0
 14 18  2  0  0  0  0
 14 15  1  0  0  0  0
 15 16  2  0  0  0  0
 15 34  1  0  0  0  0
 16 17  1  0  0  0  0
 17 21  1  0  0  0  0
 17 18  1  0  0  0  0
 18 35  1  0  0  0  0
 19 20  1  0  0  0  0
 19 36  1  0  0  0  0
 19 37  1  0  0  0  0
 20 38  1  0  0  0  0
 20 39  1  0  0  0  0
M  CHG  1   2  -1
M  CHG  1   6   1
M  END
> <s_m_source_file>
AV-unprocessed.smi

> <i_m_source_file_index>
1717

> <i_lp_mmshare_version>
43012

> <i_f3d_flags>
0

> <s_epik_input>
W0NIM11bTkhdQyg9TylbQ0gyXU4xW0NIMl1bQ0gyXVtDSF0oW0NIMl1bQ0gyXTEpW05IXUMoPU8pW05IXWMyW2NIXW5bbkhdW2NIXTI=

> <s_epik_cmdline>
J2VwaWtfcHl0aG9uJywgJy1waCcsICc3LjAnLCAnLXRuJywgJzgnLCAnLW1hJywgJzIwMCcsICctbWV0YWxfYmluZGluZycsICctaW1hZScsICc8aW5maWxlLm1hZT4nLCAnLW9tYWUnLCAnPG91dGZpbGUubWFlPic=

> <r_lp_tautomer_probability>
0.5

> <r_epik_Ionization_Penalty>
6.1395

> <r_epik_Ionization_Penalty_Charging>
6.13946

> <r_epik_Ionization_Penalty_Neutral>
4.21226e-05

> <r_epik_State_Penalty>
6.9595

> <r_epik_Charging_Adjusted_Penalty>
13.099

> <i_epik_Tot_Q>
0

> <i_epik_Tot_abs_Q>
2

> <r_epik_Metal_State_Penalty>
2.89141

> <b_epik_Metal_Only>
1

> <s_lp_Force_Field>
OPLS_2005

> <r_lp_Energy>
13.1948

> <b_lp_Chiralities_Consistent>
1

> <s_lp_Variant>
AV-unprocessed.smi:1717-5

> <Gold.Version>
5.8.1

> <Gold.Id.Protein>
6NUR|6NUR_protein|mol2

> <Gold.PLP.Fitness>
38.9760

> <Gold.PLP.PLP>
-21.0702

> <Gold.PLP.part.hbond>
-5.4207

> <Gold.PLP.part.metal>
0.0000

> <Gold.PLP.part.buried>
-4.4659

> <Gold.PLP.part.nonpolar>
-12.1295

> <Gold.PLP.part.repulsive>
0.4820

> <Gold.PLP.ligand.clash>
0.0000

> <Gold.PLP.ligand.torsion>
0.2991

> <Gold.PLP.Chemscore.Hbond>
5.1589

> <Gold.PLP.Chemscore.CHOScore>
1.0000

> <Gold.PLP.Chemscore.Metal>
0.0000

> <Gold.Chemscore.Hbonds>
donor molecule, donor type, donor heavy atom, donor atom, acceptor molecule, acceptor atom, score
      L1  H     6    40       P1 10957  2.00
      L1  H    10    32       P1  7948  0.15
      L1  H    13    33       P1  7948  1.00
      P1  H  7989  7998       L1    16  1.00
      P1  H 11000 11005       L1     4  1.00
      L1  C    15    34       P1  7957  1.00

> <Gold.PLP.Chemscore.Internal.Correction>
0.0275

> <Gold.Rescore>
     Score         DG    S(hbond)    S(metal)    S(lipo)     H(rot)  DE(clash)    DE(int)     intcor
     16.59     -18.16       3.94        0.00      34.32       1.75       0.03       1.53       ----

> <Gold.Chemscore.Fitness>
16.5910

> <Gold.Chemscore.DG>
-18.1564

> <Gold.Chemscore.ZeroCoef>
-5.4800

> <Gold.Chemscore.Hbond>
3.9380

> <Gold.Chemscore.Metal>
0.0000

> <Gold.Chemscore.Lipo>
34.3177

> <Gold.Chemscore.Internal_Hbond>
0.0000

> <Gold.Chemscore.DEClash>
0.0307

> <Gold.Chemscore.DEInternal>
1.5347

> <Gold.Chemscore.Rot>
1.7546

> <Gold.Chemscore.Internal.Correction>
   9.000000E+99

> <Gold.Chemscore.Hbonds>
donor molecule, donor type, donor heavy atom, donor atom, acceptor molecule, acceptor atom, score
      L1  H     6    40       P1 10957  0.93
      L1  H    10    32       P1  7948  0.15
      L1  H    13    33       P1  7948  0.95
      P1  H  7989  7998       L1    16  0.25
      P1  H 11000 11005       L1     4  1.00

> <Gold.Chemscore.Hbond.Weighted>
-13.1529

> <Gold.Chemscore.Metal.Weighted>
-0.0000

> <Gold.Chemscore.Lipo.Weighted>
-4.0152

> <Gold.Chemscore.Internal_Hbond.Weighted>
0.0000

> <Gold.Chemscore.DEClash.Weighted>
0.0307

> <Gold.Chemscore.DEInternal.Weighted>
1.5347

> <Gold.Chemscore.Rot.Weighted>
4.4917

> <Gold.Chemscore.Internal.Correction.Weighted>
   9.000000E+99

> <Gold.Protein.RotatedTorsions>
[ 6907 6896 6895 6894 ] final -129.81 input  -60.11 | X-H torsion
[ 7974 7965 7964 7962 ] final  101.15 input  175.53 | X-H torsion
[ 8008 7997 7996 7995 ] final -145.20 input   59.86 | X-H torsion
[ 10167 10162 10161 10158 ] final  -44.33 input  -65.29 | X-H torsion
[ 10718 10713 10712 10709 ] final -151.65 input   66.30 | X-H torsion
[ 10763 10752 10751 10750 ] final -146.36 input  -60.55 | X-H torsion
[ 11005 11000 10999 10996 ] final   17.90 input  -57.11 | X-H torsion

> <Gold.Protein.ActiveResidues>
 VAL166  LYS551  ARG553  GLY616  TRP617  ASP618  TYR619  PRO620  LYS621  CYS622 
 ASP623  PHE694  ASN695  SER759  ASP760  ASP761  ALA762  ILE779  LEU786  VAL792 
 PHE793  MET794  SER795  GLU796  ALA797  LYS798  CYS799  TRP800  GLU811  SER814 

> <Gold.Protein.RotatedAtoms>
  150.9328  133.6747  159.2806 H   0  0  0  0  0  0  0  0  0  0  0  0  # atno 6907 bound_to 6896
  151.4163  135.0990  159.9610 H   0  0  0  0  0  0  0  0  0  0  0  0  # atno 6908 bound_to 6896
  152.5034  133.8790  159.7391 H   0  0  0  0  0  0  0  0  0  0  0  0  # atno 6909 bound_to 6896
  145.3761  139.2388  143.3429 H   0  0  0  0  0  0  0  0  0  0  0  0  # atno 7974 bound_to 7965
  155.5393  140.0606  157.2873 H   0  0  0  0  0  0  0  0  0  0  0  0  # atno 8008 bound_to 7997
  154.4457  140.1922  156.0619 H   0  0  0  0  0  0  0  0  0  0  0  0  # atno 8009 bound_to 7997
  156.0596  140.3274  155.7450 H   0  0  0  0  0  0  0  0  0  0  0  0  # atno 8010 bound_to 7997
  140.6901  143.2935  151.3480 H   0  0  0  0  0  0  0  0  0  0  0  0  # atno 10167 bound_to 10162
  156.4620  130.8218  151.2448 H   0  0  0  0  0  0  0  0  0  0  0  0  # atno 10718 bound_to 10713
  154.8339  135.3388  154.6650 H   0  0  0  0  0  0  0  0  0  0  0  0  # atno 10763 bound_to 10752
  153.7267  135.6954  153.5004 H   0  0  0  0  0  0  0  0  0  0  0  0  # atno 10764 bound_to 10752
  153.2342  135.4406  155.0581 H   0  0  0  0  0  0  0  0  0  0  0  0  # atno 10765 bound_to 10752
  140.4307  134.1422  155.7680 H   0  0  0  0  0  0  0  0  0  0  0  0  # atno 11005 bound_to 11000
  146.2863  140.4421  142.8756 LP  0  0  0  0  0  0  0  0  0  0  0  0  # atno 17320 bound_to 7965
  144.8541  140.7044  143.6149 LP  0  0  0  0  0  0  0  0  0  0  0  0  # atno 17321 bound_to 7965
  139.6295  144.0749  152.2463 LP  0  0  0  0  0  0  0  0  0  0  0  0  # atno 17342 bound_to 10162
  140.0219  144.6146  150.7559 LP  0  0  0  0  0  0  0  0  0  0  0  0  # atno 17343 bound_to 10162
  157.7497  131.0104  150.3304 LP  0  0  0  0  0  0  0  0  0  0  0  0  # atno 17370 bound_to 10713
  156.3706  130.3863  149.7178 LP  0  0  0  0  0  0  0  0  0  0  0  0  # atno 17371 bound_to 10713
  141.1746  133.8539  157.1461 LP  0  0  0  0  0  0  0  0  0  0  0  0  # atno 17394 bound_to 11000
  140.0136  134.9977  157.0446 LP  0  0  0  0  0  0  0  0  0  0  0  0  # atno 17395 bound_to 11000

$$$$
