AV-unprocessed.smi:473|AV-procd|sdf|2664|dock3
  -GOLD-   2262023 73D 1   1.00000     0.00000
 Structure written by MMmdl.
 43 45  0  0  0  0  0  0  0  0  2 V2000
  153.0302  142.8182  161.1025 C   0  0  0  0  0  0  0  0  0  0  0  0
  152.3038  142.4368  159.8238 C   0  0  0  0  0  0  0  0  0  0  0  0
  151.9240  141.0879  159.6400 C   0  0  0  0  0  0  0  0  0  0  0  0
  151.2582  140.7710  158.4618 C   0  0  0  0  0  0  0  0  0  0  0  0
  150.7561  139.5550  157.9922 N   0  3  0  0  0  0  0  0  0  0  0  0
  150.1784  139.7420  156.7729 C   0  0  0  0  0  0  0  0  0  0  0  0
  150.3042  141.0593  156.4575 N   0  0  0  0  0  0  0  0  0  0  0  0
  149.8646  141.7884  155.2597 C   0  0  0  0  0  0  0  0  0  0  0  0
  149.2282  140.8712  154.1939 C   0  0  1  0  0  0  0  0  0  0  0  0
  150.1117  139.8514  153.7709 O   0  0  0  0  0  0  0  0  0  0  0  0
  147.9090  140.2277  154.6511 C   0  0  0  0  0  0  0  0  0  0  0  0
  146.9194  141.2322  154.8016 O   0  0  0  0  0  0  0  0  0  0  0  0
  146.8178  142.0916  153.6784 C   0  0  0  0  0  0  0  0  0  0  0  0
  145.8813  143.2021  154.0375 C   0  0  0  0  0  0  0  0  0  0  0  0
  145.4182  144.2874  153.3457 C   0  0  0  0  0  0  0  0  0  0  0  0
  144.5384  144.9806  154.2226 C   0  0  0  0  0  0  0  0  0  0  0  0
  144.5272  144.2667  155.3866 C   0  0  0  0  0  0  0  0  0  0  0  0
  145.3395  143.1795  155.2910 O   0  0  0  0  0  0  0  0  0  0  0  0
  150.9705  141.7411  157.4826 C   0  0  0  0  0  0  0  0  0  0  0  0
  151.3364  143.0751  157.6488 C   0  0  0  0  0  0  0  0  0  0  0  0
  152.0124  143.4180  158.8411 C   0  0  0  0  0  0  0  0  0  0  0  0
  152.4211  144.8665  159.0499 C   0  0  0  0  0  0  0  0  0  0  0  0
  153.2181  141.9465  161.7301 H   0  0  0  0  0  0  0  0  0  0  0  0
  152.4363  143.5255  161.6816 H   0  0  0  0  0  0  0  0  0  0  0  0
  153.9928  143.2771  160.8755 H   0  0  0  0  0  0  0  0  0  0  0  0
  152.1404  140.3362  160.3848 H   0  0  0  0  0  0  0  0  0  0  0  0
  149.7078  138.9822  156.1654 H   0  0  0  0  0  0  0  0  0  0  0  0
  149.1841  142.5832  155.5654 H   0  0  0  0  0  0  0  0  0  0  0  0
  150.7405  142.2867  154.8426 H   0  0  0  0  0  0  0  0  0  0  0  0
  149.0196  141.4705  153.3067 H   0  0  0  0  0  0  0  0  0  0  0  0
  149.8928  139.6151  152.8828 H   0  0  0  0  0  0  0  0  0  0  0  0
  147.5754  139.5113  153.8987 H   0  0  0  0  0  0  0  0  0  0  0  0
  148.0493  139.6768  155.5828 H   0  0  0  0  0  0  0  0  0  0  0  0
  147.7970  142.4955  153.4179 H   0  0  0  0  0  0  0  0  0  0  0  0
  146.4368  141.5463  152.8139 H   0  0  0  0  0  0  0  0  0  0  0  0
  145.6807  144.5498  152.3315 H   0  0  0  0  0  0  0  0  0  0  0  0
  143.9832  145.8860  154.0265 H   0  0  0  0  0  0  0  0  0  0  0  0
  144.0221  144.3832  156.3342 H   0  0  0  0  0  0  0  0  0  0  0  0
  151.1100  143.8241  156.9038 H   0  0  0  0  0  0  0  0  0  0  0  0
  152.1039  145.4946  158.2166 H   0  0  0  0  0  0  0  0  0  0  0  0
  153.5047  144.9502  159.1359 H   0  0  0  0  0  0  0  0  0  0  0  0
  151.9685  145.2659  159.9577 H   0  0  0  0  0  0  0  0  0  0  0  0
  150.8039  138.6620  158.4661 H   0  0  0  0  0  0  0  0  0  0  0  0
  1  2  1  0  0  0  0
  1 23  1  0  0  0  0
  1 24  1  0  0  0  0
  1 25  1  0  0  0  0
  2 21  1  0  0  0  0
  2  3  2  0  0  0  0
  3  4  1  0  0  0  0
  3 26  1  0  0  0  0
  4 19  2  0  0  0  0
  4  5  1  0  0  0  0
  5  6  2  0  0  0  0
  5 43  1  0  0  0  0
  6  7  1  0  0  0  0
  6 27  1  0  0  0  0
  7  8  1  0  0  0  0
  7 19  1  0  0  0  0
  8  9  1  0  0  0  0
  8 28  1  0  0  0  0
  8 29  1  0  0  0  0
  9 10  1  0  0  0  0
  9 11  1  0  0  0  0
  9 30  1  0  0  0  0
 10 31  1  0  0  0  0
 11 12  1  0  0  0  0
 11 32  1  0  0  0  0
 11 33  1  0  0  0  0
 12 13  1  0  0  0  0
 13 14  1  0  0  0  0
 13 34  1  0  0  0  0
 13 35  1  0  0  0  0
 14 18  1  0  0  0  0
 14 15  2  0  0  0  0
 15 16  1  0  0  0  0
 15 36  1  0  0  0  0
 16 17  2  0  0  0  0
 16 37  1  0  0  0  0
 17 18  1  0  0  0  0
 17 38  1  0  0  0  0
 19 20  1  0  0  0  0
 20 21  2  0  0  0  0
 20 39  1  0  0  0  0
 21 22  1  0  0  0  0
 22 40  1  0  0  0  0
 22 41  1  0  0  0  0
 22 42  1  0  0  0  0
M  CHG  1   5   1
M  END
> <s_m_source_file>
AV-unprocessed.smi

> <i_m_source_file_index>
473

> <i_lp_mmshare_version>
43012

> <i_f3d_flags>
0

> <s_epik_input>
W0NIM11jKFtjSF0xKWMoW0NIM10pW2NIXWMoYzEyKW4oW2NIXW4yKVtDSDJdW0NASF0oW09IXSlbQ0gyXU9bQ0gyXWMzW2NIXVtjSF1bY0hdbzM=

> <s_epik_cmdline>
J2VwaWtfcHl0aG9uJywgJy1waCcsICc3LjAnLCAnLXRuJywgJzgnLCAnLW1hJywgJzIwMCcsICctbWV0YWxfYmluZGluZycsICctaW1hZScsICc8aW5maWxlLm1hZT4nLCAnLW9tYWUnLCAnPG91dGZpbGUubWFlPic=

> <r_epik_Ionization_Penalty>
1.03981

> <r_epik_Ionization_Penalty_Charging>
1.03981

> <r_epik_Ionization_Penalty_Neutral>
9.34185e-07

> <r_epik_State_Penalty>
1.09172

> <r_epik_Charging_Adjusted_Penalty>
2.13153

> <i_epik_Tot_Q>
1

> <i_epik_Tot_abs_Q>
1

> <r_epik_Metal_State_Penalty>
5.0824

> <b_epik_Metal_Only>
0

> <s_lp_Force_Field>
OPLS_2005

> <r_lp_Energy>
14.3304

> <b_lp_Chiralities_Consistent>
1

> <s_lp_Variant>
AV-unprocessed.smi:473-4

> <Gold.Version>
5.8.1

> <Gold.Id.Protein>
6NUR|6NUR_protein|mol2

> <Gold.PLP.Fitness>
54.5766

> <Gold.PLP.PLP>
-49.0847

> <Gold.PLP.part.hbond>
-2.0000

> <Gold.PLP.part.metal>
0.0000

> <Gold.PLP.part.buried>
-5.9150

> <Gold.PLP.part.nonpolar>
-41.2972

> <Gold.PLP.part.repulsive>
0.3648

> <Gold.PLP.ligand.clash>
0.0000

> <Gold.PLP.ligand.torsion>
0.1123

> <Gold.PLP.Chemscore.Hbond>
1.8880

> <Gold.PLP.Chemscore.CHOScore>
0.0000

> <Gold.PLP.Chemscore.Metal>
0.0000

> <Gold.Chemscore.Hbonds>
donor molecule, donor type, donor heavy atom, donor atom, acceptor molecule, acceptor atom, score
      L1  H    10    31       P1  7957  1.00
      P1  H  7989  7998       L1    10  0.82

> <Gold.PLP.Chemscore.Internal.Correction>
0.0525

> <Gold.Rescore>
     Score         DG    S(hbond)    S(metal)    S(lipo)     H(rot)  DE(clash)    DE(int)     intcor
     17.21     -18.41       1.29        0.00     128.28       2.49       0.25       0.95       ----

> <Gold.Chemscore.Fitness>
17.2114

> <Gold.Chemscore.DG>
-18.4118

> <Gold.Chemscore.ZeroCoef>
-5.4800

> <Gold.Chemscore.Hbond>
1.2878

> <Gold.Chemscore.Metal>
0.0000

> <Gold.Chemscore.Lipo>
128.2769

> <Gold.Chemscore.Internal_Hbond>
0.0000

> <Gold.Chemscore.DEClash>
0.2525

> <Gold.Chemscore.DEInternal>
0.9479

> <Gold.Chemscore.Rot>
2.4913

> <Gold.Chemscore.Internal.Correction>
   9.000000E+99

> <Gold.Chemscore.Hbonds>
donor molecule, donor type, donor heavy atom, donor atom, acceptor molecule, acceptor atom, score
      L1  H    10    31       P1  7957  0.96
      P1  H  7989  7998       L1    10  0.05

> <Gold.Chemscore.Hbond.Weighted>
-4.3013

> <Gold.Chemscore.Metal.Weighted>
-0.0000

> <Gold.Chemscore.Lipo.Weighted>
-15.0084

> <Gold.Chemscore.Internal_Hbond.Weighted>
0.0000

> <Gold.Chemscore.DEClash.Weighted>
0.2525

> <Gold.Chemscore.DEInternal.Weighted>
0.9479

> <Gold.Chemscore.Rot.Weighted>
6.3778

> <Gold.Chemscore.Internal.Correction.Weighted>
   9.000000E+99

> <Gold.Protein.RotatedTorsions>
[ 6907 6896 6895 6894 ] final    7.93 input  -60.11 | X-H torsion
[ 7974 7965 7964 7962 ] final   40.23 input  175.53 | X-H torsion
[ 8008 7997 7996 7995 ] final -115.70 input   59.86 | X-H torsion
[ 10167 10162 10161 10158 ] final   11.71 input  -65.29 | X-H torsion
[ 10718 10713 10712 10709 ] final  127.32 input   66.30 | X-H torsion
[ 10763 10752 10751 10750 ] final   47.75 input  -60.55 | X-H torsion
[ 11005 11000 10999 10996 ] final  -24.16 input  -57.11 | X-H torsion

> <Gold.Protein.ActiveResidues>
 VAL166  LYS551  ARG553  GLY616  TRP617  ASP618  TYR619  PRO620  LYS621  CYS622 
 ASP623  PHE694  ASN695  SER759  ASP760  ASP761  ALA762  ILE779  LEU786  VAL792 
 PHE793  MET794  SER795  GLU796  ALA797  LYS798  CYS799  TRP800  GLU811  SER814 

> <Gold.Protein.RotatedAtoms>
  151.6979  135.0935  160.0245 H   0  0  0  0  0  0  0  0  0  0  0  0  # atno 6907 bound_to 6896
  152.3739  133.6450  159.6116 H   0  0  0  0  0  0  0  0  0  0  0  0  # atno 6908 bound_to 6896
  150.7694  133.9142  159.3420 H   0  0  0  0  0  0  0  0  0  0  0  0  # atno 6909 bound_to 6896
  146.0921  139.5557  142.9469 H   0  0  0  0  0  0  0  0  0  0  0  0  # atno 7974 bound_to 7965
  155.0562  140.0393  157.2561 H   0  0  0  0  0  0  0  0  0  0  0  0  # atno 8008 bound_to 7997
  154.7097  140.2690  155.6617 H   0  0  0  0  0  0  0  0  0  0  0  0  # atno 8009 bound_to 7997
  156.2785  140.2724  156.1734 H   0  0  0  0  0  0  0  0  0  0  0  0  # atno 8010 bound_to 7997
  140.6114  143.8399  150.7070 H   0  0  0  0  0  0  0  0  0  0  0  0  # atno 10167 bound_to 10162
  157.5343  131.1098  150.8960 H   0  0  0  0  0  0  0  0  0  0  0  0  # atno 10718 bound_to 10713
  152.9797  135.5966  154.3814 H   0  0  0  0  0  0  0  0  0  0  0  0  # atno 10763 bound_to 10752
  154.3478  135.2767  155.2390 H   0  0  0  0  0  0  0  0  0  0  0  0  # atno 10764 bound_to 10752
  154.4443  135.6005  153.6205 H   0  0  0  0  0  0  0  0  0  0  0  0  # atno 10765 bound_to 10752
  140.8819  133.7648  156.0313 H   0  0  0  0  0  0  0  0  0  0  0  0  # atno 11005 bound_to 11000
  145.6019  141.0354  143.2014 LP  0  0  0  0  0  0  0  0  0  0  0  0  # atno 17320 bound_to 7965
  144.7368  139.7563  143.7326 LP  0  0  0  0  0  0  0  0  0  0  0  0  # atno 17321 bound_to 7965
  140.1968  143.3991  152.1822 LP  0  0  0  0  0  0  0  0  0  0  0  0  # atno 17342 bound_to 10162
  139.5364  144.7214  151.4878 LP  0  0  0  0  0  0  0  0  0  0  0  0  # atno 17343 bound_to 10162
  156.9532  130.5427  149.5283 LP  0  0  0  0  0  0  0  0  0  0  0  0  # atno 17370 bound_to 10713
  156.0446  130.5524  150.8851 LP  0  0  0  0  0  0  0  0  0  0  0  0  # atno 17371 bound_to 10713
  140.8451  134.3021  157.5298 LP  0  0  0  0  0  0  0  0  0  0  0  0  # atno 17394 bound_to 11000
  139.8720  134.9437  156.3860 LP  0  0  0  0  0  0  0  0  0  0  0  0  # atno 17395 bound_to 11000

$$$$
