AV-unprocessed.smi:1115|AV-procd|sdf|4802|dock10
  -GOLD-   22720 3353D 1   1.00000     0.00000
 Structure written by MMmdl.
 51 52  0  0  0  0  0  0  0  0  2 V2000
  150.0402  145.1103  160.1991 C   0  0  0  0  0  0  0  0  0  0  0  0
  151.3024  144.3796  160.2152 N   0  0  0  0  0  0  0  0  0  0  0  0
  152.5373  145.0387  159.8108 C   0  0  0  0  0  0  0  0  0  0  0  0
  151.3078  142.9964  160.4976 C   0  0  0  0  0  0  0  0  0  0  0  0
  150.1565  142.2875  160.9192 C   0  0  0  0  0  0  0  0  0  0  0  0
  150.2418  140.9058  161.1841 C   0  0  0  0  0  0  0  0  0  0  0  0
  151.4732  140.2349  161.0348 C   0  0  0  0  0  0  0  0  0  0  0  0
  151.4970  138.8404  161.3107 N   0  0  0  0  0  0  0  0  0  0  0  0
  152.1445  137.8580  160.6608 C   0  0  0  0  0  0  0  0  0  0  0  0
  152.8616  138.0075  159.6722 O   0  0  0  0  0  0  0  0  0  0  0  0
  151.9106  136.6696  161.2343 N   0  0  0  0  0  0  0  0  0  0  0  0
  152.4259  135.3796  160.7760 C   0  0  0  0  0  0  0  0  0  0  0  0
  151.3507  134.2535  160.8135 C   0  0  0  0  0  0  0  0  0  0  0  0
  151.1548  133.8800  162.3049 C   0  0  0  0  0  0  0  0  0  0  0  0
  150.0210  134.8754  160.3231 C   0  0  0  0  0  0  0  0  0  0  0  0
  151.7700  133.0671  160.0147 N   0  0  0  0  0  0  0  0  0  0  0  0
  153.0132  132.4283  160.4619 C   0  0  0  0  0  0  0  0  0  0  0  0
  153.4492  131.2901  159.5234 C   0  0  0  0  0  0  0  0  0  0  0  0
  152.4050  130.3305  159.4147 O   0  0  0  0  0  0  0  0  0  0  0  0
  151.1958  130.8978  158.9263 C   0  0  0  0  0  0  0  0  0  0  0  0
  150.7413  132.0314  159.8613 C   0  0  0  0  0  0  0  0  0  0  0  0
  152.5932  140.9846  160.6017 C   0  0  0  0  0  0  0  0  0  0  0  0
  152.4663  142.3069  160.3576 N   0  3  0  0  0  0  0  0  0  0  0  0
  149.5361  145.0270  161.1624 H   0  0  0  0  0  0  0  0  0  0  0  0
  149.3800  144.7160  159.4260 H   0  0  0  0  0  0  0  0  0  0  0  0
  150.1976  146.1701  159.9978 H   0  0  0  0  0  0  0  0  0  0  0  0
  152.9507  144.5657  158.9194 H   0  0  0  0  0  0  0  0  0  0  0  0
  153.2783  144.9869  160.6089 H   0  0  0  0  0  0  0  0  0  0  0  0
  152.3682  146.0908  159.5814 H   0  0  0  0  0  0  0  0  0  0  0  0
  149.2043  142.7808  161.0440 H   0  0  0  0  0  0  0  0  0  0  0  0
  149.3620  140.3673  161.5048 H   0  0  0  0  0  0  0  0  0  0  0  0
  150.9784  138.5549  162.1285 H   0  0  0  0  0  0  0  0  0  0  0  0
  151.3029  136.6451  162.0400 H   0  0  0  0  0  0  0  0  0  0  0  0
  152.8454  135.4687  159.7722 H   0  0  0  0  0  0  0  0  0  0  0  0
  153.2803  135.1234  161.4022 H   0  0  0  0  0  0  0  0  0  0  0  0
  151.0312  134.7673  162.9270 H   0  0  0  0  0  0  0  0  0  0  0  0
  152.0073  133.3244  162.6970 H   0  0  0  0  0  0  0  0  0  0  0  0
  150.2646  133.2715  162.4645 H   0  0  0  0  0  0  0  0  0  0  0  0
  149.7425  135.7336  160.9356 H   0  0  0  0  0  0  0  0  0  0  0  0
  149.1914  134.1706  160.3759 H   0  0  0  0  0  0  0  0  0  0  0  0
  150.0870  135.2329  159.2957 H   0  0  0  0  0  0  0  0  0  0  0  0
  153.8273  133.1496  160.5052 H   0  0  0  0  0  0  0  0  0  0  0  0
  152.8904  132.0267  161.4678 H   0  0  0  0  0  0  0  0  0  0  0  0
  153.7004  131.6793  158.5354 H   0  0  0  0  0  0  0  0  0  0  0  0
  154.3429  130.8014  159.9109 H   0  0  0  0  0  0  0  0  0  0  0  0
  151.3428  131.2696  157.9111 H   0  0  0  0  0  0  0  0  0  0  0  0
  150.4331  130.1207  158.8755 H   0  0  0  0  0  0  0  0  0  0  0  0
  150.4892  131.6038  160.8318 H   0  0  0  0  0  0  0  0  0  0  0  0
  149.8238  132.4502  159.4524 H   0  0  0  0  0  0  0  0  0  0  0  0
  153.5835  140.5914  160.4313 H   0  0  0  0  0  0  0  0  0  0  0  0
  153.2944  142.8160  160.0485 H   0  0  0  0  0  0  0  0  0  0  0  0
  1  2  1  0  0  0  0
  1 24  1  0  0  0  0
  1 25  1  0  0  0  0
  1 26  1  0  0  0  0
  2  3  1  0  0  0  0
  2  4  1  0  0  0  0
  3 27  1  0  0  0  0
  3 28  1  0  0  0  0
  3 29  1  0  0  0  0
  4 23  1  0  0  0  0
  4  5  2  0  0  0  0
  5  6  1  0  0  0  0
  5 30  1  0  0  0  0
  6  7  2  0  0  0  0
  6 31  1  0  0  0  0
  7  8  1  0  0  0  0
  7 22  1  0  0  0  0
  8  9  1  0  0  0  0
  8 32  1  0  0  0  0
  9 10  2  0  0  0  0
  9 11  1  0  0  0  0
 11 12  1  0  0  0  0
 11 33  1  0  0  0  0
 12 13  1  0  0  0  0
 12 34  1  0  0  0  0
 12 35  1  0  0  0  0
 13 14  1  0  0  0  0
 13 15  1  0  0  0  0
 13 16  1  0  0  0  0
 14 36  1  0  0  0  0
 14 37  1  0  0  0  0
 14 38  1  0  0  0  0
 15 39  1  0  0  0  0
 15 40  1  0  0  0  0
 15 41  1  0  0  0  0
 16 21  1  0  0  0  0
 16 17  1  0  0  0  0
 17 18  1  0  0  0  0
 17 42  1  0  0  0  0
 17 43  1  0  0  0  0
 18 19  1  0  0  0  0
 18 44  1  0  0  0  0
 18 45  1  0  0  0  0
 19 20  1  0  0  0  0
 20 21  1  0  0  0  0
 20 46  1  0  0  0  0
 20 47  1  0  0  0  0
 21 48  1  0  0  0  0
 21 49  1  0  0  0  0
 22 23  2  0  0  0  0
 22 50  1  0  0  0  0
 23 51  1  0  0  0  0
M  CHG  1  23   1
M  END
> <s_m_source_file>
AV-unprocessed.smi

> <i_m_source_file_index>
1115

> <i_lp_mmshare_version>
43012

> <i_f3d_flags>
0

> <s_epik_input>
W0NIM11OKFtDSDNdKWMxW2NIXVtjSF1jKFtjSF1uMSlbTkhdQyg9TylbTkhdW0NIMl1DKFtDSDNdKShbQ0gzXSlOMltDSDJdW0NIMl1PW0NIMl1bQ0gyXTI=

> <s_epik_cmdline>
J2VwaWtfcHl0aG9uJywgJy1waCcsICc3LjAnLCAnLXRuJywgJzgnLCAnLW1hJywgJzIwMCcsICctbWV0YWxfYmluZGluZycsICctaW1hZScsICc8aW5maWxlLm1hZT4nLCAnLW9tYWUnLCAnPG91dGZpbGUubWFlPic=

> <r_lp_tautomer_probability>
0.999994

> <r_epik_Ionization_Penalty>
0.525804

> <r_epik_Ionization_Penalty_Charging>
0.259793

> <r_epik_Ionization_Penalty_Neutral>
0.266011

> <r_epik_State_Penalty>
0.517093

> <r_epik_Charging_Adjusted_Penalty>
0.776886

> <i_epik_Tot_Q>
1

> <i_epik_Tot_abs_Q>
1

> <r_epik_Metal_State_Penalty>
0.804287

> <b_epik_Metal_Only>
0

> <s_lp_Force_Field>
OPLS_2005

> <r_lp_Energy>
49.9386

> <b_lp_Chiralities_Consistent>
1

> <s_lp_Variant>
AV-unprocessed.smi:1115-1

> <Gold.Version>
5.8.1

> <Gold.Id.Protein>
6NUR|6NUR_protein|mol2

> <Gold.PLP.Fitness>
51.5952

> <Gold.PLP.PLP>
-52.8700

> <Gold.PLP.part.hbond>
0.0000

> <Gold.PLP.part.metal>
0.0000

> <Gold.PLP.part.buried>
-7.1680

> <Gold.PLP.part.nonpolar>
-46.9725

> <Gold.PLP.part.repulsive>
0.1139

> <Gold.PLP.ligand.clash>
0.0000

> <Gold.PLP.ligand.torsion>
0.6725

> <Gold.PLP.Chemscore.Hbond>
0.0000

> <Gold.PLP.Chemscore.CHOScore>
0.0000

> <Gold.PLP.Chemscore.Metal>
0.0000

> <Gold.PLP.Chemscore.Internal.Correction>
0.0703

> <Gold.Rescore>
     Score         DG    S(hbond)    S(metal)    S(lipo)     H(rot)  DE(clash)    DE(int)     intcor
     13.75     -15.17       0.00        0.00     114.45       1.44       0.09       1.33       ----

> <Gold.Chemscore.Fitness>
13.7528

> <Gold.Chemscore.DG>
-15.1717

> <Gold.Chemscore.ZeroCoef>
-5.4800

> <Gold.Chemscore.Hbond>
0.0000

> <Gold.Chemscore.Metal>
0.0000

> <Gold.Chemscore.Lipo>
114.4462

> <Gold.Chemscore.Internal_Hbond>
0.0000

> <Gold.Chemscore.DEClash>
0.0853

> <Gold.Chemscore.DEInternal>
1.3336

> <Gold.Chemscore.Rot>
1.4447

> <Gold.Chemscore.Internal.Correction>
   9.000000E+99

> <Gold.Chemscore.Hbond.Weighted>
-0.0000

> <Gold.Chemscore.Metal.Weighted>
-0.0000

> <Gold.Chemscore.Lipo.Weighted>
-13.3902

> <Gold.Chemscore.Internal_Hbond.Weighted>
0.0000

> <Gold.Chemscore.DEClash.Weighted>
0.0853

> <Gold.Chemscore.DEInternal.Weighted>
1.3336

> <Gold.Chemscore.Rot.Weighted>
3.6985

> <Gold.Chemscore.Internal.Correction.Weighted>
   9.000000E+99

> <Gold.Protein.RotatedTorsions>
[ 6907 6896 6895 6894 ] final  -28.22 input  -60.11 | X-H torsion
[ 7974 7965 7964 7962 ] final  -44.53 input  175.53 | X-H torsion
[ 8008 7997 7996 7995 ] final -106.97 input   59.86 | X-H torsion
[ 10167 10162 10161 10158 ] final   41.05 input  -65.29 | X-H torsion
[ 10718 10713 10712 10709 ] final  -89.12 input   66.30 | X-H torsion
[ 10763 10752 10751 10750 ] final  170.98 input  -60.55 | X-H torsion
[ 11005 11000 10999 10996 ] final  143.25 input  -57.11 | X-H torsion

> <Gold.Protein.ActiveResidues>
 VAL166  LYS551  ARG553  GLY616  TRP617  ASP618  TYR619  PRO620  LYS621  CYS622 
 ASP623  PHE694  ASN695  SER759  ASP760  ASP761  ALA762  ILE779  LEU786  VAL792 
 PHE793  MET794  SER795  GLU796  ALA797  LYS798  CYS799  TRP800  GLU811  SER814 

> <Gold.Protein.RotatedAtoms>
  151.1360  135.0155  159.8603 H   0  0  0  0  0  0  0  0  0  0  0  0  # atno 6907 bound_to 6896
  152.5452  134.1554  159.8546 H   0  0  0  0  0  0  0  0  0  0  0  0  # atno 6908 bound_to 6896
  151.1626  133.4790  159.2627 H   0  0  0  0  0  0  0  0  0  0  0  0  # atno 6909 bound_to 6896
  145.9911  140.7180  142.9316 H   0  0  0  0  0  0  0  0  0  0  0  0  # atno 7974 bound_to 7965
  154.9224  140.0407  157.2005 H   0  0  0  0  0  0  0  0  0  0  0  0  # atno 8008 bound_to 7997
  154.8240  140.2888  155.5745 H   0  0  0  0  0  0  0  0  0  0  0  0  # atno 8009 bound_to 7997
  156.2982  140.2513  156.3153 H   0  0  0  0  0  0  0  0  0  0  0  0  # atno 8010 bound_to 7997
  140.3682  144.2140  150.6134 H   0  0  0  0  0  0  0  0  0  0  0  0  # atno 10167 bound_to 10162
  155.9984  130.4861  150.5123 H   0  0  0  0  0  0  0  0  0  0  0  0  # atno 10718 bound_to 10713
  154.4053  135.2755  155.2071 H   0  0  0  0  0  0  0  0  0  0  0  0  # atno 10763 bound_to 10752
  154.4079  135.6029  153.5939 H   0  0  0  0  0  0  0  0  0  0  0  0  # atno 10764 bound_to 10752
  152.9831  135.5942  154.4327 H   0  0  0  0  0  0  0  0  0  0  0  0  # atno 10765 bound_to 10752
  140.0540  134.9241  157.1067 H   0  0  0  0  0  0  0  0  0  0  0  0  # atno 11005 bound_to 11000
  144.6889  140.3071  143.7254 LP  0  0  0  0  0  0  0  0  0  0  0  0  # atno 17320 bound_to 7965
  145.7629  139.1831  143.2257 LP  0  0  0  0  0  0  0  0  0  0  0  0  # atno 17321 bound_to 7965
  140.5060  143.2304  151.8607 LP  0  0  0  0  0  0  0  0  0  0  0  0  # atno 17342 bound_to 10162
  139.4806  144.5005  151.9067 LP  0  0  0  0  0  0  0  0  0  0  0  0  # atno 17343 bound_to 10162
  157.3095  131.0661  151.2011 LP  0  0  0  0  0  0  0  0  0  0  0  0  # atno 17370 bound_to 10713
  157.2962  130.6820  149.6140 LP  0  0  0  0  0  0  0  0  0  0  0  0  # atno 17371 bound_to 10713
  140.3874  134.2222  155.7168 LP  0  0  0  0  0  0  0  0  0  0  0  0  # atno 17394 bound_to 11000
  141.1943  133.8131  157.0762 LP  0  0  0  0  0  0  0  0  0  0  0  0  # atno 17395 bound_to 11000

$$$$
