AV-unprocessed.smi:1432|AV-procd|sdf|5834|dock2
  -GOLD-   22720 5493D 1   1.00000     0.00000
 Structure written by MMmdl.
 47 48  0  0  0  0  0  0  0  0  2 V2000
  145.4919  136.8763  152.3209 C   0  0  0  0  0  0  0  0  0  0  0  0
  145.7917  135.3955  152.6351 C   0  0  1  0  0  0  0  0  0  0  0  0
  145.7218  134.5918  151.3154 C   0  0  0  0  0  0  0  0  0  0  0  0
  146.0348  133.1063  151.5168 C   0  0  0  0  0  0  0  0  0  0  0  0
  147.3913  132.9603  152.2066 C   0  0  0  0  0  0  0  0  0  0  0  0
  147.3968  133.7412  153.5265 C   0  0  0  0  0  0  0  0  0  0  0  0
  147.1151  135.1882  153.3088 N   0  3  2  0  0  0  0  0  0  0  0  0
  147.3190  135.9711  154.5631 C   0  0  0  0  0  0  0  0  0  0  0  0
  146.8048  135.2470  155.8268 C   0  0  0  0  0  0  0  0  0  0  0  0
  147.6585  135.5028  156.9844 N   0  0  0  0  0  0  0  0  0  0  0  0
  147.2462  136.0006  158.1603 C   0  0  0  0  0  0  0  0  0  0  0  0
  146.0922  136.3741  158.3702 O   0  0  0  0  0  0  0  0  0  0  0  0
  148.2965  136.0733  159.2752 C   0  0  0  0  0  0  0  0  0  0  0  0
  147.9469  135.2206  160.4242 N   0  0  0  0  0  0  0  0  0  0  0  0
  148.0590  133.8267  160.2537 C   0  0  0  0  0  0  0  0  0  0  0  0
  147.7902  132.9447  161.2359 C   0  0  0  0  0  0  0  0  0  0  0  0
  147.8714  131.4426  161.0123 C   0  0  0  0  0  0  0  0  0  0  0  0
  148.1946  131.1648  159.7491 F   0  0  0  0  0  0  0  0  0  0  0  0
  148.7810  130.8819  161.8104 F   0  0  0  0  0  0  0  0  0  0  0  0
  146.6905  130.8827  161.2704 F   0  0  0  0  0  0  0  0  0  0  0  0
  147.3375  133.4999  162.4960 C   0  0  0  0  0  0  0  0  0  0  0  0
  147.2195  134.8301  162.6746 C   0  0  0  0  0  0  0  0  0  0  0  0
  147.5386  135.7772  161.6047 C   0  0  0  0  0  0  0  0  0  0  0  0
  147.4493  136.9958  161.7590 O   0  0  0  0  0  0  0  0  0  0  0  0
  144.6252  136.9663  151.6654 H   0  0  0  0  0  0  0  0  0  0  0  0
  146.3317  137.3564  151.8179 H   0  0  0  0  0  0  0  0  0  0  0  0
  145.2505  137.4529  153.2128 H   0  0  0  0  0  0  0  0  0  0  0  0
  145.0123  135.0251  153.3034 H   0  0  0  0  0  0  0  0  0  0  0  0
  144.7313  134.6906  150.8693 H   0  0  0  0  0  0  0  0  0  0  0  0
  146.4234  135.0087  150.5919 H   0  0  0  0  0  0  0  0  0  0  0  0
  145.2562  132.6409  152.1227 H   0  0  0  0  0  0  0  0  0  0  0  0
  146.0398  132.5870  150.5578 H   0  0  0  0  0  0  0  0  0  0  0  0
  147.6034  131.9071  152.3937 H   0  0  0  0  0  0  0  0  0  0  0  0
  148.1854  133.3284  151.5547 H   0  0  0  0  0  0  0  0  0  0  0  0
  146.6540  133.3256  154.2092 H   0  0  0  0  0  0  0  0  0  0  0  0
  148.3646  133.6041  154.0059 H   0  0  0  0  0  0  0  0  0  0  0  0
  148.3745  136.1593  154.7396 H   0  0  0  0  0  0  0  0  0  0  0  0
  146.8541  136.9534  154.4681 H   0  0  0  0  0  0  0  0  0  0  0  0
  145.8036  135.6074  156.0637 H   0  0  0  0  0  0  0  0  0  0  0  0
  146.6950  134.1763  155.6511 H   0  0  0  0  0  0  0  0  0  0  0  0
  148.6303  135.2408  156.8986 H   0  0  0  0  0  0  0  0  0  0  0  0
  149.2761  135.7849  158.8882 H   0  0  0  0  0  0  0  0  0  0  0  0
  148.4006  137.1168  159.5756 H   0  0  0  0  0  0  0  0  0  0  0  0
  148.3839  133.5175  159.2708 H   0  0  0  0  0  0  0  0  0  0  0  0
  147.0934  132.8372  163.3133 H   0  0  0  0  0  0  0  0  0  0  0  0
  146.8823  135.2082  163.6285 H   0  0  0  0  0  0  0  0  0  0  0  0
  147.8099  135.5241  152.6567 H   0  0  0  0  0  0  0  0  0  0  0  0
  1  2  1  0  0  0  0
  1 25  1  0  0  0  0
  1 26  1  0  0  0  0
  1 27  1  0  0  0  0
  2  7  1  0  0  0  0
  2  3  1  0  0  0  0
  2 28  1  0  0  0  0
  3  4  1  0  0  0  0
  3 29  1  0  0  0  0
  3 30  1  0  0  0  0
  4  5  1  0  0  0  0
  4 31  1  0  0  0  0
  4 32  1  0  0  0  0
  5  6  1  0  0  0  0
  5 33  1  0  0  0  0
  5 34  1  0  0  0  0
  6  7  1  0  0  0  0
  6 35  1  0  0  0  0
  6 36  1  0  0  0  0
  7  8  1  0  0  0  0
  7 47  1  0  0  0  0
  8  9  1  0  0  0  0
  8 37  1  0  0  0  0
  8 38  1  0  0  0  0
  9 10  1  0  0  0  0
  9 39  1  0  0  0  0
  9 40  1  0  0  0  0
 10 11  1  0  0  0  0
 10 41  1  0  0  0  0
 11 12  2  0  0  0  0
 11 13  1  0  0  0  0
 13 14  1  0  0  0  0
 13 42  1  0  0  0  0
 13 43  1  0  0  0  0
 14 23  1  0  0  0  0
 14 15  1  0  0  0  0
 15 16  2  0  0  0  0
 15 44  1  0  0  0  0
 16 17  1  0  0  0  0
 16 21  1  0  0  0  0
 17 18  1  0  0  0  0
 17 19  1  0  0  0  0
 17 20  1  0  0  0  0
 21 22  2  0  0  0  0
 21 45  1  0  0  0  0
 22 23  1  0  0  0  0
 22 46  1  0  0  0  0
 23 24  2  0  0  0  0
M  CHG  1   7   1
M  END
> <s_m_source_file>
AV-unprocessed.smi

> <i_m_source_file_index>
1432

> <i_lp_mmshare_version>
43012

> <i_f3d_flags>
0

> <s_epik_input>
W0NIM11bQ0BASF0xW0NIMl1bQ0gyXVtDSDJdW0NIMl1OMVtDSDJdW0NIMl1bTkhdQyg9TylbQ0gyXW4yW2NIXWMoQyhGKShGKUYpW2NIXVtjSF1jMj1P

> <s_epik_cmdline>
J2VwaWtfcHl0aG9uJywgJy1waCcsICc3LjAnLCAnLXRuJywgJzgnLCAnLW1hJywgJzIwMCcsICctbWV0YWxfYmluZGluZycsICctaW1hZScsICc8aW5maWxlLm1hZT4nLCAnLW9tYWUnLCAnPG91dGZpbGUubWFlPic=

> <r_lp_tautomer_probability>
1

> <r_epik_Ionization_Penalty>
0.00237222

> <r_epik_Ionization_Penalty_Charging>
0.00237213

> <r_epik_Ionization_Penalty_Neutral>
8.2065e-08

> <r_epik_State_Penalty>
0.00163922

> <r_epik_Charging_Adjusted_Penalty>
0.00401135

> <i_epik_Tot_Q>
1

> <i_epik_Tot_abs_Q>
1

> <r_epik_Metal_State_Penalty>
-0

> <b_epik_Metal_Only>
0

> <s_lp_Force_Field>
OPLS_2005

> <r_lp_Energy>
36.6546

> <b_lp_Chiralities_Consistent>
1

> <s_lp_Variant>
AV-unprocessed.smi:1432-4

> <Gold.Version>
5.8.1

> <Gold.Id.Protein>
6NUR|6NUR_protein|mol2

> <Gold.PLP.Fitness>
46.9201

> <Gold.PLP.PLP>
-38.3693

> <Gold.PLP.part.hbond>
-3.0000

> <Gold.PLP.part.metal>
0.0000

> <Gold.PLP.part.buried>
-3.7060

> <Gold.PLP.part.nonpolar>
-32.1419

> <Gold.PLP.part.repulsive>
0.0000

> <Gold.PLP.ligand.clash>
1.3490

> <Gold.PLP.ligand.torsion>
0.6933

> <Gold.PLP.Chemscore.Hbond>
3.7120

> <Gold.PLP.Chemscore.CHOScore>
0.0000

> <Gold.PLP.Chemscore.Metal>
0.0000

> <Gold.Chemscore.Hbonds>
donor molecule, donor type, donor heavy atom, donor atom, acceptor molecule, acceptor atom, score
      L1  H     7    47       P1  7948  2.00
      P1  H  6931  6943       L1    24  1.00
      P1  H  6934  6947       L1    24  0.48

> <Gold.PLP.Chemscore.Internal.Correction>
0.1504

> <Gold.Rescore>
     Score         DG    S(hbond)    S(metal)    S(lipo)     H(rot)  DE(clash)    DE(int)     intcor
     16.70     -17.59       2.74        0.00      70.80       2.08       0.15       0.74       ----

> <Gold.Chemscore.Fitness>
16.7043

> <Gold.Chemscore.DG>
-17.5914

> <Gold.Chemscore.ZeroCoef>
-5.4800

> <Gold.Chemscore.Hbond>
2.7373

> <Gold.Chemscore.Metal>
0.0000

> <Gold.Chemscore.Lipo>
70.8027

> <Gold.Chemscore.Internal_Hbond>
0.0000

> <Gold.Chemscore.DEClash>
0.1484

> <Gold.Chemscore.DEInternal>
0.7386

> <Gold.Chemscore.Rot>
2.0762

> <Gold.Chemscore.Internal.Correction>
   9.000000E+99

> <Gold.Chemscore.Hbonds>
donor molecule, donor type, donor heavy atom, donor atom, acceptor molecule, acceptor atom, score
      L1  H     7    47       P1  7948  0.94
      P1  H  6931  6943       L1    24  0.90
      P1  H  6934  6947       L1    24  0.47

> <Gold.Chemscore.Hbond.Weighted>
-9.1425

> <Gold.Chemscore.Metal.Weighted>
-0.0000

> <Gold.Chemscore.Lipo.Weighted>
-8.2839

> <Gold.Chemscore.Internal_Hbond.Weighted>
0.0000

> <Gold.Chemscore.DEClash.Weighted>
0.1484

> <Gold.Chemscore.DEInternal.Weighted>
0.7386

> <Gold.Chemscore.Rot.Weighted>
5.3150

> <Gold.Chemscore.Internal.Correction.Weighted>
   9.000000E+99

> <Gold.Protein.RotatedTorsions>
[ 6907 6896 6895 6894 ] final   15.31 input  -60.11 | X-H torsion
[ 7974 7965 7964 7962 ] final   29.56 input  175.53 | X-H torsion
[ 8008 7997 7996 7995 ] final   27.20 input   59.86 | X-H torsion
[ 10167 10162 10161 10158 ] final  131.75 input  -65.29 | X-H torsion
[ 10718 10713 10712 10709 ] final -155.72 input   66.30 | X-H torsion
[ 10763 10752 10751 10750 ] final -164.08 input  -60.55 | X-H torsion
[ 11005 11000 10999 10996 ] final   12.10 input  -57.11 | X-H torsion

> <Gold.Protein.ActiveResidues>
 VAL166  LYS551  ARG553  GLY616  TRP617  ASP618  TYR619  PRO620  LYS621  CYS622 
 ASP623  PHE694  ASN695  SER759  ASP760  ASP761  ALA762  ILE779  LEU786  VAL792 
 PHE793  MET794  SER795  GLU796  ALA797  LYS798  CYS799  TRP800  GLU811  SER814 

> <Gold.Protein.RotatedAtoms>
  151.8161  135.0666  160.0418 H   0  0  0  0  0  0  0  0  0  0  0  0  # atno 6907 bound_to 6896
  152.2985  133.5627  159.5611 H   0  0  0  0  0  0  0  0  0  0  0  0  # atno 6908 bound_to 6896
  150.7262  134.0242  159.3753 H   0  0  0  0  0  0  0  0  0  0  0  0  # atno 6909 bound_to 6896
  146.1664  139.6905  142.8998 H   0  0  0  0  0  0  0  0  0  0  0  0  # atno 7974 bound_to 7965
  155.0392  140.3167  155.4730 H   0  0  0  0  0  0  0  0  0  0  0  0  # atno 8008 bound_to 7997
  156.2858  140.2166  156.5459 H   0  0  0  0  0  0  0  0  0  0  0  0  # atno 8009 bound_to 7997
  154.7304  140.0482  157.0709 H   0  0  0  0  0  0  0  0  0  0  0  0  # atno 8010 bound_to 7997
  139.5370  144.6692  151.4753 H   0  0  0  0  0  0  0  0  0  0  0  0  # atno 10167 bound_to 10162
  156.5167  130.8459  151.2667 H   0  0  0  0  0  0  0  0  0  0  0  0  # atno 10718 bound_to 10713
  154.7062  135.2997  154.9266 H   0  0  0  0  0  0  0  0  0  0  0  0  # atno 10763 bound_to 10752
  154.0182  135.6686  153.4774 H   0  0  0  0  0  0  0  0  0  0  0  0  # atno 10764 bound_to 10752
  153.0719  135.5056  154.8234 H   0  0  0  0  0  0  0  0  0  0  0  0  # atno 10765 bound_to 10752
  140.4957  134.0796  155.7781 H   0  0  0  0  0  0  0  0  0  0  0  0  # atno 11005 bound_to 11000
  145.4456  141.0425  143.2833 LP  0  0  0  0  0  0  0  0  0  0  0  0  # atno 17320 bound_to 7965
  144.8099  139.5982  143.7034 LP  0  0  0  0  0  0  0  0  0  0  0  0  # atno 17321 bound_to 7965
  140.6581  143.8556  150.6857 LP  0  0  0  0  0  0  0  0  0  0  0  0  # atno 17342 bound_to 10162
  140.1942  143.4011  152.1840 LP  0  0  0  0  0  0  0  0  0  0  0  0  # atno 17343 bound_to 10162
  157.7443  130.9931  150.2660 LP  0  0  0  0  0  0  0  0  0  0  0  0  # atno 17370 bound_to 10713
  156.3188  130.3783  149.7594 LP  0  0  0  0  0  0  0  0  0  0  0  0  # atno 17371 bound_to 10713
  141.1461  133.9052  157.2211 LP  0  0  0  0  0  0  0  0  0  0  0  0  # atno 17394 bound_to 11000
  139.9743  135.0119  156.9590 LP  0  0  0  0  0  0  0  0  0  0  0  0  # atno 17395 bound_to 11000

$$$$
