AV-unprocessed.smi:2147|AV-procd|sdf|8744|dock7
  -GOLD-   2272011523D 1   1.00000     0.00000
 Structure written by MMmdl.
 42 44  0  0  0  0  0  0  0  0  2 V2000
  147.4178  134.5453  161.7460 C   0  0  0  0  0  0  0  0  0  0  0  0
  148.2362  135.8017  161.4534 C   0  0  0  0  0  0  0  0  0  0  0  0
  148.5408  136.5401  162.3897 O   0  0  0  0  0  0  0  0  0  0  0  0
  148.6239  136.0651  160.0382 C   0  0  0  0  0  0  0  0  0  0  0  0
  147.8369  135.6149  158.9531 C   0  0  0  0  0  0  0  0  0  0  0  0
  148.2295  135.8820  157.6276 C   0  0  0  0  0  0  0  0  0  0  0  0
  149.4090  136.6010  157.3516 C   0  0  0  0  0  0  0  0  0  0  0  0
  149.7146  136.8187  156.0254 O   0  0  0  0  0  0  0  0  0  0  0  0
  150.9399  137.4690  155.7148 C   0  0  0  0  0  0  0  0  0  0  0  0
  150.7329  138.9884  155.8007 C   0  0  2  0  0  0  0  0  0  0  0  0
  150.9903  139.5464  154.5274 O   0  0  0  0  0  0  0  0  0  0  0  0
  151.6390  139.6441  156.8624 C   0  0  0  0  0  0  0  0  0  0  0  0
  151.3389  141.0677  157.0718 N   0  0  0  0  0  0  0  0  0  0  0  0
  150.5754  141.9117  156.3261 C   0  0  0  0  0  0  0  0  0  0  0  0
  150.5975  143.1312  156.9320 N   0  3  0  0  0  0  0  0  0  0  0  0
  151.3880  143.0668  158.0812 C   0  0  0  0  0  0  0  0  0  0  0  0
  151.7109  144.0418  159.0200 C   0  0  0  0  0  0  0  0  0  0  0  0
  152.5514  143.6453  160.0809 C   0  0  0  0  0  0  0  0  0  0  0  0
  153.0369  142.3252  160.1793 C   0  0  0  0  0  0  0  0  0  0  0  0
  152.7015  141.3445  159.2227 C   0  0  0  0  0  0  0  0  0  0  0  0
  151.8692  141.7437  158.1771 C   0  0  0  0  0  0  0  0  0  0  0  0
  150.1993  137.0510  158.4374 C   0  0  0  0  0  0  0  0  0  0  0  0
  149.8082  136.7853  159.7639 C   0  0  0  0  0  0  0  0  0  0  0  0
  146.4670  134.5757  161.2136 H   0  0  0  0  0  0  0  0  0  0  0  0
  147.2084  134.4656  162.8129 H   0  0  0  0  0  0  0  0  0  0  0  0
  147.9644  133.6536  161.4388 H   0  0  0  0  0  0  0  0  0  0  0  0
  146.9239  135.0613  159.1130 H   0  0  0  0  0  0  0  0  0  0  0  0
  147.6151  135.5306  156.8116 H   0  0  0  0  0  0  0  0  0  0  0  0
  151.7292  137.1606  156.4029 H   0  0  0  0  0  0  0  0  0  0  0  0
  151.2459  137.1952  154.7034 H   0  0  0  0  0  0  0  0  0  0  0  0
  149.6883  139.1918  156.0398 H   0  0  0  0  0  0  0  0  0  0  0  0
  150.4543  139.0997  153.8897 H   0  0  0  0  0  0  0  0  0  0  0  0
  151.5027  139.1473  157.8238 H   0  0  0  0  0  0  0  0  0  0  0  0
  152.6936  139.5314  156.6104 H   0  0  0  0  0  0  0  0  0  0  0  0
  150.0459  141.6586  155.4189 H   0  0  0  0  0  0  0  0  0  0  0  0
  151.3413  145.0541  158.9467 H   0  0  0  0  0  0  0  0  0  0  0  0
  152.8307  144.3686  160.8334 H   0  0  0  0  0  0  0  0  0  0  0  0
  153.6813  142.0586  161.0044 H   0  0  0  0  0  0  0  0  0  0  0  0
  153.0839  140.3379  159.3047 H   0  0  0  0  0  0  0  0  0  0  0  0
  151.1128  137.6040  158.2809 H   0  0  0  0  0  0  0  0  0  0  0  0
  150.4326  137.1434  160.5700 H   0  0  0  0  0  0  0  0  0  0  0  0
  150.1082  143.9460  156.5844 H   0  0  0  0  0  0  0  0  0  0  0  0
  1  2  1  0  0  0  0
  1 24  1  0  0  0  0
  1 25  1  0  0  0  0
  1 26  1  0  0  0  0
  2  3  2  0  0  0  0
  2  4  1  0  0  0  0
  4 23  1  0  0  0  0
  4  5  2  0  0  0  0
  5  6  1  0  0  0  0
  5 27  1  0  0  0  0
  6  7  2  0  0  0  0
  6 28  1  0  0  0  0
  7  8  1  0  0  0  0
  7 22  1  0  0  0  0
  8  9  1  0  0  0  0
  9 10  1  0  0  0  0
  9 29  1  0  0  0  0
  9 30  1  0  0  0  0
 10 11  1  0  0  0  0
 10 12  1  0  0  0  0
 10 31  1  0  0  0  0
 11 32  1  0  0  0  0
 12 13  1  0  0  0  0
 12 33  1  0  0  0  0
 12 34  1  0  0  0  0
 13 21  1  0  0  0  0
 13 14  1  0  0  0  0
 14 15  2  0  0  0  0
 14 35  1  0  0  0  0
 15 16  1  0  0  0  0
 15 42  1  0  0  0  0
 16 21  2  0  0  0  0
 16 17  1  0  0  0  0
 17 18  2  0  0  0  0
 17 36  1  0  0  0  0
 18 19  1  0  0  0  0
 18 37  1  0  0  0  0
 19 20  2  0  0  0  0
 19 38  1  0  0  0  0
 20 21  1  0  0  0  0
 20 39  1  0  0  0  0
 22 23  2  0  0  0  0
 22 40  1  0  0  0  0
 23 41  1  0  0  0  0
M  CHG  1  15   1
M  END
> <s_m_source_file>
AV-unprocessed.smi

> <i_m_source_file_index>
2147

> <i_lp_mmshare_version>
43012

> <i_f3d_flags>
0

> <s_epik_input>
W0NIM11DKD1PKWMxW2NIXVtjSF1jKFtjSF1bY0hdMSlPW0NIMl1bQ0BIXShbT0hdKVtDSDJdbihbY0hdbjIpYyhjMjMpW2NIXVtjSF1bY0hdW2NIXTM=

> <s_epik_cmdline>
J2VwaWtfcHl0aG9uJywgJy1waCcsICc3LjAnLCAnLXRuJywgJzgnLCAnLW1hJywgJzIwMCcsICctbWV0YWxfYmluZGluZycsICctaW1hZScsICc8aW5maWxlLm1hZT4nLCAnLW9tYWUnLCAnPG91dGZpbGUubWFlPic=

> <r_lp_tautomer_probability>
0.99995

> <r_epik_Ionization_Penalty>
1.40272

> <r_epik_Ionization_Penalty_Charging>
1.40272

> <r_epik_Ionization_Penalty_Neutral>
2.3993e-06

> <r_epik_State_Penalty>
1.48501

> <r_epik_Charging_Adjusted_Penalty>
2.88772

> <i_epik_Tot_Q>
1

> <i_epik_Tot_abs_Q>
1

> <r_epik_Metal_State_Penalty>
5.5274

> <b_epik_Metal_Only>
0

> <s_lp_Force_Field>
OPLS_2005

> <r_lp_Energy>
26.2273

> <b_lp_Chiralities_Consistent>
1

> <s_lp_Variant>
AV-unprocessed.smi:2147-3

> <Gold.Version>
5.8.1

> <Gold.Id.Protein>
6NUR|6NUR_protein|mol2

> <Gold.PLP.Fitness>
53.4278

> <Gold.PLP.PLP>
-44.1637

> <Gold.PLP.part.hbond>
-3.0000

> <Gold.PLP.part.metal>
0.0000

> <Gold.PLP.part.buried>
-6.0801

> <Gold.PLP.part.nonpolar>
-35.6804

> <Gold.PLP.part.repulsive>
0.0744

> <Gold.PLP.ligand.clash>
0.0000

> <Gold.PLP.ligand.torsion>
1.4148

> <Gold.PLP.Chemscore.Hbond>
4.0000

> <Gold.PLP.Chemscore.CHOScore>
0.0000

> <Gold.PLP.Chemscore.Metal>
0.0000

> <Gold.Chemscore.Hbonds>
donor molecule, donor type, donor heavy atom, donor atom, acceptor molecule, acceptor atom, score
      L1  H    15    42       P1  8028  2.00
      P1  H  6931  6943       L1     3  1.00
      P1  H  7989  7998       L1    11  0.95

> <Gold.PLP.Chemscore.Internal.Correction>
0.0938

> <Gold.Rescore>
     Score         DG    S(hbond)    S(metal)    S(lipo)     H(rot)  DE(clash)    DE(int)     intcor
     19.36     -20.86       2.83        0.00     104.98       2.48       0.00       1.50       ----

> <Gold.Chemscore.Fitness>
19.3601

> <Gold.Chemscore.DG>
-20.8562

> <Gold.Chemscore.ZeroCoef>
-5.4800

> <Gold.Chemscore.Hbond>
2.8302

> <Gold.Chemscore.Metal>
0.0000

> <Gold.Chemscore.Lipo>
104.9806

> <Gold.Chemscore.Internal_Hbond>
0.0000

> <Gold.Chemscore.DEClash>
0.0000

> <Gold.Chemscore.DEInternal>
1.4960

> <Gold.Chemscore.Rot>
2.4842

> <Gold.Chemscore.Internal.Correction>
   9.000000E+99

> <Gold.Chemscore.Hbonds>
donor molecule, donor type, donor heavy atom, donor atom, acceptor molecule, acceptor atom, score
      L1  H    15    42       P1  8028  0.98
      P1  H  6931  6943       L1     3  0.92
      P1  H  7989  7998       L1    11  0.22

> <Gold.Chemscore.Hbond.Weighted>
-9.4529

> <Gold.Chemscore.Metal.Weighted>
-0.0000

> <Gold.Chemscore.Lipo.Weighted>
-12.2827

> <Gold.Chemscore.Internal_Hbond.Weighted>
0.0000

> <Gold.Chemscore.DEClash.Weighted>
0.0000

> <Gold.Chemscore.DEInternal.Weighted>
1.4960

> <Gold.Chemscore.Rot.Weighted>
6.3594

> <Gold.Chemscore.Internal.Correction.Weighted>
   9.000000E+99

> <Gold.Protein.RotatedTorsions>
[ 6907 6896 6895 6894 ] final -161.76 input  -60.11 | X-H torsion
[ 7974 7965 7964 7962 ] final   21.57 input  175.53 | X-H torsion
[ 8008 7997 7996 7995 ] final -175.27 input   59.86 | X-H torsion
[ 10167 10162 10161 10158 ] final   91.34 input  -65.29 | X-H torsion
[ 10718 10713 10712 10709 ] final   15.30 input   66.30 | X-H torsion
[ 10763 10752 10751 10750 ] final  -33.00 input  -60.55 | X-H torsion
[ 11005 11000 10999 10996 ] final  -78.33 input  -57.11 | X-H torsion

> <Gold.Protein.ActiveResidues>
 VAL166  LYS551  ARG553  GLY616  TRP617  ASP618  TYR619  PRO620  LYS621  CYS622 
 ASP623  PHE694  ASN695  SER759  ASP760  ASP761  ALA762  ILE779  LEU786  VAL792 
 PHE793  MET794  SER795  GLU796  ALA797  LYS798  CYS799  TRP800  GLU811  SER814 

> <Gold.Protein.RotatedAtoms>
  151.3696  133.3859  159.2698 H   0  0  0  0  0  0  0  0  0  0  0  0  # atno 6907 bound_to 6896
  150.9661  134.9043  159.7770 H   0  0  0  0  0  0  0  0  0  0  0  0  # atno 6908 bound_to 6896
  152.5167  134.3657  159.9352 H   0  0  0  0  0  0  0  0  0  0  0  0  # atno 6909 bound_to 6896
  146.2065  139.8008  142.8721 H   0  0  0  0  0  0  0  0  0  0  0  0  # atno 7974 bound_to 7965
  155.9805  140.1181  157.0730 H   0  0  0  0  0  0  0  0  0  0  0  0  # atno 8008 bound_to 7997
  154.4181  140.1145  156.5497 H   0  0  0  0  0  0  0  0  0  0  0  0  # atno 8009 bound_to 7997
  155.6477  140.3473  155.4739 H   0  0  0  0  0  0  0  0  0  0  0  0  # atno 8010 bound_to 7997
  139.8384  144.6653  150.9314 H   0  0  0  0  0  0  0  0  0  0  0  0  # atno 10167 bound_to 10162
  157.0515  130.6271  149.5768 H   0  0  0  0  0  0  0  0  0  0  0  0  # atno 10718 bound_to 10713
  153.8230  135.6872  153.4824 H   0  0  0  0  0  0  0  0  0  0  0  0  # atno 10763 bound_to 10752
  153.1557  135.4600  154.9699 H   0  0  0  0  0  0  0  0  0  0  0  0  # atno 10764 bound_to 10752
  154.7919  135.3305  154.7701 H   0  0  0  0  0  0  0  0  0  0  0  0  # atno 10765 bound_to 10752
  141.1664  133.7059  156.7955 H   0  0  0  0  0  0  0  0  0  0  0  0  # atno 11005 bound_to 11000
  145.3298  141.0264  143.3452 LP  0  0  0  0  0  0  0  0  0  0  0  0  # atno 17320 bound_to 7965
  144.8807  139.4909  143.6724 LP  0  0  0  0  0  0  0  0  0  0  0  0  # atno 17321 bound_to 7965
  140.7800  143.3936  151.1268 LP  0  0  0  0  0  0  0  0  0  0  0  0  # atno 17342 bound_to 10162
  139.7584  143.8672  152.3094 LP  0  0  0  0  0  0  0  0  0  0  0  0  # atno 17343 bound_to 10162
  156.0006  130.5084  150.7649 LP  0  0  0  0  0  0  0  0  0  0  0  0  # atno 17370 bound_to 10713
  157.5027  131.0920  151.0295 LP  0  0  0  0  0  0  0  0  0  0  0  0  # atno 17371 bound_to 10713
  140.2294  134.8697  157.3461 LP  0  0  0  0  0  0  0  0  0  0  0  0  # atno 17394 bound_to 11000
  140.1906  134.4376  155.7718 LP  0  0  0  0  0  0  0  0  0  0  0  0  # atno 17395 bound_to 11000

$$$$
