AV-unprocessed.smi:1376|AV-procd|sdf|5590|dock10
  -GOLD-   22720 5193D 1   1.00000     0.00000
 Structure written by MMmdl.
 42 43  0  0  0  0  0  0  0  0  1 V2000
  151.0808  141.1394  157.0997 O   0  0  0  0  0  0  0  0  0  0  0  0
  150.8205  142.2357  156.6022 C   0  0  0  0  0  0  0  0  0  0  0  0
  151.7024  143.4589  156.8902 C   0  0  0  0  0  0  0  0  0  0  0  0
  151.7679  143.8054  158.3198 N   0  0  0  0  0  0  0  0  0  0  0  0
  151.3027  145.0822  158.6932 C   0  0  0  0  0  0  0  0  0  0  0  0
  151.3166  145.4978  159.9695 C   0  0  0  0  0  0  0  0  0  0  0  0
  151.8259  144.5962  160.9753 C   0  0  0  0  0  0  0  0  0  0  0  0
  152.2777  143.3745  160.6286 C   0  0  0  0  0  0  0  0  0  0  0  0
  152.2686  142.9177  159.2339 C   0  0  0  0  0  0  0  0  0  0  0  0
  152.6841  141.8053  158.9076 O   0  0  0  0  0  0  0  0  0  0  0  0
  149.7870  142.4395  155.7712 N   0  0  0  0  0  0  0  0  0  0  0  0
  148.8261  141.4234  155.3517 C   0  0  2  0  0  0  0  0  0  0  0  0
  149.5497  140.2410  154.6765 C   0  0  0  0  0  0  0  0  0  0  0  0
  148.5504  139.1965  154.1564 C   0  0  0  0  0  0  0  0  0  0  0  0
  147.5202  139.8298  153.2061 C   0  0  0  0  0  0  0  0  0  0  0  0
  146.7856  141.0118  153.8637 C   0  0  1  0  0  0  0  0  0  0  0  0
  145.9734  140.4881  154.9089 O   0  0  0  0  0  0  0  0  0  0  0  0
  145.2232  141.4579  155.6273 C   0  0  0  0  0  0  0  0  0  0  0  0
  144.2205  140.7439  156.5419 C   0  0  0  0  0  0  0  0  0  0  0  0
  143.4926  141.6520  157.1907 F   0  0  0  0  0  0  0  0  0  0  0  0
  143.4033  139.9773  155.8202 F   0  0  0  0  0  0  0  0  0  0  0  0
  144.8652  139.9942  157.4355 F   0  0  0  0  0  0  0  0  0  0  0  0
  147.7963  142.0522  154.3937 C   0  0  0  0  0  0  0  0  0  0  0  0
  152.7008  143.2550  156.5013 H   0  0  0  0  0  0  0  0  0  0  0  0
  151.3414  144.3127  156.3135 H   0  0  0  0  0  0  0  0  0  0  0  0
  150.9456  145.6978  157.8802 H   0  0  0  0  0  0  0  0  0  0  0  0
  150.9601  146.4818  160.2363 H   0  0  0  0  0  0  0  0  0  0  0  0
  151.8458  144.9031  162.0106 H   0  0  0  0  0  0  0  0  0  0  0  0
  152.6558  142.7135  161.3945 H   0  0  0  0  0  0  0  0  0  0  0  0
  149.6531  143.3704  155.4036 H   0  0  0  0  0  0  0  0  0  0  0  0
  148.2910  141.0561  156.2300 H   0  0  0  0  0  0  0  0  0  0  0  0
  150.1567  140.6043  153.8459 H   0  0  0  0  0  0  0  0  0  0  0  0
  150.2382  139.7688  155.3785 H   0  0  0  0  0  0  0  0  0  0  0  0
  149.0838  138.3953  153.6443 H   0  0  0  0  0  0  0  0  0  0  0  0
  148.0361  138.7338  154.9998 H   0  0  0  0  0  0  0  0  0  0  0  0
  148.0283  140.1763  152.3052 H   0  0  0  0  0  0  0  0  0  0  0  0
  146.8007  139.0774  152.8816 H   0  0  0  0  0  0  0  0  0  0  0  0
  146.1472  141.4741  153.1091 H   0  0  0  0  0  0  0  0  0  0  0  0
  145.8790  142.0888  156.2270 H   0  0  0  0  0  0  0  0  0  0  0  0
  144.6890  142.1076  154.9326 H   0  0  0  0  0  0  0  0  0  0  0  0
  147.2820  142.8778  154.8848 H   0  0  0  0  0  0  0  0  0  0  0  0
  148.3199  142.4936  153.5443 H   0  0  0  0  0  0  0  0  0  0  0  0
  1  2  2  0  0  0  0
  2  3  1  0  0  0  0
  2 11  1  0  0  0  0
  3  4  1  0  0  0  0
  3 24  1  0  0  0  0
  3 25  1  0  0  0  0
  4  9  1  0  0  0  0
  4  5  1  0  0  0  0
  5  6  2  0  0  0  0
  5 26  1  0  0  0  0
  6  7  1  0  0  0  0
  6 27  1  0  0  0  0
  7  8  2  0  0  0  0
  7 28  1  0  0  0  0
  8  9  1  0  0  0  0
  8 29  1  0  0  0  0
  9 10  2  0  0  0  0
 11 12  1  0  0  0  0
 11 30  1  0  0  0  0
 12 23  1  0  0  0  0
 12 13  1  0  0  0  0
 12 31  1  0  0  0  0
 13 14  1  0  0  0  0
 13 32  1  0  0  0  0
 13 33  1  0  0  0  0
 14 15  1  0  0  0  0
 14 34  1  0  0  0  0
 14 35  1  0  0  0  0
 15 16  1  0  0  0  0
 15 36  1  0  0  0  0
 15 37  1  0  0  0  0
 16 17  1  0  0  0  0
 16 23  1  0  0  0  0
 16 38  1  0  0  0  0
 17 18  1  0  0  0  0
 18 19  1  0  0  0  0
 18 39  1  0  0  0  0
 18 40  1  0  0  0  0
 19 20  1  0  0  0  0
 19 21  1  0  0  0  0
 19 22  1  0  0  0  0
 23 41  1  0  0  0  0
 23 42  1  0  0  0  0
M  END
> <s_m_source_file>
AV-unprocessed.smi

> <i_m_source_file_index>
1376

> <i_lp_mmshare_version>
43012

> <i_f3d_flags>
0

> <s_epik_input>
Tz1jMVtjSF1bY0hdW2NIXVtjSF1uMVtDSDJdQyg9TylbTkhdW0NAQEhdMltDSDJdW0NIMl1bQ0gyXVtDQEhdKFtDSDJdMilPW0NIMl1DKEYpKEYpRg==

> <s_epik_cmdline>
J2VwaWtfcHl0aG9uJywgJy1waCcsICc3LjAnLCAnLXRuJywgJzgnLCAnLW1hJywgJzIwMCcsICctbWV0YWxfYmluZGluZycsICctaW1hZScsICc8aW5maWxlLm1hZT4nLCAnLW9tYWUnLCAnPG91dGZpbGUubWFlPic=

> <r_lp_tautomer_probability>
1

> <r_epik_Ionization_Penalty>
4.08567e-07

> <r_epik_Ionization_Penalty_Charging>
3.90028e-07

> <r_epik_Ionization_Penalty_Neutral>
1.85393e-08

> <r_epik_State_Penalty>
-0

> <r_epik_Charging_Adjusted_Penalty>
3.90028e-07

> <i_epik_Tot_Q>
0

> <i_epik_Tot_abs_Q>
0

> <r_epik_Metal_State_Penalty>
-0

> <b_epik_Metal_Only>
0

> <s_lp_Force_Field>
OPLS_2005

> <r_lp_Energy>
21.1399

> <b_lp_Chiralities_Consistent>
1

> <s_lp_Variant>
AV-unprocessed.smi:1376-1

> <Gold.Version>
5.8.1

> <Gold.Id.Protein>
6NUR|6NUR_protein|mol2

> <Gold.PLP.Fitness>
45.0060

> <Gold.PLP.PLP>
-42.3046

> <Gold.PLP.part.hbond>
-1.0000

> <Gold.PLP.part.metal>
0.0000

> <Gold.PLP.part.buried>
-3.7309

> <Gold.PLP.part.nonpolar>
-38.5637

> <Gold.PLP.part.repulsive>
0.2708

> <Gold.PLP.ligand.clash>
0.0000

> <Gold.PLP.ligand.torsion>
0.0320

> <Gold.PLP.Chemscore.Hbond>
0.9120

> <Gold.PLP.Chemscore.CHOScore>
0.0000

> <Gold.PLP.Chemscore.Metal>
0.0000

> <Gold.Chemscore.Hbonds>
donor molecule, donor type, donor heavy atom, donor atom, acceptor molecule, acceptor atom, score
      L1  H    11    30       P1  8028  0.88

> <Gold.PLP.Chemscore.Internal.Correction>
0.0293

> <Gold.Rescore>
     Score         DG    S(hbond)    S(metal)    S(lipo)     H(rot)  DE(clash)    DE(int)     intcor
     10.97     -13.86       0.81        0.00      96.13       2.18       1.27       1.62       ----

> <Gold.Chemscore.Fitness>
10.9729

> <Gold.Chemscore.DG>
-13.8640

> <Gold.Chemscore.ZeroCoef>
-5.4800

> <Gold.Chemscore.Hbond>
0.8135

> <Gold.Chemscore.Metal>
0.0000

> <Gold.Chemscore.Lipo>
96.1289

> <Gold.Chemscore.Internal_Hbond>
0.0000

> <Gold.Chemscore.DEClash>
1.2711

> <Gold.Chemscore.DEInternal>
1.6201

> <Gold.Chemscore.Rot>
2.1797

> <Gold.Chemscore.Internal.Correction>
   9.000000E+99

> <Gold.Chemscore.Hbonds>
donor molecule, donor type, donor heavy atom, donor atom, acceptor molecule, acceptor atom, score
      L1  H    11    30       P1  8028  0.84

> <Gold.Chemscore.Hbond.Weighted>
-2.7171

> <Gold.Chemscore.Metal.Weighted>
-0.0000

> <Gold.Chemscore.Lipo.Weighted>
-11.2471

> <Gold.Chemscore.Internal_Hbond.Weighted>
0.0000

> <Gold.Chemscore.DEClash.Weighted>
1.2711

> <Gold.Chemscore.DEInternal.Weighted>
1.6201

> <Gold.Chemscore.Rot.Weighted>
5.5802

> <Gold.Chemscore.Internal.Correction.Weighted>
   9.000000E+99

> <Gold.Protein.RotatedTorsions>
[ 6907 6896 6895 6894 ] final  -97.27 input  -60.11 | X-H torsion
[ 7974 7965 7964 7962 ] final  179.12 input  175.53 | X-H torsion
[ 8008 7997 7996 7995 ] final  136.68 input   59.86 | X-H torsion
[ 10167 10162 10161 10158 ] final   97.65 input  -65.29 | X-H torsion
[ 10718 10713 10712 10709 ] final  -35.06 input   66.30 | X-H torsion
[ 10763 10752 10751 10750 ] final -148.69 input  -60.55 | X-H torsion
[ 11005 11000 10999 10996 ] final   69.69 input  -57.11 | X-H torsion

> <Gold.Protein.ActiveResidues>
 VAL166  LYS551  ARG553  GLY616  TRP617  ASP618  TYR619  PRO620  LYS621  CYS622 
 ASP623  PHE694  ASN695  SER759  ASP760  ASP761  ALA762  ILE779  LEU786  VAL792 
 PHE793  MET794  SER795  GLU796  ALA797  LYS798  CYS799  TRP800  GLU811  SER814 

> <Gold.Protein.RotatedAtoms>
  150.7012  134.1374  159.4091 H   0  0  0  0  0  0  0  0  0  0  0  0  # atno 6907 bound_to 6896
  151.9359  135.0233  160.0542 H   0  0  0  0  0  0  0  0  0  0  0  0  # atno 6908 bound_to 6896
  152.2136  133.4894  159.5160 H   0  0  0  0  0  0  0  0  0  0  0  0  # atno 6909 bound_to 6896
  144.7149  140.0500  143.6435 H   0  0  0  0  0  0  0  0  0  0  0  0  # atno 7974 bound_to 7965
  156.3004  140.2439  156.3786 H   0  0  0  0  0  0  0  0  0  0  0  0  # atno 8008 bound_to 7997
  154.8722  140.0415  157.1751 H   0  0  0  0  0  0  0  0  0  0  0  0  # atno 8009 bound_to 7997
  154.8783  140.2945  155.5444 H   0  0  0  0  0  0  0  0  0  0  0  0  # atno 8010 bound_to 7997
  139.7781  144.6898  151.0060 H   0  0  0  0  0  0  0  0  0  0  0  0  # atno 10167 bound_to 10162
  156.3432  130.4297  149.7769 H   0  0  0  0  0  0  0  0  0  0  0  0  # atno 10718 bound_to 10713
  154.8219  135.3328  154.7013 H   0  0  0  0  0  0  0  0  0  0  0  0  # atno 10763 bound_to 10752
  153.7644  135.6930  153.4923 H   0  0  0  0  0  0  0  0  0  0  0  0  # atno 10764 bound_to 10752
  153.2087  135.4490  155.0303 H   0  0  0  0  0  0  0  0  0  0  0  0  # atno 10765 bound_to 10752
  139.9640  134.7013  156.0586 H   0  0  0  0  0  0  0  0  0  0  0  0  # atno 11005 bound_to 11000
  145.9952  139.3047  143.0961 LP  0  0  0  0  0  0  0  0  0  0  0  0  # atno 17320 bound_to 7965
  145.8857  140.9335  143.0578 LP  0  0  0  0  0  0  0  0  0  0  0  0  # atno 17321 bound_to 7965
  140.7817  143.4513  151.0409 LP  0  0  0  0  0  0  0  0  0  0  0  0  # atno 17342 bound_to 10162
  139.8194  143.7840  152.3176 LP  0  0  0  0  0  0  0  0  0  0  0  0  # atno 17343 bound_to 10162
  156.4998  130.8123  151.3128 LP  0  0  0  0  0  0  0  0  0  0  0  0  # atno 17370 bound_to 10713
  157.7450  130.9948  150.2722 LP  0  0  0  0  0  0  0  0  0  0  0  0  # atno 17371 bound_to 10713
  141.1318  133.6584  156.3486 LP  0  0  0  0  0  0  0  0  0  0  0  0  # atno 17394 bound_to 11000
  140.5438  134.6094  157.5388 LP  0  0  0  0  0  0  0  0  0  0  0  0  # atno 17395 bound_to 11000

$$$$
