AV-unprocessed.smi:79|AV-procd|sdf|778|dock9
  -GOLD-   2262017133D 1   1.00000     0.00000
 Structure written by MMmdl.
 56 59  0  0  0  0  0  0  0  0  2 V2000
  144.4894  133.9656  151.0516 C   0  0  0  0  0  0  0  0  0  0  0  0
  145.2398  135.2464  150.6649 C   0  0  1  0  0  0  0  0  0  0  0  0
  144.7045  135.7207  149.4459 O   0  0  0  0  0  0  0  0  0  0  0  0
  145.1039  136.3451  151.7371 C   0  0  0  0  0  0  0  0  0  0  0  0
  146.1478  136.2414  152.7882 N   0  3  2  0  0  0  0  0  0  0  0  0
  146.3919  134.8473  153.2440 C   0  0  0  0  0  0  0  0  0  0  0  0
  147.5508  134.7903  154.2536 C   0  0  0  0  0  0  0  0  0  0  0  0
  147.3164  135.7162  155.3594 N   0  0  0  0  0  0  0  0  0  0  0  0
  146.6741  135.1826  156.4311 C   0  0  0  0  0  0  0  0  0  0  0  0
  145.4109  134.6976  156.2976 N   0  0  0  0  0  0  0  0  0  0  0  0
  144.7816  134.1566  157.3445 C   0  0  0  0  0  0  0  0  0  0  0  0
  145.2216  134.0059  158.5947 N   0  0  0  0  0  0  0  0  0  0  0  0
  146.4842  134.5001  158.7400 C   0  0  0  0  0  0  0  0  0  0  0  0
  147.2760  135.0951  157.7178 C   0  0  0  0  0  0  0  0  0  0  0  0
  148.5070  135.4777  158.2356 N   0  0  0  0  0  0  0  0  0  0  0  0
  148.4488  135.1238  159.4903 C   0  0  0  0  0  0  0  0  0  0  0  0
  147.2636  134.5441  159.8843 N   0  0  0  0  0  0  0  0  0  0  0  0
  146.9293  134.0615  161.2170 C   0  0  0  0  0  0  0  0  0  0  0  0
  146.4673  135.1631  162.1960 C   0  0  0  0  0  0  0  0  0  0  0  0
  145.1152  134.7931  162.8284 C   0  0  0  0  0  0  0  0  0  0  0  0
  144.1215  134.6101  161.8409 O   0  0  0  0  0  0  0  0  0  0  0  0
  147.5433  135.6452  163.1786 C   0  0  0  0  0  0  0  0  0  0  0  0
  147.7130  136.8996  162.4859 O   0  0  0  0  0  0  0  0  0  0  0  0
  146.5619  136.6026  161.6681 C   0  0  0  0  0  0  0  0  0  0  0  0
  147.0350  137.1034  154.9745 C   0  0  1  0  0  0  0  0  0  0  0  0
  148.3059  137.8139  154.4771 C   0  0  0  0  0  0  0  0  0  0  0  0
  145.8989  137.1632  153.9277 C   0  0  0  0  0  0  0  0  0  0  0  0
  144.8818  133.5480  151.9794 H   0  0  0  0  0  0  0  0  0  0  0  0
  144.5917  133.2015  150.2801 H   0  0  0  0  0  0  0  0  0  0  0  0
  143.4249  134.1533  151.1964 H   0  0  0  0  0  0  0  0  0  0  0  0
  146.2869  134.9934  150.5019 H   0  0  0  0  0  0  0  0  0  0  0  0
  144.5679  136.6535  149.5159 H   0  0  0  0  0  0  0  0  0  0  0  0
  145.1675  137.3175  151.2456 H   0  0  0  0  0  0  0  0  0  0  0  0
  144.1186  136.3074  152.2047 H   0  0  0  0  0  0  0  0  0  0  0  0
  145.4830  134.4520  153.7007 H   0  0  0  0  0  0  0  0  0  0  0  0
  146.6262  134.2013  152.3993 H   0  0  0  0  0  0  0  0  0  0  0  0
  147.6745  133.7659  154.6043 H   0  0  0  0  0  0  0  0  0  0  0  0
  148.4877  135.0554  153.7636 H   0  0  0  0  0  0  0  0  0  0  0  0
  143.7825  133.7926  157.1541 H   0  0  0  0  0  0  0  0  0  0  0  0
  149.2784  135.2778  160.1647 H   0  0  0  0  0  0  0  0  0  0  0  0
  146.1689  133.2858  161.1213 H   0  0  0  0  0  0  0  0  0  0  0  0
  147.8105  133.5534  161.6116 H   0  0  0  0  0  0  0  0  0  0  0  0
  145.1955  133.8630  163.3918 H   0  0  0  0  0  0  0  0  0  0  0  0
  144.7815  135.5473  163.5409 H   0  0  0  0  0  0  0  0  0  0  0  0
  143.3836  134.1702  162.2348 H   0  0  0  0  0  0  0  0  0  0  0  0
  147.1815  135.7907  164.1976 H   0  0  0  0  0  0  0  0  0  0  0  0
  148.4509  135.0407  163.1730 H   0  0  0  0  0  0  0  0  0  0  0  0
  146.7847  136.6839  160.6052 H   0  0  0  0  0  0  0  0  0  0  0  0
  145.7075  137.2286  161.9301 H   0  0  0  0  0  0  0  0  0  0  0  0
  146.7111  137.6564  155.8574 H   0  0  0  0  0  0  0  0  0  0  0  0
  148.1083  138.8660  154.2709 H   0  0  0  0  0  0  0  0  0  0  0  0
  148.6949  137.3680  153.5615 H   0  0  0  0  0  0  0  0  0  0  0  0
  149.0951  137.7715  155.2284 H   0  0  0  0  0  0  0  0  0  0  0  0
  145.7885  138.1858  153.5643 H   0  0  0  0  0  0  0  0  0  0  0  0
  144.9481  136.8962  154.3910 H   0  0  0  0  0  0  0  0  0  0  0  0
  147.0057  136.5603  152.3605 H   0  0  0  0  0  0  0  0  0  0  0  0
  1  2  1  0  0  0  0
  1 28  1  0  0  0  0
  1 29  1  0  0  0  0
  1 30  1  0  0  0  0
  2  3  1  0  0  0  0
  2  4  1  0  0  0  0
  2 31  1  0  0  0  0
  3 32  1  0  0  0  0
  4  5  1  0  0  0  0
  4 33  1  0  0  0  0
  4 34  1  0  0  0  0
  5 27  1  0  0  0  0
  5  6  1  0  0  0  0
  5 56  1  0  0  0  0
  6  7  1  0  0  0  0
  6 35  1  0  0  0  0
  6 36  1  0  0  0  0
  7  8  1  0  0  0  0
  7 37  1  0  0  0  0
  7 38  1  0  0  0  0
  8  9  1  0  0  0  0
  8 25  1  0  0  0  0
  9 14  1  0  0  0  0
  9 10  2  0  0  0  0
 10 11  1  0  0  0  0
 11 12  2  0  0  0  0
 11 39  1  0  0  0  0
 12 13  1  0  0  0  0
 13 17  1  0  0  0  0
 13 14  2  0  0  0  0
 14 15  1  0  0  0  0
 15 16  2  0  0  0  0
 16 17  1  0  0  0  0
 16 40  1  0  0  0  0
 17 18  1  0  0  0  0
 18 19  1  0  0  0  0
 18 41  1  0  0  0  0
 18 42  1  0  0  0  0
 19 24  1  0  0  0  0
 19 20  1  0  0  0  0
 19 22  1  0  0  0  0
 20 21  1  0  0  0  0
 20 43  1  0  0  0  0
 20 44  1  0  0  0  0
 21 45  1  0  0  0  0
 22 23  1  0  0  0  0
 22 46  1  0  0  0  0
 22 47  1  0  0  0  0
 23 24  1  0  0  0  0
 24 48  1  0  0  0  0
 24 49  1  0  0  0  0
 25 26  1  0  0  0  0
 25 27  1  0  0  0  0
 25 50  1  0  0  0  0
 26 51  1  0  0  0  0
 26 52  1  0  0  0  0
 26 53  1  0  0  0  0
 27 54  1  0  0  0  0
 27 55  1  0  0  0  0
M  CHG  1   5   1
M  END
> <s_m_source_file>
AV-unprocessed.smi

> <i_m_source_file_index>
79

> <i_lp_mmshare_version>
43012

> <i_f3d_flags>
0

> <s_epik_input>
W0NIM11bQ0BIXShbT0hdKVtDSDJdTjFbQ0gyXVtDSDJdTihbQ0BASF0oW0NIM10pW0NIMl0xKWMobltjSF1uMiljKGMyMyluW2NIXW4zW0NIMl1DNChbQ0gyXVtPSF0pW0NIMl1PW0NIMl00

> <s_epik_cmdline>
J2VwaWtfcHl0aG9uJywgJy1waCcsICc3LjAnLCAnLXRuJywgJzgnLCAnLW1hJywgJzIwMCcsICctbWV0YWxfYmluZGluZycsICctaW1hZScsICc8aW5maWxlLm1hZT4nLCAnLW9tYWUnLCAnPG91dGZpbGUubWFlPic=

> <r_lp_tautomer_probability>
1

> <r_epik_Ionization_Penalty>
0.00515943

> <r_epik_Ionization_Penalty_Charging>
0.00509693

> <r_epik_Ionization_Penalty_Neutral>
6.25007e-05

> <r_epik_State_Penalty>
-0

> <r_epik_Charging_Adjusted_Penalty>
0.00509693

> <i_epik_Tot_Q>
1

> <i_epik_Tot_abs_Q>
1

> <r_epik_Metal_State_Penalty>
-0

> <b_epik_Metal_Only>
0

> <s_lp_Force_Field>
OPLS_2005

> <r_lp_Energy>
48.7837

> <b_lp_Chiralities_Consistent>
1

> <s_lp_Variant>
AV-unprocessed.smi:79-2

> <Gold.Version>
5.8.1

> <Gold.Id.Protein>
6NUR|6NUR_protein|mol2

> <Gold.PLP.Fitness>
38.3441

> <Gold.PLP.PLP>
-29.6572

> <Gold.PLP.part.hbond>
-3.8034

> <Gold.PLP.part.metal>
0.0000

> <Gold.PLP.part.buried>
-1.3020

> <Gold.PLP.part.nonpolar>
-24.0791

> <Gold.PLP.part.repulsive>
0.0994

> <Gold.PLP.ligand.clash>
0.0000

> <Gold.PLP.ligand.torsion>
2.1143

> <Gold.PLP.Chemscore.Hbond>
3.9920

> <Gold.PLP.Chemscore.CHOScore>
0.0000

> <Gold.PLP.Chemscore.Metal>
0.0000

> <Gold.Chemscore.Hbonds>
donor molecule, donor type, donor heavy atom, donor atom, acceptor molecule, acceptor atom, score
      L1  H     3    32       P1 10171  0.96
      L1  H     5    56       P1  7948  2.00
      P1  H  6931  6943       L1    23  0.99

> <Gold.PLP.Chemscore.Internal.Correction>
0.9395

> <Gold.Rescore>
     Score         DG    S(hbond)    S(metal)    S(lipo)     H(rot)  DE(clash)    DE(int)     intcor
     11.33     -14.12       2.90        0.00      72.41       3.72       0.09       2.70       ----

> <Gold.Chemscore.Fitness>
11.3265

> <Gold.Chemscore.DG>
-14.1186

> <Gold.Chemscore.ZeroCoef>
-5.4800

> <Gold.Chemscore.Hbond>
2.9030

> <Gold.Chemscore.Metal>
0.0000

> <Gold.Chemscore.Lipo>
72.4142

> <Gold.Chemscore.Internal_Hbond>
0.0000

> <Gold.Chemscore.DEClash>
0.0922

> <Gold.Chemscore.DEInternal>
2.6999

> <Gold.Chemscore.Rot>
3.7226

> <Gold.Chemscore.Internal.Correction>
   9.000000E+99

> <Gold.Chemscore.Hbonds>
donor molecule, donor type, donor heavy atom, donor atom, acceptor molecule, acceptor atom, score
      L1  H     3    32       P1 10171  0.91
      L1  H     5    56       P1  7948  0.88
      P1  H  6931  6943       L1    23  0.91

> <Gold.Chemscore.Hbond.Weighted>
-9.6959

> <Gold.Chemscore.Metal.Weighted>
-0.0000

> <Gold.Chemscore.Lipo.Weighted>
-8.4725

> <Gold.Chemscore.Internal_Hbond.Weighted>
0.0000

> <Gold.Chemscore.DEClash.Weighted>
0.0922

> <Gold.Chemscore.DEInternal.Weighted>
2.6999

> <Gold.Chemscore.Rot.Weighted>
9.5298

> <Gold.Chemscore.Internal.Correction.Weighted>
   9.000000E+99

> <Gold.Protein.RotatedTorsions>
[ 6907 6896 6895 6894 ] final  134.54 input  -60.11 | X-H torsion
[ 7974 7965 7964 7962 ] final  119.44 input  175.53 | X-H torsion
[ 8008 7997 7996 7995 ] final  -11.81 input   59.86 | X-H torsion
[ 10167 10162 10161 10158 ] final  114.77 input  -65.29 | X-H torsion
[ 10718 10713 10712 10709 ] final  -77.06 input   66.30 | X-H torsion
[ 10763 10752 10751 10750 ] final   15.66 input  -60.55 | X-H torsion
[ 11005 11000 10999 10996 ] final -116.78 input  -57.11 | X-H torsion

> <Gold.Protein.ActiveResidues>
 VAL166  LYS551  ARG553  GLY616  TRP617  ASP618  TYR619  PRO620  LYS621  CYS622 
 ASP623  PHE694  ASN695  SER759  ASP760  ASP761  ALA762  ILE779  LEU786  VAL792 
 PHE793  MET794  SER795  GLU796  ALA797  LYS798  CYS799  TRP800  GLU811  SER814 

> <Gold.Protein.RotatedAtoms>
  152.3102  133.5744  159.5675 H   0  0  0  0  0  0  0  0  0  0  0  0  # atno 6907 bound_to 6896
  150.7319  134.0164  159.3695 H   0  0  0  0  0  0  0  0  0  0  0  0  # atno 6908 bound_to 6896
  151.8057  135.0696  160.0457 H   0  0  0  0  0  0  0  0  0  0  0  0  # atno 6909 bound_to 6896
  145.1431  139.3256  143.4605 H   0  0  0  0  0  0  0  0  0  0  0  0  # atno 7974 bound_to 7965
  154.5432  140.2292  155.8607 H   0  0  0  0  0  0  0  0  0  0  0  0  # atno 8008 bound_to 7997
  156.1878  140.3084  155.9234 H   0  0  0  0  0  0  0  0  0  0  0  0  # atno 8009 bound_to 7997
  155.3217  140.0441  157.3030 H   0  0  0  0  0  0  0  0  0  0  0  0  # atno 8010 bound_to 7997
  139.6365  144.7120  151.2325 H   0  0  0  0  0  0  0  0  0  0  0  0  # atno 10167 bound_to 10162
  156.0156  130.4481  150.3287 H   0  0  0  0  0  0  0  0  0  0  0  0  # atno 10718 bound_to 10713
  153.1504  135.6777  153.8890 H   0  0  0  0  0  0  0  0  0  0  0  0  # atno 10763 bound_to 10752
  153.8318  135.3116  155.3420 H   0  0  0  0  0  0  0  0  0  0  0  0  # atno 10764 bound_to 10752
  154.7858  135.4863  154.0029 H   0  0  0  0  0  0  0  0  0  0  0  0  # atno 10765 bound_to 10752
  141.0399  133.9851  157.3011 H   0  0  0  0  0  0  0  0  0  0  0  0  # atno 11005 bound_to 11000
  146.3503  140.1476  142.8593 LP  0  0  0  0  0  0  0  0  0  0  0  0  # atno 17320 bound_to 7965
  145.0511  140.9018  143.4995 LP  0  0  0  0  0  0  0  0  0  0  0  0  # atno 17321 bound_to 7965
  140.7468  143.6388  150.8354 LP  0  0  0  0  0  0  0  0  0  0  0  0  # atno 17342 bound_to 10162
  140.0019  143.5734  152.2872 LP  0  0  0  0  0  0  0  0  0  0  0  0  # atno 17343 bound_to 10162
  157.1386  131.0290  151.2938 LP  0  0  0  0  0  0  0  0  0  0  0  0  # atno 17370 bound_to 10713
  157.4491  130.7588  149.7135 LP  0  0  0  0  0  0  0  0  0  0  0  0  # atno 17371 bound_to 10713
  139.9268  135.0201  156.8262 LP  0  0  0  0  0  0  0  0  0  0  0  0  # atno 17394 bound_to 11000
  140.6253  133.9956  155.7637 LP  0  0  0  0  0  0  0  0  0  0  0  0  # atno 17395 bound_to 11000

$$$$
