AV-unprocessed.smi:2104|AV-procd|sdf|8584|dock5
  -GOLD-   2272011313D 1   1.00000     0.00000
 Structure written by MMmdl.
 43 44  0  0  0  0  0  0  0  0  1 V2000
  145.0279  131.3593  150.5623 C   0  0  0  0  0  0  0  0  0  0  0  0
  145.1443  132.7702  151.0273 C   0  0  0  0  0  0  0  0  0  0  0  0
  146.2137  133.5915  151.2503 C   0  0  0  0  0  0  0  0  0  0  0  0
  145.6045  134.7995  151.6824 C   0  0  0  0  0  0  0  0  0  0  0  0
  146.3899  135.9324  152.0156 N   0  0  0  0  0  0  0  0  0  0  0  0
  145.9541  137.1447  152.3971 C   0  0  0  0  0  0  0  0  0  0  0  0
  144.7762  137.4418  152.5995 O   0  0  0  0  0  0  0  0  0  0  0  0
  146.9705  138.0114  152.5190 N   0  0  0  0  0  0  0  0  0  0  0  0
  146.8284  139.4344  152.8110 C   0  0  0  0  0  0  0  0  0  0  0  0
  147.1862  139.7392  154.2735 C   0  0  0  0  0  0  0  0  0  0  0  0
  148.4258  139.1194  154.5780 O   0  0  0  0  0  0  0  0  0  0  0  0
  149.5802  139.9166  154.3478 C   0  0  1  0  0  0  0  0  0  0  0  0
  149.3921  141.3254  154.9531 C   0  0  0  0  0  0  0  0  0  0  0  0
  149.2513  141.2756  156.4840 C   0  0  0  0  0  0  0  0  0  0  0  0
  150.4424  140.5529  157.1308 C   0  0  0  0  0  0  0  0  0  0  0  0
  150.6401  139.1514  156.5316 C   0  0  0  0  0  0  0  0  0  0  0  0
  150.7889  139.2059  154.9969 C   0  0  1  0  0  0  0  0  0  0  0  0
  151.0285  137.8116  154.3972 C   0  0  0  0  0  0  0  0  0  0  0  0
  144.2828  134.7238  151.7163 N   0  0  0  0  0  0  0  0  0  0  0  0
  143.9812  133.4225  151.2977 O   0  0  0  0  0  0  0  0  0  0  0  0
  146.0116  130.9022  150.4540 H   0  0  0  0  0  0  0  0  0  0  0  0
  144.5249  131.3120  149.5965 H   0  0  0  0  0  0  0  0  0  0  0  0
  144.4550  130.7637  151.2731 H   0  0  0  0  0  0  0  0  0  0  0  0
  147.2612  133.3620  151.1235 H   0  0  0  0  0  0  0  0  0  0  0  0
  147.3874  135.8201  151.9116 H   0  0  0  0  0  0  0  0  0  0  0  0
  147.9063  137.6756  152.3440 H   0  0  0  0  0  0  0  0  0  0  0  0
  147.4325  140.0370  152.1307 H   0  0  0  0  0  0  0  0  0  0  0  0
  145.7894  139.7081  152.6266 H   0  0  0  0  0  0  0  0  0  0  0  0
  147.2796  140.8159  154.4199 H   0  0  0  0  0  0  0  0  0  0  0  0
  146.3886  139.3904  154.9294 H   0  0  0  0  0  0  0  0  0  0  0  0
  149.7592  139.9997  153.2741 H   0  0  0  0  0  0  0  0  0  0  0  0
  150.2540  141.9417  154.6948 H   0  0  0  0  0  0  0  0  0  0  0  0
  148.5281  141.8269  154.5185 H   0  0  0  0  0  0  0  0  0  0  0  0
  149.1703  142.2869  156.8831 H   0  0  0  0  0  0  0  0  0  0  0  0
  148.3259  140.7657  156.7524 H   0  0  0  0  0  0  0  0  0  0  0  0
  151.3484  141.1425  156.9860 H   0  0  0  0  0  0  0  0  0  0  0  0
  150.2902  140.4781  158.2080 H   0  0  0  0  0  0  0  0  0  0  0  0
  151.5218  138.6880  156.9754 H   0  0  0  0  0  0  0  0  0  0  0  0
  149.7935  138.5180  156.8009 H   0  0  0  0  0  0  0  0  0  0  0  0
  151.6757  139.8015  154.7750 H   0  0  0  0  0  0  0  0  0  0  0  0
  150.1933  137.1408  154.6013 H   0  0  0  0  0  0  0  0  0  0  0  0
  151.9276  137.3559  154.8128 H   0  0  0  0  0  0  0  0  0  0  0  0
  151.1557  137.8662  153.3158 H   0  0  0  0  0  0  0  0  0  0  0  0
  1  2  1  0  0  0  0
  1 21  1  0  0  0  0
  1 22  1  0  0  0  0
  1 23  1  0  0  0  0
  2 20  1  0  0  0  0
  2  3  2  0  0  0  0
  3  4  1  0  0  0  0
  3 24  1  0  0  0  0
  4  5  1  0  0  0  0
  4 19  2  0  0  0  0
  5  6  1  0  0  0  0
  5 25  1  0  0  0  0
  6  7  2  0  0  0  0
  6  8  1  0  0  0  0
  8  9  1  0  0  0  0
  8 26  1  0  0  0  0
  9 10  1  0  0  0  0
  9 27  1  0  0  0  0
  9 28  1  0  0  0  0
 10 11  1  0  0  0  0
 10 29  1  0  0  0  0
 10 30  1  0  0  0  0
 11 12  1  0  0  0  0
 12 17  1  0  0  0  0
 12 13  1  0  0  0  0
 12 31  1  0  0  0  0
 13 14  1  0  0  0  0
 13 32  1  0  0  0  0
 13 33  1  0  0  0  0
 14 15  1  0  0  0  0
 14 34  1  0  0  0  0
 14 35  1  0  0  0  0
 15 16  1  0  0  0  0
 15 36  1  0  0  0  0
 15 37  1  0  0  0  0
 16 17  1  0  0  0  0
 16 38  1  0  0  0  0
 16 39  1  0  0  0  0
 17 18  1  0  0  0  0
 17 40  1  0  0  0  0
 18 41  1  0  0  0  0
 18 42  1  0  0  0  0
 18 43  1  0  0  0  0
 19 20  1  0  0  0  0
M  END
> <s_m_source_file>
AV-unprocessed.smi

> <i_m_source_file_index>
2104

> <i_lp_mmshare_version>
43012

> <i_f3d_flags>
0

> <s_epik_input>
W0NIM11jMVtjSF1jKG5vMSlbTkhdQyg9TylbTkhdW0NIMl1bQ0gyXU9bQ0BASF0yW0NIMl1bQ0gyXVtDSDJdW0NIMl1bQ0BIXTJbQ0gzXQ==

> <s_epik_cmdline>
J2VwaWtfcHl0aG9uJywgJy1waCcsICc3LjAnLCAnLXRuJywgJzgnLCAnLW1hJywgJzIwMCcsICctbWV0YWxfYmluZGluZycsICctaW1hZScsICc8aW5maWxlLm1hZT4nLCAnLW9tYWUnLCAnPG91dGZpbGUubWFlPic=

> <r_lp_tautomer_probability>
1

> <r_epik_Ionization_Penalty>
2.94418e-05

> <r_epik_Ionization_Penalty_Charging>
0

> <r_epik_Ionization_Penalty_Neutral>
2.94418e-05

> <r_epik_State_Penalty>
-0

> <r_epik_Charging_Adjusted_Penalty>
0

> <i_epik_Tot_Q>
0

> <i_epik_Tot_abs_Q>
0

> <r_epik_Metal_State_Penalty>
0.0104148

> <b_epik_Metal_Only>
0

> <s_lp_Force_Field>
OPLS_2005

> <r_lp_Energy>
8.22598

> <b_lp_Chiralities_Consistent>
1

> <s_lp_Variant>
AV-unprocessed.smi:2104-2

> <Gold.Version>
5.8.1

> <Gold.Id.Protein>
6NUR|6NUR_protein|mol2

> <Gold.PLP.Fitness>
37.0176

> <Gold.PLP.PLP>
-31.7891

> <Gold.PLP.part.hbond>
-2.0000

> <Gold.PLP.part.metal>
0.0000

> <Gold.PLP.part.buried>
-1.1211

> <Gold.PLP.part.nonpolar>
-28.6622

> <Gold.PLP.part.repulsive>
0.7876

> <Gold.PLP.ligand.clash>
0.0000

> <Gold.PLP.ligand.torsion>
0.4008

> <Gold.PLP.Chemscore.Hbond>
2.0000

> <Gold.PLP.Chemscore.CHOScore>
0.0000

> <Gold.PLP.Chemscore.Metal>
0.0000

> <Gold.Chemscore.Hbonds>
donor molecule, donor type, donor heavy atom, donor atom, acceptor molecule, acceptor atom, score
      L1  H     5    25       P1  7948  1.00
      L1  H     8    26       P1  7948  0.93

> <Gold.PLP.Chemscore.Internal.Correction>
0.0301

> <Gold.Rescore>
     Score         DG    S(hbond)    S(metal)    S(lipo)     H(rot)  DE(clash)    DE(int)     intcor
     15.03     -17.25       1.95        0.00      83.25       1.75       0.51       1.70       ----

> <Gold.Chemscore.Fitness>
15.0298

> <Gold.Chemscore.DG>
-17.2490

> <Gold.Chemscore.ZeroCoef>
-5.4800

> <Gold.Chemscore.Hbond>
1.9506

> <Gold.Chemscore.Metal>
0.0000

> <Gold.Chemscore.Lipo>
83.2472

> <Gold.Chemscore.Internal_Hbond>
0.0000

> <Gold.Chemscore.DEClash>
0.5148

> <Gold.Chemscore.DEInternal>
1.7044

> <Gold.Chemscore.Rot>
1.7524

> <Gold.Chemscore.Internal.Correction>
   9.000000E+99

> <Gold.Chemscore.Hbonds>
donor molecule, donor type, donor heavy atom, donor atom, acceptor molecule, acceptor atom, score
      L1  H     5    25       P1  7948  0.98
      L1  H     8    26       P1  7948  0.91

> <Gold.Chemscore.Hbond.Weighted>
-6.5152

> <Gold.Chemscore.Metal.Weighted>
-0.0000

> <Gold.Chemscore.Lipo.Weighted>
-9.7399

> <Gold.Chemscore.Internal_Hbond.Weighted>
0.0000

> <Gold.Chemscore.DEClash.Weighted>
0.5148

> <Gold.Chemscore.DEInternal.Weighted>
1.7044

> <Gold.Chemscore.Rot.Weighted>
4.4861

> <Gold.Chemscore.Internal.Correction.Weighted>
   9.000000E+99

> <Gold.Protein.RotatedTorsions>
[ 6907 6896 6895 6894 ] final  -50.24 input  -60.11 | X-H torsion
[ 7974 7965 7964 7962 ] final   60.74 input  175.53 | X-H torsion
[ 8008 7997 7996 7995 ] final -161.80 input   59.86 | X-H torsion
[ 10167 10162 10161 10158 ] final -164.93 input  -65.29 | X-H torsion
[ 10718 10713 10712 10709 ] final   73.33 input   66.30 | X-H torsion
[ 10763 10752 10751 10750 ] final  -55.97 input  -60.55 | X-H torsion
[ 11005 11000 10999 10996 ] final  -15.58 input  -57.11 | X-H torsion

> <Gold.Protein.ActiveResidues>
 VAL166  LYS551  ARG553  GLY616  TRP617  ASP618  TYR619  PRO620  LYS621  CYS622 
 ASP623  PHE694  ASN695  SER759  ASP760  ASP761  ALA762  ILE779  LEU786  VAL792 
 PHE793  MET794  SER795  GLU796  ALA797  LYS798  CYS799  TRP800  GLU811  SER814 

> <Gold.Protein.RotatedAtoms>
  150.8726  134.8103  159.7165 H   0  0  0  0  0  0  0  0  0  0  0  0  # atno 6907 bound_to 6896
  152.4725  134.4922  159.9709 H   0  0  0  0  0  0  0  0  0  0  0  0  # atno 6908 bound_to 6896
  151.5009  133.3466  159.2904 H   0  0  0  0  0  0  0  0  0  0  0  0  # atno 6909 bound_to 6896
  145.8926  139.3522  143.0640 H   0  0  0  0  0  0  0  0  0  0  0  0  # atno 7974 bound_to 7965
  155.7976  140.0887  157.1975 H   0  0  0  0  0  0  0  0  0  0  0  0  # atno 8008 bound_to 7997
  154.3983  140.1478  156.3295 H   0  0  0  0  0  0  0  0  0  0  0  0  # atno 8009 bound_to 7997
  155.8496  140.3435  155.5687 H   0  0  0  0  0  0  0  0  0  0  0  0  # atno 8010 bound_to 7997
  139.6217  144.0612  152.1938 H   0  0  0  0  0  0  0  0  0  0  0  0  # atno 10167 bound_to 10162
  157.6543  130.9623  150.1054 H   0  0  0  0  0  0  0  0  0  0  0  0  # atno 10718 bound_to 10713
  154.1993  135.6414  153.5082 H   0  0  0  0  0  0  0  0  0  0  0  0  # atno 10763 bound_to 10752
  153.0016  135.5447  154.6332 H   0  0  0  0  0  0  0  0  0  0  0  0  # atno 10764 bound_to 10752
  154.5741  135.2919  155.0771 H   0  0  0  0  0  0  0  0  0  0  0  0  # atno 10765 bound_to 10752
  140.7981  133.8235  155.9443 H   0  0  0  0  0  0  0  0  0  0  0  0  # atno 11005 bound_to 11000
  145.8889  140.9316  143.0562 LP  0  0  0  0  0  0  0  0  0  0  0  0  # atno 17320 bound_to 7965
  144.6731  140.0880  143.7466 LP  0  0  0  0  0  0  0  0  0  0  0  0  # atno 17321 bound_to 7965
  140.0255  144.6120  150.7531 LP  0  0  0  0  0  0  0  0  0  0  0  0  # atno 17342 bound_to 10162
  140.7386  143.2780  151.3683 LP  0  0  0  0  0  0  0  0  0  0  0  0  # atno 17343 bound_to 10162
  156.1965  130.3657  149.8842 LP  0  0  0  0  0  0  0  0  0  0  0  0  # atno 17370 bound_to 10713
  156.6757  130.8838  151.3568 LP  0  0  0  0  0  0  0  0  0  0  0  0  # atno 17371 bound_to 10713
  140.9322  134.2007  157.4856 LP  0  0  0  0  0  0  0  0  0  0  0  0  # atno 17394 bound_to 11000
  139.8724  134.9837  156.5211 LP  0  0  0  0  0  0  0  0  0  0  0  0  # atno 17395 bound_to 11000

$$$$
