AV-unprocessed.smi:1717|AV-procd|sdf|6921|dock5
  -GOLD-   22720 8123D 1   1.00000     0.00000
 Structure written by MMmdl.
 40 41  0  0  0  0  0  0  0  0  3 V2000
  153.2100  135.8793  158.2785 C   0  0  0  0  0  0  0  0  0  0  0  0
  152.7622  136.4438  157.0107 N   0  5  0  0  0  0  0  0  0  0  0  0
  152.6279  137.7791  156.7901 C   0  0  0  0  0  0  0  0  0  0  0  0
  152.8762  138.7456  157.5186 O   0  0  0  0  0  0  0  0  0  0  0  0
  152.1013  138.0561  155.3772 C   0  0  0  0  0  0  0  0  0  0  0  0
  150.6541  138.3813  155.4258 N   0  3  2  0  0  0  0  0  0  0  0  0
  149.8329  137.2317  155.8822 C   0  0  0  0  0  0  0  0  0  0  0  0
  148.3623  137.6414  156.0752 C   0  0  0  0  0  0  0  0  0  0  0  0
  147.7622  138.2668  154.8002 C   0  0  2  0  0  0  0  0  0  0  0  0
  147.5559  137.2722  153.7475 N   0  0  0  0  0  0  0  0  0  0  0  0
  146.3627  136.8339  153.3205 C   0  0  0  0  0  0  0  0  0  0  0  0
  145.2913  137.2072  153.7976 O   0  0  0  0  0  0  0  0  0  0  0  0
  146.4958  135.9514  152.3173 N   0  0  0  0  0  0  0  0  0  0  0  0
  145.4573  135.2867  151.6181 C   0  0  0  0  0  0  0  0  0  0  0  0
  145.3157  133.9001  151.3166 C   0  0  0  0  0  0  0  0  0  0  0  0
  144.2007  133.6682  150.6383 N   0  0  0  0  0  0  0  0  0  0  0  0
  143.6323  134.8875  150.5031 N   0  0  0  0  0  0  0  0  0  0  0  0
  144.3641  135.9000  151.0829 C   0  0  0  0  0  0  0  0  0  0  0  0
  148.6716  139.4022  154.2994 C   0  0  0  0  0  0  0  0  0  0  0  0
  150.1361  138.9512  154.1528 C   0  0  0  0  0  0  0  0  0  0  0  0
  142.7552  135.0101  150.0173 H   0  0  0  0  0  0  0  0  0  0  0  0
  153.2374  134.7902  158.2499 H   0  0  0  0  0  0  0  0  0  0  0  0
  152.5580  136.1504  159.1094 H   0  0  0  0  0  0  0  0  0  0  0  0
  154.2155  136.2058  158.5459 H   0  0  0  0  0  0  0  0  0  0  0  0
  152.6546  138.8448  154.8627 H   0  0  0  0  0  0  0  0  0  0  0  0
  152.2587  137.1444  154.7993 H   0  0  0  0  0  0  0  0  0  0  0  0
  149.9108  136.4167  155.1608 H   0  0  0  0  0  0  0  0  0  0  0  0
  150.2222  136.8544  156.8284 H   0  0  0  0  0  0  0  0  0  0  0  0
  147.7735  136.7821  156.3981 H   0  0  0  0  0  0  0  0  0  0  0  0
  148.3021  138.3669  156.8875 H   0  0  0  0  0  0  0  0  0  0  0  0
  146.7901  138.6988  155.0452 H   0  0  0  0  0  0  0  0  0  0  0  0
  148.3823  136.9104  153.2946 H   0  0  0  0  0  0  0  0  0  0  0  0
  147.4351  135.7430  152.0125 H   0  0  0  0  0  0  0  0  0  0  0  0
  145.9619  133.0686  151.5548 H   0  0  0  0  0  0  0  0  0  0  0  0
  144.0503  136.9333  151.0635 H   0  0  0  0  0  0  0  0  0  0  0  0
  148.3028  139.7939  153.3505 H   0  0  0  0  0  0  0  0  0  0  0  0
  148.6276  140.2324  155.0057 H   0  0  0  0  0  0  0  0  0  0  0  0
  150.7375  139.8083  153.8494 H   0  0  0  0  0  0  0  0  0  0  0  0
  150.2276  138.2100  153.3575 H   0  0  0  0  0  0  0  0  0  0  0  0
  150.5589  139.0985  156.1309 H   0  0  0  0  0  0  0  0  0  0  0  0
  1  2  1  0  0  0  0
  1 22  1  0  0  0  0
  1 23  1  0  0  0  0
  1 24  1  0  0  0  0
  2  3  1  0  0  0  0
  3  4  2  0  0  0  0
  3  5  1  0  0  0  0
  5  6  1  0  0  0  0
  5 25  1  0  0  0  0
  5 26  1  0  0  0  0
  6 20  1  0  0  0  0
  6  7  1  0  0  0  0
  6 40  1  0  0  0  0
  7  8  1  0  0  0  0
  7 27  1  0  0  0  0
  7 28  1  0  0  0  0
  8  9  1  0  0  0  0
  8 29  1  0  0  0  0
  8 30  1  0  0  0  0
  9 10  1  0  0  0  0
  9 19  1  0  0  0  0
  9 31  1  0  0  0  0
 10 11  1  0  0  0  0
 10 32  1  0  0  0  0
 11 12  2  0  0  0  0
 11 13  1  0  0  0  0
 13 14  1  0  0  0  0
 13 33  1  0  0  0  0
 14 18  2  0  0  0  0
 14 15  1  0  0  0  0
 15 16  2  0  0  0  0
 15 34  1  0  0  0  0
 16 17  1  0  0  0  0
 17 21  1  0  0  0  0
 17 18  1  0  0  0  0
 18 35  1  0  0  0  0
 19 20  1  0  0  0  0
 19 36  1  0  0  0  0
 19 37  1  0  0  0  0
 20 38  1  0  0  0  0
 20 39  1  0  0  0  0
M  CHG  1   2  -1
M  CHG  1   6   1
M  END
> <s_m_source_file>
AV-unprocessed.smi

> <i_m_source_file_index>
1717

> <i_lp_mmshare_version>
43012

> <i_f3d_flags>
0

> <s_epik_input>
W0NIM11bTkhdQyg9TylbQ0gyXU4xW0NIMl1bQ0gyXVtDSF0oW0NIMl1bQ0gyXTEpW05IXUMoPU8pW05IXWMyW2NIXW5bbkhdW2NIXTI=

> <s_epik_cmdline>
J2VwaWtfcHl0aG9uJywgJy1waCcsICc3LjAnLCAnLXRuJywgJzgnLCAnLW1hJywgJzIwMCcsICctbWV0YWxfYmluZGluZycsICctaW1hZScsICc8aW5maWxlLm1hZT4nLCAnLW9tYWUnLCAnPG91dGZpbGUubWFlPic=

> <r_lp_tautomer_probability>
0.5

> <r_epik_Ionization_Penalty>
6.1395

> <r_epik_Ionization_Penalty_Charging>
6.13946

> <r_epik_Ionization_Penalty_Neutral>
4.21226e-05

> <r_epik_State_Penalty>
6.9595

> <r_epik_Charging_Adjusted_Penalty>
13.099

> <i_epik_Tot_Q>
0

> <i_epik_Tot_abs_Q>
2

> <r_epik_Metal_State_Penalty>
2.89141

> <b_epik_Metal_Only>
1

> <s_lp_Force_Field>
OPLS_2005

> <r_lp_Energy>
13.1948

> <b_lp_Chiralities_Consistent>
1

> <s_lp_Variant>
AV-unprocessed.smi:1717-5

> <Gold.Version>
5.8.1

> <Gold.Id.Protein>
6NUR|6NUR_protein|mol2

> <Gold.PLP.Fitness>
41.0143

> <Gold.PLP.PLP>
-21.7827

> <Gold.PLP.part.hbond>
-4.9282

> <Gold.PLP.part.metal>
0.0000

> <Gold.PLP.part.buried>
-2.9767

> <Gold.PLP.part.nonpolar>
-14.9738

> <Gold.PLP.part.repulsive>
0.3464

> <Gold.PLP.ligand.clash>
0.0000

> <Gold.PLP.ligand.torsion>
0.8018

> <Gold.PLP.Chemscore.Hbond>
5.9280

> <Gold.PLP.Chemscore.CHOScore>
1.0000

> <Gold.PLP.Chemscore.Metal>
0.0000

> <Gold.Chemscore.Hbonds>
donor molecule, donor type, donor heavy atom, donor atom, acceptor molecule, acceptor atom, score
      L1  H    10    32       P1  7948  0.88
      L1  H    13    33       P1  7948  0.99
      L1  H    17    21       P1 10186  1.00
      P1  H  7997  8008       L1     4  0.65
      P1  H 10752 10765       L1     2  1.56
      L1  C    18    35       P1 10171  1.00

> <Gold.PLP.Chemscore.Internal.Correction>
0.0511

> <Gold.Rescore>
     Score         DG    S(hbond)    S(metal)    S(lipo)     H(rot)  DE(clash)    DE(int)     intcor
     19.73     -20.81       4.38        0.00      44.52       1.75       0.15       0.94       ----

> <Gold.Chemscore.Fitness>
19.7317

> <Gold.Chemscore.DG>
-20.8128

> <Gold.Chemscore.ZeroCoef>
-5.4800

> <Gold.Chemscore.Hbond>
4.3761

> <Gold.Chemscore.Metal>
0.0000

> <Gold.Chemscore.Lipo>
44.5166

> <Gold.Chemscore.Internal_Hbond>
0.0000

> <Gold.Chemscore.DEClash>
0.1456

> <Gold.Chemscore.DEInternal>
0.9354

> <Gold.Chemscore.Rot>
1.7546

> <Gold.Chemscore.Internal.Correction>
   9.000000E+99

> <Gold.Chemscore.Hbonds>
donor molecule, donor type, donor heavy atom, donor atom, acceptor molecule, acceptor atom, score
      L1  H    10    32       P1  7948  0.86
      L1  H    13    33       P1  7948  0.92
      L1  H    17    21       P1 10186  0.25
      P1  H  7997  8008       L1     4  0.61
      P1  H 10752 10765       L1     2  0.55

> <Gold.Chemscore.Hbond.Weighted>
-14.6161

> <Gold.Chemscore.Metal.Weighted>
-0.0000

> <Gold.Chemscore.Lipo.Weighted>
-5.2084

> <Gold.Chemscore.Internal_Hbond.Weighted>
0.0000

> <Gold.Chemscore.DEClash.Weighted>
0.1456

> <Gold.Chemscore.DEInternal.Weighted>
0.9354

> <Gold.Chemscore.Rot.Weighted>
4.4917

> <Gold.Chemscore.Internal.Correction.Weighted>
   9.000000E+99

> <Gold.Protein.RotatedTorsions>
[ 6907 6896 6895 6894 ] final -166.69 input  -60.11 | X-H torsion
[ 7974 7965 7964 7962 ] final   25.68 input  175.53 | X-H torsion
[ 8008 7997 7996 7995 ] final  -79.19 input   59.86 | X-H torsion
[ 10167 10162 10161 10158 ] final  -46.68 input  -65.29 | X-H torsion
[ 10718 10713 10712 10709 ] final -102.22 input   66.30 | X-H torsion
[ 10763 10752 10751 10750 ] final -126.92 input  -60.55 | X-H torsion
[ 11005 11000 10999 10996 ] final   23.46 input  -57.11 | X-H torsion

> <Gold.Protein.ActiveResidues>
 VAL166  LYS551  ARG553  GLY616  TRP617  ASP618  TYR619  PRO620  LYS621  CYS622 
 ASP623  PHE694  ASN695  SER759  ASP760  ASP761  ALA762  ILE779  LEU786  VAL792 
 PHE793  MET794  SER795  GLU796  ALA797  LYS798  CYS799  TRP800  GLU811  SER814 

> <Gold.Protein.RotatedAtoms>
  151.4476  133.3626  159.2790 H   0  0  0  0  0  0  0  0  0  0  0  0  # atno 6907 bound_to 6896
  150.9113  134.8532  159.7438 H   0  0  0  0  0  0  0  0  0  0  0  0  # atno 6908 bound_to 6896
  152.4934  134.4406  159.9594 H   0  0  0  0  0  0  0  0  0  0  0  0  # atno 6909 bound_to 6896
  146.1876  139.7432  142.8855 H   0  0  0  0  0  0  0  0  0  0  0  0  # atno 7974 bound_to 7965
  154.5761  140.0682  156.9036 H   0  0  0  0  0  0  0  0  0  0  0  0  # atno 8008 bound_to 7997
  155.2546  140.3354  155.4260 H   0  0  0  0  0  0  0  0  0  0  0  0  # atno 8009 bound_to 7997
  156.2155  140.1777  156.7583 H   0  0  0  0  0  0  0  0  0  0  0  0  # atno 8010 bound_to 7997
  140.6807  143.2819  151.3817 H   0  0  0  0  0  0  0  0  0  0  0  0  # atno 10167 bound_to 10162
  156.0221  130.5410  150.7077 H   0  0  0  0  0  0  0  0  0  0  0  0  # atno 10718 bound_to 10713
  154.8749  135.3979  154.3509 H   0  0  0  0  0  0  0  0  0  0  0  0  # atno 10763 bound_to 10752
  153.4295  135.7025  153.6245 H   0  0  0  0  0  0  0  0  0  0  0  0  # atno 10764 bound_to 10752
  153.4873  135.3756  155.2443 H   0  0  0  0  0  0  0  0  0  0  0  0  # atno 10765 bound_to 10752
  140.3694  134.2039  155.7667 H   0  0  0  0  0  0  0  0  0  0  0  0  # atno 11005 bound_to 11000
  145.3891  141.0370  143.3134 LP  0  0  0  0  0  0  0  0  0  0  0  0  # atno 17320 bound_to 7965
  144.8426  139.5447  143.6893 LP  0  0  0  0  0  0  0  0  0  0  0  0  # atno 17321 bound_to 7965
  139.6128  144.1063  152.2316 LP  0  0  0  0  0  0  0  0  0  0  0  0  # atno 17342 bound_to 10162
  140.0483  144.5953  150.7356 LP  0  0  0  0  0  0  0  0  0  0  0  0  # atno 17343 bound_to 10162
  157.4723  131.0894  151.0629 LP  0  0  0  0  0  0  0  0  0  0  0  0  # atno 17370 bound_to 10713
  157.1086  130.6012  149.5476 LP  0  0  0  0  0  0  0  0  0  0  0  0  # atno 17371 bound_to 10713
  141.1959  133.8094  157.0693 LP  0  0  0  0  0  0  0  0  0  0  0  0  # atno 17394 bound_to 11000
  140.0564  134.9778  157.1228 LP  0  0  0  0  0  0  0  0  0  0  0  0  # atno 17395 bound_to 11000

$$$$
