AV-unprocessed.smi:193|AV-procd|sdf|1504|dock1
  -GOLD-   2262019333D 1   1.00000     0.00000
 Structure written by MMmdl.
 62 66  0  0  0  0  0  0  0  0  2 V2000
  150.2713  133.1766  154.6239 C   0  0  0  0  0  0  0  0  0  0  0  0
  149.5975  134.5393  154.3950 C   0  0  2  0  0  0  0  0  0  0  0  0
  150.2529  135.5964  155.3085 C   0  0  0  0  0  0  0  0  0  0  0  0
  150.0998  136.9753  154.8391 N   0  0  0  0  0  0  0  0  0  0  0  0
  150.9611  137.9137  155.3125 C   0  0  0  0  0  0  0  0  0  0  0  0
  152.1995  137.5275  155.7194 N   0  0  0  0  0  0  0  0  0  0  0  0
  153.0615  138.4246  156.2070 C   0  0  0  0  0  0  0  0  0  0  0  0
  152.8942  139.7375  156.3724 N   0  0  0  0  0  0  0  0  0  0  0  0
  151.6582  140.1355  155.9567 C   0  0  0  0  0  0  0  0  0  0  0  0
  150.6421  139.2993  155.4126 C   0  0  0  0  0  0  0  0  0  0  0  0
  149.5296  140.0651  155.0810 N   0  0  0  0  0  0  0  0  0  0  0  0
  149.8633  141.2793  155.4232 C   0  0  0  0  0  0  0  0  0  0  0  0
  151.1184  141.4098  155.9728 N   0  0  0  0  0  0  0  0  0  0  0  0
  151.7353  142.6367  156.4536 C   0  0  0  0  0  0  0  0  0  0  0  0
  151.4383  142.9473  157.9425 C   0  0  0  0  0  0  0  0  0  0  0  0
  150.1462  142.4481  158.2409 O   0  0  0  0  0  0  0  0  0  0  0  0
  152.4562  142.2321  158.8533 C   0  0  0  0  0  0  0  0  0  0  0  0
  152.3109  142.6490  160.3277 C   0  0  0  0  0  0  0  0  0  0  0  0
  152.4144  144.0625  160.4459 O   0  0  0  0  0  0  0  0  0  0  0  0
  151.3742  144.7480  159.7601 C   0  0  0  0  0  0  0  0  0  0  0  0
  151.4561  144.4610  158.2503 C   0  0  0  0  0  0  0  0  0  0  0  0
  148.8891  137.4441  154.1658 C   0  0  0  0  0  0  0  0  0  0  0  0
  147.6002  136.8412  154.7381 C   0  0  0  0  0  0  0  0  0  0  0  0
  147.2868  135.5410  154.0995 N   0  3  2  0  0  0  0  0  0  0  0  0
  145.8326  135.2570  154.1279 C   0  0  2  0  0  0  0  0  0  0  0  0
  145.4062  134.1305  153.2133 C   0  0  0  0  0  0  0  0  0  0  0  0
  145.0935  135.5622  152.8366 C   0  0  2  0  0  0  0  0  0  0  0  0
  145.7531  136.1930  151.6234 C   0  0  0  0  0  0  0  0  0  0  0  0
  148.0785  134.4127  154.6482 C   0  0  0  0  0  0  0  0  0  0  0  0
  150.1496  132.8412  155.6545 H   0  0  0  0  0  0  0  0  0  0  0  0
  151.3403  133.2251  154.4139 H   0  0  0  0  0  0  0  0  0  0  0  0
  149.8498  132.4111  153.9716 H   0  0  0  0  0  0  0  0  0  0  0  0
  149.7710  134.8033  153.3504 H   0  0  0  0  0  0  0  0  0  0  0  0
  149.8745  135.5084  156.3279 H   0  0  0  0  0  0  0  0  0  0  0  0
  151.3232  135.3894  155.3617 H   0  0  0  0  0  0  0  0  0  0  0  0
  154.0220  138.0351  156.5107 H   0  0  0  0  0  0  0  0  0  0  0  0
  149.1940  142.1176  155.2932 H   0  0  0  0  0  0  0  0  0  0  0  0
  152.8116  142.5691  156.2864 H   0  0  0  0  0  0  0  0  0  0  0  0
  151.3831  143.4559  155.8253 H   0  0  0  0  0  0  0  0  0  0  0  0
  150.2286  141.5523  158.5302 H   0  0  0  0  0  0  0  0  0  0  0  0
  152.3589  141.1497  158.7597 H   0  0  0  0  0  0  0  0  0  0  0  0
  153.4676  142.4761  158.5255 H   0  0  0  0  0  0  0  0  0  0  0  0
  151.3623  142.3058  160.7436 H   0  0  0  0  0  0  0  0  0  0  0  0
  153.0998  142.1894  160.9233 H   0  0  0  0  0  0  0  0  0  0  0  0
  150.4032  144.4575  160.1635 H   0  0  0  0  0  0  0  0  0  0  0  0
  151.4818  145.8176  159.9406 H   0  0  0  0  0  0  0  0  0  0  0  0
  152.3791  144.8954  157.8644 H   0  0  0  0  0  0  0  0  0  0  0  0
  150.6392  144.9723  157.7397 H   0  0  0  0  0  0  0  0  0  0  0  0
  148.8079  138.5255  154.2800 H   0  0  0  0  0  0  0  0  0  0  0  0
  148.9665  137.2578  153.0939 H   0  0  0  0  0  0  0  0  0  0  0  0
  147.6274  136.7618  155.8262 H   0  0  0  0  0  0  0  0  0  0  0  0
  146.7919  137.5368  154.5095 H   0  0  0  0  0  0  0  0  0  0  0  0
  145.3414  135.3903  155.0904 H   0  0  0  0  0  0  0  0  0  0  0  0
  146.1736  133.6131  152.6402 H   0  0  0  0  0  0  0  0  0  0  0  0
  144.5733  133.5093  153.5367 H   0  0  0  0  0  0  0  0  0  0  0  0
  144.0566  135.8681  152.9616 H   0  0  0  0  0  0  0  0  0  0  0  0
  146.7556  135.7959  151.4618 H   0  0  0  0  0  0  0  0  0  0  0  0
  145.8208  137.2735  151.7510 H   0  0  0  0  0  0  0  0  0  0  0  0
  145.1599  135.9890  150.7319 H   0  0  0  0  0  0  0  0  0  0  0  0
  147.7250  133.4984  154.1697 H   0  0  0  0  0  0  0  0  0  0  0  0
  147.8720  134.2946  155.7132 H   0  0  0  0  0  0  0  0  0  0  0  0
  147.5328  135.6287  153.1239 H   0  0  0  0  0  0  0  0  0  0  0  0
  1  2  1  0  0  0  0
  1 30  1  0  0  0  0
  1 31  1  0  0  0  0
  1 32  1  0  0  0  0
  2 29  1  0  0  0  0
  2  3  1  0  0  0  0
  2 33  1  0  0  0  0
  3  4  1  0  0  0  0
  3 34  1  0  0  0  0
  3 35  1  0  0  0  0
  4  5  1  0  0  0  0
  4 22  1  0  0  0  0
  5 10  1  0  0  0  0
  5  6  2  0  0  0  0
  6  7  1  0  0  0  0
  7  8  2  0  0  0  0
  7 36  1  0  0  0  0
  8  9  1  0  0  0  0
  9 13  1  0  0  0  0
  9 10  2  0  0  0  0
 10 11  1  0  0  0  0
 11 12  2  0  0  0  0
 12 13  1  0  0  0  0
 12 37  1  0  0  0  0
 13 14  1  0  0  0  0
 14 15  1  0  0  0  0
 14 38  1  0  0  0  0
 14 39  1  0  0  0  0
 15 21  1  0  0  0  0
 15 16  1  0  0  0  0
 15 17  1  0  0  0  0
 16 40  1  0  0  0  0
 17 18  1  0  0  0  0
 17 41  1  0  0  0  0
 17 42  1  0  0  0  0
 18 19  1  0  0  0  0
 18 43  1  0  0  0  0
 18 44  1  0  0  0  0
 19 20  1  0  0  0  0
 20 21  1  0  0  0  0
 20 45  1  0  0  0  0
 20 46  1  0  0  0  0
 21 47  1  0  0  0  0
 21 48  1  0  0  0  0
 22 23  1  0  0  0  0
 22 49  1  0  0  0  0
 22 50  1  0  0  0  0
 23 24  1  0  0  0  0
 23 51  1  0  0  0  0
 23 52  1  0  0  0  0
 24 25  1  0  0  0  0
 24 29  1  0  0  0  0
 24 62  1  0  0  0  0
 25 27  1  0  0  0  0
 25 26  1  0  0  0  0
 25 53  1  0  0  0  0
 26 27  1  0  0  0  0
 26 54  1  0  0  0  0
 26 55  1  0  0  0  0
 27 28  1  0  0  0  0
 27 56  1  0  0  0  0
 28 57  1  0  0  0  0
 28 58  1  0  0  0  0
 28 59  1  0  0  0  0
 29 60  1  0  0  0  0
 29 61  1  0  0  0  0
M  CHG  1  24   1
M  END
> <s_m_source_file>
AV-unprocessed.smi

> <i_m_source_file_index>
193

> <i_lp_mmshare_version>
43012

> <i_f3d_flags>
0

> <s_epik_input>
W0NIM11bQ0BASF0xW0NIMl1bQ0BIXTFOKFtDSDJdMilbQ0gyXVtDSDJdTihbQ0gyXVtDQEhdMltDSDNdKWMobltjSF1uMyljKGMzNCluW2NIXW40W0NIMl1DNShbT0hdKVtDSDJdW0NIMl1PW0NIMl1bQ0gyXTU=

> <s_epik_cmdline>
J2VwaWtfcHl0aG9uJywgJy1waCcsICc3LjAnLCAnLXRuJywgJzgnLCAnLW1hJywgJzIwMCcsICctbWV0YWxfYmluZGluZycsICctaW1hZScsICc8aW5maWxlLm1hZT4nLCAnLW9tYWUnLCAnPG91dGZpbGUubWFlPic=

> <r_lp_tautomer_probability>
1

> <r_epik_Ionization_Penalty>
0.0540825

> <r_epik_Ionization_Penalty_Charging>
0.0538476

> <r_epik_Ionization_Penalty_Neutral>
0.000234891

> <r_epik_State_Penalty>
0.0200719

> <r_epik_Charging_Adjusted_Penalty>
0.0739194

> <i_epik_Tot_Q>
1

> <i_epik_Tot_abs_Q>
1

> <r_epik_Metal_State_Penalty>
0.0199414

> <b_epik_Metal_Only>
0

> <s_lp_Force_Field>
OPLS_2005

> <r_lp_Energy>
56.2911

> <b_lp_Chiralities_Consistent>
1

> <s_lp_Variant>
AV-unprocessed.smi:193-9

> <Gold.Version>
5.8.1

> <Gold.Id.Protein>
6NUR|6NUR_protein|mol2

> <Gold.PLP.Fitness>
47.8072

> <Gold.PLP.PLP>
-38.3981

> <Gold.PLP.part.hbond>
-2.5434

> <Gold.PLP.part.metal>
0.0000

> <Gold.PLP.part.buried>
-0.4109

> <Gold.PLP.part.nonpolar>
-34.0276

> <Gold.PLP.part.repulsive>
0.1430

> <Gold.PLP.ligand.clash>
0.0000

> <Gold.PLP.ligand.torsion>
1.7189

> <Gold.PLP.Chemscore.Hbond>
3.0923

> <Gold.PLP.Chemscore.CHOScore>
0.6998

> <Gold.PLP.Chemscore.Metal>
0.0000

> <Gold.Chemscore.Hbonds>
donor molecule, donor type, donor heavy atom, donor atom, acceptor molecule, acceptor atom, score
      L1  H    24    62       P1  7948  1.79
      P1  H  7997  8008       L1     8  0.80
      P1  H 10752 10765       L1     6  0.25
      L1  C    12    37       P1  8028  0.73

> <Gold.PLP.Chemscore.Internal.Correction>
1.4708

> <Gold.Rescore>
     Score         DG    S(hbond)    S(metal)    S(lipo)     H(rot)  DE(clash)    DE(int)     intcor
     13.98     -21.80       2.48        0.00     110.79       1.93       3.75       4.07       ----

> <Gold.Chemscore.Fitness>
13.9797

> <Gold.Chemscore.DG>
-21.7997

> <Gold.Chemscore.ZeroCoef>
-5.4800

> <Gold.Chemscore.Hbond>
2.4837

> <Gold.Chemscore.Metal>
0.0000

> <Gold.Chemscore.Lipo>
110.7899

> <Gold.Chemscore.Internal_Hbond>
0.0000

> <Gold.Chemscore.DEClash>
3.7506

> <Gold.Chemscore.DEInternal>
4.0694

> <Gold.Chemscore.Rot>
1.9290

> <Gold.Chemscore.Internal.Correction>
   9.000000E+99

> <Gold.Chemscore.Hbonds>
donor molecule, donor type, donor heavy atom, donor atom, acceptor molecule, acceptor atom, score
      L1  H    24    62       P1  7948  0.86
      P1  H  7997  8008       L1     8  0.16
      P1  H 10752 10765       L1     6  0.23

> <Gold.Chemscore.Hbond.Weighted>
-8.2955

> <Gold.Chemscore.Metal.Weighted>
-0.0000

> <Gold.Chemscore.Lipo.Weighted>
-12.9624

> <Gold.Chemscore.Internal_Hbond.Weighted>
0.0000

> <Gold.Chemscore.DEClash.Weighted>
3.7506

> <Gold.Chemscore.DEInternal.Weighted>
4.0694

> <Gold.Chemscore.Rot.Weighted>
4.9383

> <Gold.Chemscore.Internal.Correction.Weighted>
   9.000000E+99

> <Gold.Protein.RotatedTorsions>
[ 6907 6896 6895 6894 ] final   52.80 input  -60.11 | X-H torsion
[ 7974 7965 7964 7962 ] final  -57.34 input  175.53 | X-H torsion
[ 8008 7997 7996 7995 ] final  -43.56 input   59.86 | X-H torsion
[ 10167 10162 10161 10158 ] final   88.25 input  -65.29 | X-H torsion
[ 10718 10713 10712 10709 ] final   98.56 input   66.30 | X-H torsion
[ 10763 10752 10751 10750 ] final -166.89 input  -60.55 | X-H torsion
[ 11005 11000 10999 10996 ] final   13.21 input  -57.11 | X-H torsion

> <Gold.Protein.ActiveResidues>
 VAL166  LYS551  ARG553  GLY616  TRP617  ASP618  TYR619  PRO620  LYS621  CYS622 
 ASP623  PHE694  ASN695  SER759  ASP760  ASP761  ALA762  ILE779  LEU786  VAL792 
 PHE793  MET794  SER795  GLU796  ALA797  LYS798  CYS799  TRP800  GLU811  SER814 

> <Gold.Protein.RotatedAtoms>
  152.3270  134.7308  160.0299 H   0  0  0  0  0  0  0  0  0  0  0  0  # atno 6907 bound_to 6896
  151.7737  133.3338  159.3460 H   0  0  0  0  0  0  0  0  0  0  0  0  # atno 6908 bound_to 6896
  150.7401  134.5927  159.6040 H   0  0  0  0  0  0  0  0  0  0  0  0  # atno 6909 bound_to 6896
  145.8522  140.8344  142.9980 H   0  0  0  0  0  0  0  0  0  0  0  0  # atno 7974 bound_to 7965
  154.3997  140.1444  156.3539 H   0  0  0  0  0  0  0  0  0  0  0  0  # atno 8008 bound_to 7997
  155.8243  140.3468  155.5512 H   0  0  0  0  0  0  0  0  0  0  0  0  # atno 8009 bound_to 7997
  155.8255  140.0904  157.1814 H   0  0  0  0  0  0  0  0  0  0  0  0  # atno 8010 bound_to 7997
  139.8691  144.6502  150.8970 H   0  0  0  0  0  0  0  0  0  0  0  0  # atno 10167 bound_to 10162
  157.6893  131.0644  150.4815 H   0  0  0  0  0  0  0  0  0  0  0  0  # atno 10718 bound_to 10713
  154.6787  135.2951  154.9643 H   0  0  0  0  0  0  0  0  0  0  0  0  # atno 10763 bound_to 10752
  154.0645  135.6627  153.4820 H   0  0  0  0  0  0  0  0  0  0  0  0  # atno 10764 bound_to 10752
  153.0533  135.5160  154.7819 H   0  0  0  0  0  0  0  0  0  0  0  0  # atno 10765 bound_to 10752
  140.4833  134.0914  155.7755 H   0  0  0  0  0  0  0  0  0  0  0  0  # atno 11005 bound_to 11000
  144.6729  140.0970  143.7462 LP  0  0  0  0  0  0  0  0  0  0  0  0  # atno 17320 bound_to 7965
  145.9345  139.2628  143.1305 LP  0  0  0  0  0  0  0  0  0  0  0  0  # atno 17321 bound_to 7965
  140.7763  143.3679  151.1705 LP  0  0  0  0  0  0  0  0  0  0  0  0  # atno 17342 bound_to 10162
  139.7301  143.9087  152.3016 LP  0  0  0  0  0  0  0  0  0  0  0  0  # atno 17343 bound_to 10162
  156.5147  130.4147  149.6282 LP  0  0  0  0  0  0  0  0  0  0  0  0  # atno 17370 bound_to 10713
  156.3209  130.7280  151.2191 LP  0  0  0  0  0  0  0  0  0  0  0  0  # atno 17371 bound_to 10713
  141.1521  133.8950  157.2072 LP  0  0  0  0  0  0  0  0  0  0  0  0  # atno 17394 bound_to 11000
  139.9813  135.0097  156.9757 LP  0  0  0  0  0  0  0  0  0  0  0  0  # atno 17395 bound_to 11000

$$$$
