AV-unprocessed.smi:3091|AV-procd|sdf|11779|dock8
  -GOLD-   2272017163D 1   1.00000     0.00000
 Structure written by MMmdl.
 29 30  0  0  0  0  0  0  0  0  2 V2000
  148.3576  138.2819  152.9876 N   0  3  0  0  0  0  0  0  0  0  0  0
  148.5117  138.3322  154.4502 C   0  0  0  0  0  0  0  0  0  0  0  0
  149.8939  138.8241  154.8268 C   0  0  0  0  0  0  0  0  0  0  0  0
  151.0440  138.1141  154.4274 C   0  0  0  0  0  0  0  0  0  0  0  0
  152.3049  138.6135  154.8086 C   0  0  0  0  0  0  0  0  0  0  0  0
  152.4656  139.7367  155.5394 N   0  0  0  0  0  0  0  0  0  0  0  0
  151.3590  140.4202  155.9235 C   0  0  0  0  0  0  0  0  0  0  0  0
  151.5051  141.5711  156.6724 O   0  0  0  0  0  0  0  0  0  0  0  0
  151.2624  141.5293  158.0793 C   0  0  1  0  0  0  0  0  0  0  0  0
  152.3633  140.7719  158.8195 C   0  0  0  0  0  0  0  0  0  0  0  0
  152.6794  141.6731  160.0055 C   0  0  0  0  0  0  0  0  0  0  0  0
  152.5250  142.9690  159.4557 O   0  0  0  0  0  0  0  0  0  0  0  0
  151.3492  142.9488  158.6580 C   0  0  0  0  0  0  0  0  0  0  0  0
  150.0553  139.9979  155.5910 C   0  0  0  0  0  0  0  0  0  0  0  0
  148.6562  137.3795  152.6465 H   0  0  0  0  0  0  0  0  0  0  0  0
  148.9219  139.0059  152.5664 H   0  0  0  0  0  0  0  0  0  0  0  0
  147.7524  138.9918  154.8715 H   0  0  0  0  0  0  0  0  0  0  0  0
  148.3433  137.3382  154.8662 H   0  0  0  0  0  0  0  0  0  0  0  0
  150.9680  137.2095  153.8419 H   0  0  0  0  0  0  0  0  0  0  0  0
  153.2078  138.0963  154.5198 H   0  0  0  0  0  0  0  0  0  0  0  0
  150.2735  141.1248  158.3024 H   0  0  0  0  0  0  0  0  0  0  0  0
  152.0627  139.7681  159.1211 H   0  0  0  0  0  0  0  0  0  0  0  0
  153.2489  140.6826  158.1888 H   0  0  0  0  0  0  0  0  0  0  0  0
  151.9618  141.5257  160.8144 H   0  0  0  0  0  0  0  0  0  0  0  0
  153.6842  141.5174  160.3988 H   0  0  0  0  0  0  0  0  0  0  0  0
  151.3852  143.7217  157.8896 H   0  0  0  0  0  0  0  0  0  0  0  0
  150.4878  143.1518  159.2960 H   0  0  0  0  0  0  0  0  0  0  0  0
  149.1985  140.5693  155.9172 H   0  0  0  0  0  0  0  0  0  0  0  0
  147.3878  138.4301  152.7473 H   0  0  0  0  0  0  0  0  0  0  0  0
  1  2  1  0  0  0  0
  1 15  1  0  0  0  0
  1 16  1  0  0  0  0
  1 29  1  0  0  0  0
  2  3  1  0  0  0  0
  2 17  1  0  0  0  0
  2 18  1  0  0  0  0
  3 14  1  0  0  0  0
  3  4  2  0  0  0  0
  4  5  1  0  0  0  0
  4 19  1  0  0  0  0
  5  6  2  0  0  0  0
  5 20  1  0  0  0  0
  6  7  1  0  0  0  0
  7  8  1  0  0  0  0
  7 14  2  0  0  0  0
  8  9  1  0  0  0  0
  9 13  1  0  0  0  0
  9 10  1  0  0  0  0
  9 21  1  0  0  0  0
 10 11  1  0  0  0  0
 10 22  1  0  0  0  0
 10 23  1  0  0  0  0
 11 12  1  0  0  0  0
 11 24  1  0  0  0  0
 11 25  1  0  0  0  0
 12 13  1  0  0  0  0
 13 26  1  0  0  0  0
 13 27  1  0  0  0  0
 14 28  1  0  0  0  0
M  CHG  1   1   1
M  END
> <s_m_source_file>
AV-unprocessed.smi

> <i_m_source_file_index>
3091

> <i_lp_mmshare_version>
43012

> <i_f3d_flags>
0

> <s_epik_input>
W05IMl1bQ0gyXWMxW2NIXVtjSF1uYyhbY0hdMSlPW0NAQEhdMltDSDJdW0NIMl1PW0NIMl0y

> <s_epik_cmdline>
J2VwaWtfcHl0aG9uJywgJy1waCcsICc3LjAnLCAnLXRuJywgJzgnLCAnLW1hJywgJzIwMCcsICctbWV0YWxfYmluZGluZycsICctaW1hZScsICc8aW5maWxlLm1hZT4nLCAnLW9tYWUnLCAnPG91dGZpbGUubWFlPic=

> <r_lp_tautomer_probability>
1

> <r_epik_Ionization_Penalty>
0.0773124

> <r_epik_Ionization_Penalty_Charging>
0.0773118

> <r_epik_Ionization_Penalty_Neutral>
5.92883e-07

> <r_epik_State_Penalty>
0.0682686

> <r_epik_Charging_Adjusted_Penalty>
0.14558

> <i_epik_Tot_Q>
1

> <i_epik_Tot_abs_Q>
1

> <r_epik_Metal_State_Penalty>
0.0682821

> <b_epik_Metal_Only>
0

> <s_lp_Force_Field>
OPLS_2005

> <r_lp_Energy>
12.8261

> <b_lp_Chiralities_Consistent>
1

> <s_lp_Variant>
AV-unprocessed.smi:3091-2

> <Gold.Version>
5.8.1

> <Gold.Id.Protein>
6NUR|6NUR_protein|mol2

> <Gold.PLP.Fitness>
39.1577

> <Gold.PLP.PLP>
-27.7027

> <Gold.PLP.part.hbond>
-3.7055

> <Gold.PLP.part.metal>
0.0000

> <Gold.PLP.part.buried>
-3.0910

> <Gold.PLP.part.nonpolar>
-21.2640

> <Gold.PLP.part.repulsive>
0.1009

> <Gold.PLP.ligand.clash>
0.0000

> <Gold.PLP.ligand.torsion>
0.2772

> <Gold.PLP.Chemscore.Hbond>
4.0000

> <Gold.PLP.Chemscore.CHOScore>
0.0000

> <Gold.PLP.Chemscore.Metal>
0.0000

> <Gold.Chemscore.Hbonds>
donor molecule, donor type, donor heavy atom, donor atom, acceptor molecule, acceptor atom, score
      L1  H     1    15       P1  7948  1.37
      L1  H     1    16       P1  7957  1.00
      P1  H  7997  8008       L1     6  0.98

> <Gold.PLP.Chemscore.Internal.Correction>
0.0094

> <Gold.Rescore>
     Score         DG    S(hbond)    S(metal)    S(lipo)     H(rot)  DE(clash)    DE(int)     intcor
     17.73     -18.35       2.73        0.00      66.78       1.59       0.24       0.37       ----

> <Gold.Chemscore.Fitness>
17.7321

> <Gold.Chemscore.DG>
-18.3467

> <Gold.Chemscore.ZeroCoef>
-5.4800

> <Gold.Chemscore.Hbond>
2.7335

> <Gold.Chemscore.Metal>
0.0000

> <Gold.Chemscore.Lipo>
66.7819

> <Gold.Chemscore.Internal_Hbond>
0.0000

> <Gold.Chemscore.DEClash>
0.2426

> <Gold.Chemscore.DEInternal>
0.3721

> <Gold.Chemscore.Rot>
1.5924

> <Gold.Chemscore.Internal.Correction>
   9.000000E+99

> <Gold.Chemscore.Hbonds>
donor molecule, donor type, donor heavy atom, donor atom, acceptor molecule, acceptor atom, score
      L1  H     1    15       P1  7948  0.69
      L1  H     1    16       P1  7957  0.98
      P1  H  7997  8008       L1     6  0.86

> <Gold.Chemscore.Hbond.Weighted>
-9.1298

> <Gold.Chemscore.Metal.Weighted>
-0.0000

> <Gold.Chemscore.Lipo.Weighted>
-7.8135

> <Gold.Chemscore.Internal_Hbond.Weighted>
0.0000

> <Gold.Chemscore.DEClash.Weighted>
0.2426

> <Gold.Chemscore.DEInternal.Weighted>
0.3721

> <Gold.Chemscore.Rot.Weighted>
4.0765

> <Gold.Chemscore.Internal.Correction.Weighted>
   9.000000E+99

> <Gold.Protein.RotatedTorsions>
[ 6907 6896 6895 6894 ] final  -26.06 input  -60.11 | X-H torsion
[ 7974 7965 7964 7962 ] final  115.33 input  175.53 | X-H torsion
[ 8008 7997 7996 7995 ] final  -37.74 input   59.86 | X-H torsion
[ 10167 10162 10161 10158 ] final  -96.21 input  -65.29 | X-H torsion
[ 10718 10713 10712 10709 ] final   71.59 input   66.30 | X-H torsion
[ 10763 10752 10751 10750 ] final   54.44 input  -60.55 | X-H torsion
[ 11005 11000 10999 10996 ] final  -86.79 input  -57.11 | X-H torsion

> <Gold.Protein.ActiveResidues>
 VAL166  LYS551  ARG553  GLY616  TRP617  ASP618  TYR619  PRO620  LYS621  CYS622 
 ASP623  PHE694  ASN695  SER759  ASP760  ASP761  ALA762  ILE779  LEU786  VAL792 
 PHE793  MET794  SER795  GLU796  ALA797  LYS798  CYS799  TRP800  GLU811  SER814 

> <Gold.Protein.RotatedAtoms>
  151.1664  135.0297  159.8732 H   0  0  0  0  0  0  0  0  0  0  0  0  # atno 6907 bound_to 6896
  152.5450  134.1221  159.8413 H   0  0  0  0  0  0  0  0  0  0  0  0  # atno 6908 bound_to 6896
  151.1322  133.4983  159.2631 H   0  0  0  0  0  0  0  0  0  0  0  0  # atno 6909 bound_to 6896
  145.1933  139.2989  143.4356 H   0  0  0  0  0  0  0  0  0  0  0  0  # atno 7974 bound_to 7965
  154.4048  140.1596  156.2585 H   0  0  0  0  0  0  0  0  0  0  0  0  # atno 8008 bound_to 7997
  155.9057  140.3430  155.6037 H   0  0  0  0  0  0  0  0  0  0  0  0  # atno 8009 bound_to 7997
  155.7396  140.0791  157.2242 H   0  0  0  0  0  0  0  0  0  0  0  0  # atno 8010 bound_to 7997
  140.2962  143.3190  152.0295 H   0  0  0  0  0  0  0  0  0  0  0  0  # atno 10167 bound_to 10162
  157.6459  130.9536  150.0811 H   0  0  0  0  0  0  0  0  0  0  0  0  # atno 10718 bound_to 10713
  152.9805  135.5745  154.4904 H   0  0  0  0  0  0  0  0  0  0  0  0  # atno 10763 bound_to 10752
  154.4439  135.2776  155.1830 H   0  0  0  0  0  0  0  0  0  0  0  0  # atno 10764 bound_to 10752
  154.3487  135.6214  153.5685 H   0  0  0  0  0  0  0  0  0  0  0  0  # atno 10765 bound_to 10752
  141.1625  133.7474  156.9212 H   0  0  0  0  0  0  0  0  0  0  0  0  # atno 11005 bound_to 11000
  146.3432  140.2154  142.8590 LP  0  0  0  0  0  0  0  0  0  0  0  0  # atno 17320 bound_to 7965
  145.0019  140.8639  143.5276 LP  0  0  0  0  0  0  0  0  0  0  0  0  # atno 17321 bound_to 7965
  139.4926  144.6489  151.6718 LP  0  0  0  0  0  0  0  0  0  0  0  0  # atno 17342 bound_to 10162
  140.5690  144.0141  150.6207 LP  0  0  0  0  0  0  0  0  0  0  0  0  # atno 17343 bound_to 10162
  156.1787  130.3649  149.9065 LP  0  0  0  0  0  0  0  0  0  0  0  0  # atno 17370 bound_to 10713
  156.7023  130.8938  151.3600 LP  0  0  0  0  0  0  0  0  0  0  0  0  # atno 17371 bound_to 10713
  140.1450  134.9268  157.2517 LP  0  0  0  0  0  0  0  0  0  0  0  0  # atno 17394 bound_to 11000
  140.2791  134.3371  155.7349 LP  0  0  0  0  0  0  0  0  0  0  0  0  # atno 17395 bound_to 11000

$$$$
