AV-unprocessed.smi:99|AV-procd|sdf|891|dock4
  -GOLD-   2262017383D 1   1.00000     0.00000
 Structure written by MMmdl.
 52 55  0  0  0  0  0  0  0  0  2 V2000
  152.6985  140.0730  157.8047 O   0  0  0  0  0  0  0  0  0  0  0  0
  151.9393  140.9826  157.4642 C   0  0  0  0  0  0  0  0  0  0  0  0
  151.0714  140.8848  156.4386 O   0  0  0  0  0  0  0  0  0  0  0  0
  151.1346  139.7728  155.5612 C   0  0  0  0  0  0  0  0  0  0  0  0
  150.0681  139.9277  154.4683 C   0  0  2  0  0  0  0  0  0  0  0  0
  149.2606  141.0695  154.7039 O   0  0  0  0  0  0  0  0  0  0  0  0
  148.0968  140.9425  153.9508 C   0  0  2  0  0  0  0  0  0  0  0  0
  146.9881  141.6920  154.6586 N   0  0  0  0  0  0  0  0  0  0  0  0
  146.2999  142.6718  153.9656 C   0  0  0  0  0  0  0  0  0  0  0  0
  145.3229  143.3956  154.5493 C   0  0  0  0  0  0  0  0  0  0  0  0
  144.9872  143.1483  155.9481 C   0  0  0  0  0  0  0  0  0  0  0  0
  144.0842  143.8005  156.4684 O   0  0  0  0  0  0  0  0  0  0  0  0
  145.6990  142.1988  156.6203 N   0  5  0  0  0  0  0  0  0  0  0  0
  146.6961  141.4730  156.0350 C   0  0  0  0  0  0  0  0  0  0  0  0
  147.3592  140.6397  156.6485 O   0  0  0  0  0  0  0  0  0  0  0  0
  147.8149  139.4363  153.7736 C   0  0  1  0  0  0  0  0  0  0  0  0
  147.7212  139.0730  152.4111 O   0  0  0  0  0  0  0  0  0  0  0  0
  149.0576  138.7755  154.3768 C   0  0  2  0  0  0  0  0  0  0  0  0
  148.7803  138.2466  155.6683 O   0  0  0  0  0  0  0  0  0  0  0  0
  148.1306  137.0751  155.8213 C   0  0  0  0  0  0  0  0  0  0  0  0
  147.5740  136.4753  154.8994 O   0  0  0  0  0  0  0  0  0  0  0  0
  148.1569  136.5838  157.2289 C   0  0  0  0  0  0  0  0  0  0  0  0
  148.9381  137.2677  158.1892 C   0  0  0  0  0  0  0  0  0  0  0  0
  148.9843  136.8223  159.5247 C   0  0  0  0  0  0  0  0  0  0  0  0
  148.2515  135.6865  159.9154 C   0  0  0  0  0  0  0  0  0  0  0  0
  147.4716  134.9967  158.9692 C   0  0  0  0  0  0  0  0  0  0  0  0
  147.4227  135.4416  157.6339 C   0  0  0  0  0  0  0  0  0  0  0  0
  151.8831  142.3068  158.1487 C   0  0  0  0  0  0  0  0  0  0  0  0
  152.4321  142.4401  159.4455 C   0  0  0  0  0  0  0  0  0  0  0  0
  152.3847  143.6750  160.1212 C   0  0  0  0  0  0  0  0  0  0  0  0
  151.7885  144.7921  159.5079 C   0  0  0  0  0  0  0  0  0  0  0  0
  151.2406  144.6733  158.2174 C   0  0  0  0  0  0  0  0  0  0  0  0
  151.2864  143.4389  157.5403 C   0  0  0  0  0  0  0  0  0  0  0  0
  152.1260  139.7309  155.1079 H   0  0  0  0  0  0  0  0  0  0  0  0
  150.9837  138.8453  156.1157 H   0  0  0  0  0  0  0  0  0  0  0  0
  150.5492  140.0460  153.4957 H   0  0  0  0  0  0  0  0  0  0  0  0
  148.2432  141.4513  152.9966 H   0  0  0  0  0  0  0  0  0  0  0  0
  146.5415  142.8674  152.9315 H   0  0  0  0  0  0  0  0  0  0  0  0
  144.7958  144.1540  153.9894 H   0  0  0  0  0  0  0  0  0  0  0  0
  146.8950  139.1378  154.2771 H   0  0  0  0  0  0  0  0  0  0  0  0
  148.5839  139.1204  152.0289 H   0  0  0  0  0  0  0  0  0  0  0  0
  149.4556  137.9827  153.7411 H   0  0  0  0  0  0  0  0  0  0  0  0
  149.5107  138.1408  157.9117 H   0  0  0  0  0  0  0  0  0  0  0  0
  149.5847  137.3522  160.2493 H   0  0  0  0  0  0  0  0  0  0  0  0
  148.2886  135.3437  160.9390 H   0  0  0  0  0  0  0  0  0  0  0  0
  146.9111  134.1225  159.2657 H   0  0  0  0  0  0  0  0  0  0  0  0
  146.8171  134.8857  156.9328 H   0  0  0  0  0  0  0  0  0  0  0  0
  152.8933  141.5960  159.9377 H   0  0  0  0  0  0  0  0  0  0  0  0
  152.8051  143.7637  161.1122 H   0  0  0  0  0  0  0  0  0  0  0  0
  151.7507  145.7386  160.0270 H   0  0  0  0  0  0  0  0  0  0  0  0
  150.7819  145.5298  157.7456 H   0  0  0  0  0  0  0  0  0  0  0  0
  150.8534  143.3812  156.5524 H   0  0  0  0  0  0  0  0  0  0  0  0
  1  2  2  0  0  0  0
  2  3  1  0  0  0  0
  2 28  1  0  0  0  0
  3  4  1  0  0  0  0
  4  5  1  0  0  0  0
  4 34  1  0  0  0  0
  4 35  1  0  0  0  0
  5 18  1  0  0  0  0
  5  6  1  0  0  0  0
  5 36  1  0  0  0  0
  6  7  1  0  0  0  0
  7  8  1  0  0  0  0
  7 16  1  0  0  0  0
  7 37  1  0  0  0  0
  8 14  1  0  0  0  0
  8  9  1  0  0  0  0
  9 10  2  0  0  0  0
  9 38  1  0  0  0  0
 10 11  1  0  0  0  0
 10 39  1  0  0  0  0
 11 12  2  0  0  0  0
 11 13  1  0  0  0  0
 13 14  1  0  0  0  0
 14 15  2  0  0  0  0
 16 17  1  0  0  0  0
 16 18  1  0  0  0  0
 16 40  1  0  0  0  0
 17 41  1  0  0  0  0
 18 19  1  0  0  0  0
 18 42  1  0  0  0  0
 19 20  1  0  0  0  0
 20 21  2  0  0  0  0
 20 22  1  0  0  0  0
 22 27  1  0  0  0  0
 22 23  2  0  0  0  0
 23 24  1  0  0  0  0
 23 43  1  0  0  0  0
 24 25  2  0  0  0  0
 24 44  1  0  0  0  0
 25 26  1  0  0  0  0
 25 45  1  0  0  0  0
 26 27  2  0  0  0  0
 26 46  1  0  0  0  0
 27 47  1  0  0  0  0
 28 33  1  0  0  0  0
 28 29  2  0  0  0  0
 29 30  1  0  0  0  0
 29 48  1  0  0  0  0
 30 31  2  0  0  0  0
 30 49  1  0  0  0  0
 31 32  1  0  0  0  0
 31 50  1  0  0  0  0
 32 33  2  0  0  0  0
 32 51  1  0  0  0  0
 33 52  1  0  0  0  0
M  CHG  1  13  -1
M  END
> <s_m_source_file>
AV-unprocessed.smi

> <i_m_source_file_index>
99

> <i_lp_mmshare_version>
43012

> <i_f3d_flags>
0

> <s_epik_input>
W2NIXTFbY0hdW2NIXVtjSF1bY0hdYzFDKD1PKU9bQ0gyXVtDQEBIXTJPW0NAQEhdKG4zW2NIXVtjSF1jKD1PKVtuSF1jMz1PKVtDQEBIXShbT0hdKVtDQEhdMk9DKD1PKWM0W2NIXVtjSF1bY0hdW2NIXVtjSF00

> <s_epik_cmdline>
J2VwaWtfcHl0aG9uJywgJy1waCcsICc3LjAnLCAnLXRuJywgJzgnLCAnLW1hJywgJzIwMCcsICctbWV0YWxfYmluZGluZycsICctaW1hZScsICc8aW5maWxlLm1hZT4nLCAnLW9tYWUnLCAnPG91dGZpbGUubWFlPic=

> <r_lp_tautomer_probability>
1

> <r_epik_Ionization_Penalty>
2.89159

> <r_epik_Ionization_Penalty_Charging>
2.1077e-08

> <r_epik_Ionization_Penalty_Neutral>
2.89159

> <r_epik_State_Penalty>
2.88671

> <r_epik_Charging_Adjusted_Penalty>
2.88671

> <i_epik_Tot_Q>
-1

> <i_epik_Tot_abs_Q>
1

> <r_epik_Metal_State_Penalty>
0.0727308

> <b_epik_Metal_Only>
1

> <s_epik_Chemistry_Notes>
This compound has an ester and may undergo hydrolysis at high or low pH. This compound contains an acetal/aminal-like group ( X-CH(R)-Y where X, Y are N, S, or O) that may be acid/base labile, releasing an aldehyde.

> <s_lp_Force_Field>
OPLS_2005

> <r_lp_Energy>
34.2079

> <b_lp_Chiralities_Consistent>
1

> <s_lp_Variant>
AV-unprocessed.smi:99-27

> <Gold.Version>
5.8.1

> <Gold.Id.Protein>
6NUR|6NUR_protein|mol2

> <Gold.PLP.Fitness>
57.5740

> <Gold.PLP.PLP>
-54.1902

> <Gold.PLP.part.hbond>
-2.5089

> <Gold.PLP.part.metal>
0.0000

> <Gold.PLP.part.buried>
-8.0001

> <Gold.PLP.part.nonpolar>
-44.6144

> <Gold.PLP.part.repulsive>
0.4446

> <Gold.PLP.ligand.clash>
0.0000

> <Gold.PLP.ligand.torsion>
1.2929

> <Gold.PLP.Chemscore.Hbond>
1.8800

> <Gold.PLP.Chemscore.CHOScore>
0.0000

> <Gold.PLP.Chemscore.Metal>
0.0000

> <Gold.Chemscore.Hbonds>
donor molecule, donor type, donor heavy atom, donor atom, acceptor molecule, acceptor atom, score
      L1  H    17    41       P1  7957  0.90
      P1  H  7997  8010       L1     1  1.00

> <Gold.PLP.Chemscore.Internal.Correction>
0.3295

> <Gold.Rescore>
     Score         DG    S(hbond)    S(metal)    S(lipo)     H(rot)  DE(clash)    DE(int)     intcor
     14.10     -18.18       1.91        0.00     122.55       3.13       0.22       3.86       ----

> <Gold.Chemscore.Fitness>
14.1018

> <Gold.Chemscore.DG>
-18.1767

> <Gold.Chemscore.ZeroCoef>
-5.4800

> <Gold.Chemscore.Hbond>
1.9112

> <Gold.Chemscore.Metal>
0.0000

> <Gold.Chemscore.Lipo>
122.5453

> <Gold.Chemscore.Internal_Hbond>
0.0000

> <Gold.Chemscore.DEClash>
0.2159

> <Gold.Chemscore.DEInternal>
3.8590

> <Gold.Chemscore.Rot>
3.1346

> <Gold.Chemscore.Internal.Correction>
   9.000000E+99

> <Gold.Chemscore.Hbonds>
donor molecule, donor type, donor heavy atom, donor atom, acceptor molecule, acceptor atom, score
      L1  H    17    41       P1  7957  0.86
      P1  H  7997  8010       L1     1  0.84

> <Gold.Chemscore.Hbond.Weighted>
-6.3835

> <Gold.Chemscore.Metal.Weighted>
-0.0000

> <Gold.Chemscore.Lipo.Weighted>
-14.3378

> <Gold.Chemscore.Internal_Hbond.Weighted>
0.0000

> <Gold.Chemscore.DEClash.Weighted>
0.2159

> <Gold.Chemscore.DEInternal.Weighted>
3.8590

> <Gold.Chemscore.Rot.Weighted>
8.0246

> <Gold.Chemscore.Internal.Correction.Weighted>
   9.000000E+99

> <Gold.Protein.RotatedTorsions>
[ 6907 6896 6895 6894 ] final   -6.57 input  -60.11 | X-H torsion
[ 7974 7965 7964 7962 ] final -125.73 input  175.53 | X-H torsion
[ 8008 7997 7996 7995 ] final   43.27 input   59.86 | X-H torsion
[ 10167 10162 10161 10158 ] final  128.98 input  -65.29 | X-H torsion
[ 10718 10713 10712 10709 ] final  -64.77 input   66.30 | X-H torsion
[ 10763 10752 10751 10750 ] final  100.51 input  -60.55 | X-H torsion
[ 11005 11000 10999 10996 ] final -143.57 input  -57.11 | X-H torsion

> <Gold.Protein.ActiveResidues>
 VAL166  LYS551  ARG553  GLY616  TRP617  ASP618  TYR619  PRO620  LYS621  CYS622 
 ASP623  PHE694  ASN695  SER759  ASP760  ASP761  ALA762  ILE779  LEU786  VAL792 
 PHE793  MET794  SER795  GLU796  ALA797  LYS798  CYS799  TRP800  GLU811  SER814 

> <Gold.Protein.RotatedAtoms>
  151.4634  135.1040  159.9730 H   0  0  0  0  0  0  0  0  0  0  0  0  # atno 6907 bound_to 6896
  152.4844  133.8331  159.7124 H   0  0  0  0  0  0  0  0  0  0  0  0  # atno 6908 bound_to 6896
  150.8941  133.7143  159.2923 H   0  0  0  0  0  0  0  0  0  0  0  0  # atno 6909 bound_to 6896
  144.9945  140.7763  143.4534 H   0  0  0  0  0  0  0  0  0  0  0  0  # atno 7974 bound_to 7965
  155.2999  140.3384  155.4248 H   0  0  0  0  0  0  0  0  0  0  0  0  # atno 8008 bound_to 7997
  156.2006  140.1731  156.7946 H   0  0  0  0  0  0  0  0  0  0  0  0  # atno 8009 bound_to 7997
  154.5554  140.0697  156.8719 H   0  0  0  0  0  0  0  0  0  0  0  0  # atno 8010 bound_to 7997
  139.5500  144.6805  151.4353 H   0  0  0  0  0  0  0  0  0  0  0  0  # atno 10167 bound_to 10162
  156.0709  130.4238  150.1468 H   0  0  0  0  0  0  0  0  0  0  0  0  # atno 10718 bound_to 10713
  153.3148  135.4076  155.1367 H   0  0  0  0  0  0  0  0  0  0  0  0  # atno 10763 bound_to 10752
  154.8585  135.3573  154.5675 H   0  0  0  0  0  0  0  0  0  0  0  0  # atno 10764 bound_to 10752
  153.6105  135.7068  153.5407 H   0  0  0  0  0  0  0  0  0  0  0  0  # atno 10765 bound_to 10752
  140.8111  134.2743  157.4940 H   0  0  0  0  0  0  0  0  0  0  0  0  # atno 11005 bound_to 11000
  145.2239  139.2146  143.5078 LP  0  0  0  0  0  0  0  0  0  0  0  0  # atno 17320 bound_to 7965
  146.3439  140.2102  142.8590 LP  0  0  0  0  0  0  0  0  0  0  0  0  # atno 17321 bound_to 7965
  140.6760  143.8188  150.7059 LP  0  0  0  0  0  0  0  0  0  0  0  0  # atno 17342 bound_to 10162
  140.1627  143.4261  152.2055 LP  0  0  0  0  0  0  0  0  0  0  0  0  # atno 17343 bound_to 10162
  156.9519  130.9777  151.3496 LP  0  0  0  0  0  0  0  0  0  0  0  0  # atno 17370 bound_to 10713
  157.5779  130.8356  149.8481 LP  0  0  0  0  0  0  0  0  0  0  0  0  # atno 17371 bound_to 10713
  139.8714  134.9484  156.3994 LP  0  0  0  0  0  0  0  0  0  0  0  0  # atno 17394 bound_to 11000
  140.9196  133.7654  155.9890 LP  0  0  0  0  0  0  0  0  0  0  0  0  # atno 17395 bound_to 11000

$$$$
