AV-unprocessed.smi:1734|AV-procd|sdf|6984|dock7
  -GOLD-   22720 8203D 1   1.00000     0.00000
 Structure written by MMmdl.
 51 53  0  0  0  0  0  0  0  0  2 V2000
  147.4631  132.8585  152.1848 C   0  0  0  0  0  0  0  0  0  0  0  0
  146.2780  133.0723  151.2571 C   0  0  0  0  0  0  0  0  0  0  0  0
  145.7830  131.9838  150.5075 C   0  0  0  0  0  0  0  0  0  0  0  0
  144.6852  132.1821  149.6529 C   0  0  0  0  0  0  0  0  0  0  0  0
  144.1250  133.4691  149.5833 C   0  0  0  0  0  0  0  0  0  0  0  0
  144.5913  134.5147  150.2960 N   0  0  0  0  0  0  0  0  0  0  0  0
  145.6498  134.3401  151.1266 C   0  0  0  0  0  0  0  0  0  0  0  0
  146.1982  135.3994  151.9040 N   0  0  0  0  0  0  0  0  0  0  0  0
  145.5626  136.2328  152.7467 C   0  0  0  0  0  0  0  0  0  0  0  0
  144.3640  136.1932  153.0243 O   0  0  0  0  0  0  0  0  0  0  0  0
  146.4077  137.1297  153.2717 N   0  0  0  0  0  0  0  0  0  0  0  0
  146.0219  138.1593  154.2321 C   0  0  0  0  0  0  0  0  0  0  0  0
  146.9183  139.4248  154.1730 C   0  0  2  0  0  0  0  0  0  0  0  0
  148.1350  139.3723  155.1315 C   0  0  2  0  0  0  0  0  0  0  0  0
  149.3014  140.2481  154.7098 C   0  0  0  0  0  0  0  0  0  0  0  0
  150.4567  139.6501  155.5061 C   0  0  0  0  0  0  0  0  0  0  0  0
  150.1551  138.2657  155.6456 O   0  0  0  0  0  0  0  0  0  0  0  0
  148.8268  138.0080  155.2031 C   0  0  0  0  0  0  0  0  0  0  0  0
  146.1677  140.7093  154.3193 N   0  3  0  0  0  0  0  0  0  0  0  0
  145.4132  140.8318  155.5909 C   0  0  0  0  0  0  0  0  0  0  0  0
  144.5128  142.0786  155.5525 C   0  0  0  0  0  0  0  0  0  0  0  0
  145.3027  143.2341  155.2969 O   0  0  0  0  0  0  0  0  0  0  0  0
  145.9720  143.1605  154.0435 C   0  0  0  0  0  0  0  0  0  0  0  0
  146.9261  141.9549  154.0408 C   0  0  0  0  0  0  0  0  0  0  0  0
  147.8263  131.8315  152.1343 H   0  0  0  0  0  0  0  0  0  0  0  0
  147.1794  133.0636  153.2176 H   0  0  0  0  0  0  0  0  0  0  0  0
  148.2872  133.5185  151.9128 H   0  0  0  0  0  0  0  0  0  0  0  0
  146.2366  131.0065  150.5848 H   0  0  0  0  0  0  0  0  0  0  0  0
  144.2832  131.3693  149.0663 H   0  0  0  0  0  0  0  0  0  0  0  0
  143.2810  133.6652  148.9386 H   0  0  0  0  0  0  0  0  0  0  0  0
  147.1920  135.5381  151.8000 H   0  0  0  0  0  0  0  0  0  0  0  0
  147.3766  137.0983  152.9908 H   0  0  0  0  0  0  0  0  0  0  0  0
  144.9932  138.4529  154.0156 H   0  0  0  0  0  0  0  0  0  0  0  0
  146.0038  137.7331  155.2352 H   0  0  0  0  0  0  0  0  0  0  0  0
  147.3366  139.4455  153.1653 H   0  0  0  0  0  0  0  0  0  0  0  0
  147.8410  139.6565  156.1426 H   0  0  0  0  0  0  0  0  0  0  0  0
  149.4934  140.1429  153.6409 H   0  0  0  0  0  0  0  0  0  0  0  0
  149.1464  141.3057  154.9256 H   0  0  0  0  0  0  0  0  0  0  0  0
  151.4205  139.8021  155.0197 H   0  0  0  0  0  0  0  0  0  0  0  0
  150.5046  140.0957  156.5004 H   0  0  0  0  0  0  0  0  0  0  0  0
  148.3166  137.3143  155.8719 H   0  0  0  0  0  0  0  0  0  0  0  0
  148.8788  137.5467  154.2159 H   0  0  0  0  0  0  0  0  0  0  0  0
  144.7980  139.9458  155.7512 H   0  0  0  0  0  0  0  0  0  0  0  0
  146.1027  140.9016  156.4328 H   0  0  0  0  0  0  0  0  0  0  0  0
  143.7397  141.9772  154.7890 H   0  0  0  0  0  0  0  0  0  0  0  0
  144.0023  142.2035  156.5074 H   0  0  0  0  0  0  0  0  0  0  0  0
  145.2458  143.0864  153.2323 H   0  0  0  0  0  0  0  0  0  0  0  0
  146.5316  144.0829  153.8873 H   0  0  0  0  0  0  0  0  0  0  0  0
  147.6938  142.1059  154.8005 H   0  0  0  0  0  0  0  0  0  0  0  0
  147.4292  141.8915  153.0764 H   0  0  0  0  0  0  0  0  0  0  0  0
  145.4554  140.6652  153.6044 H   0  0  0  0  0  0  0  0  0  0  0  0
  1  2  1  0  0  0  0
  1 25  1  0  0  0  0
  1 26  1  0  0  0  0
  1 27  1  0  0  0  0
  2  7  1  0  0  0  0
  2  3  2  0  0  0  0
  3  4  1  0  0  0  0
  3 28  1  0  0  0  0
  4  5  2  0  0  0  0
  4 29  1  0  0  0  0
  5  6  1  0  0  0  0
  5 30  1  0  0  0  0
  6  7  2  0  0  0  0
  7  8  1  0  0  0  0
  8  9  1  0  0  0  0
  8 31  1  0  0  0  0
  9 10  2  0  0  0  0
  9 11  1  0  0  0  0
 11 12  1  0  0  0  0
 11 32  1  0  0  0  0
 12 13  1  0  0  0  0
 12 33  1  0  0  0  0
 12 34  1  0  0  0  0
 13 14  1  0  0  0  0
 13 19  1  0  0  0  0
 13 35  1  0  0  0  0
 14 18  1  0  0  0  0
 14 15  1  0  0  0  0
 14 36  1  0  0  0  0
 15 16  1  0  0  0  0
 15 37  1  0  0  0  0
 15 38  1  0  0  0  0
 16 17  1  0  0  0  0
 16 39  1  0  0  0  0
 16 40  1  0  0  0  0
 17 18  1  0  0  0  0
 18 41  1  0  0  0  0
 18 42  1  0  0  0  0
 19 24  1  0  0  0  0
 19 20  1  0  0  0  0
 19 51  1  0  0  0  0
 20 21  1  0  0  0  0
 20 43  1  0  0  0  0
 20 44  1  0  0  0  0
 21 22  1  0  0  0  0
 21 45  1  0  0  0  0
 21 46  1  0  0  0  0
 22 23  1  0  0  0  0
 23 24  1  0  0  0  0
 23 47  1  0  0  0  0
 23 48  1  0  0  0  0
 24 49  1  0  0  0  0
 24 50  1  0  0  0  0
M  CHG  1  19   1
M  END
> <s_m_source_file>
AV-unprocessed.smi

> <i_m_source_file_index>
1734

> <i_lp_mmshare_version>
43012

> <i_f3d_flags>
0

> <s_epik_input>
W0NIM11jMVtjSF1bY0hdW2NIXW5jMVtOSF1DKD1PKVtOSF1bQ0gyXVtDQEhdKFtDQEBIXTJbQ0gyXVtDSDJdT1tDSDJdMilOM1tDSDJdW0NIMl1PW0NIMl1bQ0gyXTM=

> <s_epik_cmdline>
J2VwaWtfcHl0aG9uJywgJy1waCcsICc3LjAnLCAnLXRuJywgJzgnLCAnLW1hJywgJzIwMCcsICctbWV0YWxfYmluZGluZycsICctaW1hZScsICc8aW5maWxlLm1hZT4nLCAnLW9tYWUnLCAnPG91dGZpbGUubWFlPic=

> <r_epik_Ionization_Penalty>
0.983302

> <r_epik_Ionization_Penalty_Charging>
0.98326

> <r_epik_Ionization_Penalty_Neutral>
4.21967e-05

> <r_epik_State_Penalty>
1.0303

> <r_epik_Charging_Adjusted_Penalty>
2.01356

> <i_epik_Tot_Q>
1

> <i_epik_Tot_abs_Q>
1

> <r_epik_Metal_State_Penalty>
1.03031

> <b_epik_Metal_Only>
0

> <s_lp_Force_Field>
OPLS_2005

> <r_lp_Energy>
50.4673

> <b_lp_Chiralities_Consistent>
1

> <s_lp_Variant>
AV-unprocessed.smi:1734-5

> <Gold.Version>
5.8.1

> <Gold.Id.Protein>
6NUR|6NUR_protein|mol2

> <Gold.PLP.Fitness>
49.7862

> <Gold.PLP.PLP>
-37.6750

> <Gold.PLP.part.hbond>
-3.0000

> <Gold.PLP.part.metal>
0.0000

> <Gold.PLP.part.buried>
-5.4098

> <Gold.PLP.part.nonpolar>
-30.0401

> <Gold.PLP.part.repulsive>
0.6203

> <Gold.PLP.ligand.clash>
0.0000

> <Gold.PLP.ligand.torsion>
1.4893

> <Gold.PLP.Chemscore.Hbond>
3.9350

> <Gold.PLP.Chemscore.CHOScore>
1.0000

> <Gold.PLP.Chemscore.Metal>
0.0000

> <Gold.Chemscore.Hbonds>
donor molecule, donor type, donor heavy atom, donor atom, acceptor molecule, acceptor atom, score
      L1  H     8    31       P1  7948  1.00
      L1  H    11    32       P1  7948  0.78
      L1  H    19    51       P1 10175  1.62
      L1  C     5    30       P1 10186  0.99

> <Gold.PLP.Chemscore.Internal.Correction>
0.2850

> <Gold.Rescore>
     Score         DG    S(hbond)    S(metal)    S(lipo)     H(rot)  DE(clash)    DE(int)     intcor
     18.40     -21.25       2.81        0.00      91.65       1.70       0.43       2.42       ----

> <Gold.Chemscore.Fitness>
18.4004

> <Gold.Chemscore.DG>
-21.2494

> <Gold.Chemscore.ZeroCoef>
-5.4800

> <Gold.Chemscore.Hbond>
2.8128

> <Gold.Chemscore.Metal>
0.0000

> <Gold.Chemscore.Lipo>
91.6512

> <Gold.Chemscore.Internal_Hbond>
0.0000

> <Gold.Chemscore.DEClash>
0.4326

> <Gold.Chemscore.DEInternal>
2.4164

> <Gold.Chemscore.Rot>
1.6986

> <Gold.Chemscore.Internal.Correction>
   9.000000E+99

> <Gold.Chemscore.Hbonds>
donor molecule, donor type, donor heavy atom, donor atom, acceptor molecule, acceptor atom, score
      L1  H     8    31       P1  7948  1.00
      L1  H    11    32       P1  7948  0.73
      L1  H    19    51       P1 10175  0.76

> <Gold.Chemscore.Hbond.Weighted>
-9.3947

> <Gold.Chemscore.Metal.Weighted>
-0.0000

> <Gold.Chemscore.Lipo.Weighted>
-10.7232

> <Gold.Chemscore.Internal_Hbond.Weighted>
0.0000

> <Gold.Chemscore.DEClash.Weighted>
0.4326

> <Gold.Chemscore.DEInternal.Weighted>
2.4164

> <Gold.Chemscore.Rot.Weighted>
4.3485

> <Gold.Chemscore.Internal.Correction.Weighted>
   9.000000E+99

> <Gold.Protein.RotatedTorsions>
[ 6907 6896 6895 6894 ] final  125.45 input  -60.11 | X-H torsion
[ 7974 7965 7964 7962 ] final  -71.52 input  175.53 | X-H torsion
[ 8008 7997 7996 7995 ] final    8.53 input   59.86 | X-H torsion
[ 10167 10162 10161 10158 ] final  166.07 input  -65.29 | X-H torsion
[ 10718 10713 10712 10709 ] final   43.38 input   66.30 | X-H torsion
[ 10763 10752 10751 10750 ] final  -45.10 input  -60.55 | X-H torsion
[ 11005 11000 10999 10996 ] final   92.49 input  -57.11 | X-H torsion

> <Gold.Protein.ActiveResidues>
 VAL166  LYS551  ARG553  GLY616  TRP617  ASP618  TYR619  PRO620  LYS621  CYS622 
 ASP623  PHE694  ASN695  SER759  ASP760  ASP761  ALA762  ILE779  LEU786  VAL792 
 PHE793  MET794  SER795  GLU796  ALA797  LYS798  CYS799  TRP800  GLU811  SER814 

> <Gold.Protein.RotatedAtoms>
  152.3991  133.6791  159.6300 H   0  0  0  0  0  0  0  0  0  0  0  0  # atno 6907 bound_to 6896
  150.7885  133.8823  159.3298 H   0  0  0  0  0  0  0  0  0  0  0  0  # atno 6908 bound_to 6896
  151.6592  135.0993  160.0227 H   0  0  0  0  0  0  0  0  0  0  0  0  # atno 6909 bound_to 6896
  145.6770  140.9201  143.0852 H   0  0  0  0  0  0  0  0  0  0  0  0  # atno 7974 bound_to 7965
  154.7680  140.2797  155.6160 H   0  0  0  0  0  0  0  0  0  0  0  0  # atno 8008 bound_to 7997
  156.2928  140.2647  156.2403 H   0  0  0  0  0  0  0  0  0  0  0  0  # atno 8009 bound_to 7997
  154.9935  140.0373  157.2319 H   0  0  0  0  0  0  0  0  0  0  0  0  # atno 8010 bound_to 7997
  139.4917  144.4066  151.9348 H   0  0  0  0  0  0  0  0  0  0  0  0  # atno 10167 bound_to 10162
  157.4153  130.7937  149.7466 H   0  0  0  0  0  0  0  0  0  0  0  0  # atno 10718 bound_to 10713
  154.0229  135.6667  153.4774 H   0  0  0  0  0  0  0  0  0  0  0  0  # atno 10763 bound_to 10752
  153.0572  135.5049  154.8006 H   0  0  0  0  0  0  0  0  0  0  0  0  # atno 10764 bound_to 10752
  154.6926  135.3064  154.9422 H   0  0  0  0  0  0  0  0  0  0  0  0  # atno 10765 bound_to 10752
  139.8823  134.8736  156.3581 H   0  0  0  0  0  0  0  0  0  0  0  0  # atno 11005 bound_to 11000
  144.7038  139.8646  143.7436 LP  0  0  0  0  0  0  0  0  0  0  0  0  # atno 17320 bound_to 7965
  146.0997  139.3991  143.0354 LP  0  0  0  0  0  0  0  0  0  0  0  0  # atno 17321 bound_to 7965
  140.3506  144.3093  150.5950 LP  0  0  0  0  0  0  0  0  0  0  0  0  # atno 17342 bound_to 10162
  140.5488  143.2210  151.7962 LP  0  0  0  0  0  0  0  0  0  0  0  0  # atno 17343 bound_to 10162
  155.9863  130.3976  150.3219 LP  0  0  0  0  0  0  0  0  0  0  0  0  # atno 17370 bound_to 10713
  157.1361  131.0284  151.2948 LP  0  0  0  0  0  0  0  0  0  0  0  0  # atno 17371 bound_to 10713
  140.9548  133.7427  156.0321 LP  0  0  0  0  0  0  0  0  0  0  0  0  # atno 17394 bound_to 11000
  140.8061  134.3453  157.5425 LP  0  0  0  0  0  0  0  0  0  0  0  0  # atno 17395 bound_to 11000

$$$$
