AV-unprocessed.smi:285|AV-procd|sdf|2167|dock3
  -GOLD-   2262021523D 1   1.00000     0.00000
 Structure written by MMmdl.
 31 33  0  0  0  0  0  0  0  0  1 V2000
  153.7738  141.7081  159.7017 N   0  0  0  0  0  0  0  0  0  0  0  0
  152.7679  141.9737  158.8570 C   0  0  0  0  0  0  0  0  0  0  0  0
  151.9709  143.0356  159.1199 N   0  0  0  0  0  0  0  0  0  0  0  0
  150.9626  143.3240  158.2906 C   0  0  0  0  0  0  0  0  0  0  0  0
  150.5932  142.6925  157.1732 N   0  0  0  0  0  0  0  0  0  0  0  0
  151.3957  141.6192  156.9099 C   0  0  0  0  0  0  0  0  0  0  0  0
  152.5025  141.1954  157.7022 C   0  0  0  0  0  0  0  0  0  0  0  0
  153.0949  140.0720  157.1388 N   0  0  0  0  0  0  0  0  0  0  0  0
  152.3661  139.8651  156.0777 C   0  0  0  0  0  0  0  0  0  0  0  0
  152.7642  138.4199  154.9026 Br  0  0  0  0  0  0  0  0  0  0  0  0
  151.3239  140.7354  155.8507 N   0  0  0  0  0  0  0  0  0  0  0  0
  150.3353  140.7483  154.7292 C   0  0  2  0  0  0  0  0  0  0  0  0
  149.5719  142.0690  154.6933 C   0  0  0  0  0  0  0  0  0  0  0  0
  148.2427  141.6095  154.1370 C   0  0  2  0  0  0  0  0  0  0  0  0
  147.2189  142.5238  154.4714 O   0  0  0  0  0  0  0  0  0  0  0  0
  148.0749  140.2530  154.8336 C   0  0  1  0  0  0  0  0  0  0  0  0
  147.1900  139.2478  154.0808 C   0  0  0  0  0  0  0  0  0  0  0  0
  147.9080  138.6521  153.0210 O   0  0  0  0  0  0  0  0  0  0  0  0
  149.4004  139.7327  154.9381 O   0  0  0  0  0  0  0  0  0  0  0  0
  154.3829  140.9219  159.5262 H   0  0  0  0  0  0  0  0  0  0  0  0
  153.9235  142.2965  160.5084 H   0  0  0  0  0  0  0  0  0  0  0  0
  150.3670  144.1839  158.5598 H   0  0  0  0  0  0  0  0  0  0  0  0
  150.9001  140.5474  153.8194 H   0  0  0  0  0  0  0  0  0  0  0  0
  149.4575  142.4610  155.7057 H   0  0  0  0  0  0  0  0  0  0  0  0
  150.0834  142.8081  154.0762 H   0  0  0  0  0  0  0  0  0  0  0  0
  148.3072  141.4882  153.0546 H   0  0  0  0  0  0  0  0  0  0  0  0
  147.6208  143.3318  154.7534 H   0  0  0  0  0  0  0  0  0  0  0  0
  147.7069  140.3957  155.8515 H   0  0  0  0  0  0  0  0  0  0  0  0
  146.8163  138.4745  154.7525 H   0  0  0  0  0  0  0  0  0  0  0  0
  146.3223  139.7568  153.6603 H   0  0  0  0  0  0  0  0  0  0  0  0
  148.2874  139.3377  152.4925 H   0  0  0  0  0  0  0  0  0  0  0  0
  1  2  1  0  0  0  0
  1 20  1  0  0  0  0
  1 21  1  0  0  0  0
  2  7  1  0  0  0  0
  2  3  2  0  0  0  0
  3  4  1  0  0  0  0
  4  5  2  0  0  0  0
  4 22  1  0  0  0  0
  5  6  1  0  0  0  0
  6 11  1  0  0  0  0
  6  7  2  0  0  0  0
  7  8  1  0  0  0  0
  8  9  2  0  0  0  0
  9 10  1  0  0  0  0
  9 11  1  0  0  0  0
 11 12  1  0  0  0  0
 12 19  1  0  0  0  0
 12 13  1  0  0  0  0
 12 23  1  0  0  0  0
 13 14  1  0  0  0  0
 13 24  1  0  0  0  0
 13 25  1  0  0  0  0
 14 15  1  0  0  0  0
 14 16  1  0  0  0  0
 14 26  1  0  0  0  0
 15 27  1  0  0  0  0
 16 17  1  0  0  0  0
 16 19  1  0  0  0  0
 16 28  1  0  0  0  0
 17 18  1  0  0  0  0
 17 29  1  0  0  0  0
 17 30  1  0  0  0  0
 18 31  1  0  0  0  0
M  END
> <s_m_source_file>
AV-unprocessed.smi

> <i_m_source_file_index>
285

> <i_lp_mmshare_version>
43012

> <i_f3d_flags>
0

> <s_epik_input>
bjFbY0hdbmMoW05IMl0pYyhjMTIpbmMoQnIpbjJbQ0BASF0zW0NIMl1bQ0BASF0oW09IXSlbQ0BIXShPMylbQ0gyXVtPSF0=

> <s_epik_cmdline>
J2VwaWtfcHl0aG9uJywgJy1waCcsICc3LjAnLCAnLXRuJywgJzgnLCAnLW1hJywgJzIwMCcsICctbWV0YWxfYmluZGluZycsICctaW1hZScsICc8aW5maWxlLm1hZT4nLCAnLW9tYWUnLCAnPG91dGZpbGUubWFlPic=

> <r_lp_tautomer_probability>
1

> <r_epik_Ionization_Penalty>
0.000103242

> <r_epik_Ionization_Penalty_Charging>
0

> <r_epik_Ionization_Penalty_Neutral>
0.000103242

> <r_epik_State_Penalty>
-0

> <r_epik_Charging_Adjusted_Penalty>
0

> <i_epik_Tot_Q>
0

> <i_epik_Tot_abs_Q>
0

> <r_epik_Metal_State_Penalty>
-0

> <b_epik_Metal_Only>
0

> <s_epik_Chemistry_Notes>
This compound contains an acetal/aminal-like group ( X-CH(R)-Y where X, Y are N, S, or O) that may be acid/base labile, releasing an aldehyde.

> <s_lp_Force_Field>
OPLS_2005

> <r_lp_Energy>
29.9109

> <b_lp_Chiralities_Consistent>
1

> <s_lp_Variant>
AV-unprocessed.smi:285-3

> <Gold.Version>
5.8.1

> <Gold.Id.Protein>
6NUR|6NUR_protein|mol2

> <Gold.PLP.Fitness>
37.4337

> <Gold.PLP.PLP>
-29.8191

> <Gold.PLP.part.hbond>
-4.2954

> <Gold.PLP.part.metal>
0.0000

> <Gold.PLP.part.buried>
-0.5748

> <Gold.PLP.part.nonpolar>
-24.2866

> <Gold.PLP.part.repulsive>
0.2857

> <Gold.PLP.ligand.clash>
0.0000

> <Gold.PLP.ligand.torsion>
0.5400

> <Gold.PLP.Chemscore.Hbond>
2.8960

> <Gold.PLP.Chemscore.CHOScore>
0.0000

> <Gold.PLP.Chemscore.Metal>
0.0000

> <Gold.Chemscore.Hbonds>
donor molecule, donor type, donor heavy atom, donor atom, acceptor molecule, acceptor atom, score
      L1  H    15    27       P1  8028  0.98
      L1  H    18    31       P1  7957  1.00
      P1  H  7997  8010       L1     8  0.67

> <Gold.PLP.Chemscore.Internal.Correction>
0.0066

> <Gold.Rescore>
     Score         DG    S(hbond)    S(metal)    S(lipo)     H(rot)  DE(clash)    DE(int)     intcor
      5.14      -8.39       1.83        0.00      39.75       3.06       1.50       1.74       ----

> <Gold.Chemscore.Fitness>
5.1438

> <Gold.Chemscore.DG>
-8.3910

> <Gold.Chemscore.ZeroCoef>
-5.4800

> <Gold.Chemscore.Hbond>
1.8252

> <Gold.Chemscore.Metal>
0.0000

> <Gold.Chemscore.Lipo>
39.7464

> <Gold.Chemscore.Internal_Hbond>
0.0000

> <Gold.Chemscore.DEClash>
1.5047

> <Gold.Chemscore.DEInternal>
1.7425

> <Gold.Chemscore.Rot>
3.0607

> <Gold.Chemscore.Internal.Correction>
   9.000000E+99

> <Gold.Chemscore.Hbonds>
donor molecule, donor type, donor heavy atom, donor atom, acceptor molecule, acceptor atom, score
      L1  H    15    27       P1  8028  0.41
      L1  H    18    31       P1  7957  0.94
      P1  H  7997  8010       L1     8  0.58

> <Gold.Chemscore.Hbond.Weighted>
-6.0960

> <Gold.Chemscore.Metal.Weighted>
-0.0000

> <Gold.Chemscore.Lipo.Weighted>
-4.6503

> <Gold.Chemscore.Internal_Hbond.Weighted>
0.0000

> <Gold.Chemscore.DEClash.Weighted>
1.5047

> <Gold.Chemscore.DEInternal.Weighted>
1.7425

> <Gold.Chemscore.Rot.Weighted>
7.8354

> <Gold.Chemscore.Internal.Correction.Weighted>
   9.000000E+99

> <Gold.Protein.RotatedTorsions>
[ 6907 6896 6895 6894 ] final   88.52 input  -60.11 | X-H torsion
[ 7974 7965 7964 7962 ] final -107.83 input  175.53 | X-H torsion
[ 8008 7997 7996 7995 ] final   39.67 input   59.86 | X-H torsion
[ 10167 10162 10161 10158 ] final  -71.49 input  -65.29 | X-H torsion
[ 10718 10713 10712 10709 ] final -128.44 input   66.30 | X-H torsion
[ 10763 10752 10751 10750 ] final  -62.85 input  -60.55 | X-H torsion
[ 11005 11000 10999 10996 ] final   -1.51 input  -57.11 | X-H torsion

> <Gold.Protein.ActiveResidues>
 VAL166  LYS551  ARG553  GLY616  TRP617  ASP618  TYR619  PRO620  LYS621  CYS622 
 ASP623  PHE694  ASN695  SER759  ASP760  ASP761  ALA762  ILE779  LEU786  VAL792 
 PHE793  MET794  SER795  GLU796  ALA797  LYS798  CYS799  TRP800  GLU811  SER814 

> <Gold.Protein.RotatedAtoms>
  152.5426  134.2108  159.8748 H   0  0  0  0  0  0  0  0  0  0  0  0  # atno 6907 bound_to 6896
  151.2091  133.4560  159.2605 H   0  0  0  0  0  0  0  0  0  0  0  0  # atno 6908 bound_to 6896
  151.0915  134.9931  159.8460 H   0  0  0  0  0  0  0  0  0  0  0  0  # atno 6909 bound_to 6896
  145.2004  140.9054  143.3373 H   0  0  0  0  0  0  0  0  0  0  0  0  # atno 7974 bound_to 7965
  155.2405  140.3345  155.4293 H   0  0  0  0  0  0  0  0  0  0  0  0  # atno 8008 bound_to 7997
  156.2258  140.1828  156.7412 H   0  0  0  0  0  0  0  0  0  0  0  0  # atno 8009 bound_to 7997
  154.5896  140.0640  156.9205 H   0  0  0  0  0  0  0  0  0  0  0  0  # atno 8010 bound_to 7997
  140.5269  143.2325  151.7331 H   0  0  0  0  0  0  0  0  0  0  0  0  # atno 10167 bound_to 10162
  156.1951  130.6821  151.0472 H   0  0  0  0  0  0  0  0  0  0  0  0  # atno 10718 bound_to 10713
  154.3061  135.6225  153.5445 H   0  0  0  0  0  0  0  0  0  0  0  0  # atno 10763 bound_to 10752
  152.9835  135.5690  154.5230 H   0  0  0  0  0  0  0  0  0  0  0  0  # atno 10764 bound_to 10752
  154.4870  135.2865  155.1503 H   0  0  0  0  0  0  0  0  0  0  0  0  # atno 10765 bound_to 10752
  140.6482  133.9428  155.8364 H   0  0  0  0  0  0  0  0  0  0  0  0  # atno 11005 bound_to 11000
  144.9953  139.3650  143.6194 LP  0  0  0  0  0  0  0  0  0  0  0  0  # atno 17320 bound_to 7965
  146.3419  139.9154  142.8774 LP  0  0  0  0  0  0  0  0  0  0  0  0  # atno 17321 bound_to 7965
  139.4941  144.4172  152.0017 LP  0  0  0  0  0  0  0  0  0  0  0  0  # atno 17342 bound_to 10162
  140.3272  144.3359  150.5995 LP  0  0  0  0  0  0  0  0  0  0  0  0  # atno 17343 bound_to 10162
  157.6953  131.0796  150.6988 LP  0  0  0  0  0  0  0  0  0  0  0  0  # atno 17370 bound_to 10713
  156.7045  130.4633  149.5564 LP  0  0  0  0  0  0  0  0  0  0  0  0  # atno 17371 bound_to 10713
  141.0557  134.0420  157.3726 LP  0  0  0  0  0  0  0  0  0  0  0  0  # atno 17394 bound_to 11000
  139.9055  135.0178  156.7467 LP  0  0  0  0  0  0  0  0  0  0  0  0  # atno 17395 bound_to 11000

$$$$
