AV-unprocessed.smi:861|AV-procd|sdf|3974|dock10
  -GOLD-   22720 1453D 1   1.00000     0.00000
 Structure written by MMmdl.
 45 46  0  0  0  0  0  0  0  0  3 V2000
  147.6976  127.4828  153.4642 C   0  0  0  0  0  0  0  0  0  0  0  0
  146.8057  128.0848  152.3650 C   0  0  0  0  0  0  0  0  0  0  0  0
  147.3904  127.7754  150.9779 C   0  0  0  0  0  0  0  0  0  0  0  0
  146.5899  129.6025  152.5398 C   0  0  0  0  0  0  0  0  0  0  0  0
  145.6279  130.2248  151.5085 C   0  0  0  0  0  0  0  0  0  0  0  0
  146.1407  131.5122  150.9670 N   0  3  1  0  0  0  0  0  0  0  0  0
  145.6725  131.8394  149.5958 C   0  0  0  0  0  0  0  0  0  0  0  0
  144.2327  132.3865  149.6063 C   0  0  0  0  0  0  0  0  0  0  0  0
  144.1489  133.5010  150.4863 O   0  0  0  0  0  0  0  0  0  0  0  0
  144.4676  133.1609  151.8322 C   0  0  2  0  0  0  0  0  0  0  0  0
  144.2683  134.4117  152.7013 C   0  0  0  0  0  0  0  0  0  0  0  0
  142.9814  134.3971  153.3808 N   0  0  0  0  0  0  0  0  0  0  0  0
  142.2086  135.5626  153.4706 C   0  0  0  0  0  0  0  0  0  0  0  0
  142.5926  136.8121  152.9307 C   0  0  0  0  0  0  0  0  0  0  0  0
  141.7223  137.9036  153.0926 C   0  0  0  0  0  0  0  0  0  0  0  0
  140.5185  137.6804  153.7842 C   0  0  0  0  0  0  0  0  0  0  0  0
  140.1694  136.4777  154.2927 N   0  0  0  0  0  0  0  0  0  0  0  0
  141.0236  135.4533  154.1222 N   0  3  0  0  0  0  0  0  0  0  0  0
  145.9301  132.6685  151.8738 C   0  0  0  0  0  0  0  0  0  0  0  0
  148.6756  127.9644  153.4895 H   0  0  0  0  0  0  0  0  0  0  0  0
  147.8591  126.4177  153.2953 H   0  0  0  0  0  0  0  0  0  0  0  0
  147.2487  127.5828  154.4518 H   0  0  0  0  0  0  0  0  0  0  0  0
  145.8318  127.5961  152.4181 H   0  0  0  0  0  0  0  0  0  0  0  0
  148.3724  128.2325  150.8502 H   0  0  0  0  0  0  0  0  0  0  0  0
  146.7436  128.1487  150.1834 H   0  0  0  0  0  0  0  0  0  0  0  0
  147.5023  126.7011  150.8281 H   0  0  0  0  0  0  0  0  0  0  0  0
  146.2279  129.8061  153.5487 H   0  0  0  0  0  0  0  0  0  0  0  0
  147.5605  130.0920  152.4658 H   0  0  0  0  0  0  0  0  0  0  0  0
  145.4216  129.5217  150.7016 H   0  0  0  0  0  0  0  0  0  0  0  0
  144.6739  130.4128  152.0004 H   0  0  0  0  0  0  0  0  0  0  0  0
  146.3379  132.5992  149.1837 H   0  0  0  0  0  0  0  0  0  0  0  0
  145.7497  130.9794  148.9319 H   0  0  0  0  0  0  0  0  0  0  0  0
  143.9512  132.7105  148.6043 H   0  0  0  0  0  0  0  0  0  0  0  0
  143.5148  131.6196  149.8994 H   0  0  0  0  0  0  0  0  0  0  0  0
  143.8006  132.3717  152.1843 H   0  0  0  0  0  0  0  0  0  0  0  0
  145.0542  134.4562  153.4563 H   0  0  0  0  0  0  0  0  0  0  0  0
  144.3537  135.3114  152.0906 H   0  0  0  0  0  0  0  0  0  0  0  0
  142.5879  133.5098  153.6611 H   0  0  0  0  0  0  0  0  0  0  0  0
  143.5265  136.9459  152.4054 H   0  0  0  0  0  0  0  0  0  0  0  0
  141.9677  138.8798  152.7011 H   0  0  0  0  0  0  0  0  0  0  0  0
  139.8161  138.4870  153.9346 H   0  0  0  0  0  0  0  0  0  0  0  0
  146.2282  132.4139  152.8916 H   0  0  0  0  0  0  0  0  0  0  0  0
  146.5940  133.4743  151.5569 H   0  0  0  0  0  0  0  0  0  0  0  0
  147.1419  131.3897  150.9083 H   0  0  0  0  0  0  0  0  0  0  0  0
  140.7656  134.5430  154.5040 H   0  0  0  0  0  0  0  0  0  0  0  0
  1  2  1  0  0  0  0
  1 20  1  0  0  0  0
  1 21  1  0  0  0  0
  1 22  1  0  0  0  0
  2  3  1  0  0  0  0
  2  4  1  0  0  0  0
  2 23  1  0  0  0  0
  3 24  1  0  0  0  0
  3 25  1  0  0  0  0
  3 26  1  0  0  0  0
  4  5  1  0  0  0  0
  4 27  1  0  0  0  0
  4 28  1  0  0  0  0
  5  6  1  0  0  0  0
  5 29  1  0  0  0  0
  5 30  1  0  0  0  0
  6 19  1  0  0  0  0
  6  7  1  0  0  0  0
  6 44  1  0  0  0  0
  7  8  1  0  0  0  0
  7 31  1  0  0  0  0
  7 32  1  0  0  0  0
  8  9  1  0  0  0  0
  8 33  1  0  0  0  0
  8 34  1  0  0  0  0
  9 10  1  0  0  0  0
 10 11  1  0  0  0  0
 10 19  1  0  0  0  0
 10 35  1  0  0  0  0
 11 12  1  0  0  0  0
 11 36  1  0  0  0  0
 11 37  1  0  0  0  0
 12 13  1  0  0  0  0
 12 38  1  0  0  0  0
 13 18  1  0  0  0  0
 13 14  2  0  0  0  0
 14 15  1  0  0  0  0
 14 39  1  0  0  0  0
 15 16  2  0  0  0  0
 15 40  1  0  0  0  0
 16 17  1  0  0  0  0
 16 41  1  0  0  0  0
 17 18  2  0  0  0  0
 18 45  1  0  0  0  0
 19 42  1  0  0  0  0
 19 43  1  0  0  0  0
M  CHG  1   6   1
M  CHG  1  18   1
M  END
> <s_m_source_file>
AV-unprocessed.smi

> <i_m_source_file_index>
861

> <i_lp_mmshare_version>
43012

> <i_f3d_flags>
0

> <s_epik_input>
W0NIM11bQ0hdKFtDSDNdKVtDSDJdW0NIMl1OMVtDSDJdW0NIMl1PW0NASF0oW0NIMl0xKVtDSDJdW05IXWMyW2NIXVtjSF1bY0hdbm4y

> <s_epik_cmdline>
J2VwaWtfcHl0aG9uJywgJy1waCcsICc3LjAnLCAnLXRuJywgJzgnLCAnLW1hJywgJzIwMCcsICctbWV0YWxfYmluZGluZycsICctaW1hZScsICc8aW5maWxlLm1hZT4nLCAnLW9tYWUnLCAnPG91dGZpbGUubWFlPic=

> <r_lp_tautomer_probability>
0.966961

> <r_epik_Ionization_Penalty>
2.478

> <r_epik_Ionization_Penalty_Charging>
2.47799

> <r_epik_Ionization_Penalty_Neutral>
3.15286e-06

> <r_epik_State_Penalty>
2.10794

> <r_epik_Charging_Adjusted_Penalty>
4.58594

> <i_epik_Tot_Q>
2

> <i_epik_Tot_abs_Q>
2

> <r_epik_Metal_State_Penalty>
2.11378

> <b_epik_Metal_Only>
0

> <s_lp_Force_Field>
OPLS_2005

> <r_lp_Energy>
35.7333

> <b_lp_Chiralities_Consistent>
1

> <s_lp_Variant>
AV-unprocessed.smi:861-9

> <Gold.Version>
5.8.1

> <Gold.Id.Protein>
6NUR|6NUR_protein|mol2

> <Gold.PLP.Fitness>
48.5904

> <Gold.PLP.PLP>
-40.6492

> <Gold.PLP.part.hbond>
-3.8478

> <Gold.PLP.part.metal>
0.0000

> <Gold.PLP.part.buried>
-8.1969

> <Gold.PLP.part.nonpolar>
-28.6321

> <Gold.PLP.part.repulsive>
0.3891

> <Gold.PLP.ligand.clash>
0.0000

> <Gold.PLP.ligand.torsion>
1.2194

> <Gold.PLP.Chemscore.Hbond>
3.4368

> <Gold.PLP.Chemscore.CHOScore>
0.0000

> <Gold.PLP.Chemscore.Metal>
0.0000

> <Gold.Chemscore.Hbonds>
donor molecule, donor type, donor heavy atom, donor atom, acceptor molecule, acceptor atom, score
      L1  H     6    44       P1 10747  1.00
      L1  H    12    38       P1 10957  1.82
      L1  H    18    45       P1 11000  0.27

> <Gold.PLP.Chemscore.Internal.Correction>
0.0697

> <Gold.Rescore>
     Score         DG    S(hbond)    S(metal)    S(lipo)     H(rot)  DE(clash)    DE(int)     intcor
     19.39     -20.78       2.56        0.00      96.56       1.78       0.10       1.28       ----

> <Gold.Chemscore.Fitness>
19.3946

> <Gold.Chemscore.DG>
-20.7772

> <Gold.Chemscore.ZeroCoef>
-5.4800

> <Gold.Chemscore.Hbond>
2.5587

> <Gold.Chemscore.Metal>
0.0000

> <Gold.Chemscore.Lipo>
96.5579

> <Gold.Chemscore.Internal_Hbond>
0.0000

> <Gold.Chemscore.DEClash>
0.0989

> <Gold.Chemscore.DEInternal>
1.2837

> <Gold.Chemscore.Rot>
1.7759

> <Gold.Chemscore.Internal.Correction>
   9.000000E+99

> <Gold.Chemscore.Hbonds>
donor molecule, donor type, donor heavy atom, donor atom, acceptor molecule, acceptor atom, score
      L1  H     6    44       P1 10747  0.95
      L1  H    12    38       P1 10957  0.84
      L1  H    18    45       P1 11000  0.11

> <Gold.Chemscore.Hbond.Weighted>
-8.5461

> <Gold.Chemscore.Metal.Weighted>
-0.0000

> <Gold.Chemscore.Lipo.Weighted>
-11.2973

> <Gold.Chemscore.Internal_Hbond.Weighted>
0.0000

> <Gold.Chemscore.DEClash.Weighted>
0.0989

> <Gold.Chemscore.DEInternal.Weighted>
1.2837

> <Gold.Chemscore.Rot.Weighted>
4.5462

> <Gold.Chemscore.Internal.Correction.Weighted>
   9.000000E+99

> <Gold.Protein.RotatedTorsions>
[ 6907 6896 6895 6894 ] final   62.95 input  -60.11 | X-H torsion
[ 7974 7965 7964 7962 ] final -132.29 input  175.53 | X-H torsion
[ 8008 7997 7996 7995 ] final  -34.84 input   59.86 | X-H torsion
[ 10167 10162 10161 10158 ] final   13.89 input  -65.29 | X-H torsion
[ 10718 10713 10712 10709 ] final -138.05 input   66.30 | X-H torsion
[ 10763 10752 10751 10750 ] final -129.50 input  -60.55 | X-H torsion
[ 11005 11000 10999 10996 ] final  -96.96 input  -57.11 | X-H torsion

> <Gold.Protein.ActiveResidues>
 VAL166  LYS551  ARG553  GLY616  TRP617  ASP618  TYR619  PRO620  LYS621  CYS622 
 ASP623  PHE694  ASN695  SER759  ASP760  ASP761  ALA762  ILE779  LEU786  VAL792 
 PHE793  MET794  SER795  GLU796  ALA797  LYS798  CYS799  TRP800  GLU811  SER814 

> <Gold.Protein.RotatedAtoms>
  152.4214  134.5948  159.9983 H   0  0  0  0  0  0  0  0  0  0  0  0  # atno 6907 bound_to 6896
  151.6097  133.3343  159.3073 H   0  0  0  0  0  0  0  0  0  0  0  0  # atno 6908 bound_to 6896
  150.8102  134.7290  159.6746 H   0  0  0  0  0  0  0  0  0  0  0  0  # atno 6909 bound_to 6896
  144.9299  140.7115  143.4912 H   0  0  0  0  0  0  0  0  0  0  0  0  # atno 7974 bound_to 7965
  154.4110  140.1673  156.2115 H   0  0  0  0  0  0  0  0  0  0  0  0  # atno 8008 bound_to 7997
  155.9440  140.3406  155.6328 H   0  0  0  0  0  0  0  0  0  0  0  0  # atno 8009 bound_to 7997
  155.6954  140.0738  157.2422 H   0  0  0  0  0  0  0  0  0  0  0  0  # atno 8010 bound_to 7997
  140.5972  143.8677  150.6930 H   0  0  0  0  0  0  0  0  0  0  0  0  # atno 10167 bound_to 10162
  156.2950  130.7396  151.1432 H   0  0  0  0  0  0  0  0  0  0  0  0  # atno 10718 bound_to 10713
  154.8757  135.3893  154.3930 H   0  0  0  0  0  0  0  0  0  0  0  0  # atno 10763 bound_to 10752
  153.4664  135.7029  153.6025 H   0  0  0  0  0  0  0  0  0  0  0  0  # atno 10764 bound_to 10752
  153.4501  135.3836  155.2247 H   0  0  0  0  0  0  0  0  0  0  0  0  # atno 10765 bound_to 10752
  141.1394  133.8136  157.0642 H   0  0  0  0  0  0  0  0  0  0  0  0  # atno 11005 bound_to 11000
  145.3159  139.1803  143.4614 LP  0  0  0  0  0  0  0  0  0  0  0  0  # atno 17320 bound_to 7965
  146.3242  140.3170  142.8630 LP  0  0  0  0  0  0  0  0  0  0  0  0  # atno 17321 bound_to 7965
  140.2214  143.3806  152.1639 LP  0  0  0  0  0  0  0  0  0  0  0  0  # atno 17342 bound_to 10162
  139.5266  144.7110  151.5206 LP  0  0  0  0  0  0  0  0  0  0  0  0  # atno 17343 bound_to 10162
  157.7353  131.0574  150.5479 LP  0  0  0  0  0  0  0  0  0  0  0  0  # atno 17370 bound_to 10713
  156.5600  130.4253  149.6067 LP  0  0  0  0  0  0  0  0  0  0  0  0  # atno 17371 bound_to 10713
  140.0552  134.9784  157.1207 LP  0  0  0  0  0  0  0  0  0  0  0  0  # atno 17394 bound_to 11000
  140.3930  134.2164  155.7165 LP  0  0  0  0  0  0  0  0  0  0  0  0  # atno 17395 bound_to 11000

$$$$
