AV-unprocessed.smi:2490|AV-procd|sdf|9807|dock2
  -GOLD-   2272013443D 1   1.00000     0.00000
 Structure written by MMmdl.
 33 34  0  0  0  0  0  0  0  0  1 V2000
  146.9824  139.0305  152.3666 C   0  0  0  0  0  0  0  0  0  0  0  0
  148.1697  138.7813  153.1692 N   0  0  0  0  0  0  0  0  0  0  0  0
  148.6554  139.6298  154.0875 C   0  0  0  0  0  0  0  0  0  0  0  0
  148.1267  140.7129  154.3425 O   0  0  0  0  0  0  0  0  0  0  0  0
  149.9132  139.1731  154.8399 C   0  0  2  0  0  0  0  0  0  0  0  0
  150.3873  140.2034  155.8897 C   0  0  0  0  0  0  0  0  0  0  0  0
  151.6326  139.7665  156.5077 N   0  0  0  0  0  0  0  0  0  0  0  0
  152.0299  140.4378  157.6484 C   0  0  0  0  0  0  0  0  0  0  0  0
  153.1000  139.9685  158.3016 N   0  0  0  0  0  0  0  0  0  0  0  0
  153.4768  140.6342  159.4146 C   0  0  0  0  0  0  0  0  0  0  0  0
  152.7770  141.7706  159.8699 C   0  0  0  0  0  0  0  0  0  0  0  0
  153.2007  142.5158  161.1173 C   0  0  0  0  0  0  0  0  0  0  0  0
  151.6655  142.1714  159.0994 C   0  0  0  0  0  0  0  0  0  0  0  0
  151.2945  141.5002  157.9879 N   0  0  0  0  0  0  0  0  0  0  0  0
  152.6685  139.4713  155.5279 C   0  0  0  0  0  0  0  0  0  0  0  0
  152.1473  138.4575  154.4969 C   0  0  0  0  0  0  0  0  0  0  0  0
  150.9604  138.9603  153.8919 O   0  0  0  0  0  0  0  0  0  0  0  0
  146.7942  138.1819  151.7091 H   0  0  0  0  0  0  0  0  0  0  0  0
  147.1121  139.9194  151.7479 H   0  0  0  0  0  0  0  0  0  0  0  0
  146.1063  139.1712  153.0010 H   0  0  0  0  0  0  0  0  0  0  0  0
  148.6590  137.9111  153.0169 H   0  0  0  0  0  0  0  0  0  0  0  0
  149.6772  138.2277  155.3319 H   0  0  0  0  0  0  0  0  0  0  0  0
  150.5404  141.1785  155.4244 H   0  0  0  0  0  0  0  0  0  0  0  0
  149.6280  140.3309  156.6629 H   0  0  0  0  0  0  0  0  0  0  0  0
  154.3399  140.2570  159.9430 H   0  0  0  0  0  0  0  0  0  0  0  0
  152.5217  143.3415  161.3323 H   0  0  0  0  0  0  0  0  0  0  0  0
  154.2046  142.9218  160.9918 H   0  0  0  0  0  0  0  0  0  0  0  0
  153.2048  141.8441  161.9760 H   0  0  0  0  0  0  0  0  0  0  0  0
  151.0710  143.0311  159.3724 H   0  0  0  0  0  0  0  0  0  0  0  0
  152.9693  140.3940  155.0298 H   0  0  0  0  0  0  0  0  0  0  0  0
  153.5510  139.0740  156.0310 H   0  0  0  0  0  0  0  0  0  0  0  0
  152.8962  138.2890  153.7232 H   0  0  0  0  0  0  0  0  0  0  0  0
  151.9490  137.4923  154.9657 H   0  0  0  0  0  0  0  0  0  0  0  0
  1  2  1  0  0  0  0
  1 18  1  0  0  0  0
  1 19  1  0  0  0  0
  1 20  1  0  0  0  0
  2  3  1  0  0  0  0
  2 21  1  0  0  0  0
  3  4  2  0  0  0  0
  3  5  1  0  0  0  0
  5 17  1  0  0  0  0
  5  6  1  0  0  0  0
  5 22  1  0  0  0  0
  6  7  1  0  0  0  0
  6 23  1  0  0  0  0
  6 24  1  0  0  0  0
  7  8  1  0  0  0  0
  7 15  1  0  0  0  0
  8 14  1  0  0  0  0
  8  9  2  0  0  0  0
  9 10  1  0  0  0  0
 10 11  2  0  0  0  0
 10 25  1  0  0  0  0
 11 12  1  0  0  0  0
 11 13  1  0  0  0  0
 12 26  1  0  0  0  0
 12 27  1  0  0  0  0
 12 28  1  0  0  0  0
 13 14  2  0  0  0  0
 13 29  1  0  0  0  0
 15 16  1  0  0  0  0
 15 30  1  0  0  0  0
 15 31  1  0  0  0  0
 16 17  1  0  0  0  0
 16 32  1  0  0  0  0
 16 33  1  0  0  0  0
M  END
> <s_m_source_file>
AV-unprocessed.smi

> <i_m_source_file_index>
2490

> <i_lp_mmshare_version>
43012

> <i_f3d_flags>
0

> <s_epik_input>
W0NIM11bTkhdQyg9TylbQ0BASF0xW0NIMl1OKFtDSDJdW0NIMl1PMSljMm5bY0hdYyhbQ0gzXSlbY0hdbjI=

> <s_epik_cmdline>
J2VwaWtfcHl0aG9uJywgJy1waCcsICc3LjAnLCAnLXRuJywgJzgnLCAnLW1hJywgJzIwMCcsICctbWV0YWxfYmluZGluZycsICctaW1hZScsICc8aW5maWxlLm1hZT4nLCAnLW9tYWUnLCAnPG91dGZpbGUubWFlPic=

> <r_lp_tautomer_probability>
1

> <r_epik_Ionization_Penalty>
8.72552e-06

> <r_epik_Ionization_Penalty_Charging>
0

> <r_epik_Ionization_Penalty_Neutral>
8.72552e-06

> <r_epik_State_Penalty>
-0

> <r_epik_Charging_Adjusted_Penalty>
0

> <i_epik_Tot_Q>
0

> <i_epik_Tot_abs_Q>
0

> <r_epik_Metal_State_Penalty>
-0

> <b_epik_Metal_Only>
0

> <s_lp_Force_Field>
OPLS_2005

> <r_lp_Energy>
12.5382

> <b_lp_Chiralities_Consistent>
1

> <s_lp_Variant>
AV-unprocessed.smi:2490-1

> <Gold.Version>
5.8.1

> <Gold.Id.Protein>
6NUR|6NUR_protein|mol2

> <Gold.PLP.Fitness>
38.5997

> <Gold.PLP.PLP>
-29.9869

> <Gold.PLP.part.hbond>
-4.0000

> <Gold.PLP.part.metal>
0.0000

> <Gold.PLP.part.buried>
1.9431

> <Gold.PLP.part.nonpolar>
-27.0933

> <Gold.PLP.part.repulsive>
0.4207

> <Gold.PLP.ligand.clash>
0.0000

> <Gold.PLP.ligand.torsion>
0.1501

> <Gold.PLP.Chemscore.Hbond>
2.8754

> <Gold.PLP.Chemscore.CHOScore>
0.0000

> <Gold.PLP.Chemscore.Metal>
0.0000

> <Gold.Chemscore.Hbonds>
donor molecule, donor type, donor heavy atom, donor atom, acceptor molecule, acceptor atom, score
      L1  H     2    21       P1  7948  0.95
      P1  H  7989  7998       L1    17  0.86
      P1  H  7997  8010       L1     9  1.00

> <Gold.PLP.Chemscore.Internal.Correction>
0.2866

> <Gold.Rescore>
     Score         DG    S(hbond)    S(metal)    S(lipo)     H(rot)  DE(clash)    DE(int)     intcor
     14.68     -15.84       1.45        0.00      75.68       1.31       0.92       0.24       ----

> <Gold.Chemscore.Fitness>
14.6770

> <Gold.Chemscore.DG>
-15.8363

> <Gold.Chemscore.ZeroCoef>
-5.4800

> <Gold.Chemscore.Hbond>
1.4530

> <Gold.Chemscore.Metal>
0.0000

> <Gold.Chemscore.Lipo>
75.6755

> <Gold.Chemscore.Internal_Hbond>
0.0000

> <Gold.Chemscore.DEClash>
0.9181

> <Gold.Chemscore.DEInternal>
0.2412

> <Gold.Chemscore.Rot>
1.3089

> <Gold.Chemscore.Internal.Correction>
   9.000000E+99

> <Gold.Chemscore.Hbonds>
donor molecule, donor type, donor heavy atom, donor atom, acceptor molecule, acceptor atom, score
      L1  H     2    21       P1  7948  0.86
      P1  H  7989  7998       L1    17  0.07
      P1  H  7997  8010       L1     9  0.34

> <Gold.Chemscore.Hbond.Weighted>
-4.8532

> <Gold.Chemscore.Metal.Weighted>
-0.0000

> <Gold.Chemscore.Lipo.Weighted>
-8.8540

> <Gold.Chemscore.Internal_Hbond.Weighted>
0.0000

> <Gold.Chemscore.DEClash.Weighted>
0.9181

> <Gold.Chemscore.DEInternal.Weighted>
0.2412

> <Gold.Chemscore.Rot.Weighted>
3.3509

> <Gold.Chemscore.Internal.Correction.Weighted>
   9.000000E+99

> <Gold.Protein.RotatedTorsions>
[ 6907 6896 6895 6894 ] final   68.64 input  -60.11 | X-H torsion
[ 7974 7965 7964 7962 ] final  -37.49 input  175.53 | X-H torsion
[ 8008 7997 7996 7995 ] final   29.30 input   59.86 | X-H torsion
[ 10167 10162 10161 10158 ] final  162.55 input  -65.29 | X-H torsion
[ 10718 10713 10712 10709 ] final  -17.15 input   66.30 | X-H torsion
[ 10763 10752 10751 10750 ] final  141.16 input  -60.55 | X-H torsion
[ 11005 11000 10999 10996 ] final   22.91 input  -57.11 | X-H torsion

> <Gold.Protein.ActiveResidues>
 VAL166  LYS551  ARG553  GLY616  TRP617  ASP618  TYR619  PRO620  LYS621  CYS622 
 ASP623  PHE694  ASN695  SER759  ASP760  ASP761  ALA762  ILE779  LEU786  VAL792 
 PHE793  MET794  SER795  GLU796  ALA797  LYS798  CYS799  TRP800  GLU811  SER814 

> <Gold.Protein.RotatedAtoms>
  152.4633  134.5133  159.9760 H   0  0  0  0  0  0  0  0  0  0  0  0  # atno 6907 bound_to 6896
  151.5176  133.3467  159.2903 H   0  0  0  0  0  0  0  0  0  0  0  0  # atno 6908 bound_to 6896
  150.8606  134.7986  159.7142 H   0  0  0  0  0  0  0  0  0  0  0  0  # atno 6909 bound_to 6896
  146.0570  140.6402  142.9015 H   0  0  0  0  0  0  0  0  0  0  0  0  # atno 7974 bound_to 7965
  155.0722  140.3201  155.4627 H   0  0  0  0  0  0  0  0  0  0  0  0  # atno 8008 bound_to 7997
  156.2788  140.2110  156.5795 H   0  0  0  0  0  0  0  0  0  0  0  0  # atno 8009 bound_to 7997
  154.7045  140.0504  157.0478 H   0  0  0  0  0  0  0  0  0  0  0  0  # atno 8010 bound_to 7997
  139.4862  144.4426  151.8932 H   0  0  0  0  0  0  0  0  0  0  0  0  # atno 10167 bound_to 10162
  156.5775  130.4765  149.6335 H   0  0  0  0  0  0  0  0  0  0  0  0  # atno 10718 bound_to 10713
  153.9346  135.2986  155.3444 H   0  0  0  0  0  0  0  0  0  0  0  0  # atno 10763 bound_to 10752
  154.7509  135.4981  153.9290 H   0  0  0  0  0  0  0  0  0  0  0  0  # atno 10764 bound_to 10752
  153.1074  135.6750  153.9667 H   0  0  0  0  0  0  0  0  0  0  0  0  # atno 10765 bound_to 10752
  140.3754  134.1977  155.7665 H   0  0  0  0  0  0  0  0  0  0  0  0  # atno 11005 bound_to 11000
  144.7153  140.4189  143.7049 LP  0  0  0  0  0  0  0  0  0  0  0  0  # atno 17320 bound_to 7965
  145.6626  139.1584  143.2800 LP  0  0  0  0  0  0  0  0  0  0  0  0  # atno 17321 bound_to 7965
  140.3879  144.2653  150.5902 LP  0  0  0  0  0  0  0  0  0  0  0  0  # atno 17342 bound_to 10162
  140.5173  143.2274  151.8443 LP  0  0  0  0  0  0  0  0  0  0  0  0  # atno 17343 bound_to 10162
  156.2660  130.6990  151.1773 LP  0  0  0  0  0  0  0  0  0  0  0  0  # atno 17370 bound_to 10713
  157.7334  131.0591  150.5578 LP  0  0  0  0  0  0  0  0  0  0  0  0  # atno 17371 bound_to 10713
  141.1941  133.8136  157.0772 LP  0  0  0  0  0  0  0  0  0  0  0  0  # atno 17394 bound_to 11000
  140.0519  134.9801  157.1151 LP  0  0  0  0  0  0  0  0  0  0  0  0  # atno 17395 bound_to 11000

$$$$
