AV-unprocessed.smi:3038|AV-procd|sdf|11589|dock8
  -GOLD-   2272016563D 1   1.00000     0.00000
 Structure written by MMmdl.
 37 39  0  0  0  0  0  0  0  0  2 V2000
  145.5842  138.2298  154.7285 O   0  0  0  0  0  0  0  0  0  0  0  0
  146.5840  137.8136  154.1442 C   0  0  0  0  0  0  0  0  0  0  0  0
  147.9765  138.1263  154.6954 C   0  0  0  0  0  0  0  0  0  0  0  0
  148.2998  139.5337  154.5478 N   0  0  0  0  0  0  0  0  0  0  0  0
  149.1975  140.1524  153.7780 C   0  0  0  0  0  0  0  0  0  0  0  0
  149.1793  141.4635  153.9642 N   0  0  0  0  0  0  0  0  0  0  0  0
  148.1902  141.6326  154.9187 N   0  0  0  0  0  0  0  0  0  0  0  0
  147.6646  140.4911  155.2689 N   0  0  0  0  0  0  0  0  0  0  0  0
  146.5310  137.0727  153.0254 N   0  0  0  0  0  0  0  0  0  0  0  0
  145.3094  136.6753  152.3338 C   0  0  2  0  0  0  0  0  0  0  0  0
  144.5798  135.5648  153.1119 C   0  0  0  0  0  0  0  0  0  0  0  0
  143.3497  135.0561  152.3370 C   0  0  0  0  0  0  0  0  0  0  0  0
  143.6984  134.6061  150.9647 N   0  3  2  0  0  0  0  0  0  0  0  0
  144.3992  133.3007  150.9349 C   0  0  0  0  0  0  0  0  0  0  0  0
  144.2753  132.5770  149.6141 C   0  0  0  0  0  0  0  0  0  0  0  0
  143.4706  132.1153  150.8085 C   0  0  0  0  0  0  0  0  0  0  0  0
  144.3950  135.6652  150.1898 C   0  0  0  0  0  0  0  0  0  0  0  0
  145.6498  136.1854  150.9166 C   0  0  0  0  0  0  0  0  0  0  0  0
  148.0293  137.8654  155.7532 H   0  0  0  0  0  0  0  0  0  0  0  0
  148.7233  137.5241  154.1758 H   0  0  0  0  0  0  0  0  0  0  0  0
  149.8622  139.6469  153.0931 H   0  0  0  0  0  0  0  0  0  0  0  0
  147.4055  136.7742  152.6170 H   0  0  0  0  0  0  0  0  0  0  0  0
  144.6481  137.5396  152.2441 H   0  0  0  0  0  0  0  0  0  0  0  0
  145.2619  134.7363  153.3079 H   0  0  0  0  0  0  0  0  0  0  0  0
  144.2652  135.9364  154.0879 H   0  0  0  0  0  0  0  0  0  0  0  0
  142.8642  134.2465  152.8831 H   0  0  0  0  0  0  0  0  0  0  0  0
  142.6135  135.8572  152.2593 H   0  0  0  0  0  0  0  0  0  0  0  0
  145.3127  133.2195  151.5205 H   0  0  0  0  0  0  0  0  0  0  0  0
  143.7354  133.0661  148.8053 H   0  0  0  0  0  0  0  0  0  0  0  0
  145.1097  131.9510  149.3043 H   0  0  0  0  0  0  0  0  0  0  0  0
  143.7755  131.1856  151.2847 H   0  0  0  0  0  0  0  0  0  0  0  0
  142.3975  132.2985  150.7910 H   0  0  0  0  0  0  0  0  0  0  0  0
  144.6564  135.2913  149.1993 H   0  0  0  0  0  0  0  0  0  0  0  0
  143.6987  136.4899  150.0319 H   0  0  0  0  0  0  0  0  0  0  0  0
  146.0953  136.9973  150.3401 H   0  0  0  0  0  0  0  0  0  0  0  0
  146.4031  135.3977  150.9639 H   0  0  0  0  0  0  0  0  0  0  0  0
  142.8202  134.4457  150.4921 H   0  0  0  0  0  0  0  0  0  0  0  0
  1  2  2  0  0  0  0
  2  3  1  0  0  0  0
  2  9  1  0  0  0  0
  3  4  1  0  0  0  0
  3 19  1  0  0  0  0
  3 20  1  0  0  0  0
  4  8  1  0  0  0  0
  4  5  1  0  0  0  0
  5  6  2  0  0  0  0
  5 21  1  0  0  0  0
  6  7  1  0  0  0  0
  7  8  2  0  0  0  0
  9 10  1  0  0  0  0
  9 22  1  0  0  0  0
 10 18  1  0  0  0  0
 10 11  1  0  0  0  0
 10 23  1  0  0  0  0
 11 12  1  0  0  0  0
 11 24  1  0  0  0  0
 11 25  1  0  0  0  0
 12 13  1  0  0  0  0
 12 26  1  0  0  0  0
 12 27  1  0  0  0  0
 13 14  1  0  0  0  0
 13 17  1  0  0  0  0
 13 37  1  0  0  0  0
 14 16  1  0  0  0  0
 14 15  1  0  0  0  0
 14 28  1  0  0  0  0
 15 16  1  0  0  0  0
 15 29  1  0  0  0  0
 15 30  1  0  0  0  0
 16 31  1  0  0  0  0
 16 32  1  0  0  0  0
 17 18  1  0  0  0  0
 17 33  1  0  0  0  0
 17 34  1  0  0  0  0
 18 35  1  0  0  0  0
 18 36  1  0  0  0  0
M  CHG  1  13   1
M  END
> <s_m_source_file>
AV-unprocessed.smi

> <i_m_source_file_index>
3038

> <i_lp_mmshare_version>
43012

> <i_f3d_flags>
0

> <s_epik_input>
bjFubltjSF1uMVtDSDJdQyg9TylbTkhdW0NIXTJbQ0gyXVtDSDJdTihbQ0gyXVtDSDJdMilbQ0hdM1tDSDJdW0NIMl0z

> <s_epik_cmdline>
J2VwaWtfcHl0aG9uJywgJy1waCcsICc3LjAnLCAnLXRuJywgJzgnLCAnLW1hJywgJzIwMCcsICctbWV0YWxfYmluZGluZycsICctaW1hZScsICc8aW5maWxlLm1hZT4nLCAnLW9tYWUnLCAnPG91dGZpbGUubWFlPic=

> <r_lp_tautomer_probability>
1

> <r_epik_Ionization_Penalty>
0.284275

> <r_epik_Ionization_Penalty_Charging>
0.284273

> <r_epik_Ionization_Penalty_Neutral>
2.31262e-06

> <r_epik_State_Penalty>
0.277002

> <r_epik_Charging_Adjusted_Penalty>
0.561274

> <i_epik_Tot_Q>
1

> <i_epik_Tot_abs_Q>
1

> <r_epik_Metal_State_Penalty>
0.277002

> <b_epik_Metal_Only>
0

> <s_lp_Force_Field>
OPLS_2005

> <r_lp_Energy>
29.3434

> <b_lp_Chiralities_Consistent>
1

> <s_lp_Variant>
AV-unprocessed.smi:3038-2

> <Gold.Version>
5.8.1

> <Gold.Id.Protein>
6NUR|6NUR_protein|mol2

> <Gold.PLP.Fitness>
37.3904

> <Gold.PLP.PLP>
-24.8032

> <Gold.PLP.part.hbond>
-3.8918

> <Gold.PLP.part.metal>
0.0000

> <Gold.PLP.part.buried>
0.1865

> <Gold.PLP.part.nonpolar>
-21.8834

> <Gold.PLP.part.repulsive>
0.4482

> <Gold.PLP.ligand.clash>
0.0000

> <Gold.PLP.ligand.torsion>
0.9841

> <Gold.PLP.Chemscore.Hbond>
3.6962

> <Gold.PLP.Chemscore.CHOScore>
0.7320

> <Gold.PLP.Chemscore.Metal>
0.0000

> <Gold.Chemscore.Hbonds>
donor molecule, donor type, donor heavy atom, donor atom, acceptor molecule, acceptor atom, score
      L1  H     9    22       P1  7948  1.00
      L1  H    13    37       P1 10186  1.98
      P1  H  8011  8017       L1     6  0.72
      L1  C     5    21       P1  7957  0.66

> <Gold.PLP.Chemscore.Internal.Correction>
1.2709

> <Gold.Rescore>
     Score         DG    S(hbond)    S(metal)    S(lipo)     H(rot)  DE(clash)    DE(int)     intcor
     11.96     -15.00       2.53        0.00      58.42       2.25       2.00       1.04       ----

> <Gold.Chemscore.Fitness>
11.9598

> <Gold.Chemscore.DG>
-15.0027

> <Gold.Chemscore.ZeroCoef>
-5.4800

> <Gold.Chemscore.Hbond>
2.5314

> <Gold.Chemscore.Metal>
0.0000

> <Gold.Chemscore.Lipo>
58.4180

> <Gold.Chemscore.Internal_Hbond>
0.0000

> <Gold.Chemscore.DEClash>
2.0024

> <Gold.Chemscore.DEInternal>
1.0404

> <Gold.Chemscore.Rot>
2.2528

> <Gold.Chemscore.Internal.Correction>
   9.000000E+99

> <Gold.Chemscore.Hbonds>
donor molecule, donor type, donor heavy atom, donor atom, acceptor molecule, acceptor atom, score
      L1  H     9    22       P1  7948  1.00
      L1  H    13    37       P1 10186  0.51
      P1  H  8011  8017       L1     6  0.55

> <Gold.Chemscore.Hbond.Weighted>
-8.4550

> <Gold.Chemscore.Metal.Weighted>
-0.0000

> <Gold.Chemscore.Lipo.Weighted>
-6.8349

> <Gold.Chemscore.Internal_Hbond.Weighted>
0.0000

> <Gold.Chemscore.DEClash.Weighted>
2.0024

> <Gold.Chemscore.DEInternal.Weighted>
1.0404

> <Gold.Chemscore.Rot.Weighted>
5.7672

> <Gold.Chemscore.Internal.Correction.Weighted>
   9.000000E+99

> <Gold.Protein.RotatedTorsions>
[ 6907 6896 6895 6894 ] final -111.04 input  -60.11 | X-H torsion
[ 7974 7965 7964 7962 ] final  -20.33 input  175.53 | X-H torsion
[ 8008 7997 7996 7995 ] final   63.14 input   59.86 | X-H torsion
[ 10167 10162 10161 10158 ] final -107.55 input  -65.29 | X-H torsion
[ 10718 10713 10712 10709 ] final  139.41 input   66.30 | X-H torsion
[ 10763 10752 10751 10750 ] final   92.77 input  -60.55 | X-H torsion
[ 11005 11000 10999 10996 ] final  -11.20 input  -57.11 | X-H torsion

> <Gold.Protein.ActiveResidues>
 VAL166  LYS551  ARG553  GLY616  TRP617  ASP618  TYR619  PRO620  LYS621  CYS622 
 ASP623  PHE694  ASN695  SER759  ASP760  ASP761  ALA762  ILE779  LEU786  VAL792 
 PHE793  MET794  SER795  GLU796  ALA797  LYS798  CYS799  TRP800  GLU811  SER814 

> <Gold.Protein.RotatedAtoms>
  150.7664  133.9294  159.3421 H   0  0  0  0  0  0  0  0  0  0  0  0  # atno 6907 bound_to 6896
  151.7191  135.0896  160.0290 H   0  0  0  0  0  0  0  0  0  0  0  0  # atno 6908 bound_to 6896
  152.3661  133.6321  159.6087 H   0  0  0  0  0  0  0  0  0  0  0  0  # atno 6909 bound_to 6896
  146.1794  140.4186  142.8500 H   0  0  0  0  0  0  0  0  0  0  0  0  # atno 7974 bound_to 7965
  155.6255  140.3496  155.4665 H   0  0  0  0  0  0  0  0  0  0  0  0  # atno 8008 bound_to 7997
  156.0045  140.1220  157.0538 H   0  0  0  0  0  0  0  0  0  0  0  0  # atno 8009 bound_to 7997
  154.4260  140.1094  156.5730 H   0  0  0  0  0  0  0  0  0  0  0  0  # atno 8010 bound_to 7997
  140.1758  143.4006  152.1320 H   0  0  0  0  0  0  0  0  0  0  0  0  # atno 10167 bound_to 10162
  157.4147  131.1032  151.0417 H   0  0  0  0  0  0  0  0  0  0  0  0  # atno 10718 bound_to 10713
  153.2229  135.4349  155.0509 H   0  0  0  0  0  0  0  0  0  0  0  0  # atno 10763 bound_to 10752
  154.8259  135.3360  154.6901 H   0  0  0  0  0  0  0  0  0  0  0  0  # atno 10764 bound_to 10752
  153.7332  135.7009  153.5040 H   0  0  0  0  0  0  0  0  0  0  0  0  # atno 10765 bound_to 10752
  140.7527  133.8579  155.9058 H   0  0  0  0  0  0  0  0  0  0  0  0  # atno 11005 bound_to 11000
  144.8290  140.6675  143.6303 LP  0  0  0  0  0  0  0  0  0  0  0  0  # atno 17320 bound_to 7965
  145.4119  139.1578  143.4121 LP  0  0  0  0  0  0  0  0  0  0  0  0  # atno 17321 bound_to 7965
  139.5318  144.7167  151.5030 LP  0  0  0  0  0  0  0  0  0  0  0  0  # atno 17342 bound_to 10162
  140.6552  143.8613  150.6828 LP  0  0  0  0  0  0  0  0  0  0  0  0  # atno 17343 bound_to 10162
  157.1368  130.6126  149.5544 LP  0  0  0  0  0  0  0  0  0  0  0  0  # atno 17370 bound_to 10713
  155.9861  130.4895  150.7065 LP  0  0  0  0  0  0  0  0  0  0  0  0  # atno 17371 bound_to 10713
  140.9736  134.1499  157.4555 LP  0  0  0  0  0  0  0  0  0  0  0  0  # atno 17394 bound_to 11000
  139.8784  134.9987  156.5913 LP  0  0  0  0  0  0  0  0  0  0  0  0  # atno 17395 bound_to 11000

$$$$
