AV-unprocessed.smi:1893|AV-procd|sdf|7673|dock2
  -GOLD-   22720 9413D 1   1.00000     0.00000
 Structure written by MMmdl.
 43 44  0  0  0  0  0  0  0  0  2 V2000
  152.5742  143.4609  161.2835 C   0  0  0  0  0  0  0  0  0  0  0  0
  153.0233  143.5035  159.8066 C   0  0  2  0  0  0  0  0  0  0  0  0
  152.5384  144.7769  159.0822 C   0  0  0  0  0  0  0  0  0  0  0  0
  151.0308  144.7369  158.7914 C   0  0  0  0  0  0  0  0  0  0  0  0
  150.6772  143.4571  158.0240 C   0  0  0  0  0  0  0  0  0  0  0  0
  151.1733  142.2064  158.7678 C   0  0  0  0  0  0  0  0  0  0  0  0
  152.6363  142.2857  159.0324 N   0  3  2  0  0  0  0  0  0  0  0  0
  153.2103  141.0280  159.5748 C   0  0  0  0  0  0  0  0  0  0  0  0
  154.7019  141.1710  159.9328 C   0  0  0  0  0  0  0  0  0  0  0  0
  155.1742  140.0187  160.6899 N   0  0  0  0  0  0  0  0  0  0  0  0
  155.5833  140.0559  161.9681 C   0  0  0  0  0  0  0  0  0  0  0  0
  155.5643  141.0830  162.6476 O   0  0  0  0  0  0  0  0  0  0  0  0
  156.1091  138.7365  162.5533 C   0  0  2  0  0  0  0  0  0  0  0  0
  155.0971  137.5810  162.4127 C   0  0  0  0  0  0  0  0  0  0  0  0
  156.5325  138.9417  163.9334 N   0  0  0  0  0  0  0  0  0  0  0  0
  156.2776  138.2155  165.0242 C   0  0  0  0  0  0  0  0  0  0  0  0
  156.8762  138.6600  166.1203 N   0  0  0  0  0  0  0  0  0  0  0  0
  157.5390  139.7344  165.5981 C   0  0  0  0  0  0  0  0  0  0  0  0
  157.3806  139.9385  164.2906 N   0  0  0  0  0  0  0  0  0  0  0  0
  152.8987  144.3595  161.8089 H   0  0  0  0  0  0  0  0  0  0  0  0
  153.0056  142.6120  161.8140 H   0  0  0  0  0  0  0  0  0  0  0  0
  151.4916  143.4000  161.3879 H   0  0  0  0  0  0  0  0  0  0  0  0
  154.1136  143.5443  159.8094 H   0  0  0  0  0  0  0  0  0  0  0  0
  152.7838  145.6636  159.6679 H   0  0  0  0  0  0  0  0  0  0  0  0
  153.0780  144.8799  158.1396 H   0  0  0  0  0  0  0  0  0  0  0  0
  150.4659  144.7799  159.7229 H   0  0  0  0  0  0  0  0  0  0  0  0
  150.7380  145.6136  158.2127 H   0  0  0  0  0  0  0  0  0  0  0  0
  149.5986  143.3986  157.8742 H   0  0  0  0  0  0  0  0  0  0  0  0
  151.1257  143.4922  157.0301 H   0  0  0  0  0  0  0  0  0  0  0  0
  150.6278  142.0792  159.7035 H   0  0  0  0  0  0  0  0  0  0  0  0
  150.9473  141.3300  158.1617 H   0  0  0  0  0  0  0  0  0  0  0  0
  152.6735  140.7476  160.4826 H   0  0  0  0  0  0  0  0  0  0  0  0
  153.0546  140.2171  158.8616 H   0  0  0  0  0  0  0  0  0  0  0  0
  155.3198  141.2943  159.0430 H   0  0  0  0  0  0  0  0  0  0  0  0
  154.8542  142.0623  160.5421 H   0  0  0  0  0  0  0  0  0  0  0  0
  155.2138  139.1344  160.2036 H   0  0  0  0  0  0  0  0  0  0  0  0
  156.9980  138.4552  161.9859 H   0  0  0  0  0  0  0  0  0  0  0  0
  154.8380  137.4117  161.3670 H   0  0  0  0  0  0  0  0  0  0  0  0
  154.1703  137.7759  162.9541 H   0  0  0  0  0  0  0  0  0  0  0  0
  155.5148  136.6509  162.7992 H   0  0  0  0  0  0  0  0  0  0  0  0
  155.6470  137.3384  165.0146 H   0  0  0  0  0  0  0  0  0  0  0  0
  158.1648  140.3794  166.1973 H   0  0  0  0  0  0  0  0  0  0  0  0
  153.0704  142.4078  158.1287 H   0  0  0  0  0  0  0  0  0  0  0  0
  1  2  1  0  0  0  0
  1 20  1  0  0  0  0
  1 21  1  0  0  0  0
  1 22  1  0  0  0  0
  2  7  1  0  0  0  0
  2  3  1  0  0  0  0
  2 23  1  0  0  0  0
  3  4  1  0  0  0  0
  3 24  1  0  0  0  0
  3 25  1  0  0  0  0
  4  5  1  0  0  0  0
  4 26  1  0  0  0  0
  4 27  1  0  0  0  0
  5  6  1  0  0  0  0
  5 28  1  0  0  0  0
  5 29  1  0  0  0  0
  6  7  1  0  0  0  0
  6 30  1  0  0  0  0
  6 31  1  0  0  0  0
  7  8  1  0  0  0  0
  7 43  1  0  0  0  0
  8  9  1  0  0  0  0
  8 32  1  0  0  0  0
  8 33  1  0  0  0  0
  9 10  1  0  0  0  0
  9 34  1  0  0  0  0
  9 35  1  0  0  0  0
 10 11  1  0  0  0  0
 10 36  1  0  0  0  0
 11 12  2  0  0  0  0
 11 13  1  0  0  0  0
 13 14  1  0  0  0  0
 13 15  1  0  0  0  0
 13 37  1  0  0  0  0
 14 38  1  0  0  0  0
 14 39  1  0  0  0  0
 14 40  1  0  0  0  0
 15 19  1  0  0  0  0
 15 16  1  0  0  0  0
 16 17  2  0  0  0  0
 16 41  1  0  0  0  0
 17 18  1  0  0  0  0
 18 19  2  0  0  0  0
 18 42  1  0  0  0  0
M  CHG  1   7   1
M  END
> <s_m_source_file>
AV-unprocessed.smi

> <i_m_source_file_index>
1893

> <i_lp_mmshare_version>
43012

> <i_f3d_flags>
0

> <s_epik_input>
W0NIM11bQ0BASF0xW0NIMl1bQ0gyXVtDSDJdW0NIMl1OMVtDSDJdW0NIMl1bTkhdQyg9TylbQ0BIXShbQ0gzXSluMltjSF1uW2NIXW4y

> <s_epik_cmdline>
J2VwaWtfcHl0aG9uJywgJy1waCcsICc3LjAnLCAnLXRuJywgJzgnLCAnLW1hJywgJzIwMCcsICctbWV0YWxfYmluZGluZycsICctaW1hZScsICc8aW5maWxlLm1hZT4nLCAnLW9tYWUnLCAnPG91dGZpbGUubWFlPic=

> <r_lp_tautomer_probability>
1

> <r_epik_Ionization_Penalty>
0.00266409

> <r_epik_Ionization_Penalty_Charging>
0.00265606

> <r_epik_Ionization_Penalty_Neutral>
8.02794e-06

> <r_epik_State_Penalty>
0.00184955

> <r_epik_Charging_Adjusted_Penalty>
0.00450561

> <i_epik_Tot_Q>
1

> <i_epik_Tot_abs_Q>
1

> <r_epik_Metal_State_Penalty>
-0

> <b_epik_Metal_Only>
0

> <s_lp_Force_Field>
OPLS_2005

> <r_lp_Energy>
25.3191

> <b_lp_Chiralities_Consistent>
1

> <s_lp_Variant>
AV-unprocessed.smi:1893-3

> <Gold.Version>
5.8.1

> <Gold.Id.Protein>
6NUR|6NUR_protein|mol2

> <Gold.PLP.Fitness>
40.4195

> <Gold.PLP.PLP>
-40.7775

> <Gold.PLP.part.hbond>
-2.0000

> <Gold.PLP.part.metal>
0.0000

> <Gold.PLP.part.buried>
-4.4225

> <Gold.PLP.part.nonpolar>
-34.0931

> <Gold.PLP.part.repulsive>
0.2128

> <Gold.PLP.ligand.clash>
0.0000

> <Gold.PLP.ligand.torsion>
0.2788

> <Gold.PLP.Chemscore.Hbond>
0.0000

> <Gold.PLP.Chemscore.CHOScore>
0.0000

> <Gold.PLP.Chemscore.Metal>
0.0000

> <Gold.PLP.Chemscore.Internal.Correction>
0.1995

> <Gold.Rescore>
     Score         DG    S(hbond)    S(metal)    S(lipo)     H(rot)  DE(clash)    DE(int)     intcor
      8.22     -10.24       0.00        0.00      96.25       2.54       0.21       1.82       ----

> <Gold.Chemscore.Fitness>
8.2152

> <Gold.Chemscore.DG>
-10.2448

> <Gold.Chemscore.ZeroCoef>
-5.4800

> <Gold.Chemscore.Hbond>
0.0000

> <Gold.Chemscore.Metal>
0.0000

> <Gold.Chemscore.Lipo>
96.2511

> <Gold.Chemscore.Internal_Hbond>
0.0000

> <Gold.Chemscore.DEClash>
0.2121

> <Gold.Chemscore.DEInternal>
1.8176

> <Gold.Chemscore.Rot>
2.5377

> <Gold.Chemscore.Internal.Correction>
   9.000000E+99

> <Gold.Chemscore.Hbond.Weighted>
-0.0000

> <Gold.Chemscore.Metal.Weighted>
-0.0000

> <Gold.Chemscore.Lipo.Weighted>
-11.2614

> <Gold.Chemscore.Internal_Hbond.Weighted>
0.0000

> <Gold.Chemscore.DEClash.Weighted>
0.2121

> <Gold.Chemscore.DEInternal.Weighted>
1.8176

> <Gold.Chemscore.Rot.Weighted>
6.4966

> <Gold.Chemscore.Internal.Correction.Weighted>
   9.000000E+99

> <Gold.Protein.RotatedTorsions>
[ 6907 6896 6895 6894 ] final -122.02 input  -60.11 | X-H torsion
[ 7974 7965 7964 7962 ] final  155.43 input  175.53 | X-H torsion
[ 8008 7997 7996 7995 ] final  -15.71 input   59.86 | X-H torsion
[ 10167 10162 10161 10158 ] final -143.11 input  -65.29 | X-H torsion
[ 10718 10713 10712 10709 ] final   31.10 input   66.30 | X-H torsion
[ 10763 10752 10751 10750 ] final   99.22 input  -60.55 | X-H torsion
[ 11005 11000 10999 10996 ] final  -43.32 input  -57.11 | X-H torsion

> <Gold.Protein.ActiveResidues>
 VAL166  LYS551  ARG553  GLY616  TRP617  ASP618  TYR619  PRO620  LYS621  CYS622 
 ASP623  PHE694  ASN695  SER759  ASP760  ASP761  ALA762  ILE779  LEU786  VAL792 
 PHE793  MET794  SER795  GLU796  ALA797  LYS798  CYS799  TRP800  GLU811  SER814 

> <Gold.Protein.RotatedAtoms>
  150.8537  133.7747  159.3016 H   0  0  0  0  0  0  0  0  0  0  0  0  # atno 6907 bound_to 6896
  151.5411  135.1067  159.9936 H   0  0  0  0  0  0  0  0  0  0  0  0  # atno 6908 bound_to 6896
  152.4573  133.7706  159.6852 H   0  0  0  0  0  0  0  0  0  0  0  0  # atno 6909 bound_to 6896
  144.8025  139.7067  143.6176 H   0  0  0  0  0  0  0  0  0  0  0  0  # atno 7974 bound_to 7965
  154.5109  140.2189  155.9159 H   0  0  0  0  0  0  0  0  0  0  0  0  # atno 8008 bound_to 7997
  156.1550  140.3154  155.8678 H   0  0  0  0  0  0  0  0  0  0  0  0  # atno 8009 bound_to 7997
  155.3864  140.0475  157.3033 H   0  0  0  0  0  0  0  0  0  0  0  0  # atno 8010 bound_to 7997
  139.8024  143.7815  152.2659 H   0  0  0  0  0  0  0  0  0  0  0  0  # atno 10167 bound_to 10162
  157.2681  130.7194  149.6489 H   0  0  0  0  0  0  0  0  0  0  0  0  # atno 10718 bound_to 10713
  153.2988  135.4121  155.1233 H   0  0  0  0  0  0  0  0  0  0  0  0  # atno 10763 bound_to 10752
  154.8543  135.3536  154.5881 H   0  0  0  0  0  0  0  0  0  0  0  0  # atno 10764 bound_to 10752
  153.6305  135.7061  153.5335 H   0  0  0  0  0  0  0  0  0  0  0  0  # atno 10765 bound_to 10752
  141.0375  133.6793  156.2716 H   0  0  0  0  0  0  0  0  0  0  0  0  # atno 11005 bound_to 11000
  146.2310  139.5813  142.9555 LP  0  0  0  0  0  0  0  0  0  0  0  0  # atno 17320 bound_to 7965
  145.5517  141.0412  143.2274 LP  0  0  0  0  0  0  0  0  0  0  0  0  # atno 17321 bound_to 7965
  139.7939  144.7400  150.9917 LP  0  0  0  0  0  0  0  0  0  0  0  0  # atno 17342 bound_to 10162
  140.7820  143.4414  151.0547 LP  0  0  0  0  0  0  0  0  0  0  0  0  # atno 17343 bound_to 10162
  155.9663  130.4376  150.5183 LP  0  0  0  0  0  0  0  0  0  0  0  0  # atno 17370 bound_to 10713
  157.3101  131.0662  151.2007 LP  0  0  0  0  0  0  0  0  0  0  0  0  # atno 17371 bound_to 10713
  140.6294  134.5279  157.5558 LP  0  0  0  0  0  0  0  0  0  0  0  0  # atno 17394 bound_to 11000
  139.9251  134.8071  156.1092 LP  0  0  0  0  0  0  0  0  0  0  0  0  # atno 17395 bound_to 11000

$$$$
