AV-unprocessed.smi:977|AV-procd|sdf|4307|dock7
  -GOLD-   22720 2213D 1   1.00000     0.00000
 Structure written by MMmdl.
 37 38  0  0  0  0  0  0  0  0  1 V2000
  148.6361  131.2316  154.9183 C   0  0  0  0  0  0  0  0  0  0  0  0
  149.2658  132.4858  155.4579 C   0  0  0  0  0  0  0  0  0  0  0  0
  150.1331  132.3924  156.4552 N   0  0  0  0  0  0  0  0  0  0  0  0
  150.6055  133.6906  156.7026 O   0  0  0  0  0  0  0  0  0  0  0  0
  150.0042  134.5494  155.8386 C   0  0  0  0  0  0  0  0  0  0  0  0
  150.3907  135.9867  155.9313 C   0  0  0  0  0  0  0  0  0  0  0  0
  149.1345  133.8481  155.0568 C   0  0  0  0  0  0  0  0  0  0  0  0
  148.3494  134.4110  154.0198 N   0  0  0  0  0  0  0  0  0  0  0  0
  147.0614  134.1482  153.7535 C   0  0  0  0  0  0  0  0  0  0  0  0
  146.3458  133.3986  154.4169 O   0  0  0  0  0  0  0  0  0  0  0  0
  146.6394  134.8230  152.6746 N   0  0  0  0  0  0  0  0  0  0  0  0
  145.2921  134.7763  152.1082 C   0  0  1  0  0  0  0  0  0  0  0  0
  144.8248  136.2128  151.8324 C   0  0  0  0  0  0  0  0  0  0  0  0
  145.2699  133.9110  150.8303 C   0  0  1  0  0  0  0  0  0  0  0  0
  146.0334  132.5884  150.9256 C   0  0  0  0  0  0  0  0  0  0  0  0
  145.3814  131.7804  149.8279 C   0  0  0  0  0  0  0  0  0  0  0  0
  143.9219  132.2122  149.9427 C   0  0  0  0  0  0  0  0  0  0  0  0
  143.9367  133.5197  150.5119 O   0  0  0  0  0  0  0  0  0  0  0  0
  148.4671  131.3051  153.8439 H   0  0  0  0  0  0  0  0  0  0  0  0
  147.6768  131.0375  155.3979 H   0  0  0  0  0  0  0  0  0  0  0  0
  149.2709  130.3613  155.0876 H   0  0  0  0  0  0  0  0  0  0  0  0
  150.0195  136.5488  155.0743 H   0  0  0  0  0  0  0  0  0  0  0  0
  151.4750  136.0946  155.9604 H   0  0  0  0  0  0  0  0  0  0  0  0
  149.9809  136.4381  156.8348 H   0  0  0  0  0  0  0  0  0  0  0  0
  148.7871  135.1424  153.4789 H   0  0  0  0  0  0  0  0  0  0  0  0
  147.3044  135.4171  152.2014 H   0  0  0  0  0  0  0  0  0  0  0  0
  144.6024  134.3409  152.8337 H   0  0  0  0  0  0  0  0  0  0  0  0
  143.8054  136.2288  151.4463 H   0  0  0  0  0  0  0  0  0  0  0  0
  145.4650  136.7060  151.1001 H   0  0  0  0  0  0  0  0  0  0  0  0
  144.8375  136.8118  152.7437 H   0  0  0  0  0  0  0  0  0  0  0  0
  145.6580  134.4821  149.9848 H   0  0  0  0  0  0  0  0  0  0  0  0
  147.1090  132.7040  150.7883 H   0  0  0  0  0  0  0  0  0  0  0  0
  145.8595  132.1120  151.8917 H   0  0  0  0  0  0  0  0  0  0  0  0
  145.7861  132.0746  148.8586 H   0  0  0  0  0  0  0  0  0  0  0  0
  145.5193  130.7053  149.9447 H   0  0  0  0  0  0  0  0  0  0  0  0
  143.4144  132.2053  148.9776 H   0  0  0  0  0  0  0  0  0  0  0  0
  143.3774  131.5492  150.6161 H   0  0  0  0  0  0  0  0  0  0  0  0
  1  2  1  0  0  0  0
  1 19  1  0  0  0  0
  1 20  1  0  0  0  0
  1 21  1  0  0  0  0
  2  7  1  0  0  0  0
  2  3  2  0  0  0  0
  3  4  1  0  0  0  0
  4  5  1  0  0  0  0
  5  6  1  0  0  0  0
  5  7  2  0  0  0  0
  6 22  1  0  0  0  0
  6 23  1  0  0  0  0
  6 24  1  0  0  0  0
  7  8  1  0  0  0  0
  8  9  1  0  0  0  0
  8 25  1  0  0  0  0
  9 10  2  0  0  0  0
  9 11  1  0  0  0  0
 11 12  1  0  0  0  0
 11 26  1  0  0  0  0
 12 13  1  0  0  0  0
 12 14  1  0  0  0  0
 12 27  1  0  0  0  0
 13 28  1  0  0  0  0
 13 29  1  0  0  0  0
 13 30  1  0  0  0  0
 14 18  1  0  0  0  0
 14 15  1  0  0  0  0
 14 31  1  0  0  0  0
 15 16  1  0  0  0  0
 15 32  1  0  0  0  0
 15 33  1  0  0  0  0
 16 17  1  0  0  0  0
 16 34  1  0  0  0  0
 16 35  1  0  0  0  0
 17 18  1  0  0  0  0
 17 36  1  0  0  0  0
 17 37  1  0  0  0  0
M  END
> <s_m_source_file>
AV-unprocessed.smi

> <i_m_source_file_index>
977

> <i_lp_mmshare_version>
43012

> <i_f3d_flags>
0

> <s_epik_input>
W0NIM11jMW5vYyhbQ0gzXSljMVtOSF1DKD1PKVtOSF1bQ0BIXShbQ0gzXSlbQ0BASF0yW0NIMl1bQ0gyXVtDSDJdTzI=

> <s_epik_cmdline>
J2VwaWtfcHl0aG9uJywgJy1waCcsICc3LjAnLCAnLXRuJywgJzgnLCAnLW1hJywgJzIwMCcsICctbWV0YWxfYmluZGluZycsICctaW1hZScsICc8aW5maWxlLm1hZT4nLCAnLW9tYWUnLCAnPG91dGZpbGUubWFlPic=

> <r_lp_tautomer_probability>
1

> <r_epik_Ionization_Penalty>
3.41601e-05

> <r_epik_Ionization_Penalty_Charging>
0

> <r_epik_Ionization_Penalty_Neutral>
3.41601e-05

> <r_epik_State_Penalty>
-0

> <r_epik_Charging_Adjusted_Penalty>
0

> <i_epik_Tot_Q>
0

> <i_epik_Tot_abs_Q>
0

> <r_epik_Metal_State_Penalty>
-0

> <b_epik_Metal_Only>
0

> <s_lp_Force_Field>
OPLS_2005

> <r_lp_Energy>
19.4669

> <b_lp_Chiralities_Consistent>
1

> <s_lp_Variant>
AV-unprocessed.smi:977-4

> <Gold.Version>
5.8.1

> <Gold.Id.Protein>
6NUR|6NUR_protein|mol2

> <Gold.PLP.Fitness>
36.1718

> <Gold.PLP.PLP>
-31.5378

> <Gold.PLP.part.hbond>
-2.0000

> <Gold.PLP.part.metal>
0.0000

> <Gold.PLP.part.buried>
-4.1604

> <Gold.PLP.part.nonpolar>
-25.0190

> <Gold.PLP.part.repulsive>
0.2553

> <Gold.PLP.ligand.clash>
0.0000

> <Gold.PLP.ligand.torsion>
0.8044

> <Gold.PLP.Chemscore.Hbond>
1.9920

> <Gold.PLP.Chemscore.CHOScore>
0.0000

> <Gold.PLP.Chemscore.Metal>
0.0000

> <Gold.Chemscore.Hbonds>
donor molecule, donor type, donor heavy atom, donor atom, acceptor molecule, acceptor atom, score
      L1  H     8    25       P1  7948  1.00
      L1  H    11    26       P1  7948  1.00

> <Gold.PLP.Chemscore.Internal.Correction>
0.2668

> <Gold.Rescore>
     Score         DG    S(hbond)    S(metal)    S(lipo)     H(rot)  DE(clash)    DE(int)     intcor
     15.73     -16.54       1.69        0.00      73.05       1.22       0.06       0.75       ----

> <Gold.Chemscore.Fitness>
15.7324

> <Gold.Chemscore.DG>
-16.5442

> <Gold.Chemscore.ZeroCoef>
-5.4800

> <Gold.Chemscore.Hbond>
1.6887

> <Gold.Chemscore.Metal>
0.0000

> <Gold.Chemscore.Lipo>
73.0525

> <Gold.Chemscore.Internal_Hbond>
0.0000

> <Gold.Chemscore.DEClash>
0.0630

> <Gold.Chemscore.DEInternal>
0.7487

> <Gold.Chemscore.Rot>
1.2200

> <Gold.Chemscore.Internal.Correction>
   9.000000E+99

> <Gold.Chemscore.Hbonds>
donor molecule, donor type, donor heavy atom, donor atom, acceptor molecule, acceptor atom, score
      L1  H     8    25       P1  7948  0.67
      L1  H    11    26       P1  7948  0.99

> <Gold.Chemscore.Hbond.Weighted>
-5.6402

> <Gold.Chemscore.Metal.Weighted>
-0.0000

> <Gold.Chemscore.Lipo.Weighted>
-8.5471

> <Gold.Chemscore.Internal_Hbond.Weighted>
0.0000

> <Gold.Chemscore.DEClash.Weighted>
0.0630

> <Gold.Chemscore.DEInternal.Weighted>
0.7487

> <Gold.Chemscore.Rot.Weighted>
3.1232

> <Gold.Chemscore.Internal.Correction.Weighted>
   9.000000E+99

> <Gold.Protein.RotatedTorsions>
[ 6907 6896 6895 6894 ] final   44.99 input  -60.11 | X-H torsion
[ 7974 7965 7964 7962 ] final    6.05 input  175.53 | X-H torsion
[ 8008 7997 7996 7995 ] final -134.07 input   59.86 | X-H torsion
[ 10167 10162 10161 10158 ] final   40.79 input  -65.29 | X-H torsion
[ 10718 10713 10712 10709 ] final -114.44 input   66.30 | X-H torsion
[ 10763 10752 10751 10750 ] final  139.61 input  -60.55 | X-H torsion
[ 11005 11000 10999 10996 ] final   22.40 input  -57.11 | X-H torsion

> <Gold.Protein.ActiveResidues>
 VAL166  LYS551  ARG553  GLY616  TRP617  ASP618  TYR619  PRO620  LYS621  CYS622 
 ASP623  PHE694  ASN695  SER759  ASP760  ASP761  ALA762  ILE779  LEU786  VAL792 
 PHE793  MET794  SER795  GLU796  ALA797  LYS798  CYS799  TRP800  GLU811  SER814 

> <Gold.Protein.RotatedAtoms>
  152.2391  134.8246  160.0462 H   0  0  0  0  0  0  0  0  0  0  0  0  # atno 6907 bound_to 6896
  151.8967  133.3523  159.3825 H   0  0  0  0  0  0  0  0  0  0  0  0  # atno 6908 bound_to 6896
  150.7048  134.4795  159.5508 H   0  0  0  0  0  0  0  0  0  0  0  0  # atno 6909 bound_to 6896
  146.2437  140.0292  142.8391 H   0  0  0  0  0  0  0  0  0  0  0  0  # atno 7974 bound_to 7965
  155.3560  140.0480  157.3046 H   0  0  0  0  0  0  0  0  0  0  0  0  # atno 8008 bound_to 7997
  154.5202  140.2222  155.8953 H   0  0  0  0  0  0  0  0  0  0  0  0  # atno 8009 bound_to 7997
  156.1681  140.3102  155.8931 H   0  0  0  0  0  0  0  0  0  0  0  0  # atno 8010 bound_to 7997
  140.3707  144.2108  150.6133 H   0  0  0  0  0  0  0  0  0  0  0  0  # atno 10167 bound_to 10162
  156.0830  130.6027  150.8774 H   0  0  0  0  0  0  0  0  0  0  0  0  # atno 10718 bound_to 10713
  153.9090  135.3013  155.3448 H   0  0  0  0  0  0  0  0  0  0  0  0  # atno 10763 bound_to 10752
  154.7633  135.4923  153.9508 H   0  0  0  0  0  0  0  0  0  0  0  0  # atno 10764 bound_to 10752
  153.1203  135.6780  153.9448 H   0  0  0  0  0  0  0  0  0  0  0  0  # atno 10765 bound_to 10752
  140.3809  134.1921  155.7663 H   0  0  0  0  0  0  0  0  0  0  0  0  # atno 11005 bound_to 11000
  145.1170  140.9439  143.4623 LP  0  0  0  0  0  0  0  0  0  0  0  0  # atno 17320 bound_to 7965
  145.0519  139.3175  143.5924 LP  0  0  0  0  0  0  0  0  0  0  0  0  # atno 17321 bound_to 7965
  140.5036  143.2311  151.8642 LP  0  0  0  0  0  0  0  0  0  0  0  0  # atno 17342 bound_to 10162
  139.4804  144.5031  151.9033 LP  0  0  0  0  0  0  0  0  0  0  0  0  # atno 17343 bound_to 10162
  157.5954  131.0943  150.9050 LP  0  0  0  0  0  0  0  0  0  0  0  0  # atno 17370 bound_to 10713
  156.9217  130.5317  149.5279 LP  0  0  0  0  0  0  0  0  0  0  0  0  # atno 17371 bound_to 10713
  141.1923  133.8175  157.0843 LP  0  0  0  0  0  0  0  0  0  0  0  0  # atno 17394 bound_to 11000
  140.0479  134.9821  157.1082 LP  0  0  0  0  0  0  0  0  0  0  0  0  # atno 17395 bound_to 11000

$$$$
