AV-unprocessed.smi:72|AV-procd|sdf|755|dock4
  -GOLD-   2262017 93D 1   1.00000     0.00000
 Structure written by MMmdl.
 29 30  0  0  0  0  0  0  0  0  1 V2000
  147.3860  132.9590  156.4229 N   0  0  0  0  0  0  0  0  0  0  0  0
  148.0965  134.1408  156.4332 C   0  0  0  0  0  0  0  0  0  0  0  0
  148.1083  134.8702  155.2363 N   0  0  0  0  0  0  0  0  0  0  0  0
  148.7704  135.9832  155.2429 C   0  0  0  0  0  0  0  0  0  0  0  0
  149.4584  136.4452  156.4348 N   0  0  0  0  0  0  0  0  0  0  0  0
  150.2363  137.7456  156.4368 C   0  0  2  0  0  0  0  0  0  0  0  0
  149.3606  138.7968  156.1553 O   0  0  0  0  0  0  0  0  0  0  0  0
  150.0018  139.7223  155.2864 C   0  0  2  0  0  0  0  0  0  0  0  0
  148.9743  140.6222  154.5766 C   0  0  0  0  0  0  0  0  0  0  0  0
  149.4883  141.0733  153.3416 O   0  0  0  0  0  0  0  0  0  0  0  0
  150.8913  138.8390  154.3993 C   0  0  2  0  0  0  0  0  0  0  0  0
  150.1507  138.2833  153.3255 O   0  0  0  0  0  0  0  0  0  0  0  0
  151.3714  137.7796  155.3885 C   0  0  2  0  0  0  0  0  0  0  0  0
  151.6882  136.5394  154.7781 O   0  0  0  0  0  0  0  0  0  0  0  0
  149.4179  135.6468  157.6109 C   0  0  0  0  0  0  0  0  0  0  0  0
  150.0201  136.0020  158.6242 O   0  0  0  0  0  0  0  0  0  0  0  0
  148.6836  134.4562  157.5521 N   0  0  0  0  0  0  0  0  0  0  0  0
  150.6037  137.8859  157.4543 H   0  0  0  0  0  0  0  0  0  0  0  0
  150.6442  140.3449  155.9123 H   0  0  0  0  0  0  0  0  0  0  0  0
  151.7241  139.4031  153.9782 H   0  0  0  0  0  0  0  0  0  0  0  0
  152.2632  138.1486  155.8968 H   0  0  0  0  0  0  0  0  0  0  0  0
  147.3080  132.3510  157.2252 H   0  0  0  0  0  0  0  0  0  0  0  0
  146.8882  132.6158  155.6142 H   0  0  0  0  0  0  0  0  0  0  0  0
  148.8546  136.6328  154.3709 H   0  0  0  0  0  0  0  0  0  0  0  0
  148.0265  140.1073  154.4179 H   0  0  0  0  0  0  0  0  0  0  0  0
  148.7591  141.4947  155.1936 H   0  0  0  0  0  0  0  0  0  0  0  0
  149.2780  140.4342  152.6777 H   0  0  0  0  0  0  0  0  0  0  0  0
  150.0803  138.9340  152.6443 H   0  0  0  0  0  0  0  0  0  0  0  0
  150.9383  136.2483  154.2823 H   0  0  0  0  0  0  0  0  0  0  0  0
  1  2  1  0  0  0  0
  1 22  1  0  0  0  0
  1 23  1  0  0  0  0
  2 17  2  0  0  0  0
  2  3  1  0  0  0  0
  3  4  2  0  0  0  0
  4  5  1  0  0  0  0
  4 24  1  0  0  0  0
  5  6  1  0  0  0  0
  5 15  1  0  0  0  0
  6 18  1  0  0  0  0
  6 13  1  0  0  0  0
  6  7  1  0  0  0  0
  7  8  1  0  0  0  0
  8 19  1  0  0  0  0
  8  9  1  0  0  0  0
  8 11  1  0  0  0  0
  9 10  1  0  0  0  0
  9 25  1  0  0  0  0
  9 26  1  0  0  0  0
 10 27  1  0  0  0  0
 11 20  1  0  0  0  0
 11 12  1  0  0  0  0
 11 13  1  0  0  0  0
 12 28  1  0  0  0  0
 13 21  1  0  0  0  0
 13 14  1  0  0  0  0
 14 29  1  0  0  0  0
 15 16  2  0  0  0  0
 15 17  1  0  0  0  0
M  END
> <s_m_source_file>
AV-unprocessed.smi

> <i_m_source_file_index>
72

> <i_lp_mmshare_version>
43012

> <i_f3d_flags>
0

> <s_epik_input>
W05IMl1jMW5bY0hdbihjKD1PKW4xKVtDQEBIXTJPW0NASF0oW0NIMl1bT0hdKVtDQEBIXShbT0hdKVtDQEhdMltPSF0=

> <s_epik_cmdline>
J2VwaWtfcHl0aG9uJywgJy1waCcsICc3LjAnLCAnLXRuJywgJzgnLCAnLW1hJywgJzIwMCcsICctbWV0YWxfYmluZGluZycsICctaW1hZScsICc8aW5maWxlLm1hZT4nLCAnLW9tYWUnLCAnPG91dGZpbGUubWFlPic=

> <r_lp_tautomer_probability>
4.77166e-05

> <r_epik_Ionization_Penalty>
1.3546

> <r_epik_Ionization_Penalty_Charging>
1.46833e-10

> <r_epik_Ionization_Penalty_Neutral>
1.3546

> <r_epik_State_Penalty>
3.51908

> <r_epik_Charging_Adjusted_Penalty>
3.51908

> <i_epik_Tot_Q>
0

> <i_epik_Tot_abs_Q>
0

> <r_epik_Metal_State_Penalty>
3.44088

> <b_epik_Metal_Only>
1

> <s_epik_Chemistry_Notes>
This compound contains an acetal/aminal-like group ( X-CH(R)-Y where X, Y are N, S, or O) that may be acid/base labile, releasing an aldehyde.

> <s_lp_Force_Field>
OPLS_2005

> <r_lp_Energy>
36.4179

> <b_lp_Chiralities_Consistent>
1

> <s_lp_Variant>
AV-unprocessed.smi:72-93

> <Gold.Version>
5.8.1

> <Gold.Id.Protein>
6NUR|6NUR_protein|mol2

> <Gold.PLP.Fitness>
36.0657

> <Gold.PLP.PLP>
-18.7452

> <Gold.PLP.part.hbond>
-7.3212

> <Gold.PLP.part.metal>
0.0000

> <Gold.PLP.part.buried>
-2.1215

> <Gold.PLP.part.nonpolar>
-9.4044

> <Gold.PLP.part.repulsive>
0.0671

> <Gold.PLP.ligand.clash>
0.0000

> <Gold.PLP.ligand.torsion>
0.3043

> <Gold.PLP.Chemscore.Hbond>
4.9779

> <Gold.PLP.Chemscore.CHOScore>
0.9980

> <Gold.PLP.Chemscore.Metal>
0.0000

> <Gold.Chemscore.Hbonds>
donor molecule, donor type, donor heavy atom, donor atom, acceptor molecule, acceptor atom, score
      L1  H    10    27       P1  7957  0.83
      L1  H    12    28       P1  7957  1.00
      P1  H  6896  6908       L1    16  1.00
      P1  H  7989  7998       L1    10  0.14
      P1  H  8011  8017       L1    10  0.95
      P1  H 10752 10764       L1    14  1.00
      L1  C     4    24       P1  7948  1.00

> <Gold.PLP.Chemscore.Internal.Correction>
0.0016

> <Gold.Rescore>
     Score         DG    S(hbond)    S(metal)    S(lipo)     H(rot)  DE(clash)    DE(int)     intcor
     11.04     -11.55       3.99        0.00      26.93       4.06       0.01       0.51       ----

> <Gold.Chemscore.Fitness>
11.0374

> <Gold.Chemscore.DG>
-11.5509

> <Gold.Chemscore.ZeroCoef>
-5.4800

> <Gold.Chemscore.Hbond>
3.9861

> <Gold.Chemscore.Metal>
0.0000

> <Gold.Chemscore.Lipo>
26.9323

> <Gold.Chemscore.Internal_Hbond>
0.0000

> <Gold.Chemscore.DEClash>
0.0069

> <Gold.Chemscore.DEInternal>
0.5066

> <Gold.Chemscore.Rot>
4.0600

> <Gold.Chemscore.Internal.Correction>
   9.000000E+99

> <Gold.Chemscore.Hbonds>
donor molecule, donor type, donor heavy atom, donor atom, acceptor molecule, acceptor atom, score
      L1  H    10    27       P1  7957  0.80
      L1  H    12    28       P1  7957  0.55
      P1  H  6896  6908       L1    16  0.87
      P1  H  7989  7998       L1    10  0.03
      P1  H  8011  8017       L1    10  0.21
      P1  H 10752 10764       L1    14  0.86

> <Gold.Chemscore.Hbond.Weighted>
-13.3135

> <Gold.Chemscore.Metal.Weighted>
-0.0000

> <Gold.Chemscore.Lipo.Weighted>
-3.1511

> <Gold.Chemscore.Internal_Hbond.Weighted>
0.0000

> <Gold.Chemscore.DEClash.Weighted>
0.0069

> <Gold.Chemscore.DEInternal.Weighted>
0.5066

> <Gold.Chemscore.Rot.Weighted>
10.3936

> <Gold.Chemscore.Internal.Correction.Weighted>
   9.000000E+99

> <Gold.Protein.RotatedTorsions>
[ 6907 6896 6895 6894 ] final  174.19 input  -60.11 | X-H torsion
[ 7974 7965 7964 7962 ] final -135.30 input  175.53 | X-H torsion
[ 8008 7997 7996 7995 ] final  147.47 input   59.86 | X-H torsion
[ 10167 10162 10161 10158 ] final -154.53 input  -65.29 | X-H torsion
[ 10718 10713 10712 10709 ] final  -11.72 input   66.30 | X-H torsion
[ 10763 10752 10751 10750 ] final  -55.22 input  -60.55 | X-H torsion
[ 11005 11000 10999 10996 ] final  174.89 input  -57.11 | X-H torsion

> <Gold.Protein.ActiveResidues>
 VAL166  LYS551  ARG553  GLY616  TRP617  ASP618  TYR619  PRO620  LYS621  CYS622 
 ASP623  PHE694  ASN695  SER759  ASP760  ASP761  ALA762  ILE779  LEU786  VAL792 
 PHE793  MET794  SER795  GLU796  ALA797  LYS798  CYS799  TRP800  GLU811  SER814 

> <Gold.Protein.RotatedAtoms>
  151.7562  133.3330  159.3404 H   0  0  0  0  0  0  0  0  0  0  0  0  # atno 6907 bound_to 6896
  150.7516  134.6147  159.6114 H   0  0  0  0  0  0  0  0  0  0  0  0  # atno 6908 bound_to 6896
  152.3436  134.7104  160.0308 H   0  0  0  0  0  0  0  0  0  0  0  0  # atno 6909 bound_to 6896
  144.9026  140.6791  143.5075 H   0  0  0  0  0  0  0  0  0  0  0  0  # atno 7974 bound_to 7965
  156.2824  140.2155  156.5542 H   0  0  0  0  0  0  0  0  0  0  0  0  # atno 8008 bound_to 7997
  154.7266  140.0499  157.0711 H   0  0  0  0  0  0  0  0  0  0  0  0  # atno 8009 bound_to 7997
  155.0408  140.3145  155.4728 H   0  0  0  0  0  0  0  0  0  0  0  0  # atno 8010 bound_to 7997
  139.7006  143.9270  152.2427 H   0  0  0  0  0  0  0  0  0  0  0  0  # atno 10167 bound_to 10162
  156.6550  130.4965  149.6049 H   0  0  0  0  0  0  0  0  0  0  0  0  # atno 10718 bound_to 10713
  154.1873  135.6433  153.5050 H   0  0  0  0  0  0  0  0  0  0  0  0  # atno 10763 bound_to 10752
  153.0044  135.5420  154.6452 H   0  0  0  0  0  0  0  0  0  0  0  0  # atno 10764 bound_to 10752
  154.5832  135.2927  155.0684 H   0  0  0  0  0  0  0  0  0  0  0  0  # atno 10765 bound_to 10752
  140.3562  134.7152  157.4301 H   0  0  0  0  0  0  0  0  0  0  0  0  # atno 11005 bound_to 11000
  145.3591  139.1686  143.4393 LP  0  0  0  0  0  0  0  0  0  0  0  0  # atno 17320 bound_to 7965
  146.3116  140.3651  142.8668 LP  0  0  0  0  0  0  0  0  0  0  0  0  # atno 17321 bound_to 7965
  139.9111  144.6856  150.8561 LP  0  0  0  0  0  0  0  0  0  0  0  0  # atno 17342 bound_to 10162
  140.7708  143.3442  151.2144 LP  0  0  0  0  0  0  0  0  0  0  0  0  # atno 17343 bound_to 10162
  156.2055  130.6646  151.1214 LP  0  0  0  0  0  0  0  0  0  0  0  0  # atno 17370 bound_to 10713
  157.7128  131.0725  150.6437 LP  0  0  0  0  0  0  0  0  0  0  0  0  # atno 17371 bound_to 10713
  140.0663  134.5925  155.8692 LP  0  0  0  0  0  0  0  0  0  0  0  0  # atno 17394 bound_to 11000
  141.1997  133.6608  156.5860 LP  0  0  0  0  0  0  0  0  0  0  0  0  # atno 17395 bound_to 11000

$$$$
