AV-unprocessed.smi:347|AV-procd|sdf|2394|dock7
  -GOLD-   2262022323D 1   1.00000     0.00000
 Structure written by MMmdl.
 45 46  0  0  0  0  0  0  0  0  2 V2000
  151.7464  144.9994  158.9002 C   0  0  0  0  0  0  0  0  0  0  0  0
  151.8171  143.5127  158.8273 C   0  0  0  0  0  0  0  0  0  0  0  0
  151.5459  142.6167  157.8317 C   0  0  0  0  0  0  0  0  0  0  0  0
  151.8256  141.3655  158.4425 C   0  0  0  0  0  0  0  0  0  0  0  0
  151.6703  140.1537  157.7225 N   0  0  0  0  0  0  0  0  0  0  0  0
  151.4249  140.0078  156.4095 C   0  0  0  0  0  0  0  0  0  0  0  0
  151.3282  140.9280  155.5975 O   0  0  0  0  0  0  0  0  0  0  0  0
  151.2900  138.7144  156.0819 N   0  0  0  0  0  0  0  0  0  0  0  0
  151.0043  138.1995  154.7444 C   0  0  0  0  0  0  0  0  0  0  0  0
  149.7280  138.7865  154.1107 C   0  0  0  0  0  0  0  0  0  0  0  0
  148.3965  138.2196  154.6642 C   0  0  0  0  0  0  0  0  0  0  0  0
  148.0059  138.8529  156.0180 C   0  0  0  0  0  0  0  0  0  0  0  0
  147.2761  138.5837  153.6703 C   0  0  0  0  0  0  0  0  0  0  0  0
  148.4341  136.7318  154.7436 N   0  3  0  0  0  0  0  0  0  0  0  0
  149.6412  136.0427  155.2824 C   0  0  0  0  0  0  0  0  0  0  0  0
  149.6280  135.9999  156.8268 C   0  0  0  0  0  0  0  0  0  0  0  0
  149.5666  134.5801  154.8022 C   0  0  0  0  0  0  0  0  0  0  0  0
  150.9468  136.6636  154.7198 C   0  0  0  0  0  0  0  0  0  0  0  0
  152.2317  141.4859  159.6969 N   0  0  0  0  0  0  0  0  0  0  0  0
  152.2272  142.8627  159.9505 O   0  0  0  0  0  0  0  0  0  0  0  0
  151.7457  145.4380  157.9023 H   0  0  0  0  0  0  0  0  0  0  0  0
  152.5995  145.4034  159.4456 H   0  0  0  0  0  0  0  0  0  0  0  0
  150.8370  145.3173  159.4103 H   0  0  0  0  0  0  0  0  0  0  0  0
  151.2030  142.8269  156.8296 H   0  0  0  0  0  0  0  0  0  0  0  0
  151.7397  139.3089  158.2698 H   0  0  0  0  0  0  0  0  0  0  0  0
  151.3969  138.0302  156.8167 H   0  0  0  0  0  0  0  0  0  0  0  0
  151.8505  138.4956  154.1211 H   0  0  0  0  0  0  0  0  0  0  0  0
  149.7295  139.8755  154.1721 H   0  0  0  0  0  0  0  0  0  0  0  0
  149.7788  138.5655  153.0432 H   0  0  0  0  0  0  0  0  0  0  0  0
  147.8276  139.9231  155.9068 H   0  0  0  0  0  0  0  0  0  0  0  0
  148.7670  138.7550  156.7847 H   0  0  0  0  0  0  0  0  0  0  0  0
  147.0891  138.4125  156.4112 H   0  0  0  0  0  0  0  0  0  0  0  0
  147.1956  139.6637  153.5391 H   0  0  0  0  0  0  0  0  0  0  0  0
  146.3046  138.2234  154.0122 H   0  0  0  0  0  0  0  0  0  0  0  0
  147.4543  138.1491  152.6857 H   0  0  0  0  0  0  0  0  0  0  0  0
  147.6195  136.4090  155.2460 H   0  0  0  0  0  0  0  0  0  0  0  0
  150.4260  135.3587  157.2030 H   0  0  0  0  0  0  0  0  0  0  0  0
  148.6870  135.5970  157.2032 H   0  0  0  0  0  0  0  0  0  0  0  0
  149.7751  136.9675  157.2946 H   0  0  0  0  0  0  0  0  0  0  0  0
  150.4328  134.0063  155.1341 H   0  0  0  0  0  0  0  0  0  0  0  0
  149.5321  134.5163  153.7136 H   0  0  0  0  0  0  0  0  0  0  0  0
  148.6761  134.0785  155.1838 H   0  0  0  0  0  0  0  0  0  0  0  0
  151.0514  136.3611  153.6765 H   0  0  0  0  0  0  0  0  0  0  0  0
  151.8173  136.2451  155.2277 H   0  0  0  0  0  0  0  0  0  0  0  0
  148.3496  136.4127  153.7891 H   0  0  0  0  0  0  0  0  0  0  0  0
  1  2  1  0  0  0  0
  1 21  1  0  0  0  0
  1 22  1  0  0  0  0
  1 23  1  0  0  0  0
  2 20  1  0  0  0  0
  2  3  2  0  0  0  0
  3  4  1  0  0  0  0
  3 24  1  0  0  0  0
  4  5  1  0  0  0  0
  4 19  2  0  0  0  0
  5  6  1  0  0  0  0
  5 25  1  0  0  0  0
  6  7  2  0  0  0  0
  6  8  1  0  0  0  0
  8  9  1  0  0  0  0
  8 26  1  0  0  0  0
  9 18  1  0  0  0  0
  9 10  1  0  0  0  0
  9 27  1  0  0  0  0
 10 11  1  0  0  0  0
 10 28  1  0  0  0  0
 10 29  1  0  0  0  0
 11 12  1  0  0  0  0
 11 13  1  0  0  0  0
 11 14  1  0  0  0  0
 12 30  1  0  0  0  0
 12 31  1  0  0  0  0
 12 32  1  0  0  0  0
 13 33  1  0  0  0  0
 13 34  1  0  0  0  0
 13 35  1  0  0  0  0
 14 15  1  0  0  0  0
 14 36  1  0  0  0  0
 14 45  1  0  0  0  0
 15 16  1  0  0  0  0
 15 17  1  0  0  0  0
 15 18  1  0  0  0  0
 16 37  1  0  0  0  0
 16 38  1  0  0  0  0
 16 39  1  0  0  0  0
 17 40  1  0  0  0  0
 17 41  1  0  0  0  0
 17 42  1  0  0  0  0
 18 43  1  0  0  0  0
 18 44  1  0  0  0  0
 19 20  1  0  0  0  0
M  CHG  1  14   1
M  END
> <s_m_source_file>
AV-unprocessed.smi

> <i_m_source_file_index>
347

> <i_lp_mmshare_version>
43012

> <i_f3d_flags>
0

> <s_epik_input>
W0NIM11jMVtjSF1jKG5vMSlbTkhdQyg9TylbTkhdW0NIXShbQ0gyXUMyKFtDSDNdKVtDSDNdKVtDSDJdQyhbTkhdMikoW0NIM10pW0NIM10=

> <s_epik_cmdline>
J2VwaWtfcHl0aG9uJywgJy1waCcsICc3LjAnLCAnLXRuJywgJzgnLCAnLW1hJywgJzIwMCcsICctbWV0YWxfYmluZGluZycsICctaW1hZScsICc8aW5maWxlLm1hZT4nLCAnLW9tYWUnLCAnPG91dGZpbGUubWFlPic=

> <r_lp_tautomer_probability>
1

> <r_epik_Ionization_Penalty>
0.000125139

> <r_epik_Ionization_Penalty_Charging>
0.000103024

> <r_epik_Ionization_Penalty_Neutral>
2.21147e-05

> <r_epik_State_Penalty>
-0

> <r_epik_Charging_Adjusted_Penalty>
0.000103024

> <i_epik_Tot_Q>
1

> <i_epik_Tot_abs_Q>
1

> <r_epik_Metal_State_Penalty>
-0

> <b_epik_Metal_Only>
0

> <s_lp_Force_Field>
OPLS_2005

> <r_lp_Energy>
23.9758

> <b_lp_Chiralities_Consistent>
1

> <s_lp_Variant>
AV-unprocessed.smi:347-1

> <Gold.Version>
5.8.1

> <Gold.Id.Protein>
6NUR|6NUR_protein|mol2

> <Gold.PLP.Fitness>
37.7019

> <Gold.PLP.PLP>
-29.9843

> <Gold.PLP.part.hbond>
-2.0000

> <Gold.PLP.part.metal>
0.0000

> <Gold.PLP.part.buried>
-3.3487

> <Gold.PLP.part.nonpolar>
-24.4060

> <Gold.PLP.part.repulsive>
0.1774

> <Gold.PLP.ligand.clash>
0.0000

> <Gold.PLP.ligand.torsion>
0.0287

> <Gold.PLP.Chemscore.Hbond>
2.5863

> <Gold.PLP.Chemscore.CHOScore>
0.0000

> <Gold.PLP.Chemscore.Metal>
0.0000

> <Gold.Chemscore.Hbonds>
donor molecule, donor type, donor heavy atom, donor atom, acceptor molecule, acceptor atom, score
      L1  H    14    45       P1  7948  2.00
      P1  H  7989  7998       L1     7  0.53

> <Gold.PLP.Chemscore.Internal.Correction>
0.0162

> <Gold.Rescore>
     Score         DG    S(hbond)    S(metal)    S(lipo)     H(rot)  DE(clash)    DE(int)     intcor
     16.09     -17.63       1.66        0.00      78.35       1.00       0.13       1.41       ----

> <Gold.Chemscore.Fitness>
16.0904

> <Gold.Chemscore.DG>
-17.6339

> <Gold.Chemscore.ZeroCoef>
-5.4800

> <Gold.Chemscore.Hbond>
1.6608

> <Gold.Chemscore.Metal>
0.0000

> <Gold.Chemscore.Lipo>
78.3486

> <Gold.Chemscore.Internal_Hbond>
0.0000

> <Gold.Chemscore.DEClash>
0.1337

> <Gold.Chemscore.DEInternal>
1.4098

> <Gold.Chemscore.Rot>
1.0000

> <Gold.Chemscore.Internal.Correction>
   9.000000E+99

> <Gold.Chemscore.Hbonds>
donor molecule, donor type, donor heavy atom, donor atom, acceptor molecule, acceptor atom, score
      L1  H    14    45       P1  7948  0.92
      P1  H  7989  7998       L1     7  0.53

> <Gold.Chemscore.Hbond.Weighted>
-5.5471

> <Gold.Chemscore.Metal.Weighted>
-0.0000

> <Gold.Chemscore.Lipo.Weighted>
-9.1668

> <Gold.Chemscore.Internal_Hbond.Weighted>
0.0000

> <Gold.Chemscore.DEClash.Weighted>
0.1337

> <Gold.Chemscore.DEInternal.Weighted>
1.4098

> <Gold.Chemscore.Rot.Weighted>
2.5600

> <Gold.Chemscore.Internal.Correction.Weighted>
   9.000000E+99

> <Gold.Protein.RotatedTorsions>
[ 6907 6896 6895 6894 ] final -102.18 input  -60.11 | X-H torsion
[ 7974 7965 7964 7962 ] final   47.95 input  175.53 | X-H torsion
[ 8008 7997 7996 7995 ] final  126.81 input   59.86 | X-H torsion
[ 10167 10162 10161 10158 ] final -146.56 input  -65.29 | X-H torsion
[ 10718 10713 10712 10709 ] final  155.95 input   66.30 | X-H torsion
[ 10763 10752 10751 10750 ] final   77.04 input  -60.55 | X-H torsion
[ 11005 11000 10999 10996 ] final  100.54 input  -57.11 | X-H torsion

> <Gold.Protein.ActiveResidues>
 VAL166  LYS551  ARG553  GLY616  TRP617  ASP618  TYR619  PRO620  LYS621  CYS622 
 ASP623  PHE694  ASN695  SER759  ASP760  ASP761  ALA762  ILE779  LEU786  VAL792 
 PHE793  MET794  SER795  GLU796  ALA797  LYS798  CYS799  TRP800  GLU811  SER814 

> <Gold.Protein.RotatedAtoms>
  150.7185  134.0620  159.3834 H   0  0  0  0  0  0  0  0  0  0  0  0  # atno 6907 bound_to 6896
  151.8600  135.0525  160.0477 H   0  0  0  0  0  0  0  0  0  0  0  0  # atno 6908 bound_to 6896
  152.2724  133.5359  159.5484 H   0  0  0  0  0  0  0  0  0  0  0  0  # atno 6909 bound_to 6896
  146.0250  139.4695  142.9873 H   0  0  0  0  0  0  0  0  0  0  0  0  # atno 7974 bound_to 7965
  156.2874  140.2684  156.2171 H   0  0  0  0  0  0  0  0  0  0  0  0  # atno 8008 bound_to 7997
  155.0206  140.0386  157.2454 H   0  0  0  0  0  0  0  0  0  0  0  0  # atno 8009 bound_to 7997
  154.7439  140.2730  155.6355 H   0  0  0  0  0  0  0  0  0  0  0  0  # atno 8010 bound_to 7997
  139.7702  143.8249  152.2623 H   0  0  0  0  0  0  0  0  0  0  0  0  # atno 10167 bound_to 10162
  157.2115  131.0698  151.1966 H   0  0  0  0  0  0  0  0  0  0  0  0  # atno 10718 bound_to 10713
  153.0769  135.4929  154.8424 H   0  0  0  0  0  0  0  0  0  0  0  0  # atno 10763 bound_to 10752
  154.7100  135.3018  154.9214 H   0  0  0  0  0  0  0  0  0  0  0  0  # atno 10764 bound_to 10752
  153.9911  135.6778  153.4807 H   0  0  0  0  0  0  0  0  0  0  0  0  # atno 10765 bound_to 10752
  139.8771  134.9144  156.4771 H   0  0  0  0  0  0  0  0  0  0  0  0  # atno 11005 bound_to 11000
  145.7133  141.0099  143.1442 LP  0  0  0  0  0  0  0  0  0  0  0  0  # atno 17320 bound_to 7965
  144.7006  139.8782  143.7445 LP  0  0  0  0  0  0  0  0  0  0  0  0  # atno 17321 bound_to 7965
  139.8281  144.7266  150.9486 LP  0  0  0  0  0  0  0  0  0  0  0  0  # atno 17342 bound_to 10162
  140.7813  143.4096  151.1015 LP  0  0  0  0  0  0  0  0  0  0  0  0  # atno 17343 bound_to 10162
  157.3667  130.7159  149.6537 LP  0  0  0  0  0  0  0  0  0  0  0  0  # atno 17370 bound_to 10713
  155.9690  130.4210  150.4450 LP  0  0  0  0  0  0  0  0  0  0  0  0  # atno 17371 bound_to 10713
  140.8754  133.7957  155.9409 LP  0  0  0  0  0  0  0  0  0  0  0  0  # atno 17394 bound_to 11000
  140.8909  134.2496  157.5095 LP  0  0  0  0  0  0  0  0  0  0  0  0  # atno 17395 bound_to 11000

$$$$
