AV-unprocessed.smi:1811|AV-procd|sdf|7335|dock7
  -GOLD-   22720 8593D 1   1.00000     0.00000
 Structure written by MMmdl.
 43 44  0  0  0  0  0  0  0  0  1 V2000
  152.1362  144.3405  157.5074 C   0  0  0  0  0  0  0  0  0  0  0  0
  151.5948  143.7200  158.8130 C   0  0  0  0  0  0  0  0  0  0  0  0
  152.7731  143.5428  159.7900 C   0  0  0  0  0  0  0  0  0  0  0  0
  150.5730  144.6862  159.4496 C   0  0  0  0  0  0  0  0  0  0  0  0
  150.9615  142.3210  158.5668 C   0  0  0  0  0  0  0  0  0  0  0  0
  149.7581  142.2948  157.6145 C   0  0  0  0  0  0  0  0  0  0  0  0
  148.7680  142.9789  157.8695 O   0  0  0  0  0  0  0  0  0  0  0  0
  149.9050  141.5339  156.5147 N   0  0  0  0  0  0  0  0  0  0  0  0
  148.9878  141.2896  155.4516 C   0  0  0  0  0  0  0  0  0  0  0  0
  148.1506  142.2880  154.8947 C   0  0  0  0  0  0  0  0  0  0  0  0
  147.2665  141.9411  153.8566 C   0  0  0  0  0  0  0  0  0  0  0  0
  147.2431  140.6065  153.4144 C   0  0  0  0  0  0  0  0  0  0  0  0
  148.0210  139.6404  153.9430 N   0  0  0  0  0  0  0  0  0  0  0  0
  148.8725  139.9697  154.9442 C   0  0  0  0  0  0  0  0  0  0  0  0
  149.6586  138.9384  155.4857 N   0  0  0  0  0  0  0  0  0  0  0  0
  151.0859  139.0856  155.2330 C   0  0  0  0  0  0  0  0  0  0  0  0
  151.8653  137.9988  155.9937 C   0  0  0  0  0  0  0  0  0  0  0  0
  151.3757  136.7121  155.6251 O   0  0  0  0  0  0  0  0  0  0  0  0
  149.9953  136.5523  155.9407 C   0  0  0  0  0  0  0  0  0  0  0  0
  149.1673  137.6014  155.1790 C   0  0  0  0  0  0  0  0  0  0  0  0
  152.6693  145.2712  157.7041 H   0  0  0  0  0  0  0  0  0  0  0  0
  151.3370  144.5761  156.8043 H   0  0  0  0  0  0  0  0  0  0  0  0
  152.8304  143.6658  157.0055 H   0  0  0  0  0  0  0  0  0  0  0  0
  153.5315  142.8746  159.3801 H   0  0  0  0  0  0  0  0  0  0  0  0
  152.4431  143.1206  160.7399 H   0  0  0  0  0  0  0  0  0  0  0  0
  153.2599  144.4941  160.0077 H   0  0  0  0  0  0  0  0  0  0  0  0
  151.0349  145.6419  159.6997 H   0  0  0  0  0  0  0  0  0  0  0  0
  150.1562  144.2733  160.3689 H   0  0  0  0  0  0  0  0  0  0  0  0
  149.7409  144.9001  158.7779 H   0  0  0  0  0  0  0  0  0  0  0  0
  151.7162  141.6468  158.1593 H   0  0  0  0  0  0  0  0  0  0  0  0
  150.6634  141.8804  159.5201 H   0  0  0  0  0  0  0  0  0  0  0  0
  150.8105  141.1011  156.4015 H   0  0  0  0  0  0  0  0  0  0  0  0
  148.1542  143.3071  155.2473 H   0  0  0  0  0  0  0  0  0  0  0  0
  146.6176  142.6816  153.4130 H   0  0  0  0  0  0  0  0  0  0  0  0
  146.5768  140.3048  152.6197 H   0  0  0  0  0  0  0  0  0  0  0  0
  151.2825  139.0029  154.1630 H   0  0  0  0  0  0  0  0  0  0  0  0
  151.4172  140.0758  155.5478 H   0  0  0  0  0  0  0  0  0  0  0  0
  152.9269  138.0581  155.7535 H   0  0  0  0  0  0  0  0  0  0  0  0
  151.7743  138.1381  157.0722 H   0  0  0  0  0  0  0  0  0  0  0  0
  149.6798  135.5473  155.6602 H   0  0  0  0  0  0  0  0  0  0  0  0
  149.8449  136.6458  157.0175 H   0  0  0  0  0  0  0  0  0  0  0  0
  148.1149  137.5218  155.4540 H   0  0  0  0  0  0  0  0  0  0  0  0
  149.2365  137.4196  154.1055 H   0  0  0  0  0  0  0  0  0  0  0  0
  1  2  1  0  0  0  0
  1 21  1  0  0  0  0
  1 22  1  0  0  0  0
  1 23  1  0  0  0  0
  2  3  1  0  0  0  0
  2  4  1  0  0  0  0
  2  5  1  0  0  0  0
  3 24  1  0  0  0  0
  3 25  1  0  0  0  0
  3 26  1  0  0  0  0
  4 27  1  0  0  0  0
  4 28  1  0  0  0  0
  4 29  1  0  0  0  0
  5  6  1  0  0  0  0
  5 30  1  0  0  0  0
  5 31  1  0  0  0  0
  6  7  2  0  0  0  0
  6  8  1  0  0  0  0
  8  9  1  0  0  0  0
  8 32  1  0  0  0  0
  9 14  1  0  0  0  0
  9 10  2  0  0  0  0
 10 11  1  0  0  0  0
 10 33  1  0  0  0  0
 11 12  2  0  0  0  0
 11 34  1  0  0  0  0
 12 13  1  0  0  0  0
 12 35  1  0  0  0  0
 13 14  2  0  0  0  0
 14 15  1  0  0  0  0
 15 20  1  0  0  0  0
 15 16  1  0  0  0  0
 16 17  1  0  0  0  0
 16 36  1  0  0  0  0
 16 37  1  0  0  0  0
 17 18  1  0  0  0  0
 17 38  1  0  0  0  0
 17 39  1  0  0  0  0
 18 19  1  0  0  0  0
 19 20  1  0  0  0  0
 19 40  1  0  0  0  0
 19 41  1  0  0  0  0
 20 42  1  0  0  0  0
 20 43  1  0  0  0  0
M  END
> <s_m_source_file>
AV-unprocessed.smi

> <i_m_source_file_index>
1811

> <i_lp_mmshare_version>
43012

> <i_f3d_flags>
0

> <s_epik_input>
W0NIM11DKFtDSDNdKShbQ0gzXSlbQ0gyXUMoPU8pW05IXWMxW2NIXVtjSF1bY0hdbmMxTjJbQ0gyXVtDSDJdT1tDSDJdW0NIMl0y

> <s_epik_cmdline>
J2VwaWtfcHl0aG9uJywgJy1waCcsICc3LjAnLCAnLXRuJywgJzgnLCAnLW1hJywgJzIwMCcsICctbWV0YWxfYmluZGluZycsICctaW1hZScsICc8aW5maWxlLm1hZT4nLCAnLW9tYWUnLCAnPG91dGZpbGUubWFlPic=

> <r_lp_tautomer_probability>
1

> <r_epik_Ionization_Penalty>
0.000654353

> <r_epik_Ionization_Penalty_Charging>
0

> <r_epik_Ionization_Penalty_Neutral>
0.000654353

> <r_epik_State_Penalty>
0.000408291

> <r_epik_Charging_Adjusted_Penalty>
0.000408291

> <i_epik_Tot_Q>
0

> <i_epik_Tot_abs_Q>
0

> <r_epik_Metal_State_Penalty>
-0

> <b_epik_Metal_Only>
0

> <s_lp_Force_Field>
OPLS_2005

> <r_lp_Energy>
24.8373

> <b_lp_Chiralities_Consistent>
1

> <s_lp_Variant>
AV-unprocessed.smi:1811-1

> <Gold.Version>
5.8.1

> <Gold.Id.Protein>
6NUR|6NUR_protein|mol2

> <Gold.PLP.Fitness>
39.6266

> <Gold.PLP.PLP>
-34.7535

> <Gold.PLP.part.hbond>
-1.0000

> <Gold.PLP.part.metal>
0.0000

> <Gold.PLP.part.buried>
-1.5772

> <Gold.PLP.part.nonpolar>
-34.0526

> <Gold.PLP.part.repulsive>
0.9442

> <Gold.PLP.ligand.clash>
0.0000

> <Gold.PLP.ligand.torsion>
0.6075

> <Gold.PLP.Chemscore.Hbond>
1.0000

> <Gold.PLP.Chemscore.CHOScore>
0.9803

> <Gold.PLP.Chemscore.Metal>
0.0000

> <Gold.Chemscore.Hbonds>
donor molecule, donor type, donor heavy atom, donor atom, acceptor molecule, acceptor atom, score
      P1  H 10752 10765       L1    18  0.50
      L1  C    12    35       P1 10175  0.09

> <Gold.PLP.Chemscore.Internal.Correction>
0.1471

> <Gold.Rescore>
     Score         DG    S(hbond)    S(metal)    S(lipo)     H(rot)  DE(clash)    DE(int)     intcor
     13.72     -16.52       0.78        0.00     100.53       1.30       0.10       2.70       ----

> <Gold.Chemscore.Fitness>
13.7191

> <Gold.Chemscore.DG>
-16.5201

> <Gold.Chemscore.ZeroCoef>
-5.4800

> <Gold.Chemscore.Hbond>
0.7834

> <Gold.Chemscore.Metal>
0.0000

> <Gold.Chemscore.Lipo>
100.5320

> <Gold.Chemscore.Internal_Hbond>
0.0000

> <Gold.Chemscore.DEClash>
0.1036

> <Gold.Chemscore.DEInternal>
2.6974

> <Gold.Chemscore.Rot>
1.3042

> <Gold.Chemscore.Internal.Correction>
   9.000000E+99

> <Gold.Chemscore.Hbonds>
donor molecule, donor type, donor heavy atom, donor atom, acceptor molecule, acceptor atom, score
      P1  H 10752 10765       L1    18  0.33

> <Gold.Chemscore.Hbond.Weighted>
-2.6167

> <Gold.Chemscore.Metal.Weighted>
-0.0000

> <Gold.Chemscore.Lipo.Weighted>
-11.7622

> <Gold.Chemscore.Internal_Hbond.Weighted>
0.0000

> <Gold.Chemscore.DEClash.Weighted>
0.1036

> <Gold.Chemscore.DEInternal.Weighted>
2.6974

> <Gold.Chemscore.Rot.Weighted>
3.3389

> <Gold.Chemscore.Internal.Correction.Weighted>
   9.000000E+99

> <Gold.Protein.RotatedTorsions>
[ 6907 6896 6895 6894 ] final  -95.88 input  -60.11 | X-H torsion
[ 7974 7965 7964 7962 ] final -108.30 input  175.53 | X-H torsion
[ 8008 7997 7996 7995 ] final -166.59 input   59.86 | X-H torsion
[ 10167 10162 10161 10158 ] final  -66.05 input  -65.29 | X-H torsion
[ 10718 10713 10712 10709 ] final   39.85 input   66.30 | X-H torsion
[ 10763 10752 10751 10750 ] final  170.27 input  -60.55 | X-H torsion
[ 11005 11000 10999 10996 ] final  -80.78 input  -57.11 | X-H torsion

> <Gold.Protein.ActiveResidues>
 VAL166  LYS551  ARG553  GLY616  TRP617  ASP618  TYR619  PRO620  LYS621  CYS622 
 ASP623  PHE694  ASN695  SER759  ASP760  ASP761  ALA762  ILE779  LEU786  VAL792 
 PHE793  MET794  SER795  GLU796  ALA797  LYS798  CYS799  TRP800  GLU811  SER814 

> <Gold.Protein.RotatedAtoms>
  150.6974  134.1589  159.4168 H   0  0  0  0  0  0  0  0  0  0  0  0  # atno 6907 bound_to 6896
  151.9570  135.0139  160.0554 H   0  0  0  0  0  0  0  0  0  0  0  0  # atno 6908 bound_to 6896
  152.1960  133.4772  159.5070 H   0  0  0  0  0  0  0  0  0  0  0  0  # atno 6909 bound_to 6896
  145.1946  140.9030  143.3405 H   0  0  0  0  0  0  0  0  0  0  0  0  # atno 7974 bound_to 7965
  155.8659  140.0985  157.1582 H   0  0  0  0  0  0  0  0  0  0  0  0  # atno 8008 bound_to 7997
  154.3993  140.1356  156.4081 H   0  0  0  0  0  0  0  0  0  0  0  0  # atno 8009 bound_to 7997
  155.7804  140.3458  155.5297 H   0  0  0  0  0  0  0  0  0  0  0  0  # atno 8010 bound_to 7997
  140.5685  143.2316  151.6585 H   0  0  0  0  0  0  0  0  0  0  0  0  # atno 10167 bound_to 10162
  157.3753  130.7724  149.7151 H   0  0  0  0  0  0  0  0  0  0  0  0  # atno 10718 bound_to 10713
  154.3952  135.2754  155.2130 H   0  0  0  0  0  0  0  0  0  0  0  0  # atno 10763 bound_to 10752
  154.4180  135.6007  153.5996 H   0  0  0  0  0  0  0  0  0  0  0  0  # atno 10764 bound_to 10752
  152.9831  135.5965  154.4212 H   0  0  0  0  0  0  0  0  0  0  0  0  # atno 10765 bound_to 10752
  141.1667  133.7166  156.8324 H   0  0  0  0  0  0  0  0  0  0  0  0  # atno 11005 bound_to 11000
  145.0007  139.3601  143.6169 LP  0  0  0  0  0  0  0  0  0  0  0  0  # atno 17320 bound_to 7965
  146.3429  139.9229  142.8764 LP  0  0  0  0  0  0  0  0  0  0  0  0  # atno 17321 bound_to 7965
  139.5105  144.3539  152.0626 LP  0  0  0  0  0  0  0  0  0  0  0  0  # atno 17342 bound_to 10162
  140.2674  144.4001  150.6163 LP  0  0  0  0  0  0  0  0  0  0  0  0  # atno 17343 bound_to 10162
  155.9764  130.4076  150.3782 LP  0  0  0  0  0  0  0  0  0  0  0  0  # atno 17370 bound_to 10713
  157.1878  131.0408  151.2715 LP  0  0  0  0  0  0  0  0  0  0  0  0  # atno 17371 bound_to 10713
  140.2042  134.8875  157.3202 LP  0  0  0  0  0  0  0  0  0  0  0  0  # atno 17394 bound_to 11000
  140.2155  134.4086  155.7591 LP  0  0  0  0  0  0  0  0  0  0  0  0  # atno 17395 bound_to 11000

$$$$
