AV-unprocessed.smi:2405|AV-procd|sdf|9515|dock10
  -GOLD-   2272013143D 1   1.00000     0.00000
 Structure written by MMmdl.
 36 37  0  0  0  0  0  0  0  0  2 V2000
  144.8899  132.8290  150.7984 C   0  0  0  0  0  0  0  0  0  0  0  0
  143.7454  133.3746  151.6589 C   0  0  0  0  0  0  0  0  0  0  0  0
  143.9795  134.7826  152.0929 C   0  0  0  0  0  0  0  0  0  0  0  0
  145.0839  135.4715  151.7941 N   0  0  0  0  0  0  0  0  0  0  0  0
  145.0450  136.7865  152.2710 C   0  0  0  0  0  0  0  0  0  0  0  0
  146.2009  137.7106  152.0219 C   0  0  0  0  0  0  0  0  0  0  0  0
  146.8633  138.0871  153.3475 C   0  0  0  0  0  0  0  0  0  0  0  0
  146.2038  138.6315  154.2328 O   0  0  0  0  0  0  0  0  0  0  0  0
  148.1681  137.7966  153.4651 N   0  0  0  0  0  0  0  0  0  0  0  0
  148.9972  138.1004  154.6271 C   0  0  1  0  0  0  0  0  0  0  0  0
  149.7016  136.8283  155.1351 C   0  0  0  0  0  0  0  0  0  0  0  0
  151.1923  137.0220  154.8384 C   0  0  0  0  0  0  0  0  0  0  0  0
  151.4140  138.5387  154.8922 C   0  0  2  0  0  0  0  0  0  0  0  0
  151.6533  138.9995  156.3449 C   0  0  0  0  0  0  0  0  0  0  0  0
  150.7603  138.7993  157.1984 O   0  0  0  0  0  0  0  0  0  0  0  0
  152.7531  139.5476  156.5782 O   0  5  0  0  0  0  0  0  0  0  0  0
  150.1195  139.0993  154.2737 C   0  0  0  0  0  0  0  0  0  0  0  0
  143.8852  137.0827  152.9436 C   0  0  0  0  0  0  0  0  0  0  0  0
  142.7933  135.7262  152.9866 S   0  0  0  0  0  0  0  0  0  0  0  0
  144.6926  131.8007  150.4951 H   0  0  0  0  0  0  0  0  0  0  0  0
  145.8334  132.8407  151.3451 H   0  0  0  0  0  0  0  0  0  0  0  0
  145.0199  133.4244  149.8941 H   0  0  0  0  0  0  0  0  0  0  0  0
  142.8087  133.3320  151.1025 H   0  0  0  0  0  0  0  0  0  0  0  0
  143.6124  132.7497  152.5429 H   0  0  0  0  0  0  0  0  0  0  0  0
  146.9391  137.2362  151.3742 H   0  0  0  0  0  0  0  0  0  0  0  0
  145.8751  138.6149  151.5057 H   0  0  0  0  0  0  0  0  0  0  0  0
  148.6280  137.3554  152.6817 H   0  0  0  0  0  0  0  0  0  0  0  0
  148.3779  138.5016  155.4317 H   0  0  0  0  0  0  0  0  0  0  0  0
  149.5557  136.7437  156.2129 H   0  0  0  0  0  0  0  0  0  0  0  0
  149.3154  135.9107  154.6893 H   0  0  0  0  0  0  0  0  0  0  0  0
  151.8238  136.4626  155.5305 H   0  0  0  0  0  0  0  0  0  0  0  0
  151.4172  136.6604  153.8344 H   0  0  0  0  0  0  0  0  0  0  0  0
  152.2831  138.8296  154.3009 H   0  0  0  0  0  0  0  0  0  0  0  0
  150.2533  139.1515  153.1919 H   0  0  0  0  0  0  0  0  0  0  0  0
  149.8817  140.1140  154.5960 H   0  0  0  0  0  0  0  0  0  0  0  0
  143.6044  138.0179  153.4051 H   0  0  0  0  0  0  0  0  0  0  0  0
  1  2  1  0  0  0  0
  1 20  1  0  0  0  0
  1 21  1  0  0  0  0
  1 22  1  0  0  0  0
  2  3  1  0  0  0  0
  2 23  1  0  0  0  0
  2 24  1  0  0  0  0
  3 19  1  0  0  0  0
  3  4  2  0  0  0  0
  4  5  1  0  0  0  0
  5  6  1  0  0  0  0
  5 18  2  0  0  0  0
  6  7  1  0  0  0  0
  6 25  1  0  0  0  0
  6 26  1  0  0  0  0
  7  8  2  0  0  0  0
  7  9  1  0  0  0  0
  9 10  1  0  0  0  0
  9 27  1  0  0  0  0
 10 17  1  0  0  0  0
 10 11  1  0  0  0  0
 10 28  1  0  0  0  0
 11 12  1  0  0  0  0
 11 29  1  0  0  0  0
 11 30  1  0  0  0  0
 12 13  1  0  0  0  0
 12 31  1  0  0  0  0
 12 32  1  0  0  0  0
 13 14  1  0  0  0  0
 13 17  1  0  0  0  0
 13 33  1  0  0  0  0
 14 15  2  0  0  0  0
 14 16  1  0  0  0  0
 17 34  1  0  0  0  0
 17 35  1  0  0  0  0
 18 19  1  0  0  0  0
 18 36  1  0  0  0  0
M  CHG  1  16  -1
M  END
> <s_m_source_file>
AV-unprocessed.smi

> <i_m_source_file_index>
2405

> <i_lp_mmshare_version>
43012

> <i_f3d_flags>
0

> <s_epik_input>
W0NIM11bQ0gyXWMxbmMoW2NIXXMxKVtDSDJdQyg9TylbTkhdW0NAQEhdMltDSDJdW0NIMl1bQ0BIXShbQ0gyXTIpQyg9TylbT0hd

> <s_epik_cmdline>
J2VwaWtfcHl0aG9uJywgJy1waCcsICc3LjAnLCAnLXRuJywgJzgnLCAnLW1hJywgJzIwMCcsICctbWV0YWxfYmluZGluZycsICctaW1hZScsICc8aW5maWxlLm1hZT4nLCAnLW9tYWUnLCAnPG91dGZpbGUubWFlPic=

> <r_epik_Ionization_Penalty>
0.000544611

> <r_epik_Ionization_Penalty_Charging>
0.000481685

> <r_epik_Ionization_Penalty_Neutral>
6.29266e-05

> <r_epik_State_Penalty>
0.00029893

> <r_epik_Charging_Adjusted_Penalty>
0.000780614

> <i_epik_Tot_Q>
-1

> <i_epik_Tot_abs_Q>
1

> <r_epik_Metal_State_Penalty>
-0

> <b_epik_Metal_Only>
0

> <s_lp_Force_Field>
OPLS_2005

> <r_lp_Energy>
7.82971

> <b_lp_Chiralities_Consistent>
1

> <s_lp_Variant>
AV-unprocessed.smi:2405-4

> <Gold.Version>
5.8.1

> <Gold.Id.Protein>
6NUR|6NUR_protein|mol2

> <Gold.PLP.Fitness>
41.2339

> <Gold.PLP.PLP>
-29.4235

> <Gold.PLP.part.hbond>
-1.7805

> <Gold.PLP.part.metal>
0.0000

> <Gold.PLP.part.buried>
-0.5004

> <Gold.PLP.part.nonpolar>
-26.9513

> <Gold.PLP.part.repulsive>
0.3189

> <Gold.PLP.ligand.clash>
0.0000

> <Gold.PLP.ligand.torsion>
0.0975

> <Gold.PLP.Chemscore.Hbond>
2.9920

> <Gold.PLP.Chemscore.CHOScore>
0.9927

> <Gold.PLP.Chemscore.Metal>
0.0000

> <Gold.Chemscore.Hbonds>
donor molecule, donor type, donor heavy atom, donor atom, acceptor molecule, acceptor atom, score
      L1  H     9    27       P1  7948  0.70
      P1  H  7997  8009       L1    16  2.00
      L1  C    18    36       P1 10175  0.84

> <Gold.PLP.Chemscore.Internal.Correction>
0.0514

> <Gold.Rescore>
     Score         DG    S(hbond)    S(metal)    S(lipo)     H(rot)  DE(clash)    DE(int)     intcor
     13.85     -14.80       1.90        0.00      70.51       2.06       0.13       0.82       ----

> <Gold.Chemscore.Fitness>
13.8490

> <Gold.Chemscore.DG>
-14.7979

> <Gold.Chemscore.ZeroCoef>
-5.4800

> <Gold.Chemscore.Hbond>
1.9016

> <Gold.Chemscore.Metal>
0.0000

> <Gold.Chemscore.Lipo>
70.5057

> <Gold.Chemscore.Internal_Hbond>
0.0000

> <Gold.Chemscore.DEClash>
0.1261

> <Gold.Chemscore.DEInternal>
0.8228

> <Gold.Chemscore.Rot>
2.0635

> <Gold.Chemscore.Internal.Correction>
   9.000000E+99

> <Gold.Chemscore.Hbonds>
donor molecule, donor type, donor heavy atom, donor atom, acceptor molecule, acceptor atom, score
      L1  H     9    27       P1  7948  0.69
      P1  H  7997  8009       L1    16  1.00

> <Gold.Chemscore.Hbond.Weighted>
-6.3512

> <Gold.Chemscore.Metal.Weighted>
-0.0000

> <Gold.Chemscore.Lipo.Weighted>
-8.2492

> <Gold.Chemscore.Internal_Hbond.Weighted>
0.0000

> <Gold.Chemscore.DEClash.Weighted>
0.1261

> <Gold.Chemscore.DEInternal.Weighted>
0.8228

> <Gold.Chemscore.Rot.Weighted>
5.2825

> <Gold.Chemscore.Internal.Correction.Weighted>
   9.000000E+99

> <Gold.Protein.RotatedTorsions>
[ 6907 6896 6895 6894 ] final   54.07 input  -60.11 | X-H torsion
[ 7974 7965 7964 7962 ] final  144.03 input  175.53 | X-H torsion
[ 8008 7997 7996 7995 ] final -161.45 input   59.86 | X-H torsion
[ 10167 10162 10161 10158 ] final -136.19 input  -65.29 | X-H torsion
[ 10718 10713 10712 10709 ] final -121.80 input   66.30 | X-H torsion
[ 10763 10752 10751 10750 ] final -140.55 input  -60.55 | X-H torsion
[ 11005 11000 10999 10996 ] final   12.03 input  -57.11 | X-H torsion

> <Gold.Protein.ActiveResidues>
 VAL166  LYS551  ARG553  GLY616  TRP617  ASP618  TYR619  PRO620  LYS621  CYS622 
 ASP623  PHE694  ASN695  SER759  ASP760  ASP761  ALA762  ILE779  LEU786  VAL792 
 PHE793  MET794  SER795  GLU796  ALA797  LYS798  CYS799  TRP800  GLU811  SER814 

> <Gold.Protein.RotatedAtoms>
  152.3401  134.7146  160.0265 H   0  0  0  0  0  0  0  0  0  0  0  0  # atno 6907 bound_to 6896
  151.7533  133.3323  159.3406 H   0  0  0  0  0  0  0  0  0  0  0  0  # atno 6908 bound_to 6896
  150.7474  134.6104  159.6128 H   0  0  0  0  0  0  0  0  0  0  0  0  # atno 6909 bound_to 6896
  144.8870  139.5614  143.5816 H   0  0  0  0  0  0  0  0  0  0  0  0  # atno 7974 bound_to 7965
  155.7924  140.0880  157.2002 H   0  0  0  0  0  0  0  0  0  0  0  0  # atno 8008 bound_to 7997
  154.3985  140.1487  156.3236 H   0  0  0  0  0  0  0  0  0  0  0  0  # atno 8009 bound_to 7997
  155.8546  140.3433  155.5718 H   0  0  0  0  0  0  0  0  0  0  0  0  # atno 8010 bound_to 7997
  139.8703  143.6966  152.2640 H   0  0  0  0  0  0  0  0  0  0  0  0  # atno 10167 bound_to 10162
  156.1367  130.6435  150.9706 H   0  0  0  0  0  0  0  0  0  0  0  0  # atno 10718 bound_to 10713
  154.8575  135.3550  154.5725 H   0  0  0  0  0  0  0  0  0  0  0  0  # atno 10763 bound_to 10752
  153.6337  135.7001  153.5271 H   0  0  0  0  0  0  0  0  0  0  0  0  # atno 10764 bound_to 10752
  153.3028  135.4201  155.1227 H   0  0  0  0  0  0  0  0  0  0  0  0  # atno 10765 bound_to 10752
  140.4966  134.0788  155.7783 H   0  0  0  0  0  0  0  0  0  0  0  0  # atno 11005 bound_to 11000
  146.3031  139.7490  142.9077 LP  0  0  0  0  0  0  0  0  0  0  0  0  # atno 17320 bound_to 7965
  145.3850  141.0364  143.3156 LP  0  0  0  0  0  0  0  0  0  0  0  0  # atno 17321 bound_to 7965
  139.7290  144.7586  151.0832 LP  0  0  0  0  0  0  0  0  0  0  0  0  # atno 17342 bound_to 10162
  140.7762  143.5112  150.9651 LP  0  0  0  0  0  0  0  0  0  0  0  0  # atno 17343 bound_to 10162
  157.6538  131.0892  150.7992 LP  0  0  0  0  0  0  0  0  0  0  0  0  # atno 17370 bound_to 10713
  156.8071  130.4940  149.5361 LP  0  0  0  0  0  0  0  0  0  0  0  0  # atno 17371 bound_to 10713
  141.1457  133.9059  157.2221 LP  0  0  0  0  0  0  0  0  0  0  0  0  # atno 17394 bound_to 11000
  139.9738  135.0120  156.9579 LP  0  0  0  0  0  0  0  0  0  0  0  0  # atno 17395 bound_to 11000

$$$$
