AV-unprocessed.smi:1742|AV-procd|sdf|7020|dock6
  -GOLD-   22720 8233D 1   1.00000     0.00000
 Structure written by MMmdl.
 34 35  0  0  0  0  0  0  0  0  1 V2000
  152.0592  144.6626  157.9932 C   0  0  0  0  0  0  0  0  0  0  0  0
  151.7657  144.7606  159.4951 C   0  0  0  0  0  0  0  0  0  0  0  0
  152.4602  143.7347  160.2484 N   0  0  0  0  0  0  0  0  0  0  0  0
  153.3352  142.7756  159.7780 C   0  0  0  0  0  0  0  0  0  0  0  0
  153.7162  142.0542  160.8740 C   0  0  0  0  0  0  0  0  0  0  0  0
  154.6040  140.9529  160.9630 N   0  0  0  0  0  0  0  0  0  0  0  0
  154.7740  139.9609  160.0683 C   0  0  0  0  0  0  0  0  0  0  0  0
  154.1569  139.8661  159.0093 O   0  0  0  0  0  0  0  0  0  0  0  0
  155.6886  139.0415  160.4263 N   0  0  0  0  0  0  0  0  0  0  0  0
  156.1104  137.8480  159.6908 C   0  0  2  0  0  0  0  0  0  0  0  0
  156.7927  138.2313  158.3644 C   0  0  0  0  0  0  0  0  0  0  0  0
  156.8952  136.9811  157.4814 C   0  0  0  0  0  0  0  0  0  0  0  0
  155.4613  135.9272  157.9214 S   0  0  0  0  0  0  0  0  0  0  0  0
  154.4415  136.0113  156.8650 O   0  0  0  0  0  0  0  0  0  0  0  0
  155.9561  134.6258  158.3952 O   0  0  0  0  0  0  0  0  0  0  0  0
  154.9229  136.9307  159.3559 C   0  0  0  0  0  0  0  0  0  0  0  0
  153.0329  142.6323  161.9750 C   0  0  0  0  0  0  0  0  0  0  0  0
  152.2757  143.6480  161.5892 N   0  0  0  0  0  0  0  0  0  0  0  0
  151.5428  145.4511  157.4459 H   0  0  0  0  0  0  0  0  0  0  0  0
  151.7294  143.7059  157.5873 H   0  0  0  0  0  0  0  0  0  0  0  0
  153.1264  144.7624  157.7934 H   0  0  0  0  0  0  0  0  0  0  0  0
  152.0696  145.7370  159.8740 H   0  0  0  0  0  0  0  0  0  0  0  0
  150.6947  144.6681  159.6802 H   0  0  0  0  0  0  0  0  0  0  0  0
  153.5966  142.7008  158.7328 H   0  0  0  0  0  0  0  0  0  0  0  0
  155.1683  140.9110  161.7990 H   0  0  0  0  0  0  0  0  0  0  0  0
  156.1248  139.1757  161.3272 H   0  0  0  0  0  0  0  0  0  0  0  0
  156.8371  137.2854  160.2799 H   0  0  0  0  0  0  0  0  0  0  0  0
  156.1806  138.9717  157.8470 H   0  0  0  0  0  0  0  0  0  0  0  0
  157.7705  138.6858  158.5273 H   0  0  0  0  0  0  0  0  0  0  0  0
  156.8820  137.2111  156.4159 H   0  0  0  0  0  0  0  0  0  0  0  0
  157.8040  136.4220  157.7056 H   0  0  0  0  0  0  0  0  0  0  0  0
  154.6330  136.2789  160.1802 H   0  0  0  0  0  0  0  0  0  0  0  0
  154.0519  137.5101  159.0476 H   0  0  0  0  0  0  0  0  0  0  0  0
  153.0602  142.3555  163.0188 H   0  0  0  0  0  0  0  0  0  0  0  0
  1  2  1  0  0  0  0
  1 19  1  0  0  0  0
  1 20  1  0  0  0  0
  1 21  1  0  0  0  0
  2  3  1  0  0  0  0
  2 22  1  0  0  0  0
  2 23  1  0  0  0  0
  3 18  1  0  0  0  0
  3  4  1  0  0  0  0
  4  5  2  0  0  0  0
  4 24  1  0  0  0  0
  5  6  1  0  0  0  0
  5 17  1  0  0  0  0
  6  7  1  0  0  0  0
  6 25  1  0  0  0  0
  7  8  2  0  0  0  0
  7  9  1  0  0  0  0
  9 10  1  0  0  0  0
  9 26  1  0  0  0  0
 10 16  1  0  0  0  0
 10 11  1  0  0  0  0
 10 27  1  0  0  0  0
 11 12  1  0  0  0  0
 11 28  1  0  0  0  0
 11 29  1  0  0  0  0
 12 13  1  0  0  0  0
 12 30  1  0  0  0  0
 12 31  1  0  0  0  0
 13 14  2  0  0  0  0
 13 15  2  0  0  0  0
 13 16  1  0  0  0  0
 16 32  1  0  0  0  0
 16 33  1  0  0  0  0
 17 18  2  0  0  0  0
 17 34  1  0  0  0  0
M  END
> <s_m_source_file>
AV-unprocessed.smi

> <i_m_source_file_index>
1742

> <i_lp_mmshare_version>
43012

> <i_f3d_flags>
0

> <s_epik_input>
W0NIM11bQ0gyXW4xW2NIXWMoW2NIXW4xKVtOSF1DKD1PKVtOSF1bQ0BASF0oW0NIMl0yKVtDSDJdW0NIMl1TMig9Tyk9Tw==

> <s_epik_cmdline>
J2VwaWtfcHl0aG9uJywgJy1waCcsICc3LjAnLCAnLXRuJywgJzgnLCAnLW1hJywgJzIwMCcsICctbWV0YWxfYmluZGluZycsICctaW1hZScsICc8aW5maWxlLm1hZT4nLCAnLW9tYWUnLCAnPG91dGZpbGUubWFlPic=

> <r_lp_tautomer_probability>
1

> <r_epik_Ionization_Penalty>
0.000152028

> <r_epik_Ionization_Penalty_Charging>
0

> <r_epik_Ionization_Penalty_Neutral>
0.000152028

> <r_epik_State_Penalty>
-0

> <r_epik_Charging_Adjusted_Penalty>
0

> <i_epik_Tot_Q>
0

> <i_epik_Tot_abs_Q>
0

> <r_epik_Metal_State_Penalty>
-0

> <b_epik_Metal_Only>
0

> <s_lp_Force_Field>
OPLS_2005

> <r_lp_Energy>
18.8919

> <b_lp_Chiralities_Consistent>
1

> <s_lp_Variant>
AV-unprocessed.smi:1742-1

> <Gold.Version>
5.8.1

> <Gold.Id.Protein>
6NUR|6NUR_protein|mol2

> <Gold.PLP.Fitness>
39.6748

> <Gold.PLP.PLP>
-34.2289

> <Gold.PLP.part.hbond>
-2.1876

> <Gold.PLP.part.metal>
0.0000

> <Gold.PLP.part.buried>
-5.5028

> <Gold.PLP.part.nonpolar>
-26.2058

> <Gold.PLP.part.repulsive>
0.1979

> <Gold.PLP.ligand.clash>
0.0000

> <Gold.PLP.ligand.torsion>
0.2772

> <Gold.PLP.Chemscore.Hbond>
2.0000

> <Gold.PLP.Chemscore.CHOScore>
0.0000

> <Gold.PLP.Chemscore.Metal>
0.0000

> <Gold.Chemscore.Hbonds>
donor molecule, donor type, donor heavy atom, donor atom, acceptor molecule, acceptor atom, score
      P1  H  7997  8008       L1     8  1.00
      P1  H 10752 10764       L1    14  1.00

> <Gold.PLP.Chemscore.Internal.Correction>
0.0003

> <Gold.Rescore>
     Score         DG    S(hbond)    S(metal)    S(lipo)     H(rot)  DE(clash)    DE(int)     intcor
     17.32     -17.59       1.98        0.00      74.35       1.26       0.01       0.26       ----

> <Gold.Chemscore.Fitness>
17.3183

> <Gold.Chemscore.DG>
-17.5888

> <Gold.Chemscore.ZeroCoef>
-5.4800

> <Gold.Chemscore.Hbond>
1.9831

> <Gold.Chemscore.Metal>
0.0000

> <Gold.Chemscore.Lipo>
74.3524

> <Gold.Chemscore.Internal_Hbond>
0.0000

> <Gold.Chemscore.DEClash>
0.0149

> <Gold.Chemscore.DEInternal>
0.2556

> <Gold.Chemscore.Rot>
1.2554

> <Gold.Chemscore.Internal.Correction>
   9.000000E+99

> <Gold.Chemscore.Hbonds>
donor molecule, donor type, donor heavy atom, donor atom, acceptor molecule, acceptor atom, score
      P1  H  7997  8008       L1     8  0.97
      P1  H 10752 10764       L1    14  1.00

> <Gold.Chemscore.Hbond.Weighted>
-6.6234

> <Gold.Chemscore.Metal.Weighted>
-0.0000

> <Gold.Chemscore.Lipo.Weighted>
-8.6992

> <Gold.Chemscore.Internal_Hbond.Weighted>
0.0000

> <Gold.Chemscore.DEClash.Weighted>
0.0149

> <Gold.Chemscore.DEInternal.Weighted>
0.2556

> <Gold.Chemscore.Rot.Weighted>
3.2139

> <Gold.Chemscore.Internal.Correction.Weighted>
   9.000000E+99

> <Gold.Protein.RotatedTorsions>
[ 6907 6896 6895 6894 ] final   18.04 input  -60.11 | X-H torsion
[ 7974 7965 7964 7962 ] final -150.58 input  175.53 | X-H torsion
[ 8008 7997 7996 7995 ] final -102.74 input   59.86 | X-H torsion
[ 10167 10162 10161 10158 ] final  -90.14 input  -65.29 | X-H torsion
[ 10718 10713 10712 10709 ] final -105.01 input   66.30 | X-H torsion
[ 10763 10752 10751 10750 ] final   31.73 input  -60.55 | X-H torsion
[ 11005 11000 10999 10996 ] final  152.61 input  -57.11 | X-H torsion

> <Gold.Protein.ActiveResidues>
 VAL166  LYS551  ARG553  GLY616  TRP617  ASP618  TYR619  PRO620  LYS621  CYS622 
 ASP623  PHE694  ASN695  SER759  ASP760  ASP761  ALA762  ILE779  LEU786  VAL792 
 PHE793  MET794  SER795  GLU796  ALA797  LYS798  CYS799  TRP800  GLU811  SER814 

> <Gold.Protein.RotatedAtoms>
  151.8590  135.0531  160.0466 H   0  0  0  0  0  0  0  0  0  0  0  0  # atno 6907 bound_to 6896
  152.2678  133.5350  159.5429 H   0  0  0  0  0  0  0  0  0  0  0  0  # atno 6908 bound_to 6896
  150.7140  134.0657  159.3889 H   0  0  0  0  0  0  0  0  0  0  0  0  # atno 6909 bound_to 6896
  144.7899  140.4912  143.5780 H   0  0  0  0  0  0  0  0  0  0  0  0  # atno 7974 bound_to 7965
  154.8609  140.0427  157.1664 H   0  0  0  0  0  0  0  0  0  0  0  0  # atno 8008 bound_to 7997
  154.8841  140.2977  155.5387 H   0  0  0  0  0  0  0  0  0  0  0  0  # atno 8009 bound_to 7997
  156.2998  140.2406  156.3848 H   0  0  0  0  0  0  0  0  0  0  0  0  # atno 8010 bound_to 7997
  140.3579  143.2857  151.9649 H   0  0  0  0  0  0  0  0  0  0  0  0  # atno 10167 bound_to 10162
  156.0328  130.5543  150.7477 H   0  0  0  0  0  0  0  0  0  0  0  0  # atno 10718 bound_to 10713
  153.0300  135.6431  154.1245 H   0  0  0  0  0  0  0  0  0  0  0  0  # atno 10763 bound_to 10752
  154.0969  135.2862  155.3261 H   0  0  0  0  0  0  0  0  0  0  0  0  # atno 10764 bound_to 10752
  154.6426  135.5454  153.7870 H   0  0  0  0  0  0  0  0  0  0  0  0  # atno 10765 bound_to 10752
  140.1324  134.8793  157.2221 H   0  0  0  0  0  0  0  0  0  0  0  0  # atno 11005 bound_to 11000
  145.5822  139.1489  143.3229 LP  0  0  0  0  0  0  0  0  0  0  0  0  # atno 17320 bound_to 7965
  146.2147  140.5951  142.9044 LP  0  0  0  0  0  0  0  0  0  0  0  0  # atno 17321 bound_to 7965
  139.4818  144.6019  151.7591 LP  0  0  0  0  0  0  0  0  0  0  0  0  # atno 17342 bound_to 10162
  140.5156  144.0958  150.6007 LP  0  0  0  0  0  0  0  0  0  0  0  0  # atno 17343 bound_to 10162
  157.5030  131.0920  151.0291 LP  0  0  0  0  0  0  0  0  0  0  0  0  # atno 17370 bound_to 10713
  157.0667  130.5847  149.5395 LP  0  0  0  0  0  0  0  0  0  0  0  0  # atno 17371 bound_to 10713
  140.2826  134.3333  155.7338 LP  0  0  0  0  0  0  0  0  0  0  0  0  # atno 17394 bound_to 11000
  141.2172  133.7487  156.9386 LP  0  0  0  0  0  0  0  0  0  0  0  0  # atno 17395 bound_to 11000

$$$$
