AV-unprocessed.smi:137|AV-procd|sdf|1176|dock8
  -GOLD-   2262018323D 1   1.00000     0.00000
 Structure written by MMmdl.
 51 54  0  0  0  0  0  0  0  0  1 V2000
  151.5240  126.2635  155.4408 C   0  0  0  0  0  0  0  0  0  0  0  0
  151.7674  127.7337  155.0673 C   0  0  1  0  0  0  0  0  0  0  0  0
  150.7278  128.6303  155.7779 C   0  0  0  0  0  0  0  0  0  0  0  0
  150.5654  129.9287  155.1240 N   0  0  0  0  0  0  0  0  0  0  0  0
  149.4289  130.1556  154.4025 C   0  0  0  0  0  0  0  0  0  0  0  0
  148.6437  129.0942  154.0713 N   0  0  0  0  0  0  0  0  0  0  0  0
  147.5274  129.2612  153.3582 C   0  0  0  0  0  0  0  0  0  0  0  0
  147.0056  130.3907  152.8818 N   0  0  0  0  0  0  0  0  0  0  0  0
  147.7730  131.4666  153.2149 C   0  0  0  0  0  0  0  0  0  0  0  0
  148.9899  131.4414  153.9584 C   0  0  0  0  0  0  0  0  0  0  0  0
  149.4780  132.7382  154.0832 N   0  0  0  0  0  0  0  0  0  0  0  0
  148.6154  133.4778  153.4432 C   0  0  0  0  0  0  0  0  0  0  0  0
  147.5423  132.7982  152.9162 N   0  0  0  0  0  0  0  0  0  0  0  0
  146.4717  133.3521  152.1399 C   0  0  0  0  0  0  0  0  0  0  0  0
  145.0153  133.2386  152.5972 C   0  0  0  0  0  0  0  0  0  0  0  0
  144.5655  133.1749  151.1194 C   0  0  0  0  0  0  0  0  0  0  0  0
  143.4559  132.1576  150.8064 C   0  0  0  0  0  0  0  0  0  0  0  0
  143.1529  132.1378  149.4261 O   0  0  0  0  0  0  0  0  0  0  0  0
  144.2031  134.5313  150.4812 C   0  0  0  0  0  0  0  0  0  0  0  0
  144.0997  134.4288  149.0756 O   0  0  0  0  0  0  0  0  0  0  0  0
  146.0038  132.6838  150.8447 C   0  0  0  0  0  0  0  0  0  0  0  0
  151.3362  131.0870  155.5887 C   0  0  0  0  0  0  0  0  0  0  0  0
  152.7729  130.7737  156.0371 C   0  0  0  0  0  0  0  0  0  0  0  0
  153.6391  129.7959  154.7186 S   0  0  1  0  0  0  0  0  0  0  0  0
  155.1407  130.0068  154.9202 O   0  0  0  0  0  0  0  0  0  0  0  0
  153.2330  128.1055  155.3747 C   0  0  0  0  0  0  0  0  0  0  0  0
  151.6544  126.1000  156.5111 H   0  0  0  0  0  0  0  0  0  0  0  0
  152.2144  125.6029  154.9158 H   0  0  0  0  0  0  0  0  0  0  0  0
  150.5129  125.9517  155.1771 H   0  0  0  0  0  0  0  0  0  0  0  0
  151.6212  127.8137  153.9896 H   0  0  0  0  0  0  0  0  0  0  0  0
  149.7630  128.1251  155.8269 H   0  0  0  0  0  0  0  0  0  0  0  0
  151.0123  128.7767  156.8200 H   0  0  0  0  0  0  0  0  0  0  0  0
  146.9725  128.3609  153.1393 H   0  0  0  0  0  0  0  0  0  0  0  0
  148.7371  134.5469  153.3459 H   0  0  0  0  0  0  0  0  0  0  0  0
  146.7394  134.3949  151.9615 H   0  0  0  0  0  0  0  0  0  0  0  0
  144.8201  132.3123  153.1412 H   0  0  0  0  0  0  0  0  0  0  0  0
  144.6513  134.1010  153.1565 H   0  0  0  0  0  0  0  0  0  0  0  0
  143.7622  131.1512  151.0928 H   0  0  0  0  0  0  0  0  0  0  0  0
  142.5455  132.3700  151.3672 H   0  0  0  0  0  0  0  0  0  0  0  0
  142.4969  132.7959  149.2530 H   0  0  0  0  0  0  0  0  0  0  0  0
  143.2506  134.9036  150.8582 H   0  0  0  0  0  0  0  0  0  0  0  0
  144.9411  135.2965  150.7231 H   0  0  0  0  0  0  0  0  0  0  0  0
  144.9319  134.6663  148.6960 H   0  0  0  0  0  0  0  0  0  0  0  0
  146.4595  133.0842  149.9388 H   0  0  0  0  0  0  0  0  0  0  0  0
  146.0968  131.5966  150.8798 H   0  0  0  0  0  0  0  0  0  0  0  0
  151.3954  131.8149  154.7781 H   0  0  0  0  0  0  0  0  0  0  0  0
  150.7982  131.5698  156.4054 H   0  0  0  0  0  0  0  0  0  0  0  0
  153.3102  131.7106  156.1832 H   0  0  0  0  0  0  0  0  0  0  0  0
  152.8034  130.2451  156.9896 H   0  0  0  0  0  0  0  0  0  0  0  0
  153.4529  128.0494  156.4410 H   0  0  0  0  0  0  0  0  0  0  0  0
  153.8981  127.3990  154.8775 H   0  0  0  0  0  0  0  0  0  0  0  0
  1  2  1  0  0  0  0
  1 27  1  0  0  0  0
  1 28  1  0  0  0  0
  1 29  1  0  0  0  0
  2 26  1  0  0  0  0
  2  3  1  0  0  0  0
  2 30  1  0  0  0  0
  3  4  1  0  0  0  0
  3 31  1  0  0  0  0
  3 32  1  0  0  0  0
  4  5  1  0  0  0  0
  4 22  1  0  0  0  0
  5 10  1  0  0  0  0
  5  6  2  0  0  0  0
  6  7  1  0  0  0  0
  7  8  2  0  0  0  0
  7 33  1  0  0  0  0
  8  9  1  0  0  0  0
  9 13  1  0  0  0  0
  9 10  2  0  0  0  0
 10 11  1  0  0  0  0
 11 12  2  0  0  0  0
 12 13  1  0  0  0  0
 12 34  1  0  0  0  0
 13 14  1  0  0  0  0
 14 21  1  0  0  0  0
 14 15  1  0  0  0  0
 14 35  1  0  0  0  0
 15 16  1  0  0  0  0
 15 36  1  0  0  0  0
 15 37  1  0  0  0  0
 16 17  1  0  0  0  0
 16 19  1  0  0  0  0
 16 21  1  0  0  0  0
 17 18  1  0  0  0  0
 17 38  1  0  0  0  0
 17 39  1  0  0  0  0
 18 40  1  0  0  0  0
 19 20  1  0  0  0  0
 19 41  1  0  0  0  0
 19 42  1  0  0  0  0
 20 43  1  0  0  0  0
 21 44  1  0  0  0  0
 21 45  1  0  0  0  0
 22 23  1  0  0  0  0
 22 46  1  0  0  0  0
 22 47  1  0  0  0  0
 23 24  1  0  0  0  0
 23 48  1  0  0  0  0
 23 49  1  0  0  0  0
 24 25  2  0  0  0  0
 24 26  1  0  0  0  0
 26 50  1  0  0  0  0
 26 51  1  0  0  0  0
M  END
> <s_m_source_file>
AV-unprocessed.smi

> <i_m_source_file_index>
137

> <i_lp_mmshare_version>
43012

> <i_f3d_flags>
0

> <s_epik_input>
Tz1bU0BAXShbQ0gyXTEpW0NIMl1bQ0gyXU4oW0NIMl1bQ0BIXTFbQ0gzXSljKG5bY0hdbjIpYyhjMjMpbltjSF1uM1tDSF0oW0NIMl00KVtDSDJdQzQoW0NIMl1bT0hdKVtDSDJdW09IXQ==

> <s_epik_cmdline>
J2VwaWtfcHl0aG9uJywgJy1waCcsICc3LjAnLCAnLXRuJywgJzgnLCAnLW1hJywgJzIwMCcsICctbWV0YWxfYmluZGluZycsICctaW1hZScsICc8aW5maWxlLm1hZT4nLCAnLW9tYWUnLCAnPG91dGZpbGUubWFlPic=

> <r_lp_tautomer_probability>
1

> <r_epik_Ionization_Penalty>
0.000811024

> <r_epik_Ionization_Penalty_Charging>
0

> <r_epik_Ionization_Penalty_Neutral>
0.000811024

> <r_epik_State_Penalty>
0.000429598

> <r_epik_Charging_Adjusted_Penalty>
0.000429598

> <i_epik_Tot_Q>
0

> <i_epik_Tot_abs_Q>
0

> <r_epik_Metal_State_Penalty>
-0

> <b_epik_Metal_Only>
0

> <s_lp_Force_Field>
OPLS_2005

> <r_lp_Energy>
40.014

> <b_lp_Chiralities_Consistent>
1

> <s_lp_Variant>
AV-unprocessed.smi:137-2

> <Gold.Version>
5.8.1

> <Gold.Id.Protein>
6NUR|6NUR_protein|mol2

> <Gold.PLP.Fitness>
53.5518

> <Gold.PLP.PLP>
-43.9541

> <Gold.PLP.part.hbond>
-4.2190

> <Gold.PLP.part.metal>
0.0000

> <Gold.PLP.part.buried>
-6.8779

> <Gold.PLP.part.nonpolar>
-34.6000

> <Gold.PLP.part.repulsive>
0.3251

> <Gold.PLP.ligand.clash>
0.0000

> <Gold.PLP.ligand.torsion>
0.4595

> <Gold.PLP.Chemscore.Hbond>
2.3650

> <Gold.PLP.Chemscore.CHOScore>
0.9447

> <Gold.PLP.Chemscore.Metal>
0.0000

> <Gold.Chemscore.Hbonds>
donor molecule, donor type, donor heavy atom, donor atom, acceptor molecule, acceptor atom, score
      L1  H    18    40       P1 10186  0.54
      L1  H    20    43       P1  7921  1.00
      P1  H 10785 10796       L1    18  0.80
      L1  C    12    34       P1  7948  0.99

> <Gold.PLP.Chemscore.Internal.Correction>
0.5875

> <Gold.Rescore>
     Score         DG    S(hbond)    S(metal)    S(lipo)     H(rot)  DE(clash)    DE(int)     intcor
     12.63     -14.35       2.46        0.00      68.60       2.87       0.05       1.68       ----

> <Gold.Chemscore.Fitness>
12.6273

> <Gold.Chemscore.DG>
-14.3545

> <Gold.Chemscore.ZeroCoef>
-5.4800

> <Gold.Chemscore.Hbond>
2.4555

> <Gold.Chemscore.Metal>
0.0000

> <Gold.Chemscore.Lipo>
68.6035

> <Gold.Chemscore.Internal_Hbond>
0.0000

> <Gold.Chemscore.DEClash>
0.0491

> <Gold.Chemscore.DEInternal>
1.6781

> <Gold.Chemscore.Rot>
2.8725

> <Gold.Chemscore.Internal.Correction>
   9.000000E+99

> <Gold.Chemscore.Hbonds>
donor molecule, donor type, donor heavy atom, donor atom, acceptor molecule, acceptor atom, score
      L1  H    18    40       P1 10186  0.54
      L1  H    20    43       P1  7921  0.98
      P1  H 10785 10796       L1    18  0.55

> <Gold.Chemscore.Hbond.Weighted>
-8.2014

> <Gold.Chemscore.Metal.Weighted>
-0.0000

> <Gold.Chemscore.Lipo.Weighted>
-8.0266

> <Gold.Chemscore.Internal_Hbond.Weighted>
0.0000

> <Gold.Chemscore.DEClash.Weighted>
0.0491

> <Gold.Chemscore.DEInternal.Weighted>
1.6781

> <Gold.Chemscore.Rot.Weighted>
7.3535

> <Gold.Chemscore.Internal.Correction.Weighted>
   9.000000E+99

> <Gold.Protein.RotatedTorsions>
[ 6907 6896 6895 6894 ] final -124.30 input  -60.11 | X-H torsion
[ 7974 7965 7964 7962 ] final  -38.35 input  175.53 | X-H torsion
[ 8008 7997 7996 7995 ] final  169.11 input   59.86 | X-H torsion
[ 10167 10162 10161 10158 ] final -148.85 input  -65.29 | X-H torsion
[ 10718 10713 10712 10709 ] final -135.21 input   66.30 | X-H torsion
[ 10763 10752 10751 10750 ] final   93.04 input  -60.55 | X-H torsion
[ 11005 11000 10999 10996 ] final -158.64 input  -57.11 | X-H torsion

> <Gold.Protein.ActiveResidues>
 VAL166  LYS551  ARG553  GLY616  TRP617  ASP618  TYR619  PRO620  LYS621  CYS622 
 ASP623  PHE694  ASN695  SER759  ASP760  ASP761  ALA762  ILE779  LEU786  VAL792 
 PHE793  MET794  SER795  GLU796  ALA797  LYS798  CYS799  TRP800  GLU811  SER814 

> <Gold.Protein.RotatedAtoms>
  150.8754  133.7446  159.2947 H   0  0  0  0  0  0  0  0  0  0  0  0  # atno 6907 bound_to 6896
  151.5044  135.1061  159.9847 H   0  0  0  0  0  0  0  0  0  0  0  0  # atno 6908 bound_to 6896
  152.4724  133.8015  159.7011 H   0  0  0  0  0  0  0  0  0  0  0  0  # atno 6909 bound_to 6896
  146.0494  140.6501  142.9049 H   0  0  0  0  0  0  0  0  0  0  0  0  # atno 7974 bound_to 7965
  156.1486  140.1572  156.8806 H   0  0  0  0  0  0  0  0  0  0  0  0  # atno 8008 bound_to 7997
  154.5051  140.0815  156.7915 H   0  0  0  0  0  0  0  0  0  0  0  0  # atno 8009 bound_to 7997
  155.3939  140.3411  155.4255 H   0  0  0  0  0  0  0  0  0  0  0  0  # atno 8010 bound_to 7997
  139.7495  143.8540  152.2583 H   0  0  0  0  0  0  0  0  0  0  0  0  # atno 10167 bound_to 10162
  156.2637  130.7225  151.1168 H   0  0  0  0  0  0  0  0  0  0  0  0  # atno 10718 bound_to 10713
  153.2259  135.4339  155.0541 H   0  0  0  0  0  0  0  0  0  0  0  0  # atno 10763 bound_to 10752
  154.8273  135.3367  154.6859 H   0  0  0  0  0  0  0  0  0  0  0  0  # atno 10764 bound_to 10752
  153.7288  135.7012  153.5050 H   0  0  0  0  0  0  0  0  0  0  0  0  # atno 10765 bound_to 10752
  140.6514  134.4447  157.5235 H   0  0  0  0  0  0  0  0  0  0  0  0  # atno 11005 bound_to 11000
  144.7115  140.4055  143.7077 LP  0  0  0  0  0  0  0  0  0  0  0  0  # atno 17320 bound_to 7965
  145.6750  139.1607  143.2733 LP  0  0  0  0  0  0  0  0  0  0  0  0  # atno 17321 bound_to 7965
  139.8514  144.7162  150.9210 LP  0  0  0  0  0  0  0  0  0  0  0  0  # atno 17342 bound_to 10162
  140.7796  143.3896  151.1333 LP  0  0  0  0  0  0  0  0  0  0  0  0  # atno 17343 bound_to 10162
  157.7260  131.0649  150.5930 LP  0  0  0  0  0  0  0  0  0  0  0  0  # atno 17370 bound_to 10713
  156.6020  130.4357  149.5893 LP  0  0  0  0  0  0  0  0  0  0  0  0  # atno 17371 bound_to 10713
  139.9044  134.8481  156.1763 LP  0  0  0  0  0  0  0  0  0  0  0  0  # atno 17394 bound_to 11000
  141.0534  133.6877  156.1814 LP  0  0  0  0  0  0  0  0  0  0  0  0  # atno 17395 bound_to 11000

$$$$
