AV-unprocessed.smi:2824|AV-procd|sdf|10887|dock6
  -GOLD-   2272015333D 1   1.00000     0.00000
 Structure written by MMmdl.
 38 39  0  0  0  0  0  0  0  0  1 V2000
  153.4522  141.9216  160.8727 C   0  0  0  0  0  0  0  0  0  0  0  0
  152.6630  142.6782  159.8206 C   0  0  0  0  0  0  0  0  0  0  0  0
  152.6893  144.0888  159.8107 C   0  0  0  0  0  0  0  0  0  0  0  0
  151.9641  144.8049  158.8414 C   0  0  0  0  0  0  0  0  0  0  0  0
  151.2109  144.1112  157.8777 C   0  0  0  0  0  0  0  0  0  0  0  0
  151.1816  142.7035  157.8828 C   0  0  0  0  0  0  0  0  0  0  0  0
  151.9080  141.9703  158.8559 C   0  0  0  0  0  0  0  0  0  0  0  0
  151.9265  140.5921  158.9208 O   0  0  0  0  0  0  0  0  0  0  0  0
  151.2804  139.8543  157.8919 C   0  0  0  0  0  0  0  0  0  0  0  0
  150.9498  138.4495  158.4233 C   0  0  1  0  0  0  0  0  0  0  0  0
  151.9505  138.1097  159.3638 O   0  0  0  0  0  0  0  0  0  0  0  0
  149.5858  138.4161  159.1476 C   0  0  0  0  0  0  0  0  0  0  0  0
  149.2406  137.0673  159.6128 N   0  0  0  0  0  0  0  0  0  0  0  0
  148.9367  136.9985  160.9612 N   0  0  0  0  0  0  0  0  0  0  0  0
  148.6254  135.8757  161.5245 C   0  0  0  0  0  0  0  0  0  0  0  0
  148.3190  135.9013  163.0016 C   0  0  0  0  0  0  0  0  0  0  0  0
  147.2741  136.6873  163.2621 F   0  0  0  0  0  0  0  0  0  0  0  0
  148.0409  134.6705  163.4326 F   0  0  0  0  0  0  0  0  0  0  0  0
  149.3723  136.3582  163.6800 F   0  0  0  0  0  0  0  0  0  0  0  0
  148.5881  134.6675  160.7172 C   0  0  0  0  0  0  0  0  0  0  0  0
  148.8835  134.7375  159.4015 C   0  0  0  0  0  0  0  0  0  0  0  0
  149.2426  136.0004  158.7610 C   0  0  0  0  0  0  0  0  0  0  0  0
  149.5249  136.0956  157.5669 O   0  0  0  0  0  0  0  0  0  0  0  0
  153.9423  142.6010  161.5705 H   0  0  0  0  0  0  0  0  0  0  0  0
  154.2197  141.3079  160.4005 H   0  0  0  0  0  0  0  0  0  0  0  0
  152.7932  141.2676  161.4445 H   0  0  0  0  0  0  0  0  0  0  0  0
  153.2666  144.6284  160.5471 H   0  0  0  0  0  0  0  0  0  0  0  0
  151.9867  145.8847  158.8368 H   0  0  0  0  0  0  0  0  0  0  0  0
  150.6543  144.6590  157.1315 H   0  0  0  0  0  0  0  0  0  0  0  0
  150.5926  142.2094  157.1255 H   0  0  0  0  0  0  0  0  0  0  0  0
  150.3795  140.3582  157.5366 H   0  0  0  0  0  0  0  0  0  0  0  0
  151.9705  139.7708  157.0507 H   0  0  0  0  0  0  0  0  0  0  0  0
  150.9592  137.7378  157.5967 H   0  0  0  0  0  0  0  0  0  0  0  0
  152.7488  137.9152  158.8971 H   0  0  0  0  0  0  0  0  0  0  0  0
  149.5734  139.1294  159.9744 H   0  0  0  0  0  0  0  0  0  0  0  0
  148.7990  138.7594  158.4734 H   0  0  0  0  0  0  0  0  0  0  0  0
  148.3261  133.7227  161.1696 H   0  0  0  0  0  0  0  0  0  0  0  0
  148.8544  133.8373  158.8054 H   0  0  0  0  0  0  0  0  0  0  0  0
  1  2  1  0  0  0  0
  1 24  1  0  0  0  0
  1 25  1  0  0  0  0
  1 26  1  0  0  0  0
  2  7  1  0  0  0  0
  2  3  2  0  0  0  0
  3  4  1  0  0  0  0
  3 27  1  0  0  0  0
  4  5  2  0  0  0  0
  4 28  1  0  0  0  0
  5  6  1  0  0  0  0
  5 29  1  0  0  0  0
  6  7  2  0  0  0  0
  6 30  1  0  0  0  0
  7  8  1  0  0  0  0
  8  9  1  0  0  0  0
  9 10  1  0  0  0  0
  9 31  1  0  0  0  0
  9 32  1  0  0  0  0
 10 11  1  0  0  0  0
 10 12  1  0  0  0  0
 10 33  1  0  0  0  0
 11 34  1  0  0  0  0
 12 13  1  0  0  0  0
 12 35  1  0  0  0  0
 12 36  1  0  0  0  0
 13 22  1  0  0  0  0
 13 14  1  0  0  0  0
 14 15  2  0  0  0  0
 15 16  1  0  0  0  0
 15 20  1  0  0  0  0
 16 17  1  0  0  0  0
 16 18  1  0  0  0  0
 16 19  1  0  0  0  0
 20 21  2  0  0  0  0
 20 37  1  0  0  0  0
 21 22  1  0  0  0  0
 21 38  1  0  0  0  0
 22 23  2  0  0  0  0
M  END
> <s_m_source_file>
AV-unprocessed.smi

> <i_m_source_file_index>
2824

> <i_lp_mmshare_version>
43012

> <i_f3d_flags>
0

> <s_epik_input>
W0NIM11jMVtjSF1bY0hdW2NIXVtjSF1jMU9bQ0gyXVtDQEhdKFtPSF0pW0NIMl1uMm5jKEMoRikoRilGKVtjSF1bY0hdYzI9Tw==

> <s_epik_cmdline>
J2VwaWtfcHl0aG9uJywgJy1waCcsICc3LjAnLCAnLXRuJywgJzgnLCAnLW1hJywgJzIwMCcsICctbWV0YWxfYmluZGluZycsICctaW1hZScsICc8aW5maWxlLm1hZT4nLCAnLW9tYWUnLCAnPG91dGZpbGUubWFlPic=

> <r_lp_tautomer_probability>
1

> <r_epik_Ionization_Penalty>
1.2156e-07

> <r_epik_Ionization_Penalty_Charging>
4.38548e-09

> <r_epik_Ionization_Penalty_Neutral>
1.17174e-07

> <r_epik_State_Penalty>
-0

> <r_epik_Charging_Adjusted_Penalty>
4.38548e-09

> <i_epik_Tot_Q>
0

> <i_epik_Tot_abs_Q>
0

> <r_epik_Metal_State_Penalty>
-0

> <b_epik_Metal_Only>
0

> <s_lp_Force_Field>
OPLS_2005

> <r_lp_Energy>
34.0789

> <b_lp_Chiralities_Consistent>
1

> <s_lp_Variant>
AV-unprocessed.smi:2824-2

> <Gold.Version>
5.8.1

> <Gold.Id.Protein>
6NUR|6NUR_protein|mol2

> <Gold.PLP.Fitness>
52.0617

> <Gold.PLP.PLP>
-49.8955

> <Gold.PLP.part.hbond>
-2.0000

> <Gold.PLP.part.metal>
0.0000

> <Gold.PLP.part.buried>
-4.2040

> <Gold.PLP.part.nonpolar>
-44.1703

> <Gold.PLP.part.repulsive>
0.0000

> <Gold.PLP.ligand.clash>
0.0000

> <Gold.PLP.ligand.torsion>
0.5259

> <Gold.PLP.Chemscore.Hbond>
1.0611

> <Gold.PLP.Chemscore.CHOScore>
0.0000

> <Gold.PLP.Chemscore.Metal>
0.0000

> <Gold.Chemscore.Hbonds>
donor molecule, donor type, donor heavy atom, donor atom, acceptor molecule, acceptor atom, score
      P1  H  6931  6943       L1    14  0.91

> <Gold.PLP.Chemscore.Internal.Correction>
0.0348

> <Gold.Rescore>
     Score         DG    S(hbond)    S(metal)    S(lipo)     H(rot)  DE(clash)    DE(int)     intcor
     13.72     -15.68       1.02        0.00     114.76       2.60       0.02       1.93       ----

> <Gold.Chemscore.Fitness>
13.7184

> <Gold.Chemscore.DG>
-15.6751

> <Gold.Chemscore.ZeroCoef>
-5.4800

> <Gold.Chemscore.Hbond>
1.0235

> <Gold.Chemscore.Metal>
0.0000

> <Gold.Chemscore.Lipo>
114.7613

> <Gold.Chemscore.Internal_Hbond>
0.0000

> <Gold.Chemscore.DEClash>
0.0229

> <Gold.Chemscore.DEInternal>
1.9337

> <Gold.Chemscore.Rot>
2.5978

> <Gold.Chemscore.Internal.Correction>
   9.000000E+99

> <Gold.Chemscore.Hbonds>
donor molecule, donor type, donor heavy atom, donor atom, acceptor molecule, acceptor atom, score
      P1  H  6931  6943       L1    14  0.80

> <Gold.Chemscore.Hbond.Weighted>
-3.4184

> <Gold.Chemscore.Metal.Weighted>
-0.0000

> <Gold.Chemscore.Lipo.Weighted>
-13.4271

> <Gold.Chemscore.Internal_Hbond.Weighted>
0.0000

> <Gold.Chemscore.DEClash.Weighted>
0.0229

> <Gold.Chemscore.DEInternal.Weighted>
1.9337

> <Gold.Chemscore.Rot.Weighted>
6.6504

> <Gold.Chemscore.Internal.Correction.Weighted>
   9.000000E+99

> <Gold.Protein.RotatedTorsions>
[ 6907 6896 6895 6894 ] final  -54.64 input  -60.11 | X-H torsion
[ 7974 7965 7964 7962 ] final -139.90 input  175.53 | X-H torsion
[ 8008 7997 7996 7995 ] final   -3.77 input   59.86 | X-H torsion
[ 10167 10162 10161 10158 ] final   52.34 input  -65.29 | X-H torsion
[ 10718 10713 10712 10709 ] final   74.52 input   66.30 | X-H torsion
[ 10763 10752 10751 10750 ] final -114.11 input  -60.55 | X-H torsion
[ 11005 11000 10999 10996 ] final  112.48 input  -57.11 | X-H torsion

> <Gold.Protein.ActiveResidues>
 VAL166  LYS551  ARG553  GLY616  TRP617  ASP618  TYR619  PRO620  LYS621  CYS622 
 ASP623  PHE694  ASN695  SER759  ASP760  ASP761  ALA762  ILE779  LEU786  VAL792 
 PHE793  MET794  SER795  GLU796  ALA797  LYS798  CYS799  TRP800  GLU811  SER814 

> <Gold.Protein.RotatedAtoms>
  150.8320  134.7578  159.6861 H   0  0  0  0  0  0  0  0  0  0  0  0  # atno 6907 bound_to 6896
  152.4423  134.5562  159.9891 H   0  0  0  0  0  0  0  0  0  0  0  0  # atno 6908 bound_to 6896
  151.5721  133.3351  159.3027 H   0  0  0  0  0  0  0  0  0  0  0  0  # atno 6909 bound_to 6896
  144.8639  140.6263  143.5310 H   0  0  0  0  0  0  0  0  0  0  0  0  # atno 7974 bound_to 7965
  154.6214  140.2501  155.7545 H   0  0  0  0  0  0  0  0  0  0  0  0  # atno 8008 bound_to 7997
  156.2428  140.2926  156.0442 H   0  0  0  0  0  0  0  0  0  0  0  0  # atno 8009 bound_to 7997
  155.1891  140.0391  157.2887 H   0  0  0  0  0  0  0  0  0  0  0  0  # atno 8010 bound_to 7997
  140.2524  144.3464  150.6344 H   0  0  0  0  0  0  0  0  0  0  0  0  # atno 10167 bound_to 10162
  157.6596  130.9682  150.1223 H   0  0  0  0  0  0  0  0  0  0  0  0  # atno 10718 bound_to 10713
  154.8426  135.4430  154.1454 H   0  0  0  0  0  0  0  0  0  0  0  0  # atno 10763 bound_to 10752
  153.2628  135.6938  153.7566 H   0  0  0  0  0  0  0  0  0  0  0  0  # atno 10764 bound_to 10752
  153.6836  135.3399  155.3160 H   0  0  0  0  0  0  0  0  0  0  0  0  # atno 10765 bound_to 10752
  139.8928  134.9531  156.6592 H   0  0  0  0  0  0  0  0  0  0  0  0  # atno 11005 bound_to 11000
  145.4258  139.1556  143.4049 LP  0  0  0  0  0  0  0  0  0  0  0  0  # atno 17320 bound_to 7965
  146.2881  140.4371  142.8750 LP  0  0  0  0  0  0  0  0  0  0  0  0  # atno 17321 bound_to 7965
  140.6030  143.2167  151.7036 LP  0  0  0  0  0  0  0  0  0  0  0  0  # atno 17342 bound_to 10162
  139.5042  144.3763  152.0420 LP  0  0  0  0  0  0  0  0  0  0  0  0  # atno 17343 bound_to 10162
  156.2091  130.3665  149.8692 LP  0  0  0  0  0  0  0  0  0  0  0  0  # atno 17370 bound_to 10713
  156.6576  130.8769  151.3542 LP  0  0  0  0  0  0  0  0  0  0  0  0  # atno 17371 bound_to 10713
  140.7460  133.8937  155.8312 LP  0  0  0  0  0  0  0  0  0  0  0  0  # atno 17394 bound_to 11000
  141.0039  134.1112  157.4289 LP  0  0  0  0  0  0  0  0  0  0  0  0  # atno 17395 bound_to 11000

$$$$
