AV-unprocessed.smi:2494|AV-procd|sdf|9821|dock8
  -GOLD-   2272013453D 1   1.00000     0.00000
 Structure written by MMmdl.
 30 31  0  0  0  0  0  0  0  0  1 V2000
  147.7874  140.6926  153.2041 O   0  0  0  0  0  0  0  0  0  0  0  0
  148.2090  141.6695  154.1314 C   0  0  0  0  0  0  0  0  0  0  0  0
  148.8772  140.9875  155.3367 C   0  0  0  0  0  0  0  0  0  0  0  0
  150.2067  140.2611  154.9980 C   0  0  2  0  0  0  0  0  0  0  0  0
  149.9193  138.8785  154.3609 C   0  0  0  0  0  0  0  0  0  0  0  0
  151.1249  138.1692  154.1085 O   0  0  0  0  0  0  0  0  0  0  0  0
  151.8380  137.9143  155.3082 C   0  0  0  0  0  0  0  0  0  0  0  0
  152.2389  139.2551  155.9336 C   0  0  0  0  0  0  0  0  0  0  0  0
  151.0677  140.0917  156.1799 N   0  0  0  0  0  0  0  0  0  0  0  0
  151.3529  141.1755  157.0008 C   0  0  0  0  0  0  0  0  0  0  0  0
  150.9846  142.3938  156.5811 N   0  0  0  0  0  0  0  0  0  0  0  0
  151.2962  143.4394  157.3772 C   0  0  0  0  0  0  0  0  0  0  0  0
  151.9872  143.2608  158.5920 C   0  0  0  0  0  0  0  0  0  0  0  0
  152.3896  144.5928  159.6116 Cl  0  0  0  0  0  0  0  0  0  0  0  0
  152.3348  141.9376  158.9288 C   0  0  0  0  0  0  0  0  0  0  0  0
  152.0195  140.8975  158.1267 N   0  0  0  0  0  0  0  0  0  0  0  0
  148.2991  140.7862  152.4149 H   0  0  0  0  0  0  0  0  0  0  0  0
  148.8953  142.3466  153.6242 H   0  0  0  0  0  0  0  0  0  0  0  0
  147.3441  142.2521  154.4499 H   0  0  0  0  0  0  0  0  0  0  0  0
  149.0466  141.7589  156.0870 H   0  0  0  0  0  0  0  0  0  0  0  0
  148.1802  140.2812  155.7901 H   0  0  0  0  0  0  0  0  0  0  0  0
  150.7601  140.8636  154.2761 H   0  0  0  0  0  0  0  0  0  0  0  0
  149.2679  138.2806  155.0009 H   0  0  0  0  0  0  0  0  0  0  0  0
  149.4058  138.9923  153.4071 H   0  0  0  0  0  0  0  0  0  0  0  0
  151.2325  137.3222  155.9966 H   0  0  0  0  0  0  0  0  0  0  0  0
  152.7266  137.3271  155.0761 H   0  0  0  0  0  0  0  0  0  0  0  0
  152.7764  139.0744  156.8654 H   0  0  0  0  0  0  0  0  0  0  0  0
  152.9227  139.7863  155.2699 H   0  0  0  0  0  0  0  0  0  0  0  0
  150.9951  144.4206  157.0410 H   0  0  0  0  0  0  0  0  0  0  0  0
  152.8681  141.7116  159.8403 H   0  0  0  0  0  0  0  0  0  0  0  0
  1  2  1  0  0  0  0
  1 17  1  0  0  0  0
  2  3  1  0  0  0  0
  2 18  1  0  0  0  0
  2 19  1  0  0  0  0
  3  4  1  0  0  0  0
  3 20  1  0  0  0  0
  3 21  1  0  0  0  0
  4  9  1  0  0  0  0
  4  5  1  0  0  0  0
  4 22  1  0  0  0  0
  5  6  1  0  0  0  0
  5 23  1  0  0  0  0
  5 24  1  0  0  0  0
  6  7  1  0  0  0  0
  7  8  1  0  0  0  0
  7 25  1  0  0  0  0
  7 26  1  0  0  0  0
  8  9  1  0  0  0  0
  8 27  1  0  0  0  0
  8 28  1  0  0  0  0
  9 10  1  0  0  0  0
 10 16  1  0  0  0  0
 10 11  2  0  0  0  0
 11 12  1  0  0  0  0
 12 13  2  0  0  0  0
 12 29  1  0  0  0  0
 13 14  1  0  0  0  0
 13 15  1  0  0  0  0
 15 16  2  0  0  0  0
 15 30  1  0  0  0  0
M  END
> <s_m_source_file>
AV-unprocessed.smi

> <i_m_source_file_index>
2494

> <i_lp_mmshare_version>
43012

> <i_f3d_flags>
0

> <s_epik_input>
W09IXVtDSDJdW0NIMl1bQ0BASF0xW0NIMl1PW0NIMl1bQ0gyXU4xYzJuW2NIXWMoQ2wpW2NIXW4y

> <s_epik_cmdline>
J2VwaWtfcHl0aG9uJywgJy1waCcsICc3LjAnLCAnLXRuJywgJzgnLCAnLW1hJywgJzIwMCcsICctbWV0YWxfYmluZGluZycsICctaW1hZScsICc8aW5maWxlLm1hZT4nLCAnLW9tYWUnLCAnPG91dGZpbGUubWFlPic=

> <r_lp_tautomer_probability>
1

> <r_epik_Ionization_Penalty>
3.66811e-07

> <r_epik_Ionization_Penalty_Charging>
0

> <r_epik_Ionization_Penalty_Neutral>
3.66811e-07

> <r_epik_State_Penalty>
-0

> <r_epik_Charging_Adjusted_Penalty>
0

> <i_epik_Tot_Q>
0

> <i_epik_Tot_abs_Q>
0

> <r_epik_Metal_State_Penalty>
-0

> <b_epik_Metal_Only>
0

> <s_lp_Force_Field>
OPLS_2005

> <r_lp_Energy>
15.3646

> <b_lp_Chiralities_Consistent>
1

> <s_lp_Variant>
AV-unprocessed.smi:2494-1

> <Gold.Version>
5.8.1

> <Gold.Id.Protein>
6NUR|6NUR_protein|mol2

> <Gold.PLP.Fitness>
36.8103

> <Gold.PLP.PLP>
-31.7359

> <Gold.PLP.part.hbond>
-1.0000

> <Gold.PLP.part.metal>
0.0000

> <Gold.PLP.part.buried>
-2.4763

> <Gold.PLP.part.nonpolar>
-27.5786

> <Gold.PLP.part.repulsive>
0.3275

> <Gold.PLP.ligand.clash>
0.0000

> <Gold.PLP.ligand.torsion>
0.3739

> <Gold.PLP.Chemscore.Hbond>
1.0000

> <Gold.PLP.Chemscore.CHOScore>
0.8357

> <Gold.PLP.Chemscore.Metal>
0.0000

> <Gold.Chemscore.Hbonds>
donor molecule, donor type, donor heavy atom, donor atom, acceptor molecule, acceptor atom, score
      L1  H     1    17       P1  7957  1.00
      L1  C    12    29       P1  8028  0.84

> <Gold.PLP.Chemscore.Internal.Correction>
0.3150

> <Gold.Rescore>
     Score         DG    S(hbond)    S(metal)    S(lipo)     H(rot)  DE(clash)    DE(int)     intcor
     11.78     -13.76       0.99        0.00      87.31       2.04       0.15       1.83       ----

> <Gold.Chemscore.Fitness>
11.7751

> <Gold.Chemscore.DG>
-13.7566

> <Gold.Chemscore.ZeroCoef>
-5.4800

> <Gold.Chemscore.Hbond>
0.9850

> <Gold.Chemscore.Metal>
0.0000

> <Gold.Chemscore.Lipo>
87.3074

> <Gold.Chemscore.Internal_Hbond>
0.0000

> <Gold.Chemscore.DEClash>
0.1544

> <Gold.Chemscore.DEInternal>
1.8271

> <Gold.Chemscore.Rot>
2.0424

> <Gold.Chemscore.Internal.Correction>
   9.000000E+99

> <Gold.Chemscore.Hbonds>
donor molecule, donor type, donor heavy atom, donor atom, acceptor molecule, acceptor atom, score
      L1  H     1    17       P1  7957  0.94

> <Gold.Chemscore.Hbond.Weighted>
-3.2901

> <Gold.Chemscore.Metal.Weighted>
-0.0000

> <Gold.Chemscore.Lipo.Weighted>
-10.2150

> <Gold.Chemscore.Internal_Hbond.Weighted>
0.0000

> <Gold.Chemscore.DEClash.Weighted>
0.1544

> <Gold.Chemscore.DEInternal.Weighted>
1.8271

> <Gold.Chemscore.Rot.Weighted>
5.2285

> <Gold.Chemscore.Internal.Correction.Weighted>
   9.000000E+99

> <Gold.Protein.RotatedTorsions>
[ 6907 6896 6895 6894 ] final    0.85 input  -60.11 | X-H torsion
[ 7974 7965 7964 7962 ] final   38.20 input  175.53 | X-H torsion
[ 8008 7997 7996 7995 ] final  -54.42 input   59.86 | X-H torsion
[ 10167 10162 10161 10158 ] final -159.01 input  -65.29 | X-H torsion
[ 10718 10713 10712 10709 ] final  -79.62 input   66.30 | X-H torsion
[ 10763 10752 10751 10750 ] final -103.08 input  -60.55 | X-H torsion
[ 11005 11000 10999 10996 ] final  -77.67 input  -57.11 | X-H torsion

> <Gold.Protein.ActiveResidues>
 VAL166  LYS551  ARG553  GLY616  TRP617  ASP618  TYR619  PRO620  LYS621  CYS622 
 ASP623  PHE694  ASN695  SER759  ASP760  ASP761  ALA762  ILE779  LEU786  VAL792 
 PHE793  MET794  SER795  GLU796  ALA797  LYS798  CYS799  TRP800  GLU811  SER814 

> <Gold.Protein.RotatedAtoms>
  151.5832  135.1057  160.0021 H   0  0  0  0  0  0  0  0  0  0  0  0  # atno 6907 bound_to 6896
  152.4344  133.7330  159.6608 H   0  0  0  0  0  0  0  0  0  0  0  0  # atno 6908 bound_to 6896
  150.8240  133.8134  159.3150 H   0  0  0  0  0  0  0  0  0  0  0  0  # atno 6909 bound_to 6896
  146.1080  139.5801  142.9371 H   0  0  0  0  0  0  0  0  0  0  0  0  # atno 7974 bound_to 7965
  154.4162  140.1176  156.5313 H   0  0  0  0  0  0  0  0  0  0  0  0  # atno 8008 bound_to 7997
  155.6602  140.3496  155.4761 H   0  0  0  0  0  0  0  0  0  0  0  0  # atno 8009 bound_to 7997
  155.9719  140.1143  157.0794 H   0  0  0  0  0  0  0  0  0  0  0  0  # atno 8010 bound_to 7997
  139.6647  143.9849  152.2248 H   0  0  0  0  0  0  0  0  0  0  0  0  # atno 10167 bound_to 10162
  156.0088  130.4551  150.3675 H   0  0  0  0  0  0  0  0  0  0  0  0  # atno 10718 bound_to 10713
  154.7781  135.4837  153.9787 H   0  0  0  0  0  0  0  0  0  0  0  0  # atno 10763 bound_to 10752
  153.1456  135.6781  153.8967 H   0  0  0  0  0  0  0  0  0  0  0  0  # atno 10764 bound_to 10752
  153.8627  135.3153  155.3417 H   0  0  0  0  0  0  0  0  0  0  0  0  # atno 10765 bound_to 10752
  141.1661  133.7032  156.7856 H   0  0  0  0  0  0  0  0  0  0  0  0  # atno 11005 bound_to 11000
  145.5722  141.0393  143.2168 LP  0  0  0  0  0  0  0  0  0  0  0  0  # atno 17320 bound_to 7965
  144.7487  139.7251  143.7282 LP  0  0  0  0  0  0  0  0  0  0  0  0  # atno 17321 bound_to 7965
  139.9598  144.6565  150.8090 LP  0  0  0  0  0  0  0  0  0  0  0  0  # atno 17342 bound_to 10162
  140.7594  143.3129  151.2801 LP  0  0  0  0  0  0  0  0  0  0  0  0  # atno 17343 bound_to 10162
  157.1761  131.0381  151.2771 LP  0  0  0  0  0  0  0  0  0  0  0  0  # atno 17370 bound_to 10713
  157.4186  130.7425  149.6895 LP  0  0  0  0  0  0  0  0  0  0  0  0  # atno 17371 bound_to 10713
  140.2362  134.8648  157.3528 LP  0  0  0  0  0  0  0  0  0  0  0  0  # atno 17394 bound_to 11000
  140.1841  134.4453  155.7754 LP  0  0  0  0  0  0  0  0  0  0  0  0  # atno 17395 bound_to 11000

$$$$
