AV-unprocessed.smi:3030|AV-procd|sdf|11538|dock6
  -GOLD-   2272016483D 1   1.00000     0.00000
 Structure written by MMmdl.
 52 53  0  0  0  0  0  0  0  0  1 V2000
  145.6794  143.2046  154.1023 C   0  0  0  0  0  0  0  0  0  0  0  0
  145.5311  141.7995  154.6963 C   0  0  0  0  0  0  0  0  0  0  0  0
  146.7677  141.0380  154.5957 N   0  0  0  0  0  0  0  0  0  0  0  0
  146.8030  139.7973  153.9675 C   0  0  0  0  0  0  0  0  0  0  0  0
  147.9001  139.0192  153.8952 C   0  0  0  0  0  0  0  0  0  0  0  0
  149.1578  139.4823  154.5157 C   0  0  0  0  0  0  0  0  0  0  0  0
  150.1792  138.7967  154.4678 O   0  0  0  0  0  0  0  0  0  0  0  0
  149.1192  140.8063  155.1920 C   0  0  0  0  0  0  0  0  0  0  0  0
  150.3229  141.2418  155.7703 N   0  0  0  0  0  0  0  0  0  0  0  0
  150.5467  141.7622  156.9907 C   0  0  0  0  0  0  0  0  0  0  0  0
  149.7030  141.9348  157.8698 O   0  0  0  0  0  0  0  0  0  0  0  0
  151.8415  142.0745  157.1415 N   0  0  0  0  0  0  0  0  0  0  0  0
  152.4417  142.6671  158.3353 C   0  0  1  0  0  0  0  0  0  0  0  0
  151.6543  143.9370  158.7181 C   0  0  0  0  0  0  0  0  0  0  0  0
  152.2048  144.5954  159.9949 C   0  0  1  0  0  0  0  0  0  0  0  0
  151.4124  145.8584  160.3618 C   0  0  0  0  0  0  0  0  0  0  0  0
  152.2151  143.5804  161.1501 C   0  0  0  0  0  0  0  0  0  0  0  0
  153.0141  142.3206  160.7841 C   0  0  0  0  0  0  0  0  0  0  0  0
  152.4714  141.6433  159.5033 C   0  0  2  0  0  0  0  0  0  0  0  0
  153.2003  140.3103  159.1552 C   0  0  0  0  0  0  0  0  0  0  0  0
  152.3000  139.0789  159.3552 C   0  0  0  0  0  0  0  0  0  0  0  0
  154.5471  140.1221  159.8779 C   0  0  0  0  0  0  0  0  0  0  0  0
  147.9455  141.4889  155.1883 C   0  0  0  0  0  0  0  0  0  0  0  0
  144.7453  143.7602  154.1847 H   0  0  0  0  0  0  0  0  0  0  0  0
  145.9483  143.1594  153.0465 H   0  0  0  0  0  0  0  0  0  0  0  0
  146.4519  143.7723  154.6218 H   0  0  0  0  0  0  0  0  0  0  0  0
  145.2308  141.8694  155.7425 H   0  0  0  0  0  0  0  0  0  0  0  0
  144.7308  141.2637  154.1846 H   0  0  0  0  0  0  0  0  0  0  0  0
  145.8651  139.4958  153.5239 H   0  0  0  0  0  0  0  0  0  0  0  0
  147.8811  138.0629  153.3935 H   0  0  0  0  0  0  0  0  0  0  0  0
  151.1318  141.1364  155.1753 H   0  0  0  0  0  0  0  0  0  0  0  0
  152.4635  141.8953  156.3669 H   0  0  0  0  0  0  0  0  0  0  0  0
  153.4679  142.9657  158.1164 H   0  0  0  0  0  0  0  0  0  0  0  0
  151.6900  144.6529  157.8954 H   0  0  0  0  0  0  0  0  0  0  0  0
  150.6018  143.6872  158.8612 H   0  0  0  0  0  0  0  0  0  0  0  0
  153.2351  144.8982  159.8017 H   0  0  0  0  0  0  0  0  0  0  0  0
  150.3665  145.6258  160.5649 H   0  0  0  0  0  0  0  0  0  0  0  0
  151.4396  146.5875  159.5516 H   0  0  0  0  0  0  0  0  0  0  0  0
  151.8256  146.3378  161.2496 H   0  0  0  0  0  0  0  0  0  0  0  0
  152.6435  144.0366  162.0432 H   0  0  0  0  0  0  0  0  0  0  0  0
  151.1924  143.3009  161.4076 H   0  0  0  0  0  0  0  0  0  0  0  0
  154.0614  142.5927  160.6512 H   0  0  0  0  0  0  0  0  0  0  0  0
  152.9789  141.6319  161.6273 H   0  0  0  0  0  0  0  0  0  0  0  0
  151.4323  141.3787  159.7074 H   0  0  0  0  0  0  0  0  0  0  0  0
  153.4231  140.3271  158.0883 H   0  0  0  0  0  0  0  0  0  0  0  0
  152.0939  138.8916  160.4089 H   0  0  0  0  0  0  0  0  0  0  0  0
  152.7746  138.1826  158.9548 H   0  0  0  0  0  0  0  0  0  0  0  0
  151.3455  139.1986  158.8419 H   0  0  0  0  0  0  0  0  0  0  0  0
  154.4221  140.0528  160.9582 H   0  0  0  0  0  0  0  0  0  0  0  0
  155.2361  140.9401  159.6700 H   0  0  0  0  0  0  0  0  0  0  0  0
  155.0359  139.2044  159.5497 H   0  0  0  0  0  0  0  0  0  0  0  0
  147.8288  142.4613  155.6388 H   0  0  0  0  0  0  0  0  0  0  0  0
  1  2  1  0  0  0  0
  1 24  1  0  0  0  0
  1 25  1  0  0  0  0
  1 26  1  0  0  0  0
  2  3  1  0  0  0  0
  2 27  1  0  0  0  0
  2 28  1  0  0  0  0
  3 23  1  0  0  0  0
  3  4  1  0  0  0  0
  4  5  2  0  0  0  0
  4 29  1  0  0  0  0
  5  6  1  0  0  0  0
  5 30  1  0  0  0  0
  6  7  2  0  0  0  0
  6  8  1  0  0  0  0
  8  9  1  0  0  0  0
  8 23  2  0  0  0  0
  9 10  1  0  0  0  0
  9 31  1  0  0  0  0
 10 11  2  0  0  0  0
 10 12  1  0  0  0  0
 12 13  1  0  0  0  0
 12 32  1  0  0  0  0
 13 19  1  0  0  0  0
 13 14  1  0  0  0  0
 13 33  1  0  0  0  0
 14 15  1  0  0  0  0
 14 34  1  0  0  0  0
 14 35  1  0  0  0  0
 15 16  1  0  0  0  0
 15 17  1  0  0  0  0
 15 36  1  0  0  0  0
 16 37  1  0  0  0  0
 16 38  1  0  0  0  0
 16 39  1  0  0  0  0
 17 18  1  0  0  0  0
 17 40  1  0  0  0  0
 17 41  1  0  0  0  0
 18 19  1  0  0  0  0
 18 42  1  0  0  0  0
 18 43  1  0  0  0  0
 19 20  1  0  0  0  0
 19 44  1  0  0  0  0
 20 21  1  0  0  0  0
 20 22  1  0  0  0  0
 20 45  1  0  0  0  0
 21 46  1  0  0  0  0
 21 47  1  0  0  0  0
 21 48  1  0  0  0  0
 22 49  1  0  0  0  0
 22 50  1  0  0  0  0
 22 51  1  0  0  0  0
 23 52  1  0  0  0  0
M  END
> <s_m_source_file>
AV-unprocessed.smi

> <i_m_source_file_index>
3030

> <i_lp_mmshare_version>
43012

> <i_f3d_flags>
0

> <s_epik_input>
W0NIM11bQ0gyXW4xW2NIXVtjSF1jKD1PKWMoW2NIXTEpW05IXUMoPU8pW05IXVtDQEBIXTJbQ0gyXVtDQEBIXShbQ0gzXSlbQ0gyXVtDSDJdW0NASF0yW0NIXShbQ0gzXSlbQ0gzXQ==

> <s_epik_cmdline>
J2VwaWtfcHl0aG9uJywgJy1waCcsICc3LjAnLCAnLXRuJywgJzgnLCAnLW1hJywgJzIwMCcsICctbWV0YWxfYmluZGluZycsICctaW1hZScsICc8aW5maWxlLm1hZT4nLCAnLW9tYWUnLCAnPG91dGZpbGUubWFlPic=

> <r_lp_tautomer_probability>
1

> <r_epik_Ionization_Penalty>
0.00147933

> <r_epik_Ionization_Penalty_Charging>
0.00145753

> <r_epik_Ionization_Penalty_Neutral>
2.17987e-05

> <r_epik_State_Penalty>
0.00097457

> <r_epik_Charging_Adjusted_Penalty>
0.0024321

> <i_epik_Tot_Q>
0

> <i_epik_Tot_abs_Q>
0

> <r_epik_Metal_State_Penalty>
-0

> <b_epik_Metal_Only>
0

> <s_lp_Force_Field>
OPLS_2005

> <r_lp_Energy>
9.50568

> <b_lp_Chiralities_Consistent>
1

> <s_lp_Variant>
AV-unprocessed.smi:3030-6

> <Gold.Version>
5.8.1

> <Gold.Id.Protein>
6NUR|6NUR_protein|mol2

> <Gold.PLP.Fitness>
46.2270

> <Gold.PLP.PLP>
-43.9027

> <Gold.PLP.part.hbond>
0.0000

> <Gold.PLP.part.metal>
0.0000

> <Gold.PLP.part.buried>
-0.0998

> <Gold.PLP.part.nonpolar>
-44.0378

> <Gold.PLP.part.repulsive>
0.5301

> <Gold.PLP.ligand.clash>
0.0000

> <Gold.PLP.ligand.torsion>
1.8724

> <Gold.PLP.Chemscore.Hbond>
0.0000

> <Gold.PLP.Chemscore.CHOScore>
2.0000

> <Gold.PLP.Chemscore.Metal>
0.0000

> <Gold.Chemscore.Hbonds>
donor molecule, donor type, donor heavy atom, donor atom, acceptor molecule, acceptor atom, score
      L1  C     4    29       P1 10175  0.79
      L1  C    23    52       P1  8028  1.00

> <Gold.PLP.Chemscore.Internal.Correction>
0.0691

> <Gold.Rescore>
     Score         DG    S(hbond)    S(metal)    S(lipo)     H(rot)  DE(clash)    DE(int)     intcor
     13.22     -17.40       0.00        0.00     129.59       1.27       1.34       2.84       ----

> <Gold.Chemscore.Fitness>
13.2160

> <Gold.Chemscore.DG>
-17.3952

> <Gold.Chemscore.ZeroCoef>
-5.4800

> <Gold.Chemscore.Hbond>
0.0000

> <Gold.Chemscore.Metal>
0.0000

> <Gold.Chemscore.Lipo>
129.5948

> <Gold.Chemscore.Internal_Hbond>
0.0000

> <Gold.Chemscore.DEClash>
1.3371

> <Gold.Chemscore.DEInternal>
2.8421

> <Gold.Chemscore.Rot>
1.2685

> <Gold.Chemscore.Internal.Correction>
   9.000000E+99

> <Gold.Chemscore.Hbond.Weighted>
-0.0000

> <Gold.Chemscore.Metal.Weighted>
-0.0000

> <Gold.Chemscore.Lipo.Weighted>
-15.1626

> <Gold.Chemscore.Internal_Hbond.Weighted>
0.0000

> <Gold.Chemscore.DEClash.Weighted>
1.3371

> <Gold.Chemscore.DEInternal.Weighted>
2.8421

> <Gold.Chemscore.Rot.Weighted>
3.2474

> <Gold.Chemscore.Internal.Correction.Weighted>
   9.000000E+99

> <Gold.Protein.RotatedTorsions>
[ 6907 6896 6895 6894 ] final   96.02 input  -60.11 | X-H torsion
[ 7974 7965 7964 7962 ] final -112.90 input  175.53 | X-H torsion
[ 8008 7997 7996 7995 ] final  -55.80 input   59.86 | X-H torsion
[ 10167 10162 10161 10158 ] final  -17.13 input  -65.29 | X-H torsion
[ 10718 10713 10712 10709 ] final  -89.09 input   66.30 | X-H torsion
[ 10763 10752 10751 10750 ] final   10.42 input  -60.55 | X-H torsion
[ 11005 11000 10999 10996 ] final   90.91 input  -57.11 | X-H torsion

> <Gold.Protein.ActiveResidues>
 VAL166  LYS551  ARG553  GLY616  TRP617  ASP618  TYR619  PRO620  LYS621  CYS622 
 ASP623  PHE694  ASN695  SER759  ASP760  ASP761  ALA762  ILE779  LEU786  VAL792 
 PHE793  MET794  SER795  GLU796  ALA797  LYS798  CYS799  TRP800  GLU811  SER814 

> <Gold.Protein.RotatedAtoms>
  152.5439  134.0951  159.8293 H   0  0  0  0  0  0  0  0  0  0  0  0  # atno 6907 bound_to 6896
  151.1035  133.5218  159.2616 H   0  0  0  0  0  0  0  0  0  0  0  0  # atno 6908 bound_to 6896
  151.1964  135.0433  159.8908 H   0  0  0  0  0  0  0  0  0  0  0  0  # atno 6909 bound_to 6896
  145.1385  140.8764  143.3716 H   0  0  0  0  0  0  0  0  0  0  0  0  # atno 7974 bound_to 7965
  154.4207  140.1144  156.5535 H   0  0  0  0  0  0  0  0  0  0  0  0  # atno 8008 bound_to 7997
  155.6385  140.3496  155.4688 H   0  0  0  0  0  0  0  0  0  0  0  0  # atno 8009 bound_to 7997
  155.9890  140.1175  157.0646 H   0  0  0  0  0  0  0  0  0  0  0  0  # atno 8010 bound_to 7997
  140.7243  143.5047  150.9825 H   0  0  0  0  0  0  0  0  0  0  0  0  # atno 10167 bound_to 10162
  155.9984  130.4859  150.5118 H   0  0  0  0  0  0  0  0  0  0  0  0  # atno 10718 bound_to 10713
  153.2034  135.6859  153.8203 H   0  0  0  0  0  0  0  0  0  0  0  0  # atno 10763 bound_to 10752
  153.7461  135.3231  155.3314 H   0  0  0  0  0  0  0  0  0  0  0  0  # atno 10764 bound_to 10752
  154.8184  135.4670  154.0810 H   0  0  0  0  0  0  0  0  0  0  0  0  # atno 10765 bound_to 10752
  139.8848  134.8642  156.3352 H   0  0  0  0  0  0  0  0  0  0  0  0  # atno 11005 bound_to 11000
  145.0558  139.3145  143.5905 LP  0  0  0  0  0  0  0  0  0  0  0  0  # atno 17320 bound_to 7965
  146.3507  139.9983  142.8678 LP  0  0  0  0  0  0  0  0  0  0  0  0  # atno 17321 bound_to 7965
  139.8758  143.7135  152.3162 LP  0  0  0  0  0  0  0  0  0  0  0  0  # atno 17342 bound_to 10162
  139.7399  144.7562  151.0668 LP  0  0  0  0  0  0  0  0  0  0  0  0  # atno 17343 bound_to 10162
  157.3090  131.0660  151.2014 LP  0  0  0  0  0  0  0  0  0  0  0  0  # atno 17370 bound_to 10713
  157.2967  130.6822  149.6142 LP  0  0  0  0  0  0  0  0  0  0  0  0  # atno 17371 bound_to 10713
  140.9696  133.7336  156.0515 LP  0  0  0  0  0  0  0  0  0  0  0  0  # atno 17394 bound_to 11000
  140.7888  134.3641  157.5470 LP  0  0  0  0  0  0  0  0  0  0  0  0  # atno 17395 bound_to 11000

$$$$
