AV-unprocessed.smi:2018|AV-procd|sdf|8170|dock4
  -GOLD-   2272010413D 1   1.00000     0.00000
 Structure written by MMmdl.
 34 35  0  0  0  0  0  0  0  0  2 V2000
  148.6891  144.8318  160.6692 C   0  0  0  0  0  0  0  0  0  0  0  0
  149.9391  144.3168  160.0426 C   0  0  0  0  0  0  0  0  0  0  0  0
  150.1094  143.0450  159.6776 N   0  0  0  0  0  0  0  0  0  0  0  0
  151.3580  142.8096  159.0847 C   0  0  0  0  0  0  0  0  0  0  0  0
  151.7167  141.4309  158.5843 C   0  0  0  0  0  0  0  0  0  0  0  0
  151.5579  141.2303  157.0593 C   0  0  0  0  0  0  0  0  0  0  0  0
  152.3481  140.0825  156.6138 N   0  5  0  0  0  0  0  0  0  0  0  0
  151.9216  139.1124  155.7526 C   0  0  0  0  0  0  0  0  0  0  0  0
  151.9695  139.1585  154.5174 O   0  0  0  0  0  0  0  0  0  0  0  0
  151.3212  137.8706  156.3232 C   0  0  0  0  0  0  0  0  0  0  0  0
  151.0598  136.8695  155.5414 N   0  0  0  0  0  0  0  0  0  0  0  0
  150.5425  135.6801  156.0086 N   0  0  0  0  0  0  0  0  0  0  0  0
  150.6012  134.5953  155.0292 C   0  0  0  0  0  0  0  0  0  0  0  0
  150.0097  135.5091  157.2455 C   0  0  0  0  0  0  0  0  0  0  0  0
  149.5679  134.4396  157.6661 O   0  0  0  0  0  0  0  0  0  0  0  0
  149.9443  136.7527  158.1367 C   0  0  0  0  0  0  0  0  0  0  0  0
  151.0631  137.7628  157.8145 C   0  0  0  0  0  0  0  0  0  0  0  0
  152.1478  143.9341  159.0433 C   0  0  0  0  0  0  0  0  0  0  0  0
  151.3396  145.3268  159.7096 S   0  0  0  0  0  0  0  0  0  0  0  0
  147.9422  144.0404  160.7432 H   0  0  0  0  0  0  0  0  0  0  0  0
  148.2786  145.6426  160.0674 H   0  0  0  0  0  0  0  0  0  0  0  0
  148.9016  145.2079  161.6699 H   0  0  0  0  0  0  0  0  0  0  0  0
  152.7506  141.2116  158.8522 H   0  0  0  0  0  0  0  0  0  0  0  0
  151.1216  140.6811  159.1076 H   0  0  0  0  0  0  0  0  0  0  0  0
  150.4975  141.1168  156.8289 H   0  0  0  0  0  0  0  0  0  0  0  0
  151.8738  142.1429  156.5527 H   0  0  0  0  0  0  0  0  0  0  0  0
  150.1518  133.6635  155.3743 H   0  0  0  0  0  0  0  0  0  0  0  0
  151.6395  134.3831  154.7707 H   0  0  0  0  0  0  0  0  0  0  0  0
  150.0833  134.8878  154.1151 H   0  0  0  0  0  0  0  0  0  0  0  0
  148.9719  137.2193  157.9755 H   0  0  0  0  0  0  0  0  0  0  0  0
  149.9846  136.4647  159.1877 H   0  0  0  0  0  0  0  0  0  0  0  0
  151.9854  137.4722  158.3184 H   0  0  0  0  0  0  0  0  0  0  0  0
  150.7769  138.7306  158.2278 H   0  0  0  0  0  0  0  0  0  0  0  0
  153.1485  144.0279  158.6487 H   0  0  0  0  0  0  0  0  0  0  0  0
  1  2  1  0  0  0  0
  1 20  1  0  0  0  0
  1 21  1  0  0  0  0
  1 22  1  0  0  0  0
  2 19  1  0  0  0  0
  2  3  2  0  0  0  0
  3  4  1  0  0  0  0
  4  5  1  0  0  0  0
  4 18  2  0  0  0  0
  5  6  1  0  0  0  0
  5 23  1  0  0  0  0
  5 24  1  0  0  0  0
  6  7  1  0  0  0  0
  6 25  1  0  0  0  0
  6 26  1  0  0  0  0
  7  8  1  0  0  0  0
  8  9  2  0  0  0  0
  8 10  1  0  0  0  0
 10 17  1  0  0  0  0
 10 11  2  0  0  0  0
 11 12  1  0  0  0  0
 12 13  1  0  0  0  0
 12 14  1  0  0  0  0
 13 27  1  0  0  0  0
 13 28  1  0  0  0  0
 13 29  1  0  0  0  0
 14 15  2  0  0  0  0
 14 16  1  0  0  0  0
 16 17  1  0  0  0  0
 16 30  1  0  0  0  0
 16 31  1  0  0  0  0
 17 32  1  0  0  0  0
 17 33  1  0  0  0  0
 18 19  1  0  0  0  0
 18 34  1  0  0  0  0
M  CHG  1   7  -1
M  END
> <s_m_source_file>
AV-unprocessed.smi

> <i_m_source_file_index>
2018

> <i_lp_mmshare_version>
43012

> <i_f3d_flags>
0

> <s_epik_input>
W0NIM11jMW5jKFtjSF1zMSlbQ0gyXVtDSDJdW05IXUMoPU8pQzI9Tk4oW0NIM10pQyg9TylbQ0gyXVtDSDJdMg==

> <s_epik_cmdline>
J2VwaWtfcHl0aG9uJywgJy1waCcsICc3LjAnLCAnLXRuJywgJzgnLCAnLW1hJywgJzIwMCcsICctbWV0YWxfYmluZGluZycsICctaW1hZScsICc8aW5maWxlLm1hZT4nLCAnLW9tYWUnLCAnPG91dGZpbGUubWFlPic=

> <r_epik_Ionization_Penalty>
5.30398

> <r_epik_Ionization_Penalty_Charging>
5.30014

> <r_epik_Ionization_Penalty_Neutral>
0.0038335

> <r_epik_State_Penalty>
5.30046

> <r_epik_Charging_Adjusted_Penalty>
10.6006

> <i_epik_Tot_Q>
-1

> <i_epik_Tot_abs_Q>
1

> <r_epik_Metal_State_Penalty>
1.34504

> <b_epik_Metal_Only>
1

> <s_epik_Chemistry_Notes>
This compound has an imine and may undergo hydrolysis.

> <s_lp_Force_Field>
OPLS_2005

> <r_lp_Energy>
22.7314

> <b_lp_Chiralities_Consistent>
1

> <s_lp_Variant>
AV-unprocessed.smi:2018-2

> <Gold.Version>
5.8.1

> <Gold.Id.Protein>
6NUR|6NUR_protein|mol2

> <Gold.PLP.Fitness>
41.3754

> <Gold.PLP.PLP>
-31.8590

> <Gold.PLP.part.hbond>
-4.0000

> <Gold.PLP.part.metal>
0.0000

> <Gold.PLP.part.buried>
-4.8520

> <Gold.PLP.part.nonpolar>
-23.4783

> <Gold.PLP.part.repulsive>
0.2461

> <Gold.PLP.ligand.clash>
0.0000

> <Gold.PLP.ligand.torsion>
1.2532

> <Gold.PLP.Chemscore.Hbond>
4.0000

> <Gold.PLP.Chemscore.CHOScore>
0.0000

> <Gold.PLP.Chemscore.Metal>
0.0000

> <Gold.Chemscore.Hbonds>
donor molecule, donor type, donor heavy atom, donor atom, acceptor molecule, acceptor atom, score
      P1  H  6896  6909       L1    15  0.99
      P1  H  7989  7998       L1     9  0.91
      P1  H  7997  8010       L1     7  2.00

> <Gold.PLP.Chemscore.Internal.Correction>
0.0227

> <Gold.Rescore>
     Score         DG    S(hbond)    S(metal)    S(lipo)     H(rot)  DE(clash)    DE(int)     intcor
     17.63     -19.44       2.37        0.00      82.67       1.42       0.51       1.30       ----

> <Gold.Chemscore.Fitness>
17.6296

> <Gold.Chemscore.DG>
-19.4408

> <Gold.Chemscore.ZeroCoef>
-5.4800

> <Gold.Chemscore.Hbond>
2.3705

> <Gold.Chemscore.Metal>
0.0000

> <Gold.Chemscore.Lipo>
82.6745

> <Gold.Chemscore.Internal_Hbond>
0.0000

> <Gold.Chemscore.DEClash>
0.5063

> <Gold.Chemscore.DEInternal>
1.3049

> <Gold.Chemscore.Rot>
1.4178

> <Gold.Chemscore.Internal.Correction>
   9.000000E+99

> <Gold.Chemscore.Hbonds>
donor molecule, donor type, donor heavy atom, donor atom, acceptor molecule, acceptor atom, score
      P1  H  6896  6909       L1    15  0.41
      P1  H  7989  7998       L1     9  0.84
      P1  H  7997  8010       L1     7  0.42

> <Gold.Chemscore.Hbond.Weighted>
-7.9174

> <Gold.Chemscore.Metal.Weighted>
-0.0000

> <Gold.Chemscore.Lipo.Weighted>
-9.6729

> <Gold.Chemscore.Internal_Hbond.Weighted>
0.0000

> <Gold.Chemscore.DEClash.Weighted>
0.5063

> <Gold.Chemscore.DEInternal.Weighted>
1.3049

> <Gold.Chemscore.Rot.Weighted>
3.6295

> <Gold.Chemscore.Internal.Correction.Weighted>
   9.000000E+99

> <Gold.Protein.RotatedTorsions>
[ 6907 6896 6895 6894 ] final   17.76 input  -60.11 | X-H torsion
[ 7974 7965 7964 7962 ] final -114.96 input  175.53 | X-H torsion
[ 8008 7997 7996 7995 ] final   77.59 input   59.86 | X-H torsion
[ 10167 10162 10161 10158 ] final  117.21 input  -65.29 | X-H torsion
[ 10718 10713 10712 10709 ] final -168.10 input   66.30 | X-H torsion
[ 10763 10752 10751 10750 ] final  -26.92 input  -60.55 | X-H torsion
[ 11005 11000 10999 10996 ] final   91.37 input  -57.11 | X-H torsion

> <Gold.Protein.ActiveResidues>
 VAL166  LYS551  ARG553  GLY616  TRP617  ASP618  TYR619  PRO620  LYS621  CYS622 
 ASP623  PHE694  ASN695  SER759  ASP760  ASP761  ALA762  ILE779  LEU786  VAL792 
 PHE793  MET794  SER795  GLU796  ALA797  LYS798  CYS799  TRP800  GLU811  SER814 

> <Gold.Protein.RotatedAtoms>
  151.8547  135.0545  160.0462 H   0  0  0  0  0  0  0  0  0  0  0  0  # atno 6907 bound_to 6896
  152.2709  133.5377  159.5447 H   0  0  0  0  0  0  0  0  0  0  0  0  # atno 6908 bound_to 6896
  150.7151  134.0614  159.3875 H   0  0  0  0  0  0  0  0  0  0  0  0  # atno 6909 bound_to 6896
  145.1141  140.8629  143.3853 H   0  0  0  0  0  0  0  0  0  0  0  0  # atno 7974 bound_to 7965
  155.8438  140.3461  155.5649 H   0  0  0  0  0  0  0  0  0  0  0  0  # atno 8008 bound_to 7997
  155.8112  140.0899  157.1922 H   0  0  0  0  0  0  0  0  0  0  0  0  # atno 8009 bound_to 7997
  154.4005  140.1447  156.3376 H   0  0  0  0  0  0  0  0  0  0  0  0  # atno 8010 bound_to 7997
  139.6194  144.7098  151.2668 H   0  0  0  0  0  0  0  0  0  0  0  0  # atno 10167 bound_to 10162
  156.6921  130.9163  151.3070 H   0  0  0  0  0  0  0  0  0  0  0  0  # atno 10718 bound_to 10713
  153.7238  135.6943  153.5006 H   0  0  0  0  0  0  0  0  0  0  0  0  # atno 10763 bound_to 10752
  153.2185  135.4378  155.0461 H   0  0  0  0  0  0  0  0  0  0  0  0  # atno 10764 bound_to 10752
  154.8276  135.3454  154.6770 H   0  0  0  0  0  0  0  0  0  0  0  0  # atno 10765 bound_to 10752
  139.8840  134.8670  156.3418 H   0  0  0  0  0  0  0  0  0  0  0  0  # atno 11005 bound_to 11000
  145.0814  139.2957  143.5781 LP  0  0  0  0  0  0  0  0  0  0  0  0  # atno 17320 bound_to 7965
  146.3525  140.0322  142.8649 LP  0  0  0  0  0  0  0  0  0  0  0  0  # atno 17321 bound_to 7965
  140.7372  143.6685  150.8102 LP  0  0  0  0  0  0  0  0  0  0  0  0  # atno 17342 bound_to 10162
  140.0293  143.5460  152.2767 LP  0  0  0  0  0  0  0  0  0  0  0  0  # atno 17343 bound_to 10162
  157.7005  130.9328  150.0771 LP  0  0  0  0  0  0  0  0  0  0  0  0  # atno 17370 bound_to 10713
  156.1790  130.3649  149.9061 LP  0  0  0  0  0  0  0  0  0  0  0  0  # atno 17371 bound_to 10713
  140.9654  133.7362  156.0459 LP  0  0  0  0  0  0  0  0  0  0  0  0  # atno 17394 bound_to 11000
  140.7938  134.3587  157.5458 LP  0  0  0  0  0  0  0  0  0  0  0  0  # atno 17395 bound_to 11000

$$$$
