AV-unprocessed.smi:2329|AV-procd|sdf|9306|dock3
  -GOLD-   2272012523D 1   1.00000     0.00000
 Structure written by MMmdl.
 45 48  0  0  0  0  0  0  0  0  1 V2000
  147.6796  132.2340  160.0091 C   0  0  0  0  0  0  0  0  0  0  0  0
  147.5861  133.5920  160.6726 C   0  0  0  0  0  0  0  0  0  0  0  0
  147.1633  133.7155  162.0106 C   0  0  0  0  0  0  0  0  0  0  0  0
  147.1009  135.0045  162.5695 C   0  0  0  0  0  0  0  0  0  0  0  0
  147.4624  136.1086  161.7738 C   0  0  0  0  0  0  0  0  0  0  0  0
  147.8775  135.8973  160.4399 C   0  0  0  0  0  0  0  0  0  0  0  0
  148.2251  137.0741  159.7273 N   0  0  0  0  0  0  0  0  0  0  0  0
  148.9493  137.1880  158.5966 C   0  0  0  0  0  0  0  0  0  0  0  0
  149.3929  136.2424  157.9475 O   0  0  0  0  0  0  0  0  0  0  0  0
  149.1666  138.4592  158.2147 N   0  0  0  0  0  0  0  0  0  0  0  0
  149.9104  138.9223  157.0414 C   0  0  2  0  0  0  0  0  0  0  0  0
  151.2147  138.1338  156.8381 C   0  0  1  0  0  0  0  0  0  0  0  0
  151.3775  137.2566  155.6267 C   0  0  0  0  0  0  0  0  0  0  0  0
  152.1187  138.1668  154.6436 C   0  0  0  0  0  0  0  0  0  0  0  0
  151.8463  139.4894  155.1014 O   0  0  0  0  0  0  0  0  0  0  0  0
  151.8775  139.4666  156.5267 C   0  0  1  0  0  0  0  0  0  0  0  0
  150.7407  140.2120  157.2579 C   0  0  0  0  0  0  0  0  0  0  0  0
  150.2568  141.5185  156.6332 C   0  0  0  0  0  0  0  0  0  0  0  0
  151.0893  142.6474  157.2482 C   0  0  0  0  0  0  0  0  0  0  0  0
  151.6433  142.0877  158.5623 C   0  0  0  0  0  0  0  0  0  0  0  0
  151.0685  140.6744  158.6806 C   0  0  0  0  0  0  0  0  0  0  0  0
  147.9344  134.6505  159.9094 N   0  0  0  0  0  0  0  0  0  0  0  0
  147.1164  131.4853  160.5669 H   0  0  0  0  0  0  0  0  0  0  0  0
  148.7197  131.9118  159.9564 H   0  0  0  0  0  0  0  0  0  0  0  0
  147.2794  132.2721  158.9954 H   0  0  0  0  0  0  0  0  0  0  0  0
  146.8944  132.8478  162.5951 H   0  0  0  0  0  0  0  0  0  0  0  0
  146.7819  135.1449  163.5918 H   0  0  0  0  0  0  0  0  0  0  0  0
  147.4214  137.1056  162.1880 H   0  0  0  0  0  0  0  0  0  0  0  0
  147.9152  137.9402  160.1429 H   0  0  0  0  0  0  0  0  0  0  0  0
  148.7824  139.1812  158.8068 H   0  0  0  0  0  0  0  0  0  0  0  0
  149.3192  138.9616  156.1236 H   0  0  0  0  0  0  0  0  0  0  0  0
  151.5981  137.7065  157.7665 H   0  0  0  0  0  0  0  0  0  0  0  0
  151.9434  136.3490  155.8384 H   0  0  0  0  0  0  0  0  0  0  0  0
  150.4071  136.9608  155.2266 H   0  0  0  0  0  0  0  0  0  0  0  0
  153.1939  137.9884  154.6925 H   0  0  0  0  0  0  0  0  0  0  0  0
  151.7955  138.0247  153.6121 H   0  0  0  0  0  0  0  0  0  0  0  0
  152.8786  139.5777  156.9456 H   0  0  0  0  0  0  0  0  0  0  0  0
  150.3281  141.5197  155.5455 H   0  0  0  0  0  0  0  0  0  0  0  0
  149.2062  141.6793  156.8742 H   0  0  0  0  0  0  0  0  0  0  0  0
  151.9112  142.9173  156.5845 H   0  0  0  0  0  0  0  0  0  0  0  0
  150.4870  143.5423  157.4066 H   0  0  0  0  0  0  0  0  0  0  0  0
  152.7320  142.0474  158.5163 H   0  0  0  0  0  0  0  0  0  0  0  0
  151.3726  142.7049  159.4195 H   0  0  0  0  0  0  0  0  0  0  0  0
  150.1637  140.7198  159.2874 H   0  0  0  0  0  0  0  0  0  0  0  0
  151.7591  140.0030  159.1924 H   0  0  0  0  0  0  0  0  0  0  0  0
  1  2  1  0  0  0  0
  1 23  1  0  0  0  0
  1 24  1  0  0  0  0
  1 25  1  0  0  0  0
  2 22  1  0  0  0  0
  2  3  2  0  0  0  0
  3  4  1  0  0  0  0
  3 26  1  0  0  0  0
  4  5  2  0  0  0  0
  4 27  1  0  0  0  0
  5  6  1  0  0  0  0
  5 28  1  0  0  0  0
  6  7  1  0  0  0  0
  6 22  2  0  0  0  0
  7  8  1  0  0  0  0
  7 29  1  0  0  0  0
  8  9  2  0  0  0  0
  8 10  1  0  0  0  0
 10 11  1  0  0  0  0
 10 30  1  0  0  0  0
 11 17  1  0  0  0  0
 11 12  1  0  0  0  0
 11 31  1  0  0  0  0
 12 16  1  0  0  0  0
 12 13  1  0  0  0  0
 12 32  1  0  0  0  0
 13 14  1  0  0  0  0
 13 33  1  0  0  0  0
 13 34  1  0  0  0  0
 14 15  1  0  0  0  0
 14 35  1  0  0  0  0
 14 36  1  0  0  0  0
 15 16  1  0  0  0  0
 16 17  1  0  0  0  0
 16 37  1  0  0  0  0
 17 21  1  0  0  0  0
 17 18  1  0  0  0  0
 18 19  1  0  0  0  0
 18 38  1  0  0  0  0
 18 39  1  0  0  0  0
 19 20  1  0  0  0  0
 19 40  1  0  0  0  0
 19 41  1  0  0  0  0
 20 21  1  0  0  0  0
 20 42  1  0  0  0  0
 20 43  1  0  0  0  0
 21 44  1  0  0  0  0
 21 45  1  0  0  0  0
M  END
> <s_m_source_file>
AV-unprocessed.smi

> <i_m_source_file_index>
2329

> <i_lp_mmshare_version>
43012

> <i_f3d_flags>
0

> <s_epik_input>
W0NIM11jMVtjSF1bY0hdW2NIXWMobjEpW05IXUMoPU8pW05IXVtDQEBIXTJbQ0BASF0oW0NIMl1bQ0gyXU8zKVtDQEhdM0MyNFtDSDJdW0NIMl1bQ0gyXVtDSDJdNA==

> <s_epik_cmdline>
J2VwaWtfcHl0aG9uJywgJy1waCcsICc3LjAnLCAnLXRuJywgJzgnLCAnLW1hJywgJzIwMCcsICctbWV0YWxfYmluZGluZycsICctaW1hZScsICc8aW5maWxlLm1hZT4nLCAnLW9tYWUnLCAnPG91dGZpbGUubWFlPic=

> <r_lp_tautomer_probability>
1

> <r_epik_Ionization_Penalty>
8.97002e-05

> <r_epik_Ionization_Penalty_Charging>
0

> <r_epik_Ionization_Penalty_Neutral>
8.97002e-05

> <r_epik_State_Penalty>
-0

> <r_epik_Charging_Adjusted_Penalty>
0

> <i_epik_Tot_Q>
0

> <i_epik_Tot_abs_Q>
0

> <r_epik_Metal_State_Penalty>
-0

> <b_epik_Metal_Only>
0

> <s_lp_Force_Field>
OPLS_2005

> <r_lp_Energy>
64.3151

> <b_lp_Chiralities_Consistent>
1

> <s_lp_Variant>
AV-unprocessed.smi:2329-5

> <Gold.Version>
5.8.1

> <Gold.Id.Protein>
6NUR|6NUR_protein|mol2

> <Gold.PLP.Fitness>
40.6634

> <Gold.PLP.PLP>
-38.2013

> <Gold.PLP.part.hbond>
-1.0000

> <Gold.PLP.part.metal>
0.0000

> <Gold.PLP.part.buried>
-6.9812

> <Gold.PLP.part.nonpolar>
-32.1037

> <Gold.PLP.part.repulsive>
0.6076

> <Gold.PLP.ligand.clash>
0.0000

> <Gold.PLP.ligand.torsion>
0.3487

> <Gold.PLP.Chemscore.Hbond>
0.9920

> <Gold.PLP.Chemscore.CHOScore>
0.0000

> <Gold.PLP.Chemscore.Metal>
0.0000

> <Gold.Chemscore.Hbonds>
donor molecule, donor type, donor heavy atom, donor atom, acceptor molecule, acceptor atom, score
      P1  H  7989  7998       L1    15  0.80

> <Gold.PLP.Chemscore.Internal.Correction>
0.1834

> <Gold.Rescore>
     Score         DG    S(hbond)    S(metal)    S(lipo)     H(rot)  DE(clash)    DE(int)     intcor
     14.57     -17.85       0.85        0.00     103.46       1.00       0.44       2.85       ----

> <Gold.Chemscore.Fitness>
14.5672

> <Gold.Chemscore.DG>
-17.8486

> <Gold.Chemscore.ZeroCoef>
-5.4800

> <Gold.Chemscore.Hbond>
0.8455

> <Gold.Chemscore.Metal>
0.0000

> <Gold.Chemscore.Lipo>
103.4595

> <Gold.Chemscore.Internal_Hbond>
0.0000

> <Gold.Chemscore.DEClash>
0.4352

> <Gold.Chemscore.DEInternal>
2.8462

> <Gold.Chemscore.Rot>
1.0000

> <Gold.Chemscore.Internal.Correction>
   9.000000E+99

> <Gold.Chemscore.Hbonds>
donor molecule, donor type, donor heavy atom, donor atom, acceptor molecule, acceptor atom, score
      P1  H  7989  7998       L1    15  0.62

> <Gold.Chemscore.Hbond.Weighted>
-2.8239

> <Gold.Chemscore.Metal.Weighted>
-0.0000

> <Gold.Chemscore.Lipo.Weighted>
-12.1048

> <Gold.Chemscore.Internal_Hbond.Weighted>
0.0000

> <Gold.Chemscore.DEClash.Weighted>
0.4352

> <Gold.Chemscore.DEInternal.Weighted>
2.8462

> <Gold.Chemscore.Rot.Weighted>
2.5600

> <Gold.Chemscore.Internal.Correction.Weighted>
   9.000000E+99

> <Gold.Protein.RotatedTorsions>
[ 6907 6896 6895 6894 ] final  153.68 input  -60.11 | X-H torsion
[ 7974 7965 7964 7962 ] final -179.47 input  175.53 | X-H torsion
[ 8008 7997 7996 7995 ] final -132.17 input   59.86 | X-H torsion
[ 10167 10162 10161 10158 ] final -151.67 input  -65.29 | X-H torsion
[ 10718 10713 10712 10709 ] final  -45.51 input   66.30 | X-H torsion
[ 10763 10752 10751 10750 ] final -136.24 input  -60.55 | X-H torsion
[ 11005 11000 10999 10996 ] final -158.09 input  -57.11 | X-H torsion

> <Gold.Protein.ActiveResidues>
 VAL166  LYS551  ARG553  GLY616  TRP617  ASP618  TYR619  PRO620  LYS621  CYS622 
 ASP623  PHE694  ASN695  SER759  ASP760  ASP761  ALA762  ILE779  LEU786  VAL792 
 PHE793  MET794  SER795  GLU796  ALA797  LYS798  CYS799  TRP800  GLU811  SER814 

> <Gold.Protein.RotatedAtoms>
  152.0692  133.4098  159.4451 H   0  0  0  0  0  0  0  0  0  0  0  0  # atno 6907 bound_to 6896
  150.6864  134.3111  159.4756 H   0  0  0  0  0  0  0  0  0  0  0  0  # atno 6908 bound_to 6896
  152.0941  134.9387  160.0622 H   0  0  0  0  0  0  0  0  0  0  0  0  # atno 6909 bound_to 6896
  144.7137  140.0713  143.6429 H   0  0  0  0  0  0  0  0  0  0  0  0  # atno 7974 bound_to 7965
  155.3245  140.0464  157.3040 H   0  0  0  0  0  0  0  0  0  0  0  0  # atno 8008 bound_to 7997
  154.5362  140.2273  155.8685 H   0  0  0  0  0  0  0  0  0  0  0  0  # atno 8009 bound_to 7997
  156.1837  140.3068  155.9203 H   0  0  0  0  0  0  0  0  0  0  0  0  # atno 8010 bound_to 7997
  139.7247  143.8901  152.2515 H   0  0  0  0  0  0  0  0  0  0  0  0  # atno 10167 bound_to 10162
  156.2276  130.4170  149.8915 H   0  0  0  0  0  0  0  0  0  0  0  0  # atno 10718 bound_to 10713
  154.8688  135.3679  154.5028 H   0  0  0  0  0  0  0  0  0  0  0  0  # atno 10763 bound_to 10752
  153.5668  135.7021  153.5527 H   0  0  0  0  0  0  0  0  0  0  0  0  # atno 10764 bound_to 10752
  153.3578  135.4054  155.1659 H   0  0  0  0  0  0  0  0  0  0  0  0  # atno 10765 bound_to 10752
  140.6574  134.4386  157.5235 H   0  0  0  0  0  0  0  0  0  0  0  0  # atno 11005 bound_to 11000
  145.9780  139.2920  143.1059 LP  0  0  0  0  0  0  0  0  0  0  0  0  # atno 17320 bound_to 7965
  145.9042  140.9223  143.0487 LP  0  0  0  0  0  0  0  0  0  0  0  0  # atno 17321 bound_to 7965
  139.8807  144.7019  150.8881 LP  0  0  0  0  0  0  0  0  0  0  0  0  # atno 17342 bound_to 10162
  140.7760  143.3663  151.1732 LP  0  0  0  0  0  0  0  0  0  0  0  0  # atno 17343 bound_to 10162
  156.6540  130.8755  151.3536 LP  0  0  0  0  0  0  0  0  0  0  0  0  # atno 17370 bound_to 10713
  157.7118  130.9449  150.1114 LP  0  0  0  0  0  0  0  0  0  0  0  0  # atno 17371 bound_to 10713
  139.9025  134.8524  156.1839 LP  0  0  0  0  0  0  0  0  0  0  0  0  # atno 17394 bound_to 11000
  141.0491  133.6898  156.1738 LP  0  0  0  0  0  0  0  0  0  0  0  0  # atno 17395 bound_to 11000

$$$$
