AV-unprocessed.smi:444|AV-procd|sdf|2587|dock2
  -GOLD-   2262022573D 1   1.00000     0.00000
 Structure written by MMmdl.
 45 46  0  0  0  0  0  0  0  0  1 V2000
  151.1034  143.8663  157.8365 C   0  0  0  0  0  0  0  0  0  0  0  0
  151.7552  143.6577  159.1879 C   0  0  0  0  0  0  0  0  0  0  0  0
  151.6479  144.6432  160.1879 C   0  0  0  0  0  0  0  0  0  0  0  0
  152.2540  144.4411  161.4408 C   0  0  0  0  0  0  0  0  0  0  0  0
  152.9699  143.2543  161.7020 C   0  0  0  0  0  0  0  0  0  0  0  0
  153.6174  143.0530  163.0592 C   0  0  0  0  0  0  0  0  0  0  0  0
  153.0850  142.2557  160.7071 C   0  0  0  0  0  0  0  0  0  0  0  0
  153.7986  141.1188  161.0277 O   0  0  0  0  0  0  0  0  0  0  0  0
  153.4362  139.8913  160.4090 C   0  0  0  0  0  0  0  0  0  0  0  0
  154.7115  139.0698  160.1517 C   0  0  2  0  0  0  0  0  0  0  0  0
  155.2803  139.5603  158.9531 O   0  0  0  0  0  0  0  0  0  0  0  0
  154.4013  137.5685  159.9583 C   0  0  0  0  0  0  0  0  0  0  0  0
  154.6835  136.7896  161.1707 N   0  0  0  0  0  0  0  0  0  0  0  0
  154.9991  137.5601  162.2733 N   0  0  0  0  0  0  0  0  0  0  0  0
  155.2762  137.0209  163.4148 C   0  0  0  0  0  0  0  0  0  0  0  0
  155.6068  137.9596  164.5438 C   0  0  0  0  0  0  0  0  0  0  0  0
  155.2554  135.5681  163.5518 C   0  0  0  0  0  0  0  0  0  0  0  0
  155.5853  134.9886  164.9206 C   0  0  0  0  0  0  0  0  0  0  0  0
  154.9525  134.8224  162.4598 C   0  0  0  0  0  0  0  0  0  0  0  0
  154.9142  133.3960  162.4967 C   0  0  0  0  0  0  0  0  0  0  0  0
  154.8986  132.2393  162.5401 N   0  0  0  0  0  0  0  0  0  0  0  0
  154.6441  135.4269  161.1619 C   0  0  0  0  0  0  0  0  0  0  0  0
  154.3772  134.7772  160.1500 O   0  0  0  0  0  0  0  0  0  0  0  0
  152.4688  142.4702  159.4475 C   0  0  0  0  0  0  0  0  0  0  0  0
  150.8401  144.9131  157.6816 H   0  0  0  0  0  0  0  0  0  0  0  0
  150.1945  143.2692  157.7611 H   0  0  0  0  0  0  0  0  0  0  0  0
  151.7797  143.5664  157.0355 H   0  0  0  0  0  0  0  0  0  0  0  0
  151.1018  145.5558  159.9987 H   0  0  0  0  0  0  0  0  0  0  0  0
  152.1664  145.2029  162.2017 H   0  0  0  0  0  0  0  0  0  0  0  0
  154.6916  142.9012  162.9480 H   0  0  0  0  0  0  0  0  0  0  0  0
  153.1953  142.1770  163.5528 H   0  0  0  0  0  0  0  0  0  0  0  0
  153.4628  143.9154  163.7086 H   0  0  0  0  0  0  0  0  0  0  0  0
  152.7847  139.3487  161.0957 H   0  0  0  0  0  0  0  0  0  0  0  0
  152.8837  140.0520  159.4812 H   0  0  0  0  0  0  0  0  0  0  0  0
  155.4066  139.2074  160.9814 H   0  0  0  0  0  0  0  0  0  0  0  0
  155.7873  140.3324  159.1539 H   0  0  0  0  0  0  0  0  0  0  0  0
  153.3406  137.4441  159.7320 H   0  0  0  0  0  0  0  0  0  0  0  0
  154.9156  137.1683  159.0821 H   0  0  0  0  0  0  0  0  0  0  0  0
  156.5805  137.7226  164.9734 H   0  0  0  0  0  0  0  0  0  0  0  0
  154.8606  137.8891  165.3355 H   0  0  0  0  0  0  0  0  0  0  0  0
  155.6388  138.9990  164.2127 H   0  0  0  0  0  0  0  0  0  0  0  0
  155.4715  133.9052  164.9485 H   0  0  0  0  0  0  0  0  0  0  0  0
  154.9263  135.4037  165.6841 H   0  0  0  0  0  0  0  0  0  0  0  0
  156.6159  135.2188  165.1928 H   0  0  0  0  0  0  0  0  0  0  0  0
  152.5294  141.7340  158.6605 H   0  0  0  0  0  0  0  0  0  0  0  0
  1  2  1  0  0  0  0
  1 25  1  0  0  0  0
  1 26  1  0  0  0  0
  1 27  1  0  0  0  0
  2 24  1  0  0  0  0
  2  3  2  0  0  0  0
  3  4  1  0  0  0  0
  3 28  1  0  0  0  0
  4  5  2  0  0  0  0
  4 29  1  0  0  0  0
  5  6  1  0  0  0  0
  5  7  1  0  0  0  0
  6 30  1  0  0  0  0
  6 31  1  0  0  0  0
  6 32  1  0  0  0  0
  7  8  1  0  0  0  0
  7 24  2  0  0  0  0
  8  9  1  0  0  0  0
  9 10  1  0  0  0  0
  9 33  1  0  0  0  0
  9 34  1  0  0  0  0
 10 11  1  0  0  0  0
 10 12  1  0  0  0  0
 10 35  1  0  0  0  0
 11 36  1  0  0  0  0
 12 13  1  0  0  0  0
 12 37  1  0  0  0  0
 12 38  1  0  0  0  0
 13 22  1  0  0  0  0
 13 14  1  0  0  0  0
 14 15  2  0  0  0  0
 15 16  1  0  0  0  0
 15 17  1  0  0  0  0
 16 39  1  0  0  0  0
 16 40  1  0  0  0  0
 16 41  1  0  0  0  0
 17 18  1  0  0  0  0
 17 19  2  0  0  0  0
 18 42  1  0  0  0  0
 18 43  1  0  0  0  0
 18 44  1  0  0  0  0
 19 20  1  0  0  0  0
 19 22  1  0  0  0  0
 20 21  3  0  0  0  0
 22 23  2  0  0  0  0
 24 45  1  0  0  0  0
M  END
> <s_m_source_file>
AV-unprocessed.smi

> <i_m_source_file_index>
444

> <i_lp_mmshare_version>
43012

> <i_f3d_flags>
0

> <s_epik_input>
W0NIM11jMVtjSF1bY0hdYyhbQ0gzXSljKFtjSF0xKU9bQ0gyXVtDQEhdKFtPSF0pW0NIMl1uMm5jKFtDSDNdKWMoW0NIM10pYyhDI04pYzI9Tw==

> <s_epik_cmdline>
J2VwaWtfcHl0aG9uJywgJy1waCcsICc3LjAnLCAnLXRuJywgJzgnLCAnLW1hJywgJzIwMCcsICctbWV0YWxfYmluZGluZycsICctaW1hZScsICc8aW5maWxlLm1hZT4nLCAnLW9tYWUnLCAnPG91dGZpbGUubWFlPic=

> <r_lp_tautomer_probability>
1

> <r_epik_Ionization_Penalty>
1.17331e-07

> <r_epik_Ionization_Penalty_Charging>
1.57223e-10

> <r_epik_Ionization_Penalty_Neutral>
1.17174e-07

> <r_epik_State_Penalty>
-0

> <r_epik_Charging_Adjusted_Penalty>
1.57223e-10

> <i_epik_Tot_Q>
0

> <i_epik_Tot_abs_Q>
0

> <r_epik_Metal_State_Penalty>
-0

> <b_epik_Metal_Only>
0

> <s_lp_Force_Field>
OPLS_2005

> <r_lp_Energy>
32.4723

> <b_lp_Chiralities_Consistent>
1

> <s_lp_Variant>
AV-unprocessed.smi:444-1

> <Gold.Version>
5.8.1

> <Gold.Id.Protein>
6NUR|6NUR_protein|mol2

> <Gold.PLP.Fitness>
55.4805

> <Gold.PLP.PLP>
-52.4279

> <Gold.PLP.part.hbond>
-2.0000

> <Gold.PLP.part.metal>
0.0000

> <Gold.PLP.part.buried>
-5.7512

> <Gold.PLP.part.nonpolar>
-45.4978

> <Gold.PLP.part.repulsive>
0.0000

> <Gold.PLP.ligand.clash>
0.0000

> <Gold.PLP.ligand.torsion>
1.4452

> <Gold.PLP.Chemscore.Hbond>
1.9588

> <Gold.PLP.Chemscore.CHOScore>
0.0000

> <Gold.PLP.Chemscore.Metal>
0.0000

> <Gold.Chemscore.Hbonds>
donor molecule, donor type, donor heavy atom, donor atom, acceptor molecule, acceptor atom, score
      P1  H  6896  6908       L1    23  1.00
      P1  H  7997  8008       L1    11  0.15

> <Gold.PLP.Chemscore.Internal.Correction>
0.0668

> <Gold.Rescore>
     Score         DG    S(hbond)    S(metal)    S(lipo)     H(rot)  DE(clash)    DE(int)     intcor
     19.37     -20.77       0.98        0.00     152.69       2.29       0.07       1.33       ----

> <Gold.Chemscore.Fitness>
19.3740

> <Gold.Chemscore.DG>
-20.7700

> <Gold.Chemscore.ZeroCoef>
-5.4800

> <Gold.Chemscore.Hbond>
0.9847

> <Gold.Chemscore.Metal>
0.0000

> <Gold.Chemscore.Lipo>
152.6888

> <Gold.Chemscore.Internal_Hbond>
0.0000

> <Gold.Chemscore.DEClash>
0.0660

> <Gold.Chemscore.DEInternal>
1.3300

> <Gold.Chemscore.Rot>
2.2905

> <Gold.Chemscore.Internal.Correction>
   9.000000E+99

> <Gold.Chemscore.Hbonds>
donor molecule, donor type, donor heavy atom, donor atom, acceptor molecule, acceptor atom, score
      P1  H  6896  6908       L1    23  0.96

> <Gold.Chemscore.Hbond.Weighted>
-3.2890

> <Gold.Chemscore.Metal.Weighted>
-0.0000

> <Gold.Chemscore.Lipo.Weighted>
-17.8646

> <Gold.Chemscore.Internal_Hbond.Weighted>
0.0000

> <Gold.Chemscore.DEClash.Weighted>
0.0660

> <Gold.Chemscore.DEInternal.Weighted>
1.3300

> <Gold.Chemscore.Rot.Weighted>
5.8636

> <Gold.Chemscore.Internal.Correction.Weighted>
   9.000000E+99

> <Gold.Protein.RotatedTorsions>
[ 6907 6896 6895 6894 ] final  -24.65 input  -60.11 | X-H torsion
[ 7974 7965 7964 7962 ] final  173.21 input  175.53 | X-H torsion
[ 8008 7997 7996 7995 ] final -145.93 input   59.86 | X-H torsion
[ 10167 10162 10161 10158 ] final  -17.37 input  -65.29 | X-H torsion
[ 10718 10713 10712 10709 ] final  158.76 input   66.30 | X-H torsion
[ 10763 10752 10751 10750 ] final -108.15 input  -60.55 | X-H torsion
[ 11005 11000 10999 10996 ] final   15.02 input  -57.11 | X-H torsion

> <Gold.Protein.ActiveResidues>
 VAL166  LYS551  ARG553  GLY616  TRP617  ASP618  TYR619  PRO620  LYS621  CYS622 
 ASP623  PHE694  ASN695  SER759  ASP760  ASP761  ALA762  ILE779  LEU786  VAL792 
 PHE793  MET794  SER795  GLU796  ALA797  LYS798  CYS799  TRP800  GLU811  SER814 

> <Gold.Protein.RotatedAtoms>
  151.1864  135.0383  159.8813 H   0  0  0  0  0  0  0  0  0  0  0  0  # atno 6907 bound_to 6896
  152.5442  134.1005  159.8326 H   0  0  0  0  0  0  0  0  0  0  0  0  # atno 6908 bound_to 6896
  151.1128  133.5113  159.2637 H   0  0  0  0  0  0  0  0  0  0  0  0  # atno 6909 bound_to 6896
  144.7249  139.9613  143.6435 H   0  0  0  0  0  0  0  0  0  0  0  0  # atno 7974 bound_to 7965
  155.5511  140.0616  157.2850 H   0  0  0  0  0  0  0  0  0  0  0  0  # atno 8008 bound_to 7997
  154.4420  140.1902  156.0732 H   0  0  0  0  0  0  0  0  0  0  0  0  # atno 8009 bound_to 7997
  156.0515  140.3283  155.7361 H   0  0  0  0  0  0  0  0  0  0  0  0  # atno 8010 bound_to 7997
  140.7246  143.5022  150.9855 H   0  0  0  0  0  0  0  0  0  0  0  0  # atno 10167 bound_to 10162
  157.1735  131.0615  151.2170 H   0  0  0  0  0  0  0  0  0  0  0  0  # atno 10718 bound_to 10713
  154.8118  135.4648  154.0537 H   0  0  0  0  0  0  0  0  0  0  0  0  # atno 10763 bound_to 10752
  153.1961  135.6862  153.8296 H   0  0  0  0  0  0  0  0  0  0  0  0  # atno 10764 bound_to 10752
  153.7797  135.3258  155.3341 H   0  0  0  0  0  0  0  0  0  0  0  0  # atno 10765 bound_to 10752
  140.4630  134.1108  155.7719 H   0  0  0  0  0  0  0  0  0  0  0  0  # atno 11005 bound_to 11000
  146.0635  139.3627  143.0567 LP  0  0  0  0  0  0  0  0  0  0  0  0  # atno 17320 bound_to 7965
  145.8062  140.9748  143.0973 LP  0  0  0  0  0  0  0  0  0  0  0  0  # atno 17321 bound_to 7965
  139.8732  143.7166  152.3164 LP  0  0  0  0  0  0  0  0  0  0  0  0  # atno 17342 bound_to 10162
  139.7422  144.7556  151.0635 LP  0  0  0  0  0  0  0  0  0  0  0  0  # atno 17343 bound_to 10162
  157.4020  130.7338  149.6774 LP  0  0  0  0  0  0  0  0  0  0  0  0  # atno 17370 bound_to 10713
  155.9735  130.4118  150.4000 LP  0  0  0  0  0  0  0  0  0  0  0  0  # atno 17371 bound_to 10713
  141.1612  133.8789  157.1842 LP  0  0  0  0  0  0  0  0  0  0  0  0  # atno 17394 bound_to 11000
  139.9933  135.0056  157.0025 LP  0  0  0  0  0  0  0  0  0  0  0  0  # atno 17395 bound_to 11000

$$$$
