AV-unprocessed.smi:36|AV-procd|sdf|298|dock8
  -GOLD-   2262016103D 1   1.00000     0.00000
 Structure written by MMmdl.
 63 66  0  0  0  0  0  0  0  0  2 V2000
  145.6020  132.5905  161.8306 C   0  0  0  0  0  0  0  0  0  0  0  0
  146.3615  133.9234  161.7242 C   0  0  0  0  0  0  0  0  0  0  0  0
  145.4834  135.0693  162.2536 C   0  0  0  0  0  0  0  0  0  0  0  0
  147.6639  133.8513  162.5391 C   0  0  0  0  0  0  0  0  0  0  0  0
  146.7941  134.2649  159.8950 Si  0  0  0  0  0  0  0  0  0  0  0  0
  145.2238  134.3329  158.8258 C   0  0  0  0  0  0  0  0  0  0  0  0
  147.7734  135.8819  159.7076 C   0  0  0  0  0  0  0  0  0  0  0  0
  147.7665  132.9931  159.3497 O   0  0  0  0  0  0  0  0  0  0  0  0
  147.9313  132.6565  157.9882 C   0  0  0  0  0  0  0  0  0  0  0  0
  148.5041  133.8741  157.2494 C   0  0  1  0  0  0  0  0  0  0  0  0
  149.6282  134.4174  157.9406 O   0  0  0  0  0  0  0  0  0  0  0  0
  150.5542  134.9349  157.0323 C   0  0  2  0  0  0  0  0  0  0  0  0
  150.7925  136.3756  157.3508 N   0  0  0  0  0  0  0  0  0  0  0  0
  150.3514  137.0587  158.4256 C   0  0  0  0  0  0  0  0  0  0  0  0
  150.6884  138.3433  158.5187 N   0  0  0  0  0  0  0  0  0  0  0  0
  151.4334  138.5220  157.3623 C   0  0  0  0  0  0  0  0  0  0  0  0
  152.1132  139.6507  156.8264 C   0  0  0  0  0  0  0  0  0  0  0  0
  152.1333  140.8453  157.4376 N   0  5  0  0  0  0  0  0  0  0  0  0
  152.7965  140.9907  158.6128 C   0  0  0  0  0  0  0  0  0  0  0  0
  153.6279  140.2289  159.1116 O   0  0  0  0  0  0  0  0  0  0  0  0
  152.4884  142.2863  159.3149 C   0  0  0  0  0  0  0  0  0  0  0  0
  152.5986  142.3631  160.7224 C   0  0  0  0  0  0  0  0  0  0  0  0
  152.2902  143.5581  161.4012 C   0  0  0  0  0  0  0  0  0  0  0  0
  151.8583  144.6871  160.6804 C   0  0  0  0  0  0  0  0  0  0  0  0
  151.7317  144.6191  159.2804 C   0  0  0  0  0  0  0  0  0  0  0  0
  152.0406  143.4245  158.6005 C   0  0  0  0  0  0  0  0  0  0  0  0
  152.7464  139.4792  155.6378 N   0  0  0  0  0  0  0  0  0  0  0  0
  152.7322  138.2875  155.0295 C   0  0  0  0  0  0  0  0  0  0  0  0
  152.1545  137.1494  155.4252 N   0  0  0  0  0  0  0  0  0  0  0  0
  151.5027  137.3106  156.6137 C   0  0  0  0  0  0  0  0  0  0  0  0
  149.9717  134.7702  155.6256 C   0  0  0  0  0  0  0  0  0  0  0  0
  149.0069  133.6189  155.8226 C   0  0  1  0  0  0  0  0  0  0  0  0
  149.6723  132.3749  155.7041 O   0  0  0  0  0  0  0  0  0  0  0  0
  145.3442  132.3637  162.8657 H   0  0  0  0  0  0  0  0  0  0  0  0
  146.1994  131.7609  161.4519 H   0  0  0  0  0  0  0  0  0  0  0  0
  144.6736  132.6159  161.2595 H   0  0  0  0  0  0  0  0  0  0  0  0
  144.5478  135.1432  161.6986 H   0  0  0  0  0  0  0  0  0  0  0  0
  145.9933  136.0296  162.1685 H   0  0  0  0  0  0  0  0  0  0  0  0
  145.2308  134.9225  163.3042 H   0  0  0  0  0  0  0  0  0  0  0  0
  147.4620  133.6786  163.5967 H   0  0  0  0  0  0  0  0  0  0  0  0
  148.2328  134.7785  162.4595 H   0  0  0  0  0  0  0  0  0  0  0  0
  148.3064  133.0419  162.1920 H   0  0  0  0  0  0  0  0  0  0  0  0
  144.5452  135.1168  159.1613 H   0  0  0  0  0  0  0  0  0  0  0  0
  144.6762  133.3912  158.8586 H   0  0  0  0  0  0  0  0  0  0  0  0
  145.4568  134.5351  157.7807 H   0  0  0  0  0  0  0  0  0  0  0  0
  147.2019  136.7404  160.0598 H   0  0  0  0  0  0  0  0  0  0  0  0
  148.0345  136.0717  158.6667 H   0  0  0  0  0  0  0  0  0  0  0  0
  148.7033  135.8549  160.2744 H   0  0  0  0  0  0  0  0  0  0  0  0
  148.5807  131.7878  157.8776 H   0  0  0  0  0  0  0  0  0  0  0  0
  146.9552  132.3906  157.5819 H   0  0  0  0  0  0  0  0  0  0  0  0
  147.7393  134.6503  157.1996 H   0  0  0  0  0  0  0  0  0  0  0  0
  151.5189  134.4427  157.1620 H   0  0  0  0  0  0  0  0  0  0  0  0
  149.7528  136.5843  159.1890 H   0  0  0  0  0  0  0  0  0  0  0  0
  152.9269  141.5048  161.2907 H   0  0  0  0  0  0  0  0  0  0  0  0
  152.3839  143.6070  162.4761 H   0  0  0  0  0  0  0  0  0  0  0  0
  151.6208  145.6028  161.2013 H   0  0  0  0  0  0  0  0  0  0  0  0
  151.3941  145.4826  158.7266 H   0  0  0  0  0  0  0  0  0  0  0  0
  151.9269  143.3904  157.5264 H   0  0  0  0  0  0  0  0  0  0  0  0
  153.2632  138.2381  154.0905 H   0  0  0  0  0  0  0  0  0  0  0  0
  149.4241  135.6691  155.3392 H   0  0  0  0  0  0  0  0  0  0  0  0
  150.7532  134.5855  154.8876 H   0  0  0  0  0  0  0  0  0  0  0  0
  148.1931  133.6442  155.0974 H   0  0  0  0  0  0  0  0  0  0  0  0
  149.3014  131.9065  154.9719 H   0  0  0  0  0  0  0  0  0  0  0  0
  1  2  1  0  0  0  0
  1 34  1  0  0  0  0
  1 35  1  0  0  0  0
  1 36  1  0  0  0  0
  2  3  1  0  0  0  0
  2  4  1  0  0  0  0
  2  5  1  0  0  0  0
  3 37  1  0  0  0  0
  3 38  1  0  0  0  0
  3 39  1  0  0  0  0
  4 40  1  0  0  0  0
  4 41  1  0  0  0  0
  4 42  1  0  0  0  0
  5  6  1  0  0  0  0
  5  7  1  0  0  0  0
  5  8  1  0  0  0  0
  6 43  1  0  0  0  0
  6 44  1  0  0  0  0
  6 45  1  0  0  0  0
  7 46  1  0  0  0  0
  7 47  1  0  0  0  0
  7 48  1  0  0  0  0
  8  9  1  0  0  0  0
  9 10  1  0  0  0  0
  9 49  1  0  0  0  0
  9 50  1  0  0  0  0
 10 32  1  0  0  0  0
 10 11  1  0  0  0  0
 10 51  1  0  0  0  0
 11 12  1  0  0  0  0
 12 13  1  0  0  0  0
 12 31  1  0  0  0  0
 12 52  1  0  0  0  0
 13 30  1  0  0  0  0
 13 14  1  0  0  0  0
 14 15  2  0  0  0  0
 14 53  1  0  0  0  0
 15 16  1  0  0  0  0
 16 30  2  0  0  0  0
 16 17  1  0  0  0  0
 17 18  1  0  0  0  0
 17 27  2  0  0  0  0
 18 19  1  0  0  0  0
 19 20  2  0  0  0  0
 19 21  1  0  0  0  0
 21 26  1  0  0  0  0
 21 22  2  0  0  0  0
 22 23  1  0  0  0  0
 22 54  1  0  0  0  0
 23 24  2  0  0  0  0
 23 55  1  0  0  0  0
 24 25  1  0  0  0  0
 24 56  1  0  0  0  0
 25 26  2  0  0  0  0
 25 57  1  0  0  0  0
 26 58  1  0  0  0  0
 27 28  1  0  0  0  0
 28 29  2  0  0  0  0
 28 59  1  0  0  0  0
 29 30  1  0  0  0  0
 31 32  1  0  0  0  0
 31 60  1  0  0  0  0
 31 61  1  0  0  0  0
 32 33  1  0  0  0  0
 32 62  1  0  0  0  0
 33 63  1  0  0  0  0
M  CHG  1  18  -1
M  END
> <s_m_source_file>
AV-unprocessed.smi

> <i_m_source_file_index>
36

> <i_lp_mmshare_version>
43012

> <i_f3d_flags>
0

> <s_epik_input>
W0NIM11DKFtDSDNdKShbQ0gzXSlbU2ldKFtDSDNdKShbQ0gzXSlPW0NIMl1bQ0BASF0xT1tDQEhdKFtDSDJdW0NASF0xW09IXSluKFtjSF1uMiljKGMyMyluW2NIXW5jM1tOSF1DKD1PKWM0W2NIXVtjSF1bY0hdW2NIXVtjSF00

> <s_epik_cmdline>
J2VwaWtfcHl0aG9uJywgJy1waCcsICc3LjAnLCAnLXRuJywgJzgnLCAnLW1hJywgJzIwMCcsICctbWV0YWxfYmluZGluZycsICctaW1hZScsICc8aW5maWxlLm1hZT4nLCAnLW9tYWUnLCAnPG91dGZpbGUubWFlPic=

> <r_lp_tautomer_probability>
1

> <r_epik_Ionization_Penalty>
4.75685

> <r_epik_Ionization_Penalty_Charging>
3.55822

> <r_epik_Ionization_Penalty_Neutral>
1.19863

> <r_epik_State_Penalty>
3.564

> <r_epik_Charging_Adjusted_Penalty>
7.12222

> <i_epik_Tot_Q>
-1

> <i_epik_Tot_abs_Q>
1

> <r_epik_Metal_State_Penalty>
0.523258

> <b_epik_Metal_Only>
1

> <s_epik_Chemistry_Notes>
This compound contains an acetal/aminal-like group ( X-CH(R)-Y where X, Y are N, S, or O) that may be acid/base labile, releasing an aldehyde.

> <s_lp_Force_Field>
OPLS_2005

> <r_lp_Energy>
38.0647

> <b_lp_Chiralities_Consistent>
1

> <s_lp_Variant>
AV-unprocessed.smi:36-20

> <Gold.Version>
5.8.1

> <Gold.Id.Protein>
6NUR|6NUR_protein|mol2

> <Gold.PLP.Fitness>
58.8637

> <Gold.PLP.PLP>
-51.9406

> <Gold.PLP.part.hbond>
-4.2051

> <Gold.PLP.part.metal>
0.0000

> <Gold.PLP.part.buried>
-5.6461

> <Gold.PLP.part.nonpolar>
-40.1142

> <Gold.PLP.part.repulsive>
0.0663

> <Gold.PLP.ligand.clash>
0.0000

> <Gold.PLP.ligand.torsion>
1.4917

> <Gold.PLP.Chemscore.Hbond>
3.2496

> <Gold.PLP.Chemscore.CHOScore>
0.0000

> <Gold.PLP.Chemscore.Metal>
0.0000

> <Gold.Chemscore.Hbonds>
donor molecule, donor type, donor heavy atom, donor atom, acceptor molecule, acceptor atom, score
      P1  H  6896  6909       L1    11  1.00
      P1  H  7997  8008       L1    20  0.19
      P1  H  7997  8009       L1    27  0.83
      P1  H 10752 10764       L1    29  0.82

> <Gold.PLP.Chemscore.Internal.Correction>
0.1578

> <Gold.Rescore>
     Score         DG    S(hbond)    S(metal)    S(lipo)     H(rot)  DE(clash)    DE(int)     intcor
     15.88     -18.67       1.93        0.00     115.95       2.67       0.06       2.73       ----

> <Gold.Chemscore.Fitness>
15.8799

> <Gold.Chemscore.DG>
-18.6710

> <Gold.Chemscore.ZeroCoef>
-5.4800

> <Gold.Chemscore.Hbond>
1.9342

> <Gold.Chemscore.Metal>
0.0000

> <Gold.Chemscore.Lipo>
115.9519

> <Gold.Chemscore.Internal_Hbond>
0.0000

> <Gold.Chemscore.DEClash>
0.0648

> <Gold.Chemscore.DEInternal>
2.7263

> <Gold.Chemscore.Rot>
2.6702

> <Gold.Chemscore.Internal.Correction>
   9.000000E+99

> <Gold.Chemscore.Hbonds>
donor molecule, donor type, donor heavy atom, donor atom, acceptor molecule, acceptor atom, score
      P1  H  6896  6909       L1    11  0.30
      P1  H  7997  8008       L1    20  0.05
      P1  H  7997  8009       L1    27  0.49
      P1  H 10752 10764       L1    29  0.64

> <Gold.Chemscore.Hbond.Weighted>
-6.4604

> <Gold.Chemscore.Metal.Weighted>
-0.0000

> <Gold.Chemscore.Lipo.Weighted>
-13.5664

> <Gold.Chemscore.Internal_Hbond.Weighted>
0.0000

> <Gold.Chemscore.DEClash.Weighted>
0.0648

> <Gold.Chemscore.DEInternal.Weighted>
2.7263

> <Gold.Chemscore.Rot.Weighted>
6.8358

> <Gold.Chemscore.Internal.Correction.Weighted>
   9.000000E+99

> <Gold.Protein.RotatedTorsions>
[ 6907 6896 6895 6894 ] final   21.54 input  -60.11 | X-H torsion
[ 7974 7965 7964 7962 ] final  -66.43 input  175.53 | X-H torsion
[ 8008 7997 7996 7995 ] final -122.80 input   59.86 | X-H torsion
[ 10167 10162 10161 10158 ] final   67.37 input  -65.29 | X-H torsion
[ 10718 10713 10712 10709 ] final  -11.65 input   66.30 | X-H torsion
[ 10763 10752 10751 10750 ] final  -61.50 input  -60.55 | X-H torsion
[ 11005 11000 10999 10996 ] final -149.32 input  -57.11 | X-H torsion

> <Gold.Protein.ActiveResidues>
 VAL166  LYS551  ARG553  GLY616  TRP617  ASP618  TYR619  PRO620  LYS621  CYS622 
 ASP623  PHE694  ASN695  SER759  ASP760  ASP761  ALA762  ILE779  LEU786  VAL792 
 PHE793  MET794  SER795  GLU796  ALA797  LYS798  CYS799  TRP800  GLU811  SER814 

> <Gold.Protein.RotatedAtoms>
  151.9134  135.0329  160.0516 H   0  0  0  0  0  0  0  0  0  0  0  0  # atno 6907 bound_to 6896
  152.2260  133.5016  159.5197 H   0  0  0  0  0  0  0  0  0  0  0  0  # atno 6908 bound_to 6896
  150.7012  134.1196  159.4072 H   0  0  0  0  0  0  0  0  0  0  0  0  # atno 6909 bound_to 6896
  145.7419  140.8949  143.0525 H   0  0  0  0  0  0  0  0  0  0  0  0  # atno 7974 bound_to 7965
  155.1701  140.0408  157.2861 H   0  0  0  0  0  0  0  0  0  0  0  0  # atno 8008 bound_to 7997
  154.6275  140.2516  155.7446 H   0  0  0  0  0  0  0  0  0  0  0  0  # atno 8009 bound_to 7997
  156.2467  140.2882  156.0612 H   0  0  0  0  0  0  0  0  0  0  0  0  # atno 8010 bound_to 7997
  140.0903  144.4994  150.7103 H   0  0  0  0  0  0  0  0  0  0  0  0  # atno 10167 bound_to 10162
  156.6560  130.4968  149.6046 H   0  0  0  0  0  0  0  0  0  0  0  0  # atno 10718 bound_to 10713
  154.2856  135.6263  153.5364 H   0  0  0  0  0  0  0  0  0  0  0  0  # atno 10763 bound_to 10752
  152.9859  135.5643  154.5447 H   0  0  0  0  0  0  0  0  0  0  0  0  # atno 10764 bound_to 10752
  154.5047  135.2874  155.1367 H   0  0  0  0  0  0  0  0  0  0  0  0  # atno 10765 bound_to 10752
  140.7520  134.3395  157.5123 H   0  0  0  0  0  0  0  0  0  0  0  0  # atno 11005 bound_to 11000
  144.6869  139.9472  143.7477 LP  0  0  0  0  0  0  0  0  0  0  0  0  # atno 17320 bound_to 7965
  146.0440  139.3448  143.0680 LP  0  0  0  0  0  0  0  0  0  0  0  0  # atno 17321 bound_to 7965
  140.7032  143.2449  151.4804 LP  0  0  0  0  0  0  0  0  0  0  0  0  # atno 17342 bound_to 10162
  139.5728  144.1887  152.1861 LP  0  0  0  0  0  0  0  0  0  0  0  0  # atno 17343 bound_to 10162
  156.2048  130.6642  151.1206 LP  0  0  0  0  0  0  0  0  0  0  0  0  # atno 17370 bound_to 10713
  157.7125  131.0727  150.6448 LP  0  0  0  0  0  0  0  0  0  0  0  0  # atno 17371 bound_to 10713
  139.8786  134.9148  156.3116 LP  0  0  0  0  0  0  0  0  0  0  0  0  # atno 17394 bound_to 11000
  140.9742  133.7308  156.0578 LP  0  0  0  0  0  0  0  0  0  0  0  0  # atno 17395 bound_to 11000

$$$$
