AV-unprocessed.smi:130|AV-procd|sdf|1160|dock5
  -GOLD-   2262018303D 1   1.00000     0.00000
 Structure written by MMmdl.
 44 47  0  0  0  0  0  0  0  0  1 V2000
  152.9613  139.1630  157.3412 O   0  0  0  0  0  0  0  0  0  0  0  0
  152.2471  140.0078  156.7998 C   0  0  0  0  0  0  0  0  0  0  0  0
  151.7395  139.7446  155.3647 C   0  0  0  0  0  0  0  0  0  0  0  0
  150.6157  138.7833  155.2980 N   0  0  0  0  0  0  0  0  0  0  0  0
  150.8541  137.4305  155.6476 C   0  0  0  0  0  0  0  0  0  0  0  0
  151.9668  137.0529  156.0171 O   0  0  0  0  0  0  0  0  0  0  0  0
  149.7074  136.5372  155.5272 C   0  0  0  0  0  0  0  0  0  0  0  0
  149.8431  135.2352  155.8312 F   0  0  0  0  0  0  0  0  0  0  0  0
  148.5096  136.9962  155.1096 C   0  0  0  0  0  0  0  0  0  0  0  0
  148.2903  138.3204  154.7760 N   0  0  0  0  0  0  0  0  0  0  0  0
  146.9369  138.8002  154.2995 C   0  0  1  0  0  0  0  0  0  0  0  0
  147.0665  139.4861  152.9347 C   0  0  0  0  0  0  0  0  0  0  0  0
  146.7616  138.3484  151.9848 C   0  0  0  0  0  0  0  0  0  0  0  0
  145.7142  137.5668  152.7696 C   0  0  0  0  0  0  0  0  0  0  0  0
  146.0908  137.6979  154.1379 O   0  0  0  0  0  0  0  0  0  0  0  0
  149.3544  139.2448  154.8508 C   0  0  0  0  0  0  0  0  0  0  0  0
  149.1894  140.4219  154.5229 O   0  0  0  0  0  0  0  0  0  0  0  0
  151.8775  141.1659  157.4015 N   0  0  0  0  0  0  0  0  0  0  0  0
  151.0211  142.1784  156.7593 C   0  0  0  0  0  0  0  0  0  0  0  0
  150.8487  143.3179  157.7877 C   0  0  0  0  0  0  0  0  0  0  0  0
  151.6480  142.8379  158.9627 C   0  0  0  0  0  0  0  0  0  0  0  0
  151.8267  143.5059  160.1865 C   0  0  0  0  0  0  0  0  0  0  0  0
  152.6211  142.8874  161.1747 C   0  0  0  0  0  0  0  0  0  0  0  0
  153.2167  141.6293  160.9278 C   0  0  0  0  0  0  0  0  0  0  0  0
  153.0265  140.9721  159.6923 C   0  0  0  0  0  0  0  0  0  0  0  0
  152.2280  141.5985  158.7084 C   0  0  0  0  0  0  0  0  0  0  0  0
  151.4565  140.6960  154.9126 H   0  0  0  0  0  0  0  0  0  0  0  0
  152.5691  139.3918  154.7508 H   0  0  0  0  0  0  0  0  0  0  0  0
  147.6993  136.2871  155.0318 H   0  0  0  0  0  0  0  0  0  0  0  0
  146.5488  139.4477  155.0873 H   0  0  0  0  0  0  0  0  0  0  0  0
  146.3022  140.2607  152.8611 H   0  0  0  0  0  0  0  0  0  0  0  0
  148.0467  139.9408  152.7863 H   0  0  0  0  0  0  0  0  0  0  0  0
  146.4022  138.6856  151.0122 H   0  0  0  0  0  0  0  0  0  0  0  0
  147.6520  137.7381  151.8287 H   0  0  0  0  0  0  0  0  0  0  0  0
  144.7284  138.0137  152.6348 H   0  0  0  0  0  0  0  0  0  0  0  0
  145.6570  136.5203  152.4689 H   0  0  0  0  0  0  0  0  0  0  0  0
  151.4867  142.5587  155.8492 H   0  0  0  0  0  0  0  0  0  0  0  0
  150.0509  141.7545  156.4970 H   0  0  0  0  0  0  0  0  0  0  0  0
  151.2465  144.2630  157.4170 H   0  0  0  0  0  0  0  0  0  0  0  0
  149.8044  143.4595  158.0677 H   0  0  0  0  0  0  0  0  0  0  0  0
  151.3684  144.4673  160.3663 H   0  0  0  0  0  0  0  0  0  0  0  0
  152.7753  143.3777  162.1247 H   0  0  0  0  0  0  0  0  0  0  0  0
  153.8232  141.1654  161.6915 H   0  0  0  0  0  0  0  0  0  0  0  0
  153.4946  140.0136  159.5343 H   0  0  0  0  0  0  0  0  0  0  0  0
  1  2  2  0  0  0  0
  2  3  1  0  0  0  0
  2 18  1  0  0  0  0
  3  4  1  0  0  0  0
  3 27  1  0  0  0  0
  3 28  1  0  0  0  0
  4 16  1  0  0  0  0
  4  5  1  0  0  0  0
  5  6  2  0  0  0  0
  5  7  1  0  0  0  0
  7  8  1  0  0  0  0
  7  9  2  0  0  0  0
  9 10  1  0  0  0  0
  9 29  1  0  0  0  0
 10 11  1  0  0  0  0
 10 16  1  0  0  0  0
 11 15  1  0  0  0  0
 11 12  1  0  0  0  0
 11 30  1  0  0  0  0
 12 13  1  0  0  0  0
 12 31  1  0  0  0  0
 12 32  1  0  0  0  0
 13 14  1  0  0  0  0
 13 33  1  0  0  0  0
 13 34  1  0  0  0  0
 14 15  1  0  0  0  0
 14 35  1  0  0  0  0
 14 36  1  0  0  0  0
 16 17  2  0  0  0  0
 18 26  1  0  0  0  0
 18 19  1  0  0  0  0
 19 20  1  0  0  0  0
 19 37  1  0  0  0  0
 19 38  1  0  0  0  0
 20 21  1  0  0  0  0
 20 39  1  0  0  0  0
 20 40  1  0  0  0  0
 21 26  2  0  0  0  0
 21 22  1  0  0  0  0
 22 23  2  0  0  0  0
 22 41  1  0  0  0  0
 23 24  1  0  0  0  0
 23 42  1  0  0  0  0
 24 25  2  0  0  0  0
 24 43  1  0  0  0  0
 25 26  1  0  0  0  0
 25 44  1  0  0  0  0
M  END
> <s_m_source_file>
AV-unprocessed.smi

> <i_m_source_file_index>
130

> <i_lp_mmshare_version>
43012

> <i_f3d_flags>
0

> <s_epik_input>
W2NIXTFbY0hdW2NIXVtjSF1jKGMxMilOKFtDSDJdW0NIMl0yKUMoPU8pW0NIMl1uM2MoPU8pYyhGKVtjSF1uKGMzPU8pW0NAQEhdNFtDSDJdW0NIMl1bQ0gyXU80

> <s_epik_cmdline>
J2VwaWtfcHl0aG9uJywgJy1waCcsICc3LjAnLCAnLXRuJywgJzgnLCAnLW1hJywgJzIwMCcsICctbWV0YWxfYmluZGluZycsICctaW1hZScsICc8aW5maWxlLm1hZT4nLCAnLW9tYWUnLCAnPG91dGZpbGUubWFlPic=

> <r_lp_tautomer_probability>
1

> <r_epik_Ionization_Penalty>
1.67926e-06

> <r_epik_Ionization_Penalty_Charging>
3.62822e-09

> <r_epik_Ionization_Penalty_Neutral>
1.67563e-06

> <r_epik_State_Penalty>
-0

> <r_epik_Charging_Adjusted_Penalty>
3.62822e-09

> <i_epik_Tot_Q>
0

> <i_epik_Tot_abs_Q>
0

> <r_epik_Metal_State_Penalty>
-0

> <b_epik_Metal_Only>
0

> <s_epik_Chemistry_Notes>
This compound contains an acetal/aminal-like group ( X-CH(R)-Y where X, Y are N, S, or O) that may be acid/base labile, releasing an aldehyde.

> <s_lp_Force_Field>
OPLS_2005

> <r_lp_Energy>
53.4438

> <b_lp_Chiralities_Consistent>
1

> <s_lp_Variant>
AV-unprocessed.smi:130-2

> <Gold.Version>
5.8.1

> <Gold.Id.Protein>
6NUR|6NUR_protein|mol2

> <Gold.PLP.Fitness>
50.0264

> <Gold.PLP.PLP>
-44.8698

> <Gold.PLP.part.hbond>
-2.0000

> <Gold.PLP.part.metal>
0.0000

> <Gold.PLP.part.buried>
-2.1515

> <Gold.PLP.part.nonpolar>
-41.5838

> <Gold.PLP.part.repulsive>
0.2612

> <Gold.PLP.ligand.clash>
0.0000

> <Gold.PLP.ligand.torsion>
0.3387

> <Gold.PLP.Chemscore.Hbond>
1.9413

> <Gold.PLP.Chemscore.CHOScore>
0.0000

> <Gold.PLP.Chemscore.Metal>
0.0000

> <Gold.Chemscore.Hbonds>
donor molecule, donor type, donor heavy atom, donor atom, acceptor molecule, acceptor atom, score
      P1  H  7997  8008       L1     1  0.80
      P1  H 10752 10764       L1     6  0.62

> <Gold.PLP.Chemscore.Internal.Correction>
0.0103

> <Gold.Rescore>
     Score         DG    S(hbond)    S(metal)    S(lipo)     H(rot)  DE(clash)    DE(int)     intcor
     13.20     -19.05       1.27        0.00     114.03       1.57       1.59       4.26       ----

> <Gold.Chemscore.Fitness>
13.2038

> <Gold.Chemscore.DG>
-19.0460

> <Gold.Chemscore.ZeroCoef>
-5.4800

> <Gold.Chemscore.Hbond>
1.2710

> <Gold.Chemscore.Metal>
0.0000

> <Gold.Chemscore.Lipo>
114.0273

> <Gold.Chemscore.Internal_Hbond>
0.0000

> <Gold.Chemscore.DEClash>
1.5853

> <Gold.Chemscore.DEInternal>
4.2570

> <Gold.Chemscore.Rot>
1.5704

> <Gold.Chemscore.Internal.Correction>
   9.000000E+99

> <Gold.Chemscore.Hbonds>
donor molecule, donor type, donor heavy atom, donor atom, acceptor molecule, acceptor atom, score
      P1  H  7997  8008       L1     1  0.12
      P1  H 10752 10764       L1     6  0.58

> <Gold.Chemscore.Hbond.Weighted>
-4.2452

> <Gold.Chemscore.Metal.Weighted>
-0.0000

> <Gold.Chemscore.Lipo.Weighted>
-13.3412

> <Gold.Chemscore.Internal_Hbond.Weighted>
0.0000

> <Gold.Chemscore.DEClash.Weighted>
1.5853

> <Gold.Chemscore.DEInternal.Weighted>
4.2570

> <Gold.Chemscore.Rot.Weighted>
4.0203

> <Gold.Chemscore.Internal.Correction.Weighted>
   9.000000E+99

> <Gold.Protein.RotatedTorsions>
[ 6907 6896 6895 6894 ] final  108.13 input  -60.11 | X-H torsion
[ 7974 7965 7964 7962 ] final  -93.03 input  175.53 | X-H torsion
[ 8008 7997 7996 7995 ] final  -84.15 input   59.86 | X-H torsion
[ 10167 10162 10161 10158 ] final  -72.56 input  -65.29 | X-H torsion
[ 10718 10713 10712 10709 ] final -131.68 input   66.30 | X-H torsion
[ 10763 10752 10751 10750 ] final  -46.31 input  -60.55 | X-H torsion
[ 11005 11000 10999 10996 ] final  -18.69 input  -57.11 | X-H torsion

> <Gold.Protein.ActiveResidues>
 VAL166  LYS551  ARG553  GLY616  TRP617  ASP618  TYR619  PRO620  LYS621  CYS622 
 ASP623  PHE694  ASN695  SER759  ASP760  ASP761  ALA762  ILE779  LEU786  VAL792 
 PHE793  MET794  SER795  GLU796  ALA797  LYS798  CYS799  TRP800  GLU811  SER814 

> <Gold.Protein.RotatedAtoms>
  152.5125  133.9134  159.7498 H   0  0  0  0  0  0  0  0  0  0  0  0  # atno 6907 bound_to 6896
  150.9522  133.6528  159.2776 H   0  0  0  0  0  0  0  0  0  0  0  0  # atno 6908 bound_to 6896
  151.3802  135.0943  159.9546 H   0  0  0  0  0  0  0  0  0  0  0  0  # atno 6909 bound_to 6896
  145.3920  140.9529  143.2335 H   0  0  0  0  0  0  0  0  0  0  0  0  # atno 7974 bound_to 7965
  154.6267  140.0609  156.9682 H   0  0  0  0  0  0  0  0  0  0  0  0  # atno 8008 bound_to 7997
  155.1730  140.3292  155.4370 H   0  0  0  0  0  0  0  0  0  0  0  0  # atno 8009 bound_to 7997
  156.2461  140.1911  156.6831 H   0  0  0  0  0  0  0  0  0  0  0  0  # atno 8010 bound_to 7997
  140.5182  143.2335  151.7475 H   0  0  0  0  0  0  0  0  0  0  0  0  # atno 10167 bound_to 10162
  156.2268  130.7013  151.0816 H   0  0  0  0  0  0  0  0  0  0  0  0  # atno 10718 bound_to 10713
  154.0429  135.6641  153.4792 H   0  0  0  0  0  0  0  0  0  0  0  0  # atno 10763 bound_to 10752
  153.0494  135.5094  154.7825 H   0  0  0  0  0  0  0  0  0  0  0  0  # atno 10764 bound_to 10752
  154.6807  135.3044  154.9583 H   0  0  0  0  0  0  0  0  0  0  0  0  # atno 10765 bound_to 10752
  140.8293  133.8009  155.9741 H   0  0  0  0  0  0  0  0  0  0  0  0  # atno 11005 bound_to 11000
  144.8434  139.5436  143.6890 LP  0  0  0  0  0  0  0  0  0  0  0  0  # atno 17320 bound_to 7965
  146.2793  139.6835  142.9240 LP  0  0  0  0  0  0  0  0  0  0  0  0  # atno 17321 bound_to 7965
  139.4915  144.4293  151.9891 LP  0  0  0  0  0  0  0  0  0  0  0  0  # atno 17342 bound_to 10162
  140.3388  144.3228  150.5971 LP  0  0  0  0  0  0  0  0  0  0  0  0  # atno 17343 bound_to 10162
  157.7114  131.0732  150.6486 LP  0  0  0  0  0  0  0  0  0  0  0  0  # atno 17370 bound_to 10713
  156.6551  130.4496  149.5706 LP  0  0  0  0  0  0  0  0  0  0  0  0  # atno 17371 bound_to 10713
  140.9016  134.2372  157.5038 LP  0  0  0  0  0  0  0  0  0  0  0  0  # atno 17394 bound_to 11000
  139.8705  134.9709  156.4717 LP  0  0  0  0  0  0  0  0  0  0  0  0  # atno 17395 bound_to 11000

$$$$
