AV-unprocessed.smi:49|AV-procd|sdf|470|dock2
  -GOLD-   2262016333D 1   1.00000     0.00000
 Structure written by MMmdl.
 28 29  0  0  0  0  0  0  0  0  2 V2000
  151.9667  144.0898  160.9054 C   0  0  0  0  0  0  0  0  0  0  0  0
  152.9957  143.0800  160.3847 C   0  0  0  0  0  0  0  0  0  0  0  0
  152.4665  142.2677  159.2494 C   0  0  0  0  0  0  0  0  0  0  0  0
  151.8472  142.8261  158.1658 N   0  0  0  0  0  0  0  0  0  0  0  0
  151.5307  141.7288  157.4809 C   0  0  0  0  0  0  0  0  0  0  0  0
  150.8074  141.6863  156.1680 C   0  0  1  0  0  0  0  0  0  0  0  0
  150.6125  140.2876  155.5814 C   0  0  0  0  0  0  0  0  0  0  0  0
  149.2995  140.4178  154.8107 C   0  0  2  0  0  0  0  0  0  0  0  0
  149.5480  140.9155  153.5111 O   0  0  0  0  0  0  0  0  0  0  0  0
  148.4894  141.4469  155.6159 C   0  0  0  0  0  0  0  0  0  0  0  0
  149.4520  142.1987  156.4475 N   0  3  0  0  0  0  0  0  0  0  0  0
  151.9119  140.6137  158.1083 N   0  0  0  0  0  0  0  0  0  0  0  0
  152.5203  140.9372  159.2685 N   0  0  0  0  0  0  0  0  0  0  0  0
  151.2889  142.3438  155.4424 H   0  0  0  0  0  0  0  0  0  0  0  0
  148.7775  139.4641  154.7249 H   0  0  0  0  0  0  0  0  0  0  0  0
  151.7791  139.6592  157.8049 H   0  0  0  0  0  0  0  0  0  0  0  0
  152.3766  144.6706  161.7316 H   0  0  0  0  0  0  0  0  0  0  0  0
  151.0688  143.5866  161.2658 H   0  0  0  0  0  0  0  0  0  0  0  0
  151.6689  144.7879  160.1223 H   0  0  0  0  0  0  0  0  0  0  0  0
  153.8951  143.6038  160.0589 H   0  0  0  0  0  0  0  0  0  0  0  0
  153.3017  142.4134  161.1921 H   0  0  0  0  0  0  0  0  0  0  0  0
  151.4563  139.9494  154.9788 H   0  0  0  0  0  0  0  0  0  0  0  0
  150.4713  139.5641  156.3861 H   0  0  0  0  0  0  0  0  0  0  0  0
  149.3491  140.2367  152.8834 H   0  0  0  0  0  0  0  0  0  0  0  0
  147.9052  142.1155  154.9821 H   0  0  0  0  0  0  0  0  0  0  0  0
  147.7950  140.9393  156.2860 H   0  0  0  0  0  0  0  0  0  0  0  0
  149.2390  142.0261  157.4202 H   0  0  0  0  0  0  0  0  0  0  0  0
  149.4024  143.1896  156.2585 H   0  0  0  0  0  0  0  0  0  0  0  0
  1  2  1  0  0  0  0
  1 17  1  0  0  0  0
  1 18  1  0  0  0  0
  1 19  1  0  0  0  0
  2 20  1  0  0  0  0
  2 21  1  0  0  0  0
  2  3  1  0  0  0  0
  3  4  1  0  0  0  0
  3 13  2  0  0  0  0
  4  5  2  0  0  0  0
  5  6  1  0  0  0  0
  5 12  1  0  0  0  0
  6 14  1  0  0  0  0
  6 11  1  0  0  0  0
  6  7  1  0  0  0  0
  7  8  1  0  0  0  0
  7 22  1  0  0  0  0
  7 23  1  0  0  0  0
  8 15  1  0  0  0  0
  8  9  1  0  0  0  0
  8 10  1  0  0  0  0
  9 24  1  0  0  0  0
 10 11  1  0  0  0  0
 10 25  1  0  0  0  0
 10 26  1  0  0  0  0
 11 27  1  0  0  0  0
 11 28  1  0  0  0  0
 12 13  1  0  0  0  0
 12 16  1  0  0  0  0
M  CHG  1  11   1
M  END
> <s_m_source_file>
AV-unprocessed.smi

> <i_m_source_file_index>
49

> <i_lp_mmshare_version>
43012

> <i_f3d_flags>
0

> <s_epik_input>
W0NIM11bQ0gyXWMxbmMobltuSF0xKVtDQEBIXTJbQ0gyXVtDQEBIXShbT0hdKVtDSDJdW05IXTI=

> <s_epik_cmdline>
J2VwaWtfcHl0aG9uJywgJy1waCcsICc3LjAnLCAnLXRuJywgJzgnLCAnLW1hJywgJzIwMCcsICctbWV0YWxfYmluZGluZycsICctaW1hZScsICc8aW5maWxlLm1hZT4nLCAnLW9tYWUnLCAnPG91dGZpbGUubWFlPic=

> <r_epik_Ionization_Penalty>
0.372103

> <r_epik_Ionization_Penalty_Charging>
0.0688988

> <r_epik_Ionization_Penalty_Neutral>
0.303204

> <r_epik_State_Penalty>
0.737493

> <r_epik_Charging_Adjusted_Penalty>
0.806392

> <i_epik_Tot_Q>
1

> <i_epik_Tot_abs_Q>
1

> <r_epik_Metal_State_Penalty>
1.01235

> <b_epik_Metal_Only>
0

> <s_lp_Force_Field>
OPLS_2005

> <r_lp_Energy>
18.6675

> <b_lp_Chiralities_Consistent>
1

> <s_lp_Variant>
AV-unprocessed.smi:49-8

> <Gold.Version>
5.8.1

> <Gold.Id.Protein>
6NUR|6NUR_protein|mol2

> <Gold.PLP.Fitness>
39.4828

> <Gold.PLP.PLP>
-27.7925

> <Gold.PLP.part.hbond>
-3.9204

> <Gold.PLP.part.metal>
0.0000

> <Gold.PLP.part.buried>
-4.5524

> <Gold.PLP.part.nonpolar>
-19.6167

> <Gold.PLP.part.repulsive>
0.1705

> <Gold.PLP.ligand.clash>
0.0000

> <Gold.PLP.ligand.torsion>
0.1252

> <Gold.PLP.Chemscore.Hbond>
3.9732

> <Gold.PLP.Chemscore.CHOScore>
0.0000

> <Gold.PLP.Chemscore.Metal>
0.0000

> <Gold.Chemscore.Hbonds>
donor molecule, donor type, donor heavy atom, donor atom, acceptor molecule, acceptor atom, score
      L1  H     9    24       P1  7957  0.69
      L1  H    11    28       P1  8028  2.00
      P1  H  7989  7998       L1     9  0.29
      P1  H  8011  8017       L1     9  1.00

> <Gold.PLP.Chemscore.Internal.Correction>
0.0212

> <Gold.Rescore>
     Score         DG    S(hbond)    S(metal)    S(lipo)     H(rot)  DE(clash)    DE(int)     intcor
     14.28     -14.48       2.32        0.00      51.94       1.89       0.00       0.19       ----

> <Gold.Chemscore.Fitness>
14.2808

> <Gold.Chemscore.DG>
-14.4751

> <Gold.Chemscore.ZeroCoef>
-5.4800

> <Gold.Chemscore.Hbond>
2.3211

> <Gold.Chemscore.Metal>
0.0000

> <Gold.Chemscore.Lipo>
51.9354

> <Gold.Chemscore.Internal_Hbond>
0.0000

> <Gold.Chemscore.DEClash>
0.0044

> <Gold.Chemscore.DEInternal>
0.1899

> <Gold.Chemscore.Rot>
1.8883

> <Gold.Chemscore.Internal.Correction>
   9.000000E+99

> <Gold.Chemscore.Hbonds>
donor molecule, donor type, donor heavy atom, donor atom, acceptor molecule, acceptor atom, score
      L1  H     9    24       P1  7957  0.68
      L1  H    11    28       P1  8028  1.00
      P1  H  7989  7998       L1     9  0.03
      P1  H  8011  8017       L1     9  0.25

> <Gold.Chemscore.Hbond.Weighted>
-7.7526

> <Gold.Chemscore.Metal.Weighted>
-0.0000

> <Gold.Chemscore.Lipo.Weighted>
-6.0764

> <Gold.Chemscore.Internal_Hbond.Weighted>
0.0000

> <Gold.Chemscore.DEClash.Weighted>
0.0044

> <Gold.Chemscore.DEInternal.Weighted>
0.1899

> <Gold.Chemscore.Rot.Weighted>
4.8340

> <Gold.Chemscore.Internal.Correction.Weighted>
   9.000000E+99

> <Gold.Protein.RotatedTorsions>
[ 6907 6896 6895 6894 ] final  -83.90 input  -60.11 | X-H torsion
[ 7974 7965 7964 7962 ] final  130.41 input  175.53 | X-H torsion
[ 8008 7997 7996 7995 ] final  -28.19 input   59.86 | X-H torsion
[ 10167 10162 10161 10158 ] final   53.15 input  -65.29 | X-H torsion
[ 10718 10713 10712 10709 ] final  136.33 input   66.30 | X-H torsion
[ 10763 10752 10751 10750 ] final    9.66 input  -60.55 | X-H torsion
[ 11005 11000 10999 10996 ] final  143.61 input  -57.11 | X-H torsion

> <Gold.Protein.ActiveResidues>
 VAL166  LYS551  ARG553  GLY616  TRP617  ASP618  TYR619  PRO620  LYS621  CYS622 
 ASP623  PHE694  ASN695  SER759  ASP760  ASP761  ALA762  ILE779  LEU786  VAL792 
 PHE793  MET794  SER795  GLU796  ALA797  LYS798  CYS799  TRP800  GLU811  SER814 

> <Gold.Protein.RotatedAtoms>
  150.6881  134.3441  159.4880 H   0  0  0  0  0  0  0  0  0  0  0  0  # atno 6907 bound_to 6896
  152.1291  134.9146  160.0569 H   0  0  0  0  0  0  0  0  0  0  0  0  # atno 6908 bound_to 6896
  152.0323  133.3907  159.4339 H   0  0  0  0  0  0  0  0  0  0  0  0  # atno 6909 bound_to 6896
  145.0183  139.4156  143.5210 H   0  0  0  0  0  0  0  0  0  0  0  0  # atno 7974 bound_to 7965
  154.4343  140.1852  156.1051 H   0  0  0  0  0  0  0  0  0  0  0  0  # atno 8008 bound_to 7997
  156.0262  140.3335  155.7065 H   0  0  0  0  0  0  0  0  0  0  0  0  # atno 8009 bound_to 7997
  155.5905  140.0630  157.2750 H   0  0  0  0  0  0  0  0  0  0  0  0  # atno 8010 bound_to 7997
  140.2438  144.3554  150.6371 H   0  0  0  0  0  0  0  0  0  0  0  0  # atno 10167 bound_to 10162
  157.4477  131.1063  151.0070 H   0  0  0  0  0  0  0  0  0  0  0  0  # atno 10718 bound_to 10713
  153.2116  135.6869  153.8107 H   0  0  0  0  0  0  0  0  0  0  0  0  # atno 10763 bound_to 10752
  153.7338  135.3248  155.3292 H   0  0  0  0  0  0  0  0  0  0  0  0  # atno 10764 bound_to 10752
  154.8225  135.4642  154.0926 H   0  0  0  0  0  0  0  0  0  0  0  0  # atno 10765 bound_to 10752
  140.0567  134.9227  157.1113 H   0  0  0  0  0  0  0  0  0  0  0  0  # atno 11005 bound_to 11000
  146.3481  139.9666  142.8711 LP  0  0  0  0  0  0  0  0  0  0  0  0  # atno 17320 bound_to 7965
  145.1930  140.9820  143.4200 LP  0  0  0  0  0  0  0  0  0  0  0  0  # atno 17321 bound_to 7965
  140.6093  143.2169  151.6918 LP  0  0  0  0  0  0  0  0  0  0  0  0  # atno 17342 bound_to 10162
  139.5068  144.3667  152.0510 LP  0  0  0  0  0  0  0  0  0  0  0  0  # atno 17343 bound_to 10162
  157.0910  130.5942  149.5440 LP  0  0  0  0  0  0  0  0  0  0  0  0  # atno 17370 bound_to 10713
  155.9974  130.5046  150.7533 LP  0  0  0  0  0  0  0  0  0  0  0  0  # atno 17371 bound_to 10713
  140.3833  134.2263  155.7170 LP  0  0  0  0  0  0  0  0  0  0  0  0  # atno 17394 bound_to 11000
  141.1955  133.8104  157.0712 LP  0  0  0  0  0  0  0  0  0  0  0  0  # atno 17395 bound_to 11000

$$$$
