AV-unprocessed.smi:2736|AV-procd|sdf|10546|dock5
  -GOLD-   2272014593D 1   1.00000     0.00000
 Structure written by MMmdl.
 38 40  0  0  0  0  0  0  0  0  1 V2000
  156.0068  140.2731  160.0660 C   0  0  0  0  0  0  0  0  0  0  0  0
  154.6313  140.8022  160.0083 N   0  0  0  0  0  0  0  0  0  0  0  0
  153.7847  140.3051  159.0524 C   0  0  0  0  0  0  0  0  0  0  0  0
  154.0864  139.4419  158.2275 O   0  0  0  0  0  0  0  0  0  0  0  0
  152.4430  140.8989  159.0797 C   0  0  0  0  0  0  0  0  0  0  0  0
  152.0779  141.8570  159.9671 C   0  0  0  0  0  0  0  0  0  0  0  0
  150.7590  142.2512  159.7700 N   0  0  0  0  0  0  0  0  0  0  0  0
  150.3896  141.4871  158.7419 C   0  0  0  0  0  0  0  0  0  0  0  0
  151.3357  140.6515  158.2683 N   0  0  0  0  0  0  0  0  0  0  0  0
  151.1765  139.7279  157.1549 C   0  0  0  0  0  0  0  0  0  0  0  0
  150.8059  140.4421  155.8393 C   0  0  1  0  0  0  0  0  0  0  0  0
  151.7508  140.1287  154.8328 O   0  0  0  0  0  0  0  0  0  0  0  0
  149.3714  140.1226  155.4247 C   0  0  0  0  0  0  0  0  0  0  0  0
  148.3945  141.1456  155.4185 C   0  0  0  0  0  0  0  0  0  0  0  0
  147.0682  140.8692  155.0361 C   0  0  0  0  0  0  0  0  0  0  0  0
  146.7049  139.5670  154.6491 C   0  0  0  0  0  0  0  0  0  0  0  0
  147.6709  138.5443  154.6390 C   0  0  0  0  0  0  0  0  0  0  0  0
  149.0007  138.8150  155.0197 C   0  0  0  0  0  0  0  0  0  0  0  0
  150.1502  137.5240  154.9659 Cl  0  0  0  0  0  0  0  0  0  0  0  0
  153.0365  142.3027  160.9137 N   0  0  0  0  0  0  0  0  0  0  0  0
  152.6598  143.3421  161.8759 C   0  0  0  0  0  0  0  0  0  0  0  0
  154.3063  141.7821  160.9302 C   0  0  0  0  0  0  0  0  0  0  0  0
  155.1345  142.1865  161.7515 O   0  0  0  0  0  0  0  0  0  0  0  0
  156.2034  139.4344  159.3975 H   0  0  0  0  0  0  0  0  0  0  0  0
  156.2432  139.9201  161.0712 H   0  0  0  0  0  0  0  0  0  0  0  0
  156.7217  141.0565  159.8091 H   0  0  0  0  0  0  0  0  0  0  0  0
  149.3982  141.5386  158.3162 H   0  0  0  0  0  0  0  0  0  0  0  0
  152.0808  139.1322  157.0374 H   0  0  0  0  0  0  0  0  0  0  0  0
  150.3901  139.0209  157.4222 H   0  0  0  0  0  0  0  0  0  0  0  0
  150.8972  141.5181  155.9852 H   0  0  0  0  0  0  0  0  0  0  0  0
  152.4167  139.5737  155.2095 H   0  0  0  0  0  0  0  0  0  0  0  0
  148.6557  142.1539  155.7048 H   0  0  0  0  0  0  0  0  0  0  0  0
  146.3299  141.6577  155.0384 H   0  0  0  0  0  0  0  0  0  0  0  0
  145.6878  139.3537  154.3550 H   0  0  0  0  0  0  0  0  0  0  0  0
  147.3898  137.5471  154.3337 H   0  0  0  0  0  0  0  0  0  0  0  0
  152.8071  142.9919  162.8984 H   0  0  0  0  0  0  0  0  0  0  0  0
  151.6162  143.6429  161.7863 H   0  0  0  0  0  0  0  0  0  0  0  0
  153.2691  144.2352  161.7297 H   0  0  0  0  0  0  0  0  0  0  0  0
  1  2  1  0  0  0  0
  1 24  1  0  0  0  0
  1 25  1  0  0  0  0
  1 26  1  0  0  0  0
  2 22  1  0  0  0  0
  2  3  1  0  0  0  0
  3  4  2  0  0  0  0
  3  5  1  0  0  0  0
  5  9  1  0  0  0  0
  5  6  2  0  0  0  0
  6  7  1  0  0  0  0
  6 20  1  0  0  0  0
  7  8  2  0  0  0  0
  8  9  1  0  0  0  0
  8 27  1  0  0  0  0
  9 10  1  0  0  0  0
 10 11  1  0  0  0  0
 10 28  1  0  0  0  0
 10 29  1  0  0  0  0
 11 12  1  0  0  0  0
 11 13  1  0  0  0  0
 11 30  1  0  0  0  0
 12 31  1  0  0  0  0
 13 18  1  0  0  0  0
 13 14  2  0  0  0  0
 14 15  1  0  0  0  0
 14 32  1  0  0  0  0
 15 16  2  0  0  0  0
 15 33  1  0  0  0  0
 16 17  1  0  0  0  0
 16 34  1  0  0  0  0
 17 18  2  0  0  0  0
 17 35  1  0  0  0  0
 18 19  1  0  0  0  0
 20 21  1  0  0  0  0
 20 22  1  0  0  0  0
 21 36  1  0  0  0  0
 21 37  1  0  0  0  0
 21 38  1  0  0  0  0
 22 23  2  0  0  0  0
M  END
> <s_m_source_file>
AV-unprocessed.smi

> <i_m_source_file_index>
2736

> <i_lp_mmshare_version>
43012

> <i_f3d_flags>
0

> <s_epik_input>
Tz1jMW4oW0NIM10pYyg9TyluKFtDSDNdKWMoYzEyKW5bY0hdbjJbQ0gyXVtDQEhdKFtPSF0pYzNbY0hdW2NIXVtjSF1bY0hdYzNDbA==

> <s_epik_cmdline>
J2VwaWtfcHl0aG9uJywgJy1waCcsICc3LjAnLCAnLXRuJywgJzgnLCAnLW1hJywgJzIwMCcsICctbWV0YWxfYmluZGluZycsICctaW1hZScsICc8aW5maWxlLm1hZT4nLCAnLW9tYWUnLCAnPG91dGZpbGUubWFlPic=

> <r_lp_tautomer_probability>
1

> <r_epik_Ionization_Penalty>
1.63404e-06

> <r_epik_Ionization_Penalty_Charging>
3.74189e-09

> <r_epik_Ionization_Penalty_Neutral>
1.63029e-06

> <r_epik_State_Penalty>
-0

> <r_epik_Charging_Adjusted_Penalty>
3.74189e-09

> <i_epik_Tot_Q>
0

> <i_epik_Tot_abs_Q>
0

> <r_epik_Metal_State_Penalty>
-0

> <b_epik_Metal_Only>
0

> <s_lp_Force_Field>
OPLS_2005

> <r_lp_Energy>
36.7388

> <b_lp_Chiralities_Consistent>
1

> <s_lp_Variant>
AV-unprocessed.smi:2736-2

> <Gold.Version>
5.8.1

> <Gold.Id.Protein>
6NUR|6NUR_protein|mol2

> <Gold.PLP.Fitness>
51.1679

> <Gold.PLP.PLP>
-49.2587

> <Gold.PLP.part.hbond>
-4.2203

> <Gold.PLP.part.metal>
0.0000

> <Gold.PLP.part.buried>
-1.3109

> <Gold.PLP.part.nonpolar>
-43.8266

> <Gold.PLP.part.repulsive>
0.0032

> <Gold.PLP.ligand.clash>
0.0000

> <Gold.PLP.ligand.torsion>
0.7821

> <Gold.PLP.Chemscore.Hbond>
1.1480

> <Gold.PLP.Chemscore.CHOScore>
0.0000

> <Gold.PLP.Chemscore.Metal>
0.0000

> <Gold.Chemscore.Hbonds>
donor molecule, donor type, donor heavy atom, donor atom, acceptor molecule, acceptor atom, score
      P1  H  7989  7998       L1    12  0.94
      P1  H  7997  8010       L1     4  0.68

> <Gold.PLP.Chemscore.Internal.Correction>
0.0295

> <Gold.Rescore>
     Score         DG    S(hbond)    S(metal)    S(lipo)     H(rot)  DE(clash)    DE(int)     intcor
      9.37     -10.51       0.83        0.00      66.22       2.15       0.15       0.99       ----

> <Gold.Chemscore.Fitness>
9.3669

> <Gold.Chemscore.DG>
-10.5051

> <Gold.Chemscore.ZeroCoef>
-5.4800

> <Gold.Chemscore.Hbond>
0.8309

> <Gold.Chemscore.Metal>
0.0000

> <Gold.Chemscore.Lipo>
66.2166

> <Gold.Chemscore.Internal_Hbond>
0.0000

> <Gold.Chemscore.DEClash>
0.1516

> <Gold.Chemscore.DEInternal>
0.9866

> <Gold.Chemscore.Rot>
2.1474

> <Gold.Chemscore.Internal.Correction>
   9.000000E+99

> <Gold.Chemscore.Hbonds>
donor molecule, donor type, donor heavy atom, donor atom, acceptor molecule, acceptor atom, score
      P1  H  7989  7998       L1    12  0.81
      P1  H  7997  8010       L1     4  0.48

> <Gold.Chemscore.Hbond.Weighted>
-2.7751

> <Gold.Chemscore.Metal.Weighted>
-0.0000

> <Gold.Chemscore.Lipo.Weighted>
-7.7473

> <Gold.Chemscore.Internal_Hbond.Weighted>
0.0000

> <Gold.Chemscore.DEClash.Weighted>
0.1516

> <Gold.Chemscore.DEInternal.Weighted>
0.9866

> <Gold.Chemscore.Rot.Weighted>
5.4974

> <Gold.Chemscore.Internal.Correction.Weighted>
   9.000000E+99

> <Gold.Protein.RotatedTorsions>
[ 6907 6896 6895 6894 ] final   84.75 input  -60.11 | X-H torsion
[ 7974 7965 7964 7962 ] final -125.68 input  175.53 | X-H torsion
[ 8008 7997 7996 7995 ] final    8.16 input   59.86 | X-H torsion
[ 10167 10162 10161 10158 ] final   27.98 input  -65.29 | X-H torsion
[ 10718 10713 10712 10709 ] final  169.63 input   66.30 | X-H torsion
[ 10763 10752 10751 10750 ] final  -23.69 input  -60.55 | X-H torsion
[ 11005 11000 10999 10996 ] final  -86.28 input  -57.11 | X-H torsion

> <Gold.Protein.ActiveResidues>
 VAL166  LYS551  ARG553  GLY616  TRP617  ASP618  TYR619  PRO620  LYS621  CYS622 
 ASP623  PHE694  ASN695  SER759  ASP760  ASP761  ALA762  ILE779  LEU786  VAL792 
 PHE793  MET794  SER795  GLU796  ALA797  LYS798  CYS799  TRP800  GLU811  SER814 

> <Gold.Protein.RotatedAtoms>
  152.5359  134.2693  159.8964 H   0  0  0  0  0  0  0  0  0  0  0  0  # atno 6907 bound_to 6896
  151.2650  133.4276  159.2626 H   0  0  0  0  0  0  0  0  0  0  0  0  # atno 6908 bound_to 6896
  151.0419  134.9627  159.8222 H   0  0  0  0  0  0  0  0  0  0  0  0  # atno 6909 bound_to 6896
  144.9951  140.7768  143.4530 H   0  0  0  0  0  0  0  0  0  0  0  0  # atno 7974 bound_to 7965
  154.7632  140.2788  155.6197 H   0  0  0  0  0  0  0  0  0  0  0  0  # atno 8008 bound_to 7997
  156.2920  140.2656  156.2343 H   0  0  0  0  0  0  0  0  0  0  0  0  # atno 8009 bound_to 7997
  154.9991  140.0373  157.2342 H   0  0  0  0  0  0  0  0  0  0  0  0  # atno 8010 bound_to 7997
  140.4892  144.0493  150.6291 H   0  0  0  0  0  0  0  0  0  0  0  0  # atno 10167 bound_to 10162
  157.0199  131.0229  151.2778 H   0  0  0  0  0  0  0  0  0  0  0  0  # atno 10718 bound_to 10713
  153.6718  135.6971  153.5145 H   0  0  0  0  0  0  0  0  0  0  0  0  # atno 10763 bound_to 10752
  153.2552  135.4262  155.0837 H   0  0  0  0  0  0  0  0  0  0  0  0  # atno 10764 bound_to 10752
  154.8424  135.3541  154.6262 H   0  0  0  0  0  0  0  0  0  0  0  0  # atno 10765 bound_to 10752
  141.1632  133.7446  156.9138 H   0  0  0  0  0  0  0  0  0  0  0  0  # atno 11005 bound_to 11000
  145.2231  139.2150  143.5082 LP  0  0  0  0  0  0  0  0  0  0  0  0  # atno 17320 bound_to 7965
  146.3440  140.2093  142.8590 LP  0  0  0  0  0  0  0  0  0  0  0  0  # atno 17321 bound_to 7965
  140.3758  143.2829  152.0227 LP  0  0  0  0  0  0  0  0  0  0  0  0  # atno 17342 bound_to 10162
  139.4848  144.6194  151.7284 LP  0  0  0  0  0  0  0  0  0  0  0  0  # atno 17343 bound_to 10162
  157.5257  130.8026  149.7860 LP  0  0  0  0  0  0  0  0  0  0  0  0  # atno 17370 bound_to 10713
  156.0106  130.3835  150.2278 LP  0  0  0  0  0  0  0  0  0  0  0  0  # atno 17371 bound_to 10713
  140.1498  134.9237  157.2578 LP  0  0  0  0  0  0  0  0  0  0  0  0  # atno 17394 bound_to 11000
  140.2736  134.3432  155.7365 LP  0  0  0  0  0  0  0  0  0  0  0  0  # atno 17395 bound_to 11000

$$$$
