AV-unprocessed.smi:2799|AV-procd|sdf|10789|dock1
  -GOLD-   2272015223D 1   1.00000     0.00000
 Structure written by MMmdl.
 52 53  0  0  0  0  0  0  0  0  2 V2000
  149.8055  133.5873  153.6768 C   0  0  0  0  0  0  0  0  0  0  0  0
  150.2224  134.1783  155.0337 C   0  0  0  0  0  0  0  0  0  0  0  0
  150.2557  133.0816  156.1087 C   0  0  0  0  0  0  0  0  0  0  0  0
  149.3007  135.3368  155.4642 C   0  0  0  0  0  0  0  0  0  0  0  0
  149.5703  136.5769  154.6801 N   0  3  2  0  0  0  0  0  0  0  0  0
  151.0113  136.9419  154.7864 C   0  0  0  0  0  0  0  0  0  0  0  0
  151.3785  138.1414  153.9094 C   0  0  0  0  0  0  0  0  0  0  0  0
  150.5303  139.3446  154.3097 C   0  0  0  0  0  0  0  0  0  0  0  0
  149.0516  138.9844  154.1611 C   0  0  0  0  0  0  0  0  0  0  0  0
  148.6383  137.7200  154.9632 C   0  0  1  0  0  0  0  0  0  0  0  0
  147.1629  137.3577  154.6254 C   0  0  0  0  0  0  0  0  0  0  0  0
  147.0515  136.3458  153.5769 N   0  0  0  0  0  0  0  0  0  0  0  0
  146.0203  135.5047  153.4099 C   0  0  0  0  0  0  0  0  0  0  0  0
  145.0443  135.4780  154.1589 O   0  0  0  0  0  0  0  0  0  0  0  0
  146.2066  134.7281  152.3267 N   0  0  0  0  0  0  0  0  0  0  0  0
  145.3898  133.7083  151.8069 C   0  0  0  0  0  0  0  0  0  0  0  0
  144.1695  133.9054  151.2473 C   0  0  0  0  0  0  0  0  0  0  0  0
  143.3956  132.7954  150.7453 C   0  0  0  0  0  0  0  0  0  0  0  0
  143.9046  131.5607  150.8575 C   0  0  0  0  0  0  0  0  0  0  0  0
  145.1595  131.3315  151.4462 N   0  0  0  0  0  0  0  0  0  0  0  0
  145.6291  129.9456  151.5213 C   0  0  0  0  0  0  0  0  0  0  0  0
  145.9398  132.3437  151.9295 C   0  0  0  0  0  0  0  0  0  0  0  0
  147.0406  132.1145  152.4367 O   0  0  0  0  0  0  0  0  0  0  0  0
  148.7864  133.2004  153.7092 H   0  0  0  0  0  0  0  0  0  0  0  0
  150.4628  132.7666  153.3880 H   0  0  0  0  0  0  0  0  0  0  0  0
  149.8536  134.3334  152.8835 H   0  0  0  0  0  0  0  0  0  0  0  0
  151.2385  134.5621  154.9343 H   0  0  0  0  0  0  0  0  0  0  0  0
  149.2680  132.6451  156.2613 H   0  0  0  0  0  0  0  0  0  0  0  0
  150.5966  133.4772  157.0658 H   0  0  0  0  0  0  0  0  0  0  0  0
  150.9351  132.2760  155.8283 H   0  0  0  0  0  0  0  0  0  0  0  0
  148.2659  135.0109  155.4015 H   0  0  0  0  0  0  0  0  0  0  0  0
  149.4423  135.5416  156.5268 H   0  0  0  0  0  0  0  0  0  0  0  0
  151.2550  137.1654  155.8265 H   0  0  0  0  0  0  0  0  0  0  0  0
  151.6251  136.0883  154.4963 H   0  0  0  0  0  0  0  0  0  0  0  0
  152.4372  138.3770  154.0222 H   0  0  0  0  0  0  0  0  0  0  0  0
  151.2210  137.9005  152.8571 H   0  0  0  0  0  0  0  0  0  0  0  0
  150.7451  139.6323  155.3398 H   0  0  0  0  0  0  0  0  0  0  0  0
  150.7742  140.2040  153.6846 H   0  0  0  0  0  0  0  0  0  0  0  0
  148.4597  139.8446  154.4740 H   0  0  0  0  0  0  0  0  0  0  0  0
  148.8312  138.8320  153.1033 H   0  0  0  0  0  0  0  0  0  0  0  0
  148.7133  137.9482  156.0278 H   0  0  0  0  0  0  0  0  0  0  0  0
  146.6421  137.0401  155.5301 H   0  0  0  0  0  0  0  0  0  0  0  0
  146.6011  138.2098  154.2515 H   0  0  0  0  0  0  0  0  0  0  0  0
  147.8099  136.2973  152.9120 H   0  0  0  0  0  0  0  0  0  0  0  0
  147.0329  134.9175  151.7780 H   0  0  0  0  0  0  0  0  0  0  0  0
  143.7284  134.8856  151.1703 H   0  0  0  0  0  0  0  0  0  0  0  0
  142.4307  132.9564  150.2879 H   0  0  0  0  0  0  0  0  0  0  0  0
  143.3885  130.6798  150.5045 H   0  0  0  0  0  0  0  0  0  0  0  0
  145.9061  129.6837  152.5436 H   0  0  0  0  0  0  0  0  0  0  0  0
  146.5046  129.8069  150.8854 H   0  0  0  0  0  0  0  0  0  0  0  0
  144.8736  129.2274  151.2006 H   0  0  0  0  0  0  0  0  0  0  0  0
  149.4089  136.3376  153.7121 H   0  0  0  0  0  0  0  0  0  0  0  0
  1  2  1  0  0  0  0
  1 24  1  0  0  0  0
  1 25  1  0  0  0  0
  1 26  1  0  0  0  0
  2  3  1  0  0  0  0
  2  4  1  0  0  0  0
  2 27  1  0  0  0  0
  3 28  1  0  0  0  0
  3 29  1  0  0  0  0
  3 30  1  0  0  0  0
  4  5  1  0  0  0  0
  4 31  1  0  0  0  0
  4 32  1  0  0  0  0
  5 10  1  0  0  0  0
  5  6  1  0  0  0  0
  5 52  1  0  0  0  0
  6  7  1  0  0  0  0
  6 33  1  0  0  0  0
  6 34  1  0  0  0  0
  7  8  1  0  0  0  0
  7 35  1  0  0  0  0
  7 36  1  0  0  0  0
  8  9  1  0  0  0  0
  8 37  1  0  0  0  0
  8 38  1  0  0  0  0
  9 10  1  0  0  0  0
  9 39  1  0  0  0  0
  9 40  1  0  0  0  0
 10 11  1  0  0  0  0
 10 41  1  0  0  0  0
 11 12  1  0  0  0  0
 11 42  1  0  0  0  0
 11 43  1  0  0  0  0
 12 13  1  0  0  0  0
 12 44  1  0  0  0  0
 13 14  2  0  0  0  0
 13 15  1  0  0  0  0
 15 16  1  0  0  0  0
 15 45  1  0  0  0  0
 16 22  1  0  0  0  0
 16 17  2  0  0  0  0
 17 18  1  0  0  0  0
 17 46  1  0  0  0  0
 18 19  2  0  0  0  0
 18 47  1  0  0  0  0
 19 20  1  0  0  0  0
 19 48  1  0  0  0  0
 20 21  1  0  0  0  0
 20 22  1  0  0  0  0
 21 49  1  0  0  0  0
 21 50  1  0  0  0  0
 21 51  1  0  0  0  0
 22 23  2  0  0  0  0
M  CHG  1   5   1
M  END
> <s_m_source_file>
AV-unprocessed.smi

> <i_m_source_file_index>
2799

> <i_lp_mmshare_version>
43012

> <i_f3d_flags>
0

> <s_epik_input>
W0NIM11bQ0hdKFtDSDNdKVtDSDJdTjFbQ0gyXVtDSDJdW0NIMl1bQ0gyXVtDQEhdMVtDSDJdW05IXUMoPU8pW05IXWMyW2NIXVtjSF1bY0hdbihbQ0gzXSljMj1P

> <s_epik_cmdline>
J2VwaWtfcHl0aG9uJywgJy1waCcsICc3LjAnLCAnLXRuJywgJzgnLCAnLW1hJywgJzIwMCcsICctbWV0YWxfYmluZGluZycsICctaW1hZScsICc8aW5maWxlLm1hZT4nLCAnLW9tYWUnLCAnPG91dGZpbGUubWFlPic=

> <r_lp_tautomer_probability>
1

> <r_epik_Ionization_Penalty>
0.0010885

> <r_epik_Ionization_Penalty_Charging>
0.00106921

> <r_epik_Ionization_Penalty_Neutral>
1.92865e-05

> <r_epik_State_Penalty>
0.000697184

> <r_epik_Charging_Adjusted_Penalty>
0.0017664

> <i_epik_Tot_Q>
1

> <i_epik_Tot_abs_Q>
1

> <r_epik_Metal_State_Penalty>
-0

> <b_epik_Metal_Only>
0

> <s_lp_Force_Field>
OPLS_2005

> <r_lp_Energy>
37.4199

> <b_lp_Chiralities_Consistent>
1

> <s_lp_Variant>
AV-unprocessed.smi:2799-1

> <Gold.Version>
5.8.1

> <Gold.Id.Protein>
6NUR|6NUR_protein|mol2

> <Gold.PLP.Fitness>
47.0555

> <Gold.PLP.PLP>
-37.0813

> <Gold.PLP.part.hbond>
-2.7772

> <Gold.PLP.part.metal>
0.0000

> <Gold.PLP.part.buried>
-2.7859

> <Gold.PLP.part.nonpolar>
-31.9514

> <Gold.PLP.part.repulsive>
0.1787

> <Gold.PLP.ligand.clash>
0.0000

> <Gold.PLP.ligand.torsion>
1.4177

> <Gold.PLP.Chemscore.Hbond>
3.3566

> <Gold.PLP.Chemscore.CHOScore>
0.8558

> <Gold.PLP.Chemscore.Metal>
0.0000

> <Gold.Chemscore.Hbonds>
donor molecule, donor type, donor heavy atom, donor atom, acceptor molecule, acceptor atom, score
      L1  H     5    52       P1  7948  2.00
      L1  H    12    44       P1  7948  1.00
      L1  H    15    45       P1  7948  0.29
      L1  C    19    48       P1 10952  0.45

> <Gold.PLP.Chemscore.Internal.Correction>
0.1725

> <Gold.Rescore>
     Score         DG    S(hbond)    S(metal)    S(lipo)     H(rot)  DE(clash)    DE(int)     intcor
     18.94     -20.54       2.55        0.00      90.32       1.57       0.08       1.53       ----

> <Gold.Chemscore.Fitness>
18.9361

> <Gold.Chemscore.DG>
-20.5437

> <Gold.Chemscore.ZeroCoef>
-5.4800

> <Gold.Chemscore.Hbond>
2.5486

> <Gold.Chemscore.Metal>
0.0000

> <Gold.Chemscore.Lipo>
90.3196

> <Gold.Chemscore.Internal_Hbond>
0.0000

> <Gold.Chemscore.DEClash>
0.0777

> <Gold.Chemscore.DEInternal>
1.5298

> <Gold.Chemscore.Rot>
1.5688

> <Gold.Chemscore.Internal.Correction>
   9.000000E+99

> <Gold.Chemscore.Hbonds>
donor molecule, donor type, donor heavy atom, donor atom, acceptor molecule, acceptor atom, score
      L1  H     5    52       P1  7948  0.78
      L1  H    12    44       P1  7948  0.95
      L1  H    15    45       P1  7948  0.28

> <Gold.Chemscore.Hbond.Weighted>
-8.5124

> <Gold.Chemscore.Metal.Weighted>
-0.0000

> <Gold.Chemscore.Lipo.Weighted>
-10.5674

> <Gold.Chemscore.Internal_Hbond.Weighted>
0.0000

> <Gold.Chemscore.DEClash.Weighted>
0.0777

> <Gold.Chemscore.DEInternal.Weighted>
1.5298

> <Gold.Chemscore.Rot.Weighted>
4.0161

> <Gold.Chemscore.Internal.Correction.Weighted>
   9.000000E+99

> <Gold.Protein.RotatedTorsions>
[ 6907 6896 6895 6894 ] final -178.63 input  -60.11 | X-H torsion
[ 7974 7965 7964 7962 ] final   10.81 input  175.53 | X-H torsion
[ 8008 7997 7996 7995 ] final   64.79 input   59.86 | X-H torsion
[ 10167 10162 10161 10158 ] final  -54.43 input  -65.29 | X-H torsion
[ 10718 10713 10712 10709 ] final   21.86 input   66.30 | X-H torsion
[ 10763 10752 10751 10750 ] final  -45.62 input  -60.55 | X-H torsion
[ 11005 11000 10999 10996 ] final  -27.15 input  -57.11 | X-H torsion

> <Gold.Protein.ActiveResidues>
 VAL166  LYS551  ARG553  GLY616  TRP617  ASP618  TYR619  PRO620  LYS621  CYS622 
 ASP623  PHE694  ASN695  SER759  ASP760  ASP761  ALA762  ILE779  LEU786  VAL792 
 PHE793  MET794  SER795  GLU796  ALA797  LYS798  CYS799  TRP800  GLU811  SER814 

> <Gold.Protein.RotatedAtoms>
  151.6404  133.3326  159.3128 H   0  0  0  0  0  0  0  0  0  0  0  0  # atno 6907 bound_to 6896
  150.8011  134.7109  159.6612 H   0  0  0  0  0  0  0  0  0  0  0  0  # atno 6908 bound_to 6896
  152.4103  134.6140  160.0084 H   0  0  0  0  0  0  0  0  0  0  0  0  # atno 6909 bound_to 6896
  146.2382  139.9578  142.8462 H   0  0  0  0  0  0  0  0  0  0  0  0  # atno 7974 bound_to 7965
  155.6515  140.3497  155.4750 H   0  0  0  0  0  0  0  0  0  0  0  0  # atno 8008 bound_to 7997
  155.9843  140.1181  157.0720 H   0  0  0  0  0  0  0  0  0  0  0  0  # atno 8009 bound_to 7997
  154.4200  140.1132  156.5465 H   0  0  0  0  0  0  0  0  0  0  0  0  # atno 8010 bound_to 7997
  140.6431  143.2519  151.4935 H   0  0  0  0  0  0  0  0  0  0  0  0  # atno 10167 bound_to 10162
  157.1443  130.6646  149.5991 H   0  0  0  0  0  0  0  0  0  0  0  0  # atno 10718 bound_to 10713
  154.0316  135.6656  153.4781 H   0  0  0  0  0  0  0  0  0  0  0  0  # atno 10763 bound_to 10752
  153.0538  135.5068  154.7927 H   0  0  0  0  0  0  0  0  0  0  0  0  # atno 10764 bound_to 10752
  154.6874  135.3055  154.9493 H   0  0  0  0  0  0  0  0  0  0  0  0  # atno 10765 bound_to 10752
  140.9093  133.7471  156.0649 H   0  0  0  0  0  0  0  0  0  0  0  0  # atno 11005 bound_to 11000
  145.1800  140.9762  143.4272 LP  0  0  0  0  0  0  0  0  0  0  0  0  # atno 17320 bound_to 7965
  144.9951  139.3652  143.6195 LP  0  0  0  0  0  0  0  0  0  0  0  0  # atno 17321 bound_to 7965
  139.5640  144.2086  152.1737 LP  0  0  0  0  0  0  0  0  0  0  0  0  # atno 17342 bound_to 10162
  140.1362  144.5243  150.6772 LP  0  0  0  0  0  0  0  0  0  0  0  0  # atno 17343 bound_to 10162
  155.9782  130.4766  150.6643 LP  0  0  0  0  0  0  0  0  0  0  0  0  # atno 17370 bound_to 10713
  157.4278  131.0845  151.1068 LP  0  0  0  0  0  0  0  0  0  0  0  0  # atno 17371 bound_to 10713
  140.8131  134.3377  157.5406 LP  0  0  0  0  0  0  0  0  0  0  0  0  # atno 17394 bound_to 11000
  139.8755  134.9265  156.3402 LP  0  0  0  0  0  0  0  0  0  0  0  0  # atno 17395 bound_to 11000

$$$$
