AV-unprocessed.smi:1484|AV-procd|sdf|5997|dock9
  -GOLD-   22720 6 93D 1   1.00000     0.00000
 Structure written by MMmdl.
 38 39  0  0  0  0  0  0  0  0  1 V2000
  151.8674  145.4862  159.8825 C   0  0  0  0  0  0  0  0  0  0  0  0
  152.0197  143.9762  160.1130 C   0  0  2  0  0  0  0  0  0  0  0  0
  152.3872  143.6641  161.5762 C   0  0  0  0  0  0  0  0  0  0  0  0
  152.5442  142.1533  161.8098 C   0  0  0  0  0  0  0  0  0  0  0  0
  153.5766  141.5410  160.8473 C   0  0  0  0  0  0  0  0  0  0  0  0
  153.2487  141.8455  159.3730 C   0  0  1  0  0  0  0  0  0  0  0  0
  152.0681  141.0927  158.9524 N   0  0  0  0  0  0  0  0  0  0  0  0
  152.0469  140.1327  158.0156 C   0  0  0  0  0  0  0  0  0  0  0  0
  153.0470  139.7784  157.3897 O   0  0  0  0  0  0  0  0  0  0  0  0
  150.6755  139.4996  157.7388 C   0  0  0  0  0  0  0  0  0  0  0  0
  150.0323  140.0038  156.5171 N   0  0  0  0  0  0  0  0  0  0  0  0
  149.8251  139.0361  155.5458 N   0  0  0  0  0  0  0  0  0  0  0  0
  149.2547  139.3516  154.4325 C   0  0  0  0  0  0  0  0  0  0  0  0
  149.0660  138.3619  153.4993 O   0  0  0  0  0  0  0  0  0  0  0  0
  148.8256  140.7077  154.1695 C   0  0  0  0  0  0  0  0  0  0  0  0
  149.0359  141.6443  155.1200 C   0  0  0  0  0  0  0  0  0  0  0  0
  149.6790  141.3202  156.3947 C   0  0  0  0  0  0  0  0  0  0  0  0
  149.8828  142.1530  157.2777 O   0  0  0  0  0  0  0  0  0  0  0  0
  153.0606  143.3628  159.1531 C   0  0  0  0  0  0  0  0  0  0  0  0
  149.1364  138.7903  152.6602 H   0  0  0  0  0  0  0  0  0  0  0  0
  152.8013  146.0139  160.0790 H   0  0  0  0  0  0  0  0  0  0  0  0
  151.1023  145.9080  160.5351 H   0  0  0  0  0  0  0  0  0  0  0  0
  151.5751  145.6981  158.8535 H   0  0  0  0  0  0  0  0  0  0  0  0
  151.0521  143.5179  159.9032 H   0  0  0  0  0  0  0  0  0  0  0  0
  153.3175  144.1698  161.8390 H   0  0  0  0  0  0  0  0  0  0  0  0
  151.6223  144.0588  162.2458 H   0  0  0  0  0  0  0  0  0  0  0  0
  152.8456  141.9683  162.8412 H   0  0  0  0  0  0  0  0  0  0  0  0
  151.5794  141.6614  161.6799 H   0  0  0  0  0  0  0  0  0  0  0  0
  154.5627  141.9434  161.0833 H   0  0  0  0  0  0  0  0  0  0  0  0
  153.6442  140.4639  161.0051 H   0  0  0  0  0  0  0  0  0  0  0  0
  154.0937  141.5096  158.7692 H   0  0  0  0  0  0  0  0  0  0  0  0
  151.1983  141.3229  159.4109 H   0  0  0  0  0  0  0  0  0  0  0  0
  150.7814  138.4144  157.6834 H   0  0  0  0  0  0  0  0  0  0  0  0
  150.0371  139.6863  158.6042 H   0  0  0  0  0  0  0  0  0  0  0  0
  148.3494  140.9570  153.2327 H   0  0  0  0  0  0  0  0  0  0  0  0
  148.7207  142.6609  154.9374 H   0  0  0  0  0  0  0  0  0  0  0  0
  152.7791  143.5613  158.1181 H   0  0  0  0  0  0  0  0  0  0  0  0
  154.0201  143.8606  159.3012 H   0  0  0  0  0  0  0  0  0  0  0  0
  1  2  1  0  0  0  0
  1 21  1  0  0  0  0
  1 22  1  0  0  0  0
  1 23  1  0  0  0  0
  2 19  1  0  0  0  0
  2  3  1  0  0  0  0
  2 24  1  0  0  0  0
  3  4  1  0  0  0  0
  3 25  1  0  0  0  0
  3 26  1  0  0  0  0
  4  5  1  0  0  0  0
  4 27  1  0  0  0  0
  4 28  1  0  0  0  0
  5  6  1  0  0  0  0
  5 29  1  0  0  0  0
  5 30  1  0  0  0  0
  6  7  1  0  0  0  0
  6 19  1  0  0  0  0
  6 31  1  0  0  0  0
  7  8  1  0  0  0  0
  7 32  1  0  0  0  0
  8  9  2  0  0  0  0
  8 10  1  0  0  0  0
 10 33  1  0  0  0  0
 10 34  1  0  0  0  0
 10 11  1  0  0  0  0
 11 12  1  0  0  0  0
 11 17  1  0  0  0  0
 12 13  2  0  0  0  0
 13 14  1  0  0  0  0
 13 15  1  0  0  0  0
 14 20  1  0  0  0  0
 15 35  1  0  0  0  0
 15 16  2  0  0  0  0
 16 36  1  0  0  0  0
 16 17  1  0  0  0  0
 17 18  2  0  0  0  0
 19 37  1  0  0  0  0
 19 38  1  0  0  0  0
M  END
> <s_m_source_file>
AV-unprocessed.smi

> <i_m_source_file_index>
1484

> <i_lp_mmshare_version>
43012

> <i_f3d_flags>
0

> <s_epik_input>
W0NIM11bQ0BASF0xW0NIMl1bQ0gyXVtDSDJdW0NASF0oW0NIMl0xKVtOSF1DKD1PKVtDSDJdbjJbbkhdYyg9TylbY0hdW2NIXWMyPU8=

> <s_epik_cmdline>
J2VwaWtfcHl0aG9uJywgJy1waCcsICc3LjAnLCAnLXRuJywgJzgnLCAnLW1hJywgJzIwMCcsICctbWV0YWxfYmluZGluZycsICctaW1hZScsICc8aW5maWxlLm1hZT4nLCAnLW9tYWUnLCAnPG91dGZpbGUubWFlPic=

> <r_lp_tautomer_probability>
0.9996

> <r_epik_Ionization_Penalty>
2.10343

> <r_epik_Ionization_Penalty_Charging>
3.97871e-08

> <r_epik_Ionization_Penalty_Neutral>
2.10343

> <r_epik_State_Penalty>
1.67966

> <r_epik_Charging_Adjusted_Penalty>
1.67966

> <i_epik_Tot_Q>
0

> <i_epik_Tot_abs_Q>
0

> <r_epik_Metal_State_Penalty>
1.67966

> <b_epik_Metal_Only>
0

> <s_lp_Force_Field>
OPLS_2005

> <r_lp_Energy>
17.3635

> <b_lp_Chiralities_Consistent>
1

> <s_lp_Variant>
AV-unprocessed.smi:1484-5

> <Gold.Version>
5.8.1

> <Gold.Id.Protein>
6NUR|6NUR_protein|mol2

> <Gold.PLP.Fitness>
47.7170

> <Gold.PLP.PLP>
-42.2321

> <Gold.PLP.part.hbond>
-2.8210

> <Gold.PLP.part.metal>
0.0000

> <Gold.PLP.part.buried>
-1.9942

> <Gold.PLP.part.nonpolar>
-37.4549

> <Gold.PLP.part.repulsive>
0.5715

> <Gold.PLP.ligand.clash>
0.0000

> <Gold.PLP.ligand.torsion>
0.2612

> <Gold.PLP.Chemscore.Hbond>
2.0000

> <Gold.PLP.Chemscore.CHOScore>
0.0000

> <Gold.PLP.Chemscore.Metal>
0.0000

> <Gold.Chemscore.Hbonds>
donor molecule, donor type, donor heavy atom, donor atom, acceptor molecule, acceptor atom, score
      L1  H    14    20       P1  7957  1.00
      P1  H  7997  8010       L1     9  1.00

> <Gold.PLP.Chemscore.Internal.Correction>
0.0073

> <Gold.Rescore>
     Score         DG    S(hbond)    S(metal)    S(lipo)     H(rot)  DE(clash)    DE(int)     intcor
     16.62     -18.01       1.97        0.00      99.86       2.24       0.09       1.29       ----

> <Gold.Chemscore.Fitness>
16.6246

> <Gold.Chemscore.DG>
-18.0093

> <Gold.Chemscore.ZeroCoef>
-5.4800

> <Gold.Chemscore.Hbond>
1.9717

> <Gold.Chemscore.Metal>
0.0000

> <Gold.Chemscore.Lipo>
99.8611

> <Gold.Chemscore.Internal_Hbond>
0.0000

> <Gold.Chemscore.DEClash>
0.0946

> <Gold.Chemscore.DEInternal>
1.2901

> <Gold.Chemscore.Rot>
2.2421

> <Gold.Chemscore.Internal.Correction>
   9.000000E+99

> <Gold.Chemscore.Hbonds>
donor molecule, donor type, donor heavy atom, donor atom, acceptor molecule, acceptor atom, score
      L1  H    14    20       P1  7957  0.93
      P1  H  7997  8010       L1     9  0.95

> <Gold.Chemscore.Hbond.Weighted>
-6.5854

> <Gold.Chemscore.Metal.Weighted>
-0.0000

> <Gold.Chemscore.Lipo.Weighted>
-11.6837

> <Gold.Chemscore.Internal_Hbond.Weighted>
0.0000

> <Gold.Chemscore.DEClash.Weighted>
0.0946

> <Gold.Chemscore.DEInternal.Weighted>
1.2901

> <Gold.Chemscore.Rot.Weighted>
5.7398

> <Gold.Chemscore.Internal.Correction.Weighted>
   9.000000E+99

> <Gold.Protein.RotatedTorsions>
[ 6907 6896 6895 6894 ] final  117.16 input  -60.11 | X-H torsion
[ 7974 7965 7964 7962 ] final   34.00 input  175.53 | X-H torsion
[ 8008 7997 7996 7995 ] final   41.64 input   59.86 | X-H torsion
[ 10167 10162 10161 10158 ] final -137.50 input  -65.29 | X-H torsion
[ 10718 10713 10712 10709 ] final   19.51 input   66.30 | X-H torsion
[ 10763 10752 10751 10750 ] final  -91.03 input  -60.55 | X-H torsion
[ 11005 11000 10999 10996 ] final   25.79 input  -57.11 | X-H torsion

> <Gold.Protein.ActiveResidues>
 VAL166  LYS551  ARG553  GLY616  TRP617  ASP618  TYR619  PRO620  LYS621  CYS622 
 ASP623  PHE694  ASN695  SER759  ASP760  ASP761  ALA762  ILE779  LEU786  VAL792 
 PHE793  MET794  SER795  GLU796  ALA797  LYS798  CYS799  TRP800  GLU811  SER814 

> <Gold.Protein.RotatedAtoms>
  152.4630  133.7862  159.6877 H   0  0  0  0  0  0  0  0  0  0  0  0  # atno 6907 bound_to 6896
  150.8582  133.7673  159.3008 H   0  0  0  0  0  0  0  0  0  0  0  0  # atno 6908 bound_to 6896
  151.5247  135.1070  159.9939 H   0  0  0  0  0  0  0  0  0  0  0  0  # atno 6909 bound_to 6896
  146.1383  139.6325  142.9180 H   0  0  0  0  0  0  0  0  0  0  0  0  # atno 7974 bound_to 7965
  155.2730  140.3367  155.4264 H   0  0  0  0  0  0  0  0  0  0  0  0  # atno 8008 bound_to 7997
  156.2124  140.1775  156.7707 H   0  0  0  0  0  0  0  0  0  0  0  0  # atno 8009 bound_to 7997
  154.5705  140.0671  156.8941 H   0  0  0  0  0  0  0  0  0  0  0  0  # atno 8010 bound_to 7997
  139.8571  143.7124  152.2653 H   0  0  0  0  0  0  0  0  0  0  0  0  # atno 10167 bound_to 10162
  157.1115  130.6510  149.5898 H   0  0  0  0  0  0  0  0  0  0  0  0  # atno 10718 bound_to 10713
  154.6718  135.5283  153.8148 H   0  0  0  0  0  0  0  0  0  0  0  0  # atno 10763 bound_to 10752
  153.0506  135.6531  154.0712 H   0  0  0  0  0  0  0  0  0  0  0  0  # atno 10764 bound_to 10752
  154.0610  135.2961  155.3304 H   0  0  0  0  0  0  0  0  0  0  0  0  # atno 10765 bound_to 10752
  140.3440  134.2301  155.7687 H   0  0  0  0  0  0  0  0  0  0  0  0  # atno 11005 bound_to 11000
  145.5106  141.0435  143.2490 LP  0  0  0  0  0  0  0  0  0  0  0  0  # atno 17320 bound_to 7965
  144.7764  139.6621  143.7173 LP  0  0  0  0  0  0  0  0  0  0  0  0  # atno 17321 bound_to 7965
  139.7409  144.7560  151.0654 LP  0  0  0  0  0  0  0  0  0  0  0  0  # atno 17342 bound_to 10162
  140.7780  143.4974  150.9815 LP  0  0  0  0  0  0  0  0  0  0  0  0  # atno 17343 bound_to 10162
  155.9849  130.4877  150.7007 LP  0  0  0  0  0  0  0  0  0  0  0  0  # atno 17370 bound_to 10713
  157.4555  131.0877  151.0801 LP  0  0  0  0  0  0  0  0  0  0  0  0  # atno 17371 bound_to 10713
  141.2030  133.7922  157.0359 LP  0  0  0  0  0  0  0  0  0  0  0  0  # atno 17394 bound_to 11000
  140.0757  134.9677  157.1542 LP  0  0  0  0  0  0  0  0  0  0  0  0  # atno 17395 bound_to 11000

$$$$
