AV-unprocessed.smi:2095|AV-procd|sdf|8558|dock8
  -GOLD-   2272011283D 1   1.00000     0.00000
 Structure written by MMmdl.
 42 43  0  0  0  0  0  0  0  0  2 V2000
  144.1772  135.2174  150.9079 C   0  0  0  0  0  0  0  0  0  0  0  0
  145.5905  134.7381  151.2679 C   0  0  2  0  0  0  0  0  0  0  0  0
  145.8448  133.3140  150.7530 C   0  0  0  0  0  0  0  0  0  0  0  0
  147.2546  132.8615  151.1438 C   0  0  0  0  0  0  0  0  0  0  0  0
  147.4791  132.9789  152.6605 C   0  0  0  0  0  0  0  0  0  0  0  0
  147.2217  134.3664  153.1452 N   0  3  2  0  0  0  0  0  0  0  0  0
  147.5384  134.6349  154.5873 C   0  0  1  0  0  0  0  0  0  0  0  0
  146.8984  133.6279  155.5748 C   0  0  0  0  0  0  0  0  0  0  0  0
  149.0733  134.6784  154.7822 C   0  0  0  0  0  0  0  0  0  0  0  0
  149.6597  135.9088  154.2646 N   0  0  0  0  0  0  0  0  0  0  0  0
  150.8455  136.4044  154.6476 C   0  0  0  0  0  0  0  0  0  0  0  0
  151.5673  135.8622  155.4838 O   0  0  0  0  0  0  0  0  0  0  0  0
  151.2870  137.7093  153.9851 C   0  0  0  0  0  0  0  0  0  0  0  0
  151.6175  138.7092  154.9822 N   0  0  0  0  0  0  0  0  0  0  0  0
  152.5179  138.7018  155.9672 C   0  0  0  0  0  0  0  0  0  0  0  0
  152.5057  139.8377  156.6482 N   0  0  0  0  0  0  0  0  0  0  0  0
  151.5190  140.5746  156.0145 N   0  0  0  0  0  0  0  0  0  0  0  0
  150.9887  139.9106  155.0245 N   0  0  0  0  0  0  0  0  0  0  0  0
  145.8405  134.8016  152.7875 C   0  0  0  0  0  0  0  0  0  0  0  0
  143.4150  134.5872  151.3672 H   0  0  0  0  0  0  0  0  0  0  0  0
  144.0193  135.1972  149.8291 H   0  0  0  0  0  0  0  0  0  0  0  0
  144.0106  136.2408  151.2450 H   0  0  0  0  0  0  0  0  0  0  0  0
  146.2988  135.4093  150.7794 H   0  0  0  0  0  0  0  0  0  0  0  0
  145.1086  132.6265  151.1719 H   0  0  0  0  0  0  0  0  0  0  0  0
  145.7287  133.2752  149.6692 H   0  0  0  0  0  0  0  0  0  0  0  0
  147.4165  131.8321  150.8222 H   0  0  0  0  0  0  0  0  0  0  0  0
  147.9924  133.4682  150.6167 H   0  0  0  0  0  0  0  0  0  0  0  0
  146.8360  132.2772  153.1943 H   0  0  0  0  0  0  0  0  0  0  0  0
  148.5108  132.6847  152.8496 H   0  0  0  0  0  0  0  0  0  0  0  0
  147.1291  135.6146  154.8406 H   0  0  0  0  0  0  0  0  0  0  0  0
  147.1553  133.8580  156.6086 H   0  0  0  0  0  0  0  0  0  0  0  0
  147.2317  132.6082  155.3783 H   0  0  0  0  0  0  0  0  0  0  0  0
  145.8092  133.6486  155.5313 H   0  0  0  0  0  0  0  0  0  0  0  0
  149.3091  134.5853  155.8440 H   0  0  0  0  0  0  0  0  0  0  0  0
  149.5627  133.8439  154.2808 H   0  0  0  0  0  0  0  0  0  0  0  0
  149.1331  136.4152  153.5674 H   0  0  0  0  0  0  0  0  0  0  0  0
  152.1520  137.5370  153.3426 H   0  0  0  0  0  0  0  0  0  0  0  0
  150.4869  138.0954  153.3521 H   0  0  0  0  0  0  0  0  0  0  0  0
  153.1784  137.8743  156.1800 H   0  0  0  0  0  0  0  0  0  0  0  0
  145.6621  135.8207  153.1277 H   0  0  0  0  0  0  0  0  0  0  0  0
  145.1185  134.1721  153.3110 H   0  0  0  0  0  0  0  0  0  0  0  0
  147.8535  134.9513  152.6172 H   0  0  0  0  0  0  0  0  0  0  0  0
  1  2  1  0  0  0  0
  1 20  1  0  0  0  0
  1 21  1  0  0  0  0
  1 22  1  0  0  0  0
  2 19  1  0  0  0  0
  2  3  1  0  0  0  0
  2 23  1  0  0  0  0
  3  4  1  0  0  0  0
  3 24  1  0  0  0  0
  3 25  1  0  0  0  0
  4  5  1  0  0  0  0
  4 26  1  0  0  0  0
  4 27  1  0  0  0  0
  5  6  1  0  0  0  0
  5 28  1  0  0  0  0
  5 29  1  0  0  0  0
  6  7  1  0  0  0  0
  6 19  1  0  0  0  0
  6 42  1  0  0  0  0
  7  8  1  0  0  0  0
  7  9  1  0  0  0  0
  7 30  1  0  0  0  0
  8 31  1  0  0  0  0
  8 32  1  0  0  0  0
  8 33  1  0  0  0  0
  9 10  1  0  0  0  0
  9 34  1  0  0  0  0
  9 35  1  0  0  0  0
 10 11  1  0  0  0  0
 10 36  1  0  0  0  0
 11 12  2  0  0  0  0
 11 13  1  0  0  0  0
 13 14  1  0  0  0  0
 13 37  1  0  0  0  0
 13 38  1  0  0  0  0
 14 18  1  0  0  0  0
 14 15  1  0  0  0  0
 15 16  2  0  0  0  0
 15 39  1  0  0  0  0
 16 17  1  0  0  0  0
 17 18  2  0  0  0  0
 19 40  1  0  0  0  0
 19 41  1  0  0  0  0
M  CHG  1   6   1
M  END
> <s_m_source_file>
AV-unprocessed.smi

> <i_m_source_file_index>
2095

> <i_lp_mmshare_version>
43012

> <i_f3d_flags>
0

> <s_epik_input>
W0NIM11bQ0BASF0xW0NIMl1bQ0gyXVtDSDJdTihbQ0gyXTEpW0NASF0oW0NIM10pW0NIMl1bTkhdQyg9TylbQ0gyXW4yW2NIXW5ubjI=

> <s_epik_cmdline>
J2VwaWtfcHl0aG9uJywgJy1waCcsICc3LjAnLCAnLXRuJywgJzgnLCAnLW1hJywgJzIwMCcsICctbWV0YWxfYmluZGluZycsICctaW1hZScsICc8aW5maWxlLm1hZT4nLCAnLW9tYWUnLCAnPG91dGZpbGUubWFlPic=

> <r_lp_tautomer_probability>
1

> <r_epik_Ionization_Penalty>
0.00268321

> <r_epik_Ionization_Penalty_Charging>
0.00267875

> <r_epik_Ionization_Penalty_Neutral>
4.46125e-06

> <r_epik_State_Penalty>
0.00186642

> <r_epik_Charging_Adjusted_Penalty>
0.00454517

> <i_epik_Tot_Q>
1

> <i_epik_Tot_abs_Q>
1

> <r_epik_Metal_State_Penalty>
-0

> <b_epik_Metal_Only>
0

> <s_lp_Force_Field>
OPLS_2005

> <r_lp_Energy>
25.5327

> <b_lp_Chiralities_Consistent>
1

> <s_lp_Variant>
AV-unprocessed.smi:2095-5

> <Gold.Version>
5.8.1

> <Gold.Id.Protein>
6NUR|6NUR_protein|mol2

> <Gold.PLP.Fitness>
44.7871

> <Gold.PLP.PLP>
-28.9729

> <Gold.PLP.part.hbond>
-5.6126

> <Gold.PLP.part.metal>
0.0000

> <Gold.PLP.part.buried>
-0.8473

> <Gold.PLP.part.nonpolar>
-23.1266

> <Gold.PLP.part.repulsive>
0.1435

> <Gold.PLP.ligand.clash>
0.0000

> <Gold.PLP.ligand.torsion>
0.5787

> <Gold.PLP.Chemscore.Hbond>
5.6360

> <Gold.PLP.Chemscore.CHOScore>
0.0000

> <Gold.PLP.Chemscore.Metal>
0.0000

> <Gold.Chemscore.Hbonds>
donor molecule, donor type, donor heavy atom, donor atom, acceptor molecule, acceptor atom, score
      L1  H     6    42       P1  7948  2.00
      L1  H    10    36       P1  7948  0.64
      P1  H  7989  7998       L1    18  1.00
      P1  H  7997  8009       L1    16  0.85
      P1  H 10752 10763       L1    12  1.00

> <Gold.PLP.Chemscore.Internal.Correction>
0.0635

> <Gold.Rescore>
     Score         DG    S(hbond)    S(metal)    S(lipo)     H(rot)  DE(clash)    DE(int)     intcor
     14.86     -16.71       3.76        0.00      46.40       2.64       0.37       1.49       ----

> <Gold.Chemscore.Fitness>
14.8568

> <Gold.Chemscore.DG>
-16.7137

> <Gold.Chemscore.ZeroCoef>
-5.4800

> <Gold.Chemscore.Hbond>
3.7646

> <Gold.Chemscore.Metal>
0.0000

> <Gold.Chemscore.Lipo>
46.3960

> <Gold.Chemscore.Internal_Hbond>
0.0000

> <Gold.Chemscore.DEClash>
0.3685

> <Gold.Chemscore.DEInternal>
1.4884

> <Gold.Chemscore.Rot>
2.6439

> <Gold.Chemscore.Internal.Correction>
   9.000000E+99

> <Gold.Chemscore.Hbonds>
donor molecule, donor type, donor heavy atom, donor atom, acceptor molecule, acceptor atom, score
      L1  H     6    42       P1  7948  0.94
      L1  H    10    36       P1  7948  0.63
      P1  H  7989  7998       L1    18  0.17
      P1  H  7997  8009       L1    16  0.14
      P1  H 10752 10763       L1    12  0.93

> <Gold.Chemscore.Hbond.Weighted>
-12.5739

> <Gold.Chemscore.Metal.Weighted>
-0.0000

> <Gold.Chemscore.Lipo.Weighted>
-5.4283

> <Gold.Chemscore.Internal_Hbond.Weighted>
0.0000

> <Gold.Chemscore.DEClash.Weighted>
0.3685

> <Gold.Chemscore.DEInternal.Weighted>
1.4884

> <Gold.Chemscore.Rot.Weighted>
6.7685

> <Gold.Chemscore.Internal.Correction.Weighted>
   9.000000E+99

> <Gold.Protein.RotatedTorsions>
[ 6907 6896 6895 6894 ] final  111.40 input  -60.11 | X-H torsion
[ 7974 7965 7964 7962 ] final   91.41 input  175.53 | X-H torsion
[ 8008 7997 7996 7995 ] final  173.02 input   59.86 | X-H torsion
[ 10167 10162 10161 10158 ] final -174.43 input  -65.29 | X-H torsion
[ 10718 10713 10712 10709 ] final  154.29 input   66.30 | X-H torsion
[ 10763 10752 10751 10750 ] final   90.92 input  -60.55 | X-H torsion
[ 11005 11000 10999 10996 ] final  -88.03 input  -57.11 | X-H torsion

> <Gold.Protein.ActiveResidues>
 VAL166  LYS551  ARG553  GLY616  TRP617  ASP618  TYR619  PRO620  LYS621  CYS622 
 ASP623  PHE694  ASN695  SER759  ASP760  ASP761  ALA762  ILE779  LEU786  VAL792 
 PHE793  MET794  SER795  GLU796  ALA797  LYS798  CYS799  TRP800  GLU811  SER814 

> <Gold.Protein.RotatedAtoms>
  152.4971  133.8662  159.7275 H   0  0  0  0  0  0  0  0  0  0  0  0  # atno 6907 bound_to 6896
  150.9161  133.6929  159.2850 H   0  0  0  0  0  0  0  0  0  0  0  0  # atno 6908 bound_to 6896
  151.4321  135.1015  159.9698 H   0  0  0  0  0  0  0  0  0  0  0  0  # atno 6909 bound_to 6896
  145.5061  139.2276  143.2750 H   0  0  0  0  0  0  0  0  0  0  0  0  # atno 7974 bound_to 7965
  156.1117  140.1471  156.9329 H   0  0  0  0  0  0  0  0  0  0  0  0  # atno 8008 bound_to 7997
  154.4772  140.0891  156.7333 H   0  0  0  0  0  0  0  0  0  0  0  0  # atno 8009 bound_to 7997
  155.4584  140.3437  155.4312 H   0  0  0  0  0  0  0  0  0  0  0  0  # atno 8010 bound_to 7997
  139.5634  144.1814  152.1275 H   0  0  0  0  0  0  0  0  0  0  0  0  # atno 10167 bound_to 10162
  157.2336  131.0744  151.1837 H   0  0  0  0  0  0  0  0  0  0  0  0  # atno 10718 bound_to 10713
  153.2026  135.4416  155.0285 H   0  0  0  0  0  0  0  0  0  0  0  0  # atno 10763 bound_to 10752
  154.8156  135.3313  154.7188 H   0  0  0  0  0  0  0  0  0  0  0  0  # atno 10764 bound_to 10752
  153.7632  135.6990  153.4976 H   0  0  0  0  0  0  0  0  0  0  0  0  # atno 10765 bound_to 10752
  141.1608  133.7546  156.9393 H   0  0  0  0  0  0  0  0  0  0  0  0  # atno 11005 bound_to 11000
  146.2196  140.5865  142.9023 LP  0  0  0  0  0  0  0  0  0  0  0  0  # atno 17320 bound_to 7965
  144.7753  140.5726  143.6642 LP  0  0  0  0  0  0  0  0  0  0  0  0  # atno 17321 bound_to 7965
  140.1332  144.5270  150.6790 LP  0  0  0  0  0  0  0  0  0  0  0  0  # atno 17342 bound_to 10162
  140.6916  143.2379  151.5115 LP  0  0  0  0  0  0  0  0  0  0  0  0  # atno 17343 bound_to 10162
  157.3452  130.7054  149.6406 LP  0  0  0  0  0  0  0  0  0  0  0  0  # atno 17370 bound_to 10713
  155.9674  130.4268  150.4716 LP  0  0  0  0  0  0  0  0  0  0  0  0  # atno 17371 bound_to 10713
  140.1333  134.9342  157.2367 LP  0  0  0  0  0  0  0  0  0  0  0  0  # atno 17394 bound_to 11000
  140.2926  134.3223  155.7311 LP  0  0  0  0  0  0  0  0  0  0  0  0  # atno 17395 bound_to 11000

$$$$
