AV-unprocessed.smi:1144|AV-procd|sdf|4876|dock4
  -GOLD-   22720 3443D 1   1.00000     0.00000
 Structure written by MMmdl.
 35 36  0  0  0  0  0  0  0  0  2 V2000
  144.2556  140.9830  155.8787 C   0  0  0  0  0  0  0  0  0  0  0  0
  145.2005  141.4795  154.8559 N   0  3  1  0  0  0  0  0  0  0  0  0
  145.0512  142.9295  154.5970 C   0  0  0  0  0  0  0  0  0  0  0  0
  146.0344  143.3788  153.5041 C   0  0  0  0  0  0  0  0  0  0  0  0
  147.3609  143.0415  153.8918 O   0  0  0  0  0  0  0  0  0  0  0  0
  147.5433  141.6366  154.0450 C   0  0  1  0  0  0  0  0  0  0  0  0
  149.0177  141.3791  154.3836 C   0  0  0  0  0  0  0  0  0  0  0  0
  149.5586  142.4117  155.2547 N   0  0  0  0  0  0  0  0  0  0  0  0
  150.3226  142.1553  156.3770 C   0  0  0  0  0  0  0  0  0  0  0  0
  150.4512  140.8858  156.7789 N   0  0  0  0  0  0  0  0  0  0  0  0
  151.1995  140.6647  157.8811 C   0  0  0  0  0  0  0  0  0  0  0  0
  151.8209  141.7185  158.5801 C   0  0  0  0  0  0  0  0  0  0  0  0
  151.6170  143.0183  158.0646 C   0  0  0  0  0  0  0  0  0  0  0  0
  152.2259  144.2515  158.7150 C   0  0  0  0  0  0  0  0  0  0  0  0
  153.0860  143.9223  159.6796 F   0  0  0  0  0  0  0  0  0  0  0  0
  152.8735  144.9701  157.7977 F   0  0  0  0  0  0  0  0  0  0  0  0
  151.2610  145.0018  159.2473 F   0  0  0  0  0  0  0  0  0  0  0  0
  150.8644  143.2270  156.9588 N   0  0  0  0  0  0  0  0  0  0  0  0
  146.6086  141.1418  155.1663 C   0  0  0  0  0  0  0  0  0  0  0  0
  144.4388  141.4560  156.8445 H   0  0  0  0  0  0  0  0  0  0  0  0
  144.3547  139.9040  156.0015 H   0  0  0  0  0  0  0  0  0  0  0  0
  143.2263  141.1914  155.5848 H   0  0  0  0  0  0  0  0  0  0  0  0
  144.0276  143.1477  154.2901 H   0  0  0  0  0  0  0  0  0  0  0  0
  145.2371  143.4870  155.5165 H   0  0  0  0  0  0  0  0  0  0  0  0
  145.7927  142.9165  152.5458 H   0  0  0  0  0  0  0  0  0  0  0  0
  145.9710  144.4578  153.3622 H   0  0  0  0  0  0  0  0  0  0  0  0
  147.2933  141.1269  153.1123 H   0  0  0  0  0  0  0  0  0  0  0  0
  149.1314  140.4019  154.8545 H   0  0  0  0  0  0  0  0  0  0  0  0
  149.6093  141.3644  153.4675 H   0  0  0  0  0  0  0  0  0  0  0  0
  149.3355  143.3765  155.0575 H   0  0  0  0  0  0  0  0  0  0  0  0
  151.3029  139.6405  158.2077 H   0  0  0  0  0  0  0  0  0  0  0  0
  152.4178  141.5321  159.4604 H   0  0  0  0  0  0  0  0  0  0  0  0
  146.8903  141.5935  156.1192 H   0  0  0  0  0  0  0  0  0  0  0  0
  146.7071  140.0616  155.2826 H   0  0  0  0  0  0  0  0  0  0  0  0
  144.9709  141.0052  153.9940 H   0  0  0  0  0  0  0  0  0  0  0  0
  1  2  1  0  0  0  0
  1 20  1  0  0  0  0
  1 21  1  0  0  0  0
  1 22  1  0  0  0  0
  2 19  1  0  0  0  0
  2  3  1  0  0  0  0
  2 35  1  0  0  0  0
  3  4  1  0  0  0  0
  3 23  1  0  0  0  0
  3 24  1  0  0  0  0
  4  5  1  0  0  0  0
  4 25  1  0  0  0  0
  4 26  1  0  0  0  0
  5  6  1  0  0  0  0
  6  7  1  0  0  0  0
  6 19  1  0  0  0  0
  6 27  1  0  0  0  0
  7  8  1  0  0  0  0
  7 28  1  0  0  0  0
  7 29  1  0  0  0  0
  8  9  1  0  0  0  0
  8 30  1  0  0  0  0
  9 18  1  0  0  0  0
  9 10  2  0  0  0  0
 10 11  1  0  0  0  0
 11 12  2  0  0  0  0
 11 31  1  0  0  0  0
 12 13  1  0  0  0  0
 12 32  1  0  0  0  0
 13 14  1  0  0  0  0
 13 18  2  0  0  0  0
 14 15  1  0  0  0  0
 14 16  1  0  0  0  0
 14 17  1  0  0  0  0
 19 33  1  0  0  0  0
 19 34  1  0  0  0  0
M  CHG  1   2   1
M  END
> <s_m_source_file>
AV-unprocessed.smi

> <i_m_source_file_index>
1144

> <i_lp_mmshare_version>
43012

> <i_f3d_flags>
0

> <s_epik_input>
W0NIM11OMVtDSDJdW0NIMl1PW0NASF0oW0NIMl0xKVtDSDJdW05IXWMybltjSF1bY0hdYyhuMilDKEYpKEYpRg==

> <s_epik_cmdline>
J2VwaWtfcHl0aG9uJywgJy1waCcsICc3LjAnLCAnLXRuJywgJzgnLCAnLW1hJywgJzIwMCcsICctbWV0YWxfYmluZGluZycsICctaW1hZScsICc8aW5maWxlLm1hZT4nLCAnLW9tYWUnLCAnPG91dGZpbGUubWFlPic=

> <r_lp_tautomer_probability>
1

> <r_epik_Ionization_Penalty>
0.178506

> <r_epik_Ionization_Penalty_Charging>
0.178504

> <r_epik_Ionization_Penalty_Neutral>
2.47225e-06

> <r_epik_State_Penalty>
0.167974

> <r_epik_Charging_Adjusted_Penalty>
0.346478

> <i_epik_Tot_Q>
1

> <i_epik_Tot_abs_Q>
1

> <r_epik_Metal_State_Penalty>
0.167974

> <b_epik_Metal_Only>
0

> <s_lp_Force_Field>
OPLS_2005

> <r_lp_Energy>
9.30015

> <b_lp_Chiralities_Consistent>
1

> <s_lp_Variant>
AV-unprocessed.smi:1144-1

> <Gold.Version>
5.8.1

> <Gold.Id.Protein>
6NUR|6NUR_protein|mol2

> <Gold.PLP.Fitness>
48.4057

> <Gold.PLP.PLP>
-39.6264

> <Gold.PLP.part.hbond>
-2.9746

> <Gold.PLP.part.metal>
0.0000

> <Gold.PLP.part.buried>
-5.2232

> <Gold.PLP.part.nonpolar>
-34.7599

> <Gold.PLP.part.repulsive>
3.5761

> <Gold.PLP.ligand.clash>
0.0000

> <Gold.PLP.ligand.torsion>
0.5284

> <Gold.PLP.Chemscore.Hbond>
3.2766

> <Gold.PLP.Chemscore.CHOScore>
0.0000

> <Gold.PLP.Chemscore.Metal>
0.0000

> <Gold.Chemscore.Hbonds>
donor molecule, donor type, donor heavy atom, donor atom, acceptor molecule, acceptor atom, score
      L1  H     2    35       P1 10175  1.92
      L1  H     8    30       P1  8028  0.92
      P1  H  8022  8030       L1     5  0.45

> <Gold.PLP.Chemscore.Internal.Correction>
0.0062

> <Gold.Rescore>
     Score         DG    S(hbond)    S(metal)    S(lipo)     H(rot)  DE(clash)    DE(int)     intcor
     15.04     -15.52       1.97        0.00      58.76       1.34       0.15       0.33       ----

> <Gold.Chemscore.Fitness>
15.0416

> <Gold.Chemscore.DG>
-15.5182

> <Gold.Chemscore.ZeroCoef>
-5.4800

> <Gold.Chemscore.Hbond>
1.9727

> <Gold.Chemscore.Metal>
0.0000

> <Gold.Chemscore.Lipo>
58.7557

> <Gold.Chemscore.Internal_Hbond>
0.0000

> <Gold.Chemscore.DEClash>
0.1461

> <Gold.Chemscore.DEInternal>
0.3306

> <Gold.Chemscore.Rot>
1.3379

> <Gold.Chemscore.Internal.Correction>
   9.000000E+99

> <Gold.Chemscore.Hbonds>
donor molecule, donor type, donor heavy atom, donor atom, acceptor molecule, acceptor atom, score
      L1  H     2    35       P1 10175  0.75
      L1  H     8    30       P1  8028  0.84
      P1  H  8022  8030       L1     5  0.27

> <Gold.Chemscore.Hbond.Weighted>
-6.5888

> <Gold.Chemscore.Metal.Weighted>
-0.0000

> <Gold.Chemscore.Lipo.Weighted>
-6.8744

> <Gold.Chemscore.Internal_Hbond.Weighted>
0.0000

> <Gold.Chemscore.DEClash.Weighted>
0.1461

> <Gold.Chemscore.DEInternal.Weighted>
0.3306

> <Gold.Chemscore.Rot.Weighted>
3.4250

> <Gold.Chemscore.Internal.Correction.Weighted>
   9.000000E+99

> <Gold.Protein.RotatedTorsions>
[ 6907 6896 6895 6894 ] final   81.88 input  -60.11 | X-H torsion
[ 7974 7965 7964 7962 ] final  132.66 input  175.53 | X-H torsion
[ 8008 7997 7996 7995 ] final  -26.39 input   59.86 | X-H torsion
[ 10167 10162 10161 10158 ] final  155.18 input  -65.29 | X-H torsion
[ 10718 10713 10712 10709 ] final  123.59 input   66.30 | X-H torsion
[ 10763 10752 10751 10750 ] final  109.29 input  -60.55 | X-H torsion
[ 11005 11000 10999 10996 ] final   64.08 input  -57.11 | X-H torsion

> <Gold.Protein.ActiveResidues>
 VAL166  LYS551  ARG553  GLY616  TRP617  ASP618  TYR619  PRO620  LYS621  CYS622 
 ASP623  PHE694  ASN695  SER759  ASP760  ASP761  ALA762  ILE779  LEU786  VAL792 
 PHE793  MET794  SER795  GLU796  ALA797  LYS798  CYS799  TRP800  GLU811  SER814 

> <Gold.Protein.RotatedAtoms>
  152.5282  134.3136  159.9122 H   0  0  0  0  0  0  0  0  0  0  0  0  # atno 6907 bound_to 6896
  151.3086  133.4084  159.2653 H   0  0  0  0  0  0  0  0  0  0  0  0  # atno 6908 bound_to 6896
  151.0058  134.9374  159.8036 H   0  0  0  0  0  0  0  0  0  0  0  0  # atno 6909 bound_to 6896
  144.9945  139.4373  143.5322 H   0  0  0  0  0  0  0  0  0  0  0  0  # atno 7974 bound_to 7965
  154.4428  140.1901  156.0767 H   0  0  0  0  0  0  0  0  0  0  0  0  # atno 8008 bound_to 7997
  156.0470  140.3313  155.7281 H   0  0  0  0  0  0  0  0  0  0  0  0  # atno 8009 bound_to 7997
  155.5615  140.0604  157.2818 H   0  0  0  0  0  0  0  0  0  0  0  0  # atno 8010 bound_to 7997
  139.4822  144.5121  151.8008 H   0  0  0  0  0  0  0  0  0  0  0  0  # atno 10167 bound_to 10162
  157.5653  131.1087  150.8466 H   0  0  0  0  0  0  0  0  0  0  0  0  # atno 10718 bound_to 10713
  153.4326  135.3785  155.2180 H   0  0  0  0  0  0  0  0  0  0  0  0  # atno 10763 bound_to 10752
  154.8750  135.3843  154.4249 H   0  0  0  0  0  0  0  0  0  0  0  0  # atno 10764 bound_to 10752
  153.4784  135.7088  153.6015 H   0  0  0  0  0  0  0  0  0  0  0  0  # atno 10765 bound_to 10752
  139.9982  134.6484  155.9975 H   0  0  0  0  0  0  0  0  0  0  0  0  # atno 11005 bound_to 11000
  146.3439  139.9297  142.8755 LP  0  0  0  0  0  0  0  0  0  0  0  0  # atno 17320 bound_to 7965
  145.2238  140.9946  143.4030 LP  0  0  0  0  0  0  0  0  0  0  0  0  # atno 17321 bound_to 7965
  140.4626  144.1701  150.5908 LP  0  0  0  0  0  0  0  0  0  0  0  0  # atno 17342 bound_to 10162
  140.4469  143.2503  151.9400 LP  0  0  0  0  0  0  0  0  0  0  0  0  # atno 17343 bound_to 10162
  156.8952  130.5227  149.5284 LP  0  0  0  0  0  0  0  0  0  0  0  0  # atno 17370 bound_to 10713
  156.0701  130.5736  150.9367 LP  0  0  0  0  0  0  0  0  0  0  0  0  # atno 17371 bound_to 10713
  141.1621  133.6538  156.4354 LP  0  0  0  0  0  0  0  0  0  0  0  0  # atno 17394 bound_to 11000
  140.4778  134.6693  157.5158 LP  0  0  0  0  0  0  0  0  0  0  0  0  # atno 17395 bound_to 11000

$$$$
