AV-unprocessed.smi:8|AV-procd|sdf|46|dock2
  -GOLD-   2262015163D 1   1.00000     0.00000
 Structure written by MMmdl.
 35 36  0  0  0  0  0  0  0  0  2 V2000
  150.8849  136.4453  154.5937 C   0  0  0  0  0  0  0  0  0  0  0  0
  150.5341  135.5211  155.7697 C   0  0  0  0  0  0  0  0  0  0  0  0
  150.1279  134.2036  155.3456 N   0  0  0  0  0  0  0  0  0  0  0  0
  149.1877  134.0001  154.3472 C   0  0  0  0  0  0  0  0  0  0  0  0
  148.8066  132.7726  153.9109 C   0  0  0  0  0  0  0  0  0  0  0  0
  147.7528  132.5956  152.8278 C   0  0  0  0  0  0  0  0  0  0  0  0
  147.2448  133.8634  152.3174 N   0  0  0  0  0  0  0  0  0  0  0  0
  145.9923  133.9122  151.6866 C   0  0  0  0  0  0  0  0  0  0  0  0
  145.4355  132.7643  151.2375 N   0  0  0  0  0  0  0  0  0  0  0  0
  144.2381  132.7993  150.6405 C   0  0  0  0  0  0  0  0  0  0  0  0
  143.5450  133.9333  150.4624 N   0  3  0  0  0  0  0  0  0  0  0  0
  144.0625  135.1076  150.8974 C   0  0  0  0  0  0  0  0  0  0  0  0
  145.3195  135.1435  151.5337 C   0  0  0  0  0  0  0  0  0  0  0  0
  145.9055  136.4556  152.0223 C   0  0  0  0  0  0  0  0  0  0  0  0
  149.3966  131.5781  154.5264 C   0  0  0  0  0  0  0  0  0  0  0  0
  149.1252  130.4161  154.2287 O   0  0  0  0  0  0  0  0  0  0  0  0
  150.3427  131.8308  155.5239 N   0  0  0  0  0  0  0  0  0  0  0  0
  150.7444  133.0918  155.9619 C   0  0  0  0  0  0  0  0  0  0  0  0
  151.5979  133.1931  156.8434 O   0  0  0  0  0  0  0  0  0  0  0  0
  150.7756  131.0319  155.9640 H   0  0  0  0  0  0  0  0  0  0  0  0
  151.1447  137.4420  154.9506 H   0  0  0  0  0  0  0  0  0  0  0  0
  150.0422  136.5473  153.9093 H   0  0  0  0  0  0  0  0  0  0  0  0
  151.7345  136.0671  154.0247 H   0  0  0  0  0  0  0  0  0  0  0  0
  151.3611  135.4056  156.4734 H   0  0  0  0  0  0  0  0  0  0  0  0
  149.7006  135.9294  156.3431 H   0  0  0  0  0  0  0  0  0  0  0  0
  148.7365  134.8681  153.8873 H   0  0  0  0  0  0  0  0  0  0  0  0
  148.1800  132.0185  152.0066 H   0  0  0  0  0  0  0  0  0  0  0  0
  146.9243  132.0109  153.2292 H   0  0  0  0  0  0  0  0  0  0  0  0
  147.9251  134.5620  152.0535 H   0  0  0  0  0  0  0  0  0  0  0  0
  143.7844  131.8893  150.2761 H   0  0  0  0  0  0  0  0  0  0  0  0
  143.4513  135.9807  150.7209 H   0  0  0  0  0  0  0  0  0  0  0  0
  145.2333  137.2891  151.8158 H   0  0  0  0  0  0  0  0  0  0  0  0
  146.8555  136.6559  151.5263 H   0  0  0  0  0  0  0  0  0  0  0  0
  146.0778  136.4189  153.0983 H   0  0  0  0  0  0  0  0  0  0  0  0
  142.6338  133.9217  150.0031 H   0  0  0  0  0  0  0  0  0  0  0  0
  1  2  1  0  0  0  0
  1 21  1  0  0  0  0
  1 22  1  0  0  0  0
  1 23  1  0  0  0  0
  2  3  1  0  0  0  0
  2 24  1  0  0  0  0
  2 25  1  0  0  0  0
  3 18  1  0  0  0  0
  3  4  1  0  0  0  0
  4  5  2  0  0  0  0
  4 26  1  0  0  0  0
  5  6  1  0  0  0  0
  5 15  1  0  0  0  0
  6  7  1  0  0  0  0
  6 27  1  0  0  0  0
  6 28  1  0  0  0  0
  7  8  1  0  0  0  0
  7 29  1  0  0  0  0
  8 13  1  0  0  0  0
  8  9  2  0  0  0  0
  9 10  1  0  0  0  0
 10 11  2  0  0  0  0
 10 30  1  0  0  0  0
 11 12  1  0  0  0  0
 11 35  1  0  0  0  0
 12 13  2  0  0  0  0
 12 31  1  0  0  0  0
 13 14  1  0  0  0  0
 14 32  1  0  0  0  0
 14 33  1  0  0  0  0
 14 34  1  0  0  0  0
 15 16  2  0  0  0  0
 15 17  1  0  0  0  0
 17 20  1  0  0  0  0
 17 18  1  0  0  0  0
 18 19  2  0  0  0  0
M  CHG  1  11   1
M  END
> <s_m_source_file>
AV-unprocessed.smi

> <i_m_source_file_index>
8

> <i_lp_mmshare_version>
43012

> <i_f3d_flags>
0

> <s_epik_input>
W0NIM11bQ0gyXW4xW2NIXWMoYyg9TylbbkhdYzE9TylbQ0gyXVtOSF1jMm5bY0hdbltjSF1jMltDSDNd

> <s_epik_cmdline>
J2VwaWtfcHl0aG9uJywgJy1waCcsICc3LjAnLCAnLXRuJywgJzgnLCAnLW1hJywgJzIwMCcsICctbWV0YWxfYmluZGluZycsICctaW1hZScsICc8aW5maWxlLm1hZT4nLCAnLW9tYWUnLCAnPG91dGZpbGUubWFlPic=

> <r_lp_tautomer_probability>
0.998874

> <r_epik_Ionization_Penalty>
2.17639

> <r_epik_Ionization_Penalty_Charging>
2.17638

> <r_epik_Ionization_Penalty_Neutral>
1.33492e-05

> <r_epik_State_Penalty>
2.31733

> <r_epik_Charging_Adjusted_Penalty>
4.4937

> <i_epik_Tot_Q>
1

> <i_epik_Tot_abs_Q>
1

> <r_epik_Metal_State_Penalty>
2.583

> <b_epik_Metal_Only>
0

> <s_lp_Force_Field>
OPLS_2005

> <r_lp_Energy>
14.6724

> <b_lp_Chiralities_Consistent>
1

> <s_lp_Variant>
AV-unprocessed.smi:8-2

> <Gold.Version>
5.8.1

> <Gold.Id.Protein>
6NUR|6NUR_protein|mol2

> <Gold.PLP.Fitness>
45.5529

> <Gold.PLP.PLP>
-32.2865

> <Gold.PLP.part.hbond>
-3.0000

> <Gold.PLP.part.metal>
0.0000

> <Gold.PLP.part.buried>
-5.2978

> <Gold.PLP.part.nonpolar>
-25.7069

> <Gold.PLP.part.repulsive>
0.1992

> <Gold.PLP.ligand.clash>
0.0000

> <Gold.PLP.ligand.torsion>
0.3396

> <Gold.PLP.Chemscore.Hbond>
3.6458

> <Gold.PLP.Chemscore.CHOScore>
1.0000

> <Gold.PLP.Chemscore.Metal>
0.0000

> <Gold.Chemscore.Hbonds>
donor molecule, donor type, donor heavy atom, donor atom, acceptor molecule, acceptor atom, score
      L1  H     7    29       P1  7948  1.00
      L1  H    11    35       P1 10186  2.00
      P1  H  6896  6908       L1    19  0.09
      L1  C     4    26       P1  7948  1.00

> <Gold.PLP.Chemscore.Internal.Correction>
0.0081

> <Gold.Rescore>
     Score         DG    S(hbond)    S(metal)    S(lipo)     H(rot)  DE(clash)    DE(int)     intcor
     14.73     -14.95       2.84        0.00      38.40       1.76       0.00       0.21       ----

> <Gold.Chemscore.Fitness>
14.7322

> <Gold.Chemscore.DG>
-14.9456

> <Gold.Chemscore.ZeroCoef>
-5.4800

> <Gold.Chemscore.Hbond>
2.8366

> <Gold.Chemscore.Metal>
0.0000

> <Gold.Chemscore.Lipo>
38.3991

> <Gold.Chemscore.Internal_Hbond>
0.0000

> <Gold.Chemscore.DEClash>
0.0048

> <Gold.Chemscore.DEInternal>
0.2086

> <Gold.Chemscore.Rot>
1.7584

> <Gold.Chemscore.Internal.Correction>
   9.000000E+99

> <Gold.Chemscore.Hbonds>
donor molecule, donor type, donor heavy atom, donor atom, acceptor molecule, acceptor atom, score
      L1  H     7    29       P1  7948  0.25
      L1  H    11    35       P1 10186  0.99
      P1  H  6896  6908       L1    19  0.11

> <Gold.Chemscore.Hbond.Weighted>
-9.4744

> <Gold.Chemscore.Metal.Weighted>
-0.0000

> <Gold.Chemscore.Lipo.Weighted>
-4.4927

> <Gold.Chemscore.Internal_Hbond.Weighted>
0.0000

> <Gold.Chemscore.DEClash.Weighted>
0.0048

> <Gold.Chemscore.DEInternal.Weighted>
0.2086

> <Gold.Chemscore.Rot.Weighted>
4.5016

> <Gold.Chemscore.Internal.Correction.Weighted>
   9.000000E+99

> <Gold.Protein.RotatedTorsions>
[ 6907 6896 6895 6894 ] final   80.30 input  -60.11 | X-H torsion
[ 7974 7965 7964 7962 ] final  151.33 input  175.53 | X-H torsion
[ 8008 7997 7996 7995 ] final  103.27 input   59.86 | X-H torsion
[ 10167 10162 10161 10158 ] final  160.45 input  -65.29 | X-H torsion
[ 10718 10713 10712 10709 ] final  -66.49 input   66.30 | X-H torsion
[ 10763 10752 10751 10750 ] final   52.98 input  -60.55 | X-H torsion
[ 11005 11000 10999 10996 ] final -176.95 input  -57.11 | X-H torsion

> <Gold.Protein.ActiveResidues>
 VAL166  LYS551  ARG553  GLY616  TRP617  ASP618  TYR619  PRO620  LYS621  CYS622 
 ASP623  PHE694  ASN695  SER759  ASP760  ASP761  ALA762  ILE779  LEU786  VAL792 
 PHE793  MET794  SER795  GLU796  ALA797  LYS798  CYS799  TRP800  GLU811  SER814 

> <Gold.Protein.RotatedAtoms>
  152.5230  134.3379  159.9206 H   0  0  0  0  0  0  0  0  0  0  0  0  # atno 6907 bound_to 6896
  151.3328  133.3987  159.2672 H   0  0  0  0  0  0  0  0  0  0  0  0  # atno 6908 bound_to 6896
  150.9866  134.9228  159.7933 H   0  0  0  0  0  0  0  0  0  0  0  0  # atno 6909 bound_to 6896
  144.8300  139.6524  143.6063 H   0  0  0  0  0  0  0  0  0  0  0  0  # atno 7974 bound_to 7965
  156.1469  140.3167  155.8585 H   0  0  0  0  0  0  0  0  0  0  0  0  # atno 8008 bound_to 7997
  155.4047  140.0502  157.3052 H   0  0  0  0  0  0  0  0  0  0  0  0  # atno 8009 bound_to 7997
  154.5024  140.2134  155.9331 H   0  0  0  0  0  0  0  0  0  0  0  0  # atno 8010 bound_to 7997
  139.4840  144.4633  151.8676 H   0  0  0  0  0  0  0  0  0  0  0  0  # atno 10167 bound_to 10162
  156.0610  130.4263  150.1716 H   0  0  0  0  0  0  0  0  0  0  0  0  # atno 10718 bound_to 10713
  152.9792  135.5794  154.4667 H   0  0  0  0  0  0  0  0  0  0  0  0  # atno 10763 bound_to 10752
  154.4236  135.2772  155.1961 H   0  0  0  0  0  0  0  0  0  0  0  0  # atno 10764 bound_to 10752
  154.3700  135.6170  153.5789 H   0  0  0  0  0  0  0  0  0  0  0  0  # atno 10765 bound_to 10752
  140.4464  134.6384  157.4781 H   0  0  0  0  0  0  0  0  0  0  0  0  # atno 11005 bound_to 11000
  146.2603  139.6395  142.9366 LP  0  0  0  0  0  0  0  0  0  0  0  0  # atno 17320 bound_to 7965
  145.4917  141.0438  143.2589 LP  0  0  0  0  0  0  0  0  0  0  0  0  # atno 17321 bound_to 7965
  140.4096  144.2386  150.5889 LP  0  0  0  0  0  0  0  0  0  0  0  0  # atno 17342 bound_to 10162
  140.4979  143.2327  151.8722 LP  0  0  0  0  0  0  0  0  0  0  0  0  # atno 17343 bound_to 10162
  156.9784  130.9856  151.3443 LP  0  0  0  0  0  0  0  0  0  0  0  0  # atno 17370 bound_to 10713
  157.5618  130.8251  149.8275 LP  0  0  0  0  0  0  0  0  0  0  0  0  # atno 17371 bound_to 10713
  140.0036  134.6798  155.9491 LP  0  0  0  0  0  0  0  0  0  0  0  0  # atno 17394 bound_to 11000
  141.1683  133.6537  156.4560 LP  0  0  0  0  0  0  0  0  0  0  0  0  # atno 17395 bound_to 11000

$$$$
