AV-unprocessed.smi:1964|AV-procd|sdf|7931|dock5
  -GOLD-   2272010103D 1   1.00000     0.00000
 Structure written by MMmdl.
 46 48  0  0  0  0  0  0  0  0  1 V2000
  146.4696  143.2122  154.2611 C   0  0  0  0  0  0  0  0  0  0  0  0
  146.1272  143.9932  155.5432 C   0  0  1  0  0  0  0  0  0  0  0  0
  144.6050  144.2118  155.6579 C   0  0  0  0  0  0  0  0  0  0  0  0
  144.2338  145.0058  156.9196 C   0  0  0  0  0  0  0  0  0  0  0  0
  144.7760  144.3216  158.1819 C   0  0  0  0  0  0  0  0  0  0  0  0
  146.2938  144.1110  158.0852 C   0  0  0  0  0  0  0  0  0  0  0  0
  146.6748  143.3110  156.8216 C   0  0  2  0  0  0  0  0  0  0  0  0
  148.1249  143.1724  156.7344 N   0  0  0  0  0  0  0  0  0  0  0  0
  148.8033  142.0177  156.6264 C   0  0  0  0  0  0  0  0  0  0  0  0
  148.2522  140.9178  156.6213 O   0  0  0  0  0  0  0  0  0  0  0  0
  150.3349  142.0892  156.4924 C   0  0  0  0  0  0  0  0  0  0  0  0
  151.0834  141.6113  157.6787 N   0  0  0  0  0  0  0  0  0  0  0  0
  151.0135  140.2345  158.0134 C   0  0  0  0  0  0  0  0  0  0  0  0
  150.3560  139.4478  157.3304 O   0  0  0  0  0  0  0  0  0  0  0  0
  151.7701  139.8354  159.1976 C   0  0  0  0  0  0  0  0  0  0  0  0
  151.6854  138.4688  159.5944 C   0  0  0  0  0  0  0  0  0  0  0  0
  151.6319  137.3642  159.9352 N   0  0  0  0  0  0  0  0  0  0  0  0
  152.5135  140.7297  159.8809 C   0  0  0  0  0  0  0  0  0  0  0  0
  152.6167  142.0503  159.5020 N   0  0  0  0  0  0  0  0  0  0  0  0
  153.3096  143.0116  160.3121 C   0  0  0  0  0  0  0  0  0  0  0  0
  153.0417  143.0839  161.8030 C   0  0  0  0  0  0  0  0  0  0  0  0
  152.5368  144.1760  160.8928 C   0  0  0  0  0  0  0  0  0  0  0  0
  151.8603  142.5389  158.4148 C   0  0  0  0  0  0  0  0  0  0  0  0
  151.8794  143.7337  158.1093 O   0  0  0  0  0  0  0  0  0  0  0  0
  146.0593  142.2025  154.2923 H   0  0  0  0  0  0  0  0  0  0  0  0
  147.5464  143.1294  154.1124 H   0  0  0  0  0  0  0  0  0  0  0  0
  146.0612  143.7089  153.3806 H   0  0  0  0  0  0  0  0  0  0  0  0
  146.5947  144.9758  155.4585 H   0  0  0  0  0  0  0  0  0  0  0  0
  144.2363  144.7393  154.7776 H   0  0  0  0  0  0  0  0  0  0  0  0
  144.0956  143.2472  155.6741 H   0  0  0  0  0  0  0  0  0  0  0  0
  144.6368  146.0167  156.8488 H   0  0  0  0  0  0  0  0  0  0  0  0
  143.1505  145.1086  156.9890 H   0  0  0  0  0  0  0  0  0  0  0  0
  144.5388  144.9204  159.0617 H   0  0  0  0  0  0  0  0  0  0  0  0
  144.2812  143.3591  158.3190 H   0  0  0  0  0  0  0  0  0  0  0  0
  146.7938  145.0807  158.0730 H   0  0  0  0  0  0  0  0  0  0  0  0
  146.6446  143.5954  158.9800 H   0  0  0  0  0  0  0  0  0  0  0  0
  146.2325  142.3151  156.8912 H   0  0  0  0  0  0  0  0  0  0  0  0
  148.6588  144.0292  156.7373 H   0  0  0  0  0  0  0  0  0  0  0  0
  150.6208  141.5323  155.5989 H   0  0  0  0  0  0  0  0  0  0  0  0
  150.6068  143.1183  156.2521 H   0  0  0  0  0  0  0  0  0  0  0  0
  153.0584  140.3982  160.7533 H   0  0  0  0  0  0  0  0  0  0  0  0
  154.3308  143.2284  160.0035 H   0  0  0  0  0  0  0  0  0  0  0  0
  152.3002  142.4086  162.2264 H   0  0  0  0  0  0  0  0  0  0  0  0
  153.8832  143.3168  162.4521 H   0  0  0  0  0  0  0  0  0  0  0  0
  153.0401  145.1398  160.9371 H   0  0  0  0  0  0  0  0  0  0  0  0
  151.4635  144.2196  160.7167 H   0  0  0  0  0  0  0  0  0  0  0  0
  1  2  1  0  0  0  0
  1 25  1  0  0  0  0
  1 26  1  0  0  0  0
  1 27  1  0  0  0  0
  2  7  1  0  0  0  0
  2  3  1  0  0  0  0
  2 28  1  0  0  0  0
  3  4  1  0  0  0  0
  3 29  1  0  0  0  0
  3 30  1  0  0  0  0
  4  5  1  0  0  0  0
  4 31  1  0  0  0  0
  4 32  1  0  0  0  0
  5  6  1  0  0  0  0
  5 33  1  0  0  0  0
  5 34  1  0  0  0  0
  6  7  1  0  0  0  0
  6 35  1  0  0  0  0
  6 36  1  0  0  0  0
  7  8  1  0  0  0  0
  7 37  1  0  0  0  0
  8  9  1  0  0  0  0
  8 38  1  0  0  0  0
  9 10  2  0  0  0  0
  9 11  1  0  0  0  0
 11 12  1  0  0  0  0
 11 39  1  0  0  0  0
 11 40  1  0  0  0  0
 12 23  1  0  0  0  0
 12 13  1  0  0  0  0
 13 14  2  0  0  0  0
 13 15  1  0  0  0  0
 15 16  1  0  0  0  0
 15 18  2  0  0  0  0
 16 17  3  0  0  0  0
 18 19  1  0  0  0  0
 18 41  1  0  0  0  0
 19 20  1  0  0  0  0
 19 23  1  0  0  0  0
 20 22  1  0  0  0  0
 20 21  1  0  0  0  0
 20 42  1  0  0  0  0
 21 22  1  0  0  0  0
 21 43  1  0  0  0  0
 21 44  1  0  0  0  0
 22 45  1  0  0  0  0
 22 46  1  0  0  0  0
 23 24  2  0  0  0  0
M  END
> <s_m_source_file>
AV-unprocessed.smi

> <i_m_source_file_index>
1964

> <i_lp_mmshare_version>
43012

> <i_f3d_flags>
0

> <s_epik_input>
W0NIM11bQ0BASF0xW0NIMl1bQ0gyXVtDSDJdW0NIMl1bQ0BIXTFbTkhdQyg9TylbQ0gyXW4yYyg9TyljKEMjTilbY0hdbihjMj1PKVtDSF0zW0NIMl1bQ0gyXTM=

> <s_epik_cmdline>
J2VwaWtfcHl0aG9uJywgJy1waCcsICc3LjAnLCAnLXRuJywgJzgnLCAnLW1hJywgJzIwMCcsICctbWV0YWxfYmluZGluZycsICctaW1hZScsICc8aW5maWxlLm1hZT4nLCAnLW9tYWUnLCAnPG91dGZpbGUubWFlPic=

> <r_lp_tautomer_probability>
1

> <r_epik_Ionization_Penalty>
1.91372e-08

> <r_epik_Ionization_Penalty_Charging>
9.0283e-11

> <r_epik_Ionization_Penalty_Neutral>
1.90469e-08

> <r_epik_State_Penalty>
-0

> <r_epik_Charging_Adjusted_Penalty>
9.0283e-11

> <i_epik_Tot_Q>
0

> <i_epik_Tot_abs_Q>
0

> <r_epik_Metal_State_Penalty>
-0

> <b_epik_Metal_Only>
0

> <s_lp_Force_Field>
OPLS_2005

> <r_lp_Energy>
35.2183

> <b_lp_Chiralities_Consistent>
1

> <s_lp_Variant>
AV-unprocessed.smi:1964-4

> <Gold.Version>
5.8.1

> <Gold.Id.Protein>
6NUR|6NUR_protein|mol2

> <Gold.PLP.Fitness>
49.9087

> <Gold.PLP.PLP>
-44.4752

> <Gold.PLP.part.hbond>
-2.0000

> <Gold.PLP.part.metal>
0.0000

> <Gold.PLP.part.buried>
-7.0888

> <Gold.PLP.part.nonpolar>
-35.5544

> <Gold.PLP.part.repulsive>
0.1081

> <Gold.PLP.ligand.clash>
0.0000

> <Gold.PLP.ligand.torsion>
0.2826

> <Gold.PLP.Chemscore.Hbond>
1.9353

> <Gold.PLP.Chemscore.CHOScore>
0.0000

> <Gold.PLP.Chemscore.Metal>
0.0000

> <Gold.Chemscore.Hbonds>
donor molecule, donor type, donor heavy atom, donor atom, acceptor molecule, acceptor atom, score
      L1  H     8    38       P1  8028  0.10
      P1  H  6896  6909       L1    17  0.60

> <Gold.PLP.Chemscore.Internal.Correction>
0.1930

> <Gold.Rescore>
     Score         DG    S(hbond)    S(metal)    S(lipo)     H(rot)  DE(clash)    DE(int)     intcor
     13.82     -15.97       1.75        0.00      77.05       1.70       0.05       2.09       ----

> <Gold.Chemscore.Fitness>
13.8213

> <Gold.Chemscore.DG>
-15.9668

> <Gold.Chemscore.ZeroCoef>
-5.4800

> <Gold.Chemscore.Hbond>
1.7465

> <Gold.Chemscore.Metal>
0.0000

> <Gold.Chemscore.Lipo>
77.0519

> <Gold.Chemscore.Internal_Hbond>
0.0000

> <Gold.Chemscore.DEClash>
0.0524

> <Gold.Chemscore.DEInternal>
2.0931

> <Gold.Chemscore.Rot>
1.7038

> <Gold.Chemscore.Internal.Correction>
   9.000000E+99

> <Gold.Chemscore.Hbonds>
donor molecule, donor type, donor heavy atom, donor atom, acceptor molecule, acceptor atom, score
      L1  H     8    38       P1  8028  0.01
      P1  H  6896  6909       L1    17  0.60

> <Gold.Chemscore.Hbond.Weighted>
-5.8335

> <Gold.Chemscore.Metal.Weighted>
-0.0000

> <Gold.Chemscore.Lipo.Weighted>
-9.0151

> <Gold.Chemscore.Internal_Hbond.Weighted>
0.0000

> <Gold.Chemscore.DEClash.Weighted>
0.0524

> <Gold.Chemscore.DEInternal.Weighted>
2.0931

> <Gold.Chemscore.Rot.Weighted>
4.3618

> <Gold.Chemscore.Internal.Correction.Weighted>
   9.000000E+99

> <Gold.Protein.RotatedTorsions>
[ 6907 6896 6895 6894 ] final  119.31 input  -60.11 | X-H torsion
[ 7974 7965 7964 7962 ] final  -80.25 input  175.53 | X-H torsion
[ 8008 7997 7996 7995 ] final -123.39 input   59.86 | X-H torsion
[ 10167 10162 10161 10158 ] final   -5.37 input  -65.29 | X-H torsion
[ 10718 10713 10712 10709 ] final  -70.45 input   66.30 | X-H torsion
[ 10763 10752 10751 10750 ] final  -81.33 input  -60.55 | X-H torsion
[ 11005 11000 10999 10996 ] final -123.72 input  -57.11 | X-H torsion

> <Gold.Protein.ActiveResidues>
 VAL166  LYS551  ARG553  GLY616  TRP617  ASP618  TYR619  PRO620  LYS621  CYS622 
 ASP623  PHE694  ASN695  SER759  ASP760  ASP761  ALA762  ILE779  LEU786  VAL792 
 PHE793  MET794  SER795  GLU796  ALA797  LYS798  CYS799  TRP800  GLU811  SER814 

> <Gold.Protein.RotatedAtoms>
  152.4481  133.7575  159.6727 H   0  0  0  0  0  0  0  0  0  0  0  0  # atno 6907 bound_to 6896
  150.8385  133.7963  159.3076 H   0  0  0  0  0  0  0  0  0  0  0  0  # atno 6908 bound_to 6896
  151.5595  135.1068  160.0021 H   0  0  0  0  0  0  0  0  0  0  0  0  # atno 6909 bound_to 6896
  145.5624  140.9480  143.1440 H   0  0  0  0  0  0  0  0  0  0  0  0  # atno 7974 bound_to 7965
  155.1798  140.0410  157.2880 H   0  0  0  0  0  0  0  0  0  0  0  0  # atno 8008 bound_to 7997
  154.6212  140.2501  155.7520 H   0  0  0  0  0  0  0  0  0  0  0  0  # atno 8009 bound_to 7997
  156.2434  140.2894  156.0520 H   0  0  0  0  0  0  0  0  0  0  0  0  # atno 8010 bound_to 7997
  140.6960  143.6316  150.8517 H   0  0  0  0  0  0  0  0  0  0  0  0  # atno 10167 bound_to 10162
  156.0407  130.4332  150.2298 H   0  0  0  0  0  0  0  0  0  0  0  0  # atno 10718 bound_to 10713
  154.5623  135.5630  153.7018 H   0  0  0  0  0  0  0  0  0  0  0  0  # atno 10763 bound_to 10752
  153.0022  135.6277  154.2228 H   0  0  0  0  0  0  0  0  0  0  0  0  # atno 10764 bound_to 10752
  154.2166  135.2871  155.2919 H   0  0  0  0  0  0  0  0  0  0  0  0  # atno 10765 bound_to 10752
  140.9897  134.0556  157.3669 H   0  0  0  0  0  0  0  0  0  0  0  0  # atno 11005 bound_to 11000
  144.7476  139.7278  143.7286 LP  0  0  0  0  0  0  0  0  0  0  0  0  # atno 17320 bound_to 7965
  146.1842  139.5049  142.9847 LP  0  0  0  0  0  0  0  0  0  0  0  0  # atno 17321 bound_to 7965
  140.0034  143.5719  152.2867 LP  0  0  0  0  0  0  0  0  0  0  0  0  # atno 17342 bound_to 10162
  139.6417  144.7655  151.2325 LP  0  0  0  0  0  0  0  0  0  0  0  0  # atno 17343 bound_to 10162
  157.0393  131.0030  151.3288 LP  0  0  0  0  0  0  0  0  0  0  0  0  # atno 17370 bound_to 10713
  157.5221  130.8004  149.7821 LP  0  0  0  0  0  0  0  0  0  0  0  0  # atno 17371 bound_to 10713
  139.8986  135.0155  156.7159 LP  0  0  0  0  0  0  0  0  0  0  0  0  # atno 17394 bound_to 11000
  140.7059  133.9265  155.8053 LP  0  0  0  0  0  0  0  0  0  0  0  0  # atno 17395 bound_to 11000

$$$$
