AV-unprocessed.smi:2981|AV-procd|sdf|11374|dock10
  -GOLD-   2272016293D 1   1.00000     0.00000
 Structure written by MMmdl.
 31 32  0  0  0  0  0  0  0  0  1 V2000
  151.0002  140.8207  157.1244 O   0  0  0  0  0  0  0  0  0  0  0  0
  150.7446  142.0145  156.9601 C   0  0  0  0  0  0  0  0  0  0  0  0
  151.7444  143.0994  157.3873 C   0  0  0  0  0  0  0  0  0  0  0  0
  152.1931  142.9635  158.7813 N   0  0  0  0  0  0  0  0  0  0  0  0
  151.8641  144.0393  159.5873 N   0  0  0  0  0  0  0  0  0  0  0  0
  152.1940  144.0231  160.8327 C   0  0  0  0  0  0  0  0  0  0  0  0
  152.9068  142.9137  161.4267 C   0  0  0  0  0  0  0  0  0  0  0  0
  153.3225  142.9482  163.1041 Cl  0  0  0  0  0  0  0  0  0  0  0  0
  153.2302  141.8669  160.6264 C   0  0  0  0  0  0  0  0  0  0  0  0
  154.0843  140.5038  161.2643 Cl  0  0  0  0  0  0  0  0  0  0  0  0
  152.8705  141.8508  159.2017 C   0  0  0  0  0  0  0  0  0  0  0  0
  153.1476  140.9216  158.4419 O   0  0  0  0  0  0  0  0  0  0  0  0
  149.5936  142.4520  156.4279 N   0  0  0  0  0  0  0  0  0  0  0  0
  148.5107  141.5962  155.9537 C   0  0  2  0  0  0  0  0  0  0  0  0
  148.3321  141.7185  154.4292 C   0  0  0  0  0  0  0  0  0  0  0  0
  146.9861  141.0946  154.0397 C   0  0  0  0  0  0  0  0  0  0  0  0
  145.8738  141.3445  155.4757 S   0  0  0  0  0  0  0  0  0  0  0  0
  144.9342  142.4390  155.1877 O   0  0  0  0  0  0  0  0  0  0  0  0
  145.3908  140.0340  155.9364 O   0  0  0  0  0  0  0  0  0  0  0  0
  147.1713  141.9529  156.6173 C   0  0  0  0  0  0  0  0  0  0  0  0
  152.6065  143.0875  156.7174 H   0  0  0  0  0  0  0  0  0  0  0  0
  151.2706  144.0709  157.2358 H   0  0  0  0  0  0  0  0  0  0  0  0
  151.9536  144.8460  161.5060 H   0  0  0  0  0  0  0  0  0  0  0  0
  149.4629  143.4489  156.3339 H   0  0  0  0  0  0  0  0  0  0  0  0
  148.7439  140.5532  156.1775 H   0  0  0  0  0  0  0  0  0  0  0  0
  148.3186  142.7738  154.1527 H   0  0  0  0  0  0  0  0  0  0  0  0
  149.1579  141.2581  153.8856 H   0  0  0  0  0  0  0  0  0  0  0  0
  146.5532  141.5404  153.1441 H   0  0  0  0  0  0  0  0  0  0  0  0
  147.0900  140.0213  153.8792 H   0  0  0  0  0  0  0  0  0  0  0  0
  147.0489  141.5005  157.6017 H   0  0  0  0  0  0  0  0  0  0  0  0
  147.0510  143.0325  156.7123 H   0  0  0  0  0  0  0  0  0  0  0  0
  1  2  2  0  0  0  0
  2  3  1  0  0  0  0
  2 13  1  0  0  0  0
  3  4  1  0  0  0  0
  3 21  1  0  0  0  0
  3 22  1  0  0  0  0
  4 11  1  0  0  0  0
  4  5  1  0  0  0  0
  5  6  2  0  0  0  0
  6  7  1  0  0  0  0
  6 23  1  0  0  0  0
  7  8  1  0  0  0  0
  7  9  2  0  0  0  0
  9 10  1  0  0  0  0
  9 11  1  0  0  0  0
 11 12  2  0  0  0  0
 13 14  1  0  0  0  0
 13 24  1  0  0  0  0
 14 20  1  0  0  0  0
 14 15  1  0  0  0  0
 14 25  1  0  0  0  0
 15 16  1  0  0  0  0
 15 26  1  0  0  0  0
 15 27  1  0  0  0  0
 16 17  1  0  0  0  0
 16 28  1  0  0  0  0
 16 29  1  0  0  0  0
 17 18  2  0  0  0  0
 17 19  2  0  0  0  0
 17 20  1  0  0  0  0
 20 30  1  0  0  0  0
 20 31  1  0  0  0  0
M  END
> <s_m_source_file>
AV-unprocessed.smi

> <i_m_source_file_index>
2981

> <i_lp_mmshare_version>
43012

> <i_f3d_flags>
0

> <s_epik_input>
Tz1TMSg9TylbQ0gyXVtDSDJdW0NASF0oW0NIMl0xKVtOSF1DKD1PKVtDSDJdbjJuW2NIXWMoQ2wpYyhDbCljMj1P

> <s_epik_cmdline>
J2VwaWtfcHl0aG9uJywgJy1waCcsICc3LjAnLCAnLXRuJywgJzgnLCAnLW1hJywgJzIwMCcsICctbWV0YWxfYmluZGluZycsICctaW1hZScsICc8aW5maWxlLm1hZT4nLCAnLW9tYWUnLCAnPG91dGZpbGUubWFlPic=

> <r_lp_tautomer_probability>
1

> <r_epik_Ionization_Penalty>
1.07216e-07

> <r_epik_Ionization_Penalty_Charging>
2.33395e-11

> <r_epik_Ionization_Penalty_Neutral>
1.07193e-07

> <r_epik_State_Penalty>
-0

> <r_epik_Charging_Adjusted_Penalty>
2.33395e-11

> <i_epik_Tot_Q>
0

> <i_epik_Tot_abs_Q>
0

> <r_epik_Metal_State_Penalty>
-0

> <b_epik_Metal_Only>
0

> <s_lp_Force_Field>
OPLS_2005

> <r_lp_Energy>
19.0616

> <b_lp_Chiralities_Consistent>
1

> <s_lp_Variant>
AV-unprocessed.smi:2981-1

> <Gold.Version>
5.8.1

> <Gold.Id.Protein>
6NUR|6NUR_protein|mol2

> <Gold.PLP.Fitness>
42.2988

> <Gold.PLP.PLP>
-38.1986

> <Gold.PLP.part.hbond>
-1.9898

> <Gold.PLP.part.metal>
0.0000

> <Gold.PLP.part.buried>
-2.8452

> <Gold.PLP.part.nonpolar>
-32.5256

> <Gold.PLP.part.repulsive>
0.3205

> <Gold.PLP.ligand.clash>
0.0000

> <Gold.PLP.ligand.torsion>
0.0855

> <Gold.PLP.Chemscore.Hbond>
1.4233

> <Gold.PLP.Chemscore.CHOScore>
0.0000

> <Gold.PLP.Chemscore.Metal>
0.0000

> <Gold.Chemscore.Hbonds>
donor molecule, donor type, donor heavy atom, donor atom, acceptor molecule, acceptor atom, score
      L1  H    13    24       P1  8028  1.00
      P1  H  7997  8008       L1    12  0.36

> <Gold.PLP.Chemscore.Internal.Correction>
0.0014

> <Gold.Rescore>
     Score         DG    S(hbond)    S(metal)    S(lipo)     H(rot)  DE(clash)    DE(int)     intcor
     14.04     -15.94       1.57        0.00      81.83       1.70       0.30       1.59       ----

> <Gold.Chemscore.Fitness>
14.0435

> <Gold.Chemscore.DG>
-15.9374

> <Gold.Chemscore.ZeroCoef>
-5.4800

> <Gold.Chemscore.Hbond>
1.5712

> <Gold.Chemscore.Metal>
0.0000

> <Gold.Chemscore.Lipo>
81.8305

> <Gold.Chemscore.Internal_Hbond>
0.0000

> <Gold.Chemscore.DEClash>
0.3045

> <Gold.Chemscore.DEInternal>
1.5894

> <Gold.Chemscore.Rot>
1.7049

> <Gold.Chemscore.Internal.Correction>
   9.000000E+99

> <Gold.Chemscore.Hbonds>
donor molecule, donor type, donor heavy atom, donor atom, acceptor molecule, acceptor atom, score
      L1  H    13    24       P1  8028  0.93
      P1  H  7997  8008       L1    12  0.36

> <Gold.Chemscore.Hbond.Weighted>
-5.2479

> <Gold.Chemscore.Metal.Weighted>
-0.0000

> <Gold.Chemscore.Lipo.Weighted>
-9.5742

> <Gold.Chemscore.Internal_Hbond.Weighted>
0.0000

> <Gold.Chemscore.DEClash.Weighted>
0.3045

> <Gold.Chemscore.DEInternal.Weighted>
1.5894

> <Gold.Chemscore.Rot.Weighted>
4.3646

> <Gold.Chemscore.Internal.Correction.Weighted>
   9.000000E+99

> <Gold.Protein.RotatedTorsions>
[ 6907 6896 6895 6894 ] final  -30.42 input  -60.11 | X-H torsion
[ 7974 7965 7964 7962 ] final -127.69 input  175.53 | X-H torsion
[ 8008 7997 7996 7995 ] final  -84.25 input   59.86 | X-H torsion
[ 10167 10162 10161 10158 ] final -163.70 input  -65.29 | X-H torsion
[ 10718 10713 10712 10709 ] final  -28.37 input   66.30 | X-H torsion
[ 10763 10752 10751 10750 ] final  -21.28 input  -60.55 | X-H torsion
[ 11005 11000 10999 10996 ] final   77.57 input  -57.11 | X-H torsion

> <Gold.Protein.ActiveResidues>
 VAL166  LYS551  ARG553  GLY616  TRP617  ASP618  TYR619  PRO620  LYS621  CYS622 
 ASP623  PHE694  ASN695  SER759  ASP760  ASP761  ALA762  ILE779  LEU786  VAL792 
 PHE793  MET794  SER795  GLU796  ALA797  LYS798  CYS799  TRP800  GLU811  SER814 

> <Gold.Protein.RotatedAtoms>
  151.1057  134.9998  159.8469 H   0  0  0  0  0  0  0  0  0  0  0  0  # atno 6907 bound_to 6896
  152.5440  134.1896  159.8678 H   0  0  0  0  0  0  0  0  0  0  0  0  # atno 6908 bound_to 6896
  151.1942  133.4604  159.2628 H   0  0  0  0  0  0  0  0  0  0  0  0  # atno 6909 bound_to 6896
  144.9745  140.7579  143.4650 H   0  0  0  0  0  0  0  0  0  0  0  0  # atno 7974 bound_to 7965
  154.6278  140.0607  156.9695 H   0  0  0  0  0  0  0  0  0  0  0  0  # atno 8008 bound_to 7997
  155.1714  140.3291  155.4373 H   0  0  0  0  0  0  0  0  0  0  0  0  # atno 8009 bound_to 7997
  156.2467  140.1913  156.6816 H   0  0  0  0  0  0  0  0  0  0  0  0  # atno 8010 bound_to 7997
  139.6302  144.0454  152.2009 H   0  0  0  0  0  0  0  0  0  0  0  0  # atno 10167 bound_to 10162
  156.4261  130.4436  149.7150 H   0  0  0  0  0  0  0  0  0  0  0  0  # atno 10718 bound_to 10713
  153.6337  135.6988  153.5266 H   0  0  0  0  0  0  0  0  0  0  0  0  # atno 10763 bound_to 10752
  153.2839  135.4177  155.1103 H   0  0  0  0  0  0  0  0  0  0  0  0  # atno 10764 bound_to 10752
  154.8516  135.3608  154.5880 H   0  0  0  0  0  0  0  0  0  0  0  0  # atno 10765 bound_to 10752
  139.9249  134.7693  156.1539 H   0  0  0  0  0  0  0  0  0  0  0  0  # atno 11005 bound_to 11000
  145.2510  139.2032  143.4942 LP  0  0  0  0  0  0  0  0  0  0  0  0  # atno 17320 bound_to 7965
  146.3391  140.2423  142.8596 LP  0  0  0  0  0  0  0  0  0  0  0  0  # atno 17321 bound_to 7965
  140.0117  144.6219  150.7641 LP  0  0  0  0  0  0  0  0  0  0  0  0  # atno 17342 bound_to 10162
  140.7435  143.2846  151.3499 LP  0  0  0  0  0  0  0  0  0  0  0  0  # atno 17343 bound_to 10162
  156.4071  130.7704  151.2715 LP  0  0  0  0  0  0  0  0  0  0  0  0  # atno 17370 bound_to 10713
  157.7508  131.0222  150.3783 LP  0  0  0  0  0  0  0  0  0  0  0  0  # atno 17371 bound_to 10713
  141.0799  133.6759  156.2313 LP  0  0  0  0  0  0  0  0  0  0  0  0  # atno 17394 bound_to 11000
  140.6366  134.5209  157.5565 LP  0  0  0  0  0  0  0  0  0  0  0  0  # atno 17395 bound_to 11000

$$$$
