AV-unprocessed.smi:193|AV-procd|sdf|1506|dock10
  -GOLD-   2262019343D 1   1.00000     0.00000
 Structure written by MMmdl.
 62 66  0  0  0  0  0  0  0  0  2 V2000
  153.5256  139.1196  159.7120 C   0  0  0  0  0  0  0  0  0  0  0  0
  152.4465  140.1350  159.3059 C   0  0  2  0  0  0  0  0  0  0  0  0
  151.9677  139.8803  157.8630 C   0  0  0  0  0  0  0  0  0  0  0  0
  150.5785  140.2950  157.6722 N   0  0  0  0  0  0  0  0  0  0  0  0
  149.9703  139.6116  156.6807 C   0  0  0  0  0  0  0  0  0  0  0  0
  149.8030  140.2458  155.4951 N   0  0  0  0  0  0  0  0  0  0  0  0
  149.1981  139.6149  154.4834 C   0  0  0  0  0  0  0  0  0  0  0  0
  148.6979  138.3773  154.4503 N   0  0  0  0  0  0  0  0  0  0  0  0
  148.8675  137.7395  155.6443 C   0  0  0  0  0  0  0  0  0  0  0  0
  149.4870  138.2796  156.8051 C   0  0  0  0  0  0  0  0  0  0  0  0
  149.4753  137.3439  157.8323 N   0  0  0  0  0  0  0  0  0  0  0  0
  148.8869  136.3046  157.3050 C   0  0  0  0  0  0  0  0  0  0  0  0
  148.4943  136.4536  155.9936 N   0  0  0  0  0  0  0  0  0  0  0  0
  147.8226  135.4612  155.1686 C   0  0  0  0  0  0  0  0  0  0  0  0
  148.7243  134.2705  154.7593 C   0  0  0  0  0  0  0  0  0  0  0  0
  149.9140  134.8024  154.2013 O   0  0  0  0  0  0  0  0  0  0  0  0
  149.0998  133.4320  155.9976 C   0  0  0  0  0  0  0  0  0  0  0  0
  149.8495  132.1418  155.6208 C   0  0  0  0  0  0  0  0  0  0  0  0
  149.0771  131.3826  154.6990 O   0  0  0  0  0  0  0  0  0  0  0  0
  148.8633  132.0644  153.4692 C   0  0  0  0  0  0  0  0  0  0  0  0
  148.0583  133.3538  153.7095 C   0  0  0  0  0  0  0  0  0  0  0  0
  150.2384  141.7157  157.6604 C   0  0  0  0  0  0  0  0  0  0  0  0
  150.7292  142.4771  158.9010 C   0  0  0  0  0  0  0  0  0  0  0  0
  152.2015  142.6413  158.8461 N   0  3  1  0  0  0  0  0  0  0  0  0
  152.6518  143.9926  159.2544 C   0  0  2  0  0  0  0  0  0  0  0  0
  151.6172  145.0742  159.0358 C   0  0  0  0  0  0  0  0  0  0  0  0
  152.8167  144.9878  158.1184 C   0  0  2  0  0  0  0  0  0  0  0  0
  152.6272  144.6344  156.6541 C   0  0  0  0  0  0  0  0  0  0  0  0
  152.9644  141.5730  159.5422 C   0  0  0  0  0  0  0  0  0  0  0  0
  154.4122  139.2070  159.0832 H   0  0  0  0  0  0  0  0  0  0  0  0
  153.1573  138.0968  159.6254 H   0  0  0  0  0  0  0  0  0  0  0  0
  153.8344  139.2677  160.7471 H   0  0  0  0  0  0  0  0  0  0  0  0
  151.6010  139.9582  159.9730 H   0  0  0  0  0  0  0  0  0  0  0  0
  152.6170  140.3824  157.1443 H   0  0  0  0  0  0  0  0  0  0  0  0
  152.0412  138.8124  157.6478 H   0  0  0  0  0  0  0  0  0  0  0  0
  149.1010  140.1826  153.5696 H   0  0  0  0  0  0  0  0  0  0  0  0
  148.7246  135.3915  157.8594 H   0  0  0  0  0  0  0  0  0  0  0  0
  146.9464  135.1037  155.7116 H   0  0  0  0  0  0  0  0  0  0  0  0
  147.4413  135.9639  154.2788 H   0  0  0  0  0  0  0  0  0  0  0  0
  149.6870  135.5489  153.6681 H   0  0  0  0  0  0  0  0  0  0  0  0
  149.6968  134.0227  156.6940 H   0  0  0  0  0  0  0  0  0  0  0  0
  148.1909  133.1561  156.5339 H   0  0  0  0  0  0  0  0  0  0  0  0
  150.8297  132.3644  155.1968 H   0  0  0  0  0  0  0  0  0  0  0  0
  150.0219  131.5388  156.5124 H   0  0  0  0  0  0  0  0  0  0  0  0
  149.8188  132.2811  152.9896 H   0  0  0  0  0  0  0  0  0  0  0  0
  148.3155  131.4057  152.7950 H   0  0  0  0  0  0  0  0  0  0  0  0
  147.0614  133.0784  154.0559 H   0  0  0  0  0  0  0  0  0  0  0  0
  147.9197  133.8794  152.7639 H   0  0  0  0  0  0  0  0  0  0  0  0
  150.6324  142.1881  156.7595 H   0  0  0  0  0  0  0  0  0  0  0  0
  149.1521  141.8059  157.6055 H   0  0  0  0  0  0  0  0  0  0  0  0
  150.2535  143.4584  158.8888 H   0  0  0  0  0  0  0  0  0  0  0  0
  150.4079  142.0052  159.8305 H   0  0  0  0  0  0  0  0  0  0  0  0
  153.2965  144.0348  160.1305 H   0  0  0  0  0  0  0  0  0  0  0  0
  150.6483  144.7849  158.6321 H   0  0  0  0  0  0  0  0  0  0  0  0
  151.5944  145.8988  159.7456 H   0  0  0  0  0  0  0  0  0  0  0  0
  153.5857  145.7420  158.2751 H   0  0  0  0  0  0  0  0  0  0  0  0
  151.7988  143.9393  156.5142 H   0  0  0  0  0  0  0  0  0  0  0  0
  153.5358  144.1833  156.2551 H   0  0  0  0  0  0  0  0  0  0  0  0
  152.4135  145.5367  156.0807 H   0  0  0  0  0  0  0  0  0  0  0  0
  152.9693  141.7732  160.6148 H   0  0  0  0  0  0  0  0  0  0  0  0
  154.0017  141.6450  159.2149 H   0  0  0  0  0  0  0  0  0  0  0  0
  152.4380  142.5637  157.8671 H   0  0  0  0  0  0  0  0  0  0  0  0
  1  2  1  0  0  0  0
  1 30  1  0  0  0  0
  1 31  1  0  0  0  0
  1 32  1  0  0  0  0
  2 29  1  0  0  0  0
  2  3  1  0  0  0  0
  2 33  1  0  0  0  0
  3  4  1  0  0  0  0
  3 34  1  0  0  0  0
  3 35  1  0  0  0  0
  4  5  1  0  0  0  0
  4 22  1  0  0  0  0
  5 10  1  0  0  0  0
  5  6  2  0  0  0  0
  6  7  1  0  0  0  0
  7  8  2  0  0  0  0
  7 36  1  0  0  0  0
  8  9  1  0  0  0  0
  9 13  1  0  0  0  0
  9 10  2  0  0  0  0
 10 11  1  0  0  0  0
 11 12  2  0  0  0  0
 12 13  1  0  0  0  0
 12 37  1  0  0  0  0
 13 14  1  0  0  0  0
 14 15  1  0  0  0  0
 14 38  1  0  0  0  0
 14 39  1  0  0  0  0
 15 21  1  0  0  0  0
 15 16  1  0  0  0  0
 15 17  1  0  0  0  0
 16 40  1  0  0  0  0
 17 18  1  0  0  0  0
 17 41  1  0  0  0  0
 17 42  1  0  0  0  0
 18 19  1  0  0  0  0
 18 43  1  0  0  0  0
 18 44  1  0  0  0  0
 19 20  1  0  0  0  0
 20 21  1  0  0  0  0
 20 45  1  0  0  0  0
 20 46  1  0  0  0  0
 21 47  1  0  0  0  0
 21 48  1  0  0  0  0
 22 23  1  0  0  0  0
 22 49  1  0  0  0  0
 22 50  1  0  0  0  0
 23 24  1  0  0  0  0
 23 51  1  0  0  0  0
 23 52  1  0  0  0  0
 24 25  1  0  0  0  0
 24 29  1  0  0  0  0
 24 62  1  0  0  0  0
 25 27  1  0  0  0  0
 25 26  1  0  0  0  0
 25 53  1  0  0  0  0
 26 27  1  0  0  0  0
 26 54  1  0  0  0  0
 26 55  1  0  0  0  0
 27 28  1  0  0  0  0
 27 56  1  0  0  0  0
 28 57  1  0  0  0  0
 28 58  1  0  0  0  0
 28 59  1  0  0  0  0
 29 60  1  0  0  0  0
 29 61  1  0  0  0  0
M  CHG  1  24   1
M  END
> <s_m_source_file>
AV-unprocessed.smi

> <i_m_source_file_index>
193

> <i_lp_mmshare_version>
43012

> <i_f3d_flags>
0

> <s_epik_input>
W0NIM11bQ0BASF0xW0NIMl1bQ0BIXTFOKFtDSDJdMilbQ0gyXVtDSDJdTihbQ0gyXVtDQEhdMltDSDNdKWMobltjSF1uMyljKGMzNCluW2NIXW40W0NIMl1DNShbT0hdKVtDSDJdW0NIMl1PW0NIMl1bQ0gyXTU=

> <s_epik_cmdline>
J2VwaWtfcHl0aG9uJywgJy1waCcsICc3LjAnLCAnLXRuJywgJzgnLCAnLW1hJywgJzIwMCcsICctbWV0YWxfYmluZGluZycsICctaW1hZScsICc8aW5maWxlLm1hZT4nLCAnLW9tYWUnLCAnPG91dGZpbGUubWFlPic=

> <r_lp_tautomer_probability>
1

> <r_epik_Ionization_Penalty>
0.0540825

> <r_epik_Ionization_Penalty_Charging>
0.0538476

> <r_epik_Ionization_Penalty_Neutral>
0.000234891

> <r_epik_State_Penalty>
0.0200719

> <r_epik_Charging_Adjusted_Penalty>
0.0739194

> <i_epik_Tot_Q>
1

> <i_epik_Tot_abs_Q>
1

> <r_epik_Metal_State_Penalty>
0.0199414

> <b_epik_Metal_Only>
0

> <s_lp_Force_Field>
OPLS_2005

> <r_lp_Energy>
59.2238

> <b_lp_Chiralities_Consistent>
1

> <s_lp_Variant>
AV-unprocessed.smi:193-11

> <Gold.Version>
5.8.1

> <Gold.Id.Protein>
6NUR|6NUR_protein|mol2

> <Gold.PLP.Fitness>
40.7589

> <Gold.PLP.PLP>
-37.3155

> <Gold.PLP.part.hbond>
-1.5643

> <Gold.PLP.part.metal>
0.0000

> <Gold.PLP.part.buried>
-6.7478

> <Gold.PLP.part.nonpolar>
-30.0617

> <Gold.PLP.part.repulsive>
0.3170

> <Gold.PLP.ligand.clash>
0.0707

> <Gold.PLP.ligand.torsion>
1.5914

> <Gold.PLP.Chemscore.Hbond>
0.6960

> <Gold.PLP.Chemscore.CHOScore>
1.0000

> <Gold.PLP.Chemscore.Metal>
0.0000

> <Gold.Chemscore.Hbonds>
donor molecule, donor type, donor heavy atom, donor atom, acceptor molecule, acceptor atom, score
      L1  H    16    40       P1  7948  0.70
      L1  C     7    36       P1  7957  1.00

> <Gold.PLP.Chemscore.Internal.Correction>
1.6089

> <Gold.Rescore>
     Score         DG    S(hbond)    S(metal)    S(lipo)     H(rot)  DE(clash)    DE(int)     intcor
     11.90     -15.25       0.46        0.00     118.46       2.20       1.75       1.60       ----

> <Gold.Chemscore.Fitness>
11.8963

> <Gold.Chemscore.DG>
-15.2477

> <Gold.Chemscore.ZeroCoef>
-5.4800

> <Gold.Chemscore.Hbond>
0.4623

> <Gold.Chemscore.Metal>
0.0000

> <Gold.Chemscore.Lipo>
118.4631

> <Gold.Chemscore.Internal_Hbond>
0.0000

> <Gold.Chemscore.DEClash>
1.7468

> <Gold.Chemscore.DEInternal>
1.6046

> <Gold.Chemscore.Rot>
2.2018

> <Gold.Chemscore.Internal.Correction>
   9.000000E+99

> <Gold.Chemscore.Hbonds>
donor molecule, donor type, donor heavy atom, donor atom, acceptor molecule, acceptor atom, score
      L1  H    16    40       P1  7948  0.08

> <Gold.Chemscore.Hbond.Weighted>
-1.5441

> <Gold.Chemscore.Metal.Weighted>
-0.0000

> <Gold.Chemscore.Lipo.Weighted>
-13.8602

> <Gold.Chemscore.Internal_Hbond.Weighted>
0.0000

> <Gold.Chemscore.DEClash.Weighted>
1.7468

> <Gold.Chemscore.DEInternal.Weighted>
1.6046

> <Gold.Chemscore.Rot.Weighted>
5.6366

> <Gold.Chemscore.Internal.Correction.Weighted>
   9.000000E+99

> <Gold.Protein.RotatedTorsions>
[ 6907 6896 6895 6894 ] final   12.91 input  -60.11 | X-H torsion
[ 7974 7965 7964 7962 ] final -145.65 input  175.53 | X-H torsion
[ 8008 7997 7996 7995 ] final  -15.47 input   59.86 | X-H torsion
[ 10167 10162 10161 10158 ] final  129.18 input  -65.29 | X-H torsion
[ 10718 10713 10712 10709 ] final  -98.17 input   66.30 | X-H torsion
[ 10763 10752 10751 10750 ] final  -43.08 input  -60.55 | X-H torsion
[ 11005 11000 10999 10996 ] final   96.39 input  -57.11 | X-H torsion

> <Gold.Protein.ActiveResidues>
 VAL166  LYS551  ARG553  GLY616  TRP617  ASP618  TYR619  PRO620  LYS621  CYS622 
 ASP623  PHE694  ASN695  SER759  ASP760  ASP761  ALA762  ILE779  LEU786  VAL792 
 PHE793  MET794  SER795  GLU796  ALA797  LYS798  CYS799  TRP800  GLU811  SER814 

> <Gold.Protein.RotatedAtoms>
  151.7778  135.0769  160.0369 H   0  0  0  0  0  0  0  0  0  0  0  0  # atno 6907 bound_to 6896
  152.3244  133.5884  159.5775 H   0  0  0  0  0  0  0  0  0  0  0  0  # atno 6908 bound_to 6896
  150.7387  133.9879  159.3639 H   0  0  0  0  0  0  0  0  0  0  0  0  # atno 6909 bound_to 6896
  144.8213  140.5556  143.5577 H   0  0  0  0  0  0  0  0  0  0  0  0  # atno 7974 bound_to 7965
  154.5128  140.2195  155.9123 H   0  0  0  0  0  0  0  0  0  0  0  0  # atno 8008 bound_to 7997
  156.1572  140.3149  155.8712 H   0  0  0  0  0  0  0  0  0  0  0  0  # atno 8009 bound_to 7997
  155.3822  140.0473  157.3034 H   0  0  0  0  0  0  0  0  0  0  0  0  # atno 8010 bound_to 7997
  139.5490  144.6798  151.4381 H   0  0  0  0  0  0  0  0  0  0  0  0  # atno 10167 bound_to 10162
  156.0101  130.5226  150.6483 H   0  0  0  0  0  0  0  0  0  0  0  0  # atno 10718 bound_to 10713
  153.9896  135.6707  153.4753 H   0  0  0  0  0  0  0  0  0  0  0  0  # atno 10763 bound_to 10752
  153.0711  135.4974  154.8303 H   0  0  0  0  0  0  0  0  0  0  0  0  # atno 10764 bound_to 10752
  154.7117  135.3098  154.9149 H   0  0  0  0  0  0  0  0  0  0  0  0  # atno 10765 bound_to 10752
  139.8782  134.8948  156.4151 H   0  0  0  0  0  0  0  0  0  0  0  0  # atno 11005 bound_to 11000
  145.5099  139.1480  143.3610 LP  0  0  0  0  0  0  0  0  0  0  0  0  # atno 17320 bound_to 7965
  146.2518  140.5240  142.8890 LP  0  0  0  0  0  0  0  0  0  0  0  0  # atno 17321 bound_to 7965
  140.6748  143.8215  150.7044 LP  0  0  0  0  0  0  0  0  0  0  0  0  # atno 17342 bound_to 10162
  140.1650  143.4243  152.2041 LP  0  0  0  0  0  0  0  0  0  0  0  0  # atno 17343 bound_to 10162
  157.4249  131.0842  151.1095 LP  0  0  0  0  0  0  0  0  0  0  0  0  # atno 17370 bound_to 10713
  157.1685  130.6257  149.5633 LP  0  0  0  0  0  0  0  0  0  0  0  0  # atno 17371 bound_to 10713
  140.9173  133.7670  155.9863 LP  0  0  0  0  0  0  0  0  0  0  0  0  # atno 17394 bound_to 11000
  140.8479  134.2989  157.5287 LP  0  0  0  0  0  0  0  0  0  0  0  0  # atno 17395 bound_to 11000

$$$$
