AV-unprocessed.smi:236|AV-procd|sdf|1809|dock5
  -GOLD-   2262020393D 1   1.00000     0.00000
 Structure written by MMmdl.
 58 62  0  0  0  0  0  0  0  0  1 V2000
  139.7804  136.2121  155.0419 C   0  0  0  0  0  0  0  0  0  0  0  0
  140.7311  135.7016  153.9490 C   0  0  2  0  0  0  0  0  0  0  0  0
  140.9410  134.2975  154.0772 O   0  0  0  0  0  0  0  0  0  0  0  0
  142.2753  133.9625  153.7059 C   0  0  0  0  0  0  0  0  0  0  0  0
  142.8784  135.2425  153.1358 C   0  0  0  0  0  0  0  0  0  0  0  0
  142.1378  136.3285  153.9070 C   0  0  1  0  0  0  0  0  0  0  0  0
  142.1248  137.5138  153.1333 O   0  0  0  0  0  0  0  0  0  0  0  0
  142.7396  136.6308  155.3065 C   0  0  0  0  0  0  0  0  0  0  0  0
  144.1535  136.9703  155.2765 N   0  0  0  0  0  0  0  0  0  0  0  0
  145.2077  136.1070  155.0808 C   0  0  0  0  0  0  0  0  0  0  0  0
  146.3901  136.6588  155.1045 N   0  0  0  0  0  0  0  0  0  0  0  0
  146.1321  138.0075  155.3199 C   0  0  0  0  0  0  0  0  0  0  0  0
  146.9430  139.1699  155.4583 C   0  0  0  0  0  0  0  0  0  0  0  0
  148.2914  139.1860  155.4049 N   0  0  0  0  0  0  0  0  0  0  0  0
  148.8191  138.7636  154.1155 C   0  0  0  0  0  0  0  0  0  0  0  0
  150.3485  138.6324  154.1971 C   0  0  0  0  0  0  0  0  0  0  0  0
  150.9071  139.8597  154.6569 O   0  0  0  0  0  0  0  0  0  0  0  0
  150.4524  140.2114  155.9626 C   0  0  1  0  0  0  0  0  0  0  0  0
  151.1684  141.4992  156.3874 C   0  0  0  0  0  0  0  0  0  0  0  0
  151.9252  141.2426  157.5587 O   0  0  0  0  0  0  0  0  0  0  0  0
  151.1722  141.4253  158.7449 C   0  0  0  0  0  0  0  0  0  0  0  0
  152.1165  141.7225  159.8903 C   0  0  0  0  0  0  0  0  0  0  0  0
  152.5494  143.1398  160.1902 C   0  0  0  0  0  0  0  0  0  0  0  0
  153.5365  142.1597  159.6098 C   0  0  0  0  0  0  0  0  0  0  0  0
  148.9239  140.3984  155.9098 C   0  0  0  0  0  0  0  0  0  0  0  0
  146.3245  140.3541  155.6865 N   0  0  0  0  0  0  0  0  0  0  0  0
  144.9912  140.4078  155.7623 C   0  0  0  0  0  0  0  0  0  0  0  0
  144.1076  139.4140  155.6479 N   0  0  0  0  0  0  0  0  0  0  0  0
  144.7291  138.2197  155.4284 C   0  0  0  0  0  0  0  0  0  0  0  0
  139.6424  137.2910  154.9695 H   0  0  0  0  0  0  0  0  0  0  0  0
  140.1522  135.9842  156.0408 H   0  0  0  0  0  0  0  0  0  0  0  0
  138.7995  135.7461  154.9464 H   0  0  0  0  0  0  0  0  0  0  0  0
  140.2526  135.8466  152.9783 H   0  0  0  0  0  0  0  0  0  0  0  0
  142.8172  133.6456  154.5974 H   0  0  0  0  0  0  0  0  0  0  0  0
  142.2953  133.1415  152.9893 H   0  0  0  0  0  0  0  0  0  0  0  0
  143.9641  135.2795  153.2172 H   0  0  0  0  0  0  0  0  0  0  0  0
  142.6346  135.3030  152.0735 H   0  0  0  0  0  0  0  0  0  0  0  0
  142.0026  138.2492  153.7140 H   0  0  0  0  0  0  0  0  0  0  0  0
  142.2068  137.4559  155.7810 H   0  0  0  0  0  0  0  0  0  0  0  0
  142.6128  135.7712  155.9658 H   0  0  0  0  0  0  0  0  0  0  0  0
  145.0716  135.0465  154.9261 H   0  0  0  0  0  0  0  0  0  0  0  0
  148.3769  137.8102  153.8232 H   0  0  0  0  0  0  0  0  0  0  0  0
  148.5467  139.4940  153.3522 H   0  0  0  0  0  0  0  0  0  0  0  0
  150.6347  137.8181  154.8648 H   0  0  0  0  0  0  0  0  0  0  0  0
  150.7599  138.3999  153.2150 H   0  0  0  0  0  0  0  0  0  0  0  0
  150.6973  139.4154  156.6684 H   0  0  0  0  0  0  0  0  0  0  0  0
  151.8071  141.8642  155.5813 H   0  0  0  0  0  0  0  0  0  0  0  0
  150.4345  142.2773  156.6035 H   0  0  0  0  0  0  0  0  0  0  0  0
  150.4834  142.2632  158.6292 H   0  0  0  0  0  0  0  0  0  0  0  0
  150.5839  140.5343  158.9702 H   0  0  0  0  0  0  0  0  0  0  0  0
  151.9881  141.0646  160.7479 H   0  0  0  0  0  0  0  0  0  0  0  0
  152.1830  143.9303  159.5382 H   0  0  0  0  0  0  0  0  0  0  0  0
  152.6704  143.4165  161.2356 H   0  0  0  0  0  0  0  0  0  0  0  0
  154.3171  141.7817  160.2670 H   0  0  0  0  0  0  0  0  0  0  0  0
  153.8292  142.2995  158.5708 H   0  0  0  0  0  0  0  0  0  0  0  0
  148.6837  141.2438  155.2651 H   0  0  0  0  0  0  0  0  0  0  0  0
  148.5372  140.6275  156.9039 H   0  0  0  0  0  0  0  0  0  0  0  0
  144.5726  141.3870  155.9420 H   0  0  0  0  0  0  0  0  0  0  0  0
  1  2  1  0  0  0  0
  1 30  1  0  0  0  0
  1 31  1  0  0  0  0
  1 32  1  0  0  0  0
  2  6  1  0  0  0  0
  2  3  1  0  0  0  0
  2 33  1  0  0  0  0
  3  4  1  0  0  0  0
  4  5  1  0  0  0  0
  4 34  1  0  0  0  0
  4 35  1  0  0  0  0
  5  6  1  0  0  0  0
  5 36  1  0  0  0  0
  5 37  1  0  0  0  0
  6  7  1  0  0  0  0
  6  8  1  0  0  0  0
  7 38  1  0  0  0  0
  8  9  1  0  0  0  0
  8 39  1  0  0  0  0
  8 40  1  0  0  0  0
  9 29  1  0  0  0  0
  9 10  1  0  0  0  0
 10 11  2  0  0  0  0
 10 41  1  0  0  0  0
 11 12  1  0  0  0  0
 12 29  2  0  0  0  0
 12 13  1  0  0  0  0
 13 14  1  0  0  0  0
 13 26  2  0  0  0  0
 14 25  1  0  0  0  0
 14 15  1  0  0  0  0
 15 16  1  0  0  0  0
 15 42  1  0  0  0  0
 15 43  1  0  0  0  0
 16 17  1  0  0  0  0
 16 44  1  0  0  0  0
 16 45  1  0  0  0  0
 17 18  1  0  0  0  0
 18 19  1  0  0  0  0
 18 25  1  0  0  0  0
 18 46  1  0  0  0  0
 19 20  1  0  0  0  0
 19 47  1  0  0  0  0
 19 48  1  0  0  0  0
 20 21  1  0  0  0  0
 21 22  1  0  0  0  0
 21 49  1  0  0  0  0
 21 50  1  0  0  0  0
 22 24  1  0  0  0  0
 22 23  1  0  0  0  0
 22 51  1  0  0  0  0
 23 24  1  0  0  0  0
 23 52  1  0  0  0  0
 23 53  1  0  0  0  0
 24 54  1  0  0  0  0
 24 55  1  0  0  0  0
 25 56  1  0  0  0  0
 25 57  1  0  0  0  0
 26 27  1  0  0  0  0
 27 28  2  0  0  0  0
 27 58  1  0  0  0  0
 28 29  1  0  0  0  0
M  END
> <s_m_source_file>
AV-unprocessed.smi

> <i_m_source_file_index>
236

> <i_lp_mmshare_version>
43012

> <i_f3d_flags>
0

> <s_epik_input>
W0NIMl0xW0NIMl1PW0NAQEhdKFtDSDNdKVtDQEBdMShbT0hdKVtDSDJdbihbY0hdbjIpYyhjMjMpbltjSF1uYzNONFtDSDJdW0NIMl1PW0NASF0oW0NIMl00KVtDSDJdT1tDSDJdW0NIXTVbQ0gyXVtDSDJdNQ==

> <s_epik_cmdline>
J2VwaWtfcHl0aG9uJywgJy1waCcsICc3LjAnLCAnLXRuJywgJzgnLCAnLW1hJywgJzIwMCcsICctbWV0YWxfYmluZGluZycsICctaW1hZScsICc8aW5maWxlLm1hZT4nLCAnLW9tYWUnLCAnPG91dGZpbGUubWFlPic=

> <r_lp_tautomer_probability>
1

> <r_epik_Ionization_Penalty>
7.21838e-05

> <r_epik_Ionization_Penalty_Charging>
0

> <r_epik_Ionization_Penalty_Neutral>
7.21838e-05

> <r_epik_State_Penalty>
-0

> <r_epik_Charging_Adjusted_Penalty>
0

> <i_epik_Tot_Q>
0

> <i_epik_Tot_abs_Q>
0

> <r_epik_Metal_State_Penalty>
-0

> <b_epik_Metal_Only>
0

> <s_lp_Force_Field>
OPLS_2005

> <r_lp_Energy>
49.116

> <b_lp_Chiralities_Consistent>
1

> <s_lp_Variant>
AV-unprocessed.smi:236-1

> <Gold.Version>
5.8.1

> <Gold.Id.Protein>
6NUR|6NUR_protein|mol2

> <Gold.PLP.Fitness>
42.9881

> <Gold.PLP.PLP>
-40.2141

> <Gold.PLP.part.hbond>
-3.6918

> <Gold.PLP.part.metal>
0.0000

> <Gold.PLP.part.buried>
-8.2190

> <Gold.PLP.part.nonpolar>
-28.9042

> <Gold.PLP.part.repulsive>
0.5014

> <Gold.PLP.ligand.clash>
0.0000

> <Gold.PLP.ligand.torsion>
1.9341

> <Gold.PLP.Chemscore.Hbond>
1.9425

> <Gold.PLP.Chemscore.CHOScore>
0.0000

> <Gold.PLP.Chemscore.Metal>
0.0000

> <Gold.Chemscore.Hbonds>
donor molecule, donor type, donor heavy atom, donor atom, acceptor molecule, acceptor atom, score
      P1  H  7989  7998       L1    17  1.00
      P1  H 10995 11001       L1     3  0.03
      P1  H 11000 11005       L1     3  0.42

> <Gold.PLP.Chemscore.Internal.Correction>
0.8147

> <Gold.Rescore>
     Score         DG    S(hbond)    S(metal)    S(lipo)     H(rot)  DE(clash)    DE(int)     intcor
     12.66     -15.18       1.64        0.00      98.79       2.87       0.54       1.99       ----

> <Gold.Chemscore.Fitness>
12.6581

> <Gold.Chemscore.DG>
-15.1849

> <Gold.Chemscore.ZeroCoef>
-5.4800

> <Gold.Chemscore.Hbond>
1.6413

> <Gold.Chemscore.Metal>
0.0000

> <Gold.Chemscore.Lipo>
98.7931

> <Gold.Chemscore.Internal_Hbond>
0.0000

> <Gold.Chemscore.DEClash>
0.5387

> <Gold.Chemscore.DEInternal>
1.9881

> <Gold.Chemscore.Rot>
2.8655

> <Gold.Chemscore.Internal.Correction>
   9.000000E+99

> <Gold.Chemscore.Hbonds>
donor molecule, donor type, donor heavy atom, donor atom, acceptor molecule, acceptor atom, score
      P1  H  7989  7998       L1    17  0.94
      P1  H 10995 11001       L1     3  0.03
      P1  H 11000 11005       L1     3  0.01

> <Gold.Chemscore.Hbond.Weighted>
-5.4819

> <Gold.Chemscore.Metal.Weighted>
-0.0000

> <Gold.Chemscore.Lipo.Weighted>
-11.5588

> <Gold.Chemscore.Internal_Hbond.Weighted>
0.0000

> <Gold.Chemscore.DEClash.Weighted>
0.5387

> <Gold.Chemscore.DEInternal.Weighted>
1.9881

> <Gold.Chemscore.Rot.Weighted>
7.3358

> <Gold.Chemscore.Internal.Correction.Weighted>
   9.000000E+99

> <Gold.Protein.RotatedTorsions>
[ 6907 6896 6895 6894 ] final  144.98 input  -60.11 | X-H torsion
[ 7974 7965 7964 7962 ] final   78.33 input  175.53 | X-H torsion
[ 8008 7997 7996 7995 ] final -147.65 input   59.86 | X-H torsion
[ 10167 10162 10161 10158 ] final  138.41 input  -65.29 | X-H torsion
[ 10718 10713 10712 10709 ] final  -23.27 input   66.30 | X-H torsion
[ 10763 10752 10751 10750 ] final   10.26 input  -60.55 | X-H torsion
[ 11005 11000 10999 10996 ] final   38.14 input  -57.11 | X-H torsion

> <Gold.Protein.ActiveResidues>
 VAL166  LYS551  ARG553  GLY616  TRP617  ASP618  TYR619  PRO620  LYS621  CYS622 
 ASP623  PHE694  ASN695  SER759  ASP760  ASP761  ALA762  ILE779  LEU786  VAL792 
 PHE793  MET794  SER795  GLU796  ALA797  LYS798  CYS799  TRP800  GLU811  SER814 

> <Gold.Protein.RotatedAtoms>
  152.1868  133.4745  159.4986 H   0  0  0  0  0  0  0  0  0  0  0  0  # atno 6907 bound_to 6896
  150.6944  134.1764  159.4241 H   0  0  0  0  0  0  0  0  0  0  0  0  # atno 6908 bound_to 6896
  151.9677  135.0092  160.0602 H   0  0  0  0  0  0  0  0  0  0  0  0  # atno 6909 bound_to 6896
  145.6785  139.2517  143.1827 H   0  0  0  0  0  0  0  0  0  0  0  0  # atno 7974 bound_to 7965
  155.5789  140.0641  157.2788 H   0  0  0  0  0  0  0  0  0  0  0  0  # atno 8008 bound_to 7997
  154.4338  140.1855  156.1003 H   0  0  0  0  0  0  0  0  0  0  0  0  # atno 8009 bound_to 7997
  156.0320  140.3305  155.7153 H   0  0  0  0  0  0  0  0  0  0  0  0  # atno 8010 bound_to 7997
  139.5111  144.6355  151.5708 H   0  0  0  0  0  0  0  0  0  0  0  0  # atno 10167 bound_to 10162
  156.4933  130.4571  149.6743 H   0  0  0  0  0  0  0  0  0  0  0  0  # atno 10718 bound_to 10713
  153.2051  135.6861  153.8183 H   0  0  0  0  0  0  0  0  0  0  0  0  # atno 10763 bound_to 10752
  153.7435  135.3234  155.3309 H   0  0  0  0  0  0  0  0  0  0  0  0  # atno 10764 bound_to 10752
  154.8192  135.4664  154.0834 H   0  0  0  0  0  0  0  0  0  0  0  0  # atno 10765 bound_to 10752
  140.2156  134.3702  155.8028 H   0  0  0  0  0  0  0  0  0  0  0  0  # atno 11005 bound_to 11000
  146.0984  140.7573  142.9561 LP  0  0  0  0  0  0  0  0  0  0  0  0  # atno 17320 bound_to 7965
  144.7033  140.3748  143.7138 LP  0  0  0  0  0  0  0  0  0  0  0  0  # atno 17321 bound_to 7965
  140.6102  143.9450  150.6448 LP  0  0  0  0  0  0  0  0  0  0  0  0  # atno 17342 bound_to 10162
  140.2690  143.3469  152.1255 LP  0  0  0  0  0  0  0  0  0  0  0  0  # atno 17343 bound_to 10162
  156.3405  130.7379  151.2324 LP  0  0  0  0  0  0  0  0  0  0  0  0  # atno 17370 bound_to 10713
  157.7471  131.0405  150.4601 LP  0  0  0  0  0  0  0  0  0  0  0  0  # atno 17371 bound_to 10713
  141.2225  133.7166  156.8491 LP  0  0  0  0  0  0  0  0  0  0  0  0  # atno 17394 bound_to 11000
  140.1904  134.8970  157.3054 LP  0  0  0  0  0  0  0  0  0  0  0  0  # atno 17395 bound_to 11000

$$$$
