AV-unprocessed.smi:2456|AV-procd|sdf|9702|dock5
  -GOLD-   2272013343D 1   1.00000     0.00000
 Structure written by MMmdl.
 33 34  0  0  0  0  0  0  0  0  2 V2000
  151.8007  138.4937  157.0007 C   0  0  0  0  0  0  0  0  0  0  0  0
  151.2652  139.2862  158.2052 C   0  0  2  0  0  0  0  0  0  0  0  0
  149.9415  138.7577  158.5370 N   0  0  0  0  0  0  0  0  0  0  0  0
  149.6805  137.5329  159.0191 C   0  0  0  0  0  0  0  0  0  0  0  0
  150.6051  136.7416  159.2203 O   0  0  0  0  0  0  0  0  0  0  0  0
  148.3657  137.3014  159.2355 N   0  5  0  0  0  0  0  0  0  0  0  0
  147.9772  136.5588  160.2848 C   0  0  0  0  0  0  0  0  0  0  0  0
  147.5926  137.0903  161.4507 N   0  0  0  0  0  0  0  0  0  0  0  0
  147.2220  136.1367  162.4005 C   0  0  0  0  0  0  0  0  0  0  0  0
  147.3176  134.8489  161.9444 C   0  0  0  0  0  0  0  0  0  0  0  0
  147.8802  134.7953  160.2981 S   0  0  0  0  0  0  0  0  0  0  0  0
  151.1764  140.7734  157.7958 C   0  0  0  0  0  0  0  0  0  0  0  0
  150.5612  141.0816  156.7730 O   0  0  0  0  0  0  0  0  0  0  0  0
  151.7965  141.7013  158.5567 N   0  0  0  0  0  0  0  0  0  0  0  0
  152.5598  141.3705  159.7590 C   0  0  0  0  0  0  0  0  0  0  0  0
  153.2865  142.6548  160.1582 C   0  0  0  0  0  0  0  0  0  0  0  0
  152.4224  143.7653  159.5783 C   0  0  0  0  0  0  0  0  0  0  0  0
  151.8103  143.1449  158.3222 C   0  0  0  0  0  0  0  0  0  0  0  0
  152.7930  138.8386  156.7072 H   0  0  0  0  0  0  0  0  0  0  0  0
  151.1464  138.5840  156.1322 H   0  0  0  0  0  0  0  0  0  0  0  0
  151.8843  137.4332  157.2403 H   0  0  0  0  0  0  0  0  0  0  0  0
  151.9233  139.1353  159.0611 H   0  0  0  0  0  0  0  0  0  0  0  0
  149.1564  139.3760  158.3965 H   0  0  0  0  0  0  0  0  0  0  0  0
  146.9013  136.4647  163.3780 H   0  0  0  0  0  0  0  0  0  0  0  0
  147.0922  133.9344  162.4716 H   0  0  0  0  0  0  0  0  0  0  0  0
  151.8679  141.0620  160.5439 H   0  0  0  0  0  0  0  0  0  0  0  0
  153.2636  140.5544  159.5873 H   0  0  0  0  0  0  0  0  0  0  0  0
  153.4255  142.7446  161.2358 H   0  0  0  0  0  0  0  0  0  0  0  0
  154.2717  142.6779  159.6907 H   0  0  0  0  0  0  0  0  0  0  0  0
  151.6306  144.0171  160.2851 H   0  0  0  0  0  0  0  0  0  0  0  0
  152.9854  144.6752  159.3694 H   0  0  0  0  0  0  0  0  0  0  0  0
  152.4330  143.3566  157.4515 H   0  0  0  0  0  0  0  0  0  0  0  0
  150.8124  143.5446  158.1362 H   0  0  0  0  0  0  0  0  0  0  0  0
  1  2  1  0  0  0  0
  1 19  1  0  0  0  0
  1 20  1  0  0  0  0
  1 21  1  0  0  0  0
  2  3  1  0  0  0  0
  2 12  1  0  0  0  0
  2 22  1  0  0  0  0
  3  4  1  0  0  0  0
  3 23  1  0  0  0  0
  4  5  2  0  0  0  0
  4  6  1  0  0  0  0
  6  7  1  0  0  0  0
  7 11  1  0  0  0  0
  7  8  2  0  0  0  0
  8  9  1  0  0  0  0
  9 10  2  0  0  0  0
  9 24  1  0  0  0  0
 10 11  1  0  0  0  0
 10 25  1  0  0  0  0
 12 13  2  0  0  0  0
 12 14  1  0  0  0  0
 14 18  1  0  0  0  0
 14 15  1  0  0  0  0
 15 16  1  0  0  0  0
 15 26  1  0  0  0  0
 15 27  1  0  0  0  0
 16 17  1  0  0  0  0
 16 28  1  0  0  0  0
 16 29  1  0  0  0  0
 17 18  1  0  0  0  0
 17 30  1  0  0  0  0
 17 31  1  0  0  0  0
 18 32  1  0  0  0  0
 18 33  1  0  0  0  0
M  CHG  1   6  -1
M  END
> <s_m_source_file>
AV-unprocessed.smi

> <i_m_source_file_index>
2456

> <i_lp_mmshare_version>
43012

> <i_f3d_flags>
0

> <s_epik_input>
W0NIMl0xW0NIMl1bQ0gyXVtDSDJdTjFDKD1PKVtDQEhdKFtDSDNdKVtOSF1DKD1PKVtOSF1jMm5bY0hdW2NIXXMy

> <s_epik_cmdline>
J2VwaWtfcHl0aG9uJywgJy1waCcsICc3LjAnLCAnLXRuJywgJzgnLCAnLW1hJywgJzIwMCcsICctbWV0YWxfYmluZGluZycsICctaW1hZScsICc8aW5maWxlLm1hZT4nLCAnLW9tYWUnLCAnPG91dGZpbGUubWFlPic=

> <r_lp_tautomer_probability>
1

> <r_epik_Ionization_Penalty>
5.99337

> <r_epik_Ionization_Penalty_Charging>
5.23786

> <r_epik_Ionization_Penalty_Neutral>
0.755512

> <r_epik_State_Penalty>
5.23778

> <r_epik_Charging_Adjusted_Penalty>
10.4756

> <i_epik_Tot_Q>
-1

> <i_epik_Tot_abs_Q>
1

> <r_epik_Metal_State_Penalty>
1.29566

> <b_epik_Metal_Only>
1

> <s_lp_Force_Field>
OPLS_2005

> <r_lp_Energy>
24.4134

> <b_lp_Chiralities_Consistent>
1

> <s_lp_Variant>
AV-unprocessed.smi:2456-3

> <Gold.Version>
5.8.1

> <Gold.Id.Protein>
6NUR|6NUR_protein|mol2

> <Gold.PLP.Fitness>
43.1354

> <Gold.PLP.PLP>
-36.9959

> <Gold.PLP.part.hbond>
-3.1640

> <Gold.PLP.part.metal>
0.0000

> <Gold.PLP.part.buried>
-5.0257

> <Gold.PLP.part.nonpolar>
-28.8461

> <Gold.PLP.part.repulsive>
0.2312

> <Gold.PLP.ligand.clash>
0.0000

> <Gold.PLP.ligand.torsion>
1.0984

> <Gold.PLP.Chemscore.Hbond>
2.7680

> <Gold.PLP.Chemscore.CHOScore>
0.0000

> <Gold.PLP.Chemscore.Metal>
0.0000

> <Gold.Chemscore.Hbonds>
donor molecule, donor type, donor heavy atom, donor atom, acceptor molecule, acceptor atom, score
      P1  H  6896  6907       L1     5  1.00
      P1  H  6931  6943       L1     8  1.00
      P1  H  6934  6947       L1     8  0.83

> <Gold.PLP.Chemscore.Internal.Correction>
0.0325

> <Gold.Rescore>
     Score         DG    S(hbond)    S(metal)    S(lipo)     H(rot)  DE(clash)    DE(int)     intcor
     17.65     -18.81       2.42        0.00      74.00       1.33       0.00       1.17       ----

> <Gold.Chemscore.Fitness>
17.6469

> <Gold.Chemscore.DG>
-18.8128

> <Gold.Chemscore.ZeroCoef>
-5.4800

> <Gold.Chemscore.Hbond>
2.4179

> <Gold.Chemscore.Metal>
0.0000

> <Gold.Chemscore.Lipo>
74.0049

> <Gold.Chemscore.Internal_Hbond>
0.0000

> <Gold.Chemscore.DEClash>
0.0000

> <Gold.Chemscore.DEInternal>
1.1659

> <Gold.Chemscore.Rot>
1.3288

> <Gold.Chemscore.Internal.Correction>
   9.000000E+99

> <Gold.Chemscore.Hbonds>
donor molecule, donor type, donor heavy atom, donor atom, acceptor molecule, acceptor atom, score
      P1  H  6896  6907       L1     5  0.97
      P1  H  6931  6943       L1     8  0.40
      P1  H  6934  6947       L1     8  0.30

> <Gold.Chemscore.Hbond.Weighted>
-8.0759

> <Gold.Chemscore.Metal.Weighted>
-0.0000

> <Gold.Chemscore.Lipo.Weighted>
-8.6586

> <Gold.Chemscore.Internal_Hbond.Weighted>
0.0000

> <Gold.Chemscore.DEClash.Weighted>
0.0000

> <Gold.Chemscore.DEInternal.Weighted>
1.1659

> <Gold.Chemscore.Rot.Weighted>
3.4017

> <Gold.Chemscore.Internal.Correction.Weighted>
   9.000000E+99

> <Gold.Protein.RotatedTorsions>
[ 6907 6896 6895 6894 ] final  -44.31 input  -60.11 | X-H torsion
[ 7974 7965 7964 7962 ] final  115.73 input  175.53 | X-H torsion
[ 8008 7997 7996 7995 ] final   73.28 input   59.86 | X-H torsion
[ 10167 10162 10161 10158 ] final -153.58 input  -65.29 | X-H torsion
[ 10718 10713 10712 10709 ] final -132.38 input   66.30 | X-H torsion
[ 10763 10752 10751 10750 ] final -174.79 input  -60.55 | X-H torsion
[ 11005 11000 10999 10996 ] final -157.05 input  -57.11 | X-H torsion

> <Gold.Protein.ActiveResidues>
 VAL166  LYS551  ARG553  GLY616  TRP617  ASP618  TYR619  PRO620  LYS621  CYS622 
 ASP623  PHE694  ASN695  SER759  ASP760  ASP761  ALA762  ILE779  LEU786  VAL792 
 PHE793  MET794  SER795  GLU796  ALA797  LYS798  CYS799  TRP800  GLU811  SER814 

> <Gold.Protein.RotatedAtoms>
  150.9343  134.8756  159.7570 H   0  0  0  0  0  0  0  0  0  0  0  0  # atno 6907 bound_to 6896
  152.5052  134.4034  159.9434 H   0  0  0  0  0  0  0  0  0  0  0  0  # atno 6908 bound_to 6896
  151.4059  133.3703  159.2773 H   0  0  0  0  0  0  0  0  0  0  0  0  # atno 6909 bound_to 6896
  145.1884  139.3013  143.4381 H   0  0  0  0  0  0  0  0  0  0  0  0  # atno 7974 bound_to 7965
  155.7813  140.3482  155.5299 H   0  0  0  0  0  0  0  0  0  0  0  0  # atno 8008 bound_to 7997
  155.8725  140.0989  157.1561 H   0  0  0  0  0  0  0  0  0  0  0  0  # atno 8009 bound_to 7997
  154.4018  140.1338  156.4084 H   0  0  0  0  0  0  0  0  0  0  0  0  # atno 8010 bound_to 7997
  139.7085  143.9147  152.2458 H   0  0  0  0  0  0  0  0  0  0  0  0  # atno 10167 bound_to 10162
  156.2340  130.7055  151.0888 H   0  0  0  0  0  0  0  0  0  0  0  0  # atno 10718 bound_to 10713
  154.5921  135.2846  155.0625 H   0  0  0  0  0  0  0  0  0  0  0  0  # atno 10763 bound_to 10752
  154.1922  135.6439  153.5067 H   0  0  0  0  0  0  0  0  0  0  0  0  # atno 10764 bound_to 10752
  153.0125  135.5449  154.6610 H   0  0  0  0  0  0  0  0  0  0  0  0  # atno 10765 bound_to 10752
  140.6688  134.4269  157.5232 H   0  0  0  0  0  0  0  0  0  0  0  0  # atno 11005 bound_to 11000
  146.3441  140.2088  142.8590 LP  0  0  0  0  0  0  0  0  0  0  0  0  # atno 17320 bound_to 7965
  145.0066  140.8678  143.5249 LP  0  0  0  0  0  0  0  0  0  0  0  0  # atno 17321 bound_to 7965
  139.9010  144.6912  150.8666 LP  0  0  0  0  0  0  0  0  0  0  0  0  # atno 17342 bound_to 10162
  140.7727  143.3514  151.2007 LP  0  0  0  0  0  0  0  0  0  0  0  0  # atno 17343 bound_to 10162
  157.7146  131.0716  150.6375 LP  0  0  0  0  0  0  0  0  0  0  0  0  # atno 17370 bound_to 10713
  156.6445  130.4467  149.5741 LP  0  0  0  0  0  0  0  0  0  0  0  0  # atno 17371 bound_to 10713
  139.8988  134.8605  156.1986 LP  0  0  0  0  0  0  0  0  0  0  0  0  # atno 17394 bound_to 11000
  141.0408  133.6939  156.1594 LP  0  0  0  0  0  0  0  0  0  0  0  0  # atno 17395 bound_to 11000

$$$$
