AV-unprocessed.smi:1626|AV-procd|sdf|6507|dock5
  -GOLD-   22720 7173D 1   1.00000     0.00000
 Structure written by MMmdl.
 48 50  0  0  0  0  0  0  0  0  2 V2000
  153.1565  142.5918  161.5005 C   0  0  0  0  0  0  0  0  0  0  0  0
  152.5350  142.2681  160.1532 C   0  0  0  0  0  0  0  0  0  0  0  0
  152.9512  141.1053  159.4666 C   0  0  0  0  0  0  0  0  0  0  0  0
  152.3970  140.7673  158.2130 C   0  0  0  0  0  0  0  0  0  0  0  0
  152.6523  139.6939  157.3770 N   0  0  0  0  0  0  0  0  0  0  0  0
  151.8224  139.9367  156.3668 C   0  0  0  0  0  0  0  0  0  0  0  0
  151.0632  141.0467  156.4460 N   0  0  0  0  0  0  0  0  0  0  0  0
  150.0916  141.5160  155.4746 C   0  0  0  0  0  0  0  0  0  0  0  0
  148.6401  141.3636  155.9687 C   0  0  1  0  0  0  0  0  0  0  0  0
  148.3568  142.3805  156.9106 O   0  0  0  0  0  0  0  0  0  0  0  0
  147.6315  141.4711  154.8083 C   0  0  0  0  0  0  0  0  0  0  0  0
  147.5060  140.2058  154.0399 N   0  3  2  0  0  0  0  0  0  0  0  0
  146.7765  140.3694  152.7532 C   0  0  0  0  0  0  0  0  0  0  0  0
  146.7826  139.0642  151.9395 C   0  0  0  0  0  0  0  0  0  0  0  0
  146.1890  137.9080  152.7570 C   0  0  1  0  0  0  0  0  0  0  0  0
  146.2938  136.7030  152.0296 O   0  0  0  0  0  0  0  0  0  0  0  0
  146.9416  137.7743  154.0883 C   0  0  0  0  0  0  0  0  0  0  0  0
  146.9331  139.1053  154.8584 C   0  0  0  0  0  0  0  0  0  0  0  0
  151.4070  141.6314  157.6599 C   0  0  0  0  0  0  0  0  0  0  0  0
  150.9838  142.7908  158.3335 C   0  0  0  0  0  0  0  0  0  0  0  0
  151.5482  143.1138  159.5853 C   0  0  0  0  0  0  0  0  0  0  0  0
  151.0857  144.3680  160.3057 C   0  0  0  0  0  0  0  0  0  0  0  0
  153.9242  141.8657  161.7695 H   0  0  0  0  0  0  0  0  0  0  0  0
  152.3970  142.5817  162.2825 H   0  0  0  0  0  0  0  0  0  0  0  0
  153.6221  143.5773  161.4818 H   0  0  0  0  0  0  0  0  0  0  0  0
  153.7016  140.4602  159.8995 H   0  0  0  0  0  0  0  0  0  0  0  0
  151.7661  139.2709  155.5177 H   0  0  0  0  0  0  0  0  0  0  0  0
  150.3085  142.5590  155.2390 H   0  0  0  0  0  0  0  0  0  0  0  0
  150.2369  140.9516  154.5526 H   0  0  0  0  0  0  0  0  0  0  0  0
  148.5438  140.4013  156.4704 H   0  0  0  0  0  0  0  0  0  0  0  0
  148.7548  143.1852  156.6129 H   0  0  0  0  0  0  0  0  0  0  0  0
  146.6615  141.7510  155.2226 H   0  0  0  0  0  0  0  0  0  0  0  0
  147.9121  142.2771  154.1283 H   0  0  0  0  0  0  0  0  0  0  0  0
  145.7492  140.6785  152.9536 H   0  0  0  0  0  0  0  0  0  0  0  0
  147.2298  141.1588  152.1552 H   0  0  0  0  0  0  0  0  0  0  0  0
  146.2181  139.2006  151.0163 H   0  0  0  0  0  0  0  0  0  0  0  0
  147.8060  138.8262  151.6452 H   0  0  0  0  0  0  0  0  0  0  0  0
  145.1328  138.0988  152.9512 H   0  0  0  0  0  0  0  0  0  0  0  0
  147.2025  136.4444  151.9979 H   0  0  0  0  0  0  0  0  0  0  0  0
  146.4904  136.9905  154.6980 H   0  0  0  0  0  0  0  0  0  0  0  0
  147.9728  137.4689  153.9044 H   0  0  0  0  0  0  0  0  0  0  0  0
  147.5121  138.9879  155.7751 H   0  0  0  0  0  0  0  0  0  0  0  0
  145.9153  139.3629  155.1557 H   0  0  0  0  0  0  0  0  0  0  0  0
  150.2306  143.4256  157.8909 H   0  0  0  0  0  0  0  0  0  0  0  0
  150.3090  144.8871  159.7435 H   0  0  0  0  0  0  0  0  0  0  0  0
  151.9183  145.0585  160.4417 H   0  0  0  0  0  0  0  0  0  0  0  0
  150.6787  144.1179  161.2855 H   0  0  0  0  0  0  0  0  0  0  0  0
  148.4493  139.9229  153.8131 H   0  0  0  0  0  0  0  0  0  0  0  0
  1  2  1  0  0  0  0
  1 23  1  0  0  0  0
  1 24  1  0  0  0  0
  1 25  1  0  0  0  0
  2 21  1  0  0  0  0
  2  3  2  0  0  0  0
  3  4  1  0  0  0  0
  3 26  1  0  0  0  0
  4 19  2  0  0  0  0
  4  5  1  0  0  0  0
  5  6  2  0  0  0  0
  6  7  1  0  0  0  0
  6 27  1  0  0  0  0
  7  8  1  0  0  0  0
  7 19  1  0  0  0  0
  8  9  1  0  0  0  0
  8 28  1  0  0  0  0
  8 29  1  0  0  0  0
  9 10  1  0  0  0  0
  9 11  1  0  0  0  0
  9 30  1  0  0  0  0
 10 31  1  0  0  0  0
 11 12  1  0  0  0  0
 11 32  1  0  0  0  0
 11 33  1  0  0  0  0
 12 18  1  0  0  0  0
 12 13  1  0  0  0  0
 12 48  1  0  0  0  0
 13 14  1  0  0  0  0
 13 34  1  0  0  0  0
 13 35  1  0  0  0  0
 14 15  1  0  0  0  0
 14 36  1  0  0  0  0
 14 37  1  0  0  0  0
 15 16  1  0  0  0  0
 15 17  1  0  0  0  0
 15 38  1  0  0  0  0
 16 39  1  0  0  0  0
 17 18  1  0  0  0  0
 17 40  1  0  0  0  0
 17 41  1  0  0  0  0
 18 42  1  0  0  0  0
 18 43  1  0  0  0  0
 19 20  1  0  0  0  0
 20 21  2  0  0  0  0
 20 44  1  0  0  0  0
 21 22  1  0  0  0  0
 22 45  1  0  0  0  0
 22 46  1  0  0  0  0
 22 47  1  0  0  0  0
M  CHG  1  12   1
M  END
> <s_m_source_file>
AV-unprocessed.smi

> <i_m_source_file_index>
1626

> <i_lp_mmshare_version>
43012

> <i_f3d_flags>
0

> <s_epik_input>
W0NIM11jKFtjSF0xKWMoW0NIM10pW2NIXWMoYzEyKW4oW2NIXW4yKVtDSDJdW0NASF0oW09IXSlbQ0gyXU4zW0NIMl1bQ0gyXVtDSF0oW09IXSlbQ0gyXVtDSDJdMw==

> <s_epik_cmdline>
J2VwaWtfcHl0aG9uJywgJy1waCcsICc3LjAnLCAnLXRuJywgJzgnLCAnLW1hJywgJzIwMCcsICctbWV0YWxfYmluZGluZycsICctaW1hZScsICc8aW5maWxlLm1hZT4nLCAnLW9tYWUnLCAnPG91dGZpbGUubWFlPic=

> <r_epik_Ionization_Penalty>
0.106584

> <r_epik_Ionization_Penalty_Charging>
0.0185694

> <r_epik_Ionization_Penalty_Neutral>
0.0880147

> <r_epik_State_Penalty>
0.0908428

> <r_epik_Charging_Adjusted_Penalty>
0.109412

> <i_epik_Tot_Q>
1

> <i_epik_Tot_abs_Q>
1

> <r_epik_Metal_State_Penalty>
0.0153739

> <b_epik_Metal_Only>
0

> <s_lp_Force_Field>
OPLS_2005

> <r_lp_Energy>
20.8081

> <b_lp_Chiralities_Consistent>
1

> <s_lp_Variant>
AV-unprocessed.smi:1626-2

> <Gold.Version>
5.8.1

> <Gold.Id.Protein>
6NUR|6NUR_protein|mol2

> <Gold.PLP.Fitness>
51.0359

> <Gold.PLP.PLP>
-42.9622

> <Gold.PLP.part.hbond>
-3.0000

> <Gold.PLP.part.metal>
0.0000

> <Gold.PLP.part.buried>
-2.8846

> <Gold.PLP.part.nonpolar>
-37.4272

> <Gold.PLP.part.repulsive>
0.0342

> <Gold.PLP.ligand.clash>
0.0000

> <Gold.PLP.ligand.torsion>
0.4836

> <Gold.PLP.Chemscore.Hbond>
3.0000

> <Gold.PLP.Chemscore.CHOScore>
0.0000

> <Gold.PLP.Chemscore.Metal>
0.0000

> <Gold.Chemscore.Hbonds>
donor molecule, donor type, donor heavy atom, donor atom, acceptor molecule, acceptor atom, score
      L1  H    10    31       P1  8028  1.00
      L1  H    16    39       P1  7948  1.00
      P1  H  7997  8008       L1     5  1.00

> <Gold.PLP.Chemscore.Internal.Correction>
0.0409

> <Gold.Rescore>
     Score         DG    S(hbond)    S(metal)    S(lipo)     H(rot)  DE(clash)    DE(int)     intcor
     19.77     -21.69       2.62        0.00     122.24       2.67       0.23       1.69       ----

> <Gold.Chemscore.Fitness>
19.7711

> <Gold.Chemscore.DG>
-21.6892

> <Gold.Chemscore.ZeroCoef>
-5.4800

> <Gold.Chemscore.Hbond>
2.6184

> <Gold.Chemscore.Metal>
0.0000

> <Gold.Chemscore.Lipo>
122.2405

> <Gold.Chemscore.Internal_Hbond>
0.0000

> <Gold.Chemscore.DEClash>
0.2299

> <Gold.Chemscore.DEInternal>
1.6883

> <Gold.Chemscore.Rot>
2.6712

> <Gold.Chemscore.Internal.Correction>
   9.000000E+99

> <Gold.Chemscore.Hbonds>
donor molecule, donor type, donor heavy atom, donor atom, acceptor molecule, acceptor atom, score
      L1  H    10    31       P1  8028  0.87
      L1  H    16    39       P1  7948  1.00
      P1  H  7997  8008       L1     5  0.23

> <Gold.Chemscore.Hbond.Weighted>
-8.7455

> <Gold.Chemscore.Metal.Weighted>
-0.0000

> <Gold.Chemscore.Lipo.Weighted>
-14.3021

> <Gold.Chemscore.Internal_Hbond.Weighted>
0.0000

> <Gold.Chemscore.DEClash.Weighted>
0.2299

> <Gold.Chemscore.DEInternal.Weighted>
1.6883

> <Gold.Chemscore.Rot.Weighted>
6.8383

> <Gold.Chemscore.Internal.Correction.Weighted>
   9.000000E+99

> <Gold.Protein.RotatedTorsions>
[ 6907 6896 6895 6894 ] final -103.86 input  -60.11 | X-H torsion
[ 7974 7965 7964 7962 ] final  174.85 input  175.53 | X-H torsion
[ 8008 7997 7996 7995 ] final  -68.68 input   59.86 | X-H torsion
[ 10167 10162 10161 10158 ] final  110.95 input  -65.29 | X-H torsion
[ 10718 10713 10712 10709 ] final   78.15 input   66.30 | X-H torsion
[ 10763 10752 10751 10750 ] final   58.10 input  -60.55 | X-H torsion
[ 11005 11000 10999 10996 ] final    8.22 input  -57.11 | X-H torsion

> <Gold.Protein.ActiveResidues>
 VAL166  LYS551  ARG553  GLY616  TRP617  ASP618  TYR619  PRO620  LYS621  CYS622 
 ASP623  PHE694  ASN695  SER759  ASP760  ASP761  ALA762  ILE779  LEU786  VAL792 
 PHE793  MET794  SER795  GLU796  ALA797  LYS798  CYS799  TRP800  GLU811  SER814 

> <Gold.Protein.RotatedAtoms>
  150.7260  134.0365  159.3750 H   0  0  0  0  0  0  0  0  0  0  0  0  # atno 6907 bound_to 6896
  151.8337  135.0611  160.0449 H   0  0  0  0  0  0  0  0  0  0  0  0  # atno 6908 bound_to 6896
  152.2914  133.5529  159.5596 H   0  0  0  0  0  0  0  0  0  0  0  0  # atno 6909 bound_to 6896
  144.7213  139.9859  143.6439 H   0  0  0  0  0  0  0  0  0  0  0  0  # atno 7974 bound_to 7965
  154.4885  140.0868  156.7540 H   0  0  0  0  0  0  0  0  0  0  0  0  # atno 8008 bound_to 7997
  155.4291  140.3449  155.4260 H   0  0  0  0  0  0  0  0  0  0  0  0  # atno 8009 bound_to 7997
  156.1295  140.1497  156.9074 H   0  0  0  0  0  0  0  0  0  0  0  0  # atno 8010 bound_to 7997
  139.6649  144.7128  151.1796 H   0  0  0  0  0  0  0  0  0  0  0  0  # atno 10167 bound_to 10162
  157.6735  130.9855  150.1744 H   0  0  0  0  0  0  0  0  0  0  0  0  # atno 10718 bound_to 10713
  152.9863  135.5618  154.5498 H   0  0  0  0  0  0  0  0  0  0  0  0  # atno 10763 bound_to 10752
  154.4937  135.2794  155.1478 H   0  0  0  0  0  0  0  0  0  0  0  0  # atno 10764 bound_to 10752
  154.2937  135.6321  153.5449 H   0  0  0  0  0  0  0  0  0  0  0  0  # atno 10765 bound_to 10752
  140.5394  134.0389  155.7899 H   0  0  0  0  0  0  0  0  0  0  0  0  # atno 11005 bound_to 11000
  146.0450  139.3457  143.0674 LP  0  0  0  0  0  0  0  0  0  0  0  0  # atno 17320 bound_to 7965
  145.8287  140.9642  143.0860 LP  0  0  0  0  0  0  0  0  0  0  0  0  # atno 17321 bound_to 7965
  140.7595  143.5936  150.8771 LP  0  0  0  0  0  0  0  0  0  0  0  0  # atno 17342 bound_to 10162
  139.9596  143.6179  152.3006 LP  0  0  0  0  0  0  0  0  0  0  0  0  # atno 17343 bound_to 10162
  156.2491  130.3698  149.8252 LP  0  0  0  0  0  0  0  0  0  0  0  0  # atno 17370 bound_to 10713
  156.6030  130.8554  151.3436 LP  0  0  0  0  0  0  0  0  0  0  0  0  # atno 17371 bound_to 10713
  141.1236  133.9421  157.2681 LP  0  0  0  0  0  0  0  0  0  0  0  0  # atno 17394 bound_to 11000
  139.9512  135.0175  156.8998 LP  0  0  0  0  0  0  0  0  0  0  0  0  # atno 17395 bound_to 11000

$$$$
