AV-unprocessed.smi:663|AV-procd|sdf|3249|dock2
  -GOLD-   22720 0193D 1   1.00000     0.00000
 Structure written by MMmdl.
 29 30  0  0  0  0  0  0  0  0  2 V2000
  146.5072  140.6169  153.2108 N   0  0  0  0  0  0  0  0  0  0  0  0
  146.7834  141.5183  154.1563 C   0  0  0  0  0  0  0  0  0  0  0  0
  145.9053  142.1861  154.6989 O   0  0  0  0  0  0  0  0  0  0  0  0
  148.2573  141.6983  154.5368 C   0  0  0  0  0  0  0  0  0  0  0  0
  148.5816  141.3465  156.0099 C   0  0  2  0  0  0  0  0  0  0  0  0
  148.0289  142.3794  156.8841 N   0  0  0  0  0  0  0  0  0  0  0  0
  147.2785  142.1835  157.9786 C   0  0  0  0  0  0  0  0  0  0  0  0
  146.9879  141.0383  158.3317 O   0  0  0  0  0  0  0  0  0  0  0  0
  146.9095  143.3298  158.5947 N   0  5  0  0  0  0  0  0  0  0  0  0
  146.2274  143.2831  159.7509 C   0  0  0  0  0  0  0  0  0  0  0  0
  145.7573  142.1333  160.2613 N   0  0  0  0  0  0  0  0  0  0  0  0
  145.0743  142.3057  161.4577 N   0  0  0  0  0  0  0  0  0  0  0  0
  145.0397  143.5887  161.8167 C   0  0  0  0  0  0  0  0  0  0  0  0
  145.8358  144.7028  160.7254 S   0  0  0  0  0  0  0  0  0  0  0  0
  150.0739  141.1590  156.2403 C   0  0  0  0  0  0  0  0  0  0  0  0
  150.6766  141.1386  157.6265 C   0  0  0  0  0  0  0  0  0  0  0  0
  150.9340  142.3093  156.7060 C   0  0  0  0  0  0  0  0  0  0  0  0
  145.5498  140.4652  152.9282 H   0  0  0  0  0  0  0  0  0  0  0  0
  147.2553  140.0915  152.7823 H   0  0  0  0  0  0  0  0  0  0  0  0
  148.8885  141.1087  153.8699 H   0  0  0  0  0  0  0  0  0  0  0  0
  148.5060  142.7423  154.3420 H   0  0  0  0  0  0  0  0  0  0  0  0
  148.0975  140.4008  156.2620 H   0  0  0  0  0  0  0  0  0  0  0  0
  148.2379  143.3359  156.6390 H   0  0  0  0  0  0  0  0  0  0  0  0
  144.5400  143.8812  162.7283 H   0  0  0  0  0  0  0  0  0  0  0  0
  150.5403  140.4944  155.5150 H   0  0  0  0  0  0  0  0  0  0  0  0
  150.0174  141.3096  158.4752 H   0  0  0  0  0  0  0  0  0  0  0  0
  151.4970  140.4469  157.8056 H   0  0  0  0  0  0  0  0  0  0  0  0
  151.9274  142.4005  156.2714 H   0  0  0  0  0  0  0  0  0  0  0  0
  150.4380  143.2496  156.9387 H   0  0  0  0  0  0  0  0  0  0  0  0
  1  2  1  0  0  0  0
  1 18  1  0  0  0  0
  1 19  1  0  0  0  0
  2  3  2  0  0  0  0
  2  4  1  0  0  0  0
  4  5  1  0  0  0  0
  4 20  1  0  0  0  0
  4 21  1  0  0  0  0
  5  6  1  0  0  0  0
  5 15  1  0  0  0  0
  5 22  1  0  0  0  0
  6  7  1  0  0  0  0
  6 23  1  0  0  0  0
  7  8  2  0  0  0  0
  7  9  1  0  0  0  0
  9 10  1  0  0  0  0
 10 14  1  0  0  0  0
 10 11  2  0  0  0  0
 11 12  1  0  0  0  0
 12 13  2  0  0  0  0
 13 14  1  0  0  0  0
 13 24  1  0  0  0  0
 15 17  1  0  0  0  0
 15 16  1  0  0  0  0
 15 25  1  0  0  0  0
 16 17  1  0  0  0  0
 16 26  1  0  0  0  0
 16 27  1  0  0  0  0
 17 28  1  0  0  0  0
 17 29  1  0  0  0  0
M  CHG  1   9  -1
M  END
> <s_m_source_file>
AV-unprocessed.smi

> <i_m_source_file_index>
663

> <i_lp_mmshare_version>
43012

> <i_f3d_flags>
0

> <s_epik_input>
W05IMl1DKD1PKVtDSDJdW0NAQEhdKFtDSF0xW0NIMl1bQ0gyXTEpW05IXUMoPU8pW05IXWMybm5bY0hdczI=

> <s_epik_cmdline>
J2VwaWtfcHl0aG9uJywgJy1waCcsICc3LjAnLCAnLXRuJywgJzgnLCAnLW1hJywgJzIwMCcsICctbWV0YWxfYmluZGluZycsICctaW1hZScsICc8aW5maWxlLm1hZT4nLCAnLW9tYWUnLCAnPG91dGZpbGUubWFlPic=

> <r_lp_tautomer_probability>
1

> <r_epik_Ionization_Penalty>
4.41895

> <r_epik_Ionization_Penalty_Charging>
4.37725

> <r_epik_Ionization_Penalty_Neutral>
0.0416999

> <r_epik_State_Penalty>
4.37688

> <r_epik_Charging_Adjusted_Penalty>
8.75413

> <i_epik_Tot_Q>
-1

> <i_epik_Tot_abs_Q>
1

> <r_epik_Metal_State_Penalty>
0.761195

> <b_epik_Metal_Only>
1

> <s_lp_Force_Field>
OPLS_2005

> <r_lp_Energy>
9.70165

> <b_lp_Chiralities_Consistent>
1

> <s_lp_Variant>
AV-unprocessed.smi:663-3

> <Gold.Version>
5.8.1

> <Gold.Id.Protein>
6NUR|6NUR_protein|mol2

> <Gold.PLP.Fitness>
37.3410

> <Gold.PLP.PLP>
-28.8474

> <Gold.PLP.part.hbond>
-5.1591

> <Gold.PLP.part.metal>
0.0000

> <Gold.PLP.part.buried>
-5.9721

> <Gold.PLP.part.nonpolar>
-18.9835

> <Gold.PLP.part.repulsive>
0.5652

> <Gold.PLP.ligand.clash>
0.0000

> <Gold.PLP.ligand.torsion>
0.8138

> <Gold.PLP.Chemscore.Hbond>
3.0000

> <Gold.PLP.Chemscore.CHOScore>
0.0000

> <Gold.PLP.Chemscore.Metal>
0.0000

> <Gold.Chemscore.Hbonds>
donor molecule, donor type, donor heavy atom, donor atom, acceptor molecule, acceptor atom, score
      L1  H     1    18       P1 10175  1.00
      L1  H     6    23       P1  8028  0.95
      P1  H  6934  6946       L1    11  1.00

> <Gold.PLP.Chemscore.Internal.Correction>
1.1212

> <Gold.Rescore>
     Score         DG    S(hbond)    S(metal)    S(lipo)     H(rot)  DE(clash)    DE(int)     intcor
      8.01     -11.81       2.46        0.00      38.35       2.49       1.14       2.66       ----

> <Gold.Chemscore.Fitness>
8.0100

> <Gold.Chemscore.DG>
-11.8056

> <Gold.Chemscore.ZeroCoef>
-5.4800

> <Gold.Chemscore.Hbond>
2.4561

> <Gold.Chemscore.Metal>
0.0000

> <Gold.Chemscore.Lipo>
38.3505

> <Gold.Chemscore.Internal_Hbond>
0.0000

> <Gold.Chemscore.DEClash>
1.1384

> <Gold.Chemscore.DEInternal>
2.6571

> <Gold.Chemscore.Rot>
2.4863

> <Gold.Chemscore.Internal.Correction>
   9.000000E+99

> <Gold.Chemscore.Hbonds>
donor molecule, donor type, donor heavy atom, donor atom, acceptor molecule, acceptor atom, score
      L1  H     1    18       P1 10175  0.85
      L1  H     6    23       P1  8028  0.21
      P1  H  6934  6946       L1    11  0.25

> <Gold.Chemscore.Hbond.Weighted>
-8.2034

> <Gold.Chemscore.Metal.Weighted>
-0.0000

> <Gold.Chemscore.Lipo.Weighted>
-4.4870

> <Gold.Chemscore.Internal_Hbond.Weighted>
0.0000

> <Gold.Chemscore.DEClash.Weighted>
1.1384

> <Gold.Chemscore.DEInternal.Weighted>
2.6571

> <Gold.Chemscore.Rot.Weighted>
6.3648

> <Gold.Chemscore.Internal.Correction.Weighted>
   9.000000E+99

> <Gold.Protein.RotatedTorsions>
[ 6907 6896 6895 6894 ] final  -90.32 input  -60.11 | X-H torsion
[ 7974 7965 7964 7962 ] final  116.49 input  175.53 | X-H torsion
[ 8008 7997 7996 7995 ] final  109.68 input   59.86 | X-H torsion
[ 10167 10162 10161 10158 ] final -172.69 input  -65.29 | X-H torsion
[ 10718 10713 10712 10709 ] final   86.34 input   66.30 | X-H torsion
[ 10763 10752 10751 10750 ] final -106.07 input  -60.55 | X-H torsion
[ 11005 11000 10999 10996 ] final   70.62 input  -57.11 | X-H torsion

> <Gold.Protein.ActiveResidues>
 VAL166  LYS551  ARG553  GLY616  TRP617  ASP618  TYR619  PRO620  LYS621  CYS622 
 ASP623  PHE694  ASN695  SER759  ASP760  ASP761  ALA762  ILE779  LEU786  VAL792 
 PHE793  MET794  SER795  GLU796  ALA797  LYS798  CYS799  TRP800  GLU811  SER814 

> <Gold.Protein.RotatedAtoms>
  150.6881  134.2450  159.4487 H   0  0  0  0  0  0  0  0  0  0  0  0  # atno 6907 bound_to 6896
  152.0391  134.9719  160.0583 H   0  0  0  0  0  0  0  0  0  0  0  0  # atno 6908 bound_to 6896
  152.1228  133.4328  159.4721 H   0  0  0  0  0  0  0  0  0  0  0  0  # atno 6909 bound_to 6896
  145.1790  139.3060  143.4428 H   0  0  0  0  0  0  0  0  0  0  0  0  # atno 7974 bound_to 7965
  156.1997  140.3053  155.9500 H   0  0  0  0  0  0  0  0  0  0  0  0  # atno 8008 bound_to 7997
  155.2983  140.0445  157.3045 H   0  0  0  0  0  0  0  0  0  0  0  0  # atno 8009 bound_to 7997
  154.5554  140.2304  155.8427 H   0  0  0  0  0  0  0  0  0  0  0  0  # atno 8010 bound_to 7997
  139.5730  144.1596  152.1411 H   0  0  0  0  0  0  0  0  0  0  0  0  # atno 10167 bound_to 10162
  157.6927  131.0212  150.2959 H   0  0  0  0  0  0  0  0  0  0  0  0  # atno 10718 bound_to 10713
  154.7988  135.4725  154.0225 H   0  0  0  0  0  0  0  0  0  0  0  0  # atno 10763 bound_to 10752
  153.1747  135.6831  153.8566 H   0  0  0  0  0  0  0  0  0  0  0  0  # atno 10764 bound_to 10752
  153.8137  135.3213  155.3381 H   0  0  0  0  0  0  0  0  0  0  0  0  # atno 10765 bound_to 10752
  139.9588  134.7098  156.0693 H   0  0  0  0  0  0  0  0  0  0  0  0  # atno 11005 bound_to 11000
  146.3456  140.1962  142.8589 LP  0  0  0  0  0  0  0  0  0  0  0  0  # atno 17320 bound_to 7965
  145.0156  140.8750  143.5198 LP  0  0  0  0  0  0  0  0  0  0  0  0  # atno 17321 bound_to 7965
  140.1133  144.5437  150.6910 LP  0  0  0  0  0  0  0  0  0  0  0  0  # atno 17342 bound_to 10162
  140.7014  143.2437  151.4853 LP  0  0  0  0  0  0  0  0  0  0  0  0  # atno 17343 bound_to 10162
  156.3482  130.3826  149.7351 LP  0  0  0  0  0  0  0  0  0  0  0  0  # atno 17370 bound_to 10713
  156.4837  130.8053  151.3066 LP  0  0  0  0  0  0  0  0  0  0  0  0  # atno 17371 bound_to 10713
  141.1262  133.6598  156.3344 LP  0  0  0  0  0  0  0  0  0  0  0  0  # atno 17394 bound_to 11000
  140.5548  134.5992  157.5418 LP  0  0  0  0  0  0  0  0  0  0  0  0  # atno 17395 bound_to 11000

$$$$
