AV-unprocessed.smi:3077|AV-procd|sdf|11730|dock3
  -GOLD-   2272017123D 1   1.00000     0.00000
 Structure written by MMmdl.
 28 29  0  0  0  0  0  0  0  0  2 V2000
  148.2150  141.3878  154.9735 C   0  0  0  0  0  0  0  0  0  0  0  0
  149.0427  140.5017  154.2290 C   0  0  0  0  0  0  0  0  0  0  0  0
  150.2682  140.4146  154.7209 N   0  0  0  0  0  0  0  0  0  0  0  0
  150.2652  141.2441  155.7864 N   0  0  0  0  0  0  0  0  0  0  0  0
  151.4660  141.3888  156.5894 C   0  0  0  0  0  0  0  0  0  0  0  0
  151.3003  142.3872  157.7535 C   0  0  1  0  0  0  0  0  0  0  0  0
  152.4104  142.2619  158.8225 C   0  0  0  0  0  0  0  0  0  0  0  0
  152.2416  143.3110  159.9325 C   0  0  0  0  0  0  0  0  0  0  0  0
  152.1635  144.7203  159.3292 C   0  0  0  0  0  0  0  0  0  0  0  0
  151.0522  144.7967  158.2702 C   0  0  0  0  0  0  0  0  0  0  0  0
  151.2547  143.7705  157.2242 N   0  3  0  0  0  0  0  0  0  0  0  0
  149.0348  141.8406  155.9668 C   0  0  0  0  0  0  0  0  0  0  0  0
  147.1800  141.6473  154.8063 H   0  0  0  0  0  0  0  0  0  0  0  0
  148.7907  139.9214  153.3537 H   0  0  0  0  0  0  0  0  0  0  0  0
  151.7410  140.4056  156.9736 H   0  0  0  0  0  0  0  0  0  0  0  0
  152.2772  141.7045  155.9314 H   0  0  0  0  0  0  0  0  0  0  0  0
  150.3383  142.1956  158.2321 H   0  0  0  0  0  0  0  0  0  0  0  0
  152.4008  141.2667  159.2683 H   0  0  0  0  0  0  0  0  0  0  0  0
  153.3887  142.3801  158.3547 H   0  0  0  0  0  0  0  0  0  0  0  0
  151.3332  143.1031  160.4995 H   0  0  0  0  0  0  0  0  0  0  0  0
  153.0702  143.2489  160.6387 H   0  0  0  0  0  0  0  0  0  0  0  0
  151.9831  145.4548  160.1149 H   0  0  0  0  0  0  0  0  0  0  0  0
  153.1217  144.9796  158.8767 H   0  0  0  0  0  0  0  0  0  0  0  0
  150.0751  144.6511  158.7328 H   0  0  0  0  0  0  0  0  0  0  0  0
  151.0410  145.7822  157.8043 H   0  0  0  0  0  0  0  0  0  0  0  0
  152.1267  143.9616  156.7520 H   0  0  0  0  0  0  0  0  0  0  0  0
  148.8462  142.5298  156.7769 H   0  0  0  0  0  0  0  0  0  0  0  0
  150.5010  143.8370  156.5549 H   0  0  0  0  0  0  0  0  0  0  0  0
  1 12  2  0  0  0  0
  1  2  1  0  0  0  0
  1 13  1  0  0  0  0
  2  3  2  0  0  0  0
  2 14  1  0  0  0  0
  3  4  1  0  0  0  0
  4  5  1  0  0  0  0
  4 12  1  0  0  0  0
  5  6  1  0  0  0  0
  5 15  1  0  0  0  0
  5 16  1  0  0  0  0
  6 11  1  0  0  0  0
  6  7  1  0  0  0  0
  6 17  1  0  0  0  0
  7  8  1  0  0  0  0
  7 18  1  0  0  0  0
  7 19  1  0  0  0  0
  8  9  1  0  0  0  0
  8 20  1  0  0  0  0
  8 21  1  0  0  0  0
  9 10  1  0  0  0  0
  9 22  1  0  0  0  0
  9 23  1  0  0  0  0
 10 11  1  0  0  0  0
 10 24  1  0  0  0  0
 10 25  1  0  0  0  0
 11 26  1  0  0  0  0
 11 28  1  0  0  0  0
 12 27  1  0  0  0  0
M  CHG  1  11   1
M  END
> <s_m_source_file>
AV-unprocessed.smi

> <i_m_source_file_index>
3077

> <i_lp_mmshare_version>
43012

> <i_f3d_flags>
0

> <s_epik_input>
W2NIXTFbY0hdW2NIXW5uMVtDSDJdW0NAQEhdMltDSDJdW0NIMl1bQ0gyXVtDSDJdW05IXTI=

> <s_epik_cmdline>
J2VwaWtfcHl0aG9uJywgJy1waCcsICc3LjAnLCAnLXRuJywgJzgnLCAnLW1hJywgJzIwMCcsICctbWV0YWxfYmluZGluZycsICctaW1hZScsICc8aW5maWxlLm1hZT4nLCAnLW9tYWUnLCAnPG91dGZpbGUubWFlPic=

> <r_lp_tautomer_probability>
1

> <r_epik_Ionization_Penalty>
0.000655985

> <r_epik_Ionization_Penalty_Charging>
0.000651447

> <r_epik_Ionization_Penalty_Neutral>
4.5377e-06

> <r_epik_State_Penalty>
0.000412577

> <r_epik_Charging_Adjusted_Penalty>
0.00106402

> <i_epik_Tot_Q>
1

> <i_epik_Tot_abs_Q>
1

> <r_epik_Metal_State_Penalty>
-0

> <b_epik_Metal_Only>
0

> <s_lp_Force_Field>
OPLS_2005

> <r_lp_Energy>
13.5088

> <b_lp_Chiralities_Consistent>
1

> <s_lp_Variant>
AV-unprocessed.smi:3077-2

> <Gold.Version>
5.8.1

> <Gold.Id.Protein>
6NUR|6NUR_protein|mol2

> <Gold.PLP.Fitness>
41.6918

> <Gold.PLP.PLP>
-28.4846

> <Gold.PLP.part.hbond>
-2.0000

> <Gold.PLP.part.metal>
0.0000

> <Gold.PLP.part.buried>
-1.6526

> <Gold.PLP.part.nonpolar>
-25.1716

> <Gold.PLP.part.repulsive>
0.0939

> <Gold.PLP.ligand.clash>
0.0000

> <Gold.PLP.ligand.torsion>
0.0996

> <Gold.PLP.Chemscore.Hbond>
3.0000

> <Gold.PLP.Chemscore.CHOScore>
1.4675

> <Gold.PLP.Chemscore.Metal>
0.0000

> <Gold.Chemscore.Hbonds>
donor molecule, donor type, donor heavy atom, donor atom, acceptor molecule, acceptor atom, score
      L1  H    11    28       P1  8028  1.98
      P1  H  7989  7998       L1     3  1.00
      L1  C     2    14       P1  7957  1.00
      L1  C    12    27       P1  8028  0.47

> <Gold.PLP.Chemscore.Internal.Correction>
0.0041

> <Gold.Rescore>
     Score         DG    S(hbond)    S(metal)    S(lipo)     H(rot)  DE(clash)    DE(int)     intcor
     17.45     -17.97       1.82        0.00      80.86       1.19       0.29       0.22       ----

> <Gold.Chemscore.Fitness>
17.4524

> <Gold.Chemscore.DG>
-17.9658

> <Gold.Chemscore.ZeroCoef>
-5.4800

> <Gold.Chemscore.Hbond>
1.8173

> <Gold.Chemscore.Metal>
0.0000

> <Gold.Chemscore.Lipo>
80.8647

> <Gold.Chemscore.Internal_Hbond>
0.0000

> <Gold.Chemscore.DEClash>
0.2942

> <Gold.Chemscore.DEInternal>
0.2192

> <Gold.Chemscore.Rot>
1.1896

> <Gold.Chemscore.Internal.Correction>
   9.000000E+99

> <Gold.Chemscore.Hbonds>
donor molecule, donor type, donor heavy atom, donor atom, acceptor molecule, acceptor atom, score
      L1  H    11    28       P1  8028  0.91
      P1  H  7989  7998       L1     3  0.65

> <Gold.Chemscore.Hbond.Weighted>
-6.0699

> <Gold.Chemscore.Metal.Weighted>
-0.0000

> <Gold.Chemscore.Lipo.Weighted>
-9.4612

> <Gold.Chemscore.Internal_Hbond.Weighted>
0.0000

> <Gold.Chemscore.DEClash.Weighted>
0.2942

> <Gold.Chemscore.DEInternal.Weighted>
0.2192

> <Gold.Chemscore.Rot.Weighted>
3.0453

> <Gold.Chemscore.Internal.Correction.Weighted>
   9.000000E+99

> <Gold.Protein.RotatedTorsions>
[ 6907 6896 6895 6894 ] final  169.15 input  -60.11 | X-H torsion
[ 7974 7965 7964 7962 ] final  -63.97 input  175.53 | X-H torsion
[ 8008 7997 7996 7995 ] final -156.42 input   59.86 | X-H torsion
[ 10167 10162 10161 10158 ] final  173.22 input  -65.29 | X-H torsion
[ 10718 10713 10712 10709 ] final   54.72 input   66.30 | X-H torsion
[ 10763 10752 10751 10750 ] final  172.27 input  -60.55 | X-H torsion
[ 11005 11000 10999 10996 ] final  162.91 input  -57.11 | X-H torsion

> <Gold.Protein.ActiveResidues>
 VAL166  LYS551  ARG553  GLY616  TRP617  ASP618  TYR619  PRO620  LYS621  CYS622 
 ASP623  PHE694  ASN695  SER759  ASP760  ASP761  ALA762  ILE779  LEU786  VAL792 
 PHE793  MET794  SER795  GLU796  ALA797  LYS798  CYS799  TRP800  GLU811  SER814 

> <Gold.Protein.RotatedAtoms>
  151.8365  133.3417  159.3629 H   0  0  0  0  0  0  0  0  0  0  0  0  # atno 6907 bound_to 6896
  150.7248  134.5432  159.5767 H   0  0  0  0  0  0  0  0  0  0  0  0  # atno 6908 bound_to 6896
  152.2897  134.7736  160.0431 H   0  0  0  0  0  0  0  0  0  0  0  0  # atno 6909 bound_to 6896
  145.7725  140.8805  143.0372 H   0  0  0  0  0  0  0  0  0  0  0  0  # atno 7974 bound_to 7965
  155.7169  140.0785  157.2347 H   0  0  0  0  0  0  0  0  0  0  0  0  # atno 8008 bound_to 7997
  154.4050  140.1620  156.2412 H   0  0  0  0  0  0  0  0  0  0  0  0  # atno 8009 bound_to 7997
  155.9232  140.3396  155.6192 H   0  0  0  0  0  0  0  0  0  0  0  0  # atno 8010 bound_to 7997
  139.5101  144.3285  152.0134 H   0  0  0  0  0  0  0  0  0  0  0  0  # atno 10167 bound_to 10162
  157.5282  130.8612  149.8650 H   0  0  0  0  0  0  0  0  0  0  0  0  # atno 10718 bound_to 10713
  154.4237  135.2758  155.1958 H   0  0  0  0  0  0  0  0  0  0  0  0  # atno 10763 bound_to 10752
  154.3894  135.6069  153.5838 H   0  0  0  0  0  0  0  0  0  0  0  0  # atno 10764 bound_to 10752
  152.9834  135.5899  154.4537 H   0  0  0  0  0  0  0  0  0  0  0  0  # atno 10765 bound_to 10752
  140.2305  134.8127  157.3312 H   0  0  0  0  0  0  0  0  0  0  0  0  # atno 11005 bound_to 11000
  144.6810  139.9876  143.7484 LP  0  0  0  0  0  0  0  0  0  0  0  0  # atno 17320 bound_to 7965
  146.0155  139.3206  143.0844 LP  0  0  0  0  0  0  0  0  0  0  0  0  # atno 17321 bound_to 7965
  140.2725  144.3948  150.6146 LP  0  0  0  0  0  0  0  0  0  0  0  0  # atno 17342 bound_to 10162
  140.6078  143.2168  151.6947 LP  0  0  0  0  0  0  0  0  0  0  0  0  # atno 17343 bound_to 10162
  156.0402  130.3741  150.1454 LP  0  0  0  0  0  0  0  0  0  0  0  0  # atno 17370 bound_to 10713
  156.9640  130.9814  151.3473 LP  0  0  0  0  0  0  0  0  0  0  0  0  # atno 17371 bound_to 10713
  140.1755  134.4555  155.7804 LP  0  0  0  0  0  0  0  0  0  0  0  0  # atno 17394 bound_to 11000
  141.2218  133.6960  156.7780 LP  0  0  0  0  0  0  0  0  0  0  0  0  # atno 17395 bound_to 11000

$$$$
