AV-unprocessed.smi:49|AV-procd|sdf|487|dock4
  -GOLD-   2262016353D 1   1.00000     0.00000
 Structure written by MMmdl.
 26 27  0  0  0  0  0  0  0  0  2 V2000
  152.7450  141.8028  158.9614 C   0  0  0  0  0  0  0  0  0  0  0  0
  151.7150  140.6998  158.6985 C   0  0  0  0  0  0  0  0  0  0  0  0
  151.3643  140.5870  157.2311 C   0  0  0  0  0  0  0  0  0  0  0  0
  150.2017  140.9214  156.6812 N   0  0  0  0  0  0  0  0  0  0  0  0
  150.3384  140.6907  155.3662 C   0  0  0  0  0  0  0  0  0  0  0  0
  149.2766  140.9583  154.3148 C   0  0  2  0  0  0  0  0  0  0  0  0
  147.9874  141.5221  154.9395 C   0  0  0  0  0  0  0  0  0  0  0  0
  146.9805  140.3852  154.7982 C   0  0  1  0  0  0  0  0  0  0  0  0
  145.6456  140.8387  154.7230 O   0  0  0  0  0  0  0  0  0  0  0  0
  147.4387  139.7074  153.5137 C   0  0  0  0  0  0  0  0  0  0  0  0
  148.8925  139.7462  153.5812 N   0  0  0  0  0  0  0  0  0  0  0  0
  151.5745  140.2472  155.0906 N   0  0  0  0  0  0  0  0  0  0  0  0
  152.1941  140.1868  156.2516 N   0  5  0  0  0  0  0  0  0  0  0  0
  149.6793  141.6932  153.6167 H   0  0  0  0  0  0  0  0  0  0  0  0
  147.0828  139.6937  155.6362 H   0  0  0  0  0  0  0  0  0  0  0  0
  152.9841  141.8676  160.0227 H   0  0  0  0  0  0  0  0  0  0  0  0
  152.3679  142.7749  158.6428 H   0  0  0  0  0  0  0  0  0  0  0  0
  153.6718  141.6091  158.4207 H   0  0  0  0  0  0  0  0  0  0  0  0
  152.0997  139.7398  159.0437 H   0  0  0  0  0  0  0  0  0  0  0  0
  150.8043  140.8966  159.2651 H   0  0  0  0  0  0  0  0  0  0  0  0
  148.1091  141.8550  155.9712 H   0  0  0  0  0  0  0  0  0  0  0  0
  147.6582  142.3824  154.3545 H   0  0  0  0  0  0  0  0  0  0  0  0
  145.2875  140.5717  153.8904 H   0  0  0  0  0  0  0  0  0  0  0  0
  147.0612  138.6895  153.4154 H   0  0  0  0  0  0  0  0  0  0  0  0
  147.0968  140.2779  152.6491 H   0  0  0  0  0  0  0  0  0  0  0  0
  149.2696  139.7766  152.6400 H   0  0  0  0  0  0  0  0  0  0  0  0
  1  2  1  0  0  0  0
  1 16  1  0  0  0  0
  1 17  1  0  0  0  0
  1 18  1  0  0  0  0
  2  3  1  0  0  0  0
  2 19  1  0  0  0  0
  2 20  1  0  0  0  0
  3 13  1  0  0  0  0
  3  4  2  0  0  0  0
  4  5  1  0  0  0  0
  5  6  1  0  0  0  0
  5 12  2  0  0  0  0
  6 14  1  0  0  0  0
  6 11  1  0  0  0  0
  6  7  1  0  0  0  0
  7  8  1  0  0  0  0
  7 21  1  0  0  0  0
  7 22  1  0  0  0  0
  8 15  1  0  0  0  0
  8  9  1  0  0  0  0
  8 10  1  0  0  0  0
  9 23  1  0  0  0  0
 10 11  1  0  0  0  0
 10 24  1  0  0  0  0
 10 25  1  0  0  0  0
 11 26  1  0  0  0  0
 12 13  1  0  0  0  0
M  CHG  1  13  -1
M  END
> <s_m_source_file>
AV-unprocessed.smi

> <i_m_source_file_index>
49

> <i_lp_mmshare_version>
43012

> <i_f3d_flags>
0

> <s_epik_input>
W0NIM11bQ0gyXWMxbmMobltuSF0xKVtDQEBIXTJbQ0gyXVtDQEBIXShbT0hdKVtDSDJdW05IXTI=

> <s_epik_cmdline>
J2VwaWtfcHl0aG9uJywgJy1waCcsICc3LjAnLCAnLXRuJywgJzgnLCAnLW1hJywgJzIwMCcsICctbWV0YWxfYmluZGluZycsICctaW1hZScsICc8aW5maWxlLm1hZT4nLCAnLW9tYWUnLCAnPG91dGZpbGUubWFlPic=

> <r_lp_tautomer_probability>
0.948284

> <r_epik_Ionization_Penalty>
20.726

> <r_epik_Ionization_Penalty_Charging>
17.6814

> <r_epik_Ionization_Penalty_Neutral>
3.04463

> <r_epik_State_Penalty>
7.95092

> <r_epik_Charging_Adjusted_Penalty>
25.6323

> <i_epik_Tot_Q>
-1

> <i_epik_Tot_abs_Q>
1

> <r_epik_Metal_State_Penalty>
4.146

> <b_epik_Metal_Only>
1

> <s_lp_Force_Field>
OPLS_2005

> <r_lp_Energy>
17.7922

> <b_lp_Chiralities_Consistent>
1

> <s_lp_Variant>
AV-unprocessed.smi:49-25

> <Gold.Version>
5.8.1

> <Gold.Id.Protein>
6NUR|6NUR_protein|mol2

> <Gold.PLP.Fitness>
33.7027

> <Gold.PLP.PLP>
-21.6731

> <Gold.PLP.part.hbond>
-3.8026

> <Gold.PLP.part.metal>
0.0000

> <Gold.PLP.part.buried>
-0.9542

> <Gold.PLP.part.nonpolar>
-15.9615

> <Gold.PLP.part.repulsive>
0.0830

> <Gold.PLP.ligand.clash>
0.0000

> <Gold.PLP.ligand.torsion>
0.0775

> <Gold.PLP.Chemscore.Hbond>
4.0559

> <Gold.PLP.Chemscore.CHOScore>
0.0000

> <Gold.PLP.Chemscore.Metal>
0.0000

> <Gold.Chemscore.Hbonds>
donor molecule, donor type, donor heavy atom, donor atom, acceptor molecule, acceptor atom, score
      L1  H     9    23       P1 10175  0.73
      L1  H    11    26       P1  7957  1.00
      P1  H  7989  7998       L1    12  0.82
      P1  H  7997  8009       L1    13  1.46

> <Gold.PLP.Chemscore.Internal.Correction>
0.0170

> <Gold.Rescore>
     Score         DG    S(hbond)    S(metal)    S(lipo)     H(rot)  DE(clash)    DE(int)     intcor
     13.97     -14.12       2.52        0.00      41.77       1.82       0.14       0.01       ----

> <Gold.Chemscore.Fitness>
13.9731

> <Gold.Chemscore.DG>
-14.1229

> <Gold.Chemscore.ZeroCoef>
-5.4800

> <Gold.Chemscore.Hbond>
2.5215

> <Gold.Chemscore.Metal>
0.0000

> <Gold.Chemscore.Lipo>
41.7678

> <Gold.Chemscore.Internal_Hbond>
0.0000

> <Gold.Chemscore.DEClash>
0.1378

> <Gold.Chemscore.DEInternal>
0.0119

> <Gold.Chemscore.Rot>
1.8226

> <Gold.Chemscore.Internal.Correction>
   9.000000E+99

> <Gold.Chemscore.Hbonds>
donor molecule, donor type, donor heavy atom, donor atom, acceptor molecule, acceptor atom, score
      L1  H     9    23       P1 10175  0.69
      L1  H    11    26       P1  7957  0.94
      P1  H  7989  7998       L1    12  0.14
      P1  H  7997  8009       L1    13  0.71

> <Gold.Chemscore.Hbond.Weighted>
-8.4218

> <Gold.Chemscore.Metal.Weighted>
-0.0000

> <Gold.Chemscore.Lipo.Weighted>
-4.8868

> <Gold.Chemscore.Internal_Hbond.Weighted>
0.0000

> <Gold.Chemscore.DEClash.Weighted>
0.1378

> <Gold.Chemscore.DEInternal.Weighted>
0.0119

> <Gold.Chemscore.Rot.Weighted>
4.6658

> <Gold.Chemscore.Internal.Correction.Weighted>
   9.000000E+99

> <Gold.Protein.RotatedTorsions>
[ 6907 6896 6895 6894 ] final  -40.34 input  -60.11 | X-H torsion
[ 7974 7965 7964 7962 ] final   37.45 input  175.53 | X-H torsion
[ 8008 7997 7996 7995 ] final -163.35 input   59.86 | X-H torsion
[ 10167 10162 10161 10158 ] final  100.81 input  -65.29 | X-H torsion
[ 10718 10713 10712 10709 ] final -109.62 input   66.30 | X-H torsion
[ 10763 10752 10751 10750 ] final -117.29 input  -60.55 | X-H torsion
[ 11005 11000 10999 10996 ] final -101.50 input  -57.11 | X-H torsion

> <Gold.Protein.ActiveResidues>
 VAL166  LYS551  ARG553  GLY616  TRP617  ASP618  TYR619  PRO620  LYS621  CYS622 
 ASP623  PHE694  ASN695  SER759  ASP760  ASP761  ALA762  ILE779  LEU786  VAL792 
 PHE793  MET794  SER795  GLU796  ALA797  LYS798  CYS799  TRP800  GLU811  SER814 

> <Gold.Protein.RotatedAtoms>
  150.9796  134.9154  159.7836 H   0  0  0  0  0  0  0  0  0  0  0  0  # atno 6907 bound_to 6896
  152.5217  134.3429  159.9233 H   0  0  0  0  0  0  0  0  0  0  0  0  # atno 6908 bound_to 6896
  151.3436  133.3912  159.2708 H   0  0  0  0  0  0  0  0  0  0  0  0  # atno 6909 bound_to 6896
  146.1137  139.5893  142.9335 H   0  0  0  0  0  0  0  0  0  0  0  0  # atno 7974 bound_to 7965
  155.8200  140.0918  157.1855 H   0  0  0  0  0  0  0  0  0  0  0  0  # atno 8008 bound_to 7997
  154.3979  140.1438  156.3548 H   0  0  0  0  0  0  0  0  0  0  0  0  # atno 8009 bound_to 7997
  155.8276  140.3444  155.5555 H   0  0  0  0  0  0  0  0  0  0  0  0  # atno 8010 bound_to 7997
  139.7494  144.6988  151.0455 H   0  0  0  0  0  0  0  0  0  0  0  0  # atno 10167 bound_to 10162
  156.0546  130.5773  150.8124 H   0  0  0  0  0  0  0  0  0  0  0  0  # atno 10718 bound_to 10713
  154.8550  135.4315  154.1956 H   0  0  0  0  0  0  0  0  0  0  0  0  # atno 10763 bound_to 10752
  153.3015  135.6969  153.7205 H   0  0  0  0  0  0  0  0  0  0  0  0  # atno 10764 bound_to 10752
  153.6333  135.3481  155.3023 H   0  0  0  0  0  0  0  0  0  0  0  0  # atno 10765 bound_to 10752
  141.1228  133.8483  157.1240 H   0  0  0  0  0  0  0  0  0  0  0  0  # atno 11005 bound_to 11000
  145.5611  141.0404  143.2225 LP  0  0  0  0  0  0  0  0  0  0  0  0  # atno 17320 bound_to 7965
  144.7534  139.7137  143.7264 LP  0  0  0  0  0  0  0  0  0  0  0  0  # atno 17321 bound_to 7965
  140.7796  143.4828  150.9996 LP  0  0  0  0  0  0  0  0  0  0  0  0  # atno 17342 bound_to 10162
  139.8515  143.7431  152.3178 LP  0  0  0  0  0  0  0  0  0  0  0  0  # atno 17343 bound_to 10162
  157.5505  131.0943  150.9702 LP  0  0  0  0  0  0  0  0  0  0  0  0  # atno 17370 bound_to 10713
  156.9963  130.5582  149.5307 LP  0  0  0  0  0  0  0  0  0  0  0  0  # atno 17371 bound_to 10713
  140.0200  134.9950  157.0571 LP  0  0  0  0  0  0  0  0  0  0  0  0  # atno 17394 bound_to 11000
  140.4456  134.1635  155.7177 LP  0  0  0  0  0  0  0  0  0  0  0  0  # atno 17395 bound_to 11000

$$$$
