AV-unprocessed.smi:1820|AV-procd|sdf|7384|dock2
  -GOLD-   22720 9 53D 1   1.00000     0.00000
 Structure written by MMmdl.
 34 35  0  0  0  0  0  0  0  0  1 V2000
  145.8793  134.6541  148.7747 O   0  0  0  0  0  0  0  0  0  0  0  0
  146.7062  135.1008  149.5692 C   0  0  0  0  0  0  0  0  0  0  0  0
  147.9412  135.4823  149.2147 N   0  0  0  0  0  0  0  0  0  0  0  0
  148.4731  135.4580  147.8546 C   0  0  0  0  0  0  0  0  0  0  0  0
  149.8644  134.7799  147.7573 C   0  0  0  0  0  0  0  0  0  0  0  0
  149.8164  133.5610  148.4732 O   0  0  0  0  0  0  0  0  0  0  0  0
  150.3807  134.5677  146.3250 C   0  0  0  0  0  0  0  0  0  0  0  0
  150.9862  135.9162  145.9224 C   0  0  0  0  0  0  0  0  0  0  0  0
  151.4175  136.5941  147.2325 C   0  0  0  0  0  0  0  0  0  0  0  0
  150.9574  135.6691  148.3682 C   0  0  0  0  0  0  0  0  0  0  0  0
  146.5138  135.2575  150.8906 N   0  0  0  0  0  0  0  0  0  0  0  0
  145.3545  134.9768  151.6644 C   0  0  0  0  0  0  0  0  0  0  0  0
  145.3234  135.4533  152.9915 C   0  0  0  0  0  0  0  0  0  0  0  0
  144.1816  135.2014  153.7779 C   0  0  0  0  0  0  0  0  0  0  0  0
  143.1024  134.5300  153.3248 N   0  0  0  0  0  0  0  0  0  0  0  0
  143.1275  134.0865  152.0503 C   0  0  0  0  0  0  0  0  0  0  0  0
  144.2180  134.2850  151.1800 C   0  0  0  0  0  0  0  0  0  0  0  0
  148.5553  135.8333  149.9345 H   0  0  0  0  0  0  0  0  0  0  0  0
  147.7507  134.9004  147.2581 H   0  0  0  0  0  0  0  0  0  0  0  0
  148.4980  136.4596  147.4215 H   0  0  0  0  0  0  0  0  0  0  0  0
  150.3785  133.6332  149.2292 H   0  0  0  0  0  0  0  0  0  0  0  0
  151.1760  133.8202  146.3313 H   0  0  0  0  0  0  0  0  0  0  0  0
  149.6257  134.2165  145.6217 H   0  0  0  0  0  0  0  0  0  0  0  0
  151.8179  135.7932  145.2280 H   0  0  0  0  0  0  0  0  0  0  0  0
  150.2327  136.5274  145.4241 H   0  0  0  0  0  0  0  0  0  0  0  0
  152.4955  136.7541  147.2698 H   0  0  0  0  0  0  0  0  0  0  0  0
  150.9406  137.5711  147.3195 H   0  0  0  0  0  0  0  0  0  0  0  0
  150.6193  136.2193  149.2472 H   0  0  0  0  0  0  0  0  0  0  0  0
  151.8054  135.0568  148.6802 H   0  0  0  0  0  0  0  0  0  0  0  0
  147.3157  135.5702  151.4176 H   0  0  0  0  0  0  0  0  0  0  0  0
  146.1587  135.9984  153.4060 H   0  0  0  0  0  0  0  0  0  0  0  0
  144.1344  135.5507  154.7987 H   0  0  0  0  0  0  0  0  0  0  0  0
  142.2474  133.5610  151.7103 H   0  0  0  0  0  0  0  0  0  0  0  0
  144.1532  133.9158  150.1683 H   0  0  0  0  0  0  0  0  0  0  0  0
  1  2  2  0  0  0  0
  2  3  1  0  0  0  0
  2 11  1  0  0  0  0
  3  4  1  0  0  0  0
  3 18  1  0  0  0  0
  4  5  1  0  0  0  0
  4 19  1  0  0  0  0
  4 20  1  0  0  0  0
  5 10  1  0  0  0  0
  5  6  1  0  0  0  0
  5  7  1  0  0  0  0
  6 21  1  0  0  0  0
  7  8  1  0  0  0  0
  7 22  1  0  0  0  0
  7 23  1  0  0  0  0
  8  9  1  0  0  0  0
  8 24  1  0  0  0  0
  8 25  1  0  0  0  0
  9 10  1  0  0  0  0
  9 26  1  0  0  0  0
  9 27  1  0  0  0  0
 10 28  1  0  0  0  0
 10 29  1  0  0  0  0
 11 12  1  0  0  0  0
 11 30  1  0  0  0  0
 12 17  1  0  0  0  0
 12 13  2  0  0  0  0
 13 14  1  0  0  0  0
 13 31  1  0  0  0  0
 14 15  2  0  0  0  0
 14 32  1  0  0  0  0
 15 16  1  0  0  0  0
 16 17  2  0  0  0  0
 16 33  1  0  0  0  0
 17 34  1  0  0  0  0
M  END
> <s_m_source_file>
AV-unprocessed.smi

> <i_m_source_file_index>
1820

> <i_lp_mmshare_version>
43012

> <i_f3d_flags>
0

> <s_epik_input>
W2NIXTFbY0hdbltjSF1bY0hdYzFbTkhdQyg9TylbTkhdW0NIMl1DMihbT0hdKVtDSDJdW0NIMl1bQ0gyXVtDSDJdMg==

> <s_epik_cmdline>
J2VwaWtfcHl0aG9uJywgJy1waCcsICc3LjAnLCAnLXRuJywgJzgnLCAnLW1hJywgJzIwMCcsICctbWV0YWxfYmluZGluZycsICctaW1hZScsICc8aW5maWxlLm1hZT4nLCAnLW9tYWUnLCAnPG91dGZpbGUubWFlPic=

> <r_epik_Ionization_Penalty>
0.127626

> <r_epik_Ionization_Penalty_Charging>
0

> <r_epik_Ionization_Penalty_Neutral>
0.127626

> <r_epik_State_Penalty>
0.11702

> <r_epik_Charging_Adjusted_Penalty>
0.11702

> <i_epik_Tot_Q>
0

> <i_epik_Tot_abs_Q>
0

> <r_epik_Metal_State_Penalty>
0.0961027

> <b_epik_Metal_Only>
0

> <s_lp_Force_Field>
OPLS_2005

> <r_lp_Energy>
30.5055

> <b_lp_Chiralities_Consistent>
1

> <s_lp_Variant>
AV-unprocessed.smi:1820-1

> <Gold.Version>
5.8.1

> <Gold.Id.Protein>
6NUR|6NUR_protein|mol2

> <Gold.PLP.Fitness>
-345.7199

> <Gold.PLP.PLP>
350.1065

> <Gold.PLP.part.hbond>
-0.8741

> <Gold.PLP.part.metal>
0.0000

> <Gold.PLP.part.buried>
181.1565

> <Gold.PLP.part.nonpolar>
149.3951

> <Gold.PLP.part.repulsive>
25.7243

> <Gold.PLP.ligand.clash>
0.0000

> <Gold.PLP.ligand.torsion>
0.1719

> <Gold.PLP.Chemscore.Hbond>
1.0000

> <Gold.PLP.Chemscore.CHOScore>
0.5718

> <Gold.PLP.Chemscore.Metal>
0.0000

> <Gold.Chemscore.Hbonds>
donor molecule, donor type, donor heavy atom, donor atom, acceptor molecule, acceptor atom, score
      L1  H    11    30       P1  7948  1.00
      L1  C    16    33       P1 10186  0.57

> <Gold.PLP.Chemscore.Internal.Correction>
0.0152

> <Gold.Rescore>
     Score         DG    S(hbond)    S(metal)    S(lipo)     H(rot)  DE(clash)    DE(int)     intcor
     13.30     -14.97       1.92        0.00      64.65       1.76       0.11       1.56       ----

> <Gold.Chemscore.Fitness>
13.3043

> <Gold.Chemscore.DG>
-14.9745

> <Gold.Chemscore.ZeroCoef>
-5.4800

> <Gold.Chemscore.Hbond>
1.9242

> <Gold.Chemscore.Metal>
0.0000

> <Gold.Chemscore.Lipo>
64.6501

> <Gold.Chemscore.Internal_Hbond>
0.0000

> <Gold.Chemscore.DEClash>
0.1103

> <Gold.Chemscore.DEInternal>
1.5600

> <Gold.Chemscore.Rot>
1.7564

> <Gold.Chemscore.Internal.Correction>
   9.000000E+99

> <Gold.Chemscore.Hbonds>
donor molecule, donor type, donor heavy atom, donor atom, acceptor molecule, acceptor atom, score
      L1  H    11    30       P1  7948  0.95

> <Gold.Chemscore.Hbond.Weighted>
-6.4267

> <Gold.Chemscore.Metal.Weighted>
-0.0000

> <Gold.Chemscore.Lipo.Weighted>
-7.5641

> <Gold.Chemscore.Internal_Hbond.Weighted>
0.0000

> <Gold.Chemscore.DEClash.Weighted>
0.1103

> <Gold.Chemscore.DEInternal.Weighted>
1.5600

> <Gold.Chemscore.Rot.Weighted>
4.4963

> <Gold.Chemscore.Internal.Correction.Weighted>
   9.000000E+99

> <Gold.Protein.RotatedTorsions>
[ 6907 6896 6895 6894 ] final  -12.30 input  -60.11 | X-H torsion
[ 7974 7965 7964 7962 ] final  -97.29 input  175.53 | X-H torsion
[ 8008 7997 7996 7995 ] final   -7.64 input   59.86 | X-H torsion
[ 10167 10162 10161 10158 ] final -163.73 input  -65.29 | X-H torsion
[ 10718 10713 10712 10709 ] final -137.61 input   66.30 | X-H torsion
[ 10763 10752 10751 10750 ] final -161.80 input  -60.55 | X-H torsion
[ 11005 11000 10999 10996 ] final  145.39 input  -57.11 | X-H torsion

> <Gold.Protein.ActiveResidues>
 VAL166  LYS551  ARG553  GLY616  TRP617  ASP618  TYR619  PRO620  LYS621  CYS622 
 ASP623  PHE694  ASN695  SER759  ASP760  ASP761  ALA762  ILE779  LEU786  VAL792 
 PHE793  MET794  SER795  GLU796  ALA797  LYS798  CYS799  TRP800  GLU811  SER814 

> <Gold.Protein.RotatedAtoms>
  151.3727  135.0925  159.9470 H   0  0  0  0  0  0  0  0  0  0  0  0  # atno 6907 bound_to 6896
  152.5131  133.9149  159.7516 H   0  0  0  0  0  0  0  0  0  0  0  0  # atno 6908 bound_to 6896
  150.9566  133.6436  159.2791 H   0  0  0  0  0  0  0  0  0  0  0  0  # atno 6909 bound_to 6896
  145.3357  140.9450  143.2636 H   0  0  0  0  0  0  0  0  0  0  0  0  # atno 7974 bound_to 7965
  154.5818  140.2402  155.8042 H   0  0  0  0  0  0  0  0  0  0  0  0  # atno 8008 bound_to 7997
  156.2185  140.3005  155.9852 H   0  0  0  0  0  0  0  0  0  0  0  0  # atno 8009 bound_to 7997
  155.2527  140.0411  157.2979 H   0  0  0  0  0  0  0  0  0  0  0  0  # atno 8010 bound_to 7997
  139.6300  144.0458  152.2008 H   0  0  0  0  0  0  0  0  0  0  0  0  # atno 10167 bound_to 10162
  156.2900  130.7370  151.1393 H   0  0  0  0  0  0  0  0  0  0  0  0  # atno 10718 bound_to 10713
  154.7271  135.3038  154.8953 H   0  0  0  0  0  0  0  0  0  0  0  0  # atno 10763 bound_to 10752
  153.9807  135.6730  153.4754 H   0  0  0  0  0  0  0  0  0  0  0  0  # atno 10764 bound_to 10752
  153.0885  135.4972  154.8563 H   0  0  0  0  0  0  0  0  0  0  0  0  # atno 10765 bound_to 10752
  140.0708  134.9152  157.1342 H   0  0  0  0  0  0  0  0  0  0  0  0  # atno 11005 bound_to 11000
  144.8829  139.4879  143.6714 LP  0  0  0  0  0  0  0  0  0  0  0  0  # atno 17320 bound_to 7965
  146.3028  139.7480  142.9079 LP  0  0  0  0  0  0  0  0  0  0  0  0  # atno 17321 bound_to 7965
  140.0121  144.6216  150.7638 LP  0  0  0  0  0  0  0  0  0  0  0  0  # atno 17342 bound_to 10162
  140.7433  143.2845  151.3503 LP  0  0  0  0  0  0  0  0  0  0  0  0  # atno 17343 bound_to 10162
  157.7340  131.0586  150.5549 LP  0  0  0  0  0  0  0  0  0  0  0  0  # atno 17370 bound_to 10713
  156.5664  130.4268  149.6039 LP  0  0  0  0  0  0  0  0  0  0  0  0  # atno 17371 bound_to 10713
  140.3629  134.2474  155.7185 LP  0  0  0  0  0  0  0  0  0  0  0  0  # atno 17394 bound_to 11000
  141.2011  133.7971  157.0457 LP  0  0  0  0  0  0  0  0  0  0  0  0  # atno 17395 bound_to 11000

$$$$
