AV-unprocessed.smi:625|AV-procd|sdf|3102|dock5
  -GOLD-   22720 0 23D 1   1.00000     0.00000
 Structure written by MMmdl.
 49 51  0  0  0  0  0  0  0  0  1 V2000
  146.2935  132.7277  150.1951 C   0  0  0  0  0  0  0  0  0  0  0  0
  147.2050  132.5582  151.3165 N   0  0  0  0  0  0  0  0  0  0  0  0
  147.3322  133.4284  152.3316 C   0  0  0  0  0  0  0  0  0  0  0  0
  146.6622  134.4615  152.3871 O   0  0  0  0  0  0  0  0  0  0  0  0
  148.3208  133.0264  153.3350 C   0  0  0  0  0  0  0  0  0  0  0  0
  148.8560  131.6770  153.4356 C   0  0  0  0  0  0  0  0  0  0  0  0
  149.7383  131.3606  154.4044 C   0  0  0  0  0  0  0  0  0  0  0  0
  150.1925  132.3468  155.3898 C   0  0  0  0  0  0  0  0  0  0  0  0
  150.9814  132.0546  156.2884 O   0  0  0  0  0  0  0  0  0  0  0  0
  149.6794  133.6058  155.2475 N   0  0  0  0  0  0  0  0  0  0  0  0
  150.0073  134.6839  156.1930 C   0  0  0  0  0  0  0  0  0  0  0  0
  148.7377  135.2153  156.8656 C   0  0  0  0  0  0  0  0  0  0  0  0
  147.8381  135.7116  156.1873 O   0  0  0  0  0  0  0  0  0  0  0  0
  148.6963  135.1222  158.2034 N   0  0  0  0  0  0  0  0  0  0  0  0
  147.6926  135.7362  159.0687 C   0  0  1  0  0  0  0  0  0  0  0  0
  146.3287  135.0766  158.8140 C   0  0  0  0  0  0  0  0  0  0  0  0
  148.1407  135.6100  160.5451 C   0  0  2  0  0  0  0  0  0  0  0  0
  147.9007  134.2224  161.1809 C   0  0  0  0  0  0  0  0  0  0  0  0
  147.1910  134.5656  162.5050 C   0  0  2  0  0  0  0  0  0  0  0  0
  145.7426  134.9944  162.2057 C   0  0  0  0  0  0  0  0  0  0  0  0
  145.9260  136.3861  161.5745 C   0  0  0  0  0  0  0  0  0  0  0  0
  147.4591  136.5578  161.5665 C   0  0  1  0  0  0  0  0  0  0  0  0
  147.8376  135.8928  162.8852 C   0  0  0  0  0  0  0  0  0  0  0  0
  148.7575  133.9296  154.2327 C   0  0  0  0  0  0  0  0  0  0  0  0
  146.3680  131.8729  149.5229 H   0  0  0  0  0  0  0  0  0  0  0  0
  146.5376  133.6281  149.6299 H   0  0  0  0  0  0  0  0  0  0  0  0
  145.2613  132.8018  150.5402 H   0  0  0  0  0  0  0  0  0  0  0  0
  147.7780  131.7269  151.3237 H   0  0  0  0  0  0  0  0  0  0  0  0
  148.5624  130.9028  152.7421 H   0  0  0  0  0  0  0  0  0  0  0  0
  150.1213  130.3519  154.4594 H   0  0  0  0  0  0  0  0  0  0  0  0
  150.7049  134.3598  156.9666 H   0  0  0  0  0  0  0  0  0  0  0  0
  150.5192  135.4890  155.6623 H   0  0  0  0  0  0  0  0  0  0  0  0
  149.4752  134.6763  158.6658 H   0  0  0  0  0  0  0  0  0  0  0  0
  147.5921  136.7960  158.8300 H   0  0  0  0  0  0  0  0  0  0  0  0
  145.5510  135.5243  159.4329 H   0  0  0  0  0  0  0  0  0  0  0  0
  146.3550  134.0089  159.0341 H   0  0  0  0  0  0  0  0  0  0  0  0
  146.0258  135.1945  157.7731 H   0  0  0  0  0  0  0  0  0  0  0  0
  149.2116  135.8184  160.5831 H   0  0  0  0  0  0  0  0  0  0  0  0
  147.2931  133.5652  160.5576 H   0  0  0  0  0  0  0  0  0  0  0  0
  148.8500  133.7176  161.3642 H   0  0  0  0  0  0  0  0  0  0  0  0
  147.2674  133.7813  163.2585 H   0  0  0  0  0  0  0  0  0  0  0  0
  145.2339  134.2985  161.5376 H   0  0  0  0  0  0  0  0  0  0  0  0
  145.1585  135.0647  163.1241 H   0  0  0  0  0  0  0  0  0  0  0  0
  145.4751  136.4620  160.5862 H   0  0  0  0  0  0  0  0  0  0  0  0
  145.4623  137.1505  162.1994 H   0  0  0  0  0  0  0  0  0  0  0  0
  147.7793  137.5966  161.4817 H   0  0  0  0  0  0  0  0  0  0  0  0
  147.3790  136.3650  163.7562 H   0  0  0  0  0  0  0  0  0  0  0  0
  148.9152  135.8209  163.0436 H   0  0  0  0  0  0  0  0  0  0  0  0
  148.4199  134.9567  154.2552 H   0  0  0  0  0  0  0  0  0  0  0  0
  1  2  1  0  0  0  0
  1 25  1  0  0  0  0
  1 26  1  0  0  0  0
  1 27  1  0  0  0  0
  2  3  1  0  0  0  0
  2 28  1  0  0  0  0
  3  4  2  0  0  0  0
  3  5  1  0  0  0  0
  5 24  2  0  0  0  0
  5  6  1  0  0  0  0
  6  7  2  0  0  0  0
  6 29  1  0  0  0  0
  7  8  1  0  0  0  0
  7 30  1  0  0  0  0
  8  9  2  0  0  0  0
  8 10  1  0  0  0  0
 10 11  1  0  0  0  0
 10 24  1  0  0  0  0
 11 12  1  0  0  0  0
 11 31  1  0  0  0  0
 11 32  1  0  0  0  0
 12 13  2  0  0  0  0
 12 14  1  0  0  0  0
 14 15  1  0  0  0  0
 14 33  1  0  0  0  0
 15 16  1  0  0  0  0
 15 17  1  0  0  0  0
 15 34  1  0  0  0  0
 16 35  1  0  0  0  0
 16 36  1  0  0  0  0
 16 37  1  0  0  0  0
 17 22  1  0  0  0  0
 17 18  1  0  0  0  0
 17 38  1  0  0  0  0
 18 19  1  0  0  0  0
 18 39  1  0  0  0  0
 18 40  1  0  0  0  0
 19 23  1  0  0  0  0
 19 20  1  0  0  0  0
 19 41  1  0  0  0  0
 20 21  1  0  0  0  0
 20 42  1  0  0  0  0
 20 43  1  0  0  0  0
 21 22  1  0  0  0  0
 21 44  1  0  0  0  0
 21 45  1  0  0  0  0
 22 23  1  0  0  0  0
 22 46  1  0  0  0  0
 23 47  1  0  0  0  0
 23 48  1  0  0  0  0
 24 49  1  0  0  0  0
M  END
> <s_m_source_file>
AV-unprocessed.smi

> <i_m_source_file_index>
625

> <i_lp_mmshare_version>
43012

> <i_f3d_flags>
0

> <s_epik_input>
W0NIM11bTkhdQyg9TyljMVtjSF1bY0hdYyg9TyluKFtjSF0xKVtDSDJdQyg9TylbTkhdW0NASF0oW0NIM10pW0NASF0oW0NIMl1bQ0BIXTIzKVtDQEhdKFtDSDJdMylbQ0gyXVtDSDJdMg==

> <s_epik_cmdline>
J2VwaWtfcHl0aG9uJywgJy1waCcsICc3LjAnLCAnLXRuJywgJzgnLCAnLW1hJywgJzIwMCcsICctbWV0YWxfYmluZGluZycsICctaW1hZScsICc8aW5maWxlLm1hZT4nLCAnLW9tYWUnLCAnPG91dGZpbGUubWFlPic=

> <r_lp_tautomer_probability>
1

> <r_epik_Ionization_Penalty>
3.7129e-07

> <r_epik_Ionization_Penalty_Charging>
5.04114e-08

> <r_epik_Ionization_Penalty_Neutral>
3.20879e-07

> <r_epik_State_Penalty>
-0

> <r_epik_Charging_Adjusted_Penalty>
5.04114e-08

> <i_epik_Tot_Q>
0

> <i_epik_Tot_abs_Q>
0

> <r_epik_Metal_State_Penalty>
-0

> <b_epik_Metal_Only>
0

> <s_lp_Force_Field>
OPLS_2005

> <r_lp_Energy>
63.4228

> <b_lp_Chiralities_Consistent>
1

> <s_lp_Variant>
AV-unprocessed.smi:625-2

> <Gold.Version>
5.8.1

> <Gold.Id.Protein>
6NUR|6NUR_protein|mol2

> <Gold.PLP.Fitness>
44.5590

> <Gold.PLP.PLP>
-42.2004

> <Gold.PLP.part.hbond>
-1.0000

> <Gold.PLP.part.metal>
0.0000

> <Gold.PLP.part.buried>
-4.7718

> <Gold.PLP.part.nonpolar>
-36.3317

> <Gold.PLP.part.repulsive>
0.8079

> <Gold.PLP.ligand.clash>
0.0000

> <Gold.PLP.ligand.torsion>
0.4813

> <Gold.PLP.Chemscore.Hbond>
0.8320

> <Gold.PLP.Chemscore.CHOScore>
0.2529

> <Gold.PLP.Chemscore.Metal>
0.0000

> <Gold.Chemscore.Hbonds>
donor molecule, donor type, donor heavy atom, donor atom, acceptor molecule, acceptor atom, score
      L1  H     2    28       P1 10747  0.80
      L1  C    24    49       P1  7948  0.28

> <Gold.PLP.Chemscore.Internal.Correction>
0.0665

> <Gold.Rescore>
     Score         DG    S(hbond)    S(metal)    S(lipo)     H(rot)  DE(clash)    DE(int)     intcor
     12.78     -15.60       0.93        0.00      96.48       1.67       0.09       2.73       ----

> <Gold.Chemscore.Fitness>
12.7842

> <Gold.Chemscore.DG>
-15.6016

> <Gold.Chemscore.ZeroCoef>
-5.4800

> <Gold.Chemscore.Hbond>
0.9314

> <Gold.Chemscore.Metal>
0.0000

> <Gold.Chemscore.Lipo>
96.4792

> <Gold.Chemscore.Internal_Hbond>
0.0000

> <Gold.Chemscore.DEClash>
0.0913

> <Gold.Chemscore.DEInternal>
2.7262

> <Gold.Chemscore.Rot>
1.6709

> <Gold.Chemscore.Internal.Correction>
   9.000000E+99

> <Gold.Chemscore.Hbonds>
donor molecule, donor type, donor heavy atom, donor atom, acceptor molecule, acceptor atom, score
      L1  H     2    28       P1 10747  0.80

> <Gold.Chemscore.Hbond.Weighted>
-3.1110

> <Gold.Chemscore.Metal.Weighted>
-0.0000

> <Gold.Chemscore.Lipo.Weighted>
-11.2881

> <Gold.Chemscore.Internal_Hbond.Weighted>
0.0000

> <Gold.Chemscore.DEClash.Weighted>
0.0913

> <Gold.Chemscore.DEInternal.Weighted>
2.7262

> <Gold.Chemscore.Rot.Weighted>
4.2774

> <Gold.Chemscore.Internal.Correction.Weighted>
   9.000000E+99

> <Gold.Protein.RotatedTorsions>
[ 6907 6896 6895 6894 ] final  -41.38 input  -60.11 | X-H torsion
[ 7974 7965 7964 7962 ] final -110.88 input  175.53 | X-H torsion
[ 8008 7997 7996 7995 ] final   64.43 input   59.86 | X-H torsion
[ 10167 10162 10161 10158 ] final   98.90 input  -65.29 | X-H torsion
[ 10718 10713 10712 10709 ] final  -55.56 input   66.30 | X-H torsion
[ 10763 10752 10751 10750 ] final  -34.37 input  -60.55 | X-H torsion
[ 11005 11000 10999 10996 ] final   25.73 input  -57.11 | X-H torsion

> <Gold.Protein.ActiveResidues>
 VAL166  LYS551  ARG553  GLY616  TRP617  ASP618  TYR619  PRO620  LYS621  CYS622 
 ASP623  PHE694  ASN695  SER759  ASP760  ASP761  ALA762  ILE779  LEU786  VAL792 
 PHE793  MET794  SER795  GLU796  ALA797  LYS798  CYS799  TRP800  GLU811  SER814 

> <Gold.Protein.RotatedAtoms>
  150.9674  134.9052  159.7766 H   0  0  0  0  0  0  0  0  0  0  0  0  # atno 6907 bound_to 6896
  152.5178  134.3588  159.9287 H   0  0  0  0  0  0  0  0  0  0  0  0  # atno 6908 bound_to 6896
  151.3598  133.3853  159.2723 H   0  0  0  0  0  0  0  0  0  0  0  0  # atno 6909 bound_to 6896
  145.1629  140.8887  143.3580 H   0  0  0  0  0  0  0  0  0  0  0  0  # atno 7974 bound_to 7965
  155.6459  140.3497  155.4731 H   0  0  0  0  0  0  0  0  0  0  0  0  # atno 8008 bound_to 7997
  155.9888  140.1189  157.0681 H   0  0  0  0  0  0  0  0  0  0  0  0  # atno 8009 bound_to 7997
  154.4213  140.1123  156.5523 H   0  0  0  0  0  0  0  0  0  0  0  0  # atno 8010 bound_to 7997
  139.7666  144.6936  151.0216 H   0  0  0  0  0  0  0  0  0  0  0  0  # atno 10167 bound_to 10162
  156.1359  130.4157  150.0187 H   0  0  0  0  0  0  0  0  0  0  0  0  # atno 10718 bound_to 10713
  153.8455  135.6853  153.4798 H   0  0  0  0  0  0  0  0  0  0  0  0  # atno 10763 bound_to 10752
  153.1428  135.4650  154.9519 H   0  0  0  0  0  0  0  0  0  0  0  0  # atno 10764 bound_to 10752
  154.7825  135.3274  154.7905 H   0  0  0  0  0  0  0  0  0  0  0  0  # atno 10765 bound_to 10752
  140.3446  134.2295  155.7686 H   0  0  0  0  0  0  0  0  0  0  0  0  # atno 11005 bound_to 11000
  145.0312  139.3339  143.6023 LP  0  0  0  0  0  0  0  0  0  0  0  0  # atno 17320 bound_to 7965
  146.3480  139.9650  142.8713 LP  0  0  0  0  0  0  0  0  0  0  0  0  # atno 17321 bound_to 7965
  140.7811  143.4636  151.0244 LP  0  0  0  0  0  0  0  0  0  0  0  0  # atno 17342 bound_to 10162
  139.8321  143.7677  152.3180 LP  0  0  0  0  0  0  0  0  0  0  0  0  # atno 17343 bound_to 10162
  156.8086  130.9316  151.3644 LP  0  0  0  0  0  0  0  0  0  0  0  0  # atno 17370 bound_to 10713
  157.6531  130.8902  149.9674 LP  0  0  0  0  0  0  0  0  0  0  0  0  # atno 17371 bound_to 10713
  141.2029  133.7926  157.0367 LP  0  0  0  0  0  0  0  0  0  0  0  0  # atno 17394 bound_to 11000
  140.0753  134.9679  157.1534 LP  0  0  0  0  0  0  0  0  0  0  0  0  # atno 17395 bound_to 11000

$$$$
