AV-unprocessed.smi:1601|AV-procd|sdf|6432|dock10
  -GOLD-   22720 7 73D 1   1.00000     0.00000
 Structure written by MMmdl.
 41 42  0  0  0  0  0  0  0  0  1 V2000
  148.7703  143.0470  158.3165 C   0  0  0  0  0  0  0  0  0  0  0  0
  149.8895  141.9768  158.2457 C   0  0  1  0  0  0  0  0  0  0  0  0
  150.3836  141.8703  156.7732 C   0  0  0  0  0  0  0  0  0  0  0  0
  149.2992  141.9145  155.7961 N   0  0  0  0  0  0  0  0  0  0  0  0
  149.1680  141.0791  154.7532 C   0  0  0  0  0  0  0  0  0  0  0  0
  149.9743  140.1803  154.5098 O   0  0  0  0  0  0  0  0  0  0  0  0
  147.9305  141.2892  153.8645 C   0  0  2  0  0  0  0  0  0  0  0  0
  147.1164  142.5395  154.2546 C   0  0  0  0  0  0  0  0  0  0  0  0
  147.1044  140.0875  153.8384 N   0  0  0  0  0  0  0  0  0  0  0  0
  146.8712  139.2407  152.7736 C   0  0  0  0  0  0  0  0  0  0  0  0
  146.0589  138.2370  153.2173 C   0  0  0  0  0  0  0  0  0  0  0  0
  145.8528  138.5505  154.5892 C   0  0  0  0  0  0  0  0  0  0  0  0
  146.4818  139.6537  154.9593 N   0  0  0  0  0  0  0  0  0  0  0  0
  150.9807  142.2205  159.2181 N   0  0  0  0  0  0  0  0  0  0  0  0
  151.9617  141.1286  159.2422 C   0  0  0  0  0  0  0  0  0  0  0  0
  153.1239  141.3856  160.2167 C   0  0  0  0  0  0  0  0  0  0  0  0
  153.7660  142.6078  159.8827 O   0  0  0  0  0  0  0  0  0  0  0  0
  152.8695  143.7088  159.9273 C   0  0  0  0  0  0  0  0  0  0  0  0
  151.7034  143.4702  158.9526 C   0  0  0  0  0  0  0  0  0  0  0  0
  147.9941  142.8859  157.5693 H   0  0  0  0  0  0  0  0  0  0  0  0
  149.1719  144.0485  158.1596 H   0  0  0  0  0  0  0  0  0  0  0  0
  148.2481  143.0380  159.2721 H   0  0  0  0  0  0  0  0  0  0  0  0
  149.4289  141.0209  158.5003 H   0  0  0  0  0  0  0  0  0  0  0  0
  151.0725  142.6866  156.5530 H   0  0  0  0  0  0  0  0  0  0  0  0
  150.9318  140.9481  156.5865 H   0  0  0  0  0  0  0  0  0  0  0  0
  148.5967  142.6278  155.9258 H   0  0  0  0  0  0  0  0  0  0  0  0
  148.2956  141.4499  152.8489 H   0  0  0  0  0  0  0  0  0  0  0  0
  147.7340  143.4375  154.2184 H   0  0  0  0  0  0  0  0  0  0  0  0
  146.7038  142.4624  155.2614 H   0  0  0  0  0  0  0  0  0  0  0  0
  146.2836  142.6901  153.5673 H   0  0  0  0  0  0  0  0  0  0  0  0
  147.2975  139.4212  151.7977 H   0  0  0  0  0  0  0  0  0  0  0  0
  145.6732  137.4033  152.6497 H   0  0  0  0  0  0  0  0  0  0  0  0
  145.2709  138.0118  155.3223 H   0  0  0  0  0  0  0  0  0  0  0  0
  151.4907  140.1965  159.5487 H   0  0  0  0  0  0  0  0  0  0  0  0
  152.3609  140.9682  158.2396 H   0  0  0  0  0  0  0  0  0  0  0  0
  152.7651  141.4218  161.2464 H   0  0  0  0  0  0  0  0  0  0  0  0
  153.8511  140.5754  160.1597 H   0  0  0  0  0  0  0  0  0  0  0  0
  152.5003  143.8472  160.9446 H   0  0  0  0  0  0  0  0  0  0  0  0
  153.4085  144.6168  159.6566 H   0  0  0  0  0  0  0  0  0  0  0  0
  152.0818  143.4685  157.9291 H   0  0  0  0  0  0  0  0  0  0  0  0
  151.0397  144.3271  159.0445 H   0  0  0  0  0  0  0  0  0  0  0  0
  1  2  1  0  0  0  0
  1 20  1  0  0  0  0
  1 21  1  0  0  0  0
  1 22  1  0  0  0  0
  2  3  1  0  0  0  0
  2 14  1  0  0  0  0
  2 23  1  0  0  0  0
  3  4  1  0  0  0  0
  3 24  1  0  0  0  0
  3 25  1  0  0  0  0
  4  5  1  0  0  0  0
  4 26  1  0  0  0  0
  5  6  2  0  0  0  0
  5  7  1  0  0  0  0
  7  8  1  0  0  0  0
  7  9  1  0  0  0  0
  7 27  1  0  0  0  0
  8 28  1  0  0  0  0
  8 29  1  0  0  0  0
  8 30  1  0  0  0  0
  9 13  1  0  0  0  0
  9 10  1  0  0  0  0
 10 11  2  0  0  0  0
 10 31  1  0  0  0  0
 11 12  1  0  0  0  0
 11 32  1  0  0  0  0
 12 13  2  0  0  0  0
 12 33  1  0  0  0  0
 14 19  1  0  0  0  0
 14 15  1  0  0  0  0
 15 16  1  0  0  0  0
 15 34  1  0  0  0  0
 15 35  1  0  0  0  0
 16 17  1  0  0  0  0
 16 36  1  0  0  0  0
 16 37  1  0  0  0  0
 17 18  1  0  0  0  0
 18 19  1  0  0  0  0
 18 38  1  0  0  0  0
 18 39  1  0  0  0  0
 19 40  1  0  0  0  0
 19 41  1  0  0  0  0
M  END
> <s_m_source_file>
AV-unprocessed.smi

> <i_m_source_file_index>
1601

> <i_lp_mmshare_version>
43012

> <i_f3d_flags>
0

> <s_epik_input>
W0NIMl0xW0NIMl1PW0NIMl1bQ0gyXU4xW0NASF0oW0NIM10pW0NIMl1bTkhdQyg9TylbQ0BIXShbQ0gzXSluMltjSF1bY0hdW2NIXW4y

> <s_epik_cmdline>
J2VwaWtfcHl0aG9uJywgJy1waCcsICc3LjAnLCAnLXRuJywgJzgnLCAnLW1hJywgJzIwMCcsICctbWV0YWxfYmluZGluZycsICctaW1hZScsICc8aW5maWxlLm1hZT4nLCAnLW9tYWUnLCAnPG91dGZpbGUubWFlPic=

> <r_lp_tautomer_probability>
1

> <r_epik_Ionization_Penalty>
0.203323

> <r_epik_Ionization_Penalty_Charging>
0

> <r_epik_Ionization_Penalty_Neutral>
0.203323

> <r_epik_State_Penalty>
0.193192

> <r_epik_Charging_Adjusted_Penalty>
0.193192

> <i_epik_Tot_Q>
0

> <i_epik_Tot_abs_Q>
0

> <r_epik_Metal_State_Penalty>
0.193187

> <b_epik_Metal_Only>
0

> <s_lp_Force_Field>
OPLS_2005

> <r_lp_Energy>
32.6682

> <b_lp_Chiralities_Consistent>
1

> <s_lp_Variant>
AV-unprocessed.smi:1601-2

> <Gold.Version>
5.8.1

> <Gold.Id.Protein>
6NUR|6NUR_protein|mol2

> <Gold.PLP.Fitness>
43.1567

> <Gold.PLP.PLP>
-36.9667

> <Gold.PLP.part.hbond>
-2.5617

> <Gold.PLP.part.metal>
0.0000

> <Gold.PLP.part.buried>
-3.6106

> <Gold.PLP.part.nonpolar>
-30.7768

> <Gold.PLP.part.repulsive>
0.3056

> <Gold.PLP.ligand.clash>
0.2025

> <Gold.PLP.ligand.torsion>
0.2923

> <Gold.PLP.Chemscore.Hbond>
1.2884

> <Gold.PLP.Chemscore.CHOScore>
0.9935

> <Gold.PLP.Chemscore.Metal>
0.0000

> <Gold.Chemscore.Hbonds>
donor molecule, donor type, donor heavy atom, donor atom, acceptor molecule, acceptor atom, score
      L1  H     4    26       P1  8028  0.41
      P1  H  7989  7998       L1     6  0.93
      L1  C    10    31       P1  7957  1.00

> <Gold.PLP.Chemscore.Internal.Correction>
0.1316

> <Gold.Rescore>
     Score         DG    S(hbond)    S(metal)    S(lipo)     H(rot)  DE(clash)    DE(int)     intcor
     14.18     -14.74       1.17        0.00      84.74       1.79       0.03       0.52       ----

> <Gold.Chemscore.Fitness>
14.1844

> <Gold.Chemscore.DG>
-14.7361

> <Gold.Chemscore.ZeroCoef>
-5.4800

> <Gold.Chemscore.Hbond>
1.1726

> <Gold.Chemscore.Metal>
0.0000

> <Gold.Chemscore.Lipo>
84.7430

> <Gold.Chemscore.Internal_Hbond>
0.0000

> <Gold.Chemscore.DEClash>
0.0323

> <Gold.Chemscore.DEInternal>
0.5195

> <Gold.Chemscore.Rot>
1.7872

> <Gold.Chemscore.Internal.Correction>
   9.000000E+99

> <Gold.Chemscore.Hbonds>
donor molecule, donor type, donor heavy atom, donor atom, acceptor molecule, acceptor atom, score
      L1  H     4    26       P1  8028  0.40
      P1  H  7989  7998       L1     6  0.70

> <Gold.Chemscore.Hbond.Weighted>
-3.9164

> <Gold.Chemscore.Metal.Weighted>
-0.0000

> <Gold.Chemscore.Lipo.Weighted>
-9.9149

> <Gold.Chemscore.Internal_Hbond.Weighted>
0.0000

> <Gold.Chemscore.DEClash.Weighted>
0.0323

> <Gold.Chemscore.DEInternal.Weighted>
0.5195

> <Gold.Chemscore.Rot.Weighted>
4.5752

> <Gold.Chemscore.Internal.Correction.Weighted>
   9.000000E+99

> <Gold.Protein.RotatedTorsions>
[ 6907 6896 6895 6894 ] final  -78.82 input  -60.11 | X-H torsion
[ 7974 7965 7964 7962 ] final   60.00 input  175.53 | X-H torsion
[ 8008 7997 7996 7995 ] final  -13.94 input   59.86 | X-H torsion
[ 10167 10162 10161 10158 ] final   46.74 input  -65.29 | X-H torsion
[ 10718 10713 10712 10709 ] final   97.48 input   66.30 | X-H torsion
[ 10763 10752 10751 10750 ] final -133.34 input  -60.55 | X-H torsion
[ 11005 11000 10999 10996 ] final  -24.83 input  -57.11 | X-H torsion

> <Gold.Protein.ActiveResidues>
 VAL166  LYS551  ARG553  GLY616  TRP617  ASP618  TYR619  PRO620  LYS621  CYS622 
 ASP623  PHE694  ASN695  SER759  ASP760  ASP761  ALA762  ILE779  LEU786  VAL792 
 PHE793  MET794  SER795  GLU796  ALA797  LYS798  CYS799  TRP800  GLU811  SER814 

> <Gold.Protein.RotatedAtoms>
  150.6964  134.4215  159.5206 H   0  0  0  0  0  0  0  0  0  0  0  0  # atno 6907 bound_to 6896
  152.1957  134.8630  160.0522 H   0  0  0  0  0  0  0  0  0  0  0  0  # atno 6908 bound_to 6896
  151.9569  133.3648  159.4057 H   0  0  0  0  0  0  0  0  0  0  0  0  # atno 6909 bound_to 6896
  145.9009  139.3580  143.0593 H   0  0  0  0  0  0  0  0  0  0  0  0  # atno 7974 bound_to 7965
  154.5251  140.2236  155.8905 H   0  0  0  0  0  0  0  0  0  0  0  0  # atno 8008 bound_to 7997
  156.1704  140.3123  155.8928 H   0  0  0  0  0  0  0  0  0  0  0  0  # atno 8009 bound_to 7997
  155.3570  140.0459  157.3037 H   0  0  0  0  0  0  0  0  0  0  0  0  # atno 8010 bound_to 7997
  140.3108  144.2822  150.6200 H   0  0  0  0  0  0  0  0  0  0  0  0  # atno 10167 bound_to 10162
  157.6912  131.0611  150.4650 H   0  0  0  0  0  0  0  0  0  0  0  0  # atno 10718 bound_to 10713
  154.8733  135.3769  154.4557 H   0  0  0  0  0  0  0  0  0  0  0  0  # atno 10763 bound_to 10752
  153.5229  135.7028  153.5727 H   0  0  0  0  0  0  0  0  0  0  0  0  # atno 10764 bound_to 10752
  153.3966  135.3959  155.1925 H   0  0  0  0  0  0  0  0  0  0  0  0  # atno 10765 bound_to 10752
  140.8881  133.7607  156.0386 H   0  0  0  0  0  0  0  0  0  0  0  0  # atno 11005 bound_to 11000
  145.8792  140.9373  143.0610 LP  0  0  0  0  0  0  0  0  0  0  0  0  # atno 17320 bound_to 7965
  144.6736  140.0757  143.7471 LP  0  0  0  0  0  0  0  0  0  0  0  0  # atno 17321 bound_to 7965
  140.5570  143.2197  151.7831 LP  0  0  0  0  0  0  0  0  0  0  0  0  # atno 17342 bound_to 10162
  139.4894  144.4401  151.9774 LP  0  0  0  0  0  0  0  0  0  0  0  0  # atno 17343 bound_to 10162
  156.4992  130.4113  149.6363 LP  0  0  0  0  0  0  0  0  0  0  0  0  # atno 17370 bound_to 10713
  156.3344  130.7349  151.2284 LP  0  0  0  0  0  0  0  0  0  0  0  0  # atno 17371 bound_to 10713
  140.8380  134.3100  157.5324 LP  0  0  0  0  0  0  0  0  0  0  0  0  # atno 17394 bound_to 11000
  139.8726  134.9400  156.3757 LP  0  0  0  0  0  0  0  0  0  0  0  0  # atno 17395 bound_to 11000

$$$$
