AV-unprocessed.smi:876|AV-procd|sdf|4024|dock3
  -GOLD-   22720 1513D 1   1.00000     0.00000
 Structure written by MMmdl.
 40 41  0  0  0  0  0  0  0  0  1 V2000
  153.3445  142.4250  162.4062 C   0  0  0  0  0  0  0  0  0  0  0  0
  153.4268  141.7495  161.1169 N   0  0  0  0  0  0  0  0  0  0  0  0
  154.5285  140.8315  160.8459 C   0  0  0  0  0  0  0  0  0  0  0  0
  152.4689  142.0154  160.1118 C   0  0  0  0  0  0  0  0  0  0  0  0
  151.9038  143.3050  159.9505 C   0  0  0  0  0  0  0  0  0  0  0  0
  150.9540  143.5217  158.9336 C   0  0  0  0  0  0  0  0  0  0  0  0
  150.5923  142.4451  158.0915 C   0  0  0  0  0  0  0  0  0  0  0  0
  149.6364  142.5271  157.0426 N   0  0  0  0  0  0  0  0  0  0  0  0
  148.7985  141.5779  156.5915 C   0  0  0  0  0  0  0  0  0  0  0  0
  148.6981  140.4382  157.0454 O   0  0  0  0  0  0  0  0  0  0  0  0
  148.0545  142.0341  155.5743 N   0  0  0  0  0  0  0  0  0  0  0  0
  147.0415  141.2571  154.8690 C   0  0  1  0  0  0  0  0  0  0  0  0
  146.6490  141.9384  153.5872 C   0  0  0  0  0  0  0  0  0  0  0  0
  146.8392  141.1699  152.5173 C   0  0  0  0  0  0  0  0  0  0  0  0
  147.4210  139.8218  152.8594 C   0  0  2  0  0  0  0  0  0  0  0  0
  146.5471  138.6548  152.3681 C   0  0  0  0  0  0  0  0  0  0  0  0
  146.5350  138.6009  150.9568 O   0  0  0  0  0  0  0  0  0  0  0  0
  147.5596  139.8707  154.4026 C   0  0  0  0  0  0  0  0  0  0  0  0
  151.1967  141.1968  158.3363 C   0  0  0  0  0  0  0  0  0  0  0  0
  152.1072  140.9850  159.3089 N   0  0  0  0  0  0  0  0  0  0  0  0
  146.1497  141.1501  155.4889 H   0  0  0  0  0  0  0  0  0  0  0  0
  148.4119  139.7547  152.4077 H   0  0  0  0  0  0  0  0  0  0  0  0
  152.4179  142.1628  162.9175 H   0  0  0  0  0  0  0  0  0  0  0  0
  153.3790  143.5070  162.2754 H   0  0  0  0  0  0  0  0  0  0  0  0
  154.1735  142.1433  163.0557 H   0  0  0  0  0  0  0  0  0  0  0  0
  155.1435  141.2039  160.0259 H   0  0  0  0  0  0  0  0  0  0  0  0
  154.1490  139.8459  160.5747 H   0  0  0  0  0  0  0  0  0  0  0  0
  155.1710  140.7116  161.7181 H   0  0  0  0  0  0  0  0  0  0  0  0
  152.1747  144.1321  160.5889 H   0  0  0  0  0  0  0  0  0  0  0  0
  150.5170  144.5027  158.8335 H   0  0  0  0  0  0  0  0  0  0  0  0
  149.5460  143.4364  156.6134 H   0  0  0  0  0  0  0  0  0  0  0  0
  148.1972  142.9846  155.2655 H   0  0  0  0  0  0  0  0  0  0  0  0
  146.2456  142.9402  153.5677 H   0  0  0  0  0  0  0  0  0  0  0  0
  146.6223  141.4597  151.4994 H   0  0  0  0  0  0  0  0  0  0  0  0
  146.9338  137.7077  152.7457 H   0  0  0  0  0  0  0  0  0  0  0  0
  145.5241  138.7549  152.7328 H   0  0  0  0  0  0  0  0  0  0  0  0
  145.6983  138.9173  150.6514 H   0  0  0  0  0  0  0  0  0  0  0  0
  148.5999  139.7097  154.6892 H   0  0  0  0  0  0  0  0  0  0  0  0
  146.9814  139.0782  154.8796 H   0  0  0  0  0  0  0  0  0  0  0  0
  150.9463  140.3379  157.7307 H   0  0  0  0  0  0  0  0  0  0  0  0
  1  2  1  0  0  0  0
  1 23  1  0  0  0  0
  1 24  1  0  0  0  0
  1 25  1  0  0  0  0
  2  3  1  0  0  0  0
  2  4  1  0  0  0  0
  3 26  1  0  0  0  0
  3 27  1  0  0  0  0
  3 28  1  0  0  0  0
  4 20  1  0  0  0  0
  4  5  2  0  0  0  0
  5  6  1  0  0  0  0
  5 29  1  0  0  0  0
  6  7  2  0  0  0  0
  6 30  1  0  0  0  0
  7  8  1  0  0  0  0
  7 19  1  0  0  0  0
  8  9  1  0  0  0  0
  8 31  1  0  0  0  0
  9 10  2  0  0  0  0
  9 11  1  0  0  0  0
 11 12  1  0  0  0  0
 11 32  1  0  0  0  0
 12 21  1  0  0  0  0
 12 18  1  0  0  0  0
 12 13  1  0  0  0  0
 13 14  2  0  0  0  0
 13 33  1  0  0  0  0
 14 15  1  0  0  0  0
 14 34  1  0  0  0  0
 15 22  1  0  0  0  0
 15 16  1  0  0  0  0
 15 18  1  0  0  0  0
 16 17  1  0  0  0  0
 16 35  1  0  0  0  0
 16 36  1  0  0  0  0
 17 37  1  0  0  0  0
 18 38  1  0  0  0  0
 18 39  1  0  0  0  0
 19 20  2  0  0  0  0
 19 40  1  0  0  0  0
M  END
> <s_m_source_file>
AV-unprocessed.smi

> <i_m_source_file_index>
876

> <i_lp_mmshare_version>
43012

> <i_f3d_flags>
0

> <s_epik_input>
W0NIM11OKFtDSDNdKWMxW2NIXVtjSF1jKFtjSF1uMSlbTkhdQyg9TylbTkhdW0NAQEhdMltDSF09W0NIXVtDQEBIXShbQ0gyXTIpW0NIMl1bT0hd

> <s_epik_cmdline>
J2VwaWtfcHl0aG9uJywgJy1waCcsICc3LjAnLCAnLXRuJywgJzgnLCAnLW1hJywgJzIwMCcsICctbWV0YWxfYmluZGluZycsICctaW1hZScsICc8aW5maWxlLm1hZT4nLCAnLW9tYWUnLCAnPG91dGZpbGUubWFlPic=

> <r_lp_tautomer_probability>
1

> <r_epik_Ionization_Penalty>
0.617998

> <r_epik_Ionization_Penalty_Charging>
0

> <r_epik_Ionization_Penalty_Neutral>
0.617998

> <r_epik_State_Penalty>
0.632637

> <r_epik_Charging_Adjusted_Penalty>
0.632637

> <i_epik_Tot_Q>
0

> <i_epik_Tot_abs_Q>
0

> <r_epik_Metal_State_Penalty>
0.305596

> <b_epik_Metal_Only>
0

> <s_lp_Force_Field>
OPLS_2005

> <r_lp_Energy>
20.6708

> <b_lp_Chiralities_Consistent>
1

> <s_lp_Variant>
AV-unprocessed.smi:876-6

> <Gold.Version>
5.8.1

> <Gold.Id.Protein>
6NUR|6NUR_protein|mol2

> <Gold.PLP.Fitness>
49.0769

> <Gold.PLP.PLP>
-39.0640

> <Gold.PLP.part.hbond>
-4.1599

> <Gold.PLP.part.metal>
0.0000

> <Gold.PLP.part.buried>
-3.5589

> <Gold.PLP.part.nonpolar>
-32.6086

> <Gold.PLP.part.repulsive>
0.1081

> <Gold.PLP.ligand.clash>
0.0000

> <Gold.PLP.ligand.torsion>
0.8673

> <Gold.PLP.Chemscore.Hbond>
3.9110

> <Gold.PLP.Chemscore.CHOScore>
0.0000

> <Gold.PLP.Chemscore.Metal>
0.0000

> <Gold.Chemscore.Hbonds>
donor molecule, donor type, donor heavy atom, donor atom, acceptor molecule, acceptor atom, score
      L1  H     8    31       P1  8028  1.00
      L1  H    11    32       P1  8028  0.98
      L1  H    17    37       P1 10171  1.00
      P1  H  7954  7966       L1    17  0.86

> <Gold.PLP.Chemscore.Internal.Correction>
0.0144

> <Gold.Rescore>
     Score         DG    S(hbond)    S(metal)    S(lipo)     H(rot)  DE(clash)    DE(int)     intcor
     17.30     -24.49       3.72        0.00      95.65       1.80       3.88       3.32       ----

> <Gold.Chemscore.Fitness>
17.2966

> <Gold.Chemscore.DG>
-24.4947

> <Gold.Chemscore.ZeroCoef>
-5.4800

> <Gold.Chemscore.Hbond>
3.7205

> <Gold.Chemscore.Metal>
0.0000

> <Gold.Chemscore.Lipo>
95.6488

> <Gold.Chemscore.Internal_Hbond>
0.0000

> <Gold.Chemscore.DEClash>
3.8752

> <Gold.Chemscore.DEInternal>
3.3228

> <Gold.Chemscore.Rot>
1.7980

> <Gold.Chemscore.Internal.Correction>
   9.000000E+99

> <Gold.Chemscore.Hbonds>
donor molecule, donor type, donor heavy atom, donor atom, acceptor molecule, acceptor atom, score
      L1  H     8    31       P1  8028  0.99
      L1  H    11    32       P1  8028  0.90
      L1  H    17    37       P1 10171  0.92
      P1  H  7954  7966       L1    17  0.79

> <Gold.Chemscore.Hbond.Weighted>
-12.4266

> <Gold.Chemscore.Metal.Weighted>
-0.0000

> <Gold.Chemscore.Lipo.Weighted>
-11.1909

> <Gold.Chemscore.Internal_Hbond.Weighted>
0.0000

> <Gold.Chemscore.DEClash.Weighted>
3.8752

> <Gold.Chemscore.DEInternal.Weighted>
3.3228

> <Gold.Chemscore.Rot.Weighted>
4.6029

> <Gold.Chemscore.Internal.Correction.Weighted>
   9.000000E+99

> <Gold.Protein.RotatedTorsions>
[ 6907 6896 6895 6894 ] final -169.27 input  -60.11 | X-H torsion
[ 7974 7965 7964 7962 ] final   35.00 input  175.53 | X-H torsion
[ 8008 7997 7996 7995 ] final -178.75 input   59.86 | X-H torsion
[ 10167 10162 10161 10158 ] final  100.20 input  -65.29 | X-H torsion
[ 10718 10713 10712 10709 ] final  104.34 input   66.30 | X-H torsion
[ 10763 10752 10751 10750 ] final -176.51 input  -60.55 | X-H torsion
[ 11005 11000 10999 10996 ] final   48.62 input  -57.11 | X-H torsion

> <Gold.Protein.ActiveResidues>
 VAL166  LYS551  ARG553  GLY616  TRP617  ASP618  TYR619  PRO620  LYS621  CYS622 
 ASP623  PHE694  ASN695  SER759  ASP760  ASP761  ALA762  ILE779  LEU786  VAL792 
 PHE793  MET794  SER795  GLU796  ALA797  LYS798  CYS799  TRP800  GLU811  SER814 

> <Gold.Protein.RotatedAtoms>
  151.4890  133.3529  159.2850 H   0  0  0  0  0  0  0  0  0  0  0  0  # atno 6907 bound_to 6896
  150.8847  134.8245  159.7261 H   0  0  0  0  0  0  0  0  0  0  0  0  # atno 6908 bound_to 6896
  152.4785  134.4792  159.9712 H   0  0  0  0  0  0  0  0  0  0  0  0  # atno 6909 bound_to 6896
  146.1314  139.6198  142.9224 H   0  0  0  0  0  0  0  0  0  0  0  0  # atno 7974 bound_to 7965
  156.0225  140.1264  157.0343 H   0  0  0  0  0  0  0  0  0  0  0  0  # atno 8008 bound_to 7997
  154.4317  140.1066  156.6053 H   0  0  0  0  0  0  0  0  0  0  0  0  # atno 8009 bound_to 7997
  155.5924  140.3469  155.4572 H   0  0  0  0  0  0  0  0  0  0  0  0  # atno 8010 bound_to 7997
  139.7548  144.6973  151.0378 H   0  0  0  0  0  0  0  0  0  0  0  0  # atno 10167 bound_to 10162
  157.6743  131.0801  150.5692 H   0  0  0  0  0  0  0  0  0  0  0  0  # atno 10718 bound_to 10713
  154.5714  135.2828  155.0823 H   0  0  0  0  0  0  0  0  0  0  0  0  # atno 10763 bound_to 10752
  154.2194  135.6394  153.5144 H   0  0  0  0  0  0  0  0  0  0  0  0  # atno 10764 bound_to 10752
  153.0059  135.5511  154.6339 H   0  0  0  0  0  0  0  0  0  0  0  0  # atno 10765 bound_to 10752
  140.1175  134.4873  155.8625 H   0  0  0  0  0  0  0  0  0  0  0  0  # atno 11005 bound_to 11000
  145.5252  141.0430  143.2413 LP  0  0  0  0  0  0  0  0  0  0  0  0  # atno 17320 bound_to 7965
  144.7694  139.6769  143.7201 LP  0  0  0  0  0  0  0  0  0  0  0  0  # atno 17321 bound_to 7965
  140.7801  143.4766  151.0074 LP  0  0  0  0  0  0  0  0  0  0  0  0  # atno 17342 bound_to 10162
  139.8453  143.7510  152.3179 LP  0  0  0  0  0  0  0  0  0  0  0  0  # atno 17343 bound_to 10162
  156.5993  130.4350  149.5904 LP  0  0  0  0  0  0  0  0  0  0  0  0  # atno 17370 bound_to 10713
  156.2519  130.6912  151.1652 LP  0  0  0  0  0  0  0  0  0  0  0  0  # atno 17371 bound_to 10713
  141.2144  133.6748  156.6824 LP  0  0  0  0  0  0  0  0  0  0  0  0  # atno 17394 bound_to 11000
  140.3009  134.8164  157.4097 LP  0  0  0  0  0  0  0  0  0  0  0  0  # atno 17395 bound_to 11000

$$$$
