AV-unprocessed.smi:285|AV-procd|sdf|2168|dock10
  -GOLD-   2262021533D 1   1.00000     0.00000
 Structure written by MMmdl.
 31 33  0  0  0  0  0  0  0  0  1 V2000
  154.3378  141.2606  161.4950 N   0  0  0  0  0  0  0  0  0  0  0  0
  153.3763  141.7610  160.7066 C   0  0  0  0  0  0  0  0  0  0  0  0
  153.1220  143.0891  160.7666 N   0  0  0  0  0  0  0  0  0  0  0  0
  152.1673  143.6139  159.9913 C   0  0  0  0  0  0  0  0  0  0  0  0
  151.3733  142.9986  159.1108 N   0  0  0  0  0  0  0  0  0  0  0  0
  151.6316  141.6586  159.0498 C   0  0  0  0  0  0  0  0  0  0  0  0
  152.6143  140.9646  159.8149 C   0  0  0  0  0  0  0  0  0  0  0  0
  152.5994  139.6111  159.5011 N   0  0  0  0  0  0  0  0  0  0  0  0
  151.6575  139.5348  158.6027 C   0  0  0  0  0  0  0  0  0  0  0  0
  151.2000  137.8573  157.8255 Br  0  0  0  0  0  0  0  0  0  0  0  0
  151.0171  140.7050  158.2627 N   0  0  0  0  0  0  0  0  0  0  0  0
  149.9172  140.9287  157.2768 C   0  0  1  0  0  0  0  0  0  0  0  0
  150.3477  141.8822  156.1672 C   0  0  0  0  0  0  0  0  0  0  0  0
  149.5865  141.3419  154.9612 C   0  0  2  0  0  0  0  0  0  0  0  0
  148.6085  142.2694  154.5339 O   0  0  0  0  0  0  0  0  0  0  0  0
  148.9280  140.0370  155.4546 C   0  0  1  0  0  0  0  0  0  0  0  0
  149.0606  138.8715  154.4626 C   0  0  0  0  0  0  0  0  0  0  0  0
  148.3353  139.1512  153.2841 O   0  0  0  0  0  0  0  0  0  0  0  0
  149.6291  139.7269  156.6518 O   0  0  0  0  0  0  0  0  0  0  0  0
  154.5467  140.2727  161.4695 H   0  0  0  0  0  0  0  0  0  0  0  0
  154.8530  141.8719  162.1119 H   0  0  0  0  0  0  0  0  0  0  0  0
  152.0184  144.6790  160.0900 H   0  0  0  0  0  0  0  0  0  0  0  0
  149.0551  141.2802  157.8441 H   0  0  0  0  0  0  0  0  0  0  0  0
  150.1095  142.9128  156.4341 H   0  0  0  0  0  0  0  0  0  0  0  0
  151.4222  141.8028  155.9980 H   0  0  0  0  0  0  0  0  0  0  0  0
  150.2841  141.1537  154.1440 H   0  0  0  0  0  0  0  0  0  0  0  0
  148.6615  143.0382  155.0809 H   0  0  0  0  0  0  0  0  0  0  0  0
  147.8803  140.2202  155.7037 H   0  0  0  0  0  0  0  0  0  0  0  0
  150.1045  138.7390  154.1771 H   0  0  0  0  0  0  0  0  0  0  0  0
  148.7229  137.9338  154.9055 H   0  0  0  0  0  0  0  0  0  0  0  0
  148.9484  139.2730  152.5755 H   0  0  0  0  0  0  0  0  0  0  0  0
  1  2  1  0  0  0  0
  1 20  1  0  0  0  0
  1 21  1  0  0  0  0
  2  7  1  0  0  0  0
  2  3  2  0  0  0  0
  3  4  1  0  0  0  0
  4  5  2  0  0  0  0
  4 22  1  0  0  0  0
  5  6  1  0  0  0  0
  6 11  1  0  0  0  0
  6  7  2  0  0  0  0
  7  8  1  0  0  0  0
  8  9  2  0  0  0  0
  9 10  1  0  0  0  0
  9 11  1  0  0  0  0
 11 12  1  0  0  0  0
 12 19  1  0  0  0  0
 12 13  1  0  0  0  0
 12 23  1  0  0  0  0
 13 14  1  0  0  0  0
 13 24  1  0  0  0  0
 13 25  1  0  0  0  0
 14 15  1  0  0  0  0
 14 16  1  0  0  0  0
 14 26  1  0  0  0  0
 15 27  1  0  0  0  0
 16 17  1  0  0  0  0
 16 19  1  0  0  0  0
 16 28  1  0  0  0  0
 17 18  1  0  0  0  0
 17 29  1  0  0  0  0
 17 30  1  0  0  0  0
 18 31  1  0  0  0  0
M  END
> <s_m_source_file>
AV-unprocessed.smi

> <i_m_source_file_index>
285

> <i_lp_mmshare_version>
43012

> <i_f3d_flags>
0

> <s_epik_input>
bjFbY0hdbmMoW05IMl0pYyhjMTIpbmMoQnIpbjJbQ0BASF0zW0NIMl1bQ0BASF0oW09IXSlbQ0BIXShPMylbQ0gyXVtPSF0=

> <s_epik_cmdline>
J2VwaWtfcHl0aG9uJywgJy1waCcsICc3LjAnLCAnLXRuJywgJzgnLCAnLW1hJywgJzIwMCcsICctbWV0YWxfYmluZGluZycsICctaW1hZScsICc8aW5maWxlLm1hZT4nLCAnLW9tYWUnLCAnPG91dGZpbGUubWFlPic=

> <r_lp_tautomer_probability>
1

> <r_epik_Ionization_Penalty>
0.000103242

> <r_epik_Ionization_Penalty_Charging>
0

> <r_epik_Ionization_Penalty_Neutral>
0.000103242

> <r_epik_State_Penalty>
-0

> <r_epik_Charging_Adjusted_Penalty>
0

> <i_epik_Tot_Q>
0

> <i_epik_Tot_abs_Q>
0

> <r_epik_Metal_State_Penalty>
-0

> <b_epik_Metal_Only>
0

> <s_epik_Chemistry_Notes>
This compound contains an acetal/aminal-like group ( X-CH(R)-Y where X, Y are N, S, or O) that may be acid/base labile, releasing an aldehyde.

> <s_lp_Force_Field>
OPLS_2005

> <r_lp_Energy>
33.2332

> <b_lp_Chiralities_Consistent>
1

> <s_lp_Variant>
AV-unprocessed.smi:285-4

> <Gold.Version>
5.8.1

> <Gold.Id.Protein>
6NUR|6NUR_protein|mol2

> <Gold.PLP.Fitness>
38.8657

> <Gold.PLP.PLP>
-32.8834

> <Gold.PLP.part.hbond>
-4.4909

> <Gold.PLP.part.metal>
0.0000

> <Gold.PLP.part.buried>
-5.1728

> <Gold.PLP.part.nonpolar>
-23.3184

> <Gold.PLP.part.repulsive>
0.0103

> <Gold.PLP.ligand.clash>
0.0000

> <Gold.PLP.ligand.torsion>
0.0181

> <Gold.PLP.Chemscore.Hbond>
2.0000

> <Gold.PLP.Chemscore.CHOScore>
0.0000

> <Gold.PLP.Chemscore.Metal>
0.0000

> <Gold.Chemscore.Hbonds>
donor molecule, donor type, donor heavy atom, donor atom, acceptor molecule, acceptor atom, score
      L1  H    15    27       P1  8028  1.00
      L1  H    18    31       P1  7957  1.00

> <Gold.PLP.Chemscore.Internal.Correction>
0.0185

> <Gold.Rescore>
     Score         DG    S(hbond)    S(metal)    S(lipo)     H(rot)  DE(clash)    DE(int)     intcor
      6.91      -8.44       1.96        0.00      36.17       3.06       0.00       1.53       ----

> <Gold.Chemscore.Fitness>
6.9068

> <Gold.Chemscore.DG>
-8.4383

> <Gold.Chemscore.ZeroCoef>
-5.4800

> <Gold.Chemscore.Hbond>
1.9646

> <Gold.Chemscore.Metal>
0.0000

> <Gold.Chemscore.Lipo>
36.1707

> <Gold.Chemscore.Internal_Hbond>
0.0000

> <Gold.Chemscore.DEClash>
0.0038

> <Gold.Chemscore.DEInternal>
1.5277

> <Gold.Chemscore.Rot>
3.0607

> <Gold.Chemscore.Internal.Correction>
   9.000000E+99

> <Gold.Chemscore.Hbonds>
donor molecule, donor type, donor heavy atom, donor atom, acceptor molecule, acceptor atom, score
      L1  H    15    27       P1  8028  1.00
      L1  H    18    31       P1  7957  0.99

> <Gold.Chemscore.Hbond.Weighted>
-6.5617

> <Gold.Chemscore.Metal.Weighted>
-0.0000

> <Gold.Chemscore.Lipo.Weighted>
-4.2320

> <Gold.Chemscore.Internal_Hbond.Weighted>
0.0000

> <Gold.Chemscore.DEClash.Weighted>
0.0038

> <Gold.Chemscore.DEInternal.Weighted>
1.5277

> <Gold.Chemscore.Rot.Weighted>
7.8354

> <Gold.Chemscore.Internal.Correction.Weighted>
   9.000000E+99

> <Gold.Protein.RotatedTorsions>
[ 6907 6896 6895 6894 ] final  148.44 input  -60.11 | X-H torsion
[ 7974 7965 7964 7962 ] final  -41.86 input  175.53 | X-H torsion
[ 8008 7997 7996 7995 ] final -140.48 input   59.86 | X-H torsion
[ 10167 10162 10161 10158 ] final    5.10 input  -65.29 | X-H torsion
[ 10718 10713 10712 10709 ] final  -33.10 input   66.30 | X-H torsion
[ 10763 10752 10751 10750 ] final -179.29 input  -60.55 | X-H torsion
[ 11005 11000 10999 10996 ] final   -0.39 input  -57.11 | X-H torsion

> <Gold.Protein.ActiveResidues>
 VAL166  LYS551  ARG553  GLY616  TRP617  ASP618  TYR619  PRO620  LYS621  CYS622 
 ASP623  PHE694  ASN695  SER759  ASP760  ASP761  ALA762  ILE779  LEU786  VAL792 
 PHE793  MET794  SER795  GLU796  ALA797  LYS798  CYS799  TRP800  GLU811  SER814 

> <Gold.Protein.RotatedAtoms>
  152.1414  133.4466  159.4768 H   0  0  0  0  0  0  0  0  0  0  0  0  # atno 6907 bound_to 6896
  150.6886  134.2300  159.4440 H   0  0  0  0  0  0  0  0  0  0  0  0  # atno 6908 bound_to 6896
  152.0191  134.9832  160.0621 H   0  0  0  0  0  0  0  0  0  0  0  0  # atno 6909 bound_to 6896
  146.0171  140.6895  142.9196 H   0  0  0  0  0  0  0  0  0  0  0  0  # atno 7974 bound_to 7965
  155.4620  140.0546  157.2990 H   0  0  0  0  0  0  0  0  0  0  0  0  # atno 8008 bound_to 7997
  154.4733  140.2050  155.9894 H   0  0  0  0  0  0  0  0  0  0  0  0  # atno 8009 bound_to 7997
  156.1092  140.3207  155.8053 H   0  0  0  0  0  0  0  0  0  0  0  0  # atno 8010 bound_to 7997
  140.6500  143.7568  150.7560 H   0  0  0  0  0  0  0  0  0  0  0  0  # atno 10167 bound_to 10162
  156.3668  130.4333  149.7578 H   0  0  0  0  0  0  0  0  0  0  0  0  # atno 10718 bound_to 10713
  154.5369  135.2803  155.1130 H   0  0  0  0  0  0  0  0  0  0  0  0  # atno 10763 bound_to 10752
  154.2628  135.6318  153.5284 H   0  0  0  0  0  0  0  0  0  0  0  0  # atno 10764 bound_to 10752
  152.9969  135.5609  154.5898 H   0  0  0  0  0  0  0  0  0  0  0  0  # atno 10765 bound_to 10752
  140.6357  133.9535  155.8298 H   0  0  0  0  0  0  0  0  0  0  0  0  # atno 11005 bound_to 11000
  144.6975  140.3500  143.7183 LP  0  0  0  0  0  0  0  0  0  0  0  0  # atno 17320 bound_to 7965
  145.7252  139.1721  143.2462 LP  0  0  0  0  0  0  0  0  0  0  0  0  # atno 17321 bound_to 7965
  140.1217  143.4606  152.2309 LP  0  0  0  0  0  0  0  0  0  0  0  0  # atno 17342 bound_to 10162
  139.5714  144.7464  151.3881 LP  0  0  0  0  0  0  0  0  0  0  0  0  # atno 17343 bound_to 10162
  156.4720  130.8001  151.3019 LP  0  0  0  0  0  0  0  0  0  0  0  0  # atno 17370 bound_to 10713
  157.7479  131.0033  150.3031 LP  0  0  0  0  0  0  0  0  0  0  0  0  # atno 17371 bound_to 10713
  141.0643  134.0300  157.3615 LP  0  0  0  0  0  0  0  0  0  0  0  0  # atno 17394 bound_to 11000
  139.9099  135.0188  156.7647 LP  0  0  0  0  0  0  0  0  0  0  0  0  # atno 17395 bound_to 11000

$$$$
