AV-unprocessed.smi:2568|AV-procd|sdf|10091|dock6
  -GOLD-   2272014113D 1   1.00000     0.00000
 Structure written by MMmdl.
 24 25  0  0  0  0  0  0  0  0  1 V2000
  155.0554  139.6668  161.5751 C   0  0  0  0  0  0  0  0  0  0  0  0
  154.1866  140.4537  160.6535 C   0  0  0  0  0  0  0  0  0  0  0  0
  153.3281  139.8698  159.8160 N   0  0  0  0  0  0  0  0  0  0  0  0
  152.6734  140.8188  159.1140 N   0  0  0  0  0  0  0  0  0  0  0  0
  153.2189  141.9403  159.5846 C   0  0  0  0  0  0  0  0  0  0  0  0
  152.7531  143.2799  159.1035 C   0  0  1  0  0  0  0  0  0  0  0  0
  151.6070  143.1626  158.0793 C   0  0  0  0  0  0  0  0  0  0  0  0
  151.1169  144.4908  157.7128 N   0  0  0  0  0  0  0  0  0  0  0  0
  150.7232  145.2537  158.8965 C   0  0  0  0  0  0  0  0  0  0  0  0
  151.8848  145.3160  159.9054 C   0  0  0  0  0  0  0  0  0  0  0  0
  152.2929  143.9959  160.2475 O   0  0  0  0  0  0  0  0  0  0  0  0
  154.1610  141.7787  160.5653 N   0  0  0  0  0  0  0  0  0  0  0  0
  153.1582  138.8810  159.6994 H   0  0  0  0  0  0  0  0  0  0  0  0
  155.7309  140.3274  162.1198 H   0  0  0  0  0  0  0  0  0  0  0  0
  155.6509  138.9502  161.0090 H   0  0  0  0  0  0  0  0  0  0  0  0
  154.4424  139.1244  162.2951 H   0  0  0  0  0  0  0  0  0  0  0  0
  153.6012  143.8085  158.6630 H   0  0  0  0  0  0  0  0  0  0  0  0
  151.9489  142.6316  157.1907 H   0  0  0  0  0  0  0  0  0  0  0  0
  150.7930  142.5734  158.5036 H   0  0  0  0  0  0  0  0  0  0  0  0
  150.3229  144.3997  157.0871 H   0  0  0  0  0  0  0  0  0  0  0  0
  150.4218  146.2611  158.6091 H   0  0  0  0  0  0  0  0  0  0  0  0
  149.8555  144.7887  159.3661 H   0  0  0  0  0  0  0  0  0  0  0  0
  152.7272  145.8775  159.4982 H   0  0  0  0  0  0  0  0  0  0  0  0
  151.5667  145.8318  160.8115 H   0  0  0  0  0  0  0  0  0  0  0  0
  1 14  1  0  0  0  0
  1 15  1  0  0  0  0
  1 16  1  0  0  0  0
  1  2  1  0  0  0  0
  2 12  2  0  0  0  0
  2  3  1  0  0  0  0
  3  4  1  0  0  0  0
  3 13  1  0  0  0  0
  4  5  2  0  0  0  0
  5 12  1  0  0  0  0
  5  6  1  0  0  0  0
  6 11  1  0  0  0  0
  6  7  1  0  0  0  0
  6 17  1  0  0  0  0
  7  8  1  0  0  0  0
  7 18  1  0  0  0  0
  7 19  1  0  0  0  0
  8  9  1  0  0  0  0
  8 20  1  0  0  0  0
  9 10  1  0  0  0  0
  9 21  1  0  0  0  0
  9 22  1  0  0  0  0
 10 11  1  0  0  0  0
 10 23  1  0  0  0  0
 10 24  1  0  0  0  0
M  END
> <s_m_source_file>
AV-unprocessed.smi

> <i_m_source_file_index>
2568

> <i_lp_mmshare_version>
43012

> <i_f3d_flags>
0

> <s_epik_input>
W0NIM11jMW5bbkhdYyhuMSlbQ0BASF0yW0NIMl1bTkhdW0NIMl1bQ0gyXU8y

> <s_epik_cmdline>
J2VwaWtfcHl0aG9uJywgJy1waCcsICc3LjAnLCAnLXRuJywgJzgnLCAnLW1hJywgJzIwMCcsICctbWV0YWxfYmluZGluZycsICctaW1hZScsICc8aW5maWxlLm1hZT4nLCAnLW9tYWUnLCAnPG91dGZpbGUubWFlPic=

> <r_epik_Ionization_Penalty>
1.10101

> <r_epik_Ionization_Penalty_Charging>
0

> <r_epik_Ionization_Penalty_Neutral>
1.10101

> <r_epik_State_Penalty>
1.26524

> <r_epik_Charging_Adjusted_Penalty>
1.26524

> <i_epik_Tot_Q>
0

> <i_epik_Tot_abs_Q>
0

> <r_epik_Metal_State_Penalty>
1.56429

> <b_epik_Metal_Only>
0

> <s_lp_Force_Field>
OPLS_2005

> <r_lp_Energy>
12.1745

> <b_lp_Chiralities_Consistent>
1

> <s_lp_Variant>
AV-unprocessed.smi:2568-4

> <Gold.Version>
5.8.1

> <Gold.Id.Protein>
6NUR|6NUR_protein|mol2

> <Gold.PLP.Fitness>
28.5875

> <Gold.PLP.PLP>
-25.6231

> <Gold.PLP.part.hbond>
-1.0313

> <Gold.PLP.part.metal>
0.0000

> <Gold.PLP.part.buried>
-4.6016

> <Gold.PLP.part.nonpolar>
-20.2403

> <Gold.PLP.part.repulsive>
0.1324

> <Gold.PLP.ligand.clash>
0.0000

> <Gold.PLP.ligand.torsion>
0.0241

> <Gold.PLP.Chemscore.Hbond>
1.0000

> <Gold.PLP.Chemscore.CHOScore>
0.0000

> <Gold.PLP.Chemscore.Metal>
0.0000

> <Gold.Chemscore.Hbonds>
donor molecule, donor type, donor heavy atom, donor atom, acceptor molecule, acceptor atom, score
      L1  H     8    20       P1  8028  1.00

> <Gold.PLP.Chemscore.Internal.Correction>
0.0126

> <Gold.Rescore>
     Score         DG    S(hbond)    S(metal)    S(lipo)     H(rot)  DE(clash)    DE(int)     intcor
     12.49     -12.57       0.97        0.00      54.72       1.00       0.07       0.01       ----

> <Gold.Chemscore.Fitness>
12.4893

> <Gold.Chemscore.DG>
-12.5707

> <Gold.Chemscore.ZeroCoef>
-5.4800

> <Gold.Chemscore.Hbond>
0.9726

> <Gold.Chemscore.Metal>
0.0000

> <Gold.Chemscore.Lipo>
54.7186

> <Gold.Chemscore.Internal_Hbond>
0.0000

> <Gold.Chemscore.DEClash>
0.0727

> <Gold.Chemscore.DEInternal>
0.0086

> <Gold.Chemscore.Rot>
1.0000

> <Gold.Chemscore.Internal.Correction>
   9.000000E+99

> <Gold.Chemscore.Hbonds>
donor molecule, donor type, donor heavy atom, donor atom, acceptor molecule, acceptor atom, score
      L1  H     8    20       P1  8028  0.74

> <Gold.Chemscore.Hbond.Weighted>
-3.2486

> <Gold.Chemscore.Metal.Weighted>
-0.0000

> <Gold.Chemscore.Lipo.Weighted>
-6.4021

> <Gold.Chemscore.Internal_Hbond.Weighted>
0.0000

> <Gold.Chemscore.DEClash.Weighted>
0.0727

> <Gold.Chemscore.DEInternal.Weighted>
0.0086

> <Gold.Chemscore.Rot.Weighted>
2.5600

> <Gold.Chemscore.Internal.Correction.Weighted>
   9.000000E+99

> <Gold.Protein.RotatedTorsions>
[ 6907 6896 6895 6894 ] final   66.89 input  -60.11 | X-H torsion
[ 7974 7965 7964 7962 ] final  161.13 input  175.53 | X-H torsion
[ 8008 7997 7996 7995 ] final  165.20 input   59.86 | X-H torsion
[ 10167 10162 10161 10158 ] final  -25.05 input  -65.29 | X-H torsion
[ 10718 10713 10712 10709 ] final   50.87 input   66.30 | X-H torsion
[ 10763 10752 10751 10750 ] final -102.75 input  -60.55 | X-H torsion
[ 11005 11000 10999 10996 ] final  144.87 input  -57.11 | X-H torsion

> <Gold.Protein.ActiveResidues>
 VAL166  LYS551  ARG553  GLY616  TRP617  ASP618  TYR619  PRO620  LYS621  CYS622 
 ASP623  PHE694  ASN695  SER759  ASP760  ASP761  ALA762  ILE779  LEU786  VAL792 
 PHE793  MET794  SER795  GLU796  ALA797  LYS798  CYS799  TRP800  GLU811  SER814 

> <Gold.Protein.RotatedAtoms>
  152.4513  134.5387  159.9832 H   0  0  0  0  0  0  0  0  0  0  0  0  # atno 6907 bound_to 6896
  151.5459  133.3419  159.2952 H   0  0  0  0  0  0  0  0  0  0  0  0  # atno 6908 bound_to 6896
  150.8443  134.7778  159.7021 H   0  0  0  0  0  0  0  0  0  0  0  0  # atno 6909 bound_to 6896
  144.7701  139.7854  143.6300 H   0  0  0  0  0  0  0  0  0  0  0  0  # atno 7974 bound_to 7965
  156.1820  140.1676  156.8257 H   0  0  0  0  0  0  0  0  0  0  0  0  # atno 8008 bound_to 7997
  154.5370  140.0744  156.8478 H   0  0  0  0  0  0  0  0  0  0  0  0  # atno 8009 bound_to 7997
  155.3290  140.3378  155.4242 H   0  0  0  0  0  0  0  0  0  0  0  0  # atno 8010 bound_to 7997
  140.7287  143.4299  151.0819 H   0  0  0  0  0  0  0  0  0  0  0  0  # atno 10167 bound_to 10162
  157.4926  130.8386  149.8221 H   0  0  0  0  0  0  0  0  0  0  0  0  # atno 10718 bound_to 10713
  154.7757  135.4849  153.9740 H   0  0  0  0  0  0  0  0  0  0  0  0  # atno 10763 bound_to 10752
  153.1426  135.6775  153.9011 H   0  0  0  0  0  0  0  0  0  0  0  0  # atno 10764 bound_to 10752
  153.8681  135.3147  155.3419 H   0  0  0  0  0  0  0  0  0  0  0  0  # atno 10765 bound_to 10752
  140.0667  134.9174  157.1276 H   0  0  0  0  0  0  0  0  0  0  0  0  # atno 11005 bound_to 11000
  146.1841  139.5048  142.9847 LP  0  0  0  0  0  0  0  0  0  0  0  0  # atno 17320 bound_to 7965
  145.6348  141.0296  143.1843 LP  0  0  0  0  0  0  0  0  0  0  0  0  # atno 17321 bound_to 7965
  139.7954  143.8159  152.3157 LP  0  0  0  0  0  0  0  0  0  0  0  0  # atno 17342 bound_to 10162
  139.8157  144.7317  150.9638 LP  0  0  0  0  0  0  0  0  0  0  0  0  # atno 17343 bound_to 10162
  156.0182  130.3805  150.2044 LP  0  0  0  0  0  0  0  0  0  0  0  0  # atno 17370 bound_to 10713
  157.0233  130.9985  151.3333 LP  0  0  0  0  0  0  0  0  0  0  0  0  # atno 17371 bound_to 10713
  140.3688  134.2413  155.7180 LP  0  0  0  0  0  0  0  0  0  0  0  0  # atno 17394 bound_to 11000
  141.1995  133.8009  157.0531 LP  0  0  0  0  0  0  0  0  0  0  0  0  # atno 17395 bound_to 11000

$$$$
