AV-unprocessed.smi:35|AV-procd|sdf|273|dock10
  -GOLD-   2262016 43D 1   1.00000     0.00000
 Structure written by MMmdl.
 28 29  0  0  0  0  0  0  0  0  2 V2000
  152.9862  140.9235  159.1939 O   0  0  0  0  0  0  0  0  0  0  0  0
  152.0427  140.9825  158.4074 C   0  0  0  0  0  0  0  0  0  0  0  0
  151.3535  139.8798  157.9931 N   0  5  0  0  0  0  0  0  0  0  0  0
  150.3086  139.9496  157.1164 C   0  0  0  0  0  0  0  0  0  0  0  0
  149.6612  138.9651  156.7602 O   0  0  0  0  0  0  0  0  0  0  0  0
  149.9335  141.2180  156.5962 N   0  0  0  0  0  0  0  0  0  0  0  0
  148.7786  141.3149  155.6231 C   0  0  2  0  0  0  0  0  0  0  0  0
  147.7062  140.5837  156.1271 O   0  0  0  0  0  0  0  0  0  0  0  0
  146.9270  140.1221  155.0355 C   0  0  2  0  0  0  0  0  0  0  0  0
  146.0404  138.9492  155.4820 C   0  0  0  0  0  0  0  0  0  0  0  0
  145.2615  138.4875  154.3988 O   0  0  0  0  0  0  0  0  0  0  0  0
  147.9924  139.7255  154.0073 C   0  0  1  0  0  0  0  0  0  0  0  0
  147.4651  139.8219  152.6986 O   0  0  0  0  0  0  0  0  0  0  0  0
  149.1028  140.7521  154.2206 C   0  0  2  0  0  0  0  0  0  0  0  0
  150.3740  140.1359  154.1163 O   0  0  0  0  0  0  0  0  0  0  0  0
  150.5999  142.3575  157.0133 C   0  0  0  0  0  0  0  0  0  0  0  0
  151.6245  142.2816  157.8864 C   0  0  0  0  0  0  0  0  0  0  0  0
  152.4849  143.9910  158.4004 Br  0  0  0  0  0  0  0  0  0  0  0  0
  148.4759  142.3632  155.5981 H   0  0  0  0  0  0  0  0  0  0  0  0
  146.3271  140.9504  154.6514 H   0  0  0  0  0  0  0  0  0  0  0  0
  146.6607  138.1166  155.8152 H   0  0  0  0  0  0  0  0  0  0  0  0
  145.4012  139.2318  156.3193 H   0  0  0  0  0  0  0  0  0  0  0  0
  144.9501  139.2355  153.9124 H   0  0  0  0  0  0  0  0  0  0  0  0
  148.3507  138.7135  154.2054 H   0  0  0  0  0  0  0  0  0  0  0  0
  148.1384  139.5681  152.0860 H   0  0  0  0  0  0  0  0  0  0  0  0
  149.0405  141.5778  153.5099 H   0  0  0  0  0  0  0  0  0  0  0  0
  150.3030  139.2523  154.4452 H   0  0  0  0  0  0  0  0  0  0  0  0
  150.2943  143.3255  156.6449 H   0  0  0  0  0  0  0  0  0  0  0  0
  1  2  2  0  0  0  0
  2 17  1  0  0  0  0
  2  3  1  0  0  0  0
  3  4  1  0  0  0  0
  4  5  2  0  0  0  0
  4  6  1  0  0  0  0
  6  7  1  0  0  0  0
  6 16  1  0  0  0  0
  7 14  1  0  0  0  0
  7  8  1  0  0  0  0
  7 19  1  0  0  0  0
  8  9  1  0  0  0  0
  9 10  1  0  0  0  0
  9 12  1  0  0  0  0
  9 20  1  0  0  0  0
 10 11  1  0  0  0  0
 10 21  1  0  0  0  0
 10 22  1  0  0  0  0
 11 23  1  0  0  0  0
 12 13  1  0  0  0  0
 12 14  1  0  0  0  0
 12 24  1  0  0  0  0
 13 25  1  0  0  0  0
 14 15  1  0  0  0  0
 14 26  1  0  0  0  0
 15 27  1  0  0  0  0
 16 17  2  0  0  0  0
 16 28  1  0  0  0  0
 17 18  1  0  0  0  0
M  CHG  1   3  -1
M  END
> <s_m_source_file>
AV-unprocessed.smi

> <i_m_source_file_index>
35

> <i_lp_mmshare_version>
43012

> <i_f3d_flags>
0

> <s_epik_input>
Tz1jMVtuSF1jKD1PKW4oW2NIXWMxQnIpW0NAQEhdMk9bQ0BASF0oW0NIMl1bT0hdKVtDQEBIXShbT0hdKVtDQEhdMltPSF0=

> <s_epik_cmdline>
J2VwaWtfcHl0aG9uJywgJy1waCcsICc3LjAnLCAnLXRuJywgJzgnLCAnLW1hJywgJzIwMCcsICctbWV0YWxfYmluZGluZycsICctaW1hZScsICc8aW5maWxlLm1hZT4nLCAnLW9tYWUnLCAnPG91dGZpbGUubWFlPic=

> <r_epik_Ionization_Penalty>
1.06112

> <r_epik_Ionization_Penalty_Charging>
2.1796e-09

> <r_epik_Ionization_Penalty_Neutral>
1.06112

> <r_epik_State_Penalty>
1.11484

> <r_epik_Charging_Adjusted_Penalty>
1.11484

> <i_epik_Tot_Q>
-1

> <i_epik_Tot_abs_Q>
1

> <r_epik_Metal_State_Penalty>
0.0032876

> <b_epik_Metal_Only>
0

> <s_epik_Chemistry_Notes>
This compound contains an acetal/aminal-like group ( X-CH(R)-Y where X, Y are N, S, or O) that may be acid/base labile, releasing an aldehyde.

> <s_lp_Force_Field>
OPLS_2005

> <r_lp_Energy>
42.5644

> <b_lp_Chiralities_Consistent>
1

> <s_lp_Variant>
AV-unprocessed.smi:35-27

> <Gold.Version>
5.8.1

> <Gold.Id.Protein>
6NUR|6NUR_protein|mol2

> <Gold.PLP.Fitness>
37.4830

> <Gold.PLP.PLP>
-25.7791

> <Gold.PLP.part.hbond>
-3.6465

> <Gold.PLP.part.metal>
0.0000

> <Gold.PLP.part.buried>
-3.2184

> <Gold.PLP.part.nonpolar>
-18.9339

> <Gold.PLP.part.repulsive>
0.0405

> <Gold.PLP.ligand.clash>
0.0000

> <Gold.PLP.ligand.torsion>
0.2401

> <Gold.PLP.Chemscore.Hbond>
2.9920

> <Gold.PLP.Chemscore.CHOScore>
1.0000

> <Gold.PLP.Chemscore.Metal>
0.0000

> <Gold.Chemscore.Hbonds>
donor molecule, donor type, donor heavy atom, donor atom, acceptor molecule, acceptor atom, score
      L1  H    11    23       P1 10175  0.37
      L1  H    13    25       P1  7957  0.98
      P1  H  7989  7998       L1    15  1.00
      L1  C    16    28       P1  8028  1.00

> <Gold.PLP.Chemscore.Internal.Correction>
0.2081

> <Gold.Rescore>
     Score         DG    S(hbond)    S(metal)    S(lipo)     H(rot)  DE(clash)    DE(int)     intcor
      9.02     -11.25       2.83        0.00      47.79       3.63       0.02       2.21       ----

> <Gold.Chemscore.Fitness>
9.0177

> <Gold.Chemscore.DG>
-11.2523

> <Gold.Chemscore.ZeroCoef>
-5.4800

> <Gold.Chemscore.Hbond>
2.8335

> <Gold.Chemscore.Metal>
0.0000

> <Gold.Chemscore.Lipo>
47.7880

> <Gold.Chemscore.Internal_Hbond>
0.0000

> <Gold.Chemscore.DEClash>
0.0234

> <Gold.Chemscore.DEInternal>
2.2111

> <Gold.Chemscore.Rot>
3.6261

> <Gold.Chemscore.Internal.Correction>
   9.000000E+99

> <Gold.Chemscore.Hbonds>
donor molecule, donor type, donor heavy atom, donor atom, acceptor molecule, acceptor atom, score
      L1  H    11    23       P1 10175  0.37
      L1  H    13    25       P1  7957  0.92
      P1  H  7989  7998       L1    15  0.93

> <Gold.Chemscore.Hbond.Weighted>
-9.4638

> <Gold.Chemscore.Metal.Weighted>
-0.0000

> <Gold.Chemscore.Lipo.Weighted>
-5.5912

> <Gold.Chemscore.Internal_Hbond.Weighted>
0.0000

> <Gold.Chemscore.DEClash.Weighted>
0.0234

> <Gold.Chemscore.DEInternal.Weighted>
2.2111

> <Gold.Chemscore.Rot.Weighted>
9.2828

> <Gold.Chemscore.Internal.Correction.Weighted>
   9.000000E+99

> <Gold.Protein.RotatedTorsions>
[ 6907 6896 6895 6894 ] final -151.17 input  -60.11 | X-H torsion
[ 7974 7965 7964 7962 ] final  -26.35 input  175.53 | X-H torsion
[ 8008 7997 7996 7995 ] final -120.49 input   59.86 | X-H torsion
[ 10167 10162 10161 10158 ] final  120.52 input  -65.29 | X-H torsion
[ 10718 10713 10712 10709 ] final  -79.53 input   66.30 | X-H torsion
[ 10763 10752 10751 10750 ] final -148.91 input  -60.55 | X-H torsion
[ 11005 11000 10999 10996 ] final  -84.51 input  -57.11 | X-H torsion

> <Gold.Protein.ActiveResidues>
 VAL166  LYS551  ARG553  GLY616  TRP617  ASP618  TYR619  PRO620  LYS621  CYS622 
 ASP623  PHE694  ASN695  SER759  ASP760  ASP761  ALA762  ILE779  LEU786  VAL792 
 PHE793  MET794  SER795  GLU796  ALA797  LYS798  CYS799  TRP800  GLU811  SER814 

> <Gold.Protein.RotatedAtoms>
  151.2092  133.4566  159.2597 H   0  0  0  0  0  0  0  0  0  0  0  0  # atno 6907 bound_to 6896
  151.0993  134.9963  159.8451 H   0  0  0  0  0  0  0  0  0  0  0  0  # atno 6908 bound_to 6896
  152.5442  134.2020  159.8768 H   0  0  0  0  0  0  0  0  0  0  0  0  # atno 6909 bound_to 6896
  146.1431  140.5008  142.8643 H   0  0  0  0  0  0  0  0  0  0  0  0  # atno 7974 bound_to 7965
  155.1326  140.0400  157.2778 H   0  0  0  0  0  0  0  0  0  0  0  0  # atno 8008 bound_to 7997
  154.6531  140.2574  155.7165 H   0  0  0  0  0  0  0  0  0  0  0  0  # atno 8009 bound_to 7997
  156.2586  140.2832  156.0973 H   0  0  0  0  0  0  0  0  0  0  0  0  # atno 8010 bound_to 7997
  139.5977  144.7047  151.3137 H   0  0  0  0  0  0  0  0  0  0  0  0  # atno 10167 bound_to 10162
  156.0090  130.4548  150.3662 H   0  0  0  0  0  0  0  0  0  0  0  0  # atno 10718 bound_to 10713
  154.8207  135.3322  154.7047 H   0  0  0  0  0  0  0  0  0  0  0  0  # atno 10763 bound_to 10752
  153.7680  135.6927  153.4916 H   0  0  0  0  0  0  0  0  0  0  0  0  # atno 10764 bound_to 10752
  153.2064  135.4498  155.0276 H   0  0  0  0  0  0  0  0  0  0  0  0  # atno 10765 bound_to 10752
  141.1650  133.7350  156.8879 H   0  0  0  0  0  0  0  0  0  0  0  0  # atno 11005 bound_to 11000
  144.7815  140.5849  143.6602 LP  0  0  0  0  0  0  0  0  0  0  0  0  # atno 17320 bound_to 7965
  145.5001  139.1484  143.3662 LP  0  0  0  0  0  0  0  0  0  0  0  0  # atno 17321 bound_to 7965
  140.7225  143.7096  150.7780 LP  0  0  0  0  0  0  0  0  0  0  0  0  # atno 17342 bound_to 10162
  140.0666  143.5102  152.2601 LP  0  0  0  0  0  0  0  0  0  0  0  0  # atno 17343 bound_to 10162
  157.1749  131.0378  151.2777 LP  0  0  0  0  0  0  0  0  0  0  0  0  # atno 17370 bound_to 10713
  157.4197  130.7430  149.6903 LP  0  0  0  0  0  0  0  0  0  0  0  0  # atno 17371 bound_to 10713
  140.1669  134.9127  157.2785 LP  0  0  0  0  0  0  0  0  0  0  0  0  # atno 17394 bound_to 11000
  140.2547  134.3642  155.7429 LP  0  0  0  0  0  0  0  0  0  0  0  0  # atno 17395 bound_to 11000

$$$$
