AV-unprocessed.smi:2847|AV-procd|sdf|10954|dock8
  -GOLD-   2272015413D 1   1.00000     0.00000
 Structure written by MMmdl.
 45 46  0  0  0  0  0  0  0  0  1 V2000
  143.9020  132.4961  151.1749 C   0  0  0  0  0  0  0  0  0  0  0  0
  145.3846  132.8135  151.4827 C   0  0  0  0  0  0  0  0  0  0  0  0
  145.8663  131.9342  152.6512 C   0  0  0  0  0  0  0  0  0  0  0  0
  146.1737  132.4516  150.2024 C   0  0  0  0  0  0  0  0  0  0  0  0
  145.5705  134.2971  151.8462 C   0  0  0  0  0  0  0  0  0  0  0  0
  145.1970  135.2012  150.9310 N   0  0  0  0  0  0  0  0  0  0  0  0
  145.2390  136.5031  151.2831 C   0  0  0  0  0  0  0  0  0  0  0  0
  145.6327  136.9156  152.5714 C   0  0  0  0  0  0  0  0  0  0  0  0
  145.6389  138.3022  152.8794 N   0  0  0  0  0  0  0  0  0  0  0  0
  146.5394  138.9922  153.5991 C   0  0  0  0  0  0  0  0  0  0  0  0
  147.5547  138.5151  154.1043 O   0  0  0  0  0  0  0  0  0  0  0  0
  146.1924  140.2870  153.6817 N   0  0  0  0  0  0  0  0  0  0  0  0
  146.8874  141.3845  154.3683 C   0  0  2  0  0  0  0  0  0  0  0  0
  146.2042  142.7327  154.0365 C   0  0  0  0  0  0  0  0  0  0  0  0
  148.3343  141.3930  153.7984 C   0  0  0  0  0  0  0  0  0  0  0  0
  149.2052  142.2166  154.5511 O   0  0  0  0  0  0  0  0  0  0  0  0
  146.8691  141.2038  155.8970 C   0  0  0  0  0  0  0  0  0  0  0  0
  145.7535  141.6854  156.7965 C   0  0  0  0  0  0  0  0  0  0  0  0
  147.1306  142.3146  156.8880 C   0  0  0  0  0  0  0  0  0  0  0  0
  145.9545  135.8775  153.4778 C   0  0  0  0  0  0  0  0  0  0  0  0
  145.9069  134.5785  153.1120 N   0  0  0  0  0  0  0  0  0  0  0  0
  143.7739  131.4572  150.8687 H   0  0  0  0  0  0  0  0  0  0  0  0
  143.5203  133.1241  150.3690 H   0  0  0  0  0  0  0  0  0  0  0  0
  143.2621  132.6477  152.0448 H   0  0  0  0  0  0  0  0  0  0  0  0
  145.3043  132.1432  153.5621 H   0  0  0  0  0  0  0  0  0  0  0  0
  146.9209  132.1075  152.8689 H   0  0  0  0  0  0  0  0  0  0  0  0
  145.7466  130.8738  152.4263 H   0  0  0  0  0  0  0  0  0  0  0  0
  146.0075  131.4129  149.9146 H   0  0  0  0  0  0  0  0  0  0  0  0
  147.2494  132.5717  150.3366 H   0  0  0  0  0  0  0  0  0  0  0  0
  145.8736  133.0766  149.3603 H   0  0  0  0  0  0  0  0  0  0  0  0
  144.9521  137.2207  150.5282 H   0  0  0  0  0  0  0  0  0  0  0  0
  144.8932  138.8422  152.4652 H   0  0  0  0  0  0  0  0  0  0  0  0
  145.3315  140.5506  153.2251 H   0  0  0  0  0  0  0  0  0  0  0  0
  146.7889  143.5712  154.4162 H   0  0  0  0  0  0  0  0  0  0  0  0
  145.2132  142.8093  154.4841 H   0  0  0  0  0  0  0  0  0  0  0  0
  146.0837  142.8765  152.9622 H   0  0  0  0  0  0  0  0  0  0  0  0
  148.7676  140.3940  153.7989 H   0  0  0  0  0  0  0  0  0  0  0  0
  148.3529  141.7513  152.7694 H   0  0  0  0  0  0  0  0  0  0  0  0
  148.7656  143.0339  154.7300 H   0  0  0  0  0  0  0  0  0  0  0  0
  147.2659  140.2366  156.1981 H   0  0  0  0  0  0  0  0  0  0  0  0
  144.9536  142.2895  156.3768 H   0  0  0  0  0  0  0  0  0  0  0  0
  145.4508  141.0273  157.6084 H   0  0  0  0  0  0  0  0  0  0  0  0
  147.7366  142.0703  157.7582 H   0  0  0  0  0  0  0  0  0  0  0  0
  147.2356  143.3352  156.5298 H   0  0  0  0  0  0  0  0  0  0  0  0
  146.2259  136.0617  154.5056 H   0  0  0  0  0  0  0  0  0  0  0  0
  1  2  1  0  0  0  0
  1 22  1  0  0  0  0
  1 23  1  0  0  0  0
  1 24  1  0  0  0  0
  2  3  1  0  0  0  0
  2  4  1  0  0  0  0
  2  5  1  0  0  0  0
  3 25  1  0  0  0  0
  3 26  1  0  0  0  0
  3 27  1  0  0  0  0
  4 28  1  0  0  0  0
  4 29  1  0  0  0  0
  4 30  1  0  0  0  0
  5 21  1  0  0  0  0
  5  6  2  0  0  0  0
  6  7  1  0  0  0  0
  7  8  2  0  0  0  0
  7 31  1  0  0  0  0
  8  9  1  0  0  0  0
  8 20  1  0  0  0  0
  9 10  1  0  0  0  0
  9 32  1  0  0  0  0
 10 11  2  0  0  0  0
 10 12  1  0  0  0  0
 12 13  1  0  0  0  0
 12 33  1  0  0  0  0
 13 14  1  0  0  0  0
 13 15  1  0  0  0  0
 13 17  1  0  0  0  0
 14 34  1  0  0  0  0
 14 35  1  0  0  0  0
 14 36  1  0  0  0  0
 15 16  1  0  0  0  0
 15 37  1  0  0  0  0
 15 38  1  0  0  0  0
 16 39  1  0  0  0  0
 17 19  1  0  0  0  0
 17 18  1  0  0  0  0
 17 40  1  0  0  0  0
 18 19  1  0  0  0  0
 18 41  1  0  0  0  0
 18 42  1  0  0  0  0
 19 43  1  0  0  0  0
 19 44  1  0  0  0  0
 20 21  2  0  0  0  0
 20 45  1  0  0  0  0
M  END
> <s_m_source_file>
AV-unprocessed.smi

> <i_m_source_file_index>
2847

> <i_lp_mmshare_version>
43012

> <i_f3d_flags>
0

> <s_epik_input>
W0NIM11DKFtDSDNdKShbQ0gzXSljMW5bY0hdYyhbY0hdbjEpW05IXUMoPU8pW05IXVtDQEBdKFtDSDNdKShbQ0gyXVtPSF0pW0NIXTJbQ0gyXVtDSDJdMg==

> <s_epik_cmdline>
J2VwaWtfcHl0aG9uJywgJy1waCcsICc3LjAnLCAnLXRuJywgJzgnLCAnLW1hJywgJzIwMCcsICctbWV0YWxfYmluZGluZycsICctaW1hZScsICc8aW5maWxlLm1hZT4nLCAnLW9tYWUnLCAnPG91dGZpbGUubWFlPic=

> <r_lp_tautomer_probability>
1

> <r_epik_Ionization_Penalty>
2.57177e-05

> <r_epik_Ionization_Penalty_Charging>
0

> <r_epik_Ionization_Penalty_Neutral>
2.57177e-05

> <r_epik_State_Penalty>
-0

> <r_epik_Charging_Adjusted_Penalty>
0

> <i_epik_Tot_Q>
0

> <i_epik_Tot_abs_Q>
0

> <r_epik_Metal_State_Penalty>
-0

> <b_epik_Metal_Only>
0

> <s_lp_Force_Field>
OPLS_2005

> <r_lp_Energy>
20.8954

> <b_lp_Chiralities_Consistent>
1

> <s_lp_Variant>
AV-unprocessed.smi:2847-2

> <Gold.Version>
5.8.1

> <Gold.Id.Protein>
6NUR|6NUR_protein|mol2

> <Gold.PLP.Fitness>
41.4872

> <Gold.PLP.PLP>
-31.8650

> <Gold.PLP.part.hbond>
-4.0000

> <Gold.PLP.part.metal>
0.0000

> <Gold.PLP.part.buried>
-2.5623

> <Gold.PLP.part.nonpolar>
-25.6009

> <Gold.PLP.part.repulsive>
0.4708

> <Gold.PLP.ligand.clash>
0.0000

> <Gold.PLP.ligand.torsion>
1.3504

> <Gold.PLP.Chemscore.Hbond>
2.9193

> <Gold.PLP.Chemscore.CHOScore>
0.6720

> <Gold.PLP.Chemscore.Metal>
0.0000

> <Gold.Chemscore.Hbonds>
donor molecule, donor type, donor heavy atom, donor atom, acceptor molecule, acceptor atom, score
      L1  H     9    32       P1 10175  1.00
      L1  H    12    33       P1 10175  1.00
      L1  H    16    39       P1  8028  0.93
      L1  C     7    31       P1 10171  0.62

> <Gold.PLP.Chemscore.Internal.Correction>
1.5492

> <Gold.Rescore>
     Score         DG    S(hbond)    S(metal)    S(lipo)     H(rot)  DE(clash)    DE(int)     intcor
     14.20     -17.09       2.74        0.00      68.49       2.17       0.97       1.92       ----

> <Gold.Chemscore.Fitness>
14.1956

> <Gold.Chemscore.DG>
-17.0878

> <Gold.Chemscore.ZeroCoef>
-5.4800

> <Gold.Chemscore.Hbond>
2.7377

> <Gold.Chemscore.Metal>
0.0000

> <Gold.Chemscore.Lipo>
68.4924

> <Gold.Chemscore.Internal_Hbond>
0.0000

> <Gold.Chemscore.DEClash>
0.9726

> <Gold.Chemscore.DEInternal>
1.9195

> <Gold.Chemscore.Rot>
2.1679

> <Gold.Chemscore.Internal.Correction>
   9.000000E+99

> <Gold.Chemscore.Hbonds>
donor molecule, donor type, donor heavy atom, donor atom, acceptor molecule, acceptor atom, score
      L1  H     9    32       P1 10175  0.90
      L1  H    12    33       P1 10175  0.93
      L1  H    16    39       P1  8028  0.89

> <Gold.Chemscore.Hbond.Weighted>
-9.1440

> <Gold.Chemscore.Metal.Weighted>
-0.0000

> <Gold.Chemscore.Lipo.Weighted>
-8.0136

> <Gold.Chemscore.Internal_Hbond.Weighted>
0.0000

> <Gold.Chemscore.DEClash.Weighted>
0.9726

> <Gold.Chemscore.DEInternal.Weighted>
1.9195

> <Gold.Chemscore.Rot.Weighted>
5.5499

> <Gold.Chemscore.Internal.Correction.Weighted>
   9.000000E+99

> <Gold.Protein.RotatedTorsions>
[ 6907 6896 6895 6894 ] final -140.26 input  -60.11 | X-H torsion
[ 7974 7965 7964 7962 ] final -149.30 input  175.53 | X-H torsion
[ 8008 7997 7996 7995 ] final -146.72 input   59.86 | X-H torsion
[ 10167 10162 10161 10158 ] final  157.48 input  -65.29 | X-H torsion
[ 10718 10713 10712 10709 ] final   56.98 input   66.30 | X-H torsion
[ 10763 10752 10751 10750 ] final   12.61 input  -60.55 | X-H torsion
[ 11005 11000 10999 10996 ] final -106.57 input  -57.11 | X-H torsion

> <Gold.Protein.ActiveResidues>
 VAL166  LYS551  ARG553  GLY616  TRP617  ASP618  TYR619  PRO620  LYS621  CYS622 
 ASP623  PHE694  ASN695  SER759  ASP760  ASP761  ALA762  ILE779  LEU786  VAL792 
 PHE793  MET794  SER795  GLU796  ALA797  LYS798  CYS799  TRP800  GLU811  SER814 

> <Gold.Protein.RotatedAtoms>
  151.0584  133.5565  159.2636 H   0  0  0  0  0  0  0  0  0  0  0  0  # atno 6907 bound_to 6896
  151.2550  135.0634  159.9086 H   0  0  0  0  0  0  0  0  0  0  0  0  # atno 6908 bound_to 6896
  152.5393  134.0338  159.8090 H   0  0  0  0  0  0  0  0  0  0  0  0  # atno 6909 bound_to 6896
  144.7976  140.5083  143.5729 H   0  0  0  0  0  0  0  0  0  0  0  0  # atno 7974 bound_to 7965
  155.5639  140.0628  157.2822 H   0  0  0  0  0  0  0  0  0  0  0  0  # atno 8008 bound_to 7997
  154.4381  140.1881  156.0856 H   0  0  0  0  0  0  0  0  0  0  0  0  # atno 8009 bound_to 7997
  156.0426  140.3294  155.7264 H   0  0  0  0  0  0  0  0  0  0  0  0  # atno 8010 bound_to 7997
  139.4823  144.4913  151.8304 H   0  0  0  0  0  0  0  0  0  0  0  0  # atno 10167 bound_to 10162
  157.5476  130.8742  149.8915 H   0  0  0  0  0  0  0  0  0  0  0  0  # atno 10718 bound_to 10713
  153.1805  135.6827  153.8484 H   0  0  0  0  0  0  0  0  0  0  0  0  # atno 10763 bound_to 10752
  153.7818  135.3181  155.3368 H   0  0  0  0  0  0  0  0  0  0  0  0  # atno 10764 bound_to 10752
  154.8056  135.4750  154.0480 H   0  0  0  0  0  0  0  0  0  0  0  0  # atno 10765 bound_to 10752
  141.0998  133.8905  157.1872 H   0  0  0  0  0  0  0  0  0  0  0  0  # atno 11005 bound_to 11000
  145.5634  139.1480  143.3329 LP  0  0  0  0  0  0  0  0  0  0  0  0  # atno 17320 bound_to 7965
  146.2249  140.5769  142.9001 LP  0  0  0  0  0  0  0  0  0  0  0  0  # atno 17321 bound_to 7965
  140.4398  144.2002  150.5891 LP  0  0  0  0  0  0  0  0  0  0  0  0  # atno 17342 bound_to 10162
  140.4695  143.2418  151.9109 LP  0  0  0  0  0  0  0  0  0  0  0  0  # atno 17343 bound_to 10162
  156.0549  130.3710  150.1114 LP  0  0  0  0  0  0  0  0  0  0  0  0  # atno 17370 bound_to 10713
  156.9289  130.9707  151.3536 LP  0  0  0  0  0  0  0  0  0  0  0  0  # atno 17371 bound_to 10713
  139.9845  135.0087  156.9830 LP  0  0  0  0  0  0  0  0  0  0  0  0  # atno 17394 bound_to 11000
  140.5051  134.1058  155.7258 LP  0  0  0  0  0  0  0  0  0  0  0  0  # atno 17395 bound_to 11000

$$$$
