AV-unprocessed.smi:232|AV-procd|sdf|1778|dock3
  -GOLD-   2262020323D 1   1.00000     0.00000
 Structure written by MMmdl.
 52 55  0  0  0  0  0  0  0  0  1 V2000
  151.6748  145.4144  158.5730 C   0  0  0  0  0  0  0  0  0  0  0  0
  152.5078  144.1752  158.9251 C   0  0  0  0  0  0  0  0  0  0  0  0
  151.6795  142.8719  158.9414 C   0  0  1  0  0  0  0  0  0  0  0  0
  150.9557  142.5943  157.6087 C   0  0  0  0  0  0  0  0  0  0  0  0
  151.3198  141.1539  157.2326 C   0  0  0  0  0  0  0  0  0  0  0  0
  151.8753  140.5463  158.5209 C   0  0  2  0  0  0  0  0  0  0  0  0
  150.7654  139.8870  159.3657 C   0  0  0  0  0  0  0  0  0  0  0  0
  152.4999  141.6848  159.1855 N   0  0  0  0  0  0  0  0  0  0  0  0
  153.0734  141.4589  160.3979 C   0  0  0  0  0  0  0  0  0  0  0  0
  153.8295  140.3456  160.5949 N   0  0  0  0  0  0  0  0  0  0  0  0
  154.4130  140.1231  161.7758 C   0  0  0  0  0  0  0  0  0  0  0  0
  154.3749  140.8715  162.8790 N   0  0  0  0  0  0  0  0  0  0  0  0
  153.6156  141.9883  162.6904 C   0  0  0  0  0  0  0  0  0  0  0  0
  152.9358  142.3561  161.4948 C   0  0  0  0  0  0  0  0  0  0  0  0
  152.2561  143.5531  161.6895 N   0  0  0  0  0  0  0  0  0  0  0  0
  152.5161  143.8724  162.9279 C   0  0  0  0  0  0  0  0  0  0  0  0
  153.3216  142.9855  163.6035 N   0  0  0  0  0  0  0  0  0  0  0  0
  153.7503  143.0852  164.9864 C   0  0  0  0  0  0  0  0  0  0  0  0
  154.3775  144.4539  165.3258 C   0  0  2  0  0  0  0  0  0  0  0  0
  155.7769  144.3204  165.1785 O   0  0  0  0  0  0  0  0  0  0  0  0
  154.0640  144.9627  166.7506 C   0  0  1  0  0  0  0  0  0  0  0  0
  154.3233  143.9476  167.8661 C   0  0  0  0  0  0  0  0  0  0  0  0
  154.5354  144.8132  169.0987 C   0  0  0  0  0  0  0  0  0  0  0  0
  154.8008  146.2084  168.5282 C   0  0  0  0  0  0  0  0  0  0  0  0
  154.9473  146.0074  167.1309 O   0  0  0  0  0  0  0  0  0  0  0  0
  152.2899  146.3141  158.6007 H   0  0  0  0  0  0  0  0  0  0  0  0
  150.8565  145.5498  159.2809 H   0  0  0  0  0  0  0  0  0  0  0  0
  151.2454  145.3398  157.5740 H   0  0  0  0  0  0  0  0  0  0  0  0
  153.3351  144.0772  158.2210 H   0  0  0  0  0  0  0  0  0  0  0  0
  152.9647  144.3437  159.8999 H   0  0  0  0  0  0  0  0  0  0  0  0
  150.9284  142.9374  159.7303 H   0  0  0  0  0  0  0  0  0  0  0  0
  149.8784  142.6989  157.7427 H   0  0  0  0  0  0  0  0  0  0  0  0
  151.2534  143.2799  156.8148 H   0  0  0  0  0  0  0  0  0  0  0  0
  150.4794  140.5961  156.8180 H   0  0  0  0  0  0  0  0  0  0  0  0
  152.1058  141.1704  156.4762 H   0  0  0  0  0  0  0  0  0  0  0  0
  152.6216  139.7955  158.2628 H   0  0  0  0  0  0  0  0  0  0  0  0
  150.2837  139.0816  158.8109 H   0  0  0  0  0  0  0  0  0  0  0  0
  149.9920  140.6017  159.6483 H   0  0  0  0  0  0  0  0  0  0  0  0
  151.1668  139.4516  160.2813 H   0  0  0  0  0  0  0  0  0  0  0  0
  154.9941  139.2155  161.8458 H   0  0  0  0  0  0  0  0  0  0  0  0
  152.1184  144.7651  163.3884 H   0  0  0  0  0  0  0  0  0  0  0  0
  152.8916  142.8900  165.6303 H   0  0  0  0  0  0  0  0  0  0  0  0
  154.4671  142.2850  165.1760 H   0  0  0  0  0  0  0  0  0  0  0  0
  154.0426  145.1953  164.5990 H   0  0  0  0  0  0  0  0  0  0  0  0
  156.1850  144.5124  166.0088 H   0  0  0  0  0  0  0  0  0  0  0  0
  153.0345  145.3223  166.8091 H   0  0  0  0  0  0  0  0  0  0  0  0
  153.5073  143.2344  167.9864 H   0  0  0  0  0  0  0  0  0  0  0  0
  155.2335  143.3842  167.6556 H   0  0  0  0  0  0  0  0  0  0  0  0
  153.6517  144.8222  169.7374 H   0  0  0  0  0  0  0  0  0  0  0  0
  155.3762  144.4506  169.6911 H   0  0  0  0  0  0  0  0  0  0  0  0
  153.9497  146.8671  168.7078 H   0  0  0  0  0  0  0  0  0  0  0  0
  155.6900  146.6750  168.9525 H   0  0  0  0  0  0  0  0  0  0  0  0
  1  2  1  0  0  0  0
  1 26  1  0  0  0  0
  1 27  1  0  0  0  0
  1 28  1  0  0  0  0
  2  3  1  0  0  0  0
  2 29  1  0  0  0  0
  2 30  1  0  0  0  0
  3  8  1  0  0  0  0
  3  4  1  0  0  0  0
  3 31  1  0  0  0  0
  4  5  1  0  0  0  0
  4 32  1  0  0  0  0
  4 33  1  0  0  0  0
  5  6  1  0  0  0  0
  5 34  1  0  0  0  0
  5 35  1  0  0  0  0
  6  7  1  0  0  0  0
  6  8  1  0  0  0  0
  6 36  1  0  0  0  0
  7 37  1  0  0  0  0
  7 38  1  0  0  0  0
  7 39  1  0  0  0  0
  8  9  1  0  0  0  0
  9 14  1  0  0  0  0
  9 10  2  0  0  0  0
 10 11  1  0  0  0  0
 11 12  2  0  0  0  0
 11 40  1  0  0  0  0
 12 13  1  0  0  0  0
 13 17  1  0  0  0  0
 13 14  2  0  0  0  0
 14 15  1  0  0  0  0
 15 16  2  0  0  0  0
 16 17  1  0  0  0  0
 16 41  1  0  0  0  0
 17 18  1  0  0  0  0
 18 19  1  0  0  0  0
 18 42  1  0  0  0  0
 18 43  1  0  0  0  0
 19 20  1  0  0  0  0
 19 21  1  0  0  0  0
 19 44  1  0  0  0  0
 20 45  1  0  0  0  0
 21 25  1  0  0  0  0
 21 22  1  0  0  0  0
 21 46  1  0  0  0  0
 22 23  1  0  0  0  0
 22 47  1  0  0  0  0
 22 48  1  0  0  0  0
 23 24  1  0  0  0  0
 23 49  1  0  0  0  0
 23 50  1  0  0  0  0
 24 25  1  0  0  0  0
 24 51  1  0  0  0  0
 24 52  1  0  0  0  0
M  END
> <s_m_source_file>
AV-unprocessed.smi

> <i_m_source_file_index>
232

> <i_lp_mmshare_version>
43012

> <i_f3d_flags>
0

> <s_epik_input>
W0NIM11bQ0gyXVtDQEBIXTFbQ0gyXVtDSDJdW0NAQEhdKFtDSDNdKU4xYyhuW2NIXW4yKWMoYzIzKW5bY0hdbjNbQ0gyXVtDQEhdKFtPSF0pW0NAQEhdNFtDSDJdW0NIMl1bQ0gyXU80

> <s_epik_cmdline>
J2VwaWtfcHl0aG9uJywgJy1waCcsICc3LjAnLCAnLXRuJywgJzgnLCAnLW1hJywgJzIwMCcsICctbWV0YWxfYmluZGluZycsICctaW1hZScsICc8aW5maWxlLm1hZT4nLCAnLW9tYWUnLCAnPG91dGZpbGUubWFlPic=

> <r_lp_tautomer_probability>
1

> <r_epik_Ionization_Penalty>
0.00258048

> <r_epik_Ionization_Penalty_Charging>
0

> <r_epik_Ionization_Penalty_Neutral>
0.00258048

> <r_epik_State_Penalty>
0.00168551

> <r_epik_Charging_Adjusted_Penalty>
0.00168551

> <i_epik_Tot_Q>
0

> <i_epik_Tot_abs_Q>
0

> <r_epik_Metal_State_Penalty>
-0

> <b_epik_Metal_Only>
0

> <s_lp_Force_Field>
OPLS_2005

> <r_lp_Energy>
52.3854

> <b_lp_Chiralities_Consistent>
1

> <s_lp_Variant>
AV-unprocessed.smi:232-12

> <Gold.Version>
5.8.1

> <Gold.Id.Protein>
6NUR|6NUR_protein|mol2

> <Gold.PLP.Fitness>
55.8440

> <Gold.PLP.PLP>
-56.8888

> <Gold.PLP.part.hbond>
-3.3601

> <Gold.PLP.part.metal>
0.0000

> <Gold.PLP.part.buried>
-1.7414

> <Gold.PLP.part.nonpolar>
-49.2867

> <Gold.PLP.part.repulsive>
0.1458

> <Gold.PLP.ligand.clash>
0.0000

> <Gold.PLP.ligand.torsion>
0.9707

> <Gold.PLP.Chemscore.Hbond>
0.1929

> <Gold.PLP.Chemscore.CHOScore>
0.0000

> <Gold.PLP.Chemscore.Metal>
0.0000

> <Gold.PLP.Chemscore.Internal.Correction>
0.3180

> <Gold.Rescore>
     Score         DG    S(hbond)    S(metal)    S(lipo)     H(rot)  DE(clash)    DE(int)     intcor
      9.89     -14.11       0.59        0.00     109.86       2.43       0.76       3.46       ----

> <Gold.Chemscore.Fitness>
9.8914

> <Gold.Chemscore.DG>
-14.1105

> <Gold.Chemscore.ZeroCoef>
-5.4800

> <Gold.Chemscore.Hbond>
0.5949

> <Gold.Chemscore.Metal>
0.0000

> <Gold.Chemscore.Lipo>
109.8640

> <Gold.Chemscore.Internal_Hbond>
0.0000

> <Gold.Chemscore.DEClash>
0.7559

> <Gold.Chemscore.DEInternal>
3.4631

> <Gold.Chemscore.Rot>
2.4260

> <Gold.Chemscore.Internal.Correction>
   9.000000E+99

> <Gold.Chemscore.Hbond.Weighted>
-1.9871

> <Gold.Chemscore.Metal.Weighted>
-0.0000

> <Gold.Chemscore.Lipo.Weighted>
-12.8541

> <Gold.Chemscore.Internal_Hbond.Weighted>
0.0000

> <Gold.Chemscore.DEClash.Weighted>
0.7559

> <Gold.Chemscore.DEInternal.Weighted>
3.4631

> <Gold.Chemscore.Rot.Weighted>
6.2107

> <Gold.Chemscore.Internal.Correction.Weighted>
   9.000000E+99

> <Gold.Protein.RotatedTorsions>
[ 6907 6896 6895 6894 ] final  100.08 input  -60.11 | X-H torsion
[ 7974 7965 7964 7962 ] final   22.17 input  175.53 | X-H torsion
[ 8008 7997 7996 7995 ] final   -3.56 input   59.86 | X-H torsion
[ 10167 10162 10161 10158 ] final   98.15 input  -65.29 | X-H torsion
[ 10718 10713 10712 10709 ] final  116.66 input   66.30 | X-H torsion
[ 10763 10752 10751 10750 ] final  -72.16 input  -60.55 | X-H torsion
[ 11005 11000 10999 10996 ] final  122.80 input  -57.11 | X-H torsion

> <Gold.Protein.ActiveResidues>
 VAL166  LYS551  ARG553  GLY616  TRP617  ASP618  TYR619  PRO620  LYS621  CYS622 
 ASP623  PHE694  ASN695  SER759  ASP760  ASP761  ALA762  ILE779  LEU786  VAL792 
 PHE793  MET794  SER795  GLU796  ALA797  LYS798  CYS799  TRP800  GLU811  SER814 

> <Gold.Protein.RotatedAtoms>
  152.5379  134.0331  159.8033 H   0  0  0  0  0  0  0  0  0  0  0  0  # atno 6907 bound_to 6896
  151.0499  133.5625  159.2650 H   0  0  0  0  0  0  0  0  0  0  0  0  # atno 6908 bound_to 6896
  151.2564  135.0647  159.9135 H   0  0  0  0  0  0  0  0  0  0  0  0  # atno 6909 bound_to 6896
  146.2040  139.7923  142.8740 H   0  0  0  0  0  0  0  0  0  0  0  0  # atno 7974 bound_to 7965
  154.6236  140.2506  155.7519 H   0  0  0  0  0  0  0  0  0  0  0  0  # atno 8008 bound_to 7997
  156.2440  140.2921  156.0474 H   0  0  0  0  0  0  0  0  0  0  0  0  # atno 8009 bound_to 7997
  155.1857  140.0390  157.2881 H   0  0  0  0  0  0  0  0  0  0  0  0  # atno 8010 bound_to 7997
  139.7735  144.6914  151.0123 H   0  0  0  0  0  0  0  0  0  0  0  0  # atno 10167 bound_to 10162
  157.6146  131.1028  150.7504 H   0  0  0  0  0  0  0  0  0  0  0  0  # atno 10718 bound_to 10713
  154.4419  135.5939  153.6135 H   0  0  0  0  0  0  0  0  0  0  0  0  # atno 10763 bound_to 10752
  152.9806  135.6000  154.3712 H   0  0  0  0  0  0  0  0  0  0  0  0  # atno 10764 bound_to 10752
  154.3563  135.2841  155.2323 H   0  0  0  0  0  0  0  0  0  0  0  0  # atno 10765 bound_to 10752
  139.9284  134.9641  156.8164 H   0  0  0  0  0  0  0  0  0  0  0  0  # atno 11005 bound_to 11000
  145.3385  141.0282  143.3406 LP  0  0  0  0  0  0  0  0  0  0  0  0  # atno 17320 bound_to 7965
  144.8749  139.4986  143.6750 LP  0  0  0  0  0  0  0  0  0  0  0  0  # atno 17321 bound_to 7965
  140.7815  143.4562  151.0342 LP  0  0  0  0  0  0  0  0  0  0  0  0  # atno 17342 bound_to 10162
  139.8245  143.7774  152.3178 LP  0  0  0  0  0  0  0  0  0  0  0  0  # atno 17343 bound_to 10162
  156.7874  130.4879  149.5390 LP  0  0  0  0  0  0  0  0  0  0  0  0  # atno 17370 bound_to 10713
  156.1263  130.6146  151.0268 LP  0  0  0  0  0  0  0  0  0  0  0  0  # atno 17371 bound_to 10713
  140.6270  133.9941  155.7644 LP  0  0  0  0  0  0  0  0  0  0  0  0  # atno 17394 bound_to 11000
  141.0857  133.9994  157.3316 LP  0  0  0  0  0  0  0  0  0  0  0  0  # atno 17395 bound_to 11000

$$$$
