AV-unprocessed.smi:1513|AV-procd|sdf|6113|dock2
  -GOLD-   22720 6243D 1   1.00000     0.00000
 Structure written by MMmdl.
 33 34  0  0  0  0  0  0  0  0  4 V2000
  152.6656  136.9235  156.1926 N   0  5  0  0  0  0  0  0  0  0  0  0
  153.2120  137.4010  157.6406 S   0  0  0  0  0  0  0  0  0  0  0  0
  152.3956  136.7931  158.7017 O   0  0  0  0  0  0  0  0  0  0  0  0
  154.6646  137.1898  157.7639 O   0  0  0  0  0  0  0  0  0  0  0  0
  152.8150  138.9743  157.4741 N   0  5  0  0  0  0  0  0  0  0  0  0
  151.6653  139.5650  158.1525 C   0  0  0  0  0  0  0  0  0  0  0  0
  151.6911  141.0944  158.0555 C   0  0  0  0  0  0  0  0  0  0  0  0
  152.6883  141.7963  158.7785 C   0  0  0  0  0  0  0  0  0  0  0  0
  152.7514  143.2021  158.7149 C   0  0  0  0  0  0  0  0  0  0  0  0
  151.8124  143.8925  157.9297 C   0  0  0  0  0  0  0  0  0  0  0  0
  150.8710  143.2034  157.2536 N   0  3  0  0  0  0  0  0  0  0  0  0
  150.7596  141.8503  157.2741 C   0  0  0  0  0  0  0  0  0  0  0  0
  149.7052  141.2880  156.5236 N   0  0  0  0  0  0  0  0  0  0  0  0
  148.3886  141.5947  157.0697 C   0  0  0  0  0  0  0  0  0  0  0  0
  147.2970  140.8512  156.2802 C   0  0  0  0  0  0  0  0  0  0  0  0
  147.4131  141.1586  154.8936 O   0  0  0  0  0  0  0  0  0  0  0  0
  148.6717  140.7520  154.3646 C   0  0  0  0  0  0  0  0  0  0  0  0
  149.7950  141.5139  155.0863 C   0  0  0  0  0  0  0  0  0  0  0  0
  151.9552  137.5959  155.8795 H   0  0  0  0  0  0  0  0  0  0  0  0
  150.7232  139.1996  157.7425 H   0  0  0  0  0  0  0  0  0  0  0  0
  151.6377  139.3095  159.2122 H   0  0  0  0  0  0  0  0  0  0  0  0
  153.4140  141.2764  159.3898 H   0  0  0  0  0  0  0  0  0  0  0  0
  153.5092  143.7408  159.2644 H   0  0  0  0  0  0  0  0  0  0  0  0
  151.7825  144.9671  157.8251 H   0  0  0  0  0  0  0  0  0  0  0  0
  148.3485  141.3071  158.1212 H   0  0  0  0  0  0  0  0  0  0  0  0
  148.2135  142.6700  157.0214 H   0  0  0  0  0  0  0  0  0  0  0  0
  147.3710  139.7735  156.4280 H   0  0  0  0  0  0  0  0  0  0  0  0
  146.3097  141.1517  156.6307 H   0  0  0  0  0  0  0  0  0  0  0  0
  148.7967  139.6733  154.4755 H   0  0  0  0  0  0  0  0  0  0  0  0
  148.6954  140.9685  153.2965 H   0  0  0  0  0  0  0  0  0  0  0  0
  149.7131  142.5797  154.8697 H   0  0  0  0  0  0  0  0  0  0  0  0
  150.7679  141.1810  154.7226 H   0  0  0  0  0  0  0  0  0  0  0  0
  150.1970  143.7299  156.6980 H   0  0  0  0  0  0  0  0  0  0  0  0
  1  2  1  0  0  0  0
  1 19  1  0  0  0  0
  2  3  2  0  0  0  0
  2  4  2  0  0  0  0
  2  5  1  0  0  0  0
  5  6  1  0  0  0  0
  6  7  1  0  0  0  0
  6 20  1  0  0  0  0
  6 21  1  0  0  0  0
  7 12  1  0  0  0  0
  7  8  2  0  0  0  0
  8  9  1  0  0  0  0
  8 22  1  0  0  0  0
  9 10  2  0  0  0  0
  9 23  1  0  0  0  0
 10 11  1  0  0  0  0
 10 24  1  0  0  0  0
 11 12  2  0  0  0  0
 11 33  1  0  0  0  0
 12 13  1  0  0  0  0
 13 18  1  0  0  0  0
 13 14  1  0  0  0  0
 14 15  1  0  0  0  0
 14 25  1  0  0  0  0
 14 26  1  0  0  0  0
 15 16  1  0  0  0  0
 15 27  1  0  0  0  0
 15 28  1  0  0  0  0
 16 17  1  0  0  0  0
 17 18  1  0  0  0  0
 17 29  1  0  0  0  0
 17 30  1  0  0  0  0
 18 31  1  0  0  0  0
 18 32  1  0  0  0  0
M  CHG  1   1  -1
M  CHG  1   5  -1
M  CHG  1  11   1
M  END
> <s_m_source_file>
AV-unprocessed.smi

> <i_m_source_file_index>
1513

> <i_lp_mmshare_version>
43012

> <i_f3d_flags>
0

> <s_epik_input>
W05IMl1TKD1PKSg9TylbTkhdW0NIMl1jMVtjSF1bY0hdW2NIXW5jMU4yW0NIMl1bQ0gyXU9bQ0gyXVtDSDJdMg==

> <s_epik_cmdline>
J2VwaWtfcHl0aG9uJywgJy1waCcsICc3LjAnLCAnLXRuJywgJzgnLCAnLW1hJywgJzIwMCcsICctbWV0YWxfYmluZGluZycsICctaW1hZScsICc8aW5maWxlLm1hZT4nLCAnLW9tYWUnLCAnPG91dGZpbGUubWFlPic=

> <r_epik_Ionization_Penalty>
8.77184

> <r_epik_Ionization_Penalty_Charging>
8.77184

> <r_epik_Ionization_Penalty_Neutral>
3.18713e-12

> <r_epik_State_Penalty>
5.60098

> <r_epik_Charging_Adjusted_Penalty>
14.3728

> <i_epik_Tot_Q>
-1

> <i_epik_Tot_abs_Q>
3

> <r_epik_Metal_State_Penalty>
2.46454

> <b_epik_Metal_Only>
1

> <s_lp_Force_Field>
OPLS_2005

> <r_lp_Energy>
20.8309

> <b_lp_Chiralities_Consistent>
1

> <s_lp_Variant>
AV-unprocessed.smi:1513-6

> <Gold.Version>
5.8.1

> <Gold.Id.Protein>
6NUR|6NUR_protein|mol2

> <Gold.PLP.Fitness>
47.4665

> <Gold.PLP.PLP>
-28.2255

> <Gold.PLP.part.hbond>
-3.9452

> <Gold.PLP.part.metal>
0.0000

> <Gold.PLP.part.buried>
-4.3740

> <Gold.PLP.part.nonpolar>
-21.1291

> <Gold.PLP.part.repulsive>
0.1695

> <Gold.PLP.ligand.clash>
0.0000

> <Gold.PLP.ligand.torsion>
0.7480

> <Gold.PLP.Chemscore.Hbond>
6.5260

> <Gold.PLP.Chemscore.CHOScore>
0.0000

> <Gold.PLP.Chemscore.Metal>
0.0000

> <Gold.Chemscore.Hbonds>
donor molecule, donor type, donor heavy atom, donor atom, acceptor molecule, acceptor atom, score
      L1  H    11    33       P1  8028  2.00
      P1  H  6896  6907       L1     3  0.47
      P1  H  7997  8010       L1     5  1.82
      P1  H 10752 10765       L1     1  1.70

> <Gold.PLP.Chemscore.Internal.Correction>
1.1590

> <Gold.Rescore>
     Score         DG    S(hbond)    S(metal)    S(lipo)     H(rot)  DE(clash)    DE(int)     intcor
     18.45     -19.22       3.24        0.00      66.35       1.89       0.01       0.75       ----

> <Gold.Chemscore.Fitness>
18.4500

> <Gold.Chemscore.DG>
-19.2179

> <Gold.Chemscore.ZeroCoef>
-5.4800

> <Gold.Chemscore.Hbond>
3.2393

> <Gold.Chemscore.Metal>
0.0000

> <Gold.Chemscore.Lipo>
66.3496

> <Gold.Chemscore.Internal_Hbond>
0.0000

> <Gold.Chemscore.DEClash>
0.0137

> <Gold.Chemscore.DEInternal>
0.7542

> <Gold.Chemscore.Rot>
1.8922

> <Gold.Chemscore.Internal.Correction>
   9.000000E+99

> <Gold.Chemscore.Hbonds>
donor molecule, donor type, donor heavy atom, donor atom, acceptor molecule, acceptor atom, score
      L1  H    11    33       P1  8028  0.99
      P1  H  6896  6907       L1     3  0.45
      P1  H  7997  8010       L1     5  0.61
      P1  H 10752 10765       L1     1  0.83

> <Gold.Chemscore.Hbond.Weighted>
-10.8192

> <Gold.Chemscore.Metal.Weighted>
-0.0000

> <Gold.Chemscore.Lipo.Weighted>
-7.7629

> <Gold.Chemscore.Internal_Hbond.Weighted>
0.0000

> <Gold.Chemscore.DEClash.Weighted>
0.0137

> <Gold.Chemscore.DEInternal.Weighted>
0.7542

> <Gold.Chemscore.Rot.Weighted>
4.8441

> <Gold.Chemscore.Internal.Correction.Weighted>
   9.000000E+99

> <Gold.Protein.RotatedTorsions>
[ 6907 6896 6895 6894 ] final   17.18 input  -60.11 | X-H torsion
[ 7974 7965 7964 7962 ] final   44.86 input  175.53 | X-H torsion
[ 8008 7997 7996 7995 ] final   45.32 input   59.86 | X-H torsion
[ 10167 10162 10161 10158 ] final -126.89 input  -65.29 | X-H torsion
[ 10718 10713 10712 10709 ] final   72.17 input   66.30 | X-H torsion
[ 10763 10752 10751 10750 ] final -133.41 input  -60.55 | X-H torsion
[ 11005 11000 10999 10996 ] final  -75.94 input  -57.11 | X-H torsion

> <Gold.Protein.ActiveResidues>
 VAL166  LYS551  ARG553  GLY616  TRP617  ASP618  TYR619  PRO620  LYS621  CYS622 
 ASP623  PHE694  ASN695  SER759  ASP760  ASP761  ALA762  ILE779  LEU786  VAL792 
 PHE793  MET794  SER795  GLU796  ALA797  LYS798  CYS799  TRP800  GLU811  SER814 

> <Gold.Protein.RotatedAtoms>
  151.8456  135.0575  160.0452 H   0  0  0  0  0  0  0  0  0  0  0  0  # atno 6907 bound_to 6896
  152.2776  133.5435  159.5486 H   0  0  0  0  0  0  0  0  0  0  0  0  # atno 6908 bound_to 6896
  150.7176  134.0526  159.3846 H   0  0  0  0  0  0  0  0  0  0  0  0  # atno 6909 bound_to 6896
  146.0531  139.5028  142.9705 H   0  0  0  0  0  0  0  0  0  0  0  0  # atno 7974 bound_to 7965
  155.3339  140.3404  155.4239 H   0  0  0  0  0  0  0  0  0  0  0  0  # atno 8008 bound_to 7997
  156.1847  140.1676  156.8244 H   0  0  0  0  0  0  0  0  0  0  0  0  # atno 8009 bound_to 7997
  154.5373  140.0732  156.8433 H   0  0  0  0  0  0  0  0  0  0  0  0  # atno 8010 bound_to 7997
  139.9667  143.5890  152.2427 H   0  0  0  0  0  0  0  0  0  0  0  0  # atno 10167 bound_to 10162
  157.6488  130.9565  150.0892 H   0  0  0  0  0  0  0  0  0  0  0  0  # atno 10718 bound_to 10713
  154.8733  135.3767  154.4569 H   0  0  0  0  0  0  0  0  0  0  0  0  # atno 10763 bound_to 10752
  153.5240  135.7028  153.5722 H   0  0  0  0  0  0  0  0  0  0  0  0  # atno 10764 bound_to 10752
  153.3956  135.3961  155.1918 H   0  0  0  0  0  0  0  0  0  0  0  0  # atno 10765 bound_to 10752
  141.1650  133.6965  156.7593 H   0  0  0  0  0  0  0  0  0  0  0  0  # atno 11005 bound_to 11000
  145.6690  141.0221  143.1668 LP  0  0  0  0  0  0  0  0  0  0  0  0  # atno 17320 bound_to 7965
  144.7133  139.8288  143.7407 LP  0  0  0  0  0  0  0  0  0  0  0  0  # atno 17321 bound_to 7965
  139.6512  144.7661  151.2144 LP  0  0  0  0  0  0  0  0  0  0  0  0  # atno 17342 bound_to 10162
  140.7535  143.6157  150.8562 LP  0  0  0  0  0  0  0  0  0  0  0  0  # atno 17343 bound_to 10162
  156.1846  130.3651  149.8990 LP  0  0  0  0  0  0  0  0  0  0  0  0  # atno 17370 bound_to 10713
  156.6934  130.8904  151.3591 LP  0  0  0  0  0  0  0  0  0  0  0  0  # atno 17371 bound_to 10713
  140.2546  134.8514  157.3700 LP  0  0  0  0  0  0  0  0  0  0  0  0  # atno 17394 bound_to 11000
  140.1670  134.4657  155.7856 LP  0  0  0  0  0  0  0  0  0  0  0  0  # atno 17395 bound_to 11000

$$$$
