AV-unprocessed.smi:1022|AV-procd|sdf|4461|dock4
  -GOLD-   22720 2433D 1   1.00000     0.00000
 Structure written by MMmdl.
 32 33  0  0  0  0  0  0  0  0  2 V2000
  145.4184  138.6447  155.7240 C   0  0  0  0  0  0  0  0  0  0  0  0
  146.4477  139.5201  155.2998 O   0  0  0  0  0  0  0  0  0  0  0  0
  146.5075  139.6461  153.8872 C   0  0  0  0  0  0  0  0  0  0  0  0
  147.3588  140.8693  153.4997 C   0  0  1  0  0  0  0  0  0  0  0  0
  146.9053  142.1473  154.2197 C   0  0  0  0  0  0  0  0  0  0  0  0
  148.7749  140.6250  153.7656 N   0  0  0  0  0  0  0  0  0  0  0  0
  149.3414  140.4850  154.9731 C   0  0  0  0  0  0  0  0  0  0  0  0
  148.6483  140.5552  155.9909 O   0  0  0  0  0  0  0  0  0  0  0  0
  150.6769  140.2764  154.9271 N   0  5  0  0  0  0  0  0  0  0  0  0
  151.3700  140.1124  156.0659 C   0  0  0  0  0  0  0  0  0  0  0  0
  152.4966  139.3882  156.1238 N   0  0  0  0  0  0  0  0  0  0  0  0
  153.0538  139.3489  157.3937 N   0  0  0  0  0  0  0  0  0  0  0  0
  152.3422  140.0518  158.2780 C   0  0  0  0  0  0  0  0  0  0  0  0
  152.7340  140.1599  159.7137 C   0  0  0  0  0  0  0  0  0  0  0  0
  152.8468  141.5103  160.3835 C   0  0  0  0  0  0  0  0  0  0  0  0
  154.0880  140.6937  160.1281 C   0  0  0  0  0  0  0  0  0  0  0  0
  150.9187  140.8347  157.6098 S   0  0  0  0  0  0  0  0  0  0  0  0
  145.4126  138.5866  156.8123 H   0  0  0  0  0  0  0  0  0  0  0  0
  145.5726  137.6377  155.3341 H   0  0  0  0  0  0  0  0  0  0  0  0
  144.4395  139.0004  155.4000 H   0  0  0  0  0  0  0  0  0  0  0  0
  146.9301  138.7400  153.4498 H   0  0  0  0  0  0  0  0  0  0  0  0
  145.4994  139.7540  153.4841 H   0  0  0  0  0  0  0  0  0  0  0  0
  147.2335  141.0433  152.4296 H   0  0  0  0  0  0  0  0  0  0  0  0
  145.8572  142.3628  154.0113 H   0  0  0  0  0  0  0  0  0  0  0  0
  147.4898  143.0082  153.8936 H   0  0  0  0  0  0  0  0  0  0  0  0
  147.0188  142.0589  155.3007 H   0  0  0  0  0  0  0  0  0  0  0  0
  149.3831  140.5653  152.9622 H   0  0  0  0  0  0  0  0  0  0  0  0
  152.3134  139.3376  160.2895 H   0  0  0  0  0  0  0  0  0  0  0  0
  152.6920  142.3941  159.7675 H   0  0  0  0  0  0  0  0  0  0  0  0
  152.4993  141.5911  161.4115 H   0  0  0  0  0  0  0  0  0  0  0  0
  154.5685  140.2281  160.9859 H   0  0  0  0  0  0  0  0  0  0  0  0
  154.7631  141.0462  159.3507 H   0  0  0  0  0  0  0  0  0  0  0  0
  1  2  1  0  0  0  0
  1 18  1  0  0  0  0
  1 19  1  0  0  0  0
  1 20  1  0  0  0  0
  2  3  1  0  0  0  0
  3  4  1  0  0  0  0
  3 21  1  0  0  0  0
  3 22  1  0  0  0  0
  4  5  1  0  0  0  0
  4  6  1  0  0  0  0
  4 23  1  0  0  0  0
  5 24  1  0  0  0  0
  5 25  1  0  0  0  0
  5 26  1  0  0  0  0
  6  7  1  0  0  0  0
  6 27  1  0  0  0  0
  7  8  2  0  0  0  0
  7  9  1  0  0  0  0
  9 10  1  0  0  0  0
 10 17  1  0  0  0  0
 10 11  2  0  0  0  0
 11 12  1  0  0  0  0
 12 13  2  0  0  0  0
 13 14  1  0  0  0  0
 13 17  1  0  0  0  0
 14 16  1  0  0  0  0
 14 15  1  0  0  0  0
 14 28  1  0  0  0  0
 15 16  1  0  0  0  0
 15 29  1  0  0  0  0
 15 30  1  0  0  0  0
 16 31  1  0  0  0  0
 16 32  1  0  0  0  0
M  CHG  1   9  -1
M  END
> <s_m_source_file>
AV-unprocessed.smi

> <i_m_source_file_index>
1022

> <i_lp_mmshare_version>
43012

> <i_f3d_flags>
0

> <s_epik_input>
W0NIM11PW0NIMl1bQ0BIXShbQ0gzXSlbTkhdQyg9TylbTkhdYzFubmMoczEpW0NIXTJbQ0gyXVtDSDJdMg==

> <s_epik_cmdline>
J2VwaWtfcHl0aG9uJywgJy1waCcsICc3LjAnLCAnLXRuJywgJzgnLCAnLW1hJywgJzIwMCcsICctbWV0YWxfYmluZGluZycsICctaW1hZScsICc8aW5maWxlLm1hZT4nLCAnLW9tYWUnLCAnPG91dGZpbGUubWFlPic=

> <r_lp_tautomer_probability>
1

> <r_epik_Ionization_Penalty>
3.79487

> <r_epik_Ionization_Penalty_Charging>
3.64217

> <r_epik_Ionization_Penalty_Neutral>
0.152695

> <r_epik_State_Penalty>
3.6409

> <r_epik_Charging_Adjusted_Penalty>
7.28307

> <i_epik_Tot_Q>
-1

> <i_epik_Tot_abs_Q>
1

> <r_epik_Metal_State_Penalty>
0.534129

> <b_epik_Metal_Only>
1

> <s_lp_Force_Field>
OPLS_2005

> <r_lp_Energy>
0.506403

> <b_lp_Chiralities_Consistent>
1

> <s_lp_Variant>
AV-unprocessed.smi:1022-4

> <Gold.Version>
5.8.1

> <Gold.Id.Protein>
6NUR|6NUR_protein|mol2

> <Gold.PLP.Fitness>
39.7927

> <Gold.PLP.PLP>
-31.3738

> <Gold.PLP.part.hbond>
-3.9271

> <Gold.PLP.part.metal>
0.0000

> <Gold.PLP.part.buried>
-4.2658

> <Gold.PLP.part.nonpolar>
-23.8720

> <Gold.PLP.part.repulsive>
0.3524

> <Gold.PLP.ligand.clash>
0.0000

> <Gold.PLP.ligand.torsion>
0.3887

> <Gold.PLP.Chemscore.Hbond>
2.9920

> <Gold.PLP.Chemscore.CHOScore>
0.0000

> <Gold.PLP.Chemscore.Metal>
0.0000

> <Gold.Chemscore.Hbonds>
donor molecule, donor type, donor heavy atom, donor atom, acceptor molecule, acceptor atom, score
      L1  H     6    27       P1  7957  0.96
      P1  H  7989  7998       L1     9  1.00
      P1  H  7997  8009       L1    12  0.85

> <Gold.PLP.Chemscore.Internal.Correction>
0.2204

> <Gold.Rescore>
     Score         DG    S(hbond)    S(metal)    S(lipo)     H(rot)  DE(clash)    DE(int)     intcor
     10.60     -15.46       2.27        0.00      57.59       1.69       0.09       4.77       ----

> <Gold.Chemscore.Fitness>
10.5979

> <Gold.Chemscore.DG>
-15.4601

> <Gold.Chemscore.ZeroCoef>
-5.4800

> <Gold.Chemscore.Hbond>
2.2675

> <Gold.Chemscore.Metal>
0.0000

> <Gold.Chemscore.Lipo>
57.5936

> <Gold.Chemscore.Internal_Hbond>
0.0000

> <Gold.Chemscore.DEClash>
0.0910

> <Gold.Chemscore.DEInternal>
4.7712

> <Gold.Chemscore.Rot>
1.6921

> <Gold.Chemscore.Internal.Correction>
   9.000000E+99

> <Gold.Chemscore.Hbonds>
donor molecule, donor type, donor heavy atom, donor atom, acceptor molecule, acceptor atom, score
      L1  H     6    27       P1  7957  0.92
      P1  H  7989  7998       L1     9  0.89
      P1  H  7997  8009       L1    12  0.13

> <Gold.Chemscore.Hbond.Weighted>
-7.5733

> <Gold.Chemscore.Metal.Weighted>
-0.0000

> <Gold.Chemscore.Lipo.Weighted>
-6.7384

> <Gold.Chemscore.Internal_Hbond.Weighted>
0.0000

> <Gold.Chemscore.DEClash.Weighted>
0.0910

> <Gold.Chemscore.DEInternal.Weighted>
4.7712

> <Gold.Chemscore.Rot.Weighted>
4.3317

> <Gold.Chemscore.Internal.Correction.Weighted>
   9.000000E+99

> <Gold.Protein.RotatedTorsions>
[ 6907 6896 6895 6894 ] final  156.19 input  -60.11 | X-H torsion
[ 7974 7965 7964 7962 ] final   84.38 input  175.53 | X-H torsion
[ 8008 7997 7996 7995 ] final  157.28 input   59.86 | X-H torsion
[ 10167 10162 10161 10158 ] final  -80.19 input  -65.29 | X-H torsion
[ 10718 10713 10712 10709 ] final -100.59 input   66.30 | X-H torsion
[ 10763 10752 10751 10750 ] final  -80.19 input  -60.55 | X-H torsion
[ 11005 11000 10999 10996 ] final   36.30 input  -57.11 | X-H torsion

> <Gold.Protein.ActiveResidues>
 VAL166  LYS551  ARG553  GLY616  TRP617  ASP618  TYR619  PRO620  LYS621  CYS622 
 ASP623  PHE694  ASN695  SER759  ASP760  ASP761  ALA762  ILE779  LEU786  VAL792 
 PHE793  MET794  SER795  GLU796  ALA797  LYS798  CYS799  TRP800  GLU811  SER814 

> <Gold.Protein.RotatedAtoms>
  152.0333  133.3946  159.4305 H   0  0  0  0  0  0  0  0  0  0  0  0  # atno 6907 bound_to 6896
  150.6880  134.3496  159.4912 H   0  0  0  0  0  0  0  0  0  0  0  0  # atno 6908 bound_to 6896
  152.1286  134.9152  160.0610 H   0  0  0  0  0  0  0  0  0  0  0  0  # atno 6909 bound_to 6896
  145.5994  139.2350  143.2254 H   0  0  0  0  0  0  0  0  0  0  0  0  # atno 7974 bound_to 7965
  156.2373  140.1889  156.7085 H   0  0  0  0  0  0  0  0  0  0  0  0  # atno 8008 bound_to 7997
  154.6130  140.0619  156.9545 H   0  0  0  0  0  0  0  0  0  0  0  0  # atno 8009 bound_to 7997
  155.1985  140.3290  155.4349 H   0  0  0  0  0  0  0  0  0  0  0  0  # atno 8010 bound_to 7997
  140.4525  143.2478  151.8468 H   0  0  0  0  0  0  0  0  0  0  0  0  # atno 10167 bound_to 10162
  156.0168  130.5335  150.6839 H   0  0  0  0  0  0  0  0  0  0  0  0  # atno 10718 bound_to 10713
  154.5481  135.5669  153.6898 H   0  0  0  0  0  0  0  0  0  0  0  0  # atno 10763 bound_to 10752
  152.9982  135.6244  154.2411 H   0  0  0  0  0  0  0  0  0  0  0  0  # atno 10764 bound_to 10752
  154.2345  135.2864  155.2857 H   0  0  0  0  0  0  0  0  0  0  0  0  # atno 10765 bound_to 10752
  140.2340  134.3494  155.7952 H   0  0  0  0  0  0  0  0  0  0  0  0  # atno 11005 bound_to 11000
  146.1587  140.6820  142.9287 LP  0  0  0  0  0  0  0  0  0  0  0  0  # atno 17320 bound_to 7965
  144.7316  140.4688  143.6933 LP  0  0  0  0  0  0  0  0  0  0  0  0  # atno 17321 bound_to 7965
  139.4798  144.5103  151.8941 LP  0  0  0  0  0  0  0  0  0  0  0  0  # atno 17342 bound_to 10162
  140.4190  144.2268  150.5887 LP  0  0  0  0  0  0  0  0  0  0  0  0  # atno 17343 bound_to 10162
  157.4536  131.0875  151.0820 LP  0  0  0  0  0  0  0  0  0  0  0  0  # atno 17370 bound_to 10713
  157.1329  130.6110  149.5534 LP  0  0  0  0  0  0  0  0  0  0  0  0  # atno 17371 bound_to 10713
  141.2216  133.7261  156.8777 LP  0  0  0  0  0  0  0  0  0  0  0  0  # atno 17394 bound_to 11000
  140.1721  134.9092  157.2846 LP  0  0  0  0  0  0  0  0  0  0  0  0  # atno 17395 bound_to 11000

$$$$
