AV-unprocessed.smi:77|AV-procd|sdf|771|dock3
  -GOLD-   2262017113D 1   1.00000     0.00000
 Structure written by MMmdl.
 57 61  0  0  0  0  0  0  0  0  1 V2000
  148.8104  130.1136  159.9379 O   0  0  0  0  0  0  0  0  0  0  0  0
  148.4832  130.8893  160.8372 C   0  0  0  0  0  0  0  0  0  0  0  0
  147.2480  131.7871  160.6865 C   0  0  0  0  0  0  0  0  0  0  0  0
  147.5805  133.2146  160.6258 N   0  0  0  0  0  0  0  0  0  0  0  0
  147.6861  133.7183  159.3750 C   0  0  0  0  0  0  0  0  0  0  0  0
  148.7510  134.4955  159.0446 N   0  0  0  0  0  0  0  0  0  0  0  0
  148.8503  134.9970  157.8093 C   0  0  0  0  0  0  0  0  0  0  0  0
  148.0158  134.8489  156.7773 N   0  0  0  0  0  0  0  0  0  0  0  0
  146.9494  134.0663  157.1111 C   0  0  0  0  0  0  0  0  0  0  0  0
  146.7123  133.4610  158.3756 C   0  0  0  0  0  0  0  0  0  0  0  0
  145.5323  132.7293  158.3430 N   0  0  0  0  0  0  0  0  0  0  0  0
  145.0883  132.9019  157.1279 C   0  0  0  0  0  0  0  0  0  0  0  0
  145.8729  133.6990  156.3241 N   0  0  0  0  0  0  0  0  0  0  0  0
  145.6194  134.0628  154.9421 C   0  0  0  0  0  0  0  0  0  0  0  0
  146.6044  133.4182  153.9301 C   0  0  2  0  0  0  0  0  0  0  0  0
  148.0821  133.7808  154.2290 C   0  0  0  0  0  0  0  0  0  0  0  0
  148.3246  135.1666  154.0981 O   0  0  0  0  0  0  0  0  0  0  0  0
  146.2183  133.8055  152.4786 C   0  0  2  0  0  0  0  0  0  0  0  0
  144.8263  133.3728  152.0479 C   0  0  0  0  0  0  0  0  0  0  0  0
  144.9194  133.4498  150.5295 C   0  0  0  0  0  0  0  0  0  0  0  0
  146.2548  133.0762  150.2157 O   0  0  0  0  0  0  0  0  0  0  0  0
  147.0641  133.1354  151.3866 C   0  0  0  0  0  0  0  0  0  0  0  0
  146.8352  134.0896  161.5201 C   0  0  0  0  0  0  0  0  0  0  0  0
  147.3234  135.5018  161.7485 C   0  0  0  0  0  0  0  0  0  0  0  0
  147.4591  134.4662  162.8417 C   0  0  0  0  0  0  0  0  0  0  0  0
  149.1723  131.0265  161.9792 N   0  0  0  0  0  0  0  0  0  0  0  0
  150.3451  130.2941  162.3327 C   0  0  0  0  0  0  0  0  0  0  0  0
  150.2833  129.4295  163.5734 C   0  0  0  0  0  0  0  0  0  0  0  0
  151.0802  130.7047  163.5901 C   0  0  0  0  0  0  0  0  0  0  0  0
  146.6709  131.4882  159.8095 H   0  0  0  0  0  0  0  0  0  0  0  0
  146.6048  131.6068  161.5491 H   0  0  0  0  0  0  0  0  0  0  0  0
  149.7212  135.6075  157.6215 H   0  0  0  0  0  0  0  0  0  0  0  0
  144.1656  132.4566  156.7855 H   0  0  0  0  0  0  0  0  0  0  0  0
  144.5926  133.7721  154.7202 H   0  0  0  0  0  0  0  0  0  0  0  0
  145.6568  135.1499  154.8592 H   0  0  0  0  0  0  0  0  0  0  0  0
  146.5053  132.3340  154.0069 H   0  0  0  0  0  0  0  0  0  0  0  0
  148.3552  133.5209  155.2505 H   0  0  0  0  0  0  0  0  0  0  0  0
  148.7570  133.2273  153.5755 H   0  0  0  0  0  0  0  0  0  0  0  0
  148.5627  135.3483  153.2017 H   0  0  0  0  0  0  0  0  0  0  0  0
  146.2916  134.8881  152.3606 H   0  0  0  0  0  0  0  0  0  0  0  0
  144.6316  132.3454  152.3592 H   0  0  0  0  0  0  0  0  0  0  0  0
  144.0329  134.0074  152.4439 H   0  0  0  0  0  0  0  0  0  0  0  0
  144.1948  132.8053  150.0312 H   0  0  0  0  0  0  0  0  0  0  0  0
  144.7545  134.4733  150.1901 H   0  0  0  0  0  0  0  0  0  0  0  0
  147.9890  133.6758  151.1848 H   0  0  0  0  0  0  0  0  0  0  0  0
  147.3259  132.1150  151.6694 H   0  0  0  0  0  0  0  0  0  0  0  0
  145.7553  133.9513  161.5260 H   0  0  0  0  0  0  0  0  0  0  0  0
  148.2344  135.8169  161.2431 H   0  0  0  0  0  0  0  0  0  0  0  0
  146.5710  136.2767  161.8784 H   0  0  0  0  0  0  0  0  0  0  0  0
  146.7981  134.5517  163.7016 H   0  0  0  0  0  0  0  0  0  0  0  0
  148.4578  134.0901  163.0560 H   0  0  0  0  0  0  0  0  0  0  0  0
  148.8341  131.6954  162.6559 H   0  0  0  0  0  0  0  0  0  0  0  0
  150.9614  129.9133  161.5193 H   0  0  0  0  0  0  0  0  0  0  0  0
  149.3522  129.4121  164.1369 H   0  0  0  0  0  0  0  0  0  0  0  0
  150.8362  128.4922  163.5597 H   0  0  0  0  0  0  0  0  0  0  0  0
  152.1651  130.6195  163.5868 H   0  0  0  0  0  0  0  0  0  0  0  0
  150.6809  131.5392  164.1635 H   0  0  0  0  0  0  0  0  0  0  0  0
  1  2  2  0  0  0  0
  2  3  1  0  0  0  0
  2 26  1  0  0  0  0
  3  4  1  0  0  0  0
  3 30  1  0  0  0  0
  3 31  1  0  0  0  0
  4  5  1  0  0  0  0
  4 23  1  0  0  0  0
  5 10  1  0  0  0  0
  5  6  2  0  0  0  0
  6  7  1  0  0  0  0
  7  8  2  0  0  0  0
  7 32  1  0  0  0  0
  8  9  1  0  0  0  0
  9 13  1  0  0  0  0
  9 10  2  0  0  0  0
 10 11  1  0  0  0  0
 11 12  2  0  0  0  0
 12 13  1  0  0  0  0
 12 33  1  0  0  0  0
 13 14  1  0  0  0  0
 14 15  1  0  0  0  0
 14 34  1  0  0  0  0
 14 35  1  0  0  0  0
 15 16  1  0  0  0  0
 15 18  1  0  0  0  0
 15 36  1  0  0  0  0
 16 17  1  0  0  0  0
 16 37  1  0  0  0  0
 16 38  1  0  0  0  0
 17 39  1  0  0  0  0
 18 22  1  0  0  0  0
 18 19  1  0  0  0  0
 18 40  1  0  0  0  0
 19 20  1  0  0  0  0
 19 41  1  0  0  0  0
 19 42  1  0  0  0  0
 20 21  1  0  0  0  0
 20 43  1  0  0  0  0
 20 44  1  0  0  0  0
 21 22  1  0  0  0  0
 22 45  1  0  0  0  0
 22 46  1  0  0  0  0
 23 25  1  0  0  0  0
 23 24  1  0  0  0  0
 23 47  1  0  0  0  0
 24 25  1  0  0  0  0
 24 48  1  0  0  0  0
 24 49  1  0  0  0  0
 25 50  1  0  0  0  0
 25 51  1  0  0  0  0
 26 27  1  0  0  0  0
 26 52  1  0  0  0  0
 27 29  1  0  0  0  0
 27 28  1  0  0  0  0
 27 53  1  0  0  0  0
 28 29  1  0  0  0  0
 28 54  1  0  0  0  0
 28 55  1  0  0  0  0
 29 56  1  0  0  0  0
 29 57  1  0  0  0  0
M  END
> <s_m_source_file>
AV-unprocessed.smi

> <i_m_source_file_index>
77

> <i_lp_mmshare_version>
43012

> <i_f3d_flags>
0

> <s_epik_input>
W0NIMl0xW0NIMl1bQ0hdMVtOSF1DKD1PKVtDSDJdTihbQ0hdMltDSDJdW0NIMl0yKWMobltjSF1uMyljKGMzNCluW2NIXW40W0NIMl1bQ0BIXShbQ0gyXVtPSF0pW0NAQEhdNVtDSDJdW0NIMl1PW0NIMl01

> <s_epik_cmdline>
J2VwaWtfcHl0aG9uJywgJy1waCcsICc3LjAnLCAnLXRuJywgJzgnLCAnLW1hJywgJzIwMCcsICctbWV0YWxfYmluZGluZycsICctaW1hZScsICc8aW5maWxlLm1hZT4nLCAnLW9tYWUnLCAnPG91dGZpbGUubWFlPic=

> <r_lp_tautomer_probability>
1

> <r_epik_Ionization_Penalty>
0.000703847

> <r_epik_Ionization_Penalty_Charging>
0

> <r_epik_Ionization_Penalty_Neutral>
0.000703847

> <r_epik_State_Penalty>
0.00034025

> <r_epik_Charging_Adjusted_Penalty>
0.00034025

> <i_epik_Tot_Q>
0

> <i_epik_Tot_abs_Q>
0

> <r_epik_Metal_State_Penalty>
-0

> <b_epik_Metal_Only>
0

> <s_lp_Force_Field>
OPLS_2005

> <r_lp_Energy>
55.2708

> <b_lp_Chiralities_Consistent>
1

> <s_lp_Variant>
AV-unprocessed.smi:77-1

> <Gold.Version>
5.8.1

> <Gold.Id.Protein>
6NUR|6NUR_protein|mol2

> <Gold.PLP.Fitness>
41.3394

> <Gold.PLP.PLP>
-34.0367

> <Gold.PLP.part.hbond>
-1.9948

> <Gold.PLP.part.metal>
0.0000

> <Gold.PLP.part.buried>
-4.4845

> <Gold.PLP.part.nonpolar>
-27.5013

> <Gold.PLP.part.repulsive>
0.5963

> <Gold.PLP.ligand.clash>
0.0000

> <Gold.PLP.ligand.torsion>
1.9221

> <Gold.PLP.Chemscore.Hbond>
2.0000

> <Gold.PLP.Chemscore.CHOScore>
1.0000

> <Gold.PLP.Chemscore.Metal>
0.0000

> <Gold.Chemscore.Hbonds>
donor molecule, donor type, donor heavy atom, donor atom, acceptor molecule, acceptor atom, score
      L1  H    17    39       P1  7948  1.00
      P1  H  6896  6907       L1     6  0.95
      L1  C    12    33       P1 10957  0.96

> <Gold.PLP.Chemscore.Internal.Correction>
2.1468

> <Gold.Rescore>
     Score         DG    S(hbond)    S(metal)    S(lipo)     H(rot)  DE(clash)    DE(int)     intcor
      5.88     -10.24       1.53        0.00      79.51       3.77       0.11       4.25       ----

> <Gold.Chemscore.Fitness>
5.8808

> <Gold.Chemscore.DG>
-10.2370

> <Gold.Chemscore.ZeroCoef>
-5.4800

> <Gold.Chemscore.Hbond>
1.5298

> <Gold.Chemscore.Metal>
0.0000

> <Gold.Chemscore.Lipo>
79.5051

> <Gold.Chemscore.Internal_Hbond>
0.0000

> <Gold.Chemscore.DEClash>
0.1104

> <Gold.Chemscore.DEInternal>
4.2458

> <Gold.Chemscore.Rot>
3.7714

> <Gold.Chemscore.Internal.Correction>
   9.000000E+99

> <Gold.Chemscore.Hbonds>
donor molecule, donor type, donor heavy atom, donor atom, acceptor molecule, acceptor atom, score
      L1  H    17    39       P1  7948  0.92
      P1  H  6896  6907       L1     6  0.21

> <Gold.Chemscore.Hbond.Weighted>
-5.1097

> <Gold.Chemscore.Metal.Weighted>
-0.0000

> <Gold.Chemscore.Lipo.Weighted>
-9.3021

> <Gold.Chemscore.Internal_Hbond.Weighted>
0.0000

> <Gold.Chemscore.DEClash.Weighted>
0.1104

> <Gold.Chemscore.DEInternal.Weighted>
4.2458

> <Gold.Chemscore.Rot.Weighted>
9.6548

> <Gold.Chemscore.Internal.Correction.Weighted>
   9.000000E+99

> <Gold.Protein.RotatedTorsions>
[ 6907 6896 6895 6894 ] final  -89.63 input  -60.11 | X-H torsion
[ 7974 7965 7964 7962 ] final  -66.36 input  175.53 | X-H torsion
[ 8008 7997 7996 7995 ] final  -20.33 input   59.86 | X-H torsion
[ 10167 10162 10161 10158 ] final -100.26 input  -65.29 | X-H torsion
[ 10718 10713 10712 10709 ] final   -2.53 input   66.30 | X-H torsion
[ 10763 10752 10751 10750 ] final  -14.01 input  -60.55 | X-H torsion
[ 11005 11000 10999 10996 ] final -135.90 input  -57.11 | X-H torsion

> <Gold.Protein.ActiveResidues>
 VAL166  LYS551  ARG553  GLY616  TRP617  ASP618  TYR619  PRO620  LYS621  CYS622 
 ASP623  PHE694  ASN695  SER759  ASP760  ASP761  ALA762  ILE779  LEU786  VAL792 
 PHE793  MET794  SER795  GLU796  ALA797  LYS798  CYS799  TRP800  GLU811  SER814 

> <Gold.Protein.RotatedAtoms>
  150.6875  134.2558  159.4528 H   0  0  0  0  0  0  0  0  0  0  0  0  # atno 6907 bound_to 6896
  152.0492  134.9662  160.0584 H   0  0  0  0  0  0  0  0  0  0  0  0  # atno 6908 bound_to 6896
  152.1133  133.4278  159.4678 H   0  0  0  0  0  0  0  0  0  0  0  0  # atno 6909 bound_to 6896
  145.7427  140.8946  143.0521 H   0  0  0  0  0  0  0  0  0  0  0  0  # atno 7974 bound_to 7965
  154.4777  140.2065  155.9838 H   0  0  0  0  0  0  0  0  0  0  0  0  # atno 8008 bound_to 7997
  156.1116  140.3228  155.8050 H   0  0  0  0  0  0  0  0  0  0  0  0  # atno 8009 bound_to 7997
  155.4625  140.0525  157.2980 H   0  0  0  0  0  0  0  0  0  0  0  0  # atno 8010 bound_to 7997
  140.2538  143.3454  152.0690 H   0  0  0  0  0  0  0  0  0  0  0  0  # atno 10167 bound_to 10162
  156.7894  130.5356  149.5738 H   0  0  0  0  0  0  0  0  0  0  0  0  # atno 10718 bound_to 10713
  153.5218  135.7015  153.5727 H   0  0  0  0  0  0  0  0  0  0  0  0  # atno 10763 bound_to 10752
  153.3773  135.3929  155.1831 H   0  0  0  0  0  0  0  0  0  0  0  0  # atno 10764 bound_to 10752
  154.8694  135.3826  154.4708 H   0  0  0  0  0  0  0  0  0  0  0  0  # atno 10765 bound_to 10752
  140.8855  134.1877  157.4562 H   0  0  0  0  0  0  0  0  0  0  0  0  # atno 11005 bound_to 11000
  144.6867  139.9483  143.7477 LP  0  0  0  0  0  0  0  0  0  0  0  0  # atno 17320 bound_to 7965
  146.0432  139.3441  143.0685 LP  0  0  0  0  0  0  0  0  0  0  0  0  # atno 17321 bound_to 7965
  139.5038  144.6762  151.6122 LP  0  0  0  0  0  0  0  0  0  0  0  0  # atno 17342 bound_to 10162
  140.6020  143.9593  150.6392 LP  0  0  0  0  0  0  0  0  0  0  0  0  # atno 17343 bound_to 10162
  156.1168  130.6081  151.0133 LP  0  0  0  0  0  0  0  0  0  0  0  0  # atno 17370 bound_to 10713
  157.6608  131.0881  150.7843 LP  0  0  0  0  0  0  0  0  0  0  0  0  # atno 17371 bound_to 10713
  139.8724  134.9836  156.5205 LP  0  0  0  0  0  0  0  0  0  0  0  0  # atno 17394 bound_to 11000
  140.8409  133.8205  155.9074 LP  0  0  0  0  0  0  0  0  0  0  0  0  # atno 17395 bound_to 11000

$$$$
