AV-unprocessed.smi:1296|AV-procd|sdf|5415|dock3
  -GOLD-   22720 4573D 1   1.00000     0.00000
 Structure written by MMmdl.
 35 35  0  0  0  0  0  0  0  0  2 V2000
  148.0258  141.4325  152.9734 C   0  0  0  0  0  0  0  0  0  0  0  0
  149.1298  141.0089  153.9184 C   0  0  0  0  0  0  0  0  0  0  0  0
  149.6201  139.8322  153.8197 N   0  0  0  0  0  0  0  0  0  0  0  0
  150.6412  139.4328  154.6984 C   0  0  0  0  0  0  0  0  0  0  0  0
  151.1568  138.0160  154.5143 C   0  0  0  0  0  0  0  0  0  0  0  0
  151.1232  140.2795  155.6530 C   0  0  0  0  0  0  0  0  0  0  0  0
  152.2250  139.8859  156.6373 C   0  0  0  0  0  0  0  0  0  0  0  0
  151.9116  140.1257  158.1161 C   0  0  0  0  0  0  0  0  0  0  0  0
  150.9315  139.5933  158.6366 O   0  0  0  0  0  0  0  0  0  0  0  0
  152.7527  140.9365  158.7762 N   0  0  0  0  0  0  0  0  0  0  0  0
  152.6412  141.3144  160.1815 C   0  0  0  0  0  0  0  0  0  0  0  0
  152.9968  142.7979  160.4003 C   0  0  0  0  0  0  0  0  0  0  0  0
  152.6340  143.2825  161.8150 C   0  0  0  0  0  0  0  0  0  0  0  0
  152.3260  143.6802  159.3369 C   0  0  0  0  0  0  0  0  0  0  0  0
  150.5365  141.6298  155.7282 C   0  0  0  0  0  0  0  0  0  0  0  0
  150.9428  142.4390  156.5614 O   0  0  0  0  0  0  0  0  0  0  0  0
  149.5426  141.9380  154.8467 N   0  5  0  0  0  0  0  0  0  0  0  0
  147.8763  140.6918  152.1865 H   0  0  0  0  0  0  0  0  0  0  0  0
  148.2726  142.3844  152.5024 H   0  0  0  0  0  0  0  0  0  0  0  0
  147.0884  141.5483  153.5181 H   0  0  0  0  0  0  0  0  0  0  0  0
  150.9740  137.4226  155.4102 H   0  0  0  0  0  0  0  0  0  0  0  0
  152.2277  138.0203  154.3107 H   0  0  0  0  0  0  0  0  0  0  0  0
  150.6609  137.5214  153.6782 H   0  0  0  0  0  0  0  0  0  0  0  0
  152.4994  138.8379  156.5162 H   0  0  0  0  0  0  0  0  0  0  0  0
  153.1272  140.4375  156.3711 H   0  0  0  0  0  0  0  0  0  0  0  0
  153.5297  141.3255  158.2621 H   0  0  0  0  0  0  0  0  0  0  0  0
  151.6133  141.1273  160.4940 H   0  0  0  0  0  0  0  0  0  0  0  0
  153.2753  140.6902  160.8134 H   0  0  0  0  0  0  0  0  0  0  0  0
  154.0755  142.9069  160.2791 H   0  0  0  0  0  0  0  0  0  0  0  0
  151.5664  143.1724  162.0085 H   0  0  0  0  0  0  0  0  0  0  0  0
  152.8887  144.3345  161.9466 H   0  0  0  0  0  0  0  0  0  0  0  0
  153.1697  142.7224  162.5815 H   0  0  0  0  0  0  0  0  0  0  0  0
  151.2389  143.6202  159.4000 H   0  0  0  0  0  0  0  0  0  0  0  0
  152.6180  143.3754  158.3315 H   0  0  0  0  0  0  0  0  0  0  0  0
  152.6090  144.7263  159.4569 H   0  0  0  0  0  0  0  0  0  0  0  0
  1  2  1  0  0  0  0
  1 18  1  0  0  0  0
  1 19  1  0  0  0  0
  1 20  1  0  0  0  0
  2 17  1  0  0  0  0
  2  3  2  0  0  0  0
  3  4  1  0  0  0  0
  4  5  1  0  0  0  0
  4  6  2  0  0  0  0
  5 21  1  0  0  0  0
  5 22  1  0  0  0  0
  5 23  1  0  0  0  0
  6  7  1  0  0  0  0
  6 15  1  0  0  0  0
  7  8  1  0  0  0  0
  7 24  1  0  0  0  0
  7 25  1  0  0  0  0
  8  9  2  0  0  0  0
  8 10  1  0  0  0  0
 10 11  1  0  0  0  0
 10 26  1  0  0  0  0
 11 12  1  0  0  0  0
 11 27  1  0  0  0  0
 11 28  1  0  0  0  0
 12 13  1  0  0  0  0
 12 14  1  0  0  0  0
 12 29  1  0  0  0  0
 13 30  1  0  0  0  0
 13 31  1  0  0  0  0
 13 32  1  0  0  0  0
 14 33  1  0  0  0  0
 14 34  1  0  0  0  0
 14 35  1  0  0  0  0
 15 16  2  0  0  0  0
 15 17  1  0  0  0  0
M  CHG  1  17  -1
M  END
> <s_m_source_file>
AV-unprocessed.smi

> <i_m_source_file_index>
1296

> <i_lp_mmshare_version>
43012

> <i_f3d_flags>
0

> <s_epik_input>
W0NIM11jMW5jKFtDSDNdKWMoYyg9TylbbkhdMSlbQ0gyXUMoPU8pW05IXVtDSDJdW0NIXShbQ0gzXSlbQ0gzXQ==

> <s_epik_cmdline>
J2VwaWtfcHl0aG9uJywgJy1waCcsICc3LjAnLCAnLXRuJywgJzgnLCAnLW1hJywgJzIwMCcsICctbWV0YWxfYmluZGluZycsICctaW1hZScsICc8aW5maWxlLm1hZT4nLCAnLW9tYWUnLCAnPG91dGZpbGUubWFlPic=

> <r_lp_tautomer_probability>
0.839158

> <r_epik_Ionization_Penalty>
6.60351

> <r_epik_Ionization_Penalty_Charging>
6.70818e-08

> <r_epik_Ionization_Penalty_Neutral>
6.60351

> <r_epik_State_Penalty>
4.42903

> <r_epik_Charging_Adjusted_Penalty>
4.42903

> <i_epik_Tot_Q>
-1

> <i_epik_Tot_abs_Q>
1

> <r_epik_Metal_State_Penalty>
0.797668

> <b_epik_Metal_Only>
1

> <s_lp_Force_Field>
OPLS_2005

> <r_lp_Energy>
9.77774

> <b_lp_Chiralities_Consistent>
1

> <s_lp_Variant>
AV-unprocessed.smi:1296-3

> <Gold.Version>
5.8.1

> <Gold.Id.Protein>
6NUR|6NUR_protein|mol2

> <Gold.PLP.Fitness>
36.4478

> <Gold.PLP.PLP>
-37.0219

> <Gold.PLP.part.hbond>
0.0000

> <Gold.PLP.part.metal>
0.0000

> <Gold.PLP.part.buried>
-5.4914

> <Gold.PLP.part.nonpolar>
-32.8652

> <Gold.PLP.part.repulsive>
1.9349

> <Gold.PLP.ligand.clash>
0.0000

> <Gold.PLP.ligand.torsion>
0.2953

> <Gold.PLP.Chemscore.Hbond>
0.0000

> <Gold.PLP.Chemscore.CHOScore>
0.0000

> <Gold.PLP.Chemscore.Metal>
0.0000

> <Gold.PLP.Chemscore.Internal.Correction>
0.0166

> <Gold.Rescore>
     Score         DG    S(hbond)    S(metal)    S(lipo)     H(rot)  DE(clash)    DE(int)     intcor
      8.81     -10.50       0.00        0.00      79.72       1.68       0.12       1.57       ----

> <Gold.Chemscore.Fitness>
8.8113

> <Gold.Chemscore.DG>
-10.5038

> <Gold.Chemscore.ZeroCoef>
-5.4800

> <Gold.Chemscore.Hbond>
0.0000

> <Gold.Chemscore.Metal>
0.0000

> <Gold.Chemscore.Lipo>
79.7152

> <Gold.Chemscore.Internal_Hbond>
0.0000

> <Gold.Chemscore.DEClash>
0.1235

> <Gold.Chemscore.DEInternal>
1.5690

> <Gold.Chemscore.Rot>
1.6808

> <Gold.Chemscore.Internal.Correction>
   9.000000E+99

> <Gold.Chemscore.Hbond.Weighted>
-0.0000

> <Gold.Chemscore.Metal.Weighted>
-0.0000

> <Gold.Chemscore.Lipo.Weighted>
-9.3267

> <Gold.Chemscore.Internal_Hbond.Weighted>
0.0000

> <Gold.Chemscore.DEClash.Weighted>
0.1235

> <Gold.Chemscore.DEInternal.Weighted>
1.5690

> <Gold.Chemscore.Rot.Weighted>
4.3029

> <Gold.Chemscore.Internal.Correction.Weighted>
   9.000000E+99

> <Gold.Protein.RotatedTorsions>
[ 6907 6896 6895 6894 ] final -135.56 input  -60.11 | X-H torsion
[ 7974 7965 7964 7962 ] final -153.06 input  175.53 | X-H torsion
[ 8008 7997 7996 7995 ] final  109.62 input   59.86 | X-H torsion
[ 10167 10162 10161 10158 ] final  -72.19 input  -65.29 | X-H torsion
[ 10718 10713 10712 10709 ] final  -66.02 input   66.30 | X-H torsion
[ 10763 10752 10751 10750 ] final   88.68 input  -60.55 | X-H torsion
[ 11005 11000 10999 10996 ] final  166.52 input  -57.11 | X-H torsion

> <Gold.Protein.ActiveResidues>
 VAL166  LYS551  ARG553  GLY616  TRP617  ASP618  TYR619  PRO620  LYS621  CYS622 
 ASP623  PHE694  ASN695  SER759  ASP760  ASP761  ALA762  ILE779  LEU786  VAL792 
 PHE793  MET794  SER795  GLU796  ALA797  LYS798  CYS799  TRP800  GLU811  SER814 

> <Gold.Protein.RotatedAtoms>
  150.9993  133.6071  159.2696 H   0  0  0  0  0  0  0  0  0  0  0  0  # atno 6907 bound_to 6896
  151.3263  135.0830  159.9333 H   0  0  0  0  0  0  0  0  0  0  0  0  # atno 6908 bound_to 6896
  152.5269  133.9631  159.7781 H   0  0  0  0  0  0  0  0  0  0  0  0  # atno 6909 bound_to 6896
  144.7760  140.4577  143.5873 H   0  0  0  0  0  0  0  0  0  0  0  0  # atno 7974 bound_to 7965
  156.1992  140.3054  155.9491 H   0  0  0  0  0  0  0  0  0  0  0  0  # atno 8008 bound_to 7997
  155.2993  140.0445  157.3045 H   0  0  0  0  0  0  0  0  0  0  0  0  # atno 8009 bound_to 7997
  154.5549  140.2303  155.8435 H   0  0  0  0  0  0  0  0  0  0  0  0  # atno 8010 bound_to 7997
  140.5212  143.2331  151.7426 H   0  0  0  0  0  0  0  0  0  0  0  0  # atno 10167 bound_to 10162
  156.0636  130.4256  150.1648 H   0  0  0  0  0  0  0  0  0  0  0  0  # atno 10718 bound_to 10713
  153.1793  135.4498  155.0007 H   0  0  0  0  0  0  0  0  0  0  0  0  # atno 10763 bound_to 10752
  154.8019  135.3259  154.7530 H   0  0  0  0  0  0  0  0  0  0  0  0  # atno 10764 bound_to 10752
  153.7997  135.6963  153.4913 H   0  0  0  0  0  0  0  0  0  0  0  0  # atno 10765 bound_to 10752
  140.2673  134.7855  157.3644 H   0  0  0  0  0  0  0  0  0  0  0  0  # atno 11005 bound_to 11000
  145.6184  139.1521  143.3036 LP  0  0  0  0  0  0  0  0  0  0  0  0  # atno 17320 bound_to 7965
  146.1940  140.6295  142.9132 LP  0  0  0  0  0  0  0  0  0  0  0  0  # atno 17321 bound_to 7965
  139.4924  144.4251  151.9934 LP  0  0  0  0  0  0  0  0  0  0  0  0  # atno 17342 bound_to 10162
  140.3348  144.3273  150.5979 LP  0  0  0  0  0  0  0  0  0  0  0  0  # atno 17343 bound_to 10162
  156.9712  130.9835  151.3458 LP  0  0  0  0  0  0  0  0  0  0  0  0  # atno 17370 bound_to 10713
  157.5662  130.8279  149.8331 LP  0  0  0  0  0  0  0  0  0  0  0  0  # atno 17371 bound_to 10713
  140.1407  134.4976  155.8034 LP  0  0  0  0  0  0  0  0  0  0  0  0  # atno 17394 bound_to 11000
  141.2182  133.6824  156.7204 LP  0  0  0  0  0  0  0  0  0  0  0  0  # atno 17395 bound_to 11000

$$$$
