AV-unprocessed.smi:21|AV-procd|sdf|168|dock7
  -GOLD-   2262015413D 1   1.00000     0.00000
 Structure written by MMmdl.
 61 64  0  0  0  0  0  0  0  0  1 V2000
  152.6539  142.7229  159.6916 C   0  0  0  0  0  0  0  0  0  0  0  0
  151.2760  142.4808  159.4526 O   0  0  0  0  0  0  0  0  0  0  0  0
  150.9170  142.6046  158.0835 C   0  0  2  0  0  0  0  0  0  0  0  0
  149.4273  142.3158  157.8485 C   0  0  0  0  0  0  0  0  0  0  0  0
  149.4167  141.4039  156.6146 C   0  0  2  0  0  0  0  0  0  0  0  0
  148.1243  140.5670  156.4588 C   0  0  0  0  0  0  0  0  0  0  0  0
  147.8382  140.1711  155.0780 N   0  0  0  0  0  0  0  0  0  0  0  0
  147.7992  141.2248  154.0683 C   0  0  0  0  0  0  0  0  0  0  0  0
  147.0573  139.0734  154.8886 C   0  0  0  0  0  0  0  0  0  0  0  0
  146.6861  138.3297  155.9658 N   0  0  0  0  0  0  0  0  0  0  0  0
  145.9883  137.2026  155.8044 C   0  0  0  0  0  0  0  0  0  0  0  0
  145.5676  136.6382  154.6722 N   0  0  0  0  0  0  0  0  0  0  0  0
  145.9098  137.3904  153.5881 C   0  0  0  0  0  0  0  0  0  0  0  0
  146.6270  138.6207  153.6070 C   0  0  0  0  0  0  0  0  0  0  0  0
  146.7436  139.1129  152.3118 N   0  0  0  0  0  0  0  0  0  0  0  0
  146.1553  138.2156  151.5708 C   0  0  0  0  0  0  0  0  0  0  0  0
  145.6678  137.1234  152.2515 N   0  0  0  0  0  0  0  0  0  0  0  0
  145.0035  135.9668  151.6754 C   0  0  0  0  0  0  0  0  0  0  0  0
  145.6839  134.6074  152.0034 C   0  0  1  0  0  0  0  0  0  0  0  0
  145.0453  134.0090  153.2792 C   0  0  0  0  0  0  0  0  0  0  0  0
  143.6349  134.0711  153.2248 O   0  0  0  0  0  0  0  0  0  0  0  0
  145.6310  133.5785  150.8355 C   0  0  1  0  0  0  0  0  0  0  0  0
  146.2308  132.2062  151.1014 C   0  0  0  0  0  0  0  0  0  0  0  0
  145.5886  131.3572  150.0153 C   0  0  0  0  0  0  0  0  0  0  0  0
  144.2588  131.8421  149.9275 O   0  0  0  0  0  0  0  0  0  0  0  0
  144.2057  133.1800  150.4142 C   0  0  0  0  0  0  0  0  0  0  0  0
  150.6242  140.6080  156.7710 N   0  0  0  0  0  0  0  0  0  0  0  0
  151.0355  139.9072  155.5617 C   0  0  0  0  0  0  0  0  0  0  0  0
  151.6331  141.5476  157.2319 C   0  0  0  0  0  0  0  0  0  0  0  0
  151.1861  143.5936  157.7083 H   0  0  0  0  0  0  0  0  0  0  0  0
  149.5330  142.0363  155.7326 H   0  0  0  0  0  0  0  0  0  0  0  0
  152.8717  142.5923  160.7512 H   0  0  0  0  0  0  0  0  0  0  0  0
  152.9378  143.7388  159.4156 H   0  0  0  0  0  0  0  0  0  0  0  0
  153.2787  142.0233  159.1352 H   0  0  0  0  0  0  0  0  0  0  0  0
  149.0077  141.7854  158.7052 H   0  0  0  0  0  0  0  0  0  0  0  0
  148.8540  143.2315  157.7044 H   0  0  0  0  0  0  0  0  0  0  0  0
  148.2150  139.6475  157.0365 H   0  0  0  0  0  0  0  0  0  0  0  0
  147.2895  141.1005  156.9070 H   0  0  0  0  0  0  0  0  0  0  0  0
  147.9297  140.8094  153.0684 H   0  0  0  0  0  0  0  0  0  0  0  0
  148.6005  141.9445  154.2362 H   0  0  0  0  0  0  0  0  0  0  0  0
  146.8500  141.7608  154.1011 H   0  0  0  0  0  0  0  0  0  0  0  0
  145.7446  136.6694  156.7112 H   0  0  0  0  0  0  0  0  0  0  0  0
  146.0898  138.3118  150.4968 H   0  0  0  0  0  0  0  0  0  0  0  0
  143.9788  135.9839  152.0466 H   0  0  0  0  0  0  0  0  0  0  0  0
  144.9365  136.0997  150.5949 H   0  0  0  0  0  0  0  0  0  0  0  0
  146.7350  134.7893  152.2293 H   0  0  0  0  0  0  0  0  0  0  0  0
  145.3565  132.9734  153.4189 H   0  0  0  0  0  0  0  0  0  0  0  0
  145.3484  134.5549  154.1716 H   0  0  0  0  0  0  0  0  0  0  0  0
  143.2823  133.3330  153.6984 H   0  0  0  0  0  0  0  0  0  0  0  0
  146.1385  134.0016  149.9669 H   0  0  0  0  0  0  0  0  0  0  0  0
  147.3157  132.1839  151.0214 H   0  0  0  0  0  0  0  0  0  0  0  0
  145.9437  131.8409  152.0884 H   0  0  0  0  0  0  0  0  0  0  0  0
  146.0876  131.5206  149.0593 H   0  0  0  0  0  0  0  0  0  0  0  0
  145.6202  130.2907  150.2371 H   0  0  0  0  0  0  0  0  0  0  0  0
  143.5243  133.1975  151.2656 H   0  0  0  0  0  0  0  0  0  0  0  0
  143.8055  133.8481  149.6514 H   0  0  0  0  0  0  0  0  0  0  0  0
  151.9723  139.3746  155.7282 H   0  0  0  0  0  0  0  0  0  0  0  0
  151.1828  140.6008  154.7328 H   0  0  0  0  0  0  0  0  0  0  0  0
  150.2901  139.1711  155.2618 H   0  0  0  0  0  0  0  0  0  0  0  0
  152.0978  142.0446  156.3787 H   0  0  0  0  0  0  0  0  0  0  0  0
  152.4252  141.0363  157.7800 H   0  0  0  0  0  0  0  0  0  0  0  0
  1  2  1  0  0  0  0
  1 32  1  0  0  0  0
  1 33  1  0  0  0  0
  1 34  1  0  0  0  0
  2  3  1  0  0  0  0
  3 30  1  0  0  0  0
  3 29  1  0  0  0  0
  3  4  1  0  0  0  0
  4  5  1  0  0  0  0
  4 35  1  0  0  0  0
  4 36  1  0  0  0  0
  5 31  1  0  0  0  0
  5  6  1  0  0  0  0
  5 27  1  0  0  0  0
  6  7  1  0  0  0  0
  6 37  1  0  0  0  0
  6 38  1  0  0  0  0
  7  8  1  0  0  0  0
  7  9  1  0  0  0  0
  8 39  1  0  0  0  0
  8 40  1  0  0  0  0
  8 41  1  0  0  0  0
  9 14  1  0  0  0  0
  9 10  2  0  0  0  0
 10 11  1  0  0  0  0
 11 12  2  0  0  0  0
 11 42  1  0  0  0  0
 12 13  1  0  0  0  0
 13 17  1  0  0  0  0
 13 14  2  0  0  0  0
 14 15  1  0  0  0  0
 15 16  2  0  0  0  0
 16 17  1  0  0  0  0
 16 43  1  0  0  0  0
 17 18  1  0  0  0  0
 18 19  1  0  0  0  0
 18 44  1  0  0  0  0
 18 45  1  0  0  0  0
 19 20  1  0  0  0  0
 19 22  1  0  0  0  0
 19 46  1  0  0  0  0
 20 21  1  0  0  0  0
 20 47  1  0  0  0  0
 20 48  1  0  0  0  0
 21 49  1  0  0  0  0
 22 26  1  0  0  0  0
 22 23  1  0  0  0  0
 22 50  1  0  0  0  0
 23 24  1  0  0  0  0
 23 51  1  0  0  0  0
 23 52  1  0  0  0  0
 24 25  1  0  0  0  0
 24 53  1  0  0  0  0
 24 54  1  0  0  0  0
 25 26  1  0  0  0  0
 26 55  1  0  0  0  0
 26 56  1  0  0  0  0
 27 28  1  0  0  0  0
 27 29  1  0  0  0  0
 28 57  1  0  0  0  0
 28 58  1  0  0  0  0
 28 59  1  0  0  0  0
 29 60  1  0  0  0  0
 29 61  1  0  0  0  0
M  END
> <s_m_source_file>
AV-unprocessed.smi

> <i_m_source_file_index>
21

> <i_lp_mmshare_version>
43012

> <i_f3d_flags>
0

> <s_epik_input>
W0NIM11PW0NASF0xW0NIMl1bQ0BIXShOKFtDSDNdKVtDSDJdMSlbQ0gyXU4oW0NIM10pYyhuW2NIXW4yKWMoYzIzKW5bY0hdbjNbQ0gyXVtDQEhdKFtDSDJdW09IXSlbQ0BASF00W0NIMl1bQ0gyXU9bQ0gyXTQ=

> <s_epik_cmdline>
J2VwaWtfcHl0aG9uJywgJy1waCcsICc3LjAnLCAnLXRuJywgJzgnLCAnLW1hJywgJzIwMCcsICctbWV0YWxfYmluZGluZycsICctaW1hZScsICc8aW5maWxlLm1hZT4nLCAnLW9tYWUnLCAnPG91dGZpbGUubWFlPic=

> <r_lp_tautomer_probability>
1

> <r_epik_Ionization_Penalty>
2.17574

> <r_epik_Ionization_Penalty_Charging>
0

> <r_epik_Ionization_Penalty_Neutral>
2.17574

> <r_epik_State_Penalty>
2.31336

> <r_epik_Charging_Adjusted_Penalty>
2.31336

> <i_epik_Tot_Q>
0

> <i_epik_Tot_abs_Q>
0

> <r_epik_Metal_State_Penalty>
2.31025

> <b_epik_Metal_Only>
0

> <s_lp_Force_Field>
OPLS_2005

> <r_lp_Energy>
69.8341

> <b_lp_Chiralities_Consistent>
1

> <s_lp_Variant>
AV-unprocessed.smi:21-48

> <Gold.Version>
5.8.1

> <Gold.Id.Protein>
6NUR|6NUR_protein|mol2

> <Gold.PLP.Fitness>
43.9628

> <Gold.PLP.PLP>
-40.2568

> <Gold.PLP.part.hbond>
-2.2091

> <Gold.PLP.part.metal>
0.0000

> <Gold.PLP.part.buried>
-7.4799

> <Gold.PLP.part.nonpolar>
-33.5550

> <Gold.PLP.part.repulsive>
0.5243

> <Gold.PLP.ligand.clash>
0.0000

> <Gold.PLP.ligand.torsion>
1.2313

> <Gold.PLP.Chemscore.Hbond>
1.2075

> <Gold.PLP.Chemscore.CHOScore>
0.6150

> <Gold.PLP.Chemscore.Metal>
0.0000

> <Gold.Chemscore.Hbonds>
donor molecule, donor type, donor heavy atom, donor atom, acceptor molecule, acceptor atom, score
      L1  H    21    49       P1 10957  1.00
      P1  H 10785 10796       L1    25  0.18
      L1  C    16    43       P1 10171  0.64

> <Gold.PLP.Chemscore.Internal.Correction>
0.7010

> <Gold.Rescore>
     Score         DG    S(hbond)    S(metal)    S(lipo)     H(rot)  DE(clash)    DE(int)     intcor
      9.55     -12.89       1.05        0.00      99.20       3.00       0.22       3.13       ----

> <Gold.Chemscore.Fitness>
9.5495

> <Gold.Chemscore.DG>
-12.8931

> <Gold.Chemscore.ZeroCoef>
-5.4800

> <Gold.Chemscore.Hbond>
1.0464

> <Gold.Chemscore.Metal>
0.0000

> <Gold.Chemscore.Lipo>
99.1981

> <Gold.Chemscore.Internal_Hbond>
0.0000

> <Gold.Chemscore.DEClash>
0.2179

> <Gold.Chemscore.DEInternal>
3.1256

> <Gold.Chemscore.Rot>
3.0031

> <Gold.Chemscore.Internal.Correction>
   9.000000E+99

> <Gold.Chemscore.Hbonds>
donor molecule, donor type, donor heavy atom, donor atom, acceptor molecule, acceptor atom, score
      L1  H    21    49       P1 10957  0.96
      P1  H 10785 10796       L1    25  0.06

> <Gold.Chemscore.Hbond.Weighted>
-3.4949

> <Gold.Chemscore.Metal.Weighted>
-0.0000

> <Gold.Chemscore.Lipo.Weighted>
-11.6062

> <Gold.Chemscore.Internal_Hbond.Weighted>
0.0000

> <Gold.Chemscore.DEClash.Weighted>
0.2179

> <Gold.Chemscore.DEInternal.Weighted>
3.1256

> <Gold.Chemscore.Rot.Weighted>
7.6880

> <Gold.Chemscore.Internal.Correction.Weighted>
   9.000000E+99

> <Gold.Protein.RotatedTorsions>
[ 6907 6896 6895 6894 ] final  -51.82 input  -60.11 | X-H torsion
[ 7974 7965 7964 7962 ] final  -38.11 input  175.53 | X-H torsion
[ 8008 7997 7996 7995 ] final -179.43 input   59.86 | X-H torsion
[ 10167 10162 10161 10158 ] final   38.04 input  -65.29 | X-H torsion
[ 10718 10713 10712 10709 ] final -112.46 input   66.30 | X-H torsion
[ 10763 10752 10751 10750 ] final  -71.22 input  -60.55 | X-H torsion
[ 11005 11000 10999 10996 ] final -129.26 input  -57.11 | X-H torsion

> <Gold.Protein.ActiveResidues>
 VAL166  LYS551  ARG553  GLY616  TRP617  ASP618  TYR619  PRO620  LYS621  CYS622 
 ASP623  PHE694  ASN695  SER759  ASP760  ASP761  ALA762  ILE779  LEU786  VAL792 
 PHE793  MET794  SER795  GLU796  ALA797  LYS798  CYS799  TRP800  GLU811  SER814 

> <Gold.Protein.RotatedAtoms>
  150.8575  134.7918  159.7056 H   0  0  0  0  0  0  0  0  0  0  0  0  # atno 6907 bound_to 6896
  152.4622  134.5155  159.9776 H   0  0  0  0  0  0  0  0  0  0  0  0  # atno 6908 bound_to 6896
  151.5264  133.3419  159.2946 H   0  0  0  0  0  0  0  0  0  0  0  0  # atno 6909 bound_to 6896
  146.0515  140.6474  142.9040 H   0  0  0  0  0  0  0  0  0  0  0  0  # atno 7974 bound_to 7965
  156.0304  140.1281  157.0264 H   0  0  0  0  0  0  0  0  0  0  0  0  # atno 8008 bound_to 7997
  154.4347  140.1050  156.6162 H   0  0  0  0  0  0  0  0  0  0  0  0  # atno 8009 bound_to 7997
  155.5815  140.3468  155.4544 H   0  0  0  0  0  0  0  0  0  0  0  0  # atno 8010 bound_to 7997
  140.3975  144.1769  150.6132 H   0  0  0  0  0  0  0  0  0  0  0  0  # atno 10167 bound_to 10162
  156.0707  130.5921  150.8511 H   0  0  0  0  0  0  0  0  0  0  0  0  # atno 10718 bound_to 10713
  154.4287  135.5969  153.6055 H   0  0  0  0  0  0  0  0  0  0  0  0  # atno 10763 bound_to 10752
  152.9797  135.5970  154.3865 H   0  0  0  0  0  0  0  0  0  0  0  0  # atno 10764 bound_to 10752
  154.3700  135.2841  155.2250 H   0  0  0  0  0  0  0  0  0  0  0  0  # atno 10765 bound_to 10752
  140.9446  134.1147  157.4119 H   0  0  0  0  0  0  0  0  0  0  0  0  # atno 11005 bound_to 11000
  144.7125  140.4091  143.7069 LP  0  0  0  0  0  0  0  0  0  0  0  0  # atno 17320 bound_to 7965
  145.6716  139.1600  143.2751 LP  0  0  0  0  0  0  0  0  0  0  0  0  # atno 17321 bound_to 7965
  140.4775  143.2390  151.9002 LP  0  0  0  0  0  0  0  0  0  0  0  0  # atno 17342 bound_to 10162
  139.4786  144.5304  151.8674 LP  0  0  0  0  0  0  0  0  0  0  0  0  # atno 17343 bound_to 10162
  157.5776  131.0946  150.9322 LP  0  0  0  0  0  0  0  0  0  0  0  0  # atno 17370 bound_to 10713
  156.9524  130.5425  149.5283 LP  0  0  0  0  0  0  0  0  0  0  0  0  # atno 17371 bound_to 10713
  139.8830  135.0047  156.6268 LP  0  0  0  0  0  0  0  0  0  0  0  0  # atno 17394 bound_to 11000
  140.7686  133.8757  155.8474 LP  0  0  0  0  0  0  0  0  0  0  0  0  # atno 17395 bound_to 11000

$$$$
