AV-unprocessed.smi:2544|AV-procd|sdf|9994|dock3
  -GOLD-   2272014 43D 1   1.00000     0.00000
 Structure written by MMmdl.
 40 41  0  0  0  0  0  0  0  0  1 V2000
  151.9016  145.5685  159.8146 C   0  0  0  0  0  0  0  0  0  0  0  0
  151.6368  144.4184  160.7926 C   0  0  0  0  0  0  0  0  0  0  0  0
  152.1906  143.1612  160.3104 N   0  0  0  0  0  0  0  0  0  0  0  0
  153.1444  142.4644  161.0448 C   0  0  0  0  0  0  0  0  0  0  0  0
  153.7302  141.3242  160.6313 C   0  0  0  0  0  0  0  0  0  0  0  0
  153.3626  140.7566  159.3181 C   0  0  0  0  0  0  0  0  0  0  0  0
  153.8727  139.7122  158.9130 O   0  0  0  0  0  0  0  0  0  0  0  0
  152.3541  141.5092  158.5254 C   0  0  0  0  0  0  0  0  0  0  0  0
  152.0094  140.9608  157.2785 N   0  0  0  0  0  0  0  0  0  0  0  0
  150.8164  140.9373  156.6561 C   0  0  0  0  0  0  0  0  0  0  0  0
  149.7741  141.4409  157.0740 O   0  0  0  0  0  0  0  0  0  0  0  0
  150.8996  140.2862  155.4866 N   0  0  0  0  0  0  0  0  0  0  0  0
  149.7886  140.0596  154.5662 C   0  0  0  0  0  0  0  0  0  0  0  0
  148.9500  141.3455  154.4396 C   0  0  0  0  0  0  0  0  0  0  0  0
  147.7398  141.1369  153.5147 C   0  0  0  0  0  0  0  0  0  0  0  0
  146.8715  139.9607  153.9884 C   0  0  0  0  0  0  0  0  0  0  0  0
  147.7024  138.6744  154.1191 C   0  0  0  0  0  0  0  0  0  0  0  0
  148.9137  138.8816  155.0430 C   0  0  0  0  0  0  0  0  0  0  0  0
  151.8391  142.6441  159.0648 C   0  0  0  0  0  0  0  0  0  0  0  0
  151.4886  146.5029  160.1946 H   0  0  0  0  0  0  0  0  0  0  0  0
  151.4451  145.3731  158.8439 H   0  0  0  0  0  0  0  0  0  0  0  0
  152.9708  145.7151  159.6596 H   0  0  0  0  0  0  0  0  0  0  0  0
  152.0659  144.6557  161.7669 H   0  0  0  0  0  0  0  0  0  0  0  0
  150.5636  144.3060  160.9508 H   0  0  0  0  0  0  0  0  0  0  0  0
  153.3842  142.9103  161.9994 H   0  0  0  0  0  0  0  0  0  0  0  0
  154.4640  140.8148  161.2387 H   0  0  0  0  0  0  0  0  0  0  0  0
  152.7799  140.5343  156.7846 H   0  0  0  0  0  0  0  0  0  0  0  0
  151.7957  139.9076  155.2167 H   0  0  0  0  0  0  0  0  0  0  0  0
  150.1891  139.8219  153.5786 H   0  0  0  0  0  0  0  0  0  0  0  0
  148.6021  141.6598  155.4247 H   0  0  0  0  0  0  0  0  0  0  0  0
  149.5675  142.1584  154.0558 H   0  0  0  0  0  0  0  0  0  0  0  0
  147.1417  142.0476  153.4736 H   0  0  0  0  0  0  0  0  0  0  0  0
  148.0862  140.9490  152.4977 H   0  0  0  0  0  0  0  0  0  0  0  0
  146.4196  140.2035  154.9510 H   0  0  0  0  0  0  0  0  0  0  0  0
  146.0482  139.8023  153.2910 H   0  0  0  0  0  0  0  0  0  0  0  0
  147.0780  137.8656  154.4996 H   0  0  0  0  0  0  0  0  0  0  0  0
  148.0466  138.3607  153.1327 H   0  0  0  0  0  0  0  0  0  0  0  0
  149.5028  137.9646  155.0813 H   0  0  0  0  0  0  0  0  0  0  0  0
  148.5653  139.0672  156.0602 H   0  0  0  0  0  0  0  0  0  0  0  0
  151.0901  143.2425  158.5714 H   0  0  0  0  0  0  0  0  0  0  0  0
  1  2  1  0  0  0  0
  1 20  1  0  0  0  0
  1 21  1  0  0  0  0
  1 22  1  0  0  0  0
  2  3  1  0  0  0  0
  2 23  1  0  0  0  0
  2 24  1  0  0  0  0
  3 19  1  0  0  0  0
  3  4  1  0  0  0  0
  4  5  2  0  0  0  0
  4 25  1  0  0  0  0
  5  6  1  0  0  0  0
  5 26  1  0  0  0  0
  6  7  2  0  0  0  0
  6  8  1  0  0  0  0
  8  9  1  0  0  0  0
  8 19  2  0  0  0  0
  9 10  1  0  0  0  0
  9 27  1  0  0  0  0
 10 11  2  0  0  0  0
 10 12  1  0  0  0  0
 12 13  1  0  0  0  0
 12 28  1  0  0  0  0
 13 18  1  0  0  0  0
 13 14  1  0  0  0  0
 13 29  1  0  0  0  0
 14 15  1  0  0  0  0
 14 30  1  0  0  0  0
 14 31  1  0  0  0  0
 15 16  1  0  0  0  0
 15 32  1  0  0  0  0
 15 33  1  0  0  0  0
 16 17  1  0  0  0  0
 16 34  1  0  0  0  0
 16 35  1  0  0  0  0
 17 18  1  0  0  0  0
 17 36  1  0  0  0  0
 17 37  1  0  0  0  0
 18 38  1  0  0  0  0
 18 39  1  0  0  0  0
 19 40  1  0  0  0  0
M  END
> <s_m_source_file>
AV-unprocessed.smi

> <i_m_source_file_index>
2544

> <i_lp_mmshare_version>
43012

> <i_f3d_flags>
0

> <s_epik_input>
W0NIM11bQ0gyXW4xW2NIXVtjSF1jKD1PKWMoW2NIXTEpW05IXUMoPU8pW05IXVtDSF0yW0NIMl1bQ0gyXVtDSDJdW0NIMl1bQ0gyXTI=

> <s_epik_cmdline>
J2VwaWtfcHl0aG9uJywgJy1waCcsICc3LjAnLCAnLXRuJywgJzgnLCAnLW1hJywgJzIwMCcsICctbWV0YWxfYmluZGluZycsICctaW1hZScsICc8aW5maWxlLm1hZT4nLCAnLW9tYWUnLCAnPG91dGZpbGUubWFlPic=

> <r_lp_tautomer_probability>
1

> <r_epik_Ionization_Penalty>
0.00144746

> <r_epik_Ionization_Penalty_Charging>
0.00142605

> <r_epik_Ionization_Penalty_Neutral>
2.14089e-05

> <r_epik_State_Penalty>
0.000952116

> <r_epik_Charging_Adjusted_Penalty>
0.00237816

> <i_epik_Tot_Q>
0

> <i_epik_Tot_abs_Q>
0

> <r_epik_Metal_State_Penalty>
-0

> <b_epik_Metal_Only>
0

> <s_lp_Force_Field>
OPLS_2005

> <r_lp_Energy>
3.66557

> <b_lp_Chiralities_Consistent>
1

> <s_lp_Variant>
AV-unprocessed.smi:2544-1

> <Gold.Version>
5.8.1

> <Gold.Id.Protein>
6NUR|6NUR_protein|mol2

> <Gold.PLP.Fitness>
42.5614

> <Gold.PLP.PLP>
-40.5772

> <Gold.PLP.part.hbond>
-1.0000

> <Gold.PLP.part.metal>
0.0000

> <Gold.PLP.part.buried>
-3.1497

> <Gold.PLP.part.nonpolar>
-35.8882

> <Gold.PLP.part.repulsive>
0.4431

> <Gold.PLP.ligand.clash>
0.0000

> <Gold.PLP.ligand.torsion>
0.5147

> <Gold.PLP.Chemscore.Hbond>
1.0000

> <Gold.PLP.Chemscore.CHOScore>
0.0000

> <Gold.PLP.Chemscore.Metal>
0.0000

> <Gold.Chemscore.Hbonds>
donor molecule, donor type, donor heavy atom, donor atom, acceptor molecule, acceptor atom, score
      P1  H  7997  8009       L1     7  1.00

> <Gold.PLP.Chemscore.Internal.Correction>
0.0137

> <Gold.Rescore>
     Score         DG    S(hbond)    S(metal)    S(lipo)     H(rot)  DE(clash)    DE(int)     intcor
     15.25     -17.19       0.91        0.00      99.60       1.17       0.09       1.84       ----

> <Gold.Chemscore.Fitness>
15.2528

> <Gold.Chemscore.DG>
-17.1866

> <Gold.Chemscore.ZeroCoef>
-5.4800

> <Gold.Chemscore.Hbond>
0.9098

> <Gold.Chemscore.Metal>
0.0000

> <Gold.Chemscore.Lipo>
99.5972

> <Gold.Chemscore.Internal_Hbond>
0.0000

> <Gold.Chemscore.DEClash>
0.0914

> <Gold.Chemscore.DEInternal>
1.8424

> <Gold.Chemscore.Rot>
1.1660

> <Gold.Chemscore.Internal.Correction>
   9.000000E+99

> <Gold.Chemscore.Hbonds>
donor molecule, donor type, donor heavy atom, donor atom, acceptor molecule, acceptor atom, score
      P1  H  7997  8009       L1     7  0.73

> <Gold.Chemscore.Hbond.Weighted>
-3.0387

> <Gold.Chemscore.Metal.Weighted>
-0.0000

> <Gold.Chemscore.Lipo.Weighted>
-11.6529

> <Gold.Chemscore.Internal_Hbond.Weighted>
0.0000

> <Gold.Chemscore.DEClash.Weighted>
0.0914

> <Gold.Chemscore.DEInternal.Weighted>
1.8424

> <Gold.Chemscore.Rot.Weighted>
2.9850

> <Gold.Chemscore.Internal.Correction.Weighted>
   9.000000E+99

> <Gold.Protein.RotatedTorsions>
[ 6907 6896 6895 6894 ] final   75.20 input  -60.11 | X-H torsion
[ 7974 7965 7964 7962 ] final  120.54 input  175.53 | X-H torsion
[ 8008 7997 7996 7995 ] final  135.62 input   59.86 | X-H torsion
[ 10167 10162 10161 10158 ] final -173.51 input  -65.29 | X-H torsion
[ 10718 10713 10712 10709 ] final  -81.24 input   66.30 | X-H torsion
[ 10763 10752 10751 10750 ] final  -56.82 input  -60.55 | X-H torsion
[ 11005 11000 10999 10996 ] final   78.84 input  -57.11 | X-H torsion

> <Gold.Protein.ActiveResidues>
 VAL166  LYS551  ARG553  GLY616  TRP617  ASP618  TYR619  PRO620  LYS621  CYS622 
 ASP623  PHE694  ASN695  SER759  ASP760  ASP761  ALA762  ILE779  LEU786  VAL792 
 PHE793  MET794  SER795  GLU796  ALA797  LYS798  CYS799  TRP800  GLU811  SER814 

> <Gold.Protein.RotatedAtoms>
  152.5014  134.4156  159.9463 H   0  0  0  0  0  0  0  0  0  0  0  0  # atno 6907 bound_to 6896
  151.4127  133.3716  159.2754 H   0  0  0  0  0  0  0  0  0  0  0  0  # atno 6908 bound_to 6896
  150.9280  134.8718  159.7592 H   0  0  0  0  0  0  0  0  0  0  0  0  # atno 6909 bound_to 6896
  145.1299  139.3334  143.4670 H   0  0  0  0  0  0  0  0  0  0  0  0  # atno 7974 bound_to 7965
  156.3003  140.2466  156.3611 H   0  0  0  0  0  0  0  0  0  0  0  0  # atno 8008 bound_to 7997
  154.8876  140.0410  157.1839 H   0  0  0  0  0  0  0  0  0  0  0  0  # atno 8009 bound_to 7997
  154.8631  140.2923  155.5531 H   0  0  0  0  0  0  0  0  0  0  0  0  # atno 8010 bound_to 7997
  139.5684  144.1700  152.1347 H   0  0  0  0  0  0  0  0  0  0  0  0  # atno 10167 bound_to 10162
  156.0054  130.4598  150.3922 H   0  0  0  0  0  0  0  0  0  0  0  0  # atno 10718 bound_to 10713
  154.2127  135.6392  153.5120 H   0  0  0  0  0  0  0  0  0  0  0  0  # atno 10763 bound_to 10752
  152.9986  135.5478  154.6198 H   0  0  0  0  0  0  0  0  0  0  0  0  # atno 10764 bound_to 10752
  154.5639  135.2911  155.0866 H   0  0  0  0  0  0  0  0  0  0  0  0  # atno 10765 bound_to 10752
  139.9196  134.7795  156.1702 H   0  0  0  0  0  0  0  0  0  0  0  0  # atno 11005 bound_to 11000
  146.3514  140.1294  142.8597 LP  0  0  0  0  0  0  0  0  0  0  0  0  # atno 17320 bound_to 7965
  145.0647  140.9113  143.4918 LP  0  0  0  0  0  0  0  0  0  0  0  0  # atno 17321 bound_to 7965
  140.1228  144.5358  150.6852 LP  0  0  0  0  0  0  0  0  0  0  0  0  # atno 17342 bound_to 10162
  140.6968  143.2409  151.4977 LP  0  0  0  0  0  0  0  0  0  0  0  0  # atno 17343 bound_to 10162
  157.1996  131.0435  151.2657 LP  0  0  0  0  0  0  0  0  0  0  0  0  # atno 17370 bound_to 10713
  157.3988  130.7322  149.6751 LP  0  0  0  0  0  0  0  0  0  0  0  0  # atno 17371 bound_to 10713
  141.0705  133.6799  156.2131 LP  0  0  0  0  0  0  0  0  0  0  0  0  # atno 17394 bound_to 11000
  140.6514  134.5063  157.5577 LP  0  0  0  0  0  0  0  0  0  0  0  0  # atno 17395 bound_to 11000

$$$$
