AV-unprocessed.smi:1942|AV-procd|sdf|7849|dock5
  -GOLD-   22720 9593D 1   1.00000     0.00000
 Structure written by MMmdl.
 35 37  0  0  0  0  0  0  0  0  1 V2000
  148.9486  137.9223  154.7023 O   0  0  0  0  0  0  0  0  0  0  0  0
  148.5780  139.0828  154.5245 C   0  0  0  0  0  0  0  0  0  0  0  0
  147.2380  139.4036  154.0193 C   0  0  0  0  0  0  0  0  0  0  0  0
  146.8387  140.6774  153.8333 C   0  0  0  0  0  0  0  0  0  0  0  0
  147.7318  141.7723  154.1303 C   0  0  0  0  0  0  0  0  0  0  0  0
  148.9595  141.4830  154.5900 C   0  0  0  0  0  0  0  0  0  0  0  0
  149.3871  140.1549  154.7877 N   0  0  0  0  0  0  0  0  0  0  0  0
  150.7556  139.9592  155.2945 C   0  0  0  0  0  0  0  0  0  0  0  0
  151.0619  140.9071  156.4298 C   0  0  0  0  0  0  0  0  0  0  0  0
  150.9685  142.2358  156.3156 N   0  0  0  0  0  0  0  0  0  0  0  0
  151.3365  142.6821  157.5684 C   0  0  0  0  0  0  0  0  0  0  0  0
  151.4292  143.9938  158.0854 C   0  0  0  0  0  0  0  0  0  0  0  0
  151.8378  144.2089  159.4181 C   0  0  0  0  0  0  0  0  0  0  0  0
  151.9447  145.8169  160.0336 Cl  0  0  0  0  0  0  0  0  0  0  0  0
  152.1604  143.1164  160.2496 C   0  0  0  0  0  0  0  0  0  0  0  0
  152.0754  141.8013  159.7531 C   0  0  0  0  0  0  0  0  0  0  0  0
  151.6649  141.5933  158.4226 C   0  0  0  0  0  0  0  0  0  0  0  0
  151.4813  140.4568  157.6413 N   0  0  0  0  0  0  0  0  0  0  0  0
  151.7121  139.0845  158.0741 C   0  0  0  0  0  0  0  0  0  0  0  0
  153.1160  138.8810  158.6679 C   0  0  0  0  0  0  0  0  0  0  0  0
  154.0663  138.6201  157.6569 O   0  0  0  0  0  0  0  0  0  0  0  0
  146.5560  138.5974  153.7920 H   0  0  0  0  0  0  0  0  0  0  0  0
  145.8454  140.8803  153.4609 H   0  0  0  0  0  0  0  0  0  0  0  0
  147.4198  142.7966  153.9891 H   0  0  0  0  0  0  0  0  0  0  0  0
  149.6850  142.2430  154.8414 H   0  0  0  0  0  0  0  0  0  0  0  0
  150.8751  138.9256  155.6193 H   0  0  0  0  0  0  0  0  0  0  0  0
  151.4953  140.1107  154.5073 H   0  0  0  0  0  0  0  0  0  0  0  0
  151.1847  144.8355  157.4543 H   0  0  0  0  0  0  0  0  0  0  0  0
  152.4735  143.2873  161.2693 H   0  0  0  0  0  0  0  0  0  0  0  0
  152.3215  140.9631  160.3876 H   0  0  0  0  0  0  0  0  0  0  0  0
  150.9434  138.7840  158.7858 H   0  0  0  0  0  0  0  0  0  0  0  0
  151.5858  138.4328  157.2091 H   0  0  0  0  0  0  0  0  0  0  0  0
  153.4237  139.7705  159.2179 H   0  0  0  0  0  0  0  0  0  0  0  0
  153.1162  138.0510  159.3750 H   0  0  0  0  0  0  0  0  0  0  0  0
  154.4746  137.7863  157.8340 H   0  0  0  0  0  0  0  0  0  0  0  0
  1  2  2  0  0  0  0
  2  7  1  0  0  0  0
  2  3  1  0  0  0  0
  3  4  2  0  0  0  0
  3 22  1  0  0  0  0
  4  5  1  0  0  0  0
  4 23  1  0  0  0  0
  5  6  2  0  0  0  0
  5 24  1  0  0  0  0
  6  7  1  0  0  0  0
  6 25  1  0  0  0  0
  7  8  1  0  0  0  0
  8  9  1  0  0  0  0
  8 26  1  0  0  0  0
  8 27  1  0  0  0  0
  9 18  1  0  0  0  0
  9 10  2  0  0  0  0
 10 11  1  0  0  0  0
 11 17  2  0  0  0  0
 11 12  1  0  0  0  0
 12 13  2  0  0  0  0
 12 28  1  0  0  0  0
 13 14  1  0  0  0  0
 13 15  1  0  0  0  0
 15 16  2  0  0  0  0
 15 29  1  0  0  0  0
 16 17  1  0  0  0  0
 16 30  1  0  0  0  0
 17 18  1  0  0  0  0
 18 19  1  0  0  0  0
 19 20  1  0  0  0  0
 19 31  1  0  0  0  0
 19 32  1  0  0  0  0
 20 21  1  0  0  0  0
 20 33  1  0  0  0  0
 20 34  1  0  0  0  0
 21 35  1  0  0  0  0
M  END
> <s_m_source_file>
AV-unprocessed.smi

> <i_m_source_file_index>
1942

> <i_lp_mmshare_version>
43012

> <i_f3d_flags>
0

> <s_epik_input>
Tz1jMVtjSF1bY0hdW2NIXVtjSF1uMVtDSDJdYyhuMiluKFtDSDJdW0NIMl1bT0hdKWMoYzIzKVtjSF1bY0hdYyhDbClbY0hdMw==

> <s_epik_cmdline>
J2VwaWtfcHl0aG9uJywgJy1waCcsICc3LjAnLCAnLXRuJywgJzgnLCAnLW1hJywgJzIwMCcsICctbWV0YWxfYmluZGluZycsICctaW1hZScsICc8aW5maWxlLm1hZT4nLCAnLW9tYWUnLCAnPG91dGZpbGUubWFlPic=

> <r_lp_tautomer_probability>
1

> <r_epik_Ionization_Penalty>
0.0394182

> <r_epik_Ionization_Penalty_Charging>
8.17328e-07

> <r_epik_Ionization_Penalty_Neutral>
0.0394174

> <r_epik_State_Penalty>
0.0331163

> <r_epik_Charging_Adjusted_Penalty>
0.0331171

> <i_epik_Tot_Q>
0

> <i_epik_Tot_abs_Q>
0

> <r_epik_Metal_State_Penalty>
3.40583e-05

> <b_epik_Metal_Only>
0

> <s_lp_Force_Field>
OPLS_2005

> <r_lp_Energy>
18.6161

> <b_lp_Chiralities_Consistent>
1

> <s_lp_Variant>
AV-unprocessed.smi:1942-1

> <Gold.Version>
5.8.1

> <Gold.Id.Protein>
6NUR|6NUR_protein|mol2

> <Gold.PLP.Fitness>
49.5311

> <Gold.PLP.PLP>
-45.8529

> <Gold.PLP.part.hbond>
-0.7477

> <Gold.PLP.part.metal>
0.0000

> <Gold.PLP.part.buried>
-4.3991

> <Gold.PLP.part.nonpolar>
-41.8543

> <Gold.PLP.part.repulsive>
0.2652

> <Gold.PLP.ligand.clash>
0.0000

> <Gold.PLP.ligand.torsion>
0.3967

> <Gold.PLP.Chemscore.Hbond>
0.9913

> <Gold.PLP.Chemscore.CHOScore>
0.4965

> <Gold.PLP.Chemscore.Metal>
0.0000

> <Gold.Chemscore.Hbonds>
donor molecule, donor type, donor heavy atom, donor atom, acceptor molecule, acceptor atom, score
      P1  H  7997  8010       L1    21  0.99
      L1  C     6    25       P1  8028  0.43

> <Gold.PLP.Chemscore.Internal.Correction>
0.0084

> <Gold.Rescore>
     Score         DG    S(hbond)    S(metal)    S(lipo)     H(rot)  DE(clash)    DE(int)     intcor
     15.15     -16.63       0.99        0.00     116.77       2.27       0.05       1.42       ----

> <Gold.Chemscore.Fitness>
15.1510

> <Gold.Chemscore.DG>
-16.6307

> <Gold.Chemscore.ZeroCoef>
-5.4800

> <Gold.Chemscore.Hbond>
0.9918

> <Gold.Chemscore.Metal>
0.0000

> <Gold.Chemscore.Lipo>
116.7696

> <Gold.Chemscore.Internal_Hbond>
0.0000

> <Gold.Chemscore.DEClash>
0.0549

> <Gold.Chemscore.DEInternal>
1.4248

> <Gold.Chemscore.Rot>
2.2750

> <Gold.Chemscore.Internal.Correction>
   9.000000E+99

> <Gold.Chemscore.Hbonds>
donor molecule, donor type, donor heavy atom, donor atom, acceptor molecule, acceptor atom, score
      P1  H  7997  8010       L1    21  0.73

> <Gold.Chemscore.Hbond.Weighted>
-3.3127

> <Gold.Chemscore.Metal.Weighted>
-0.0000

> <Gold.Chemscore.Lipo.Weighted>
-13.6620

> <Gold.Chemscore.Internal_Hbond.Weighted>
0.0000

> <Gold.Chemscore.DEClash.Weighted>
0.0549

> <Gold.Chemscore.DEInternal.Weighted>
1.4248

> <Gold.Chemscore.Rot.Weighted>
5.8240

> <Gold.Chemscore.Internal.Correction.Weighted>
   9.000000E+99

> <Gold.Protein.RotatedTorsions>
[ 6907 6896 6895 6894 ] final  150.54 input  -60.11 | X-H torsion
[ 7974 7965 7964 7962 ] final  -96.02 input  175.53 | X-H torsion
[ 8008 7997 7996 7995 ] final   28.11 input   59.86 | X-H torsion
[ 10167 10162 10161 10158 ] final  153.37 input  -65.29 | X-H torsion
[ 10718 10713 10712 10709 ] final  133.29 input   66.30 | X-H torsion
[ 10763 10752 10751 10750 ] final  121.76 input  -60.55 | X-H torsion
[ 11005 11000 10999 10996 ] final   32.19 input  -57.11 | X-H torsion

> <Gold.Protein.ActiveResidues>
 VAL166  LYS551  ARG553  GLY616  TRP617  ASP618  TYR619  PRO620  LYS621  CYS622 
 ASP623  PHE694  ASN695  SER759  ASP760  ASP761  ALA762  ILE779  LEU786  VAL792 
 PHE793  MET794  SER795  GLU796  ALA797  LYS798  CYS799  TRP800  GLU811  SER814 

> <Gold.Protein.RotatedAtoms>
  152.1130  133.4311  159.4639 H   0  0  0  0  0  0  0  0  0  0  0  0  # atno 6907 bound_to 6896
  150.6868  134.2625  159.4564 H   0  0  0  0  0  0  0  0  0  0  0  0  # atno 6908 bound_to 6896
  152.0496  134.9661  160.0625 H   0  0  0  0  0  0  0  0  0  0  0  0  # atno 6909 bound_to 6896
  145.3524  140.9478  143.2547 H   0  0  0  0  0  0  0  0  0  0  0  0  # atno 7974 bound_to 7965
  155.0535  140.3182  155.4684 H   0  0  0  0  0  0  0  0  0  0  0  0  # atno 8008 bound_to 7997
  156.2829  140.2141  156.5605 H   0  0  0  0  0  0  0  0  0  0  0  0  # atno 8009 bound_to 7997
  154.7191  140.0491  157.0610 H   0  0  0  0  0  0  0  0  0  0  0  0  # atno 8010 bound_to 7997
  139.4827  144.5279  151.7771 H   0  0  0  0  0  0  0  0  0  0  0  0  # atno 10167 bound_to 10162
  157.4788  131.1084  150.9709 H   0  0  0  0  0  0  0  0  0  0  0  0  # atno 10718 bound_to 10713
  153.6192  135.3416  155.3005 H   0  0  0  0  0  0  0  0  0  0  0  0  # atno 10763 bound_to 10752
  154.8603  135.4269  154.2226 H   0  0  0  0  0  0  0  0  0  0  0  0  # atno 10764 bound_to 10752
  153.3095  135.7030  153.7201 H   0  0  0  0  0  0  0  0  0  0  0  0  # atno 10765 bound_to 10752
  140.2760  134.3027  155.7814 H   0  0  0  0  0  0  0  0  0  0  0  0  # atno 11005 bound_to 11000
  144.8708  139.5042  143.6769 LP  0  0  0  0  0  0  0  0  0  0  0  0  # atno 17320 bound_to 7965
  146.2962  139.7286  142.9125 LP  0  0  0  0  0  0  0  0  0  0  0  0  # atno 17321 bound_to 7965
  140.4801  144.1461  150.5931 LP  0  0  0  0  0  0  0  0  0  0  0  0  # atno 17342 bound_to 10162
  140.4287  143.2578  151.9623 LP  0  0  0  0  0  0  0  0  0  0  0  0  # atno 17343 bound_to 10162
  157.0449  130.5764  149.5361 LP  0  0  0  0  0  0  0  0  0  0  0  0  # atno 17370 bound_to 10713
  156.0110  130.5202  150.7989 LP  0  0  0  0  0  0  0  0  0  0  0  0  # atno 17371 bound_to 10713
  141.2170  133.7496  156.9407 LP  0  0  0  0  0  0  0  0  0  0  0  0  # atno 17394 bound_to 11000
  140.1328  134.9345  157.2361 LP  0  0  0  0  0  0  0  0  0  0  0  0  # atno 17395 bound_to 11000

$$$$
