AV-unprocessed.smi:1196|AV-procd|sdf|4997|dock4
  -GOLD-   22720 4 03D 1   1.00000     0.00000
 Structure written by MMmdl.
 37 38  0  0  0  0  0  0  0  0  1 V2000
  152.1765  139.3674  158.6323 C   0  0  0  0  0  0  0  0  0  0  0  0
  151.6750  140.8143  158.7622 C   0  0  1  0  0  0  0  0  0  0  0  0
  152.8309  141.7845  159.0744 C   0  0  0  0  0  0  0  0  0  0  0  0
  152.3632  143.1336  159.3406 N   0  0  0  0  0  0  0  0  0  0  0  0
  152.5670  144.2723  158.5904 C   0  0  0  0  0  0  0  0  0  0  0  0
  151.9469  145.3020  159.2383 C   0  0  0  0  0  0  0  0  0  0  0  0
  151.3837  144.6859  160.3908 C   0  0  0  0  0  0  0  0  0  0  0  0
  151.6351  143.3878  160.4499 N   0  0  0  0  0  0  0  0  0  0  0  0
  150.9983  141.2214  157.5327 N   0  0  0  0  0  0  0  0  0  0  0  0
  150.0750  140.5042  156.8749 C   0  0  0  0  0  0  0  0  0  0  0  0
  149.7049  139.3859  157.2330 O   0  0  0  0  0  0  0  0  0  0  0  0
  149.4743  141.1572  155.6278 C   0  0  0  0  0  0  0  0  0  0  0  0
  149.5708  140.2580  154.3811 C   0  0  0  0  0  0  0  0  0  0  0  0
  148.3512  139.3314  154.2130 C   0  0  2  0  0  0  0  0  0  0  0  0
  148.2961  138.7055  152.9028 N   0  0  0  0  0  0  0  0  0  0  0  0
  147.1766  139.0142  152.2343 C   0  0  0  0  0  0  0  0  0  0  0  0
  146.8750  138.6198  151.1104 O   0  0  0  0  0  0  0  0  0  0  0  0
  146.4466  139.8274  153.0052 N   0  0  0  0  0  0  0  0  0  0  0  0
  147.0362  140.0889  154.1704 C   0  0  0  0  0  0  0  0  0  0  0  0
  146.6120  140.8129  155.0688 O   0  0  0  0  0  0  0  0  0  0  0  0
  152.6752  139.0426  159.5458 H   0  0  0  0  0  0  0  0  0  0  0  0
  152.8870  139.2656  157.8113 H   0  0  0  0  0  0  0  0  0  0  0  0
  151.3526  138.6774  158.4476 H   0  0  0  0  0  0  0  0  0  0  0  0
  150.9670  140.8554  159.5922 H   0  0  0  0  0  0  0  0  0  0  0  0
  153.3777  141.4428  159.9540 H   0  0  0  0  0  0  0  0  0  0  0  0
  153.5495  141.8087  158.2531 H   0  0  0  0  0  0  0  0  0  0  0  0
  153.1319  144.2552  157.6699 H   0  0  0  0  0  0  0  0  0  0  0  0
  151.9027  146.3376  158.9356 H   0  0  0  0  0  0  0  0  0  0  0  0
  150.8042  145.1403  161.1808 H   0  0  0  0  0  0  0  0  0  0  0  0
  151.2330  142.1340  157.1694 H   0  0  0  0  0  0  0  0  0  0  0  0
  148.4324  141.3982  155.8406 H   0  0  0  0  0  0  0  0  0  0  0  0
  149.9805  142.1042  155.4338 H   0  0  0  0  0  0  0  0  0  0  0  0
  149.6625  140.8868  153.4936 H   0  0  0  0  0  0  0  0  0  0  0  0
  150.4840  139.6611  154.4258 H   0  0  0  0  0  0  0  0  0  0  0  0
  148.3174  138.5707  154.9938 H   0  0  0  0  0  0  0  0  0  0  0  0
  149.0261  138.1043  152.5492 H   0  0  0  0  0  0  0  0  0  0  0  0
  145.5531  140.2088  152.7303 H   0  0  0  0  0  0  0  0  0  0  0  0
  1  2  1  0  0  0  0
  1 21  1  0  0  0  0
  1 22  1  0  0  0  0
  1 23  1  0  0  0  0
  2  3  1  0  0  0  0
  2  9  1  0  0  0  0
  2 24  1  0  0  0  0
  3  4  1  0  0  0  0
  3 25  1  0  0  0  0
  3 26  1  0  0  0  0
  4  8  1  0  0  0  0
  4  5  1  0  0  0  0
  5  6  2  0  0  0  0
  5 27  1  0  0  0  0
  6  7  1  0  0  0  0
  6 28  1  0  0  0  0
  7  8  2  0  0  0  0
  7 29  1  0  0  0  0
  9 10  1  0  0  0  0
  9 30  1  0  0  0  0
 10 11  2  0  0  0  0
 10 12  1  0  0  0  0
 12 13  1  0  0  0  0
 12 31  1  0  0  0  0
 12 32  1  0  0  0  0
 13 14  1  0  0  0  0
 13 33  1  0  0  0  0
 13 34  1  0  0  0  0
 14 19  1  0  0  0  0
 14 15  1  0  0  0  0
 14 35  1  0  0  0  0
 15 16  1  0  0  0  0
 15 36  1  0  0  0  0
 16 17  2  0  0  0  0
 16 18  1  0  0  0  0
 18 19  1  0  0  0  0
 18 37  1  0  0  0  0
 19 20  2  0  0  0  0
M  END
> <s_m_source_file>
AV-unprocessed.smi

> <i_m_source_file_index>
1196

> <i_lp_mmshare_version>
43012

> <i_f3d_flags>
0

> <s_epik_input>
bjFbY0hdW2NIXVtjSF1uMVtDSDJdW0NAQEhdKFtDSDNdKVtOSF1DKD1PKVtDSDJdW0NIMl1bQ0BASF0yW05IXUMoPU8pW05IXUMyPU8=

> <s_epik_cmdline>
J2VwaWtfcHl0aG9uJywgJy1waCcsICc3LjAnLCAnLXRuJywgJzgnLCAnLW1hJywgJzIwMCcsICctbWV0YWxfYmluZGluZycsICctaW1hZScsICc8aW5maWxlLm1hZT4nLCAnLW9tYWUnLCAnPG91dGZpbGUubWFlPic=

> <r_lp_tautomer_probability>
1

> <r_epik_Ionization_Penalty>
0.00815973

> <r_epik_Ionization_Penalty_Charging>
0

> <r_epik_Ionization_Penalty_Neutral>
0.00815973

> <r_epik_State_Penalty>
0.00583796

> <r_epik_Charging_Adjusted_Penalty>
0.00583796

> <i_epik_Tot_Q>
0

> <i_epik_Tot_abs_Q>
0

> <r_epik_Metal_State_Penalty>
0.409204

> <b_epik_Metal_Only>
0

> <s_lp_Force_Field>
OPLS_2005

> <r_lp_Energy>
16.5203

> <b_lp_Chiralities_Consistent>
1

> <s_lp_Variant>
AV-unprocessed.smi:1196-2

> <Gold.Version>
5.8.1

> <Gold.Id.Protein>
6NUR|6NUR_protein|mol2

> <Gold.PLP.Fitness>
48.3248

> <Gold.PLP.PLP>
-40.9983

> <Gold.PLP.part.hbond>
-4.0410

> <Gold.PLP.part.metal>
0.0000

> <Gold.PLP.part.buried>
-4.9574

> <Gold.PLP.part.nonpolar>
-33.3993

> <Gold.PLP.part.repulsive>
0.9730

> <Gold.PLP.ligand.clash>
0.0000

> <Gold.PLP.ligand.torsion>
0.4466

> <Gold.PLP.Chemscore.Hbond>
2.7200

> <Gold.PLP.Chemscore.CHOScore>
0.0000

> <Gold.PLP.Chemscore.Metal>
0.0000

> <Gold.Chemscore.Hbonds>
donor molecule, donor type, donor heavy atom, donor atom, acceptor molecule, acceptor atom, score
      L1  H    15    36       P1  7948  0.64
      L1  H    18    37       P1 10175  1.00
      P1  H  7954  7966       L1    17  1.00

> <Gold.PLP.Chemscore.Internal.Correction>
0.0596

> <Gold.Rescore>
     Score         DG    S(hbond)    S(metal)    S(lipo)     H(rot)  DE(clash)    DE(int)     intcor
     12.66     -16.14       2.71        0.00      78.48       2.96       0.32       3.16       ----

> <Gold.Chemscore.Fitness>
12.6555

> <Gold.Chemscore.DG>
-16.1414

> <Gold.Chemscore.ZeroCoef>
-5.4800

> <Gold.Chemscore.Hbond>
2.7098

> <Gold.Chemscore.Metal>
0.0000

> <Gold.Chemscore.Lipo>
78.4777

> <Gold.Chemscore.Internal_Hbond>
0.0000

> <Gold.Chemscore.DEClash>
0.3225

> <Gold.Chemscore.DEInternal>
3.1635

> <Gold.Chemscore.Rot>
2.9575

> <Gold.Chemscore.Internal.Correction>
   9.000000E+99

> <Gold.Chemscore.Hbonds>
donor molecule, donor type, donor heavy atom, donor atom, acceptor molecule, acceptor atom, score
      L1  H    15    36       P1  7948  0.62
      L1  H    18    37       P1 10175  0.92
      P1  H  7954  7966       L1    17  0.94

> <Gold.Chemscore.Hbond.Weighted>
-9.0509

> <Gold.Chemscore.Metal.Weighted>
-0.0000

> <Gold.Chemscore.Lipo.Weighted>
-9.1819

> <Gold.Chemscore.Internal_Hbond.Weighted>
0.0000

> <Gold.Chemscore.DEClash.Weighted>
0.3225

> <Gold.Chemscore.DEInternal.Weighted>
3.1635

> <Gold.Chemscore.Rot.Weighted>
7.5713

> <Gold.Chemscore.Internal.Correction.Weighted>
   9.000000E+99

> <Gold.Protein.RotatedTorsions>
[ 6907 6896 6895 6894 ] final   96.85 input  -60.11 | X-H torsion
[ 7974 7965 7964 7962 ] final  111.62 input  175.53 | X-H torsion
[ 8008 7997 7996 7995 ] final  144.75 input   59.86 | X-H torsion
[ 10167 10162 10161 10158 ] final  118.92 input  -65.29 | X-H torsion
[ 10718 10713 10712 10709 ] final    4.12 input   66.30 | X-H torsion
[ 10763 10752 10751 10750 ] final   92.66 input  -60.55 | X-H torsion
[ 11005 11000 10999 10996 ] final  -79.94 input  -57.11 | X-H torsion

> <Gold.Protein.ActiveResidues>
 VAL166  LYS551  ARG553  GLY616  TRP617  ASP618  TYR619  PRO620  LYS621  CYS622 
 ASP623  PHE694  ASN695  SER759  ASP760  ASP761  ALA762  ILE779  LEU786  VAL792 
 PHE793  MET794  SER795  GLU796  ALA797  LYS798  CYS799  TRP800  GLU811  SER814 

> <Gold.Protein.RotatedAtoms>
  152.5430  134.0823  159.8240 H   0  0  0  0  0  0  0  0  0  0  0  0  # atno 6907 bound_to 6896
  151.0923  133.5299  159.2621 H   0  0  0  0  0  0  0  0  0  0  0  0  # atno 6908 bound_to 6896
  151.2085  135.0480  159.8956 H   0  0  0  0  0  0  0  0  0  0  0  0  # atno 6909 bound_to 6896
  145.2399  139.2783  143.4123 H   0  0  0  0  0  0  0  0  0  0  0  0  # atno 7974 bound_to 7965
  156.2900  140.2227  156.5104 H   0  0  0  0  0  0  0  0  0  0  0  0  # atno 8008 bound_to 7997
  154.7614  140.0473  157.0998 H   0  0  0  0  0  0  0  0  0  0  0  0  # atno 8009 bound_to 7997
  154.9987  140.3099  155.4879 H   0  0  0  0  0  0  0  0  0  0  0  0  # atno 8010 bound_to 7997
  139.6080  144.7075  151.2910 H   0  0  0  0  0  0  0  0  0  0  0  0  # atno 10167 bound_to 10162
  156.8879  130.5677  149.5651 H   0  0  0  0  0  0  0  0  0  0  0  0  # atno 10718 bound_to 10713
  153.2216  135.4353  155.0496 H   0  0  0  0  0  0  0  0  0  0  0  0  # atno 10763 bound_to 10752
  154.8253  135.3357  154.6918 H   0  0  0  0  0  0  0  0  0  0  0  0  # atno 10764 bound_to 10752
  153.7350  135.7008  153.5036 H   0  0  0  0  0  0  0  0  0  0  0  0  # atno 10765 bound_to 10752
  141.1668  133.7128  156.8199 H   0  0  0  0  0  0  0  0  0  0  0  0  # atno 11005 bound_to 11000
  146.3331  140.2759  142.8608 LP  0  0  0  0  0  0  0  0  0  0  0  0  # atno 17320 bound_to 7965
  144.9598  140.8264  143.5520 LP  0  0  0  0  0  0  0  0  0  0  0  0  # atno 17321 bound_to 7965
  140.7298  143.6896  150.7933 LP  0  0  0  0  0  0  0  0  0  0  0  0  # atno 17342 bound_to 10162
  140.0485  143.5273  152.2684 LP  0  0  0  0  0  0  0  0  0  0  0  0  # atno 17343 bound_to 10162
  156.0644  130.5690  150.9258 LP  0  0  0  0  0  0  0  0  0  0  0  0  # atno 17370 bound_to 10713
  157.6101  131.0937  150.8809 LP  0  0  0  0  0  0  0  0  0  0  0  0  # atno 17371 bound_to 10713
  140.2127  134.8816  157.3292 LP  0  0  0  0  0  0  0  0  0  0  0  0  # atno 17394 bound_to 11000
  140.2070  134.4185  155.7632 LP  0  0  0  0  0  0  0  0  0  0  0  0  # atno 17395 bound_to 11000

$$$$
