AV-unprocessed.smi:2471|AV-procd|sdf|9738|dock7
  -GOLD-   2272013383D 1   1.00000     0.00000
 Structure written by MMmdl.
 40 41  0  0  0  0  0  0  0  0  1 V2000
  145.7033  129.4599  152.1089 C   0  0  0  0  0  0  0  0  0  0  0  0
  145.7736  130.9358  151.7776 C   0  0  0  0  0  0  0  0  0  0  0  0
  144.8094  131.5381  150.9460 C   0  0  0  0  0  0  0  0  0  0  0  0
  144.9299  132.9140  150.6806 C   0  0  0  0  0  0  0  0  0  0  0  0
  146.0011  133.6260  151.2544 C   0  0  0  0  0  0  0  0  0  0  0  0
  146.9245  132.9463  152.0803 C   0  0  0  0  0  0  0  0  0  0  0  0
  147.9633  133.7544  152.6154 N   0  0  0  0  0  0  0  0  0  0  0  0
  148.7711  133.4862  153.6567 C   0  0  0  0  0  0  0  0  0  0  0  0
  148.7615  132.4468  154.3172 O   0  0  0  0  0  0  0  0  0  0  0  0
  149.6089  134.5049  153.8980 N   0  0  0  0  0  0  0  0  0  0  0  0
  150.6070  134.5314  154.9634 C   0  0  0  0  0  0  0  0  0  0  0  0
  150.8304  135.9513  155.5321 C   0  0  1  0  0  0  0  0  0  0  0  0
  151.9577  136.0062  156.5882 C   0  0  0  0  0  0  0  0  0  0  0  0
  152.1249  137.4212  157.1647 C   0  0  0  0  0  0  0  0  0  0  0  0
  152.3730  138.4538  156.0554 C   0  0  0  0  0  0  0  0  0  0  0  0
  151.2591  138.4121  154.9954 C   0  0  0  0  0  0  0  0  0  0  0  0
  151.0622  136.9980  154.4151 C   0  0  1  0  0  0  0  0  0  0  0  0
  152.1839  136.6603  153.6202 O   0  0  0  0  0  0  0  0  0  0  0  0
  146.8000  131.6186  152.3291 N   0  0  0  0  0  0  0  0  0  0  0  0
  145.0101  128.9403  151.4469 H   0  0  0  0  0  0  0  0  0  0  0  0
  145.3653  129.3206  153.1360 H   0  0  0  0  0  0  0  0  0  0  0  0
  146.6845  128.9954  152.0038 H   0  0  0  0  0  0  0  0  0  0  0  0
  143.9981  130.9641  150.5229 H   0  0  0  0  0  0  0  0  0  0  0  0
  144.2121  133.4162  150.0489 H   0  0  0  0  0  0  0  0  0  0  0  0
  146.1066  134.6838  151.0617 H   0  0  0  0  0  0  0  0  0  0  0  0
  148.0942  134.6472  152.1638 H   0  0  0  0  0  0  0  0  0  0  0  0
  149.5529  135.3210  153.3063 H   0  0  0  0  0  0  0  0  0  0  0  0
  150.2685  133.8588  155.7518 H   0  0  0  0  0  0  0  0  0  0  0  0
  151.5472  134.1188  154.5932 H   0  0  0  0  0  0  0  0  0  0  0  0
  149.9076  136.2418  156.0372 H   0  0  0  0  0  0  0  0  0  0  0  0
  151.7475  135.3148  157.4044 H   0  0  0  0  0  0  0  0  0  0  0  0
  152.8986  135.6785  156.1442 H   0  0  0  0  0  0  0  0  0  0  0  0
  151.2297  137.6948  157.7246 H   0  0  0  0  0  0  0  0  0  0  0  0
  152.9508  137.4365  157.8765 H   0  0  0  0  0  0  0  0  0  0  0  0
  152.4371  139.4532  156.4864 H   0  0  0  0  0  0  0  0  0  0  0  0
  153.3377  138.2604  155.5849 H   0  0  0  0  0  0  0  0  0  0  0  0
  150.3247  138.7428  155.4508 H   0  0  0  0  0  0  0  0  0  0  0  0
  151.4746  139.1232  154.1969 H   0  0  0  0  0  0  0  0  0  0  0  0
  150.1951  137.0115  153.7536 H   0  0  0  0  0  0  0  0  0  0  0  0
  151.8863  136.4882  152.7400 H   0  0  0  0  0  0  0  0  0  0  0  0
  1  2  1  0  0  0  0
  1 20  1  0  0  0  0
  1 21  1  0  0  0  0
  1 22  1  0  0  0  0
  2 19  1  0  0  0  0
  2  3  2  0  0  0  0
  3  4  1  0  0  0  0
  3 23  1  0  0  0  0
  4  5  2  0  0  0  0
  4 24  1  0  0  0  0
  5  6  1  0  0  0  0
  5 25  1  0  0  0  0
  6  7  1  0  0  0  0
  6 19  2  0  0  0  0
  7  8  1  0  0  0  0
  7 26  1  0  0  0  0
  8  9  2  0  0  0  0
  8 10  1  0  0  0  0
 10 11  1  0  0  0  0
 10 27  1  0  0  0  0
 11 12  1  0  0  0  0
 11 28  1  0  0  0  0
 11 29  1  0  0  0  0
 12 17  1  0  0  0  0
 12 13  1  0  0  0  0
 12 30  1  0  0  0  0
 13 14  1  0  0  0  0
 13 31  1  0  0  0  0
 13 32  1  0  0  0  0
 14 15  1  0  0  0  0
 14 33  1  0  0  0  0
 14 34  1  0  0  0  0
 15 16  1  0  0  0  0
 15 35  1  0  0  0  0
 15 36  1  0  0  0  0
 16 17  1  0  0  0  0
 16 37  1  0  0  0  0
 16 38  1  0  0  0  0
 17 18  1  0  0  0  0
 17 39  1  0  0  0  0
 18 40  1  0  0  0  0
M  END
> <s_m_source_file>
AV-unprocessed.smi

> <i_m_source_file_index>
2471

> <i_lp_mmshare_version>
43012

> <i_f3d_flags>
0

> <s_epik_input>
W0NIM11jMVtjSF1bY0hdW2NIXWMobjEpW05IXUMoPU8pW05IXVtDSDJdW0NAQEhdMltDSDJdW0NIMl1bQ0gyXVtDSDJdW0NASF0yW09IXQ==

> <s_epik_cmdline>
J2VwaWtfcHl0aG9uJywgJy1waCcsICc3LjAnLCAnLXRuJywgJzgnLCAnLW1hJywgJzIwMCcsICctbWV0YWxfYmluZGluZycsICctaW1hZScsICc8aW5maWxlLm1hZT4nLCAnLW9tYWUnLCAnPG91dGZpbGUubWFlPic=

> <r_lp_tautomer_probability>
1

> <r_epik_Ionization_Penalty>
8.52237e-05

> <r_epik_Ionization_Penalty_Charging>
0

> <r_epik_Ionization_Penalty_Neutral>
8.52237e-05

> <r_epik_State_Penalty>
-0

> <r_epik_Charging_Adjusted_Penalty>
0

> <i_epik_Tot_Q>
0

> <i_epik_Tot_abs_Q>
0

> <r_epik_Metal_State_Penalty>
-0

> <b_epik_Metal_Only>
0

> <s_lp_Force_Field>
OPLS_2005

> <r_lp_Energy>
16.6086

> <b_lp_Chiralities_Consistent>
1

> <s_lp_Variant>
AV-unprocessed.smi:2471-2

> <Gold.Version>
5.8.1

> <Gold.Id.Protein>
6NUR|6NUR_protein|mol2

> <Gold.PLP.Fitness>
45.2552

> <Gold.PLP.PLP>
-33.8093

> <Gold.PLP.part.hbond>
-4.0000

> <Gold.PLP.part.metal>
0.0000

> <Gold.PLP.part.buried>
-5.3810

> <Gold.PLP.part.nonpolar>
-24.6751

> <Gold.PLP.part.repulsive>
0.4120

> <Gold.PLP.ligand.clash>
0.0000

> <Gold.PLP.ligand.torsion>
0.2828

> <Gold.PLP.Chemscore.Hbond>
4.0000

> <Gold.PLP.Chemscore.CHOScore>
0.0000

> <Gold.PLP.Chemscore.Metal>
0.0000

> <Gold.Chemscore.Hbonds>
donor molecule, donor type, donor heavy atom, donor atom, acceptor molecule, acceptor atom, score
      L1  H     7    26       P1  7948  1.00
      L1  H    10    27       P1  7948  0.55
      L1  H    18    40       P1  7949  0.96
      P1  H 10752 10764       L1    18  0.63

> <Gold.PLP.Chemscore.Internal.Correction>
0.0115

> <Gold.Rescore>
     Score         DG    S(hbond)    S(metal)    S(lipo)     H(rot)  DE(clash)    DE(int)     intcor
     19.26     -20.90       3.25        0.00      76.91       1.73       0.10       1.54       ----

> <Gold.Chemscore.Fitness>
19.2621

> <Gold.Chemscore.DG>
-20.8953

> <Gold.Chemscore.ZeroCoef>
-5.4800

> <Gold.Chemscore.Hbond>
3.2500

> <Gold.Chemscore.Metal>
0.0000

> <Gold.Chemscore.Lipo>
76.9148

> <Gold.Chemscore.Internal_Hbond>
0.0000

> <Gold.Chemscore.DEClash>
0.0972

> <Gold.Chemscore.DEInternal>
1.5360

> <Gold.Chemscore.Rot>
1.7339

> <Gold.Chemscore.Internal.Correction>
   9.000000E+99

> <Gold.Chemscore.Hbonds>
donor molecule, donor type, donor heavy atom, donor atom, acceptor molecule, acceptor atom, score
      L1  H     7    26       P1  7948  0.25
      L1  H    10    27       P1  7948  0.03
      L1  H    18    40       P1  7949  0.91
      P1  H 10752 10764       L1    18  0.37

> <Gold.Chemscore.Hbond.Weighted>
-10.8550

> <Gold.Chemscore.Metal.Weighted>
-0.0000

> <Gold.Chemscore.Lipo.Weighted>
-8.9990

> <Gold.Chemscore.Internal_Hbond.Weighted>
0.0000

> <Gold.Chemscore.DEClash.Weighted>
0.0972

> <Gold.Chemscore.DEInternal.Weighted>
1.5360

> <Gold.Chemscore.Rot.Weighted>
4.4387

> <Gold.Chemscore.Internal.Correction.Weighted>
   9.000000E+99

> <Gold.Protein.RotatedTorsions>
[ 6907 6896 6895 6894 ] final  -81.80 input  -60.11 | X-H torsion
[ 7974 7965 7964 7962 ] final  -47.66 input  175.53 | X-H torsion
[ 8008 7997 7996 7995 ] final -169.58 input   59.86 | X-H torsion
[ 10167 10162 10161 10158 ] final   -5.96 input  -65.29 | X-H torsion
[ 10718 10713 10712 10709 ] final  174.10 input   66.30 | X-H torsion
[ 10763 10752 10751 10750 ] final  -70.39 input  -60.55 | X-H torsion
[ 11005 11000 10999 10996 ] final -149.50 input  -57.11 | X-H torsion

> <Gold.Protein.ActiveResidues>
 VAL166  LYS551  ARG553  GLY616  TRP617  ASP618  TYR619  PRO620  LYS621  CYS622 
 ASP623  PHE694  ASN695  SER759  ASP760  ASP761  ALA762  ILE779  LEU786  VAL792 
 PHE793  MET794  SER795  GLU796  ALA797  LYS798  CYS799  TRP800  GLU811  SER814 

> <Gold.Protein.RotatedAtoms>
  150.6906  134.3762  159.5013 H   0  0  0  0  0  0  0  0  0  0  0  0  # atno 6907 bound_to 6896
  152.1571  134.8939  160.0553 H   0  0  0  0  0  0  0  0  0  0  0  0  # atno 6908 bound_to 6896
  152.0015  133.3792  159.4220 H   0  0  0  0  0  0  0  0  0  0  0  0  # atno 6909 bound_to 6896
  145.9592  140.7496  142.9466 H   0  0  0  0  0  0  0  0  0  0  0  0  # atno 7974 bound_to 7965
  155.9069  140.1050  157.1308 H   0  0  0  0  0  0  0  0  0  0  0  0  # atno 8008 bound_to 7997
  154.4034  140.1282  156.4572 H   0  0  0  0  0  0  0  0  0  0  0  0  # atno 8009 bound_to 7997
  155.7357  140.3467  155.5082 H   0  0  0  0  0  0  0  0  0  0  0  0  # atno 8010 bound_to 7997
  140.6981  143.6248  150.8578 H   0  0  0  0  0  0  0  0  0  0  0  0  # atno 10167 bound_to 10162
  156.9545  131.0041  151.2941 H   0  0  0  0  0  0  0  0  0  0  0  0  # atno 10718 bound_to 10713
  154.4169  135.5995  153.5986 H   0  0  0  0  0  0  0  0  0  0  0  0  # atno 10763 bound_to 10752
  152.9792  135.5943  154.4002 H   0  0  0  0  0  0  0  0  0  0  0  0  # atno 10764 bound_to 10752
  154.3822  135.2841  155.2183 H   0  0  0  0  0  0  0  0  0  0  0  0  # atno 10765 bound_to 10752
  140.7501  134.3416  157.5128 H   0  0  0  0  0  0  0  0  0  0  0  0  # atno 11005 bound_to 11000
  144.6811  140.2563  143.7325 LP  0  0  0  0  0  0  0  0  0  0  0  0  # atno 17320 bound_to 7965
  145.8063  139.1985  143.2019 LP  0  0  0  0  0  0  0  0  0  0  0  0  # atno 17321 bound_to 7965
  139.9968  143.5787  152.2890 LP  0  0  0  0  0  0  0  0  0  0  0  0  # atno 17342 bound_to 10162
  139.6462  144.7658  151.2239 LP  0  0  0  0  0  0  0  0  0  0  0  0  # atno 17343 bound_to 10162
  157.5699  130.8303  149.8378 LP  0  0  0  0  0  0  0  0  0  0  0  0  # atno 17370 bound_to 10713
  156.0348  130.3754  150.1589 LP  0  0  0  0  0  0  0  0  0  0  0  0  # atno 17371 bound_to 10713
  139.8789  134.9136  156.3088 LP  0  0  0  0  0  0  0  0  0  0  0  0  # atno 17394 bound_to 11000
  140.9759  133.7298  156.0601 LP  0  0  0  0  0  0  0  0  0  0  0  0  # atno 17395 bound_to 11000

$$$$
