AV-unprocessed.smi:237|AV-procd|sdf|1818|dock2
  -GOLD-   2262020413D 1   1.00000     0.00000
 Structure written by MMmdl.
 53 56  0  0  0  0  0  0  0  0  1 V2000
  151.3291  144.8048  160.4683 C   0  0  0  0  0  0  0  0  0  0  0  0
  150.2727  144.1666  159.5640 C   0  0  0  0  0  0  0  0  0  0  0  0
  150.9373  143.5055  158.4992 O   0  0  0  0  0  0  0  0  0  0  0  0
  151.1037  142.1030  158.6728 C   0  0  0  0  0  0  0  0  0  0  0  0
  152.5568  141.6598  158.9956 C   0  0  1  0  0  0  0  0  0  0  0  0
  152.9766  142.2980  160.3398 C   0  0  0  0  0  0  0  0  0  0  0  0
  154.3795  141.8574  160.7779 C   0  0  0  0  0  0  0  0  0  0  0  0
  154.4480  140.3278  160.8332 C   0  0  0  0  0  0  0  0  0  0  0  0
  154.0450  139.7326  159.4783 C   0  0  0  0  0  0  0  0  0  0  0  0
  152.7189  140.1967  159.0644 N   0  0  0  0  0  0  0  0  0  0  0  0
  152.2906  139.5305  157.9674 C   0  0  0  0  0  0  0  0  0  0  0  0
  152.5928  139.9979  156.7267 N   0  0  0  0  0  0  0  0  0  0  0  0
  152.1435  139.3549  155.6450 C   0  0  0  0  0  0  0  0  0  0  0  0
  151.3929  138.2529  155.5801 N   0  0  0  0  0  0  0  0  0  0  0  0
  151.0937  137.7815  156.8251 C   0  0  0  0  0  0  0  0  0  0  0  0
  151.4972  138.3575  158.0613 C   0  0  0  0  0  0  0  0  0  0  0  0
  150.9911  137.6188  159.1219 N   0  0  0  0  0  0  0  0  0  0  0  0
  150.3251  136.6566  158.5441 C   0  0  0  0  0  0  0  0  0  0  0  0
  150.3480  136.6660  157.1662 N   0  0  0  0  0  0  0  0  0  0  0  0
  149.6934  135.7218  156.2711 C   0  0  0  0  0  0  0  0  0  0  0  0
  150.3576  134.3251  156.1966 C   0  0  0  0  0  0  0  0  0  0  0  0
  150.2958  133.6940  157.5944 C   0  0  0  0  0  0  0  0  0  0  0  0
  151.1596  132.5800  157.6947 O   0  0  0  0  0  0  0  0  0  0  0  0
  149.9721  133.4092  155.0215 C   0  0  0  0  0  0  0  0  0  0  0  0
  151.1790  133.7354  154.3006 O   0  0  0  0  0  0  0  0  0  0  0  0
  151.7373  134.2707  155.5186 C   0  0  0  0  0  0  0  0  0  0  0  0
  150.8642  145.3190  161.3095 H   0  0  0  0  0  0  0  0  0  0  0  0
  151.9258  145.5329  159.9183 H   0  0  0  0  0  0  0  0  0  0  0  0
  152.0070  144.0512  160.8698 H   0  0  0  0  0  0  0  0  0  0  0  0
  149.6732  143.4663  160.1447 H   0  0  0  0  0  0  0  0  0  0  0  0
  149.6034  144.9349  159.1747 H   0  0  0  0  0  0  0  0  0  0  0  0
  150.4202  141.7691  159.4549 H   0  0  0  0  0  0  0  0  0  0  0  0
  150.7717  141.6101  157.7584 H   0  0  0  0  0  0  0  0  0  0  0  0
  153.2363  142.0391  158.2328 H   0  0  0  0  0  0  0  0  0  0  0  0
  152.9462  143.3854  160.2632 H   0  0  0  0  0  0  0  0  0  0  0  0
  152.2589  142.0242  161.1148 H   0  0  0  0  0  0  0  0  0  0  0  0
  155.1233  142.2367  160.0762 H   0  0  0  0  0  0  0  0  0  0  0  0
  154.6212  142.2815  161.7528 H   0  0  0  0  0  0  0  0  0  0  0  0
  155.4545  140.0048  161.1000 H   0  0  0  0  0  0  0  0  0  0  0  0
  153.7819  139.9544  161.6122 H   0  0  0  0  0  0  0  0  0  0  0  0
  154.7850  140.0126  158.7266 H   0  0  0  0  0  0  0  0  0  0  0  0
  154.0514  138.6433  159.5417 H   0  0  0  0  0  0  0  0  0  0  0  0
  152.4212  139.7881  154.6956 H   0  0  0  0  0  0  0  0  0  0  0  0
  149.7951  135.9079  159.1143 H   0  0  0  0  0  0  0  0  0  0  0  0
  148.6559  135.6275  156.5939 H   0  0  0  0  0  0  0  0  0  0  0  0
  149.6526  136.1857  155.2851 H   0  0  0  0  0  0  0  0  0  0  0  0
  150.5899  134.4125  158.3603 H   0  0  0  0  0  0  0  0  0  0  0  0
  149.2809  133.3790  157.8387 H   0  0  0  0  0  0  0  0  0  0  0  0
  150.9623  131.9811  156.9910 H   0  0  0  0  0  0  0  0  0  0  0  0
  149.9354  132.3506  155.2837 H   0  0  0  0  0  0  0  0  0  0  0  0
  149.0679  133.6985  154.4889 H   0  0  0  0  0  0  0  0  0  0  0  0
  152.2158  135.2388  155.3783 H   0  0  0  0  0  0  0  0  0  0  0  0
  152.4326  133.5686  155.9819 H   0  0  0  0  0  0  0  0  0  0  0  0
  1  2  1  0  0  0  0
  1 27  1  0  0  0  0
  1 28  1  0  0  0  0
  1 29  1  0  0  0  0
  2  3  1  0  0  0  0
  2 30  1  0  0  0  0
  2 31  1  0  0  0  0
  3  4  1  0  0  0  0
  4  5  1  0  0  0  0
  4 32  1  0  0  0  0
  4 33  1  0  0  0  0
  5 10  1  0  0  0  0
  5  6  1  0  0  0  0
  5 34  1  0  0  0  0
  6  7  1  0  0  0  0
  6 35  1  0  0  0  0
  6 36  1  0  0  0  0
  7  8  1  0  0  0  0
  7 37  1  0  0  0  0
  7 38  1  0  0  0  0
  8  9  1  0  0  0  0
  8 39  1  0  0  0  0
  8 40  1  0  0  0  0
  9 10  1  0  0  0  0
  9 41  1  0  0  0  0
  9 42  1  0  0  0  0
 10 11  1  0  0  0  0
 11 16  1  0  0  0  0
 11 12  2  0  0  0  0
 12 13  1  0  0  0  0
 13 14  2  0  0  0  0
 13 43  1  0  0  0  0
 14 15  1  0  0  0  0
 15 19  1  0  0  0  0
 15 16  2  0  0  0  0
 16 17  1  0  0  0  0
 17 18  2  0  0  0  0
 18 19  1  0  0  0  0
 18 44  1  0  0  0  0
 19 20  1  0  0  0  0
 20 21  1  0  0  0  0
 20 45  1  0  0  0  0
 20 46  1  0  0  0  0
 21 26  1  0  0  0  0
 21 22  1  0  0  0  0
 21 24  1  0  0  0  0
 22 23  1  0  0  0  0
 22 47  1  0  0  0  0
 22 48  1  0  0  0  0
 23 49  1  0  0  0  0
 24 25  1  0  0  0  0
 24 50  1  0  0  0  0
 24 51  1  0  0  0  0
 25 26  1  0  0  0  0
 26 52  1  0  0  0  0
 26 53  1  0  0  0  0
M  END
> <s_m_source_file>
AV-unprocessed.smi

> <i_m_source_file_index>
237

> <i_lp_mmshare_version>
43012

> <i_f3d_flags>
0

> <s_epik_input>
W0NIM11bQ0gyXU9bQ0gyXVtDQEBIXTFbQ0gyXVtDSDJdW0NIMl1bQ0gyXU4xYyhuW2NIXW4yKWMoYzIzKW5bY0hdbjNbQ0gyXUM0KFtDSDJdW09IXSlbQ0gyXU9bQ0gyXTQ=

> <s_epik_cmdline>
J2VwaWtfcHl0aG9uJywgJy1waCcsICc3LjAnLCAnLXRuJywgJzgnLCAnLW1hJywgJzIwMCcsICctbWV0YWxfYmluZGluZycsICctaW1hZScsICc8aW5maWxlLm1hZT4nLCAnLW9tYWUnLCAnPG91dGZpbGUubWFlPic=

> <r_lp_tautomer_probability>
1

> <r_epik_Ionization_Penalty>
0.00358373

> <r_epik_Ionization_Penalty_Charging>
0

> <r_epik_Ionization_Penalty_Neutral>
0.00358373

> <r_epik_State_Penalty>
0.00240903

> <r_epik_Charging_Adjusted_Penalty>
0.00240903

> <i_epik_Tot_Q>
0

> <i_epik_Tot_abs_Q>
0

> <r_epik_Metal_State_Penalty>
-0

> <b_epik_Metal_Only>
0

> <s_lp_Force_Field>
OPLS_2005

> <r_lp_Energy>
39.3208

> <b_lp_Chiralities_Consistent>
1

> <s_lp_Variant>
AV-unprocessed.smi:237-2

> <Gold.Version>
5.8.1

> <Gold.Id.Protein>
6NUR|6NUR_protein|mol2

> <Gold.PLP.Fitness>
41.9725

> <Gold.PLP.PLP>
-38.5354

> <Gold.PLP.part.hbond>
-2.6409

> <Gold.PLP.part.metal>
0.0000

> <Gold.PLP.part.buried>
-5.6285

> <Gold.PLP.part.nonpolar>
-29.6767

> <Gold.PLP.part.repulsive>
0.2557

> <Gold.PLP.ligand.clash>
0.0000

> <Gold.PLP.ligand.torsion>
1.5941

> <Gold.PLP.Chemscore.Hbond>
2.0000

> <Gold.PLP.Chemscore.CHOScore>
0.0000

> <Gold.PLP.Chemscore.Metal>
0.0000

> <Gold.Chemscore.Hbonds>
donor molecule, donor type, donor heavy atom, donor atom, acceptor molecule, acceptor atom, score
      P1  H  7997  8010       L1    12  0.94

> <Gold.PLP.Chemscore.Internal.Correction>
0.6253

> <Gold.Rescore>
     Score         DG    S(hbond)    S(metal)    S(lipo)     H(rot)  DE(clash)    DE(int)     intcor
     12.41     -14.57       1.73        0.00      95.16       3.06       0.37       1.80       ----

> <Gold.Chemscore.Fitness>
12.4068

> <Gold.Chemscore.DG>
-14.5679

> <Gold.Chemscore.ZeroCoef>
-5.4800

> <Gold.Chemscore.Hbond>
1.7343

> <Gold.Chemscore.Metal>
0.0000

> <Gold.Chemscore.Lipo>
95.1628

> <Gold.Chemscore.Internal_Hbond>
0.0000

> <Gold.Chemscore.DEClash>
0.3655

> <Gold.Chemscore.DEInternal>
1.7957

> <Gold.Chemscore.Rot>
3.0620

> <Gold.Chemscore.Internal.Correction>
   9.000000E+99

> <Gold.Chemscore.Hbonds>
donor molecule, donor type, donor heavy atom, donor atom, acceptor molecule, acceptor atom, score
      P1  H  7997  8010       L1    12  0.20

> <Gold.Chemscore.Hbond.Weighted>
-5.7926

> <Gold.Chemscore.Metal.Weighted>
-0.0000

> <Gold.Chemscore.Lipo.Weighted>
-11.1340

> <Gold.Chemscore.Internal_Hbond.Weighted>
0.0000

> <Gold.Chemscore.DEClash.Weighted>
0.3655

> <Gold.Chemscore.DEInternal.Weighted>
1.7957

> <Gold.Chemscore.Rot.Weighted>
7.8388

> <Gold.Chemscore.Internal.Correction.Weighted>
   9.000000E+99

> <Gold.Protein.RotatedTorsions>
[ 6907 6896 6895 6894 ] final -139.92 input  -60.11 | X-H torsion
[ 7974 7965 7964 7962 ] final   27.19 input  175.53 | X-H torsion
[ 8008 7997 7996 7995 ] final   84.00 input   59.86 | X-H torsion
[ 10167 10162 10161 10158 ] final   25.45 input  -65.29 | X-H torsion
[ 10718 10713 10712 10709 ] final  106.44 input   66.30 | X-H torsion
[ 10763 10752 10751 10750 ] final  175.70 input  -60.55 | X-H torsion
[ 11005 11000 10999 10996 ] final  -72.74 input  -57.11 | X-H torsion

> <Gold.Protein.ActiveResidues>
 VAL166  LYS551  ARG553  GLY616  TRP617  ASP618  TYR619  PRO620  LYS621  CYS622 
 ASP623  PHE694  ASN695  SER759  ASP760  ASP761  ALA762  ILE779  LEU786  VAL792 
 PHE793  MET794  SER795  GLU796  ALA797  LYS798  CYS799  TRP800  GLU811  SER814 

> <Gold.Protein.RotatedAtoms>
  151.0540  133.5600  159.2639 H   0  0  0  0  0  0  0  0  0  0  0  0  # atno 6907 bound_to 6896
  151.2600  135.0650  159.9104 H   0  0  0  0  0  0  0  0  0  0  0  0  # atno 6908 bound_to 6896
  152.5386  134.0287  159.8068 H   0  0  0  0  0  0  0  0  0  0  0  0  # atno 6909 bound_to 6896
  146.1798  139.7226  142.8909 H   0  0  0  0  0  0  0  0  0  0  0  0  # atno 7974 bound_to 7965
  155.9313  140.3414  155.6251 H   0  0  0  0  0  0  0  0  0  0  0  0  # atno 8008 bound_to 7997
  155.7154  140.0777  157.2372 H   0  0  0  0  0  0  0  0  0  0  0  0  # atno 8009 bound_to 7997
  154.4086  140.1615  156.2330 H   0  0  0  0  0  0  0  0  0  0  0  0  # atno 8010 bound_to 7997
  140.5105  144.0169  150.6370 H   0  0  0  0  0  0  0  0  0  0  0  0  # atno 10167 bound_to 10162
  157.6668  131.0851  150.6008 H   0  0  0  0  0  0  0  0  0  0  0  0  # atno 10718 bound_to 10713
  154.4712  135.2771  155.1641 H   0  0  0  0  0  0  0  0  0  0  0  0  # atno 10763 bound_to 10752
  154.3389  135.6174  153.5590 H   0  0  0  0  0  0  0  0  0  0  0  0  # atno 10764 bound_to 10752
  152.9864  135.5784  154.5093 H   0  0  0  0  0  0  0  0  0  0  0  0  # atno 10765 bound_to 10752
  141.1613  133.6856  156.7105 H   0  0  0  0  0  0  0  0  0  0  0  0  # atno 11005 bound_to 11000
  145.4110  141.0396  143.3017 LP  0  0  0  0  0  0  0  0  0  0  0  0  # atno 17320 bound_to 7965
  144.8295  139.5652  143.6950 LP  0  0  0  0  0  0  0  0  0  0  0  0  # atno 17321 bound_to 7965
  140.3490  143.2974  152.0508 LP  0  0  0  0  0  0  0  0  0  0  0  0  # atno 17342 bound_to 10162
  139.4895  144.6388  151.6921 LP  0  0  0  0  0  0  0  0  0  0  0  0  # atno 17343 bound_to 10162
  156.6308  130.4431  149.5787 LP  0  0  0  0  0  0  0  0  0  0  0  0  # atno 17370 bound_to 10713
  156.2283  130.6779  151.1438 LP  0  0  0  0  0  0  0  0  0  0  0  0  # atno 17371 bound_to 10713
  140.2891  134.8255  157.4000 LP  0  0  0  0  0  0  0  0  0  0  0  0  # atno 17394 bound_to 11000
  140.1363  134.5029  155.8065 LP  0  0  0  0  0  0  0  0  0  0  0  0  # atno 17395 bound_to 11000

$$$$
