AV-unprocessed.smi:1893|AV-procd|sdf|7678|dock4
  -GOLD-   22720 9413D 1   1.00000     0.00000
 Structure written by MMmdl.
 43 44  0  0  0  0  0  0  0  0  2 V2000
  152.5949  141.1560  159.3613 C   0  0  0  0  0  0  0  0  0  0  0  0
  151.9049  142.5357  159.3060 C   0  0  1  0  0  0  0  0  0  0  0  0
  152.6559  143.4928  160.2596 C   0  0  0  0  0  0  0  0  0  0  0  0
  152.0452  144.8957  160.2704 C   0  0  0  0  0  0  0  0  0  0  0  0
  152.0095  145.4394  158.8431 C   0  0  0  0  0  0  0  0  0  0  0  0
  151.2424  144.4799  157.9238 C   0  0  0  0  0  0  0  0  0  0  0  0
  151.8338  143.1097  157.9208 N   0  3  2  0  0  0  0  0  0  0  0  0
  151.1601  142.2272  156.9243 C   0  0  0  0  0  0  0  0  0  0  0  0
  149.6639  142.0202  157.2221 C   0  0  0  0  0  0  0  0  0  0  0  0
  148.8736  142.1866  156.0105 N   0  0  0  0  0  0  0  0  0  0  0  0
  148.4081  141.1731  155.2647 C   0  0  0  0  0  0  0  0  0  0  0  0
  148.6228  139.9906  155.5335 O   0  0  0  0  0  0  0  0  0  0  0  0
  147.5696  141.5633  154.0377 C   0  0  1  0  0  0  0  0  0  0  0  0
  147.2409  140.3641  153.1289 C   0  0  0  0  0  0  0  0  0  0  0  0
  146.3556  142.2498  154.4574 N   0  0  0  0  0  0  0  0  0  0  0  0
  145.7980  143.3857  154.0283 C   0  0  0  0  0  0  0  0  0  0  0  0
  144.6677  143.6959  154.6473 N   0  0  0  0  0  0  0  0  0  0  0  0
  144.5798  142.6372  155.5060 C   0  0  0  0  0  0  0  0  0  0  0  0
  145.5622  141.7393  155.4295 N   0  0  0  0  0  0  0  0  0  0  0  0
  152.7945  140.8624  160.3924 H   0  0  0  0  0  0  0  0  0  0  0  0
  153.5497  141.1656  158.8343 H   0  0  0  0  0  0  0  0  0  0  0  0
  151.9786  140.3621  158.9416 H   0  0  0  0  0  0  0  0  0  0  0  0
  150.8841  142.4195  159.6741 H   0  0  0  0  0  0  0  0  0  0  0  0
  152.6482  143.0932  161.2745 H   0  0  0  0  0  0  0  0  0  0  0  0
  153.7045  143.5583  159.9646 H   0  0  0  0  0  0  0  0  0  0  0  0
  151.0363  144.8618  160.6837 H   0  0  0  0  0  0  0  0  0  0  0  0
  152.6270  145.5572  160.9130 H   0  0  0  0  0  0  0  0  0  0  0  0
  151.5394  146.4232  158.8315 H   0  0  0  0  0  0  0  0  0  0  0  0
  153.0260  145.5764  158.4710 H   0  0  0  0  0  0  0  0  0  0  0  0
  150.1977  144.4240  158.2343 H   0  0  0  0  0  0  0  0  0  0  0  0
  151.2470  144.9070  156.9229 H   0  0  0  0  0  0  0  0  0  0  0  0
  151.2110  142.6573  155.9270 H   0  0  0  0  0  0  0  0  0  0  0  0
  151.6809  141.2698  156.8702 H   0  0  0  0  0  0  0  0  0  0  0  0
  149.4635  141.0231  157.6126 H   0  0  0  0  0  0  0  0  0  0  0  0
  149.3344  142.7373  157.9760 H   0  0  0  0  0  0  0  0  0  0  0  0
  148.6547  143.1298  155.7231 H   0  0  0  0  0  0  0  0  0  0  0  0
  148.1666  142.2627  153.4492 H   0  0  0  0  0  0  0  0  0  0  0  0
  148.1489  139.8603  152.7953 H   0  0  0  0  0  0  0  0  0  0  0  0
  146.7027  140.6894  152.2383 H   0  0  0  0  0  0  0  0  0  0  0  0
  146.6187  139.6267  153.6380 H   0  0  0  0  0  0  0  0  0  0  0  0
  146.2261  143.9954  153.2458 H   0  0  0  0  0  0  0  0  0  0  0  0
  143.7648  142.5219  156.2055 H   0  0  0  0  0  0  0  0  0  0  0  0
  152.7908  143.2060  157.6126 H   0  0  0  0  0  0  0  0  0  0  0  0
  1  2  1  0  0  0  0
  1 20  1  0  0  0  0
  1 21  1  0  0  0  0
  1 22  1  0  0  0  0
  2  7  1  0  0  0  0
  2  3  1  0  0  0  0
  2 23  1  0  0  0  0
  3  4  1  0  0  0  0
  3 24  1  0  0  0  0
  3 25  1  0  0  0  0
  4  5  1  0  0  0  0
  4 26  1  0  0  0  0
  4 27  1  0  0  0  0
  5  6  1  0  0  0  0
  5 28  1  0  0  0  0
  5 29  1  0  0  0  0
  6  7  1  0  0  0  0
  6 30  1  0  0  0  0
  6 31  1  0  0  0  0
  7  8  1  0  0  0  0
  7 43  1  0  0  0  0
  8  9  1  0  0  0  0
  8 32  1  0  0  0  0
  8 33  1  0  0  0  0
  9 10  1  0  0  0  0
  9 34  1  0  0  0  0
  9 35  1  0  0  0  0
 10 11  1  0  0  0  0
 10 36  1  0  0  0  0
 11 12  2  0  0  0  0
 11 13  1  0  0  0  0
 13 14  1  0  0  0  0
 13 15  1  0  0  0  0
 13 37  1  0  0  0  0
 14 38  1  0  0  0  0
 14 39  1  0  0  0  0
 14 40  1  0  0  0  0
 15 19  1  0  0  0  0
 15 16  1  0  0  0  0
 16 17  2  0  0  0  0
 16 41  1  0  0  0  0
 17 18  1  0  0  0  0
 18 19  2  0  0  0  0
 18 42  1  0  0  0  0
M  CHG  1   7   1
M  END
> <s_m_source_file>
AV-unprocessed.smi

> <i_m_source_file_index>
1893

> <i_lp_mmshare_version>
43012

> <i_f3d_flags>
0

> <s_epik_input>
W0NIM11bQ0BASF0xW0NIMl1bQ0gyXVtDSDJdW0NIMl1OMVtDSDJdW0NIMl1bTkhdQyg9TylbQ0BIXShbQ0gzXSluMltjSF1uW2NIXW4y

> <s_epik_cmdline>
J2VwaWtfcHl0aG9uJywgJy1waCcsICc3LjAnLCAnLXRuJywgJzgnLCAnLW1hJywgJzIwMCcsICctbWV0YWxfYmluZGluZycsICctaW1hZScsICc8aW5maWxlLm1hZT4nLCAnLW9tYWUnLCAnPG91dGZpbGUubWFlPic=

> <r_lp_tautomer_probability>
1

> <r_epik_Ionization_Penalty>
0.00266409

> <r_epik_Ionization_Penalty_Charging>
0.00265606

> <r_epik_Ionization_Penalty_Neutral>
8.02794e-06

> <r_epik_State_Penalty>
0.00184955

> <r_epik_Charging_Adjusted_Penalty>
0.00450561

> <i_epik_Tot_Q>
1

> <i_epik_Tot_abs_Q>
1

> <r_epik_Metal_State_Penalty>
-0

> <b_epik_Metal_Only>
0

> <s_lp_Force_Field>
OPLS_2005

> <r_lp_Energy>
26.1161

> <b_lp_Chiralities_Consistent>
1

> <s_lp_Variant>
AV-unprocessed.smi:1893-8

> <Gold.Version>
5.8.1

> <Gold.Id.Protein>
6NUR|6NUR_protein|mol2

> <Gold.PLP.Fitness>
43.6111

> <Gold.PLP.PLP>
-42.2850

> <Gold.PLP.part.hbond>
-1.0000

> <Gold.PLP.part.metal>
0.0000

> <Gold.PLP.part.buried>
-5.6175

> <Gold.PLP.part.nonpolar>
-36.0281

> <Gold.PLP.part.repulsive>
0.4620

> <Gold.PLP.ligand.clash>
0.0000

> <Gold.PLP.ligand.torsion>
0.9099

> <Gold.PLP.Chemscore.Hbond>
1.0000

> <Gold.PLP.Chemscore.CHOScore>
0.0000

> <Gold.PLP.Chemscore.Metal>
0.0000

> <Gold.Chemscore.Hbonds>
donor molecule, donor type, donor heavy atom, donor atom, acceptor molecule, acceptor atom, score
      L1  H    10    36       P1  8028  1.00

> <Gold.PLP.Chemscore.Internal.Correction>
0.1460

> <Gold.Rescore>
     Score         DG    S(hbond)    S(metal)    S(lipo)     H(rot)  DE(clash)    DE(int)     intcor
     12.99     -13.64       0.99        0.00      96.89       2.54       0.05       0.60       ----

> <Gold.Chemscore.Fitness>
12.9928

> <Gold.Chemscore.DG>
-13.6416

> <Gold.Chemscore.ZeroCoef>
-5.4800

> <Gold.Chemscore.Hbond>
0.9946

> <Gold.Chemscore.Metal>
0.0000

> <Gold.Chemscore.Lipo>
96.8897

> <Gold.Chemscore.Internal_Hbond>
0.0000

> <Gold.Chemscore.DEClash>
0.0471

> <Gold.Chemscore.DEInternal>
0.6017

> <Gold.Chemscore.Rot>
2.5377

> <Gold.Chemscore.Internal.Correction>
   9.000000E+99

> <Gold.Chemscore.Hbonds>
donor molecule, donor type, donor heavy atom, donor atom, acceptor molecule, acceptor atom, score
      L1  H    10    36       P1  8028  0.97

> <Gold.Chemscore.Hbond.Weighted>
-3.3221

> <Gold.Chemscore.Metal.Weighted>
-0.0000

> <Gold.Chemscore.Lipo.Weighted>
-11.3361

> <Gold.Chemscore.Internal_Hbond.Weighted>
0.0000

> <Gold.Chemscore.DEClash.Weighted>
0.0471

> <Gold.Chemscore.DEInternal.Weighted>
0.6017

> <Gold.Chemscore.Rot.Weighted>
6.4966

> <Gold.Chemscore.Internal.Correction.Weighted>
   9.000000E+99

> <Gold.Protein.RotatedTorsions>
[ 6907 6896 6895 6894 ] final -129.49 input  -60.11 | X-H torsion
[ 7974 7965 7964 7962 ] final  143.24 input  175.53 | X-H torsion
[ 8008 7997 7996 7995 ] final  -29.54 input   59.86 | X-H torsion
[ 10167 10162 10161 10158 ] final  164.32 input  -65.29 | X-H torsion
[ 10718 10713 10712 10709 ] final    0.49 input   66.30 | X-H torsion
[ 10763 10752 10751 10750 ] final  -47.33 input  -60.55 | X-H torsion
[ 11005 11000 10999 10996 ] final   62.59 input  -57.11 | X-H torsion

> <Gold.Protein.ActiveResidues>
 VAL166  LYS551  ARG553  GLY616  TRP617  ASP618  TYR619  PRO620  LYS621  CYS622 
 ASP623  PHE694  ASN695  SER759  ASP760  ASP761  ALA762  ILE779  LEU786  VAL792 
 PHE793  MET794  SER795  GLU796  ALA797  LYS798  CYS799  TRP800  GLU811  SER814 

> <Gold.Protein.RotatedAtoms>
  150.9293  133.6786  159.2814 H   0  0  0  0  0  0  0  0  0  0  0  0  # atno 6907 bound_to 6896
  151.4214  135.0997  159.9624 H   0  0  0  0  0  0  0  0  0  0  0  0  # atno 6908 bound_to 6896
  152.5018  133.8744  159.7369 H   0  0  0  0  0  0  0  0  0  0  0  0  # atno 6909 bound_to 6896
  144.8938  139.5520  143.5786 H   0  0  0  0  0  0  0  0  0  0  0  0  # atno 7974 bound_to 7965
  154.4286  140.1815  156.1264 H   0  0  0  0  0  0  0  0  0  0  0  0  # atno 8008 bound_to 7997
  156.0103  140.3351  155.6908 H   0  0  0  0  0  0  0  0  0  0  0  0  # atno 8009 bound_to 7997
  155.6121  140.0651  157.2694 H   0  0  0  0  0  0  0  0  0  0  0  0  # atno 8010 bound_to 7997
  139.4887  144.4248  151.9143 H   0  0  0  0  0  0  0  0  0  0  0  0  # atno 10167 bound_to 10162
  156.8342  130.5499  149.5684 H   0  0  0  0  0  0  0  0  0  0  0  0  # atno 10718 bound_to 10713
  154.0596  135.6620  153.4810 H   0  0  0  0  0  0  0  0  0  0  0  0  # atno 10763 bound_to 10752
  153.0432  135.5131  154.7672 H   0  0  0  0  0  0  0  0  0  0  0  0  # atno 10764 bound_to 10752
  154.6704  135.3028  154.9716 H   0  0  0  0  0  0  0  0  0  0  0  0  # atno 10765 bound_to 10752
  140.0082  134.6337  155.9822 H   0  0  0  0  0  0  0  0  0  0  0  0  # atno 11005 bound_to 11000
  146.3069  139.7611  142.9049 LP  0  0  0  0  0  0  0  0  0  0  0  0  # atno 17320 bound_to 7965
  145.3736  141.0347  143.3217 LP  0  0  0  0  0  0  0  0  0  0  0  0  # atno 17321 bound_to 7965
  140.3693  144.2875  150.5922 LP  0  0  0  0  0  0  0  0  0  0  0  0  # atno 17342 bound_to 10162
  140.5333  143.2238  151.8203 LP  0  0  0  0  0  0  0  0  0  0  0  0  # atno 17343 bound_to 10162
  156.0917  130.5901  150.9744 LP  0  0  0  0  0  0  0  0  0  0  0  0  # atno 17370 bound_to 10713
  157.6390  131.0912  150.8289 LP  0  0  0  0  0  0  0  0  0  0  0  0  # atno 17371 bound_to 10713
  141.1692  133.6537  156.4589 LP  0  0  0  0  0  0  0  0  0  0  0  0  # atno 17394 bound_to 11000
  140.4603  134.6848  157.5082 LP  0  0  0  0  0  0  0  0  0  0  0  0  # atno 17395 bound_to 11000

$$$$
