AV-unprocessed.smi:833|AV-procd|sdf|3880|dock6
  -GOLD-   22720 1333D 1   1.00000     0.00000
 Structure written by MMmdl.
 39 40  0  0  0  0  0  0  0  0  1 V2000
  148.6810  141.2877  154.7054 C   0  0  0  0  0  0  0  0  0  0  0  0
  148.9471  139.7823  154.8332 C   0  0  2  0  0  0  0  0  0  0  0  0
  148.0056  139.2626  155.7497 O   0  0  0  0  0  0  0  0  0  0  0  0
  150.3670  139.4921  155.3581 C   0  0  0  0  0  0  0  0  0  0  0  0
  150.6376  140.1883  156.6119 N   0  0  0  0  0  0  0  0  0  0  0  0
  151.7140  139.9916  157.3861 C   0  0  0  0  0  0  0  0  0  0  0  0
  152.6031  139.1830  157.1199 O   0  0  0  0  0  0  0  0  0  0  0  0
  151.6718  140.7708  158.4799 N   0  0  0  0  0  0  0  0  0  0  0  0
  152.5989  140.8418  159.5593 C   0  0  0  0  0  0  0  0  0  0  0  0
  153.3875  139.7298  159.9458 C   0  0  0  0  0  0  0  0  0  0  0  0
  154.2712  139.8543  161.0317 C   0  0  0  0  0  0  0  0  0  0  0  0
  154.3399  141.0906  161.6945 C   0  0  0  0  0  0  0  0  0  0  0  0
  153.6121  142.1638  161.3273 N   0  0  0  0  0  0  0  0  0  0  0  0
  152.7661  142.0637  160.2724 C   0  0  0  0  0  0  0  0  0  0  0  0
  152.0478  143.2281  159.9171 N   0  0  0  0  0  0  0  0  0  0  0  0
  151.9691  144.3587  160.8363 C   0  0  0  0  0  0  0  0  0  0  0  0
  151.4900  145.5286  159.9822 C   0  0  0  0  0  0  0  0  0  0  0  0
  152.1771  145.2573  158.6475 C   0  0  0  0  0  0  0  0  0  0  0  0
  152.1925  143.7279  158.5530 C   0  0  0  0  0  0  0  0  0  0  0  0
  149.3659  141.7452  153.9909 H   0  0  0  0  0  0  0  0  0  0  0  0
  148.8078  141.7979  155.6609 H   0  0  0  0  0  0  0  0  0  0  0  0
  147.6663  141.4798  154.3554 H   0  0  0  0  0  0  0  0  0  0  0  0
  148.7905  139.3146  153.8603 H   0  0  0  0  0  0  0  0  0  0  0  0
  148.3464  139.3751  156.6237 H   0  0  0  0  0  0  0  0  0  0  0  0
  150.4927  138.4201  155.5212 H   0  0  0  0  0  0  0  0  0  0  0  0
  151.1189  139.7731  154.6198 H   0  0  0  0  0  0  0  0  0  0  0  0
  149.9539  140.8682  156.9106 H   0  0  0  0  0  0  0  0  0  0  0  0
  150.8292  141.3128  158.6031 H   0  0  0  0  0  0  0  0  0  0  0  0
  153.3373  138.7863  159.4250 H   0  0  0  0  0  0  0  0  0  0  0  0
  154.8801  139.0209  161.3493 H   0  0  0  0  0  0  0  0  0  0  0  0
  155.0024  141.2248  162.5367 H   0  0  0  0  0  0  0  0  0  0  0  0
  151.2873  144.1529  161.6620 H   0  0  0  0  0  0  0  0  0  0  0  0
  152.9502  144.5927  161.2512 H   0  0  0  0  0  0  0  0  0  0  0  0
  150.4068  145.4841  159.8599 H   0  0  0  0  0  0  0  0  0  0  0  0
  151.7465  146.4995  160.4070 H   0  0  0  0  0  0  0  0  0  0  0  0
  151.6727  145.7293  157.8042 H   0  0  0  0  0  0  0  0  0  0  0  0
  153.2007  145.6330  158.6807 H   0  0  0  0  0  0  0  0  0  0  0  0
  153.1055  143.3673  158.0768 H   0  0  0  0  0  0  0  0  0  0  0  0
  151.3432  143.3847  157.9618 H   0  0  0  0  0  0  0  0  0  0  0  0
  1  2  1  0  0  0  0
  1 20  1  0  0  0  0
  1 21  1  0  0  0  0
  1 22  1  0  0  0  0
  2  3  1  0  0  0  0
  2  4  1  0  0  0  0
  2 23  1  0  0  0  0
  3 24  1  0  0  0  0
  4  5  1  0  0  0  0
  4 25  1  0  0  0  0
  4 26  1  0  0  0  0
  5  6  1  0  0  0  0
  5 27  1  0  0  0  0
  6  7  2  0  0  0  0
  6  8  1  0  0  0  0
  8  9  1  0  0  0  0
  8 28  1  0  0  0  0
  9 14  1  0  0  0  0
  9 10  2  0  0  0  0
 10 11  1  0  0  0  0
 10 29  1  0  0  0  0
 11 12  2  0  0  0  0
 11 30  1  0  0  0  0
 12 13  1  0  0  0  0
 12 31  1  0  0  0  0
 13 14  2  0  0  0  0
 14 15  1  0  0  0  0
 15 19  1  0  0  0  0
 15 16  1  0  0  0  0
 16 17  1  0  0  0  0
 16 32  1  0  0  0  0
 16 33  1  0  0  0  0
 17 18  1  0  0  0  0
 17 34  1  0  0  0  0
 17 35  1  0  0  0  0
 18 19  1  0  0  0  0
 18 36  1  0  0  0  0
 18 37  1  0  0  0  0
 19 38  1  0  0  0  0
 19 39  1  0  0  0  0
M  END
> <s_m_source_file>
AV-unprocessed.smi

> <i_m_source_file_index>
833

> <i_lp_mmshare_version>
43012

> <i_f3d_flags>
0

> <s_epik_input>
W0NIM11bQ0BIXShbT0hdKVtDSDJdW05IXUMoPU8pW05IXWMxW2NIXVtjSF1bY0hdbmMxTjJbQ0gyXVtDSDJdW0NIMl1bQ0gyXTI=

> <s_epik_cmdline>
J2VwaWtfcHl0aG9uJywgJy1waCcsICc3LjAnLCAnLXRuJywgJzgnLCAnLW1hJywgJzIwMCcsICctbWV0YWxfYmluZGluZycsICctaW1hZScsICc8aW5maWxlLm1hZT4nLCAnLW9tYWUnLCAnPG91dGZpbGUubWFlPic=

> <r_lp_tautomer_probability>
1

> <r_epik_Ionization_Penalty>
0.0986749

> <r_epik_Ionization_Penalty_Charging>
0

> <r_epik_Ionization_Penalty_Neutral>
0.0986749

> <r_epik_State_Penalty>
0.0881977

> <r_epik_Charging_Adjusted_Penalty>
0.0881977

> <i_epik_Tot_Q>
0

> <i_epik_Tot_abs_Q>
0

> <r_epik_Metal_State_Penalty>
0.0755487

> <b_epik_Metal_Only>
0

> <s_lp_Force_Field>
OPLS_2005

> <r_lp_Energy>
31.5613

> <b_lp_Chiralities_Consistent>
1

> <s_lp_Variant>
AV-unprocessed.smi:833-1

> <Gold.Version>
5.8.1

> <Gold.Id.Protein>
6NUR|6NUR_protein|mol2

> <Gold.PLP.Fitness>
45.6755

> <Gold.PLP.PLP>
-43.2198

> <Gold.PLP.part.hbond>
-1.0000

> <Gold.PLP.part.metal>
0.0000

> <Gold.PLP.part.buried>
-5.2807

> <Gold.PLP.part.nonpolar>
-36.5703

> <Gold.PLP.part.repulsive>
0.1955

> <Gold.PLP.ligand.clash>
0.0000

> <Gold.PLP.ligand.torsion>
0.4268

> <Gold.PLP.Chemscore.Hbond>
1.0000

> <Gold.PLP.Chemscore.CHOScore>
0.0000

> <Gold.PLP.Chemscore.Metal>
0.0000

> <Gold.Chemscore.Hbonds>
donor molecule, donor type, donor heavy atom, donor atom, acceptor molecule, acceptor atom, score
      P1  H  7997  8010       L1     7  0.83

> <Gold.PLP.Chemscore.Internal.Correction>
0.3093

> <Gold.Rescore>
     Score         DG    S(hbond)    S(metal)    S(lipo)     H(rot)  DE(clash)    DE(int)     intcor
     14.17     -15.82       0.99        0.00     104.45       2.03       0.13       1.52       ----

> <Gold.Chemscore.Fitness>
14.1702

> <Gold.Chemscore.DG>
-15.8238

> <Gold.Chemscore.ZeroCoef>
-5.4800

> <Gold.Chemscore.Hbond>
0.9946

> <Gold.Chemscore.Metal>
0.0000

> <Gold.Chemscore.Lipo>
104.4482

> <Gold.Chemscore.Internal_Hbond>
0.0000

> <Gold.Chemscore.DEClash>
0.1288

> <Gold.Chemscore.DEInternal>
1.5249

> <Gold.Chemscore.Rot>
2.0306

> <Gold.Chemscore.Internal.Correction>
   9.000000E+99

> <Gold.Chemscore.Hbonds>
donor molecule, donor type, donor heavy atom, donor atom, acceptor molecule, acceptor atom, score
      P1  H  7997  8010       L1     7  0.68

> <Gold.Chemscore.Hbond.Weighted>
-3.3218

> <Gold.Chemscore.Metal.Weighted>
-0.0000

> <Gold.Chemscore.Lipo.Weighted>
-12.2204

> <Gold.Chemscore.Internal_Hbond.Weighted>
0.0000

> <Gold.Chemscore.DEClash.Weighted>
0.1288

> <Gold.Chemscore.DEInternal.Weighted>
1.5249

> <Gold.Chemscore.Rot.Weighted>
5.1984

> <Gold.Chemscore.Internal.Correction.Weighted>
   9.000000E+99

> <Gold.Protein.RotatedTorsions>
[ 6907 6896 6895 6894 ] final   13.73 input  -60.11 | X-H torsion
[ 7974 7965 7964 7962 ] final -119.65 input  175.53 | X-H torsion
[ 8008 7997 7996 7995 ] final   75.72 input   59.86 | X-H torsion
[ 10167 10162 10161 10158 ] final  116.41 input  -65.29 | X-H torsion
[ 10718 10713 10712 10709 ] final -161.90 input   66.30 | X-H torsion
[ 10763 10752 10751 10750 ] final   78.56 input  -60.55 | X-H torsion
[ 11005 11000 10999 10996 ] final  -41.04 input  -57.11 | X-H torsion

> <Gold.Protein.ActiveResidues>
 VAL166  LYS551  ARG553  GLY616  TRP617  ASP618  TYR619  PRO620  LYS621  CYS622 
 ASP623  PHE694  ASN695  SER759  ASP760  ASP761  ALA762  ILE779  LEU786  VAL792 
 PHE793  MET794  SER795  GLU796  ALA797  LYS798  CYS799  TRP800  GLU811  SER814 

> <Gold.Protein.RotatedAtoms>
  151.7909  135.0736  160.0386 H   0  0  0  0  0  0  0  0  0  0  0  0  # atno 6907 bound_to 6896
  152.3157  133.5795  159.5719 H   0  0  0  0  0  0  0  0  0  0  0  0  # atno 6908 bound_to 6896
  150.7343  134.0002  159.3678 H   0  0  0  0  0  0  0  0  0  0  0  0  # atno 6909 bound_to 6896
  145.0601  140.8284  143.4157 H   0  0  0  0  0  0  0  0  0  0  0  0  # atno 7974 bound_to 7965
  155.8169  140.3471  155.5491 H   0  0  0  0  0  0  0  0  0  0  0  0  # atno 8008 bound_to 7997
  155.8382  140.0937  157.1771 H   0  0  0  0  0  0  0  0  0  0  0  0  # atno 8009 bound_to 7997
  154.4004  140.1399  156.3684 H   0  0  0  0  0  0  0  0  0  0  0  0  # atno 8010 bound_to 7997
  139.6249  144.7107  151.2555 H   0  0  0  0  0  0  0  0  0  0  0  0  # atno 10167 bound_to 10162
  156.6028  130.8817  151.2918 H   0  0  0  0  0  0  0  0  0  0  0  0  # atno 10718 bound_to 10713
  153.0884  135.4872  154.8641 H   0  0  0  0  0  0  0  0  0  0  0  0  # atno 10763 bound_to 10752
  154.7239  135.3045  154.9005 H   0  0  0  0  0  0  0  0  0  0  0  0  # atno 10764 bound_to 10752
  153.9661  135.6806  153.4799 H   0  0  0  0  0  0  0  0  0  0  0  0  # atno 10765 bound_to 10752
  141.0218  133.6859  156.2403 H   0  0  0  0  0  0  0  0  0  0  0  0  # atno 11005 bound_to 11000
  145.1419  139.2567  143.5486 LP  0  0  0  0  0  0  0  0  0  0  0  0  # atno 17320 bound_to 7965
  146.3524  140.1099  142.8604 LP  0  0  0  0  0  0  0  0  0  0  0  0  # atno 17321 bound_to 7965
  140.7405  143.6587  150.8184 LP  0  0  0  0  0  0  0  0  0  0  0  0  # atno 17342 bound_to 10162
  140.0203  143.5549  152.2803 LP  0  0  0  0  0  0  0  0  0  0  0  0  # atno 17343 bound_to 10162
  157.7275  130.9644  150.1702 LP  0  0  0  0  0  0  0  0  0  0  0  0  # atno 17370 bound_to 10713
  156.2455  130.3695  149.8290 LP  0  0  0  0  0  0  0  0  0  0  0  0  # atno 17371 bound_to 10713
  140.6560  134.5017  157.5580 LP  0  0  0  0  0  0  0  0  0  0  0  0  # atno 17394 bound_to 11000
  139.9151  134.8264  156.1395 LP  0  0  0  0  0  0  0  0  0  0  0  0  # atno 17395 bound_to 11000

$$$$
