AV-unprocessed.smi:2062|AV-procd|sdf|8397|dock7
  -GOLD-   2272011 83D 1   1.00000     0.00000
 Structure written by MMmdl.
 43 44  0  0  0  0  0  0  0  0  2 V2000
  150.9538  142.6306  157.3227 C   0  0  0  0  0  0  0  0  0  0  0  0
  150.5688  141.2191  156.8556 C   0  0  0  0  0  0  0  0  0  0  0  0
  151.7474  140.2502  157.0482 C   0  0  0  0  0  0  0  0  0  0  0  0
  150.0787  141.2468  155.3914 C   0  0  0  0  0  0  0  0  0  0  0  0
  148.6579  141.6713  155.2580 N   0  3  2  0  0  0  0  0  0  0  0  0
  147.8133  141.2859  156.4147 C   0  0  0  0  0  0  0  0  0  0  0  0
  147.4252  139.7979  156.3482 C   0  0  0  0  0  0  0  0  0  0  0  0
  146.7640  139.5381  155.1163 O   0  0  0  0  0  0  0  0  0  0  0  0
  147.5973  139.7860  153.9877 C   0  0  1  0  0  0  0  0  0  0  0  0
  146.8191  139.4017  152.7162 C   0  0  0  0  0  0  0  0  0  0  0  0
  146.9517  137.9828  152.4032 N   0  0  0  0  0  0  0  0  0  0  0  0
  145.9262  137.1468  152.1864 C   0  0  0  0  0  0  0  0  0  0  0  0
  144.7468  137.4977  152.2350 O   0  0  0  0  0  0  0  0  0  0  0  0
  146.3585  135.9039  151.9117 N   0  0  0  0  0  0  0  0  0  0  0  0
  145.5848  134.7568  151.5938 C   0  0  0  0  0  0  0  0  0  0  0  0
  144.2583  134.7668  151.4172 N   0  0  0  0  0  0  0  0  0  0  0  0
  143.7611  133.4982  151.1081 C   0  0  0  0  0  0  0  0  0  0  0  0
  144.7302  132.5277  151.0513 C   0  0  0  0  0  0  0  0  0  0  0  0
  146.3154  133.1718  151.3854 S   0  0  0  0  0  0  0  0  0  0  0  0
  148.0013  141.2767  153.9846 C   0  0  0  0  0  0  0  0  0  0  0  0
  151.7751  143.0358  156.7306 H   0  0  0  0  0  0  0  0  0  0  0  0
  151.2670  142.6277  158.3672 H   0  0  0  0  0  0  0  0  0  0  0  0
  150.1109  143.3168  157.2369 H   0  0  0  0  0  0  0  0  0  0  0  0
  149.7558  140.8899  157.5015 H   0  0  0  0  0  0  0  0  0  0  0  0
  152.5983  140.5317  156.4269 H   0  0  0  0  0  0  0  0  0  0  0  0
  151.4707  139.2276  156.7915 H   0  0  0  0  0  0  0  0  0  0  0  0
  152.0833  140.2432  158.0856 H   0  0  0  0  0  0  0  0  0  0  0  0
  150.7198  141.8899  154.7887 H   0  0  0  0  0  0  0  0  0  0  0  0
  150.1942  140.2433  154.9793 H   0  0  0  0  0  0  0  0  0  0  0  0
  148.3150  141.5165  157.3551 H   0  0  0  0  0  0  0  0  0  0  0  0
  146.9079  141.8941  156.3957 H   0  0  0  0  0  0  0  0  0  0  0  0
  148.2992  139.1536  156.4535 H   0  0  0  0  0  0  0  0  0  0  0  0
  146.7497  139.5509  157.1671 H   0  0  0  0  0  0  0  0  0  0  0  0
  148.4906  139.1643  154.0561 H   0  0  0  0  0  0  0  0  0  0  0  0
  145.7600  139.6296  152.8404 H   0  0  0  0  0  0  0  0  0  0  0  0
  147.1653  139.9927  151.8666 H   0  0  0  0  0  0  0  0  0  0  0  0
  147.8900  137.6145  152.3436 H   0  0  0  0  0  0  0  0  0  0  0  0
  147.3576  135.7622  151.9231 H   0  0  0  0  0  0  0  0  0  0  0  0
  142.7009  133.3758  150.9430 H   0  0  0  0  0  0  0  0  0  0  0  0
  144.6080  131.4771  150.8336 H   0  0  0  0  0  0  0  0  0  0  0  0
  147.1084  141.8917  153.8640 H   0  0  0  0  0  0  0  0  0  0  0  0
  148.6365  141.4999  153.1287 H   0  0  0  0  0  0  0  0  0  0  0  0
  148.6879  142.6810  155.2659 H   0  0  0  0  0  0  0  0  0  0  0  0
  1  2  1  0  0  0  0
  1 21  1  0  0  0  0
  1 22  1  0  0  0  0
  1 23  1  0  0  0  0
  2  3  1  0  0  0  0
  2  4  1  0  0  0  0
  2 24  1  0  0  0  0
  3 25  1  0  0  0  0
  3 26  1  0  0  0  0
  3 27  1  0  0  0  0
  4  5  1  0  0  0  0
  4 28  1  0  0  0  0
  4 29  1  0  0  0  0
  5 20  1  0  0  0  0
  5  6  1  0  0  0  0
  5 43  1  0  0  0  0
  6  7  1  0  0  0  0
  6 30  1  0  0  0  0
  6 31  1  0  0  0  0
  7  8  1  0  0  0  0
  7 32  1  0  0  0  0
  7 33  1  0  0  0  0
  8  9  1  0  0  0  0
  9 10  1  0  0  0  0
  9 20  1  0  0  0  0
  9 34  1  0  0  0  0
 10 11  1  0  0  0  0
 10 35  1  0  0  0  0
 10 36  1  0  0  0  0
 11 12  1  0  0  0  0
 11 37  1  0  0  0  0
 12 13  2  0  0  0  0
 12 14  1  0  0  0  0
 14 15  1  0  0  0  0
 14 38  1  0  0  0  0
 15 19  1  0  0  0  0
 15 16  2  0  0  0  0
 16 17  1  0  0  0  0
 17 18  2  0  0  0  0
 17 39  1  0  0  0  0
 18 19  1  0  0  0  0
 18 40  1  0  0  0  0
 20 41  1  0  0  0  0
 20 42  1  0  0  0  0
M  CHG  1   5   1
M  END
> <s_m_source_file>
AV-unprocessed.smi

> <i_m_source_file_index>
2062

> <i_lp_mmshare_version>
43012

> <i_f3d_flags>
0

> <s_epik_input>
W0NIM11bQ0hdKFtDSDNdKVtDSDJdTjFbQ0gyXVtDSDJdT1tDQEhdKFtDSDJdMSlbQ0gyXVtOSF1DKD1PKVtOSF1jMm5bY0hdW2NIXXMy

> <s_epik_cmdline>
J2VwaWtfcHl0aG9uJywgJy1waCcsICc3LjAnLCAnLXRuJywgJzgnLCAnLW1hJywgJzIwMCcsICctbWV0YWxfYmluZGluZycsICctaW1hZScsICc8aW5maWxlLm1hZT4nLCAnLW9tYWUnLCAnPG91dGZpbGUubWFlPic=

> <r_lp_tautomer_probability>
0.999

> <r_epik_Ionization_Penalty>
0.0985527

> <r_epik_Ionization_Penalty_Charging>
0.098413

> <r_epik_Ionization_Penalty_Neutral>
0.000139681

> <r_epik_State_Penalty>
0.0884988

> <r_epik_Charging_Adjusted_Penalty>
0.186912

> <i_epik_Tot_Q>
1

> <i_epik_Tot_abs_Q>
1

> <r_epik_Metal_State_Penalty>
0.141792

> <b_epik_Metal_Only>
0

> <s_lp_Force_Field>
OPLS_2005

> <r_lp_Energy>
17.4544

> <b_lp_Chiralities_Consistent>
1

> <s_lp_Variant>
AV-unprocessed.smi:2062-2

> <Gold.Version>
5.8.1

> <Gold.Id.Protein>
6NUR|6NUR_protein|mol2

> <Gold.PLP.Fitness>
44.2405

> <Gold.PLP.PLP>
-30.9387

> <Gold.PLP.part.hbond>
-3.0000

> <Gold.PLP.part.metal>
0.0000

> <Gold.PLP.part.buried>
-5.2077

> <Gold.PLP.part.nonpolar>
-25.0667

> <Gold.PLP.part.repulsive>
2.2446

> <Gold.PLP.ligand.clash>
0.0000

> <Gold.PLP.ligand.torsion>
0.8347

> <Gold.PLP.Chemscore.Hbond>
3.9600

> <Gold.PLP.Chemscore.CHOScore>
1.0000

> <Gold.PLP.Chemscore.Metal>
0.0000

> <Gold.Chemscore.Hbonds>
donor molecule, donor type, donor heavy atom, donor atom, acceptor molecule, acceptor atom, score
      L1  H     5    43       P1  8028  1.79
      L1  H    11    37       P1  7948  0.94
      L1  H    14    38       P1  7948  1.00
      L1  C    17    39       P1 10186  1.00

> <Gold.PLP.Chemscore.Internal.Correction>
0.0911

> <Gold.Rescore>
     Score         DG    S(hbond)    S(metal)    S(lipo)     H(rot)  DE(clash)    DE(int)     intcor
     16.96     -18.95       2.89        0.00      71.19       1.76       0.04       1.95       ----

> <Gold.Chemscore.Fitness>
16.9604

> <Gold.Chemscore.DG>
-18.9537

> <Gold.Chemscore.ZeroCoef>
-5.4800

> <Gold.Chemscore.Hbond>
2.8890

> <Gold.Chemscore.Metal>
0.0000

> <Gold.Chemscore.Lipo>
71.1943

> <Gold.Chemscore.Internal_Hbond>
0.0000

> <Gold.Chemscore.DEClash>
0.0404

> <Gold.Chemscore.DEInternal>
1.9529

> <Gold.Chemscore.Rot>
1.7599

> <Gold.Chemscore.Internal.Correction>
   9.000000E+99

> <Gold.Chemscore.Hbonds>
donor molecule, donor type, donor heavy atom, donor atom, acceptor molecule, acceptor atom, score
      L1  H     5    43       P1  8028  0.86
      L1  H    11    37       P1  7948  0.91
      L1  H    14    38       P1  7948  0.98

> <Gold.Chemscore.Hbond.Weighted>
-9.6494

> <Gold.Chemscore.Metal.Weighted>
-0.0000

> <Gold.Chemscore.Lipo.Weighted>
-8.3297

> <Gold.Chemscore.Internal_Hbond.Weighted>
0.0000

> <Gold.Chemscore.DEClash.Weighted>
0.0404

> <Gold.Chemscore.DEInternal.Weighted>
1.9529

> <Gold.Chemscore.Rot.Weighted>
4.5054

> <Gold.Chemscore.Internal.Correction.Weighted>
   9.000000E+99

> <Gold.Protein.RotatedTorsions>
[ 6907 6896 6895 6894 ] final -177.45 input  -60.11 | X-H torsion
[ 7974 7965 7964 7962 ] final   74.95 input  175.53 | X-H torsion
[ 8008 7997 7996 7995 ] final   -8.61 input   59.86 | X-H torsion
[ 10167 10162 10161 10158 ] final   35.79 input  -65.29 | X-H torsion
[ 10718 10713 10712 10709 ] final   -5.40 input   66.30 | X-H torsion
[ 10763 10752 10751 10750 ] final -177.71 input  -60.55 | X-H torsion
[ 11005 11000 10999 10996 ] final  142.95 input  -57.11 | X-H torsion

> <Gold.Protein.ActiveResidues>
 VAL166  LYS551  ARG553  GLY616  TRP617  ASP618  TYR619  PRO620  LYS621  CYS622 
 ASP623  PHE694  ASN695  SER759  ASP760  ASP761  ALA762  ILE779  LEU786  VAL792 
 PHE793  MET794  SER795  GLU796  ALA797  LYS798  CYS799  TRP800  GLU811  SER814 

> <Gold.Protein.RotatedAtoms>
  151.6211  133.3339  159.3087 H   0  0  0  0  0  0  0  0  0  0  0  0  # atno 6907 bound_to 6896
  150.8105  134.7261  159.6695 H   0  0  0  0  0  0  0  0  0  0  0  0  # atno 6908 bound_to 6896
  152.4202  134.5974  160.0042 H   0  0  0  0  0  0  0  0  0  0  0  0  # atno 6909 bound_to 6896
  145.7218  139.2651  143.1592 H   0  0  0  0  0  0  0  0  0  0  0  0  # atno 7974 bound_to 7965
  154.5725  140.2376  155.8171 H   0  0  0  0  0  0  0  0  0  0  0  0  # atno 8008 bound_to 7997
  156.2117  140.3024  155.9706 H   0  0  0  0  0  0  0  0  0  0  0  0  # atno 8009 bound_to 7997
  155.2687  140.0417  157.2995 H   0  0  0  0  0  0  0  0  0  0  0  0  # atno 8010 bound_to 7997
  140.4189  144.1488  150.6146 H   0  0  0  0  0  0  0  0  0  0  0  0  # atno 10167 bound_to 10162
  156.7472  130.5228  149.5811 H   0  0  0  0  0  0  0  0  0  0  0  0  # atno 10718 bound_to 10713
  154.5568  135.2817  155.0957 H   0  0  0  0  0  0  0  0  0  0  0  0  # atno 10763 bound_to 10752
  154.2382  135.6362  153.5202 H   0  0  0  0  0  0  0  0  0  0  0  0  # atno 10764 bound_to 10752
  153.0018  135.5553  154.6150 H   0  0  0  0  0  0  0  0  0  0  0  0  # atno 10765 bound_to 10752
  140.0516  134.9253  157.1026 H   0  0  0  0  0  0  0  0  0  0  0  0  # atno 11005 bound_to 11000
  146.0619  140.7961  142.9730 LP  0  0  0  0  0  0  0  0  0  0  0  0  # atno 17320 bound_to 7965
  144.6915  140.3210  143.7232 LP  0  0  0  0  0  0  0  0  0  0  0  0  # atno 17321 bound_to 7965
  140.4556  143.2469  151.9289 LP  0  0  0  0  0  0  0  0  0  0  0  0  # atno 17342 bound_to 10162
  139.4782  144.5519  151.8373 LP  0  0  0  0  0  0  0  0  0  0  0  0  # atno 17343 bound_to 10162
  156.1425  130.6254  151.0487 LP  0  0  0  0  0  0  0  0  0  0  0  0  # atno 17370 bound_to 10713
  157.6793  131.0842  150.7412 LP  0  0  0  0  0  0  0  0  0  0  0  0  # atno 17371 bound_to 10713
  140.3909  134.2186  155.7166 LP  0  0  0  0  0  0  0  0  0  0  0  0  # atno 17394 bound_to 11000
  141.1933  133.8154  157.0805 LP  0  0  0  0  0  0  0  0  0  0  0  0  # atno 17395 bound_to 11000

$$$$
