AV-unprocessed.smi:612|AV-procd|sdf|3063|dock6
  -GOLD-   2262023583D 1   1.00000     0.00000
 Structure written by MMmdl.
 50 52  0  0  0  0  0  0  0  0  2 V2000
  154.5782  140.9582  160.9066 C   0  0  0  0  0  0  0  0  0  0  0  0
  153.5423  141.6392  160.1256 N   0  0  0  0  0  0  0  0  0  0  0  0
  153.1377  142.9141  160.5551 C   0  0  0  0  0  0  0  0  0  0  0  0
  152.1948  143.6089  159.9041 C   0  0  0  0  0  0  0  0  0  0  0  0
  151.5908  143.0174  158.7344 C   0  0  0  0  0  0  0  0  0  0  0  0
  151.9702  141.7894  158.2979 C   0  0  0  0  0  0  0  0  0  0  0  0
  151.4342  141.1326  157.1752 N   0  0  0  0  0  0  0  0  0  0  0  0
  150.2046  141.2173  156.6339 C   0  0  0  0  0  0  0  0  0  0  0  0
  149.2868  141.9327  157.0337 O   0  0  0  0  0  0  0  0  0  0  0  0
  150.0996  140.4149  155.5642 N   0  0  0  0  0  0  0  0  0  0  0  0
  148.9147  140.2651  154.7227 C   0  0  2  0  0  0  0  0  0  0  0  0
  148.6125  141.5844  153.9904 C   0  0  0  0  0  0  0  0  0  0  0  0
  147.2913  141.4926  153.2019 C   0  0  0  0  0  0  0  0  0  0  0  0
  146.1460  141.1009  154.0704 N   0  3  2  0  0  0  0  0  0  0  0  0
  145.6636  142.1810  154.9829 C   0  0  0  0  0  0  0  0  0  0  0  0
  144.3120  141.8746  155.6428 C   0  0  0  0  0  0  0  0  0  0  0  0
  143.7807  143.2335  156.1065 C   0  0  0  0  0  0  0  0  0  0  0  0
  144.4259  144.2781  155.1862 C   0  0  0  0  0  0  0  0  0  0  0  0
  145.3783  143.5078  154.2646 C   0  0  0  0  0  0  0  0  0  0  0  0
  146.4202  139.7993  154.7409 C   0  0  0  0  0  0  0  0  0  0  0  0
  147.7103  139.8436  155.5813 C   0  0  0  0  0  0  0  0  0  0  0  0
  153.0052  141.0296  159.0269 C   0  0  0  0  0  0  0  0  0  0  0  0
  153.3753  139.9061  158.6762 O   0  0  0  0  0  0  0  0  0  0  0  0
  154.9431  141.5607  161.7393 H   0  0  0  0  0  0  0  0  0  0  0  0
  155.4381  140.7195  160.2791 H   0  0  0  0  0  0  0  0  0  0  0  0
  154.1918  140.0270  161.3236 H   0  0  0  0  0  0  0  0  0  0  0  0
  153.6353  143.2877  161.4383 H   0  0  0  0  0  0  0  0  0  0  0  0
  151.8934  144.5878  160.2465 H   0  0  0  0  0  0  0  0  0  0  0  0
  150.8240  143.5908  158.2408 H   0  0  0  0  0  0  0  0  0  0  0  0
  152.0892  140.5301  156.6983 H   0  0  0  0  0  0  0  0  0  0  0  0
  150.9074  139.8649  155.3100 H   0  0  0  0  0  0  0  0  0  0  0  0
  149.0763  139.4898  153.9717 H   0  0  0  0  0  0  0  0  0  0  0  0
  148.5640  142.4090  154.7028 H   0  0  0  0  0  0  0  0  0  0  0  0
  149.4287  141.8223  153.3073 H   0  0  0  0  0  0  0  0  0  0  0  0
  147.0916  142.4276  152.6800 H   0  0  0  0  0  0  0  0  0  0  0  0
  147.3960  140.7403  152.4189 H   0  0  0  0  0  0  0  0  0  0  0  0
  146.3978  142.3622  155.7687 H   0  0  0  0  0  0  0  0  0  0  0  0
  143.6254  141.4477  154.9099 H   0  0  0  0  0  0  0  0  0  0  0  0
  144.3935  141.1721  156.4728 H   0  0  0  0  0  0  0  0  0  0  0  0
  142.6913  143.2726  156.0738 H   0  0  0  0  0  0  0  0  0  0  0  0
  144.0823  143.4178  157.1384 H   0  0  0  0  0  0  0  0  0  0  0  0
  143.6799  144.8265  154.6099 H   0  0  0  0  0  0  0  0  0  0  0  0
  144.9770  145.0069  155.7818 H   0  0  0  0  0  0  0  0  0  0  0  0
  146.2837  144.0783  154.0547 H   0  0  0  0  0  0  0  0  0  0  0  0
  144.8796  143.3167  153.3131 H   0  0  0  0  0  0  0  0  0  0  0  0
  145.5761  139.4799  155.3505 H   0  0  0  0  0  0  0  0  0  0  0  0
  146.5241  139.0356  153.9689 H   0  0  0  0  0  0  0  0  0  0  0  0
  147.8949  138.8616  156.0186 H   0  0  0  0  0  0  0  0  0  0  0  0
  147.5848  140.5301  156.4194 H   0  0  0  0  0  0  0  0  0  0  0  0
  145.3735  140.9271  153.4430 H   0  0  0  0  0  0  0  0  0  0  0  0
  1  2  1  0  0  0  0
  1 24  1  0  0  0  0
  1 25  1  0  0  0  0
  1 26  1  0  0  0  0
  2 22  1  0  0  0  0
  2  3  1  0  0  0  0
  3  4  2  0  0  0  0
  3 27  1  0  0  0  0
  4  5  1  0  0  0  0
  4 28  1  0  0  0  0
  5  6  2  0  0  0  0
  5 29  1  0  0  0  0
  6  7  1  0  0  0  0
  6 22  1  0  0  0  0
  7  8  1  0  0  0  0
  7 30  1  0  0  0  0
  8  9  2  0  0  0  0
  8 10  1  0  0  0  0
 10 11  1  0  0  0  0
 10 31  1  0  0  0  0
 11 21  1  0  0  0  0
 11 12  1  0  0  0  0
 11 32  1  0  0  0  0
 12 13  1  0  0  0  0
 12 33  1  0  0  0  0
 12 34  1  0  0  0  0
 13 14  1  0  0  0  0
 13 35  1  0  0  0  0
 13 36  1  0  0  0  0
 14 15  1  0  0  0  0
 14 20  1  0  0  0  0
 14 50  1  0  0  0  0
 15 19  1  0  0  0  0
 15 16  1  0  0  0  0
 15 37  1  0  0  0  0
 16 17  1  0  0  0  0
 16 38  1  0  0  0  0
 16 39  1  0  0  0  0
 17 18  1  0  0  0  0
 17 40  1  0  0  0  0
 17 41  1  0  0  0  0
 18 19  1  0  0  0  0
 18 42  1  0  0  0  0
 18 43  1  0  0  0  0
 19 44  1  0  0  0  0
 19 45  1  0  0  0  0
 20 21  1  0  0  0  0
 20 46  1  0  0  0  0
 20 47  1  0  0  0  0
 21 48  1  0  0  0  0
 21 49  1  0  0  0  0
 22 23  2  0  0  0  0
M  CHG  1  14   1
M  END
> <s_m_source_file>
AV-unprocessed.smi

> <i_m_source_file_index>
612

> <i_lp_mmshare_version>
43012

> <i_f3d_flags>
0

> <s_epik_input>
W0NIM11uMVtjSF1bY0hdW2NIXWMoYzE9TylbTkhdQyg9TylbTkhdW0NIXTJbQ0gyXVtDSDJdTihbQ0gyXVtDSDJdMilbQ0hdM1tDSDJdW0NIMl1bQ0gyXVtDSDJdMw==

> <s_epik_cmdline>
J2VwaWtfcHl0aG9uJywgJy1waCcsICc3LjAnLCAnLXRuJywgJzgnLCAnLW1hJywgJzIwMCcsICctbWV0YWxfYmluZGluZycsICctaW1hZScsICc8aW5maWxlLm1hZT4nLCAnLW9tYWUnLCAnPG91dGZpbGUubWFlPic=

> <r_lp_tautomer_probability>
1

> <r_epik_Ionization_Penalty>
0.00200366

> <r_epik_Ionization_Penalty_Charging>
0.00198522

> <r_epik_Ionization_Penalty_Neutral>
1.84356e-05

> <r_epik_State_Penalty>
0.00135242

> <r_epik_Charging_Adjusted_Penalty>
0.00333764

> <i_epik_Tot_Q>
1

> <i_epik_Tot_abs_Q>
1

> <r_epik_Metal_State_Penalty>
-0

> <b_epik_Metal_Only>
0

> <s_lp_Force_Field>
OPLS_2005

> <r_lp_Energy>
52.136

> <b_lp_Chiralities_Consistent>
1

> <s_lp_Variant>
AV-unprocessed.smi:612-2

> <Gold.Version>
5.8.1

> <Gold.Id.Protein>
6NUR|6NUR_protein|mol2

> <Gold.PLP.Fitness>
48.5943

> <Gold.PLP.PLP>
-40.0738

> <Gold.PLP.part.hbond>
-2.0000

> <Gold.PLP.part.metal>
0.0000

> <Gold.PLP.part.buried>
-5.0562

> <Gold.PLP.part.nonpolar>
-33.4047

> <Gold.PLP.part.repulsive>
0.3273

> <Gold.PLP.ligand.clash>
0.0000

> <Gold.PLP.ligand.torsion>
0.2677

> <Gold.PLP.Chemscore.Hbond>
3.0000

> <Gold.PLP.Chemscore.CHOScore>
0.0000

> <Gold.PLP.Chemscore.Metal>
0.0000

> <Gold.Chemscore.Hbonds>
donor molecule, donor type, donor heavy atom, donor atom, acceptor molecule, acceptor atom, score
      L1  H    14    50       P1 10175  2.00
      P1  H  7997  8010       L1    23  0.96

> <Gold.PLP.Chemscore.Internal.Correction>
0.0558

> <Gold.Rescore>
     Score         DG    S(hbond)    S(metal)    S(lipo)     H(rot)  DE(clash)    DE(int)     intcor
     18.08     -19.48       1.79        0.00      94.79       1.21       0.09       1.30       ----

> <Gold.Chemscore.Fitness>
18.0848

> <Gold.Chemscore.DG>
-19.4781

> <Gold.Chemscore.ZeroCoef>
-5.4800

> <Gold.Chemscore.Hbond>
1.7945

> <Gold.Chemscore.Metal>
0.0000

> <Gold.Chemscore.Lipo>
94.7928

> <Gold.Chemscore.Internal_Hbond>
0.0000

> <Gold.Chemscore.DEClash>
0.0895

> <Gold.Chemscore.DEInternal>
1.3038

> <Gold.Chemscore.Rot>
1.2056

> <Gold.Chemscore.Internal.Correction>
   9.000000E+99

> <Gold.Chemscore.Hbonds>
donor molecule, donor type, donor heavy atom, donor atom, acceptor molecule, acceptor atom, score
      L1  H    14    50       P1 10175  0.68
      P1  H  7997  8010       L1    23  0.70

> <Gold.Chemscore.Hbond.Weighted>
-5.9936

> <Gold.Chemscore.Metal.Weighted>
-0.0000

> <Gold.Chemscore.Lipo.Weighted>
-11.0908

> <Gold.Chemscore.Internal_Hbond.Weighted>
0.0000

> <Gold.Chemscore.DEClash.Weighted>
0.0895

> <Gold.Chemscore.DEInternal.Weighted>
1.3038

> <Gold.Chemscore.Rot.Weighted>
3.0862

> <Gold.Chemscore.Internal.Correction.Weighted>
   9.000000E+99

> <Gold.Protein.RotatedTorsions>
[ 6907 6896 6895 6894 ] final  169.83 input  -60.11 | X-H torsion
[ 7974 7965 7964 7962 ] final  142.79 input  175.53 | X-H torsion
[ 8008 7997 7996 7995 ] final   20.46 input   59.86 | X-H torsion
[ 10167 10162 10161 10158 ] final  -68.11 input  -65.29 | X-H torsion
[ 10718 10713 10712 10709 ] final  -29.36 input   66.30 | X-H torsion
[ 10763 10752 10751 10750 ] final  112.47 input  -60.55 | X-H torsion
[ 11005 11000 10999 10996 ] final  -95.37 input  -57.11 | X-H torsion

> <Gold.Protein.ActiveResidues>
 VAL166  LYS551  ARG553  GLY616  TRP617  ASP618  TYR619  PRO620  LYS621  CYS622 
 ASP623  PHE694  ASN695  SER759  ASP760  ASP761  ALA762  ILE779  LEU786  VAL792 
 PHE793  MET794  SER795  GLU796  ALA797  LYS798  CYS799  TRP800  GLU811  SER814 

> <Gold.Protein.RotatedAtoms>
  151.8257  133.3401  159.3597 H   0  0  0  0  0  0  0  0  0  0  0  0  # atno 6907 bound_to 6896
  150.7280  134.5531  159.5814 H   0  0  0  0  0  0  0  0  0  0  0  0  # atno 6908 bound_to 6896
  152.2973  134.7653  160.0416 H   0  0  0  0  0  0  0  0  0  0  0  0  # atno 6909 bound_to 6896
  144.8977  139.5467  143.5768 H   0  0  0  0  0  0  0  0  0  0  0  0  # atno 7974 bound_to 7965
  154.9359  140.3046  155.5144 H   0  0  0  0  0  0  0  0  0  0  0  0  # atno 8008 bound_to 7997
  156.3000  140.2345  156.4361 H   0  0  0  0  0  0  0  0  0  0  0  0  # atno 8009 bound_to 7997
  154.8192  140.0424  157.1387 H   0  0  0  0  0  0  0  0  0  0  0  0  # atno 8010 bound_to 7997
  140.5532  143.2312  151.6870 H   0  0  0  0  0  0  0  0  0  0  0  0  # atno 10167 bound_to 10162
  156.4134  130.4412  149.7235 H   0  0  0  0  0  0  0  0  0  0  0  0  # atno 10718 bound_to 10713
  153.4784  135.3685  155.2429 H   0  0  0  0  0  0  0  0  0  0  0  0  # atno 10763 bound_to 10752
  154.8756  135.3948  154.3729 H   0  0  0  0  0  0  0  0  0  0  0  0  # atno 10764 bound_to 10752
  153.4329  135.7082  153.6284 H   0  0  0  0  0  0  0  0  0  0  0  0  # atno 10765 bound_to 10752
  141.1444  133.8021  157.0426 H   0  0  0  0  0  0  0  0  0  0  0  0  # atno 11005 bound_to 11000
  146.3091  139.7681  142.9034 LP  0  0  0  0  0  0  0  0  0  0  0  0  # atno 17320 bound_to 7965
  145.3671  141.0336  143.3252 LP  0  0  0  0  0  0  0  0  0  0  0  0  # atno 17321 bound_to 7965
  139.5036  144.3783  152.0401 LP  0  0  0  0  0  0  0  0  0  0  0  0  # atno 17342 bound_to 10162
  140.2902  144.3762  150.6091 LP  0  0  0  0  0  0  0  0  0  0  0  0  # atno 17343 bound_to 10162
  156.4205  130.7766  151.2783 LP  0  0  0  0  0  0  0  0  0  0  0  0  # atno 17370 bound_to 10713
  157.7507  131.0184  150.3625 LP  0  0  0  0  0  0  0  0  0  0  0  0  # atno 17371 bound_to 10713
  140.0683  134.9716  157.1424 LP  0  0  0  0  0  0  0  0  0  0  0  0  # atno 17394 bound_to 11000
  140.3748  134.2351  155.7175 LP  0  0  0  0  0  0  0  0  0  0  0  0  # atno 17395 bound_to 11000

$$$$
