AV-unprocessed.smi:1005|AV-procd|sdf|4388|dock4
  -GOLD-   22720 2313D 1   1.00000     0.00000
 Structure written by MMmdl.
 55 57  0  0  0  0  0  0  0  0  1 V2000
  152.8765  142.5993  161.4296 C   0  0  0  0  0  0  0  0  0  0  0  0
  152.2010  142.3761  160.0881 C   0  0  0  0  0  0  0  0  0  0  0  0
  152.1387  141.0671  159.5596 C   0  0  0  0  0  0  0  0  0  0  0  0
  151.5213  140.8173  158.3143 C   0  0  0  0  0  0  0  0  0  0  0  0
  151.3516  139.6333  157.6172 N   0  0  0  0  0  0  0  0  0  0  0  0
  150.7093  140.0523  156.5306 C   0  0  0  0  0  0  0  0  0  0  0  0
  150.4401  141.3688  156.4420 N   0  0  0  0  0  0  0  0  0  0  0  0
  149.7549  142.0475  155.3558 C   0  0  0  0  0  0  0  0  0  0  0  0
  148.9293  141.0822  154.4837 C   0  0  2  0  0  0  0  0  0  0  0  0
  149.6180  140.8430  153.2711 O   0  0  0  0  0  0  0  0  0  0  0  0
  147.5392  141.6669  154.1589 C   0  0  0  0  0  0  0  0  0  0  0  0
  146.9527  142.5270  155.1886 N   0  0  0  0  0  0  0  0  0  0  0  0
  146.7433  141.7856  156.4268 C   0  0  0  0  0  0  0  0  0  0  0  0
  146.1254  142.6648  157.5257 C   0  0  0  0  0  0  0  0  0  0  0  0
  144.9081  143.2277  157.0483 O   0  0  0  0  0  0  0  0  0  0  0  0
  145.0818  144.0255  155.8791 C   0  0  2  0  0  0  0  0  0  0  0  0
  143.7047  144.6069  155.4960 C   0  0  0  0  0  0  0  0  0  0  0  0
  143.7336  145.8000  154.6481 N   0  0  0  0  0  0  0  0  0  0  0  0
  144.5322  145.6143  153.4430 C   0  0  0  0  0  0  0  0  0  0  0  0
  142.3828  146.2172  154.2993 C   0  0  0  0  0  0  0  0  0  0  0  0
  145.6839  143.1253  154.7770 C   0  0  0  0  0  0  0  0  0  0  0  0
  150.9620  141.9216  157.6070 C   0  0  0  0  0  0  0  0  0  0  0  0
  151.0174  143.2285  158.1229 C   0  0  0  0  0  0  0  0  0  0  0  0
  151.6385  143.4606  159.3679 C   0  0  0  0  0  0  0  0  0  0  0  0
  151.6951  144.8758  159.9152 C   0  0  0  0  0  0  0  0  0  0  0  0
  153.2821  141.6700  161.8304 H   0  0  0  0  0  0  0  0  0  0  0  0
  152.1645  142.9943  162.1545 H   0  0  0  0  0  0  0  0  0  0  0  0
  153.6996  143.3071  161.3307 H   0  0  0  0  0  0  0  0  0  0  0  0
  152.5675  140.2410  160.1075 H   0  0  0  0  0  0  0  0  0  0  0  0
  150.4172  139.3624  155.7526 H   0  0  0  0  0  0  0  0  0  0  0  0
  149.1052  142.8092  155.7891 H   0  0  0  0  0  0  0  0  0  0  0  0
  150.4930  142.5769  154.7519 H   0  0  0  0  0  0  0  0  0  0  0  0
  148.8365  140.1375  155.0181 H   0  0  0  0  0  0  0  0  0  0  0  0
  149.0938  140.2675  152.7355 H   0  0  0  0  0  0  0  0  0  0  0  0
  147.5979  142.2245  153.2227 H   0  0  0  0  0  0  0  0  0  0  0  0
  146.8628  140.8334  153.9623 H   0  0  0  0  0  0  0  0  0  0  0  0
  146.0894  140.9320  156.2406 H   0  0  0  0  0  0  0  0  0  0  0  0
  147.6915  141.3801  156.7814 H   0  0  0  0  0  0  0  0  0  0  0  0
  145.9186  142.0709  158.4160 H   0  0  0  0  0  0  0  0  0  0  0  0
  146.8132  143.4584  157.8219 H   0  0  0  0  0  0  0  0  0  0  0  0
  145.7685  144.8386  156.1233 H   0  0  0  0  0  0  0  0  0  0  0  0
  143.0811  143.8337  155.0441 H   0  0  0  0  0  0  0  0  0  0  0  0
  143.1990  144.8769  156.4245 H   0  0  0  0  0  0  0  0  0  0  0  0
  144.4969  146.5055  152.8154 H   0  0  0  0  0  0  0  0  0  0  0  0
  144.1691  144.7707  152.8544 H   0  0  0  0  0  0  0  0  0  0  0  0
  145.5795  145.4408  153.6884 H   0  0  0  0  0  0  0  0  0  0  0  0
  142.4004  147.1358  153.7119 H   0  0  0  0  0  0  0  0  0  0  0  0
  141.7931  146.4128  155.1956 H   0  0  0  0  0  0  0  0  0  0  0  0
  141.8716  145.4502  153.7157 H   0  0  0  0  0  0  0  0  0  0  0  0
  145.8241  143.7172  153.8757 H   0  0  0  0  0  0  0  0  0  0  0  0
  144.9726  142.3382  154.5216 H   0  0  0  0  0  0  0  0  0  0  0  0
  150.5877  144.0456  157.5627 H   0  0  0  0  0  0  0  0  0  0  0  0
  151.1978  145.5807  159.2483 H   0  0  0  0  0  0  0  0  0  0  0  0
  152.7303  145.1978  160.0310 H   0  0  0  0  0  0  0  0  0  0  0  0
  151.2037  144.9307  160.8868 H   0  0  0  0  0  0  0  0  0  0  0  0
  1  2  1  0  0  0  0
  1 26  1  0  0  0  0
  1 27  1  0  0  0  0
  1 28  1  0  0  0  0
  2 24  1  0  0  0  0
  2  3  2  0  0  0  0
  3  4  1  0  0  0  0
  3 29  1  0  0  0  0
  4 22  2  0  0  0  0
  4  5  1  0  0  0  0
  5  6  2  0  0  0  0
  6  7  1  0  0  0  0
  6 30  1  0  0  0  0
  7  8  1  0  0  0  0
  7 22  1  0  0  0  0
  8  9  1  0  0  0  0
  8 31  1  0  0  0  0
  8 32  1  0  0  0  0
  9 10  1  0  0  0  0
  9 11  1  0  0  0  0
  9 33  1  0  0  0  0
 10 34  1  0  0  0  0
 11 12  1  0  0  0  0
 11 35  1  0  0  0  0
 11 36  1  0  0  0  0
 12 21  1  0  0  0  0
 12 13  1  0  0  0  0
 13 14  1  0  0  0  0
 13 37  1  0  0  0  0
 13 38  1  0  0  0  0
 14 15  1  0  0  0  0
 14 39  1  0  0  0  0
 14 40  1  0  0  0  0
 15 16  1  0  0  0  0
 16 17  1  0  0  0  0
 16 21  1  0  0  0  0
 16 41  1  0  0  0  0
 17 18  1  0  0  0  0
 17 42  1  0  0  0  0
 17 43  1  0  0  0  0
 18 19  1  0  0  0  0
 18 20  1  0  0  0  0
 19 44  1  0  0  0  0
 19 45  1  0  0  0  0
 19 46  1  0  0  0  0
 20 47  1  0  0  0  0
 20 48  1  0  0  0  0
 20 49  1  0  0  0  0
 21 50  1  0  0  0  0
 21 51  1  0  0  0  0
 22 23  1  0  0  0  0
 23 24  2  0  0  0  0
 23 52  1  0  0  0  0
 24 25  1  0  0  0  0
 25 53  1  0  0  0  0
 25 54  1  0  0  0  0
 25 55  1  0  0  0  0
M  END
> <s_m_source_file>
AV-unprocessed.smi

> <i_m_source_file_index>
1005

> <i_lp_mmshare_version>
43012

> <i_f3d_flags>
0

> <s_epik_input>
W0NIM11jKFtjSF0xKWMoW0NIM10pW2NIXWMoYzEyKW4oW2NIXW4yKVtDSDJdW0NASF0oW09IXSlbQ0gyXU4zW0NIMl1bQ0gyXU9bQ0BIXShbQ0gyXTMpW0NIMl1OKFtDSDNdKVtDSDNd

> <s_epik_cmdline>
J2VwaWtfcHl0aG9uJywgJy1waCcsICc3LjAnLCAnLXRuJywgJzgnLCAnLW1hJywgJzIwMCcsICctbWV0YWxfYmluZGluZycsICctaW1hZScsICc8aW5maWxlLm1hZT4nLCAnLW9tYWUnLCAnPG91dGZpbGUubWFlPic=

> <r_epik_Ionization_Penalty>
2.78613

> <r_epik_Ionization_Penalty_Charging>
0

> <r_epik_Ionization_Penalty_Neutral>
2.78613

> <r_epik_State_Penalty>
2.57336

> <r_epik_Charging_Adjusted_Penalty>
2.57336

> <i_epik_Tot_Q>
0

> <i_epik_Tot_abs_Q>
0

> <r_epik_Metal_State_Penalty>
2.49087

> <b_epik_Metal_Only>
0

> <s_lp_Force_Field>
OPLS_2005

> <r_lp_Energy>
40.4742

> <b_lp_Chiralities_Consistent>
1

> <s_lp_Variant>
AV-unprocessed.smi:1005-27

> <Gold.Version>
5.8.1

> <Gold.Id.Protein>
6NUR|6NUR_protein|mol2

> <Gold.PLP.Fitness>
52.7624

> <Gold.PLP.PLP>
-50.8058

> <Gold.PLP.part.hbond>
-1.8934

> <Gold.PLP.part.metal>
0.0000

> <Gold.PLP.part.buried>
-6.5145

> <Gold.PLP.part.nonpolar>
-43.8398

> <Gold.PLP.part.repulsive>
1.3709

> <Gold.PLP.ligand.clash>
0.0000

> <Gold.PLP.ligand.torsion>
1.4512

> <Gold.PLP.Chemscore.Hbond>
1.4960

> <Gold.PLP.Chemscore.CHOScore>
0.0000

> <Gold.PLP.Chemscore.Metal>
0.0000

> <Gold.Chemscore.Hbonds>
donor molecule, donor type, donor heavy atom, donor atom, acceptor molecule, acceptor atom, score
      L1  H    10    34       P1  7957  0.34
      P1  H  7989  7998       L1    10  0.24
      P1  H  8011  8017       L1    10  1.00

> <Gold.PLP.Chemscore.Internal.Correction>
0.3709

> <Gold.Rescore>
     Score         DG    S(hbond)    S(metal)    S(lipo)     H(rot)  DE(clash)    DE(int)     intcor
     16.03     -18.41       0.88        0.00     135.39       2.29       0.98       1.40       ----

> <Gold.Chemscore.Fitness>
16.0267

> <Gold.Chemscore.DG>
-18.4058

> <Gold.Chemscore.ZeroCoef>
-5.4800

> <Gold.Chemscore.Hbond>
0.8822

> <Gold.Chemscore.Metal>
0.0000

> <Gold.Chemscore.Lipo>
135.3872

> <Gold.Chemscore.Internal_Hbond>
0.0000

> <Gold.Chemscore.DEClash>
0.9760

> <Gold.Chemscore.DEInternal>
1.4031

> <Gold.Chemscore.Rot>
2.2895

> <Gold.Chemscore.Internal.Correction>
   9.000000E+99

> <Gold.Chemscore.Hbonds>
donor molecule, donor type, donor heavy atom, donor atom, acceptor molecule, acceptor atom, score
      L1  H    10    34       P1  7957  0.32
      P1  H  7989  7998       L1    10  0.21
      P1  H  8011  8017       L1    10  0.43

> <Gold.Chemscore.Hbond.Weighted>
-2.9467

> <Gold.Chemscore.Metal.Weighted>
-0.0000

> <Gold.Chemscore.Lipo.Weighted>
-15.8403

> <Gold.Chemscore.Internal_Hbond.Weighted>
0.0000

> <Gold.Chemscore.DEClash.Weighted>
0.9760

> <Gold.Chemscore.DEInternal.Weighted>
1.4031

> <Gold.Chemscore.Rot.Weighted>
5.8612

> <Gold.Chemscore.Internal.Correction.Weighted>
   9.000000E+99

> <Gold.Protein.RotatedTorsions>
[ 6907 6896 6895 6894 ] final   -3.31 input  -60.11 | X-H torsion
[ 7974 7965 7964 7962 ] final  -43.45 input  175.53 | X-H torsion
[ 8008 7997 7996 7995 ] final -157.94 input   59.86 | X-H torsion
[ 10167 10162 10161 10158 ] final   81.88 input  -65.29 | X-H torsion
[ 10718 10713 10712 10709 ] final  115.67 input   66.30 | X-H torsion
[ 10763 10752 10751 10750 ] final   53.77 input  -60.55 | X-H torsion
[ 11005 11000 10999 10996 ] final   68.25 input  -57.11 | X-H torsion

> <Gold.Protein.ActiveResidues>
 VAL166  LYS551  ARG553  GLY616  TRP617  ASP618  TYR619  PRO620  LYS621  CYS622 
 ASP623  PHE694  ASN695  SER759  ASP760  ASP761  ALA762  ILE779  LEU786  VAL792 
 PHE793  MET794  SER795  GLU796  ALA797  LYS798  CYS799  TRP800  GLU811  SER814 

> <Gold.Protein.RotatedAtoms>
  151.5158  135.1066  159.9865 H   0  0  0  0  0  0  0  0  0  0  0  0  # atno 6907 bound_to 6896
  152.4642  133.7882  159.6898 H   0  0  0  0  0  0  0  0  0  0  0  0  # atno 6908 bound_to 6896
  150.8617  133.7569  159.3015 H   0  0  0  0  0  0  0  0  0  0  0  0  # atno 6909 bound_to 6896
  146.0017  140.7066  142.9267 H   0  0  0  0  0  0  0  0  0  0  0  0  # atno 7974 bound_to 7965
  155.7400  140.0813  157.2250 H   0  0  0  0  0  0  0  0  0  0  0  0  # atno 8008 bound_to 7997
  154.4023  140.1579  156.2661 H   0  0  0  0  0  0  0  0  0  0  0  0  # atno 8009 bound_to 7997
  155.9029  140.3408  155.6043 H   0  0  0  0  0  0  0  0  0  0  0  0  # atno 8010 bound_to 7997
  139.9346  144.6129  150.8311 H   0  0  0  0  0  0  0  0  0  0  0  0  # atno 10167 bound_to 10162
  157.6208  131.1015  150.7362 H   0  0  0  0  0  0  0  0  0  0  0  0  # atno 10718 bound_to 10713
  152.9798  135.5767  154.4795 H   0  0  0  0  0  0  0  0  0  0  0  0  # atno 10763 bound_to 10752
  154.4346  135.2774  155.1891 H   0  0  0  0  0  0  0  0  0  0  0  0  # atno 10764 bound_to 10752
  154.3585  135.6194  153.5732 H   0  0  0  0  0  0  0  0  0  0  0  0  # atno 10765 bound_to 10752
  139.9722  134.6881  156.0424 H   0  0  0  0  0  0  0  0  0  0  0  0  # atno 11005 bound_to 11000
  144.6922  140.3245  143.7226 LP  0  0  0  0  0  0  0  0  0  0  0  0  # atno 17320 bound_to 7965
  145.7477  139.1784  143.2340 LP  0  0  0  0  0  0  0  0  0  0  0  0  # atno 17321 bound_to 7965
  140.7628  143.3207  151.2629 LP  0  0  0  0  0  0  0  0  0  0  0  0  # atno 17342 bound_to 10162
  139.6754  143.9947  152.2778 LP  0  0  0  0  0  0  0  0  0  0  0  0  # atno 17343 bound_to 10162
  156.7720  130.4832  149.5416 LP  0  0  0  0  0  0  0  0  0  0  0  0  # atno 17370 bound_to 10713
  156.1352  130.6206  151.0391 LP  0  0  0  0  0  0  0  0  0  0  0  0  # atno 17371 bound_to 10713
  141.1401  133.6566  156.3706 LP  0  0  0  0  0  0  0  0  0  0  0  0  # atno 17394 bound_to 11000
  140.5269  134.6250  157.5337 LP  0  0  0  0  0  0  0  0  0  0  0  0  # atno 17395 bound_to 11000

$$$$
