AV-unprocessed.smi:2951|AV-procd|sdf|11290|dock3
  -GOLD-   2272016183D 1   1.00000     0.00000
 Structure written by MMmdl.
 17 17  0  0  0  0  0  0  0  0  1 V2000
  145.7307  136.6358  150.2728 N   0  0  0  0  0  0  0  0  0  0  0  0
  145.4084  136.2610  151.5139 C   0  0  0  0  0  0  0  0  0  0  0  0
  144.5816  136.8689  152.1908 O   0  0  0  0  0  0  0  0  0  0  0  0
  146.1138  135.0259  152.0768 C   0  0  0  0  0  0  0  0  0  0  0  0
  145.4834  133.7762  151.5343 C   0  0  0  0  0  0  0  0  0  0  0  0
  145.9215  132.4863  151.7167 C   0  0  0  0  0  0  0  0  0  0  0  0
  144.8969  131.3275  150.9134 S   0  0  0  0  0  0  0  0  0  0  0  0
  143.8966  132.6603  150.3573 C   0  0  0  0  0  0  0  0  0  0  0  0
  142.7761  132.4475  149.5732 N   0  0  0  0  0  0  0  0  0  0  0  0
  144.3212  133.8592  150.7582 N   0  0  0  0  0  0  0  0  0  0  0  0
  145.2935  137.4499  149.8657 H   0  0  0  0  0  0  0  0  0  0  0  0
  146.4146  136.1092  149.7484 H   0  0  0  0  0  0  0  0  0  0  0  0
  147.1707  135.0665  151.8103 H   0  0  0  0  0  0  0  0  0  0  0  0
  146.0726  135.0450  153.1668 H   0  0  0  0  0  0  0  0  0  0  0  0
  146.7859  132.1504  152.2704 H   0  0  0  0  0  0  0  0  0  0  0  0
  142.4983  131.5171  149.2959 H   0  0  0  0  0  0  0  0  0  0  0  0
  142.1539  133.2043  149.3288 H   0  0  0  0  0  0  0  0  0  0  0  0
  1  2  1  0  0  0  0
  1 11  1  0  0  0  0
  1 12  1  0  0  0  0
  2  3  2  0  0  0  0
  2  4  1  0  0  0  0
  4  5  1  0  0  0  0
  4 13  1  0  0  0  0
  4 14  1  0  0  0  0
  5 10  1  0  0  0  0
  5  6  2  0  0  0  0
  6  7  1  0  0  0  0
  6 15  1  0  0  0  0
  7  8  1  0  0  0  0
  8  9  1  0  0  0  0
  8 10  2  0  0  0  0
  9 16  1  0  0  0  0
  9 17  1  0  0  0  0
M  END
> <s_m_source_file>
AV-unprocessed.smi

> <i_m_source_file_index>
2951

> <i_lp_mmshare_version>
43012

> <i_f3d_flags>
0

> <s_epik_input>
W05IMl1DKD1PKVtDSDJdYzFbY0hdc2MobjEpW05IMl0=

> <s_epik_cmdline>
J2VwaWtfcHl0aG9uJywgJy1waCcsICc3LjAnLCAnLXRuJywgJzgnLCAnLW1hJywgJzIwMCcsICctbWV0YWxfYmluZGluZycsICctaW1hZScsICc8aW5maWxlLm1hZT4nLCAnLW9tYWUnLCAnPG91dGZpbGUubWFlPic=

> <r_lp_tautomer_probability>
1

> <r_epik_Ionization_Penalty>
0.00145479

> <r_epik_Ionization_Penalty_Charging>
0

> <r_epik_Ionization_Penalty_Neutral>
0.00145479

> <r_epik_State_Penalty>
-0

> <r_epik_Charging_Adjusted_Penalty>
0

> <i_epik_Tot_Q>
0

> <i_epik_Tot_abs_Q>
0

> <r_epik_Metal_State_Penalty>
-0

> <b_epik_Metal_Only>
0

> <s_lp_Force_Field>
OPLS_2005

> <r_lp_Energy>
-0.412786

> <b_lp_Chiralities_Consistent>
1

> <s_lp_Variant>
AV-unprocessed.smi:2951-1

> <Gold.Version>
5.8.1

> <Gold.Id.Protein>
6NUR|6NUR_protein|mol2

> <Gold.PLP.Fitness>
33.1587

> <Gold.PLP.PLP>
-18.8166

> <Gold.PLP.part.hbond>
-4.0000

> <Gold.PLP.part.metal>
0.0000

> <Gold.PLP.part.buried>
-2.2626

> <Gold.PLP.part.nonpolar>
-13.3708

> <Gold.PLP.part.repulsive>
0.6326

> <Gold.PLP.ligand.clash>
0.0000

> <Gold.PLP.ligand.torsion>
0.3065

> <Gold.PLP.Chemscore.Hbond>
4.0000

> <Gold.PLP.Chemscore.CHOScore>
0.9850

> <Gold.PLP.Chemscore.Metal>
0.0000

> <Gold.Chemscore.Hbonds>
donor molecule, donor type, donor heavy atom, donor atom, acceptor molecule, acceptor atom, score
      L1  H     1    11       P1 10171  0.99
      L1  H     9    16       P1 10952  0.65
      L1  H     9    17       P1 10186  1.00

> <Gold.PLP.Chemscore.Internal.Correction>
0.0001

> <Gold.Rescore>
     Score         DG    S(hbond)    S(metal)    S(lipo)     H(rot)  DE(clash)    DE(int)     intcor
     17.03     -17.71       3.83        0.00      31.20       1.65       0.10       0.58       ----

> <Gold.Chemscore.Fitness>
17.0339

> <Gold.Chemscore.DG>
-17.7124

> <Gold.Chemscore.ZeroCoef>
-5.4800

> <Gold.Chemscore.Hbond>
3.8334

> <Gold.Chemscore.Metal>
0.0000

> <Gold.Chemscore.Lipo>
31.2046

> <Gold.Chemscore.Internal_Hbond>
0.0000

> <Gold.Chemscore.DEClash>
0.0982

> <Gold.Chemscore.DEInternal>
0.5802

> <Gold.Chemscore.Rot>
1.6493

> <Gold.Chemscore.Internal.Correction>
   9.000000E+99

> <Gold.Chemscore.Hbonds>
donor molecule, donor type, donor heavy atom, donor atom, acceptor molecule, acceptor atom, score
      L1  H     1    11       P1 10171  0.94
      L1  H     1    12       P1  7921  0.01
      L1  H     9    16       P1 10952  0.62
      L1  H     9    17       P1 10186  0.99

> <Gold.Chemscore.Hbond.Weighted>
-12.8037

> <Gold.Chemscore.Metal.Weighted>
-0.0000

> <Gold.Chemscore.Lipo.Weighted>
-3.6509

> <Gold.Chemscore.Internal_Hbond.Weighted>
0.0000

> <Gold.Chemscore.DEClash.Weighted>
0.0982

> <Gold.Chemscore.DEInternal.Weighted>
0.5802

> <Gold.Chemscore.Rot.Weighted>
4.2222

> <Gold.Chemscore.Internal.Correction.Weighted>
   9.000000E+99

> <Gold.Protein.RotatedTorsions>
[ 6907 6896 6895 6894 ] final  122.99 input  -60.11 | X-H torsion
[ 7974 7965 7964 7962 ] final   56.60 input  175.53 | X-H torsion
[ 8008 7997 7996 7995 ] final   38.53 input   59.86 | X-H torsion
[ 10167 10162 10161 10158 ] final  -14.54 input  -65.29 | X-H torsion
[ 10718 10713 10712 10709 ] final  -65.75 input   66.30 | X-H torsion
[ 10763 10752 10751 10750 ] final   29.34 input  -60.55 | X-H torsion
[ 11005 11000 10999 10996 ] final   69.40 input  -57.11 | X-H torsion

> <Gold.Protein.ActiveResidues>
 VAL166  LYS551  ARG553  GLY616  TRP617  ASP618  TYR619  PRO620  LYS621  CYS622 
 ASP623  PHE694  ASN695  SER759  ASP760  ASP761  ALA762  ILE779  LEU786  VAL792 
 PHE793  MET794  SER795  GLU796  ALA797  LYS798  CYS799  TRP800  GLU811  SER814 

> <Gold.Protein.RotatedAtoms>
  152.4198  133.7098  159.6471 H   0  0  0  0  0  0  0  0  0  0  0  0  # atno 6907 bound_to 6896
  150.8074  133.8473  159.3204 H   0  0  0  0  0  0  0  0  0  0  0  0  # atno 6908 bound_to 6896
  151.6193  135.1035  160.0149 H   0  0  0  0  0  0  0  0  0  0  0  0  # atno 6909 bound_to 6896
  145.9381  139.3864  143.0380 H   0  0  0  0  0  0  0  0  0  0  0  0  # atno 7974 bound_to 7965
  155.2217  140.3331  155.4314 H   0  0  0  0  0  0  0  0  0  0  0  0  # atno 8008 bound_to 7997
  156.2330  140.1859  156.7240 H   0  0  0  0  0  0  0  0  0  0  0  0  # atno 8009 bound_to 7997
  154.6011  140.0623  156.9355 H   0  0  0  0  0  0  0  0  0  0  0  0  # atno 8010 bound_to 7997
  140.7203  143.5311  150.9519 H   0  0  0  0  0  0  0  0  0  0  0  0  # atno 10167 bound_to 10162
  156.0651  130.4252  150.1609 H   0  0  0  0  0  0  0  0  0  0  0  0  # atno 10718 bound_to 10713
  153.0436  135.6491  154.0876 H   0  0  0  0  0  0  0  0  0  0  0  0  # atno 10763 bound_to 10752
  154.0578  135.2890  155.3331 H   0  0  0  0  0  0  0  0  0  0  0  0  # atno 10764 bound_to 10752
  154.6678  135.5367  153.8164 H   0  0  0  0  0  0  0  0  0  0  0  0  # atno 10765 bound_to 10752
  139.9656  134.6986  156.0553 H   0  0  0  0  0  0  0  0  0  0  0  0  # atno 11005 bound_to 11000
  145.8337  140.9617  143.0835 LP  0  0  0  0  0  0  0  0  0  0  0  0  # atno 17320 bound_to 7965
  144.6775  140.0195  143.7484 LP  0  0  0  0  0  0  0  0  0  0  0  0  # atno 17321 bound_to 7965
  139.9031  143.6811  152.3128 LP  0  0  0  0  0  0  0  0  0  0  0  0  # atno 17342 bound_to 10162
  139.7168  144.7610  151.1021 LP  0  0  0  0  0  0  0  0  0  0  0  0  # atno 17343 bound_to 10162
  156.9671  130.9823  151.3467 LP  0  0  0  0  0  0  0  0  0  0  0  0  # atno 17370 bound_to 10713
  157.5687  130.8296  149.8363 LP  0  0  0  0  0  0  0  0  0  0  0  0  # atno 17371 bound_to 10713
  141.1335  133.6580  156.3530 LP  0  0  0  0  0  0  0  0  0  0  0  0  # atno 17394 bound_to 11000
  140.5404  134.6126  157.5378 LP  0  0  0  0  0  0  0  0  0  0  0  0  # atno 17395 bound_to 11000

$$$$
