AV-unprocessed.smi:3290|AV-procd|sdf|12618|dock6
  -GOLD-   2272018553D 1   1.00000     0.00000
 Structure written by MMmdl.
 43 44  0  0  0  0  0  0  0  0  2 V2000
  141.5830  134.9188  153.4627 C   0  0  0  0  0  0  0  0  0  0  0  0
  142.9093  134.5955  152.7510 C   0  0  1  0  0  0  0  0  0  0  0  0
  142.6948  133.4207  151.7730 C   0  0  0  0  0  0  0  0  0  0  0  0
  143.9951  133.0113  151.0691 C   0  0  0  0  0  0  0  0  0  0  0  0
  144.6181  134.2066  150.3399 C   0  0  0  0  0  0  0  0  0  0  0  0
  144.8463  135.3772  151.3063 C   0  0  0  0  0  0  0  0  0  0  0  0
  143.5449  135.8136  152.0162 C   0  0  2  0  0  0  0  0  0  0  0  0
  143.8458  137.0115  152.9458 C   0  0  0  0  0  0  0  0  0  0  0  0
  144.7532  137.9912  152.3157 N   0  3  0  0  0  0  0  0  0  0  0  0
  146.1821  137.7740  152.6174 C   0  0  0  0  0  0  0  0  0  0  0  0
  147.0017  139.0605  152.4150 C   0  0  1  0  0  0  0  0  0  0  0  0
  146.3797  139.8434  151.4141 O   0  0  0  0  0  0  0  0  0  0  0  0
  147.1505  139.8283  153.7190 C   0  0  0  0  0  0  0  0  0  0  0  0
  146.5347  139.3617  154.8992 C   0  0  0  0  0  0  0  0  0  0  0  0
  146.6955  140.1079  156.0840 C   0  0  0  0  0  0  0  0  0  0  0  0
  147.4088  141.2522  156.1484 N   0  0  0  0  0  0  0  0  0  0  0  0
  147.9945  141.6960  155.0160 C   0  0  0  0  0  0  0  0  0  0  0  0
  147.8959  141.0258  153.7804 C   0  0  0  0  0  0  0  0  0  0  0  0
  140.8597  135.3592  152.7759 H   0  0  0  0  0  0  0  0  0  0  0  0
  141.7275  135.6068  154.2950 H   0  0  0  0  0  0  0  0  0  0  0  0
  141.1339  134.0171  153.8805 H   0  0  0  0  0  0  0  0  0  0  0  0
  143.6110  134.2589  153.5158 H   0  0  0  0  0  0  0  0  0  0  0  0
  142.2913  132.5588  152.3059 H   0  0  0  0  0  0  0  0  0  0  0  0
  141.9490  133.6951  151.0254 H   0  0  0  0  0  0  0  0  0  0  0  0
  144.7014  132.6172  151.8008 H   0  0  0  0  0  0  0  0  0  0  0  0
  143.7983  132.2048  150.3621 H   0  0  0  0  0  0  0  0  0  0  0  0
  145.5627  133.9115  149.8820 H   0  0  0  0  0  0  0  0  0  0  0  0
  143.9645  134.5229  149.5258 H   0  0  0  0  0  0  0  0  0  0  0  0
  145.5941  135.0933  152.0486 H   0  0  0  0  0  0  0  0  0  0  0  0
  145.2692  136.2155  150.7513 H   0  0  0  0  0  0  0  0  0  0  0  0
  142.8551  136.1484  151.2394 H   0  0  0  0  0  0  0  0  0  0  0  0
  142.9174  137.4971  153.2501 H   0  0  0  0  0  0  0  0  0  0  0  0
  144.3322  136.6665  153.8592 H   0  0  0  0  0  0  0  0  0  0  0  0
  144.6217  137.9614  151.3147 H   0  0  0  0  0  0  0  0  0  0  0  0
  146.2882  137.4145  153.6422 H   0  0  0  0  0  0  0  0  0  0  0  0
  146.5594  136.9877  151.9619 H   0  0  0  0  0  0  0  0  0  0  0  0
  147.9973  138.8004  152.0523 H   0  0  0  0  0  0  0  0  0  0  0  0
  145.5055  140.0592  151.7030 H   0  0  0  0  0  0  0  0  0  0  0  0
  145.9510  138.4528  154.9033 H   0  0  0  0  0  0  0  0  0  0  0  0
  146.2377  139.7766  157.0043 H   0  0  0  0  0  0  0  0  0  0  0  0
  148.5578  142.6140  155.0960 H   0  0  0  0  0  0  0  0  0  0  0  0
  148.3828  141.4265  152.9034 H   0  0  0  0  0  0  0  0  0  0  0  0
  144.5029  138.9129  152.6460 H   0  0  0  0  0  0  0  0  0  0  0  0
  1  2  1  0  0  0  0
  1 19  1  0  0  0  0
  1 20  1  0  0  0  0
  1 21  1  0  0  0  0
  2  7  1  0  0  0  0
  2  3  1  0  0  0  0
  2 22  1  0  0  0  0
  3  4  1  0  0  0  0
  3 23  1  0  0  0  0
  3 24  1  0  0  0  0
  4  5  1  0  0  0  0
  4 25  1  0  0  0  0
  4 26  1  0  0  0  0
  5  6  1  0  0  0  0
  5 27  1  0  0  0  0
  5 28  1  0  0  0  0
  6  7  1  0  0  0  0
  6 29  1  0  0  0  0
  6 30  1  0  0  0  0
  7  8  1  0  0  0  0
  7 31  1  0  0  0  0
  8  9  1  0  0  0  0
  8 32  1  0  0  0  0
  8 33  1  0  0  0  0
  9 10  1  0  0  0  0
  9 34  1  0  0  0  0
  9 43  1  0  0  0  0
 10 11  1  0  0  0  0
 10 35  1  0  0  0  0
 10 36  1  0  0  0  0
 11 12  1  0  0  0  0
 11 13  1  0  0  0  0
 11 37  1  0  0  0  0
 12 38  1  0  0  0  0
 13 18  1  0  0  0  0
 13 14  2  0  0  0  0
 14 15  1  0  0  0  0
 14 39  1  0  0  0  0
 15 16  2  0  0  0  0
 15 40  1  0  0  0  0
 16 17  1  0  0  0  0
 17 18  2  0  0  0  0
 17 41  1  0  0  0  0
 18 42  1  0  0  0  0
M  CHG  1   9   1
M  END
> <s_m_source_file>
AV-unprocessed.smi

> <i_m_source_file_index>
3290

> <i_lp_mmshare_version>
43012

> <i_f3d_flags>
0

> <s_epik_input>
W0NIM11bQ0BASF0xW0NIMl1bQ0gyXVtDSDJdW0NIMl1bQ0BIXTFbQ0gyXVtOSF1bQ0gyXVtDQEhdKFtPSF0pYzJbY0hdW2NIXW5bY0hdW2NIXTI=

> <s_epik_cmdline>
J2VwaWtfcHl0aG9uJywgJy1waCcsICc3LjAnLCAnLXRuJywgJzgnLCAnLW1hJywgJzIwMCcsICctbWV0YWxfYmluZGluZycsICctaW1hZScsICc8aW5maWxlLm1hZT4nLCAnLW9tYWUnLCAnPG91dGZpbGUubWFlPic=

> <r_lp_tautomer_probability>
1

> <r_epik_Ionization_Penalty>
0.00420552

> <r_epik_Ionization_Penalty_Charging>
0.00207255

> <r_epik_Ionization_Penalty_Neutral>
0.00213297

> <r_epik_State_Penalty>
-0

> <r_epik_Charging_Adjusted_Penalty>
0.00207255

> <i_epik_Tot_Q>
1

> <i_epik_Tot_abs_Q>
1

> <r_epik_Metal_State_Penalty>
-0

> <b_epik_Metal_Only>
0

> <s_lp_Force_Field>
OPLS_2005

> <r_lp_Energy>
17.3555

> <b_lp_Chiralities_Consistent>
1

> <s_lp_Variant>
AV-unprocessed.smi:3290-8

> <Gold.Version>
5.8.1

> <Gold.Id.Protein>
6NUR|6NUR_protein|mol2

> <Gold.PLP.Fitness>
46.9981

> <Gold.PLP.PLP>
-33.7905

> <Gold.PLP.part.hbond>
-4.0014

> <Gold.PLP.part.metal>
0.0000

> <Gold.PLP.part.buried>
0.1761

> <Gold.PLP.part.nonpolar>
-30.5911

> <Gold.PLP.part.repulsive>
0.0896

> <Gold.PLP.ligand.clash>
0.0000

> <Gold.PLP.ligand.torsion>
0.8853

> <Gold.PLP.Chemscore.Hbond>
3.9673

> <Gold.PLP.Chemscore.CHOScore>
1.0000

> <Gold.PLP.Chemscore.Metal>
0.0000

> <Gold.Chemscore.Hbonds>
donor molecule, donor type, donor heavy atom, donor atom, acceptor molecule, acceptor atom, score
      L1  H     9    34       P1 10171  1.00
      L1  H     9    43       P1 10175  2.00
      L1  H    12    38       P1 10175  1.00
      L1  C    17    41       P1  8028  1.00

> <Gold.PLP.Chemscore.Internal.Correction>
0.0766

> <Gold.Rescore>
     Score         DG    S(hbond)    S(metal)    S(lipo)     H(rot)  DE(clash)    DE(int)     intcor
     15.50     -17.29       2.14        0.00      84.71       2.05       0.72       1.07       ----

> <Gold.Chemscore.Fitness>
15.5013

> <Gold.Chemscore.DG>
-17.2850

> <Gold.Chemscore.ZeroCoef>
-5.4800

> <Gold.Chemscore.Hbond>
2.1383

> <Gold.Chemscore.Metal>
0.0000

> <Gold.Chemscore.Lipo>
84.7054

> <Gold.Chemscore.Internal_Hbond>
0.0000

> <Gold.Chemscore.DEClash>
0.7164

> <Gold.Chemscore.DEInternal>
1.0673

> <Gold.Chemscore.Rot>
2.0498

> <Gold.Chemscore.Internal.Correction>
   9.000000E+99

> <Gold.Chemscore.Hbonds>
donor molecule, donor type, donor heavy atom, donor atom, acceptor molecule, acceptor atom, score
      L1  H     9    34       P1 10171  0.95
      L1  H     9    43       P1 10175  0.95
      L1  H    12    38       P1 10175  0.25

> <Gold.Chemscore.Hbond.Weighted>
-7.1420

> <Gold.Chemscore.Metal.Weighted>
-0.0000

> <Gold.Chemscore.Lipo.Weighted>
-9.9105

> <Gold.Chemscore.Internal_Hbond.Weighted>
0.0000

> <Gold.Chemscore.DEClash.Weighted>
0.7164

> <Gold.Chemscore.DEInternal.Weighted>
1.0673

> <Gold.Chemscore.Rot.Weighted>
5.2475

> <Gold.Chemscore.Internal.Correction.Weighted>
   9.000000E+99

> <Gold.Protein.RotatedTorsions>
[ 6907 6896 6895 6894 ] final   76.64 input  -60.11 | X-H torsion
[ 7974 7965 7964 7962 ] final   76.40 input  175.53 | X-H torsion
[ 8008 7997 7996 7995 ] final  -63.74 input   59.86 | X-H torsion
[ 10167 10162 10161 10158 ] final -131.18 input  -65.29 | X-H torsion
[ 10718 10713 10712 10709 ] final  154.25 input   66.30 | X-H torsion
[ 10763 10752 10751 10750 ] final   70.92 input  -60.55 | X-H torsion
[ 11005 11000 10999 10996 ] final  130.86 input  -57.11 | X-H torsion

> <Gold.Protein.ActiveResidues>
 VAL166  LYS551  ARG553  GLY616  TRP617  ASP618  TYR619  PRO620  LYS621  CYS622 
 ASP623  PHE694  ASN695  SER759  ASP760  ASP761  ALA762  ILE779  LEU786  VAL792 
 PHE793  MET794  SER795  GLU796  ALA797  LYS798  CYS799  TRP800  GLU811  SER814 

> <Gold.Protein.RotatedAtoms>
  152.5082  134.3938  159.9392 H   0  0  0  0  0  0  0  0  0  0  0  0  # atno 6907 bound_to 6896
  151.3899  133.3786  159.2727 H   0  0  0  0  0  0  0  0  0  0  0  0  # atno 6908 bound_to 6896
  150.9441  134.8868  159.7689 H   0  0  0  0  0  0  0  0  0  0  0  0  # atno 6909 bound_to 6896
  145.7033  139.2590  143.1693 H   0  0  0  0  0  0  0  0  0  0  0  0  # atno 7974 bound_to 7965
  154.4571  140.0968  156.6789 H   0  0  0  0  0  0  0  0  0  0  0  0  # atno 8008 bound_to 7997
  155.5104  140.3476  155.4369 H   0  0  0  0  0  0  0  0  0  0  0  0  # atno 8009 bound_to 7997
  156.0799  140.1370  156.9714 H   0  0  0  0  0  0  0  0  0  0  0  0  # atno 8010 bound_to 7997
  139.9216  143.6375  152.2552 H   0  0  0  0  0  0  0  0  0  0  0  0  # atno 10167 bound_to 10162
  157.2341  131.0745  151.1835 H   0  0  0  0  0  0  0  0  0  0  0  0  # atno 10718 bound_to 10713
  153.0369  135.5156  154.7515 H   0  0  0  0  0  0  0  0  0  0  0  0  # atno 10763 bound_to 10752
  154.6484  135.2922  155.0020 H   0  0  0  0  0  0  0  0  0  0  0  0  # atno 10764 bound_to 10752
  154.0912  135.6650  153.4905 H   0  0  0  0  0  0  0  0  0  0  0  0  # atno 10765 bound_to 10752
  139.9696  134.9581  156.9355 H   0  0  0  0  0  0  0  0  0  0  0  0  # atno 11005 bound_to 11000
  146.0778  140.7798  142.9656 LP  0  0  0  0  0  0  0  0  0  0  0  0  # atno 17320 bound_to 7965
  144.6962  140.3442  143.7193 LP  0  0  0  0  0  0  0  0  0  0  0  0  # atno 17321 bound_to 7965
  139.6857  144.7652  151.1529 LP  0  0  0  0  0  0  0  0  0  0  0  0  # atno 17342 bound_to 10162
  140.7660  143.5661  150.9046 LP  0  0  0  0  0  0  0  0  0  0  0  0  # atno 17343 bound_to 10162
  157.3448  130.7052  149.6404 LP  0  0  0  0  0  0  0  0  0  0  0  0  # atno 17370 bound_to 10713
  155.9673  130.4269  150.4722 LP  0  0  0  0  0  0  0  0  0  0  0  0  # atno 17371 bound_to 10713
  140.5321  134.0803  155.7318 LP  0  0  0  0  0  0  0  0  0  0  0  0  # atno 17394 bound_to 11000
  141.1376  133.9194  157.2398 LP  0  0  0  0  0  0  0  0  0  0  0  0  # atno 17395 bound_to 11000

$$$$
