AV-unprocessed.smi:278|AV-procd|sdf|2090|dock7
  -GOLD-   2262021373D 1   1.00000     0.00000
 Structure written by MMmdl.
 50 54  0  0  0  0  0  0  0  0  1 V2000
  149.8858  143.5455  160.1850 O   0  0  0  0  0  0  0  0  0  0  0  0
  150.9971  144.5081  160.1348 S   0  0  0  0  0  0  0  0  0  0  0  0
  150.7468  145.9568  160.1009 O   0  0  0  0  0  0  0  0  0  0  0  0
  152.1881  144.1113  161.4569 C   0  0  0  0  0  0  0  0  0  0  0  0
  152.9669  142.8950  160.9352 C   0  0  0  0  0  0  0  0  0  0  0  0
  153.0564  142.9414  159.3869 C   0  0  1  0  0  0  0  0  0  0  0  0
  152.5634  141.6678  158.6919 C   0  0  0  0  0  0  0  0  0  0  0  0
  152.0755  142.1063  157.3942 N   0  0  0  0  0  0  0  0  0  0  0  0
  151.3197  141.2079  156.7281 C   0  0  0  0  0  0  0  0  0  0  0  0
  150.0536  141.5810  156.4212 N   0  0  0  0  0  0  0  0  0  0  0  0
  149.2480  140.7374  155.7686 C   0  0  0  0  0  0  0  0  0  0  0  0
  149.5051  139.4995  155.3403 N   0  0  0  0  0  0  0  0  0  0  0  0
  150.7796  139.1228  155.6472 C   0  0  0  0  0  0  0  0  0  0  0  0
  151.7477  139.9079  156.3338 C   0  0  0  0  0  0  0  0  0  0  0  0
  152.9305  139.1899  156.4667 N   0  0  0  0  0  0  0  0  0  0  0  0
  152.6760  138.0455  155.8936 C   0  0  0  0  0  0  0  0  0  0  0  0
  151.4068  137.9196  155.3766 N   0  0  0  0  0  0  0  0  0  0  0  0
  150.8585  136.7594  154.6967 C   0  0  0  0  0  0  0  0  0  0  0  0
  149.4487  136.3962  155.2021 C   0  0  1  0  0  0  0  0  0  0  0  0
  148.4585  136.8980  154.3242 O   0  0  0  0  0  0  0  0  0  0  0  0
  149.2656  134.8803  155.4221 C   0  0  1  0  0  0  0  0  0  0  0  0
  149.4221  133.9864  154.1875 C   0  0  0  0  0  0  0  0  0  0  0  0
  149.8107  132.6687  154.8204 C   0  0  0  0  0  0  0  0  0  0  0  0
  150.7101  133.1304  155.9637 C   0  0  0  0  0  0  0  0  0  0  0  0
  150.1648  134.3702  156.4050 O   0  0  0  0  0  0  0  0  0  0  0  0
  151.4659  143.4168  157.5740 C   0  0  0  0  0  0  0  0  0  0  0  0
  152.1549  144.0365  158.7977 C   0  0  1  0  0  0  0  0  0  0  0  0
  154.0838  143.1402  159.0777 H   0  0  0  0  0  0  0  0  0  0  0  0
  152.7436  144.9151  158.5319 H   0  0  0  0  0  0  0  0  0  0  0  0
  152.8493  144.9690  161.5818 H   0  0  0  0  0  0  0  0  0  0  0  0
  151.6674  143.9251  162.3962 H   0  0  0  0  0  0  0  0  0  0  0  0
  153.9578  142.8431  161.3869 H   0  0  0  0  0  0  0  0  0  0  0  0
  152.4423  141.9920  161.2487 H   0  0  0  0  0  0  0  0  0  0  0  0
  153.3637  140.9353  158.5836 H   0  0  0  0  0  0  0  0  0  0  0  0
  151.7580  141.2026  159.2606 H   0  0  0  0  0  0  0  0  0  0  0  0
  148.2543  141.1062  155.5609 H   0  0  0  0  0  0  0  0  0  0  0  0
  153.4104  137.2554  155.8354 H   0  0  0  0  0  0  0  0  0  0  0  0
  150.8439  136.9575  153.6243 H   0  0  0  0  0  0  0  0  0  0  0  0
  151.5402  135.9219  154.8486 H   0  0  0  0  0  0  0  0  0  0  0  0
  149.2893  136.8927  156.1601 H   0  0  0  0  0  0  0  0  0  0  0  0
  148.8084  136.8979  153.4465 H   0  0  0  0  0  0  0  0  0  0  0  0
  148.2654  134.7134  155.8251 H   0  0  0  0  0  0  0  0  0  0  0  0
  148.5121  133.9231  153.5906 H   0  0  0  0  0  0  0  0  0  0  0  0
  150.2298  134.3289  153.5397 H   0  0  0  0  0  0  0  0  0  0  0  0
  148.9272  132.1651  155.2149 H   0  0  0  0  0  0  0  0  0  0  0  0
  150.3127  131.9913  154.1291 H   0  0  0  0  0  0  0  0  0  0  0  0
  150.7645  132.4047  156.7754 H   0  0  0  0  0  0  0  0  0  0  0  0
  151.7230  133.3083  155.6002 H   0  0  0  0  0  0  0  0  0  0  0  0
  151.6440  144.0241  156.6860 H   0  0  0  0  0  0  0  0  0  0  0  0
  150.3864  143.3504  157.7087 H   0  0  0  0  0  0  0  0  0  0  0  0
  1  2  2  0  0  0  0
  2 27  1  0  0  0  0
  2  3  2  0  0  0  0
  2  4  1  0  0  0  0
  4  5  1  0  0  0  0
  4 30  1  0  0  0  0
  4 31  1  0  0  0  0
  5  6  1  0  0  0  0
  5 32  1  0  0  0  0
  5 33  1  0  0  0  0
  6 28  1  0  0  0  0
  6 27  1  0  0  0  0
  6  7  1  0  0  0  0
  7  8  1  0  0  0  0
  7 34  1  0  0  0  0
  7 35  1  0  0  0  0
  8  9  1  0  0  0  0
  8 26  1  0  0  0  0
  9 14  1  0  0  0  0
  9 10  2  0  0  0  0
 10 11  1  0  0  0  0
 11 12  2  0  0  0  0
 11 36  1  0  0  0  0
 12 13  1  0  0  0  0
 13 17  1  0  0  0  0
 13 14  2  0  0  0  0
 14 15  1  0  0  0  0
 15 16  2  0  0  0  0
 16 17  1  0  0  0  0
 16 37  1  0  0  0  0
 17 18  1  0  0  0  0
 18 19  1  0  0  0  0
 18 38  1  0  0  0  0
 18 39  1  0  0  0  0
 19 20  1  0  0  0  0
 19 21  1  0  0  0  0
 19 40  1  0  0  0  0
 20 41  1  0  0  0  0
 21 25  1  0  0  0  0
 21 22  1  0  0  0  0
 21 42  1  0  0  0  0
 22 23  1  0  0  0  0
 22 43  1  0  0  0  0
 22 44  1  0  0  0  0
 23 24  1  0  0  0  0
 23 45  1  0  0  0  0
 23 46  1  0  0  0  0
 24 25  1  0  0  0  0
 24 47  1  0  0  0  0
 24 48  1  0  0  0  0
 26 27  1  0  0  0  0
 26 49  1  0  0  0  0
 26 50  1  0  0  0  0
 27 29  1  0  0  0  0
M  END
> <s_m_source_file>
AV-unprocessed.smi

> <i_m_source_file_index>
278

> <i_lp_mmshare_version>
43012

> <i_f3d_flags>
0

> <s_epik_input>
W0NIMl0xW0NIMl1TKD1PKSg9TylbQ0BASF0oW0NAQEhdMTIpW0NIMl1OKFtDSDJdMiljKG5bY0hdbjMpYyhjMzQpbltjSF1uNFtDSDJdW0NASF0oW09IXSlbQ0BASF01W0NIMl1bQ0gyXVtDSDJdTzU=

> <s_epik_cmdline>
J2VwaWtfcHl0aG9uJywgJy1waCcsICc3LjAnLCAnLXRuJywgJzgnLCAnLW1hJywgJzIwMCcsICctbWV0YWxfYmluZGluZycsICctaW1hZScsICc8aW5maWxlLm1hZT4nLCAnLW9tYWUnLCAnPG91dGZpbGUubWFlPic=

> <r_lp_tautomer_probability>
1

> <r_epik_Ionization_Penalty>
0.000636766

> <r_epik_Ionization_Penalty_Charging>
0

> <r_epik_Ionization_Penalty_Neutral>
0.000636766

> <r_epik_State_Penalty>
0.000329976

> <r_epik_Charging_Adjusted_Penalty>
0.000329976

> <i_epik_Tot_Q>
0

> <i_epik_Tot_abs_Q>
0

> <r_epik_Metal_State_Penalty>
-0

> <b_epik_Metal_Only>
0

> <s_lp_Force_Field>
OPLS_2005

> <r_lp_Energy>
54.1016

> <b_lp_Chiralities_Consistent>
1

> <s_lp_Variant>
AV-unprocessed.smi:278-4

> <Gold.Version>
5.8.1

> <Gold.Id.Protein>
6NUR|6NUR_protein|mol2

> <Gold.PLP.Fitness>
50.5588

> <Gold.PLP.PLP>
-45.8571

> <Gold.PLP.part.hbond>
-4.8528

> <Gold.PLP.part.metal>
0.0000

> <Gold.PLP.part.buried>
-1.7129

> <Gold.PLP.part.nonpolar>
-40.5431

> <Gold.PLP.part.repulsive>
0.5350

> <Gold.PLP.ligand.clash>
0.0000

> <Gold.PLP.ligand.torsion>
0.7969

> <Gold.PLP.Chemscore.Hbond>
2.0746

> <Gold.PLP.Chemscore.CHOScore>
0.0000

> <Gold.PLP.Chemscore.Metal>
0.0000

> <Gold.Chemscore.Hbonds>
donor molecule, donor type, donor heavy atom, donor atom, acceptor molecule, acceptor atom, score
      L1  H    20    41       P1  7948  1.00
      P1  H  6933  6944       L1     1  0.07
      P1  H  7997  8010       L1    15  1.00

> <Gold.PLP.Chemscore.Internal.Correction>
0.0717

> <Gold.Rescore>
     Score         DG    S(hbond)    S(metal)    S(lipo)     H(rot)  DE(clash)    DE(int)     intcor
     15.66     -17.85       1.98        0.00     103.03       2.46       1.40       0.79       ----

> <Gold.Chemscore.Fitness>
15.6571

> <Gold.Chemscore.DG>
-17.8488

> <Gold.Chemscore.ZeroCoef>
-5.4800

> <Gold.Chemscore.Hbond>
1.9825

> <Gold.Chemscore.Metal>
0.0000

> <Gold.Chemscore.Lipo>
103.0264

> <Gold.Chemscore.Internal_Hbond>
0.0000

> <Gold.Chemscore.DEClash>
1.3995

> <Gold.Chemscore.DEInternal>
0.7922

> <Gold.Chemscore.Rot>
2.4636

> <Gold.Chemscore.Internal.Correction>
   9.000000E+99

> <Gold.Chemscore.Hbonds>
donor molecule, donor type, donor heavy atom, donor atom, acceptor molecule, acceptor atom, score
      L1  H    20    41       P1  7948  0.97
      P1  H  6933  6944       L1     1  0.08
      P1  H  7997  8010       L1    15  0.92

> <Gold.Chemscore.Hbond.Weighted>
-6.6215

> <Gold.Chemscore.Metal.Weighted>
-0.0000

> <Gold.Chemscore.Lipo.Weighted>
-12.0541

> <Gold.Chemscore.Internal_Hbond.Weighted>
0.0000

> <Gold.Chemscore.DEClash.Weighted>
1.3995

> <Gold.Chemscore.DEInternal.Weighted>
0.7922

> <Gold.Chemscore.Rot.Weighted>
6.3068

> <Gold.Chemscore.Internal.Correction.Weighted>
   9.000000E+99

> <Gold.Protein.RotatedTorsions>
[ 6907 6896 6895 6894 ] final   21.35 input  -60.11 | X-H torsion
[ 7974 7965 7964 7962 ] final -166.43 input  175.53 | X-H torsion
[ 8008 7997 7996 7995 ] final   51.04 input   59.86 | X-H torsion
[ 10167 10162 10161 10158 ] final   -6.03 input  -65.29 | X-H torsion
[ 10718 10713 10712 10709 ] final -168.05 input   66.30 | X-H torsion
[ 10763 10752 10751 10750 ] final   29.08 input  -60.55 | X-H torsion
[ 11005 11000 10999 10996 ] final  -28.39 input  -57.11 | X-H torsion

> <Gold.Protein.ActiveResidues>
 VAL166  LYS551  ARG553  GLY616  TRP617  ASP618  TYR619  PRO620  LYS621  CYS622 
 ASP623  PHE694  ASN695  SER759  ASP760  ASP761  ALA762  ILE779  LEU786  VAL792 
 PHE793  MET794  SER795  GLU796  ALA797  LYS798  CYS799  TRP800  GLU811  SER814 

> <Gold.Protein.RotatedAtoms>
  151.9105  135.0341  160.0513 H   0  0  0  0  0  0  0  0  0  0  0  0  # atno 6907 bound_to 6896
  152.2283  133.5033  159.5210 H   0  0  0  0  0  0  0  0  0  0  0  0  # atno 6908 bound_to 6896
  150.7018  134.1167  159.4062 H   0  0  0  0  0  0  0  0  0  0  0  0  # atno 6909 bound_to 6896
  144.7245  140.2667  143.6257 H   0  0  0  0  0  0  0  0  0  0  0  0  # atno 7974 bound_to 7965
  155.4286  140.3449  155.4278 H   0  0  0  0  0  0  0  0  0  0  0  0  # atno 8008 bound_to 7997
  156.1350  140.1525  156.9039 H   0  0  0  0  0  0  0  0  0  0  0  0  # atno 8009 bound_to 7997
  154.4924  140.0837  156.7604 H   0  0  0  0  0  0  0  0  0  0  0  0  # atno 8010 bound_to 7997
  140.6983  143.6240  150.8585 H   0  0  0  0  0  0  0  0  0  0  0  0  # atno 10167 bound_to 10162
  156.6912  130.9160  151.3069 H   0  0  0  0  0  0  0  0  0  0  0  0  # atno 10718 bound_to 10713
  153.0452  135.6497  154.0837 H   0  0  0  0  0  0  0  0  0  0  0  0  # atno 10763 bound_to 10752
  154.0536  135.2893  155.3338 H   0  0  0  0  0  0  0  0  0  0  0  0  # atno 10764 bound_to 10752
  154.6704  135.5358  153.8196 H   0  0  0  0  0  0  0  0  0  0  0  0  # atno 10765 bound_to 10752
  140.9204  133.7402  156.0794 H   0  0  0  0  0  0  0  0  0  0  0  0  # atno 11005 bound_to 11000
  145.8082  139.1992  143.2008 LP  0  0  0  0  0  0  0  0  0  0  0  0  # atno 17320 bound_to 7965
  146.0618  140.7962  142.9731 LP  0  0  0  0  0  0  0  0  0  0  0  0  # atno 17321 bound_to 7965
  139.9960  143.5795  152.2893 LP  0  0  0  0  0  0  0  0  0  0  0  0  # atno 17342 bound_to 10162
  139.6468  144.7658  151.2228 LP  0  0  0  0  0  0  0  0  0  0  0  0  # atno 17343 bound_to 10162
  157.7008  130.9331  150.0779 LP  0  0  0  0  0  0  0  0  0  0  0  0  # atno 17370 bound_to 10713
  156.1796  130.3649  149.9053 LP  0  0  0  0  0  0  0  0  0  0  0  0  # atno 17371 bound_to 10713
  140.7995  134.3525  157.5443 LP  0  0  0  0  0  0  0  0  0  0  0  0  # atno 17394 bound_to 11000
  139.8774  134.9189  156.3213 LP  0  0  0  0  0  0  0  0  0  0  0  0  # atno 17395 bound_to 11000

$$$$
