AV-unprocessed.smi:2111|AV-procd|sdf|8612|dock2
  -GOLD-   2272011353D 1   1.00000     0.00000
 Structure written by MMmdl.
 28 29  0  0  0  0  0  0  0  0  1 V2000
  146.7977  141.8017  153.8136 C   0  0  0  0  0  0  0  0  0  0  0  0
  147.9224  141.9887  154.6659 O   0  0  0  0  0  0  0  0  0  0  0  0
  148.8715  140.9864  154.7369 C   0  0  0  0  0  0  0  0  0  0  0  0
  148.6562  139.8464  154.0336 N   0  0  0  0  0  0  0  0  0  0  0  0
  149.5790  138.8657  154.1006 C   0  0  0  0  0  0  0  0  0  0  0  0
  150.7541  138.9666  154.8666 C   0  0  0  0  0  0  0  0  0  0  0  0
  150.9803  140.1476  155.5973 C   0  0  0  0  0  0  0  0  0  0  0  0
  150.0221  141.1904  155.5354 C   0  0  0  0  0  0  0  0  0  0  0  0
  150.1316  142.4308  156.2279 N   0  0  0  0  0  0  0  0  0  0  0  0
  150.9374  142.7844  157.2447 C   0  0  0  0  0  0  0  0  0  0  0  0
  151.7683  142.0583  157.7888 O   0  0  0  0  0  0  0  0  0  0  0  0
  150.7229  144.0577  157.6030 N   0  0  0  0  0  0  0  0  0  0  0  0
  151.4000  144.7488  158.6527 C   0  0  0  0  0  0  0  0  0  0  0  0
  152.8069  144.3053  158.9908 C   0  0  0  0  0  0  0  0  0  0  0  0
  151.6779  143.9900  159.9324 C   0  0  0  0  0  0  0  0  0  0  0  0
  146.1519  142.6776  153.8716 H   0  0  0  0  0  0  0  0  0  0  0  0
  146.2077  140.9353  154.1158 H   0  0  0  0  0  0  0  0  0  0  0  0
  147.1008  141.6836  152.7722 H   0  0  0  0  0  0  0  0  0  0  0  0
  149.3739  137.9734  153.5280 H   0  0  0  0  0  0  0  0  0  0  0  0
  151.4665  138.1555  154.8944 H   0  0  0  0  0  0  0  0  0  0  0  0
  151.8807  140.2156  156.1852 H   0  0  0  0  0  0  0  0  0  0  0  0
  149.5137  143.1549  155.8914 H   0  0  0  0  0  0  0  0  0  0  0  0
  150.0227  144.5796  157.0964 H   0  0  0  0  0  0  0  0  0  0  0  0
  151.1976  145.8133  158.7625 H   0  0  0  0  0  0  0  0  0  0  0  0
  153.2317  143.4802  158.4219 H   0  0  0  0  0  0  0  0  0  0  0  0
  153.5151  145.0733  159.2952 H   0  0  0  0  0  0  0  0  0  0  0  0
  151.6307  144.5482  160.8653 H   0  0  0  0  0  0  0  0  0  0  0  0
  151.3496  142.9541  159.9933 H   0  0  0  0  0  0  0  0  0  0  0  0
  1  2  1  0  0  0  0
  1 16  1  0  0  0  0
  1 17  1  0  0  0  0
  1 18  1  0  0  0  0
  2  3  1  0  0  0  0
  3  8  1  0  0  0  0
  3  4  2  0  0  0  0
  4  5  1  0  0  0  0
  5  6  2  0  0  0  0
  5 19  1  0  0  0  0
  6  7  1  0  0  0  0
  6 20  1  0  0  0  0
  7  8  2  0  0  0  0
  7 21  1  0  0  0  0
  8  9  1  0  0  0  0
  9 10  1  0  0  0  0
  9 22  1  0  0  0  0
 10 11  2  0  0  0  0
 10 12  1  0  0  0  0
 12 13  1  0  0  0  0
 12 23  1  0  0  0  0
 13 15  1  0  0  0  0
 13 14  1  0  0  0  0
 13 24  1  0  0  0  0
 14 15  1  0  0  0  0
 14 25  1  0  0  0  0
 14 26  1  0  0  0  0
 15 27  1  0  0  0  0
 15 28  1  0  0  0  0
M  END
> <s_m_source_file>
AV-unprocessed.smi

> <i_m_source_file_index>
2111

> <i_lp_mmshare_version>
43012

> <i_f3d_flags>
0

> <s_epik_input>
W0NIM11PYzFuW2NIXVtjSF1bY0hdYzFbTkhdQyg9TylbTkhdW0NIXTJbQ0gyXVtDSDJdMg==

> <s_epik_cmdline>
J2VwaWtfcHl0aG9uJywgJy1waCcsICc3LjAnLCAnLXRuJywgJzgnLCAnLW1hJywgJzIwMCcsICctbWV0YWxfYmluZGluZycsICctaW1hZScsICc8aW5maWxlLm1hZT4nLCAnLW9tYWUnLCAnPG91dGZpbGUubWFlPic=

> <r_lp_tautomer_probability>
1

> <r_epik_Ionization_Penalty>
0.000100745

> <r_epik_Ionization_Penalty_Charging>
0

> <r_epik_Ionization_Penalty_Neutral>
0.000100745

> <r_epik_State_Penalty>
-0

> <r_epik_Charging_Adjusted_Penalty>
0

> <i_epik_Tot_Q>
0

> <i_epik_Tot_abs_Q>
0

> <r_epik_Metal_State_Penalty>
-0

> <b_epik_Metal_Only>
0

> <s_lp_Force_Field>
OPLS_2005

> <r_lp_Energy>
18.5112

> <b_lp_Chiralities_Consistent>
1

> <s_lp_Variant>
AV-unprocessed.smi:2111-1

> <Gold.Version>
5.8.1

> <Gold.Id.Protein>
6NUR|6NUR_protein|mol2

> <Gold.PLP.Fitness>
41.8994

> <Gold.PLP.PLP>
-33.6330

> <Gold.PLP.part.hbond>
-2.0000

> <Gold.PLP.part.metal>
0.0000

> <Gold.PLP.part.buried>
-4.1500

> <Gold.PLP.part.nonpolar>
-28.4992

> <Gold.PLP.part.repulsive>
1.6577

> <Gold.PLP.ligand.clash>
0.0000

> <Gold.PLP.ligand.torsion>
0.3845

> <Gold.PLP.Chemscore.Hbond>
2.0000

> <Gold.PLP.Chemscore.CHOScore>
1.0000

> <Gold.PLP.Chemscore.Metal>
0.0000

> <Gold.Chemscore.Hbonds>
donor molecule, donor type, donor heavy atom, donor atom, acceptor molecule, acceptor atom, score
      L1  H     9    22       P1  8028  1.00
      L1  H    12    23       P1  8028  1.00
      L1  C     5    19       P1  7948  1.00

> <Gold.PLP.Chemscore.Internal.Correction>
0.0354

> <Gold.Rescore>
     Score         DG    S(hbond)    S(metal)    S(lipo)     H(rot)  DE(clash)    DE(int)     intcor
     12.91     -17.07       1.88        0.00      72.76       1.25       0.02       4.13       ----

> <Gold.Chemscore.Fitness>
12.9127

> <Gold.Chemscore.DG>
-17.0659

> <Gold.Chemscore.ZeroCoef>
-5.4800

> <Gold.Chemscore.Hbond>
1.8777

> <Gold.Chemscore.Metal>
0.0000

> <Gold.Chemscore.Lipo>
72.7598

> <Gold.Chemscore.Internal_Hbond>
0.0000

> <Gold.Chemscore.DEClash>
0.0200

> <Gold.Chemscore.DEInternal>
4.1332

> <Gold.Chemscore.Rot>
1.2495

> <Gold.Chemscore.Internal.Correction>
   9.000000E+99

> <Gold.Chemscore.Hbonds>
donor molecule, donor type, donor heavy atom, donor atom, acceptor molecule, acceptor atom, score
      L1  H     9    22       P1  8028  0.99
      L1  H    12    23       P1  8028  0.43

> <Gold.Chemscore.Hbond.Weighted>
-6.2716

> <Gold.Chemscore.Metal.Weighted>
-0.0000

> <Gold.Chemscore.Lipo.Weighted>
-8.5129

> <Gold.Chemscore.Internal_Hbond.Weighted>
0.0000

> <Gold.Chemscore.DEClash.Weighted>
0.0200

> <Gold.Chemscore.DEInternal.Weighted>
4.1332

> <Gold.Chemscore.Rot.Weighted>
3.1986

> <Gold.Chemscore.Internal.Correction.Weighted>
   9.000000E+99

> <Gold.Protein.RotatedTorsions>
[ 6907 6896 6895 6894 ] final   86.15 input  -60.11 | X-H torsion
[ 7974 7965 7964 7962 ] final  -37.16 input  175.53 | X-H torsion
[ 8008 7997 7996 7995 ] final  167.83 input   59.86 | X-H torsion
[ 10167 10162 10161 10158 ] final  103.55 input  -65.29 | X-H torsion
[ 10718 10713 10712 10709 ] final  -76.86 input   66.30 | X-H torsion
[ 10763 10752 10751 10750 ] final  -93.75 input  -60.55 | X-H torsion
[ 11005 11000 10999 10996 ] final  160.31 input  -57.11 | X-H torsion

> <Gold.Protein.ActiveResidues>
 VAL166  LYS551  ARG553  GLY616  TRP617  ASP618  TYR619  PRO620  LYS621  CYS622 
 ASP623  PHE694  ASN695  SER759  ASP760  ASP761  ALA762  ILE779  LEU786  VAL792 
 PHE793  MET794  SER795  GLU796  ALA797  LYS798  CYS799  TRP800  GLU811  SER814 

> <Gold.Protein.RotatedAtoms>
  152.5389  134.2476  159.8886 H   0  0  0  0  0  0  0  0  0  0  0  0  # atno 6907 bound_to 6896
  151.2441  133.4377  159.2616 H   0  0  0  0  0  0  0  0  0  0  0  0  # atno 6908 bound_to 6896
  151.0600  134.9744  159.8311 H   0  0  0  0  0  0  0  0  0  0  0  0  # atno 6909 bound_to 6896
  146.0599  140.6364  142.9002 H   0  0  0  0  0  0  0  0  0  0  0  0  # atno 7974 bound_to 7965
  156.1599  140.1606  156.8629 H   0  0  0  0  0  0  0  0  0  0  0  0  # atno 8008 bound_to 7997
  154.5151  140.0791  156.8101 H   0  0  0  0  0  0  0  0  0  0  0  0  # atno 8009 bound_to 7997
  155.3727  140.3401  155.4246 H   0  0  0  0  0  0  0  0  0  0  0  0  # atno 8010 bound_to 7997
  139.7253  144.7049  151.0807 H   0  0  0  0  0  0  0  0  0  0  0  0  # atno 10167 bound_to 10162
  156.0162  130.4476  150.3257 H   0  0  0  0  0  0  0  0  0  0  0  0  # atno 10718 bound_to 10713
  154.6989  135.5183  153.8498 H   0  0  0  0  0  0  0  0  0  0  0  0  # atno 10763 bound_to 10752
  153.0689  135.6594  154.0302 H   0  0  0  0  0  0  0  0  0  0  0  0  # atno 10764 bound_to 10752
  154.0164  135.2997  155.3366 H   0  0  0  0  0  0  0  0  0  0  0  0  # atno 10765 bound_to 10752
  140.2047  134.8312  157.3056 H   0  0  0  0  0  0  0  0  0  0  0  0  # atno 11005 bound_to 11000
  144.7169  140.4240  143.7038 LP  0  0  0  0  0  0  0  0  0  0  0  0  # atno 17320 bound_to 7965
  145.6579  139.1576  143.2825 LP  0  0  0  0  0  0  0  0  0  0  0  0  # atno 17321 bound_to 7965
  140.7761  143.5113  150.9650 LP  0  0  0  0  0  0  0  0  0  0  0  0  # atno 17342 bound_to 10162
  139.8800  143.7084  152.3158 LP  0  0  0  0  0  0  0  0  0  0  0  0  # atno 17343 bound_to 10162
  157.1356  131.0283  151.2950 LP  0  0  0  0  0  0  0  0  0  0  0  0  # atno 17370 bound_to 10713
  157.4514  130.7600  149.7155 LP  0  0  0  0  0  0  0  0  0  0  0  0  # atno 17371 bound_to 10713
  140.2016  134.4248  155.7660 LP  0  0  0  0  0  0  0  0  0  0  0  0  # atno 17394 bound_to 11000
  141.2227  133.7074  156.8192 LP  0  0  0  0  0  0  0  0  0  0  0  0  # atno 17395 bound_to 11000

$$$$
