AV-unprocessed.smi:610|AV-procd|sdf|3057|dock7
  -GOLD-   2262023583D 1   1.00000     0.00000
 Structure written by MMmdl.
 38 39  0  0  0  0  0  0  0  0  2 V2000
  146.7832  135.3808  156.0391 C   0  0  0  0  0  0  0  0  0  0  0  0
  146.1332  135.6602  154.6776 C   0  0  2  0  0  0  0  0  0  0  0  0
  146.0949  134.3873  153.8039 C   0  0  0  0  0  0  0  0  0  0  0  0
  145.2461  134.5305  152.6162 N   0  0  0  0  0  0  0  0  0  0  0  0
  145.5158  135.2546  151.4828 C   0  0  0  0  0  0  0  0  0  0  0  0
  144.4295  135.1098  150.6591 C   0  0  0  0  0  0  0  0  0  0  0  0
  143.5472  134.2980  151.3204 N   0  3  0  0  0  0  0  0  0  0  0  0
  144.0477  133.9425  152.5079 C   0  0  0  0  0  0  0  0  0  0  0  0
  146.8724  136.7314  154.0111 N   0  0  0  0  0  0  0  0  0  0  0  0
  146.5318  138.0329  153.9882 C   0  0  0  0  0  0  0  0  0  0  0  0
  145.5306  138.4597  154.5659 O   0  0  0  0  0  0  0  0  0  0  0  0
  147.4246  139.0104  153.1824 C   0  0  0  0  0  0  0  0  0  0  0  0
  147.5147  138.6364  151.7766 N   0  0  0  0  0  0  0  0  0  0  0  0
  146.8924  140.4660  153.2846 C   0  0  0  0  0  0  0  0  0  0  0  0
  148.0021  141.3063  153.9282 C   0  0  0  0  0  0  0  0  0  0  0  0
  148.8841  140.3059  154.6669 C   0  0  0  0  0  0  0  0  0  0  0  0
  148.8528  139.0657  153.7749 C   0  0  0  0  0  0  0  0  0  0  0  0
  146.2394  134.6070  156.5819 H   0  0  0  0  0  0  0  0  0  0  0  0
  146.7891  136.2757  156.6626 H   0  0  0  0  0  0  0  0  0  0  0  0
  147.8150  135.0458  155.9269 H   0  0  0  0  0  0  0  0  0  0  0  0
  145.1100  135.9862  154.8729 H   0  0  0  0  0  0  0  0  0  0  0  0
  147.0979  134.1144  153.4728 H   0  0  0  0  0  0  0  0  0  0  0  0
  145.7114  133.5427  154.3782 H   0  0  0  0  0  0  0  0  0  0  0  0
  146.4321  135.8122  151.3542 H   0  0  0  0  0  0  0  0  0  0  0  0
  144.2235  135.5132  149.6785 H   0  0  0  0  0  0  0  0  0  0  0  0
  143.5717  133.3152  153.2404 H   0  0  0  0  0  0  0  0  0  0  0  0
  147.7157  136.4669  153.5216 H   0  0  0  0  0  0  0  0  0  0  0  0
  148.0935  139.3051  151.2893 H   0  0  0  0  0  0  0  0  0  0  0  0
  147.9867  137.7469  151.6997 H   0  0  0  0  0  0  0  0  0  0  0  0
  146.6105  140.8853  152.3173 H   0  0  0  0  0  0  0  0  0  0  0  0
  145.9971  140.5229  153.9065 H   0  0  0  0  0  0  0  0  0  0  0  0
  148.5864  141.7960  153.1479 H   0  0  0  0  0  0  0  0  0  0  0  0
  147.6113  142.0843  154.5845 H   0  0  0  0  0  0  0  0  0  0  0  0
  149.8952  140.6790  154.8316 H   0  0  0  0  0  0  0  0  0  0  0  0
  148.4501  140.0769  155.6409 H   0  0  0  0  0  0  0  0  0  0  0  0
  149.1272  138.1671  154.3301 H   0  0  0  0  0  0  0  0  0  0  0  0
  149.5983  139.1830  152.9861 H   0  0  0  0  0  0  0  0  0  0  0  0
  142.6443  134.0087  150.9651 H   0  0  0  0  0  0  0  0  0  0  0  0
  1  2  1  0  0  0  0
  1 18  1  0  0  0  0
  1 19  1  0  0  0  0
  1 20  1  0  0  0  0
  2  3  1  0  0  0  0
  2  9  1  0  0  0  0
  2 21  1  0  0  0  0
  3  4  1  0  0  0  0
  3 22  1  0  0  0  0
  3 23  1  0  0  0  0
  4  8  1  0  0  0  0
  4  5  1  0  0  0  0
  5  6  2  0  0  0  0
  5 24  1  0  0  0  0
  6  7  1  0  0  0  0
  6 25  1  0  0  0  0
  7  8  2  0  0  0  0
  7 38  1  0  0  0  0
  8 26  1  0  0  0  0
  9 10  1  0  0  0  0
  9 27  1  0  0  0  0
 10 11  2  0  0  0  0
 10 12  1  0  0  0  0
 12 17  1  0  0  0  0
 12 13  1  0  0  0  0
 12 14  1  0  0  0  0
 13 28  1  0  0  0  0
 13 29  1  0  0  0  0
 14 15  1  0  0  0  0
 14 30  1  0  0  0  0
 14 31  1  0  0  0  0
 15 16  1  0  0  0  0
 15 32  1  0  0  0  0
 15 33  1  0  0  0  0
 16 17  1  0  0  0  0
 16 34  1  0  0  0  0
 16 35  1  0  0  0  0
 17 36  1  0  0  0  0
 17 37  1  0  0  0  0
M  CHG  1   7   1
M  END
> <s_m_source_file>
AV-unprocessed.smi

> <i_m_source_file_index>
610

> <i_lp_mmshare_version>
43012

> <i_f3d_flags>
0

> <s_epik_input>
W2NIXTFuW2NIXVtjSF1uMVtDSDJdW0NAQEhdKFtDSDNdKVtOSF1DKD1PKUMyKFtOSDJdKVtDSDJdW0NIMl1bQ0gyXVtDSDJdMg==

> <s_epik_cmdline>
J2VwaWtfcHl0aG9uJywgJy1waCcsICc3LjAnLCAnLXRuJywgJzgnLCAnLW1hJywgJzIwMCcsICctbWV0YWxfYmluZGluZycsICctaW1hZScsICc8aW5maWxlLm1hZT4nLCAnLW9tYWUnLCAnPG91dGZpbGUubWFlPic=

> <r_epik_Ionization_Penalty>
1.50287

> <r_epik_Ionization_Penalty_Charging>
0

> <r_epik_Ionization_Penalty_Neutral>
1.50287

> <r_epik_State_Penalty>
1.57152

> <r_epik_Charging_Adjusted_Penalty>
1.57152

> <i_epik_Tot_Q>
1

> <i_epik_Tot_abs_Q>
1

> <r_epik_Metal_State_Penalty>
1.8522

> <b_epik_Metal_Only>
0

> <s_lp_Force_Field>
OPLS_2005

> <r_lp_Energy>
22.5232

> <b_lp_Chiralities_Consistent>
1

> <s_lp_Variant>
AV-unprocessed.smi:610-5

> <Gold.Version>
5.8.1

> <Gold.Id.Protein>
6NUR|6NUR_protein|mol2

> <Gold.PLP.Fitness>
44.7355

> <Gold.PLP.PLP>
-24.9801

> <Gold.PLP.part.hbond>
-4.8018

> <Gold.PLP.part.metal>
0.0000

> <Gold.PLP.part.buried>
-1.0289

> <Gold.PLP.part.nonpolar>
-20.2848

> <Gold.PLP.part.repulsive>
0.0902

> <Gold.PLP.ligand.clash>
0.0000

> <Gold.PLP.ligand.torsion>
0.5173

> <Gold.PLP.Chemscore.Hbond>
4.9825

> <Gold.PLP.Chemscore.CHOScore>
1.9381

> <Gold.PLP.Chemscore.Metal>
0.0000

> <Gold.Chemscore.Hbonds>
donor molecule, donor type, donor heavy atom, donor atom, acceptor molecule, acceptor atom, score
      L1  H     7    38       P1 10186  1.09
      L1  H     9    27       P1  7948  0.86
      L1  H    13    28       P1  7957  0.98
      L1  H    13    29       P1  7948  1.00
      L1  C     5    24       P1  7948  0.91
      L1  C     8    26       P1 10957  1.00

> <Gold.PLP.Chemscore.Internal.Correction>
0.0282

> <Gold.Rescore>
     Score         DG    S(hbond)    S(metal)    S(lipo)     H(rot)  DE(clash)    DE(int)     intcor
     18.08     -18.62       3.82        0.00      47.45       2.02       0.05       0.49       ----

> <Gold.Chemscore.Fitness>
18.0821

> <Gold.Chemscore.DG>
-18.6229

> <Gold.Chemscore.ZeroCoef>
-5.4800

> <Gold.Chemscore.Hbond>
3.8174

> <Gold.Chemscore.Metal>
0.0000

> <Gold.Chemscore.Lipo>
47.4511

> <Gold.Chemscore.Internal_Hbond>
0.0000

> <Gold.Chemscore.DEClash>
0.0516

> <Gold.Chemscore.DEInternal>
0.4892

> <Gold.Chemscore.Rot>
2.0152

> <Gold.Chemscore.Internal.Correction>
   9.000000E+99

> <Gold.Chemscore.Hbonds>
donor molecule, donor type, donor heavy atom, donor atom, acceptor molecule, acceptor atom, score
      L1  H     7    38       P1 10186  0.27
      L1  H     9    27       P1  7948  0.83
      L1  H    13    28       P1  7957  0.73
      L1  H    13    29       P1  7948  1.00

> <Gold.Chemscore.Hbond.Weighted>
-12.7500

> <Gold.Chemscore.Metal.Weighted>
-0.0000

> <Gold.Chemscore.Lipo.Weighted>
-5.5518

> <Gold.Chemscore.Internal_Hbond.Weighted>
0.0000

> <Gold.Chemscore.DEClash.Weighted>
0.0516

> <Gold.Chemscore.DEInternal.Weighted>
0.4892

> <Gold.Chemscore.Rot.Weighted>
5.1589

> <Gold.Chemscore.Internal.Correction.Weighted>
   9.000000E+99

> <Gold.Protein.RotatedTorsions>
[ 6907 6896 6895 6894 ] final -157.79 input  -60.11 | X-H torsion
[ 7974 7965 7964 7962 ] final -135.35 input  175.53 | X-H torsion
[ 8008 7997 7996 7995 ] final -134.07 input   59.86 | X-H torsion
[ 10167 10162 10161 10158 ] final   45.30 input  -65.29 | X-H torsion
[ 10718 10713 10712 10709 ] final  154.92 input   66.30 | X-H torsion
[ 10763 10752 10751 10750 ] final  -35.65 input  -60.55 | X-H torsion
[ 11005 11000 10999 10996 ] final   -0.98 input  -57.11 | X-H torsion

> <Gold.Protein.ActiveResidues>
 VAL166  LYS551  ARG553  GLY616  TRP617  ASP618  TYR619  PRO620  LYS621  CYS622 
 ASP623  PHE694  ASN695  SER759  ASP760  ASP761  ALA762  ILE779  LEU786  VAL792 
 PHE793  MET794  SER795  GLU796  ALA797  LYS798  CYS799  TRP800  GLU811  SER814 

> <Gold.Protein.RotatedAtoms>
  151.3082  133.4092  159.2644 H   0  0  0  0  0  0  0  0  0  0  0  0  # atno 6907 bound_to 6896
  151.0137  134.9417  159.8031 H   0  0  0  0  0  0  0  0  0  0  0  0  # atno 6908 bound_to 6896
  152.5307  134.3046  159.9143 H   0  0  0  0  0  0  0  0  0  0  0  0  # atno 6909 bound_to 6896
  144.9022  140.6786  143.5078 H   0  0  0  0  0  0  0  0  0  0  0  0  # atno 7974 bound_to 7965
  155.3560  140.0480  157.3046 H   0  0  0  0  0  0  0  0  0  0  0  0  # atno 8008 bound_to 7997
  154.5202  140.2222  155.8953 H   0  0  0  0  0  0  0  0  0  0  0  0  # atno 8009 bound_to 7997
  156.1681  140.3102  155.8931 H   0  0  0  0  0  0  0  0  0  0  0  0  # atno 8010 bound_to 7997
  140.3256  144.2652  150.6176 H   0  0  0  0  0  0  0  0  0  0  0  0  # atno 10167 bound_to 10162
  157.2252  131.0727  151.1887 H   0  0  0  0  0  0  0  0  0  0  0  0  # atno 10718 bound_to 10713
  153.8667  135.6835  153.4778 H   0  0  0  0  0  0  0  0  0  0  0  0  # atno 10763 bound_to 10752
  153.1310  135.4698  154.9347 H   0  0  0  0  0  0  0  0  0  0  0  0  # atno 10764 bound_to 10752
  154.7733  135.3245  154.8094 H   0  0  0  0  0  0  0  0  0  0  0  0  # atno 10765 bound_to 10752
  140.6423  133.9478  155.8333 H   0  0  0  0  0  0  0  0  0  0  0  0  # atno 11005 bound_to 11000
  145.3597  139.1685  143.4390 LP  0  0  0  0  0  0  0  0  0  0  0  0  # atno 17320 bound_to 7965
  146.3114  140.3658  142.8669 LP  0  0  0  0  0  0  0  0  0  0  0  0  # atno 17321 bound_to 7965
  140.5444  143.2217  151.8031 LP  0  0  0  0  0  0  0  0  0  0  0  0  # atno 17342 bound_to 10162
  139.4866  144.4558  151.9600 LP  0  0  0  0  0  0  0  0  0  0  0  0  # atno 17343 bound_to 10162
  157.3535  130.7094  149.6455 LP  0  0  0  0  0  0  0  0  0  0  0  0  # atno 17370 bound_to 10713
  155.9679  130.4246  150.4615 LP  0  0  0  0  0  0  0  0  0  0  0  0  # atno 17371 bound_to 10713
  141.0598  134.0363  157.3674 LP  0  0  0  0  0  0  0  0  0  0  0  0  # atno 17394 bound_to 11000
  139.9076  135.0183  156.7552 LP  0  0  0  0  0  0  0  0  0  0  0  0  # atno 17395 bound_to 11000

$$$$
