AV-unprocessed.smi:1131|AV-procd|sdf|4851|dock3
  -GOLD-   22720 3423D 1   1.00000     0.00000
 Structure written by MMmdl.
 33 34  0  0  0  0  0  0  0  0  1 V2000
  149.6975  141.2782  157.7017 O   0  0  0  0  0  0  0  0  0  0  0  0
  150.3619  141.9899  156.9467 C   0  0  0  0  0  0  0  0  0  0  0  0
  150.3918  141.7298  155.4335 C   0  0  0  0  0  0  0  0  0  0  0  0
  150.9233  140.4055  155.0788 N   0  0  0  0  0  0  0  0  0  0  0  0
  152.1486  139.9874  155.5780 C   0  0  0  0  0  0  0  0  0  0  0  0
  152.7006  138.7851  155.2893 C   0  0  0  0  0  0  0  0  0  0  0  0
  152.0088  137.8464  154.4124 C   0  0  0  0  0  0  0  0  0  0  0  0
  152.4246  136.7342  154.0952 O   0  0  0  0  0  0  0  0  0  0  0  0
  150.7813  138.3049  153.9271 N   0  0  0  0  0  0  0  0  0  0  0  0
  150.2081  139.5438  154.2186 C   0  0  0  0  0  0  0  0  0  0  0  0
  149.1206  139.8517  153.7323 O   0  0  0  0  0  0  0  0  0  0  0  0
  151.0832  143.0357  157.3741 N   0  0  0  0  0  0  0  0  0  0  0  0
  151.1857  143.4566  158.7649 C   0  0  0  0  0  0  0  0  0  0  0  0
  152.4397  142.8627  159.4273 C   0  0  1  0  0  0  0  0  0  0  0  0
  152.4833  143.0328  160.9316 C   0  0  0  0  0  0  0  0  0  0  0  0
  153.5258  141.9935  161.3310 C   0  0  0  0  0  0  0  0  0  0  0  0
  153.3866  140.9289  160.3949 O   0  0  0  0  0  0  0  0  0  0  0  0
  152.5778  141.3441  159.2975 C   0  0  0  0  0  0  0  0  0  0  0  0
  150.2675  137.6903  153.3128 H   0  0  0  0  0  0  0  0  0  0  0  0
  149.3768  141.8415  155.0492 H   0  0  0  0  0  0  0  0  0  0  0  0
  150.9720  142.5133  154.9419 H   0  0  0  0  0  0  0  0  0  0  0  0
  152.6981  140.6519  156.2295 H   0  0  0  0  0  0  0  0  0  0  0  0
  153.6592  138.5167  155.7091 H   0  0  0  0  0  0  0  0  0  0  0  0
  151.5990  143.5717  156.6913 H   0  0  0  0  0  0  0  0  0  0  0  0
  151.2256  144.5460  158.8140 H   0  0  0  0  0  0  0  0  0  0  0  0
  150.2874  143.1452  159.3005 H   0  0  0  0  0  0  0  0  0  0  0  0
  153.3294  143.3322  159.0036 H   0  0  0  0  0  0  0  0  0  0  0  0
  152.7508  144.0431  161.2423 H   0  0  0  0  0  0  0  0  0  0  0  0
  151.5175  142.7827  161.3735 H   0  0  0  0  0  0  0  0  0  0  0  0
  154.5301  142.4085  161.2369 H   0  0  0  0  0  0  0  0  0  0  0  0
  153.3978  141.6447  162.3561 H   0  0  0  0  0  0  0  0  0  0  0  0
  151.6057  140.8576  159.3861 H   0  0  0  0  0  0  0  0  0  0  0  0
  153.0181  141.0458  158.3459 H   0  0  0  0  0  0  0  0  0  0  0  0
  1  2  2  0  0  0  0
  2  3  1  0  0  0  0
  2 12  1  0  0  0  0
  3  4  1  0  0  0  0
  3 20  1  0  0  0  0
  3 21  1  0  0  0  0
  4 10  1  0  0  0  0
  4  5  1  0  0  0  0
  5  6  2  0  0  0  0
  5 22  1  0  0  0  0
  6  7  1  0  0  0  0
  6 23  1  0  0  0  0
  7  8  2  0  0  0  0
  7  9  1  0  0  0  0
  9 19  1  0  0  0  0
  9 10  1  0  0  0  0
 10 11  2  0  0  0  0
 12 13  1  0  0  0  0
 12 24  1  0  0  0  0
 13 14  1  0  0  0  0
 13 25  1  0  0  0  0
 13 26  1  0  0  0  0
 14 18  1  0  0  0  0
 14 15  1  0  0  0  0
 14 27  1  0  0  0  0
 15 16  1  0  0  0  0
 15 28  1  0  0  0  0
 15 29  1  0  0  0  0
 16 17  1  0  0  0  0
 16 30  1  0  0  0  0
 16 31  1  0  0  0  0
 17 18  1  0  0  0  0
 18 32  1  0  0  0  0
 18 33  1  0  0  0  0
M  END
> <s_m_source_file>
AV-unprocessed.smi

> <i_m_source_file_index>
1131

> <i_lp_mmshare_version>
43012

> <i_f3d_flags>
0

> <s_epik_input>
W0NIMl0xT1tDSDJdW0NIMl1bQ0BIXTFbQ0gyXVtOSF1DKD1PKVtDSDJdbjJbY0hdW2NIXWMoPU8pW25IXWMyPU8=

> <s_epik_cmdline>
J2VwaWtfcHl0aG9uJywgJy1waCcsICc3LjAnLCAnLXRuJywgJzgnLCAnLW1hJywgJzIwMCcsICctbWV0YWxfYmluZGluZycsICctaW1hZScsICc8aW5maWxlLm1hZT4nLCAnLW9tYWUnLCAnPG91dGZpbGUubWFlPic=

> <r_lp_tautomer_probability>
0.999537

> <r_epik_Ionization_Penalty>
0.00329016

> <r_epik_Ionization_Penalty_Charging>
0.00329014

> <r_epik_Ionization_Penalty_Neutral>
1.87063e-08

> <r_epik_State_Penalty>
0.00232461

> <r_epik_Charging_Adjusted_Penalty>
0.00561475

> <i_epik_Tot_Q>
0

> <i_epik_Tot_abs_Q>
0

> <r_epik_Metal_State_Penalty>
0.365289

> <b_epik_Metal_Only>
0

> <s_lp_Force_Field>
OPLS_2005

> <r_lp_Energy>
18.0195

> <b_lp_Chiralities_Consistent>
1

> <s_lp_Variant>
AV-unprocessed.smi:1131-2

> <Gold.Version>
5.8.1

> <Gold.Id.Protein>
6NUR|6NUR_protein|mol2

> <Gold.PLP.Fitness>
40.5310

> <Gold.PLP.PLP>
-36.8606

> <Gold.PLP.part.hbond>
-1.7507

> <Gold.PLP.part.metal>
0.0000

> <Gold.PLP.part.buried>
-4.6647

> <Gold.PLP.part.nonpolar>
-32.9284

> <Gold.PLP.part.repulsive>
2.4493

> <Gold.PLP.ligand.clash>
0.0000

> <Gold.PLP.ligand.torsion>
0.2808

> <Gold.PLP.Chemscore.Hbond>
1.4062

> <Gold.PLP.Chemscore.CHOScore>
0.0000

> <Gold.PLP.Chemscore.Metal>
0.0000

> <Gold.Chemscore.Hbonds>
donor molecule, donor type, donor heavy atom, donor atom, acceptor molecule, acceptor atom, score
      L1  H     9    19       P1  7948  0.09
      P1  H 10752 10765       L1     8  0.13

> <Gold.PLP.Chemscore.Internal.Correction>
0.0134

> <Gold.Rescore>
     Score         DG    S(hbond)    S(metal)    S(lipo)     H(rot)  DE(clash)    DE(int)     intcor
     13.10     -15.11       1.90        0.00      73.74       2.09       1.61       0.39       ----

> <Gold.Chemscore.Fitness>
13.1027

> <Gold.Chemscore.DG>
-15.1078

> <Gold.Chemscore.ZeroCoef>
-5.4800

> <Gold.Chemscore.Hbond>
1.9027

> <Gold.Chemscore.Metal>
0.0000

> <Gold.Chemscore.Lipo>
73.7426

> <Gold.Chemscore.Internal_Hbond>
0.0000

> <Gold.Chemscore.DEClash>
1.6112

> <Gold.Chemscore.DEInternal>
0.3939

> <Gold.Chemscore.Rot>
2.0919

> <Gold.Chemscore.Internal.Correction>
   9.000000E+99

> <Gold.Chemscore.Hbonds>
donor molecule, donor type, donor heavy atom, donor atom, acceptor molecule, acceptor atom, score
      L1  H     9    19       P1  7948  0.02
      P1  H 10752 10765       L1     8  0.15

> <Gold.Chemscore.Hbond.Weighted>
-6.3552

> <Gold.Chemscore.Metal.Weighted>
-0.0000

> <Gold.Chemscore.Lipo.Weighted>
-8.6279

> <Gold.Chemscore.Internal_Hbond.Weighted>
0.0000

> <Gold.Chemscore.DEClash.Weighted>
1.6112

> <Gold.Chemscore.DEInternal.Weighted>
0.3939

> <Gold.Chemscore.Rot.Weighted>
5.3552

> <Gold.Chemscore.Internal.Correction.Weighted>
   9.000000E+99

> <Gold.Protein.RotatedTorsions>
[ 6907 6896 6895 6894 ] final  -23.96 input  -60.11 | X-H torsion
[ 7974 7965 7964 7962 ] final  -79.45 input  175.53 | X-H torsion
[ 8008 7997 7996 7995 ] final  -41.21 input   59.86 | X-H torsion
[ 10167 10162 10161 10158 ] final   32.10 input  -65.29 | X-H torsion
[ 10718 10713 10712 10709 ] final  168.73 input   66.30 | X-H torsion
[ 10763 10752 10751 10750 ] final  142.62 input  -60.55 | X-H torsion
[ 11005 11000 10999 10996 ] final  -44.42 input  -57.11 | X-H torsion

> <Gold.Protein.ActiveResidues>
 VAL166  LYS551  ARG553  GLY616  TRP617  ASP618  TYR619  PRO620  LYS621  CYS622 
 ASP623  PHE694  ASN695  SER759  ASP760  ASP761  ALA762  ILE779  LEU786  VAL792 
 PHE793  MET794  SER795  GLU796  ALA797  LYS798  CYS799  TRP800  GLU811  SER814 

> <Gold.Protein.RotatedAtoms>
  151.1964  135.0424  159.8853 H   0  0  0  0  0  0  0  0  0  0  0  0  # atno 6907 bound_to 6896
  152.5436  134.0898  159.8282 H   0  0  0  0  0  0  0  0  0  0  0  0  # atno 6908 bound_to 6896
  151.1033  133.5179  159.2641 H   0  0  0  0  0  0  0  0  0  0  0  0  # atno 6909 bound_to 6896
  145.5731  140.9462  143.1385 H   0  0  0  0  0  0  0  0  0  0  0  0  # atno 7974 bound_to 7965
  154.4006  140.1505  156.3154 H   0  0  0  0  0  0  0  0  0  0  0  0  # atno 8008 bound_to 7997
  155.8578  140.3455  155.5714 H   0  0  0  0  0  0  0  0  0  0  0  0  # atno 8009 bound_to 7997
  155.7914  140.0857  157.1997 H   0  0  0  0  0  0  0  0  0  0  0  0  # atno 8010 bound_to 7997
  140.4529  144.1022  150.6195 H   0  0  0  0  0  0  0  0  0  0  0  0  # atno 10167 bound_to 10162
  157.0329  131.0264  151.2739 H   0  0  0  0  0  0  0  0  0  0  0  0  # atno 10718 bound_to 10713
  153.9587  135.2962  155.3434 H   0  0  0  0  0  0  0  0  0  0  0  0  # atno 10763 bound_to 10752
  154.7386  135.5035  153.9087 H   0  0  0  0  0  0  0  0  0  0  0  0  # atno 10764 bound_to 10752
  153.0957  135.6720  153.9877 H   0  0  0  0  0  0  0  0  0  0  0  0  # atno 10765 bound_to 10752
  141.0449  133.6765  156.2871 H   0  0  0  0  0  0  0  0  0  0  0  0  # atno 11005 bound_to 11000
  144.7429  139.7400  143.7304 LP  0  0  0  0  0  0  0  0  0  0  0  0  # atno 17320 bound_to 7965
  146.1770  139.4945  142.9891 LP  0  0  0  0  0  0  0  0  0  0  0  0  # atno 17321 bound_to 7965
  140.4186  143.2622  151.9744 LP  0  0  0  0  0  0  0  0  0  0  0  0  # atno 17342 bound_to 10162
  139.4798  144.5851  151.7867 LP  0  0  0  0  0  0  0  0  0  0  0  0  # atno 17343 bound_to 10162
  157.5164  130.7970  149.7761 LP  0  0  0  0  0  0  0  0  0  0  0  0  # atno 17370 bound_to 10713
  156.0064  130.3854  150.2418 LP  0  0  0  0  0  0  0  0  0  0  0  0  # atno 17371 bound_to 10713
  140.6165  134.5406  157.5541 LP  0  0  0  0  0  0  0  0  0  0  0  0  # atno 17394 bound_to 11000
  139.9304  134.7974  156.0947 LP  0  0  0  0  0  0  0  0  0  0  0  0  # atno 17395 bound_to 11000

$$$$
