AV-unprocessed.smi:2247|AV-procd|sdf|9090|dock3
  -GOLD-   2272012293D 1   1.00000     0.00000
 Structure written by MMmdl.
 34 35  0  0  0  0  0  0  0  0  1 V2000
  152.5402  143.3720  161.7321 C   0  0  0  0  0  0  0  0  0  0  0  0
  152.4524  144.0706  160.3630 C   0  0  0  0  0  0  0  0  0  0  0  0
  151.3768  145.1681  160.3455 C   0  0  0  0  0  0  0  0  0  0  0  0
  152.2360  143.1246  159.2600 N   0  0  0  0  0  0  0  0  0  0  0  0
  152.2830  141.6834  159.4486 C   0  0  0  0  0  0  0  0  0  0  0  0
  151.6883  141.1067  158.1605 C   0  0  0  0  0  0  0  0  0  0  0  0
  151.8169  142.2154  157.1041 C   0  0  1  0  0  0  0  0  0  0  0  0
  150.6094  142.2664  156.2811 N   0  0  0  0  0  0  0  0  0  0  0  0
  150.2385  141.3442  155.3798 C   0  0  0  0  0  0  0  0  0  0  0  0
  150.9246  140.3403  155.1626 O   0  0  0  0  0  0  0  0  0  0  0  0
  149.0246  141.6976  154.8081 N   0  0  0  0  0  0  0  0  0  0  0  0
  148.3490  140.8197  154.1314 C   0  0  0  0  0  0  0  0  0  0  0  0
  148.5716  139.4791  153.8273 N   0  0  0  0  0  0  0  0  0  0  0  0
  147.5174  139.0299  153.0823 C   0  0  0  0  0  0  0  0  0  0  0  0
  146.6673  140.0396  152.9215 C   0  0  0  0  0  0  0  0  0  0  0  0
  147.1493  141.1474  153.5517 O   0  0  0  0  0  0  0  0  0  0  0  0
  151.9494  143.4535  157.9924 C   0  0  0  0  0  0  0  0  0  0  0  0
  151.8260  144.5999  157.5605 O   0  0  0  0  0  0  0  0  0  0  0  0
  152.7943  144.0869  162.5148 H   0  0  0  0  0  0  0  0  0  0  0  0
  153.3113  142.6010  161.7332 H   0  0  0  0  0  0  0  0  0  0  0  0
  151.5957  142.9054  162.0133 H   0  0  0  0  0  0  0  0  0  0  0  0
  153.4176  144.5540  160.2008 H   0  0  0  0  0  0  0  0  0  0  0  0
  151.5545  145.9024  161.1315 H   0  0  0  0  0  0  0  0  0  0  0  0
  150.3815  144.7498  160.4999 H   0  0  0  0  0  0  0  0  0  0  0  0
  151.3703  145.7019  159.3946 H   0  0  0  0  0  0  0  0  0  0  0  0
  153.3195  141.3663  159.5703 H   0  0  0  0  0  0  0  0  0  0  0  0
  151.7185  141.3692  160.3275 H   0  0  0  0  0  0  0  0  0  0  0  0
  152.1908  140.1886  157.8547 H   0  0  0  0  0  0  0  0  0  0  0  0
  150.6397  140.8574  158.3347 H   0  0  0  0  0  0  0  0  0  0  0  0
  152.7241  142.0884  156.5110 H   0  0  0  0  0  0  0  0  0  0  0  0
  150.0052  143.0649  156.4103 H   0  0  0  0  0  0  0  0  0  0  0  0
  149.3583  138.9017  154.0874 H   0  0  0  0  0  0  0  0  0  0  0  0
  147.4879  138.0067  152.7377 H   0  0  0  0  0  0  0  0  0  0  0  0
  145.7202  140.1260  152.4100 H   0  0  0  0  0  0  0  0  0  0  0  0
  1  2  1  0  0  0  0
  1 19  1  0  0  0  0
  1 20  1  0  0  0  0
  1 21  1  0  0  0  0
  2  3  1  0  0  0  0
  2  4  1  0  0  0  0
  2 22  1  0  0  0  0
  3 23  1  0  0  0  0
  3 24  1  0  0  0  0
  3 25  1  0  0  0  0
  4 17  1  0  0  0  0
  4  5  1  0  0  0  0
  5  6  1  0  0  0  0
  5 26  1  0  0  0  0
  5 27  1  0  0  0  0
  6  7  1  0  0  0  0
  6 28  1  0  0  0  0
  6 29  1  0  0  0  0
  7  8  1  0  0  0  0
  7 17  1  0  0  0  0
  7 30  1  0  0  0  0
  8 31  1  0  0  0  0
  8  9  1  0  0  0  0
  9 11  1  0  0  0  0
  9 10  2  0  0  0  0
 11 12  2  0  0  0  0
 12 16  1  0  0  0  0
 12 13  1  0  0  0  0
 13 32  1  0  0  0  0
 13 14  1  0  0  0  0
 14 33  1  0  0  0  0
 14 15  2  0  0  0  0
 15 34  1  0  0  0  0
 15 16  1  0  0  0  0
 17 18  2  0  0  0  0
M  END
> <s_m_source_file>
AV-unprocessed.smi

> <i_m_source_file_index>
2247

> <i_lp_mmshare_version>
43012

> <i_f3d_flags>
0

> <s_epik_input>
W0NIM11bQ0hdKFtDSDNdKU4xW0NIMl1bQ0gyXVtDQEhdKEMxPU8pW05IXUMoPU8pW05IXWMybltjSF1bY0hdbzI=

> <s_epik_cmdline>
J2VwaWtfcHl0aG9uJywgJy1waCcsICc3LjAnLCAnLXRuJywgJzgnLCAnLW1hJywgJzIwMCcsICctbWV0YWxfYmluZGluZycsICctaW1hZScsICc8aW5maWxlLm1hZT4nLCAnLW9tYWUnLCAnPG91dGZpbGUubWFlPic=

> <r_lp_tautomer_probability>
0.107061

> <r_epik_Ionization_Penalty>
0.180736

> <r_epik_Ionization_Penalty_Charging>
0.180388

> <r_epik_Ionization_Penalty_Neutral>
0.000348501

> <r_epik_State_Penalty>
2.44396

> <r_epik_Charging_Adjusted_Penalty>
2.62435

> <i_epik_Tot_Q>
0

> <i_epik_Tot_abs_Q>
0

> <r_epik_Metal_State_Penalty>
4.38331

> <b_epik_Metal_Only>
0

> <s_lp_Force_Field>
OPLS_2005

> <r_lp_Energy>
45.5374

> <b_lp_Chiralities_Consistent>
1

> <s_lp_Variant>
AV-unprocessed.smi:2247-5

> <Gold.Version>
5.8.1

> <Gold.Id.Protein>
6NUR|6NUR_protein|mol2

> <Gold.PLP.Fitness>
44.5954

> <Gold.PLP.PLP>
-33.7715

> <Gold.PLP.part.hbond>
-3.0000

> <Gold.PLP.part.metal>
0.0000

> <Gold.PLP.part.buried>
-2.5844

> <Gold.PLP.part.nonpolar>
-28.3466

> <Gold.PLP.part.repulsive>
0.7244

> <Gold.PLP.ligand.clash>
0.0000

> <Gold.PLP.ligand.torsion>
0.3354

> <Gold.PLP.Chemscore.Hbond>
1.8060

> <Gold.PLP.Chemscore.CHOScore>
2.0000

> <Gold.PLP.Chemscore.Metal>
0.0000

> <Gold.Chemscore.Hbonds>
donor molecule, donor type, donor heavy atom, donor atom, acceptor molecule, acceptor atom, score
      L1  H     8    31       P1  8028  0.75
      P1  H  7989  7998       L1    10  0.85
      L1  C    14    33       P1  7948  1.00
      L1  C    15    34       P1 10175  1.00

> <Gold.PLP.Chemscore.Internal.Correction>
0.0767

> <Gold.Rescore>
     Score         DG    S(hbond)    S(metal)    S(lipo)     H(rot)  DE(clash)    DE(int)     intcor
     12.17     -15.48       1.41        0.00      74.34       1.33       1.82       1.49       ----

> <Gold.Chemscore.Fitness>
12.1702

> <Gold.Chemscore.DG>
-15.4790

> <Gold.Chemscore.ZeroCoef>
-5.4800

> <Gold.Chemscore.Hbond>
1.4118

> <Gold.Chemscore.Metal>
0.0000

> <Gold.Chemscore.Lipo>
74.3417

> <Gold.Chemscore.Internal_Hbond>
0.0000

> <Gold.Chemscore.DEClash>
1.8195

> <Gold.Chemscore.DEInternal>
1.4893

> <Gold.Chemscore.Rot>
1.3338

> <Gold.Chemscore.Internal.Correction>
   9.000000E+99

> <Gold.Chemscore.Hbonds>
donor molecule, donor type, donor heavy atom, donor atom, acceptor molecule, acceptor atom, score
      L1  H     8    31       P1  8028  0.72
      P1  H  7989  7998       L1    10  0.14

> <Gold.Chemscore.Hbond.Weighted>
-4.7156

> <Gold.Chemscore.Metal.Weighted>
-0.0000

> <Gold.Chemscore.Lipo.Weighted>
-8.6980

> <Gold.Chemscore.Internal_Hbond.Weighted>
0.0000

> <Gold.Chemscore.DEClash.Weighted>
1.8195

> <Gold.Chemscore.DEInternal.Weighted>
1.4893

> <Gold.Chemscore.Rot.Weighted>
3.4145

> <Gold.Chemscore.Internal.Correction.Weighted>
   9.000000E+99

> <Gold.Protein.RotatedTorsions>
[ 6907 6896 6895 6894 ] final   23.36 input  -60.11 | X-H torsion
[ 7974 7965 7964 7962 ] final   21.03 input  175.53 | X-H torsion
[ 8008 7997 7996 7995 ] final   98.27 input   59.86 | X-H torsion
[ 10167 10162 10161 10158 ] final   80.68 input  -65.29 | X-H torsion
[ 10718 10713 10712 10709 ] final  -44.35 input   66.30 | X-H torsion
[ 10763 10752 10751 10750 ] final  117.44 input  -60.55 | X-H torsion
[ 11005 11000 10999 10996 ] final   70.17 input  -57.11 | X-H torsion

> <Gold.Protein.ActiveResidues>
 VAL166  LYS551  ARG553  GLY616  TRP617  ASP618  TYR619  PRO620  LYS621  CYS622 
 ASP623  PHE694  ASN695  SER759  ASP760  ASP761  ALA762  ILE779  LEU786  VAL792 
 PHE793  MET794  SER795  GLU796  ALA797  LYS798  CYS799  TRP800  GLU811  SER814 

> <Gold.Protein.RotatedAtoms>
  151.9411  135.0213  160.0535 H   0  0  0  0  0  0  0  0  0  0  0  0  # atno 6907 bound_to 6896
  152.2035  133.4854  159.5080 H   0  0  0  0  0  0  0  0  0  0  0  0  # atno 6908 bound_to 6896
  150.6960  134.1476  159.4171 H   0  0  0  0  0  0  0  0  0  0  0  0  # atno 6909 bound_to 6896
  146.2088  139.8086  142.8705 H   0  0  0  0  0  0  0  0  0  0  0  0  # atno 7974 bound_to 7965
  156.0987  140.3246  155.7912 H   0  0  0  0  0  0  0  0  0  0  0  0  # atno 8008 bound_to 7997
  155.4874  140.0559  157.2976 H   0  0  0  0  0  0  0  0  0  0  0  0  # atno 8009 bound_to 7997
  154.4683  140.1999  156.0077 H   0  0  0  0  0  0  0  0  0  0  0  0  # atno 8010 bound_to 7997
  139.9472  144.6050  150.8195 H   0  0  0  0  0  0  0  0  0  0  0  0  # atno 10167 bound_to 10162
  156.2394  130.4178  149.8778 H   0  0  0  0  0  0  0  0  0  0  0  0  # atno 10718 bound_to 10713
  153.5525  135.3537  155.2765 H   0  0  0  0  0  0  0  0  0  0  0  0  # atno 10763 bound_to 10752
  154.8705  135.4117  154.2921 H   0  0  0  0  0  0  0  0  0  0  0  0  # atno 10764 bound_to 10752
  153.3650  135.7061  153.6751 H   0  0  0  0  0  0  0  0  0  0  0  0  # atno 10765 bound_to 10752
  139.9612  134.7057  156.0641 H   0  0  0  0  0  0  0  0  0  0  0  0  # atno 11005 bound_to 11000
  145.3220  141.0246  143.3495 LP  0  0  0  0  0  0  0  0  0  0  0  0  # atno 17320 bound_to 7965
  144.8860  139.4839  143.6700 LP  0  0  0  0  0  0  0  0  0  0  0  0  # atno 17321 bound_to 7965
  140.7594  143.3127  151.2806 LP  0  0  0  0  0  0  0  0  0  0  0  0  # atno 17342 bound_to 10162
  139.6657  144.0109  152.2721 LP  0  0  0  0  0  0  0  0  0  0  0  0  # atno 17343 bound_to 10162
  156.6365  130.8687  151.3505 LP  0  0  0  0  0  0  0  0  0  0  0  0  # atno 17370 bound_to 10713
  157.7169  130.9508  150.1288 LP  0  0  0  0  0  0  0  0  0  0  0  0  # atno 17371 bound_to 10713
  141.1290  133.6591  156.3412 LP  0  0  0  0  0  0  0  0  0  0  0  0  # atno 17394 bound_to 11000
  140.5495  134.6041  157.5403 LP  0  0  0  0  0  0  0  0  0  0  0  0  # atno 17395 bound_to 11000

$$$$
