AV-unprocessed.smi:2859|AV-procd|sdf|11005|dock3
  -GOLD-   2272015463D 1   1.00000     0.00000
 Structure written by MMmdl.
 51 52  0  0  0  0  0  0  0  0  1 V2000
  153.1232  143.0923  160.2081 C   0  0  0  0  0  0  0  0  0  0  0  0
  152.0787  143.5760  159.1811 C   0  0  0  0  0  0  0  0  0  0  0  0
  150.9647  144.3668  159.8979 C   0  0  0  0  0  0  0  0  0  0  0  0
  152.7913  144.5475  158.2140 C   0  0  0  0  0  0  0  0  0  0  0  0
  151.4677  142.3659  158.4542 C   0  0  0  0  0  0  0  0  0  0  0  0
  150.4310  142.4700  157.4959 C   0  0  0  0  0  0  0  0  0  0  0  0
  149.9479  141.2650  156.9283 C   0  0  0  0  0  0  0  0  0  0  0  0
  148.9117  141.2323  155.9680 N   0  0  0  0  0  0  0  0  0  0  0  0
  149.2576  141.4267  154.5637 C   0  0  0  0  0  0  0  0  0  0  0  0
  148.0788  141.0316  153.6612 C   0  0  0  0  0  0  0  0  0  0  0  0
  146.9187  141.7578  154.0474 O   0  0  0  0  0  0  0  0  0  0  0  0
  146.5109  141.4530  155.3814 C   0  0  2  0  0  0  0  0  0  0  0  0
  145.2007  142.1961  155.6840 C   0  0  0  0  0  0  0  0  0  0  0  0
  144.1422  141.9121  154.9197 N   0  0  0  0  0  0  0  0  0  0  0  0
  145.1329  143.0068  156.6064 O   0  0  0  0  0  0  0  0  0  0  0  0
  147.6407  141.8400  156.3628 C   0  0  0  0  0  0  0  0  0  0  0  0
  150.4823  140.0785  157.2986 N   0  0  0  0  0  0  0  0  0  0  0  0
  151.4893  140.0740  158.1777 C   0  0  0  0  0  0  0  0  0  0  0  0
  151.9729  138.7077  158.6909 C   0  0  0  0  0  0  0  0  0  0  0  0
  152.6198  137.8875  157.5506 C   0  0  0  0  0  0  0  0  0  0  0  0
  150.7916  137.8574  159.2161 C   0  0  0  0  0  0  0  0  0  0  0  0
  152.9941  138.9189  159.8235 C   0  0  0  0  0  0  0  0  0  0  0  0
  151.9747  141.1580  158.7905 N   0  0  0  0  0  0  0  0  0  0  0  0
  153.5861  143.9309  160.7294 H   0  0  0  0  0  0  0  0  0  0  0  0
  153.9196  142.5260  159.7236 H   0  0  0  0  0  0  0  0  0  0  0  0
  152.6775  142.4489  160.9675 H   0  0  0  0  0  0  0  0  0  0  0  0
  150.4552  143.7604  160.6477 H   0  0  0  0  0  0  0  0  0  0  0  0
  150.2107  144.7157  159.1913 H   0  0  0  0  0  0  0  0  0  0  0  0
  151.3647  145.2417  160.4113 H   0  0  0  0  0  0  0  0  0  0  0  0
  153.2174  145.3966  158.7498 H   0  0  0  0  0  0  0  0  0  0  0  0
  152.1035  144.9535  157.4710 H   0  0  0  0  0  0  0  0  0  0  0  0
  153.6114  144.0604  157.6850 H   0  0  0  0  0  0  0  0  0  0  0  0
  150.0131  143.4256  157.2242 H   0  0  0  0  0  0  0  0  0  0  0  0
  149.5245  142.4713  154.3986 H   0  0  0  0  0  0  0  0  0  0  0  0
  150.1219  140.8173  154.2976 H   0  0  0  0  0  0  0  0  0  0  0  0
  148.3101  141.2594  152.6208 H   0  0  0  0  0  0  0  0  0  0  0  0
  147.8868  139.9588  153.7170 H   0  0  0  0  0  0  0  0  0  0  0  0
  146.3060  140.3835  155.4575 H   0  0  0  0  0  0  0  0  0  0  0  0
  143.2610  142.3733  155.0949 H   0  0  0  0  0  0  0  0  0  0  0  0
  144.2250  141.2320  154.1783 H   0  0  0  0  0  0  0  0  0  0  0  0
  147.3532  141.5291  157.3674 H   0  0  0  0  0  0  0  0  0  0  0  0
  147.7678  142.9233  156.3885 H   0  0  0  0  0  0  0  0  0  0  0  0
  152.9215  136.8977  157.8953 H   0  0  0  0  0  0  0  0  0  0  0  0
  153.5152  138.3695  157.1570 H   0  0  0  0  0  0  0  0  0  0  0  0
  151.9275  137.7484  156.7194 H   0  0  0  0  0  0  0  0  0  0  0  0
  150.0321  137.7134  158.4467 H   0  0  0  0  0  0  0  0  0  0  0  0
  150.3071  138.3191  160.0774 H   0  0  0  0  0  0  0  0  0  0  0  0
  151.1249  136.8696  159.5361 H   0  0  0  0  0  0  0  0  0  0  0  0
  153.3606  137.9682  160.2116 H   0  0  0  0  0  0  0  0  0  0  0  0
  152.5526  139.4670  160.6567 H   0  0  0  0  0  0  0  0  0  0  0  0
  153.8575  139.4880  159.4770 H   0  0  0  0  0  0  0  0  0  0  0  0
  1  2  1  0  0  0  0
  1 24  1  0  0  0  0
  1 25  1  0  0  0  0
  1 26  1  0  0  0  0
  2  3  1  0  0  0  0
  2  4  1  0  0  0  0
  2  5  1  0  0  0  0
  3 27  1  0  0  0  0
  3 28  1  0  0  0  0
  3 29  1  0  0  0  0
  4 30  1  0  0  0  0
  4 31  1  0  0  0  0
  4 32  1  0  0  0  0
  5 23  1  0  0  0  0
  5  6  2  0  0  0  0
  6  7  1  0  0  0  0
  6 33  1  0  0  0  0
  7  8  1  0  0  0  0
  7 17  2  0  0  0  0
  8 16  1  0  0  0  0
  8  9  1  0  0  0  0
  9 10  1  0  0  0  0
  9 34  1  0  0  0  0
  9 35  1  0  0  0  0
 10 11  1  0  0  0  0
 10 36  1  0  0  0  0
 10 37  1  0  0  0  0
 11 12  1  0  0  0  0
 12 13  1  0  0  0  0
 12 16  1  0  0  0  0
 12 38  1  0  0  0  0
 13 14  1  0  0  0  0
 13 15  2  0  0  0  0
 14 39  1  0  0  0  0
 14 40  1  0  0  0  0
 16 41  1  0  0  0  0
 16 42  1  0  0  0  0
 17 18  1  0  0  0  0
 18 19  1  0  0  0  0
 18 23  2  0  0  0  0
 19 20  1  0  0  0  0
 19 21  1  0  0  0  0
 19 22  1  0  0  0  0
 20 43  1  0  0  0  0
 20 44  1  0  0  0  0
 20 45  1  0  0  0  0
 21 46  1  0  0  0  0
 21 47  1  0  0  0  0
 21 48  1  0  0  0  0
 22 49  1  0  0  0  0
 22 50  1  0  0  0  0
 22 51  1  0  0  0  0
M  END
> <s_m_source_file>
AV-unprocessed.smi

> <i_m_source_file_index>
2859

> <i_lp_mmshare_version>
43012

> <i_f3d_flags>
0

> <s_epik_input>
W0NIM11DKFtDSDNdKShbQ0gzXSljMVtjSF1jKG5jKG4xKUMoW0NIM10pKFtDSDNdKVtDSDNdKU4yW0NIMl1bQ0gyXU9bQ0BIXShbQ0gyXTIpQyg9TylbTkgyXQ==

> <s_epik_cmdline>
J2VwaWtfcHl0aG9uJywgJy1waCcsICc3LjAnLCAnLXRuJywgJzgnLCAnLW1hJywgJzIwMCcsICctbWV0YWxfYmluZGluZycsICctaW1hZScsICc8aW5maWxlLm1hZT4nLCAnLW9tYWUnLCAnPG91dGZpbGUubWFlPic=

> <r_lp_tautomer_probability>
1

> <r_epik_Ionization_Penalty>
0.0011326

> <r_epik_Ionization_Penalty_Charging>
0

> <r_epik_Ionization_Penalty_Neutral>
0.0011326

> <r_epik_State_Penalty>
0.000721507

> <r_epik_Charging_Adjusted_Penalty>
0.000721507

> <i_epik_Tot_Q>
0

> <i_epik_Tot_abs_Q>
0

> <r_epik_Metal_State_Penalty>
-0

> <b_epik_Metal_Only>
0

> <s_lp_Force_Field>
OPLS_2005

> <r_lp_Energy>
9.68103

> <b_lp_Chiralities_Consistent>
1

> <s_lp_Variant>
AV-unprocessed.smi:2859-2

> <Gold.Version>
5.8.1

> <Gold.Id.Protein>
6NUR|6NUR_protein|mol2

> <Gold.PLP.Fitness>
41.4882

> <Gold.PLP.PLP>
-38.8204

> <Gold.PLP.part.hbond>
-1.0000

> <Gold.PLP.part.metal>
0.0000

> <Gold.PLP.part.buried>
-4.9986

> <Gold.PLP.part.nonpolar>
-33.7057

> <Gold.PLP.part.repulsive>
0.3285

> <Gold.PLP.ligand.clash>
0.0000

> <Gold.PLP.ligand.torsion>
0.4793

> <Gold.PLP.Chemscore.Hbond>
1.0000

> <Gold.PLP.Chemscore.CHOScore>
0.0000

> <Gold.PLP.Chemscore.Metal>
0.0000

> <Gold.Chemscore.Hbonds>
donor molecule, donor type, donor heavy atom, donor atom, acceptor molecule, acceptor atom, score
      L1  H    14    40       P1 10175  1.00

> <Gold.PLP.Chemscore.Internal.Correction>
0.6264

> <Gold.Rescore>
     Score         DG    S(hbond)    S(metal)    S(lipo)     H(rot)  DE(clash)    DE(int)     intcor
     15.75     -16.18       0.88        0.00     106.38       1.83       0.09       0.34       ----

> <Gold.Chemscore.Fitness>
15.7510

> <Gold.Chemscore.DG>
-16.1757

> <Gold.Chemscore.ZeroCoef>
-5.4800

> <Gold.Chemscore.Hbond>
0.8804

> <Gold.Chemscore.Metal>
0.0000

> <Gold.Chemscore.Lipo>
106.3762

> <Gold.Chemscore.Internal_Hbond>
0.0000

> <Gold.Chemscore.DEClash>
0.0853

> <Gold.Chemscore.DEInternal>
0.3394

> <Gold.Chemscore.Rot>
1.8323

> <Gold.Chemscore.Internal.Correction>
   9.000000E+99

> <Gold.Chemscore.Hbonds>
donor molecule, donor type, donor heavy atom, donor atom, acceptor molecule, acceptor atom, score
      L1  H    14    40       P1 10175  0.57

> <Gold.Chemscore.Hbond.Weighted>
-2.9404

> <Gold.Chemscore.Metal.Weighted>
-0.0000

> <Gold.Chemscore.Lipo.Weighted>
-12.4460

> <Gold.Chemscore.Internal_Hbond.Weighted>
0.0000

> <Gold.Chemscore.DEClash.Weighted>
0.0853

> <Gold.Chemscore.DEInternal.Weighted>
0.3394

> <Gold.Chemscore.Rot.Weighted>
4.6907

> <Gold.Chemscore.Internal.Correction.Weighted>
   9.000000E+99

> <Gold.Protein.RotatedTorsions>
[ 6907 6896 6895 6894 ] final  149.36 input  -60.11 | X-H torsion
[ 7974 7965 7964 7962 ] final -167.07 input  175.53 | X-H torsion
[ 8008 7997 7996 7995 ] final  -63.02 input   59.86 | X-H torsion
[ 10167 10162 10161 10158 ] final   67.22 input  -65.29 | X-H torsion
[ 10718 10713 10712 10709 ] final  108.88 input   66.30 | X-H torsion
[ 10763 10752 10751 10750 ] final   91.11 input  -60.55 | X-H torsion
[ 11005 11000 10999 10996 ] final  150.54 input  -57.11 | X-H torsion

> <Gold.Protein.ActiveResidues>
 VAL166  LYS551  ARG553  GLY616  TRP617  ASP618  TYR619  PRO620  LYS621  CYS622 
 ASP623  PHE694  ASN695  SER759  ASP760  ASP761  ALA762  ILE779  LEU786  VAL792 
 PHE793  MET794  SER795  GLU796  ALA797  LYS798  CYS799  TRP800  GLU811  SER814 

> <Gold.Protein.RotatedAtoms>
  152.1290  133.4397  159.4711 H   0  0  0  0  0  0  0  0  0  0  0  0  # atno 6907 bound_to 6896
  150.6877  134.2443  159.4494 H   0  0  0  0  0  0  0  0  0  0  0  0  # atno 6908 bound_to 6896
  152.0325  134.9759  160.0623 H   0  0  0  0  0  0  0  0  0  0  0  0  # atno 6909 bound_to 6896
  144.7231  140.2573  143.6270 H   0  0  0  0  0  0  0  0  0  0  0  0  # atno 7974 bound_to 7965
  154.4531  140.0984  156.6677 H   0  0  0  0  0  0  0  0  0  0  0  0  # atno 8008 bound_to 7997
  155.5222  140.3479  155.4391 H   0  0  0  0  0  0  0  0  0  0  0  0  # atno 8009 bound_to 7997
  156.0722  140.1352  156.9803 H   0  0  0  0  0  0  0  0  0  0  0  0  # atno 8010 bound_to 7997
  140.0919  144.4981  150.7093 H   0  0  0  0  0  0  0  0  0  0  0  0  # atno 10167 bound_to 10162
  157.6566  131.0902  150.6371 H   0  0  0  0  0  0  0  0  0  0  0  0  # atno 10718 bound_to 10713
  153.2048  135.4409  155.0309 H   0  0  0  0  0  0  0  0  0  0  0  0  # atno 10763 bound_to 10752
  154.8167  135.3318  154.7158 H   0  0  0  0  0  0  0  0  0  0  0  0  # atno 10764 bound_to 10752
  153.7600  135.6992  153.4983 H   0  0  0  0  0  0  0  0  0  0  0  0  # atno 10765 bound_to 10752
  140.1140  134.8906  157.1977 H   0  0  0  0  0  0  0  0  0  0  0  0  # atno 11005 bound_to 11000
  145.8170  139.2027  143.1960 LP  0  0  0  0  0  0  0  0  0  0  0  0  # atno 17320 bound_to 7965
  146.0547  140.8033  142.9764 LP  0  0  0  0  0  0  0  0  0  0  0  0  # atno 17321 bound_to 7965
  140.7024  143.2444  151.4825 LP  0  0  0  0  0  0  0  0  0  0  0  0  # atno 17342 bound_to 10162
  139.5720  144.1906  152.1850 LP  0  0  0  0  0  0  0  0  0  0  0  0  # atno 17343 bound_to 10162
  156.6677  130.4530  149.5667 LP  0  0  0  0  0  0  0  0  0  0  0  0  # atno 17370 bound_to 10713
  156.2020  130.6626  151.1178 LP  0  0  0  0  0  0  0  0  0  0  0  0  # atno 17371 bound_to 10713
  140.3053  134.3085  155.7279 LP  0  0  0  0  0  0  0  0  0  0  0  0  # atno 17394 bound_to 11000
  141.2137  133.7617  156.9700 LP  0  0  0  0  0  0  0  0  0  0  0  0  # atno 17395 bound_to 11000

$$$$
