AV-unprocessed.smi:169|AV-procd|sdf|1400|dock5
  -GOLD-   2262019143D 1   1.00000     0.00000
 Structure written by MMmdl.
 56 60  0  0  0  0  0  0  0  0  2 V2000
  145.9596  134.1238  151.5618 C   0  0  0  0  0  0  0  0  0  0  0  0
  145.7721  134.8407  152.9109 C   0  0  0  0  0  0  0  0  0  0  0  0
  146.9903  134.8581  153.7615 N   0  3  2  0  0  0  0  0  0  0  0  0
  147.6094  133.4998  153.9566 C   0  0  0  0  0  0  0  0  0  0  0  0
  149.1703  133.5040  154.0944 C   0  0  0  0  0  0  0  0  0  0  0  0
  149.8699  134.4362  155.1391 C   0  0  2  0  0  0  0  0  0  0  0  0
  149.6684  134.1048  156.6540 C   0  0  0  0  0  0  0  0  0  0  0  0
  148.6125  135.1432  157.1589 C   0  0  0  0  0  0  0  0  0  0  0  0
  148.1368  135.7386  155.8263 C   0  0  3  0  0  0  0  0  0  0  0  0
  146.8240  135.6885  155.0099 C   0  0  0  0  0  0  0  0  0  0  0  0
  149.3294  135.7808  154.9932 N   0  0  0  0  0  0  0  0  0  0  0  0
  150.1189  136.8795  155.1540 C   0  0  0  0  0  0  0  0  0  0  0  0
  151.4721  136.7605  155.0924 N   0  0  0  0  0  0  0  0  0  0  0  0
  152.2582  137.8263  155.2639 C   0  0  0  0  0  0  0  0  0  0  0  0
  151.9068  139.0908  155.4982 N   0  0  0  0  0  0  0  0  0  0  0  0
  150.5516  139.2275  155.5442 C   0  0  0  0  0  0  0  0  0  0  0  0
  149.5940  138.1847  155.3862 C   0  0  0  0  0  0  0  0  0  0  0  0
  148.3113  138.7084  155.4955 N   0  0  0  0  0  0  0  0  0  0  0  0
  148.4998  139.9811  155.7130 C   0  0  0  0  0  0  0  0  0  0  0  0
  149.8156  140.3838  155.7439 N   0  0  0  0  0  0  0  0  0  0  0  0
  150.3099  141.7348  155.9718 C   0  0  0  0  0  0  0  0  0  0  0  0
  151.0464  141.9294  157.3156 C   0  0  0  0  0  0  0  0  0  0  0  0
  151.5269  143.3823  157.4636 C   0  0  0  0  0  0  0  0  0  0  0  0
  150.4417  144.2563  157.6984 O   0  0  0  0  0  0  0  0  0  0  0  0
  150.3411  141.3481  158.5504 C   0  0  0  0  0  0  0  0  0  0  0  0
  151.2392  140.2208  158.6127 O   0  0  0  0  0  0  0  0  0  0  0  0
  152.0932  140.8538  157.6370 C   0  0  0  0  0  0  0  0  0  0  0  0
  145.0380  134.1635  150.9806 H   0  0  0  0  0  0  0  0  0  0  0  0
  146.2132  133.0719  151.6887 H   0  0  0  0  0  0  0  0  0  0  0  0
  146.7405  134.5887  150.9601 H   0  0  0  0  0  0  0  0  0  0  0  0
  145.4578  135.8696  152.7325 H   0  0  0  0  0  0  0  0  0  0  0  0
  144.9578  134.3724  153.4654 H   0  0  0  0  0  0  0  0  0  0  0  0
  147.1434  132.9934  154.8035 H   0  0  0  0  0  0  0  0  0  0  0  0
  147.3734  132.8796  153.0905 H   0  0  0  0  0  0  0  0  0  0  0  0
  149.5051  132.4807  154.2666 H   0  0  0  0  0  0  0  0  0  0  0  0
  149.5723  133.7699  153.1160 H   0  0  0  0  0  0  0  0  0  0  0  0
  150.9360  134.3932  154.9163 H   0  0  0  0  0  0  0  0  0  0  0  0
  149.3273  133.0779  156.7901 H   0  0  0  0  0  0  0  0  0  0  0  0
  150.6007  134.2187  157.2082 H   0  0  0  0  0  0  0  0  0  0  0  0
  147.8304  134.7077  157.7888 H   0  0  0  0  0  0  0  0  0  0  0  0
  149.1066  135.9162  157.7490 H   0  0  0  0  0  0  0  0  0  0  0  0
  147.7750  134.7245  155.8648 H   0  0  0  0  0  0  0  0  0  0  0  0
  146.5685  136.7002  154.6959 H   0  0  0  0  0  0  0  0  0  0  0  0
  145.9778  135.3500  155.6151 H   0  0  0  0  0  0  0  0  0  0  0  0
  153.3206  137.6398  155.2048 H   0  0  0  0  0  0  0  0  0  0  0  0
  147.6757  140.6636  155.8604 H   0  0  0  0  0  0  0  0  0  0  0  0
  150.9720  141.9849  155.1416 H   0  0  0  0  0  0  0  0  0  0  0  0
  149.4706  142.4259  155.8870 H   0  0  0  0  0  0  0  0  0  0  0  0
  152.2567  143.4880  158.2659 H   0  0  0  0  0  0  0  0  0  0  0  0
  152.0286  143.7168  156.5552 H   0  0  0  0  0  0  0  0  0  0  0  0
  149.9229  144.3116  156.9104 H   0  0  0  0  0  0  0  0  0  0  0  0
  150.4169  141.9738  159.4411 H   0  0  0  0  0  0  0  0  0  0  0  0
  149.3094  141.0419  158.3840 H   0  0  0  0  0  0  0  0  0  0  0  0
  152.3273  140.1977  156.7977 H   0  0  0  0  0  0  0  0  0  0  0  0
  153.0061  141.2431  158.0904 H   0  0  0  0  0  0  0  0  0  0  0  0
  147.6703  135.3622  153.2102 H   0  0  0  0  0  0  0  0  0  0  0  0
  1  2  1  0  0  0  0
  1 28  1  0  0  0  0
  1 29  1  0  0  0  0
  1 30  1  0  0  0  0
  2  3  1  0  0  0  0
  2 31  1  0  0  0  0
  2 32  1  0  0  0  0
  3 10  1  0  0  0  0
  3  4  1  0  0  0  0
  3 56  1  0  0  0  0
  4  5  1  0  0  0  0
  4 33  1  0  0  0  0
  4 34  1  0  0  0  0
  5  6  1  0  0  0  0
  5 35  1  0  0  0  0
  5 36  1  0  0  0  0
  6 11  1  0  0  0  0
  6  7  1  0  0  0  0
  6 37  1  0  0  0  0
  7  8  1  0  0  0  0
  7 38  1  0  0  0  0
  7 39  1  0  0  0  0
  8  9  1  0  0  0  0
  8 40  1  0  0  0  0
  8 41  1  0  0  0  0
  9 10  1  0  0  0  0
  9 11  1  0  0  0  0
  9 42  1  0  0  0  0
 10 43  1  0  0  0  0
 10 44  1  0  0  0  0
 11 12  1  0  0  0  0
 12 17  1  0  0  0  0
 12 13  2  0  0  0  0
 13 14  1  0  0  0  0
 14 15  2  0  0  0  0
 14 45  1  0  0  0  0
 15 16  1  0  0  0  0
 16 20  1  0  0  0  0
 16 17  2  0  0  0  0
 17 18  1  0  0  0  0
 18 19  2  0  0  0  0
 19 20  1  0  0  0  0
 19 46  1  0  0  0  0
 20 21  1  0  0  0  0
 21 22  1  0  0  0  0
 21 47  1  0  0  0  0
 21 48  1  0  0  0  0
 22 27  1  0  0  0  0
 22 23  1  0  0  0  0
 22 25  1  0  0  0  0
 23 24  1  0  0  0  0
 23 49  1  0  0  0  0
 23 50  1  0  0  0  0
 24 51  1  0  0  0  0
 25 26  1  0  0  0  0
 25 52  1  0  0  0  0
 25 53  1  0  0  0  0
 26 27  1  0  0  0  0
 27 54  1  0  0  0  0
 27 55  1  0  0  0  0
M  CHG  1   3   1
M  END
> <s_m_source_file>
AV-unprocessed.smi

> <i_m_source_file_index>
169

> <i_lp_mmshare_version>
43012

> <i_f3d_flags>
0

> <s_epik_input>
W0NASF0xMltDSDJdW0NIMl1OKFtDSDJdW0NIM10pW0NIMl1bQ0BIXShbQ0gyXVtDSDJdMSlOMmMobltjSF1uMyljKGMzNCluW2NIXW40W0NIMl1DNShbQ0gyXVtPSF0pW0NIMl1PW0NIMl01

> <s_epik_cmdline>
J2VwaWtfcHl0aG9uJywgJy1waCcsICc3LjAnLCAnLXRuJywgJzgnLCAnLW1hJywgJzIwMCcsICctbWV0YWxfYmluZGluZycsICctaW1hZScsICc8aW5maWxlLm1hZT4nLCAnLW9tYWUnLCAnPG91dGZpbGUubWFlPic=

> <r_lp_tautomer_probability>
1

> <r_epik_Ionization_Penalty>
0.00274162

> <r_epik_Ionization_Penalty_Charging>
0.00243722

> <r_epik_Ionization_Penalty_Neutral>
0.000304399

> <r_epik_State_Penalty>
-0

> <r_epik_Charging_Adjusted_Penalty>
0.00243722

> <i_epik_Tot_Q>
1

> <i_epik_Tot_abs_Q>
1

> <r_epik_Metal_State_Penalty>
-0

> <b_epik_Metal_Only>
0

> <s_lp_Force_Field>
OPLS_2005

> <r_lp_Energy>
131.332

> <b_lp_Chiralities_Consistent>
1

> <s_lp_Variant>
AV-unprocessed.smi:169-3

> <Gold.Version>
5.8.1

> <Gold.Id.Protein>
6NUR|6NUR_protein|mol2

> <Gold.PLP.Fitness>
45.1246

> <Gold.PLP.PLP>
-34.5068

> <Gold.PLP.part.hbond>
-3.8023

> <Gold.PLP.part.metal>
0.0000

> <Gold.PLP.part.buried>
-5.6065

> <Gold.PLP.part.nonpolar>
-26.5076

> <Gold.PLP.part.repulsive>
1.1699

> <Gold.PLP.ligand.clash>
0.0000

> <Gold.PLP.ligand.torsion>
0.9056

> <Gold.PLP.Chemscore.Hbond>
4.0000

> <Gold.PLP.Chemscore.CHOScore>
0.0000

> <Gold.PLP.Chemscore.Metal>
0.0000

> <Gold.Chemscore.Hbonds>
donor molecule, donor type, donor heavy atom, donor atom, acceptor molecule, acceptor atom, score
      L1  H     3    56       P1  7948  1.95
      L1  H    24    51       P1  8028  1.00
      P1  H 10752 10765       L1    13  0.65

> <Gold.PLP.Chemscore.Internal.Correction>
0.4290

> <Gold.Rescore>
     Score         DG    S(hbond)    S(metal)    S(lipo)     H(rot)  DE(clash)    DE(int)     intcor
     14.00     -16.42       2.47        0.00      80.40       2.62       0.47       1.95       ----

> <Gold.Chemscore.Fitness>
14.0020

> <Gold.Chemscore.DG>
-16.4237

> <Gold.Chemscore.ZeroCoef>
-5.4800

> <Gold.Chemscore.Hbond>
2.4692

> <Gold.Chemscore.Metal>
0.0000

> <Gold.Chemscore.Lipo>
80.3996

> <Gold.Chemscore.Internal_Hbond>
0.0000

> <Gold.Chemscore.DEClash>
0.4686

> <Gold.Chemscore.DEInternal>
1.9530

> <Gold.Chemscore.Rot>
2.6212

> <Gold.Chemscore.Internal.Correction>
   9.000000E+99

> <Gold.Chemscore.Hbonds>
donor molecule, donor type, donor heavy atom, donor atom, acceptor molecule, acceptor atom, score
      L1  H     3    56       P1  7948  0.91
      L1  H    24    51       P1  8028  0.78
      P1  H 10752 10765       L1    13  0.05

> <Gold.Chemscore.Hbond.Weighted>
-8.2471

> <Gold.Chemscore.Metal.Weighted>
-0.0000

> <Gold.Chemscore.Lipo.Weighted>
-9.4068

> <Gold.Chemscore.Internal_Hbond.Weighted>
0.0000

> <Gold.Chemscore.DEClash.Weighted>
0.4686

> <Gold.Chemscore.DEInternal.Weighted>
1.9530

> <Gold.Chemscore.Rot.Weighted>
6.7102

> <Gold.Chemscore.Internal.Correction.Weighted>
   9.000000E+99

> <Gold.Protein.RotatedTorsions>
[ 6907 6896 6895 6894 ] final -105.29 input  -60.11 | X-H torsion
[ 7974 7965 7964 7962 ] final -121.96 input  175.53 | X-H torsion
[ 8008 7997 7996 7995 ] final  -81.87 input   59.86 | X-H torsion
[ 10167 10162 10161 10158 ] final -138.73 input  -65.29 | X-H torsion
[ 10718 10713 10712 10709 ] final   58.71 input   66.30 | X-H torsion
[ 10763 10752 10751 10750 ] final  161.50 input  -60.55 | X-H torsion
[ 11005 11000 10999 10996 ] final  136.89 input  -57.11 | X-H torsion

> <Gold.Protein.ActiveResidues>
 VAL166  LYS551  ARG553  GLY616  TRP617  ASP618  TYR619  PRO620  LYS621  CYS622 
 ASP623  PHE694  ASN695  SER759  ASP760  ASP761  ALA762  ILE779  LEU786  VAL792 
 PHE793  MET794  SER795  GLU796  ALA797  LYS798  CYS799  TRP800  GLU811  SER814 

> <Gold.Protein.RotatedAtoms>
  150.7329  134.0149  159.3681 H   0  0  0  0  0  0  0  0  0  0  0  0  # atno 6907 bound_to 6896
  151.8111  135.0678  160.0422 H   0  0  0  0  0  0  0  0  0  0  0  0  # atno 6908 bound_to 6896
  152.3072  133.5679  159.5693 H   0  0  0  0  0  0  0  0  0  0  0  0  # atno 6909 bound_to 6896
  145.0347  140.8096  143.4302 H   0  0  0  0  0  0  0  0  0  0  0  0  # atno 7974 bound_to 7965
  154.6027  140.0641  156.9390 H   0  0  0  0  0  0  0  0  0  0  0  0  # atno 8008 bound_to 7997
  155.2104  140.3322  155.4311 H   0  0  0  0  0  0  0  0  0  0  0  0  # atno 8009 bound_to 7997
  156.2328  140.1849  156.7181 H   0  0  0  0  0  0  0  0  0  0  0  0  # atno 8010 bound_to 7997
  139.8449  143.7274  152.2661 H   0  0  0  0  0  0  0  0  0  0  0  0  # atno 10167 bound_to 10162
  157.5618  130.8841  149.9123 H   0  0  0  0  0  0  0  0  0  0  0  0  # atno 10718 bound_to 10713
  154.2640  135.2767  155.2766 H   0  0  0  0  0  0  0  0  0  0  0  0  # atno 10763 bound_to 10752
  154.5360  135.5716  153.6802 H   0  0  0  0  0  0  0  0  0  0  0  0  # atno 10764 bound_to 10752
  152.9957  135.6239  154.2791 H   0  0  0  0  0  0  0  0  0  0  0  0  # atno 10765 bound_to 10752
  140.0077  134.9452  157.0209 H   0  0  0  0  0  0  0  0  0  0  0  0  # atno 11005 bound_to 11000
  145.1725  139.2396  143.5334 LP  0  0  0  0  0  0  0  0  0  0  0  0  # atno 17320 bound_to 7965
  146.3502  140.1480  142.8593 LP  0  0  0  0  0  0  0  0  0  0  0  0  # atno 17321 bound_to 7965
  139.7522  144.7531  151.0489 LP  0  0  0  0  0  0  0  0  0  0  0  0  # atno 17342 bound_to 10162
  140.7794  143.4846  150.9972 LP  0  0  0  0  0  0  0  0  0  0  0  0  # atno 17343 bound_to 10162
  156.0670  130.3691  150.0858 LP  0  0  0  0  0  0  0  0  0  0  0  0  # atno 17370 bound_to 10713
  156.9021  130.9623  151.3575 LP  0  0  0  0  0  0  0  0  0  0  0  0  # atno 17371 bound_to 10713
  140.4612  134.1482  155.7191 LP  0  0  0  0  0  0  0  0  0  0  0  0  # atno 17394 bound_to 11000
  141.1688  133.8649  157.1633 LP  0  0  0  0  0  0  0  0  0  0  0  0  # atno 17395 bound_to 11000

$$$$
