AV-unprocessed.smi:301|AV-procd|sdf|2270|dock8
  -GOLD-   2262022163D 1   1.00000     0.00000
 Structure written by MMmdl.
 32 33  0  0  0  0  0  0  0  0  1 V2000
  152.1180  144.7308  159.1398 C   0  0  0  0  0  0  0  0  0  0  0  0
  152.3764  143.2833  159.3830 C   0  0  0  0  0  0  0  0  0  0  0  0
  152.1557  142.3307  158.4737 N   0  0  0  0  0  0  0  0  0  0  0  0
  152.4674  141.0507  158.9453 C   0  0  0  0  0  0  0  0  0  0  0  0
  152.2781  139.8569  158.0542 C   0  0  0  0  0  0  0  0  0  0  0  0
  151.7994  140.2872  156.6645 C   0  0  0  0  0  0  0  0  0  0  0  0
  152.3871  139.8945  155.6559 O   0  0  0  0  0  0  0  0  0  0  0  0
  150.7245  141.0897  156.6232 N   0  0  0  0  0  0  0  0  0  0  0  0
  150.1016  141.5942  155.4048 C   0  0  0  0  0  0  0  0  0  0  0  0
  148.6003  141.2650  155.3578 C   0  0  2  0  0  0  0  0  0  0  0  0
  147.9063  141.7323  154.0829 C   0  0  0  0  0  0  0  0  0  0  0  0
  146.4553  141.7491  154.5137 C   0  0  0  0  0  0  0  0  0  0  0  0
  146.5391  142.1440  155.9900 C   0  0  0  0  0  0  0  0  0  0  0  0
  147.8980  141.9590  156.3811 O   0  0  0  0  0  0  0  0  0  0  0  0
  152.9433  141.0521  160.2337 C   0  0  0  0  0  0  0  0  0  0  0  0
  153.0022  142.6592  160.9041 S   0  0  0  0  0  0  0  0  0  0  0  0
  151.9175  144.9137  158.0836 H   0  0  0  0  0  0  0  0  0  0  0  0
  152.9857  145.3200  159.4368 H   0  0  0  0  0  0  0  0  0  0  0  0
  151.2558  145.0570  159.7216 H   0  0  0  0  0  0  0  0  0  0  0  0
  153.2114  139.3039  157.9418 H   0  0  0  0  0  0  0  0  0  0  0  0
  151.5631  139.1635  158.4997 H   0  0  0  0  0  0  0  0  0  0  0  0
  150.2971  141.3581  157.4978 H   0  0  0  0  0  0  0  0  0  0  0  0
  150.2510  142.6735  155.3619 H   0  0  0  0  0  0  0  0  0  0  0  0
  150.6075  141.1770  154.5325 H   0  0  0  0  0  0  0  0  0  0  0  0
  148.4340  140.1936  155.4851 H   0  0  0  0  0  0  0  0  0  0  0  0
  148.2296  142.7398  153.8168 H   0  0  0  0  0  0  0  0  0  0  0  0
  148.0915  141.0759  153.2321 H   0  0  0  0  0  0  0  0  0  0  0  0
  145.8443  142.4333  153.9241 H   0  0  0  0  0  0  0  0  0  0  0  0
  146.0301  140.7488  154.4197 H   0  0  0  0  0  0  0  0  0  0  0  0
  146.2675  143.1896  156.1367 H   0  0  0  0  0  0  0  0  0  0  0  0
  145.8753  141.5331  156.6026 H   0  0  0  0  0  0  0  0  0  0  0  0
  153.2571  140.2071  160.8284 H   0  0  0  0  0  0  0  0  0  0  0  0
  1  2  1  0  0  0  0
  1 17  1  0  0  0  0
  1 18  1  0  0  0  0
  1 19  1  0  0  0  0
  2 16  1  0  0  0  0
  2  3  2  0  0  0  0
  3  4  1  0  0  0  0
  4  5  1  0  0  0  0
  4 15  2  0  0  0  0
  5  6  1  0  0  0  0
  5 20  1  0  0  0  0
  5 21  1  0  0  0  0
  6  7  2  0  0  0  0
  6  8  1  0  0  0  0
  8  9  1  0  0  0  0
  8 22  1  0  0  0  0
  9 10  1  0  0  0  0
  9 23  1  0  0  0  0
  9 24  1  0  0  0  0
 10 14  1  0  0  0  0
 10 11  1  0  0  0  0
 10 25  1  0  0  0  0
 11 12  1  0  0  0  0
 11 26  1  0  0  0  0
 11 27  1  0  0  0  0
 12 13  1  0  0  0  0
 12 28  1  0  0  0  0
 12 29  1  0  0  0  0
 13 14  1  0  0  0  0
 13 30  1  0  0  0  0
 13 31  1  0  0  0  0
 15 16  1  0  0  0  0
 15 32  1  0  0  0  0
M  END
> <s_m_source_file>
AV-unprocessed.smi

> <i_m_source_file_index>
301

> <i_lp_mmshare_version>
43012

> <i_f3d_flags>
0

> <s_epik_input>
W0NIM11jMW5jKFtjSF1zMSlbQ0gyXUMoPU8pW05IXVtDSDJdW0NAQEhdMltDSDJdW0NIMl1bQ0gyXU8y

> <s_epik_cmdline>
J2VwaWtfcHl0aG9uJywgJy1waCcsICc3LjAnLCAnLXRuJywgJzgnLCAnLW1hJywgJzIwMCcsICctbWV0YWxfYmluZGluZycsICctaW1hZScsICc8aW5maWxlLm1hZT4nLCAnLW9tYWUnLCAnPG91dGZpbGUubWFlPic=

> <r_lp_tautomer_probability>
1

> <r_epik_Ionization_Penalty>
6.06873e-05

> <r_epik_Ionization_Penalty_Charging>
0

> <r_epik_Ionization_Penalty_Neutral>
6.06873e-05

> <r_epik_State_Penalty>
-0

> <r_epik_Charging_Adjusted_Penalty>
0

> <i_epik_Tot_Q>
0

> <i_epik_Tot_abs_Q>
0

> <r_epik_Metal_State_Penalty>
-0

> <b_epik_Metal_Only>
0

> <s_lp_Force_Field>
OPLS_2005

> <r_lp_Energy>
15.97

> <b_lp_Chiralities_Consistent>
1

> <s_lp_Variant>
AV-unprocessed.smi:301-1

> <Gold.Version>
5.8.1

> <Gold.Id.Protein>
6NUR|6NUR_protein|mol2

> <Gold.PLP.Fitness>
37.4837

> <Gold.PLP.PLP>
-33.8732

> <Gold.PLP.part.hbond>
-2.0000

> <Gold.PLP.part.metal>
0.0000

> <Gold.PLP.part.buried>
-1.9948

> <Gold.PLP.part.nonpolar>
-28.7833

> <Gold.PLP.part.repulsive>
0.9803

> <Gold.PLP.ligand.clash>
0.0000

> <Gold.PLP.ligand.torsion>
0.0986

> <Gold.PLP.Chemscore.Hbond>
1.2650

> <Gold.PLP.Chemscore.CHOScore>
0.0000

> <Gold.PLP.Chemscore.Metal>
0.0000

> <Gold.Chemscore.Hbonds>
donor molecule, donor type, donor heavy atom, donor atom, acceptor molecule, acceptor atom, score
      P1  H  7997  8010       L1     7  0.94

> <Gold.PLP.Chemscore.Internal.Correction>
0.0126

> <Gold.Rescore>
     Score         DG    S(hbond)    S(metal)    S(lipo)     H(rot)  DE(clash)    DE(int)     intcor
     15.72     -15.99       0.95        0.00      95.82       1.51       0.21       0.06       ----

> <Gold.Chemscore.Fitness>
15.7182

> <Gold.Chemscore.DG>
-15.9878

> <Gold.Chemscore.ZeroCoef>
-5.4800

> <Gold.Chemscore.Hbond>
0.9474

> <Gold.Chemscore.Metal>
0.0000

> <Gold.Chemscore.Lipo>
95.8168

> <Gold.Chemscore.Internal_Hbond>
0.0000

> <Gold.Chemscore.DEClash>
0.2097

> <Gold.Chemscore.DEInternal>
0.0599

> <Gold.Chemscore.Rot>
1.5106

> <Gold.Chemscore.Internal.Correction>
   9.000000E+99

> <Gold.Chemscore.Hbonds>
donor molecule, donor type, donor heavy atom, donor atom, acceptor molecule, acceptor atom, score
      P1  H  7989  7998       L1     7  0.02
      P1  H  7997  8010       L1     7  0.45

> <Gold.Chemscore.Hbond.Weighted>
-3.1643

> <Gold.Chemscore.Metal.Weighted>
-0.0000

> <Gold.Chemscore.Lipo.Weighted>
-11.2106

> <Gold.Chemscore.Internal_Hbond.Weighted>
0.0000

> <Gold.Chemscore.DEClash.Weighted>
0.2097

> <Gold.Chemscore.DEInternal.Weighted>
0.0599

> <Gold.Chemscore.Rot.Weighted>
3.8670

> <Gold.Chemscore.Internal.Correction.Weighted>
   9.000000E+99

> <Gold.Protein.RotatedTorsions>
[ 6907 6896 6895 6894 ] final   78.44 input  -60.11 | X-H torsion
[ 7974 7965 7964 7962 ] final   56.33 input  175.53 | X-H torsion
[ 8008 7997 7996 7995 ] final   94.74 input   59.86 | X-H torsion
[ 10167 10162 10161 10158 ] final  -85.37 input  -65.29 | X-H torsion
[ 10718 10713 10712 10709 ] final  -18.05 input   66.30 | X-H torsion
[ 10763 10752 10751 10750 ] final  -60.38 input  -60.55 | X-H torsion
[ 11005 11000 10999 10996 ] final   29.85 input  -57.11 | X-H torsion

> <Gold.Protein.ActiveResidues>
 VAL166  LYS551  ARG553  GLY616  TRP617  ASP618  TYR619  PRO620  LYS621  CYS622 
 ASP623  PHE694  ASN695  SER759  ASP760  ASP761  ALA762  ILE779  LEU786  VAL792 
 PHE793  MET794  SER795  GLU796  ALA797  LYS798  CYS799  TRP800  GLU811  SER814 

> <Gold.Protein.RotatedAtoms>
  152.5159  134.3664  159.9302 H   0  0  0  0  0  0  0  0  0  0  0  0  # atno 6907 bound_to 6896
  151.3617  133.3881  159.2698 H   0  0  0  0  0  0  0  0  0  0  0  0  # atno 6908 bound_to 6896
  150.9647  134.9048  159.7810 H   0  0  0  0  0  0  0  0  0  0  0  0  # atno 6909 bound_to 6896
  145.9409  139.3887  143.0364 H   0  0  0  0  0  0  0  0  0  0  0  0  # atno 7974 bound_to 7965
  156.0612  140.3296  155.7464 H   0  0  0  0  0  0  0  0  0  0  0  0  # atno 8008 bound_to 7997
  155.5451  140.0605  157.2879 H   0  0  0  0  0  0  0  0  0  0  0  0  # atno 8009 bound_to 7997
  154.4482  140.1904  156.0618 H   0  0  0  0  0  0  0  0  0  0  0  0  # atno 8010 bound_to 7997
  140.4043  143.2649  151.9101 H   0  0  0  0  0  0  0  0  0  0  0  0  # atno 10167 bound_to 10162
  156.5650  130.4735  149.6389 H   0  0  0  0  0  0  0  0  0  0  0  0  # atno 10718 bound_to 10713
  154.2683  135.6295  153.5300 H   0  0  0  0  0  0  0  0  0  0  0  0  # atno 10763 bound_to 10752
  152.9884  135.5604  154.5629 H   0  0  0  0  0  0  0  0  0  0  0  0  # atno 10764 bound_to 10752
  154.5193  135.2881  155.1251 H   0  0  0  0  0  0  0  0  0  0  0  0  # atno 10765 bound_to 10752
  140.3006  134.2761  155.7755 H   0  0  0  0  0  0  0  0  0  0  0  0  # atno 11005 bound_to 11000
  145.8301  140.9635  143.0853 LP  0  0  0  0  0  0  0  0  0  0  0  0  # atno 17320 bound_to 7965
  144.6779  140.0151  143.7484 LP  0  0  0  0  0  0  0  0  0  0  0  0  # atno 17321 bound_to 7965
  139.4784  144.5601  151.8252 LP  0  0  0  0  0  0  0  0  0  0  0  0  # atno 17342 bound_to 10162
  140.4706  144.1592  150.5917 LP  0  0  0  0  0  0  0  0  0  0  0  0  # atno 17343 bound_to 10162
  156.2765  130.7046  151.1859 LP  0  0  0  0  0  0  0  0  0  0  0  0  # atno 17370 bound_to 10713
  157.7360  131.0566  150.5436 LP  0  0  0  0  0  0  0  0  0  0  0  0  # atno 17371 bound_to 10713
  141.2129  133.7644  156.9761 LP  0  0  0  0  0  0  0  0  0  0  0  0  # atno 17394 bound_to 11000
  140.1113  134.9475  157.2069 LP  0  0  0  0  0  0  0  0  0  0  0  0  # atno 17395 bound_to 11000

$$$$
