AV-unprocessed.smi:3161|AV-procd|sdf|12061|dock2
  -GOLD-   2272017493D 1   1.00000     0.00000
 Structure written by MMmdl.
 40 41  0  0  0  0  0  0  0  0  1 V2000
  147.1538  142.0180  154.0423 C   0  0  0  0  0  0  0  0  0  0  0  0
  148.3392  141.1762  154.4170 C   0  0  0  0  0  0  0  0  0  0  0  0
  148.4721  139.7612  154.3310 C   0  0  0  0  0  0  0  0  0  0  0  0
  149.6521  139.3289  154.7438 N   0  0  0  0  0  0  0  0  0  0  0  0
  150.3119  140.4479  155.1127 N   0  0  0  0  0  0  0  0  0  0  0  0
  151.6674  140.3569  155.6338 C   0  0  0  0  0  0  0  0  0  0  0  0
  151.7493  139.7454  157.0506 C   0  0  2  0  0  0  0  0  0  0  0  0
  152.0086  138.2257  157.0170 C   0  0  0  0  0  0  0  0  0  0  0  0
  150.5379  140.0801  157.8076 N   0  0  0  0  0  0  0  0  0  0  0  0
  150.1876  141.4991  157.8574 C   0  0  0  0  0  0  0  0  0  0  0  0
  151.3666  142.3400  158.3699 C   0  0  1  0  0  0  0  0  0  0  0  0
  151.0947  143.8569  158.2875 C   0  0  0  0  0  0  0  0  0  0  0  0
  152.2604  144.6465  158.8933 C   0  0  0  0  0  0  0  0  0  0  0  0
  152.5479  144.1381  160.3096 C   0  0  0  0  0  0  0  0  0  0  0  0
  152.7348  142.6126  160.3021 C   0  0  0  0  0  0  0  0  0  0  0  0
  151.5897  141.9849  159.7328 O   0  0  0  0  0  0  0  0  0  0  0  0
  149.5446  141.5773  154.9191 C   0  0  0  0  0  0  0  0  0  0  0  0
  146.3369  141.4152  153.6447 H   0  0  0  0  0  0  0  0  0  0  0  0
  147.4092  142.7552  153.2809 H   0  0  0  0  0  0  0  0  0  0  0  0
  146.7616  142.5640  154.9004 H   0  0  0  0  0  0  0  0  0  0  0  0
  147.7487  139.0393  153.9819 H   0  0  0  0  0  0  0  0  0  0  0  0
  152.2653  139.7623  154.9411 H   0  0  0  0  0  0  0  0  0  0  0  0
  152.1049  141.3562  155.6279 H   0  0  0  0  0  0  0  0  0  0  0  0
  152.6020  140.2118  157.5456 H   0  0  0  0  0  0  0  0  0  0  0  0
  152.8432  137.9907  156.3562 H   0  0  0  0  0  0  0  0  0  0  0  0
  151.1383  137.6746  156.6589 H   0  0  0  0  0  0  0  0  0  0  0  0
  152.2675  137.8372  158.0016 H   0  0  0  0  0  0  0  0  0  0  0  0
  150.6222  139.7230  158.7541 H   0  0  0  0  0  0  0  0  0  0  0  0
  149.8878  141.8648  156.8756 H   0  0  0  0  0  0  0  0  0  0  0  0
  149.3318  141.6376  158.5192 H   0  0  0  0  0  0  0  0  0  0  0  0
  152.2599  142.0874  157.7949 H   0  0  0  0  0  0  0  0  0  0  0  0
  150.9408  144.1630  157.2522 H   0  0  0  0  0  0  0  0  0  0  0  0
  150.1751  144.0957  158.8236 H   0  0  0  0  0  0  0  0  0  0  0  0
  153.1481  144.5249  158.2717 H   0  0  0  0  0  0  0  0  0  0  0  0
  152.0316  145.7124  158.9098 H   0  0  0  0  0  0  0  0  0  0  0  0
  153.4353  144.6264  160.7134 H   0  0  0  0  0  0  0  0  0  0  0  0
  151.7191  144.3995  160.9684 H   0  0  0  0  0  0  0  0  0  0  0  0
  153.6305  142.3324  159.7458 H   0  0  0  0  0  0  0  0  0  0  0  0
  152.8671  142.2470  161.3205 H   0  0  0  0  0  0  0  0  0  0  0  0
  149.9155  142.5635  155.1569 H   0  0  0  0  0  0  0  0  0  0  0  0
  1  2  1  0  0  0  0
  1 18  1  0  0  0  0
  1 19  1  0  0  0  0
  1 20  1  0  0  0  0
  2 17  2  0  0  0  0
  2  3  1  0  0  0  0
  3  4  2  0  0  0  0
  3 21  1  0  0  0  0
  4  5  1  0  0  0  0
  5  6  1  0  0  0  0
  5 17  1  0  0  0  0
  6  7  1  0  0  0  0
  6 22  1  0  0  0  0
  6 23  1  0  0  0  0
  7  8  1  0  0  0  0
  7  9  1  0  0  0  0
  7 24  1  0  0  0  0
  8 25  1  0  0  0  0
  8 26  1  0  0  0  0
  8 27  1  0  0  0  0
  9 10  1  0  0  0  0
  9 28  1  0  0  0  0
 10 11  1  0  0  0  0
 10 29  1  0  0  0  0
 10 30  1  0  0  0  0
 11 16  1  0  0  0  0
 11 12  1  0  0  0  0
 11 31  1  0  0  0  0
 12 13  1  0  0  0  0
 12 32  1  0  0  0  0
 12 33  1  0  0  0  0
 13 14  1  0  0  0  0
 13 34  1  0  0  0  0
 13 35  1  0  0  0  0
 14 15  1  0  0  0  0
 14 36  1  0  0  0  0
 14 37  1  0  0  0  0
 15 16  1  0  0  0  0
 15 38  1  0  0  0  0
 15 39  1  0  0  0  0
 17 40  1  0  0  0  0
M  END
> <s_m_source_file>
AV-unprocessed.smi

> <i_m_source_file_index>
3161

> <i_lp_mmshare_version>
43012

> <i_f3d_flags>
0

> <s_epik_input>
W0NIM11jMVtjSF1ubihbY0hdMSlbQ0gyXVtDQEhdKFtDSDNdKVtOSF1bQ0gyXVtDQEBIXTJbQ0gyXVtDSDJdW0NIMl1bQ0gyXU8y

> <s_epik_cmdline>
J2VwaWtfcHl0aG9uJywgJy1waCcsICc3LjAnLCAnLXRuJywgJzgnLCAnLW1hJywgJzIwMCcsICctbWV0YWxfYmluZGluZycsICctaW1hZScsICc8aW5maWxlLm1hZT4nLCAnLW9tYWUnLCAnPG91dGZpbGUubWFlPic=

> <r_lp_tautomer_probability>
1

> <r_epik_Ionization_Penalty>
2.51986

> <r_epik_Ionization_Penalty_Charging>
0

> <r_epik_Ionization_Penalty_Neutral>
2.51986

> <r_epik_State_Penalty>
2.68614

> <r_epik_Charging_Adjusted_Penalty>
2.68614

> <i_epik_Tot_Q>
0

> <i_epik_Tot_abs_Q>
0

> <r_epik_Metal_State_Penalty>
2.68606

> <b_epik_Metal_Only>
0

> <s_lp_Force_Field>
OPLS_2005

> <r_lp_Energy>
14.508

> <b_lp_Chiralities_Consistent>
1

> <s_lp_Variant>
AV-unprocessed.smi:3161-7

> <Gold.Version>
5.8.1

> <Gold.Id.Protein>
6NUR|6NUR_protein|mol2

> <Gold.PLP.Fitness>
38.8915

> <Gold.PLP.PLP>
-36.9694

> <Gold.PLP.part.hbond>
-0.7186

> <Gold.PLP.part.metal>
0.0000

> <Gold.PLP.part.buried>
-2.8265

> <Gold.PLP.part.nonpolar>
-33.2676

> <Gold.PLP.part.repulsive>
0.1053

> <Gold.PLP.ligand.clash>
0.0000

> <Gold.PLP.ligand.torsion>
0.5620

> <Gold.PLP.Chemscore.Hbond>
0.0000

> <Gold.PLP.Chemscore.CHOScore>
1.0000

> <Gold.PLP.Chemscore.Metal>
0.0000

> <Gold.Chemscore.Hbonds>
donor molecule, donor type, donor heavy atom, donor atom, acceptor molecule, acceptor atom, score
      L1  C    17    40       P1  8028  1.00

> <Gold.PLP.Chemscore.Internal.Correction>
0.0461

> <Gold.Rescore>
     Score         DG    S(hbond)    S(metal)    S(lipo)     H(rot)  DE(clash)    DE(int)     intcor
     13.48     -13.95       0.00        0.00     105.25       1.50       0.06       0.40       ----

> <Gold.Chemscore.Fitness>
13.4799

> <Gold.Chemscore.DG>
-13.9471

> <Gold.Chemscore.ZeroCoef>
-5.4800

> <Gold.Chemscore.Hbond>
0.0000

> <Gold.Chemscore.Metal>
0.0000

> <Gold.Chemscore.Lipo>
105.2547

> <Gold.Chemscore.Internal_Hbond>
0.0000

> <Gold.Chemscore.DEClash>
0.0640

> <Gold.Chemscore.DEInternal>
0.4032

> <Gold.Chemscore.Rot>
1.5030

> <Gold.Chemscore.Internal.Correction>
   9.000000E+99

> <Gold.Chemscore.Hbond.Weighted>
-0.0000

> <Gold.Chemscore.Metal.Weighted>
-0.0000

> <Gold.Chemscore.Lipo.Weighted>
-12.3148

> <Gold.Chemscore.Internal_Hbond.Weighted>
0.0000

> <Gold.Chemscore.DEClash.Weighted>
0.0640

> <Gold.Chemscore.DEInternal.Weighted>
0.4032

> <Gold.Chemscore.Rot.Weighted>
3.8477

> <Gold.Chemscore.Internal.Correction.Weighted>
   9.000000E+99

> <Gold.Protein.RotatedTorsions>
[ 6907 6896 6895 6894 ] final -134.07 input  -60.11 | X-H torsion
[ 7974 7965 7964 7962 ] final -173.69 input  175.53 | X-H torsion
[ 8008 7997 7996 7995 ] final  108.12 input   59.86 | X-H torsion
[ 10167 10162 10161 10158 ] final  154.44 input  -65.29 | X-H torsion
[ 10718 10713 10712 10709 ] final  -79.07 input   66.30 | X-H torsion
[ 10763 10752 10751 10750 ] final  164.11 input  -60.55 | X-H torsion
[ 11005 11000 10999 10996 ] final   35.28 input  -57.11 | X-H torsion

> <Gold.Protein.ActiveResidues>
 VAL166  LYS551  ARG553  GLY616  TRP617  ASP618  TYR619  PRO620  LYS621  CYS622 
 ASP623  PHE694  ASN695  SER759  ASP760  ASP761  ALA762  ILE779  LEU786  VAL792 
 PHE793  MET794  SER795  GLU796  ALA797  LYS798  CYS799  TRP800  GLU811  SER814 

> <Gold.Protein.RotatedAtoms>
  150.9814  133.6241  159.2721 H   0  0  0  0  0  0  0  0  0  0  0  0  # atno 6907 bound_to 6896
  151.3495  135.0880  159.9408 H   0  0  0  0  0  0  0  0  0  0  0  0  # atno 6908 bound_to 6896
  152.5217  133.9410  159.7681 H   0  0  0  0  0  0  0  0  0  0  0  0  # atno 6909 bound_to 6896
  144.7136  140.1584  143.6378 H   0  0  0  0  0  0  0  0  0  0  0  0  # atno 7974 bound_to 7965
  156.1878  140.3082  155.9272 H   0  0  0  0  0  0  0  0  0  0  0  0  # atno 8008 bound_to 7997
  155.3242  140.0457  157.3057 H   0  0  0  0  0  0  0  0  0  0  0  0  # atno 8009 bound_to 7997
  154.5416  140.2263  155.8641 H   0  0  0  0  0  0  0  0  0  0  0  0  # atno 8010 bound_to 7997
  139.4823  144.5187  151.7911 H   0  0  0  0  0  0  0  0  0  0  0  0  # atno 10167 bound_to 10162
  156.0101  130.4535  150.3592 H   0  0  0  0  0  0  0  0  0  0  0  0  # atno 10718 bound_to 10713
  154.3040  135.2758  155.2598 H   0  0  0  0  0  0  0  0  0  0  0  0  # atno 10763 bound_to 10752
  154.5022  135.5805  153.6543 H   0  0  0  0  0  0  0  0  0  0  0  0  # atno 10764 bound_to 10752
  152.9897  135.6160  154.3212 H   0  0  0  0  0  0  0  0  0  0  0  0  # atno 10765 bound_to 10752
  140.2443  134.3378  155.7914 H   0  0  0  0  0  0  0  0  0  0  0  0  # atno 11005 bound_to 11000
  145.9052  139.2454  143.1470 LP  0  0  0  0  0  0  0  0  0  0  0  0  # atno 17320 bound_to 7965
  145.9771  140.8713  143.0133 LP  0  0  0  0  0  0  0  0  0  0  0  0  # atno 17321 bound_to 7965
  140.4698  144.1603  150.5916 LP  0  0  0  0  0  0  0  0  0  0  0  0  # atno 17342 bound_to 10162
  140.4394  143.2533  151.9492 LP  0  0  0  0  0  0  0  0  0  0  0  0  # atno 17343 bound_to 10162
  157.1681  131.0362  151.2808 LP  0  0  0  0  0  0  0  0  0  0  0  0  # atno 17370 bound_to 10713
  157.4253  130.7460  149.6946 LP  0  0  0  0  0  0  0  0  0  0  0  0  # atno 17371 bound_to 10713
  141.2207  133.7316  156.8935 LP  0  0  0  0  0  0  0  0  0  0  0  0  # atno 17394 bound_to 11000
  140.1622  134.9158  157.2729 LP  0  0  0  0  0  0  0  0  0  0  0  0  # atno 17395 bound_to 11000

$$$$
