AV-unprocessed.smi:2471|AV-procd|sdf|9739|dock3
  -GOLD-   2272013383D 1   1.00000     0.00000
 Structure written by MMmdl.
 40 41  0  0  0  0  0  0  0  0  1 V2000
  153.3949  140.7119  160.4774 C   0  0  0  0  0  0  0  0  0  0  0  0
  152.7235  141.9581  159.9391 C   0  0  0  0  0  0  0  0  0  0  0  0
  152.8520  143.1946  160.6020 C   0  0  0  0  0  0  0  0  0  0  0  0
  152.2083  144.3146  160.0461 C   0  0  0  0  0  0  0  0  0  0  0  0
  151.4678  144.1532  158.8593 C   0  0  0  0  0  0  0  0  0  0  0  0
  151.3867  142.8768  158.2583 C   0  0  0  0  0  0  0  0  0  0  0  0
  150.6146  142.8215  157.0679 N   0  0  0  0  0  0  0  0  0  0  0  0
  150.0761  141.7419  156.4742 C   0  0  0  0  0  0  0  0  0  0  0  0
  150.1652  140.5837  156.8829 O   0  0  0  0  0  0  0  0  0  0  0  0
  149.4158  142.0832  155.3585 N   0  0  0  0  0  0  0  0  0  0  0  0
  148.7161  141.1534  154.4772 C   0  0  0  0  0  0  0  0  0  0  0  0
  147.1981  141.4352  154.3911 C   0  0  2  0  0  0  0  0  0  0  0  0
  146.8702  142.9124  154.0742 C   0  0  0  0  0  0  0  0  0  0  0  0
  145.3550  143.1407  153.9514 C   0  0  0  0  0  0  0  0  0  0  0  0
  144.6123  142.6811  155.2147 C   0  0  0  0  0  0  0  0  0  0  0  0
  144.9302  141.2126  155.5461 C   0  0  0  0  0  0  0  0  0  0  0  0
  146.4461  140.9581  155.6577 C   0  0  2  0  0  0  0  0  0  0  0  0
  146.9403  141.6013  156.8177 O   0  0  0  0  0  0  0  0  0  0  0  0
  152.0126  141.8030  158.8014 N   0  0  0  0  0  0  0  0  0  0  0  0
  153.8317  140.8915  161.4601 H   0  0  0  0  0  0  0  0  0  0  0  0
  154.1903  140.3911  159.8043 H   0  0  0  0  0  0  0  0  0  0  0  0
  152.6739  139.8991  160.5701 H   0  0  0  0  0  0  0  0  0  0  0  0
  153.4278  143.2854  161.5114 H   0  0  0  0  0  0  0  0  0  0  0  0
  152.2804  145.2819  160.5207 H   0  0  0  0  0  0  0  0  0  0  0  0
  150.9673  145.0036  158.4193 H   0  0  0  0  0  0  0  0  0  0  0  0
  150.4501  143.7092  156.6170 H   0  0  0  0  0  0  0  0  0  0  0  0
  149.3938  143.0582  155.0974 H   0  0  0  0  0  0  0  0  0  0  0  0
  149.1643  141.1880  153.4828 H   0  0  0  0  0  0  0  0  0  0  0  0
  148.8915  140.1465  154.8563 H   0  0  0  0  0  0  0  0  0  0  0  0
  146.8105  140.8407  153.5622 H   0  0  0  0  0  0  0  0  0  0  0  0
  147.2781  143.5594  154.8518 H   0  0  0  0  0  0  0  0  0  0  0  0
  147.3477  143.2161  153.1424 H   0  0  0  0  0  0  0  0  0  0  0  0
  145.1530  144.1959  153.7652 H   0  0  0  0  0  0  0  0  0  0  0  0
  144.9737  142.5965  153.0863 H   0  0  0  0  0  0  0  0  0  0  0  0
  144.8905  143.3185  156.0547 H   0  0  0  0  0  0  0  0  0  0  0  0
  143.5376  142.8053  155.0789 H   0  0  0  0  0  0  0  0  0  0  0  0
  144.4280  140.9190  156.4687 H   0  0  0  0  0  0  0  0  0  0  0  0
  144.5193  140.5756  154.7618 H   0  0  0  0  0  0  0  0  0  0  0  0
  146.6123  139.8883  155.7908 H   0  0  0  0  0  0  0  0  0  0  0  0
  147.6786  142.1368  156.5703 H   0  0  0  0  0  0  0  0  0  0  0  0
  1  2  1  0  0  0  0
  1 20  1  0  0  0  0
  1 21  1  0  0  0  0
  1 22  1  0  0  0  0
  2 19  1  0  0  0  0
  2  3  2  0  0  0  0
  3  4  1  0  0  0  0
  3 23  1  0  0  0  0
  4  5  2  0  0  0  0
  4 24  1  0  0  0  0
  5  6  1  0  0  0  0
  5 25  1  0  0  0  0
  6  7  1  0  0  0  0
  6 19  2  0  0  0  0
  7  8  1  0  0  0  0
  7 26  1  0  0  0  0
  8  9  2  0  0  0  0
  8 10  1  0  0  0  0
 10 11  1  0  0  0  0
 10 27  1  0  0  0  0
 11 12  1  0  0  0  0
 11 28  1  0  0  0  0
 11 29  1  0  0  0  0
 12 17  1  0  0  0  0
 12 13  1  0  0  0  0
 12 30  1  0  0  0  0
 13 14  1  0  0  0  0
 13 31  1  0  0  0  0
 13 32  1  0  0  0  0
 14 15  1  0  0  0  0
 14 33  1  0  0  0  0
 14 34  1  0  0  0  0
 15 16  1  0  0  0  0
 15 35  1  0  0  0  0
 15 36  1  0  0  0  0
 16 17  1  0  0  0  0
 16 37  1  0  0  0  0
 16 38  1  0  0  0  0
 17 18  1  0  0  0  0
 17 39  1  0  0  0  0
 18 40  1  0  0  0  0
M  END
> <s_m_source_file>
AV-unprocessed.smi

> <i_m_source_file_index>
2471

> <i_lp_mmshare_version>
43012

> <i_f3d_flags>
0

> <s_epik_input>
W0NIM11jMVtjSF1bY0hdW2NIXWMobjEpW05IXUMoPU8pW05IXVtDSDJdW0NAQEhdMltDSDJdW0NIMl1bQ0gyXVtDSDJdW0NASF0yW09IXQ==

> <s_epik_cmdline>
J2VwaWtfcHl0aG9uJywgJy1waCcsICc3LjAnLCAnLXRuJywgJzgnLCAnLW1hJywgJzIwMCcsICctbWV0YWxfYmluZGluZycsICctaW1hZScsICc8aW5maWxlLm1hZT4nLCAnLW9tYWUnLCAnPG91dGZpbGUubWFlPic=

> <r_lp_tautomer_probability>
1

> <r_epik_Ionization_Penalty>
8.52237e-05

> <r_epik_Ionization_Penalty_Charging>
0

> <r_epik_Ionization_Penalty_Neutral>
8.52237e-05

> <r_epik_State_Penalty>
-0

> <r_epik_Charging_Adjusted_Penalty>
0

> <i_epik_Tot_Q>
0

> <i_epik_Tot_abs_Q>
0

> <r_epik_Metal_State_Penalty>
-0

> <b_epik_Metal_Only>
0

> <s_lp_Force_Field>
OPLS_2005

> <r_lp_Energy>
16.1084

> <b_lp_Chiralities_Consistent>
1

> <s_lp_Variant>
AV-unprocessed.smi:2471-3

> <Gold.Version>
5.8.1

> <Gold.Id.Protein>
6NUR|6NUR_protein|mol2

> <Gold.PLP.Fitness>
43.8291

> <Gold.PLP.PLP>
-38.8607

> <Gold.PLP.part.hbond>
-2.0000

> <Gold.PLP.part.metal>
0.0000

> <Gold.PLP.part.buried>
-4.8135

> <Gold.PLP.part.nonpolar>
-33.6230

> <Gold.PLP.part.repulsive>
0.2555

> <Gold.PLP.ligand.clash>
0.0000

> <Gold.PLP.ligand.torsion>
0.1617

> <Gold.PLP.Chemscore.Hbond>
1.7600

> <Gold.PLP.Chemscore.CHOScore>
0.0000

> <Gold.PLP.Chemscore.Metal>
0.0000

> <Gold.Chemscore.Hbonds>
donor molecule, donor type, donor heavy atom, donor atom, acceptor molecule, acceptor atom, score
      L1  H     7    26       P1  8028  0.70
      L1  H    10    27       P1  8028  0.90

> <Gold.PLP.Chemscore.Internal.Correction>
0.0117

> <Gold.Rescore>
     Score         DG    S(hbond)    S(metal)    S(lipo)     H(rot)  DE(clash)    DE(int)     intcor
     16.07     -17.66       1.84        0.00      89.37       1.73       0.02       1.57       ----

> <Gold.Chemscore.Fitness>
16.0676

> <Gold.Chemscore.DG>
-17.6573

> <Gold.Chemscore.ZeroCoef>
-5.4800

> <Gold.Chemscore.Hbond>
1.8441

> <Gold.Chemscore.Metal>
0.0000

> <Gold.Chemscore.Lipo>
89.3732

> <Gold.Chemscore.Internal_Hbond>
0.0000

> <Gold.Chemscore.DEClash>
0.0164

> <Gold.Chemscore.DEInternal>
1.5733

> <Gold.Chemscore.Rot>
1.7339

> <Gold.Chemscore.Internal.Correction>
   9.000000E+99

> <Gold.Chemscore.Hbonds>
donor molecule, donor type, donor heavy atom, donor atom, acceptor molecule, acceptor atom, score
      L1  H     7    26       P1  8028  0.68
      L1  H    10    27       P1  8028  0.88

> <Gold.Chemscore.Hbond.Weighted>
-6.1593

> <Gold.Chemscore.Metal.Weighted>
-0.0000

> <Gold.Chemscore.Lipo.Weighted>
-10.4567

> <Gold.Chemscore.Internal_Hbond.Weighted>
0.0000

> <Gold.Chemscore.DEClash.Weighted>
0.0164

> <Gold.Chemscore.DEInternal.Weighted>
1.5733

> <Gold.Chemscore.Rot.Weighted>
4.4387

> <Gold.Chemscore.Internal.Correction.Weighted>
   9.000000E+99

> <Gold.Protein.RotatedTorsions>
[ 6907 6896 6895 6894 ] final   52.86 input  -60.11 | X-H torsion
[ 7974 7965 7964 7962 ] final -111.12 input  175.53 | X-H torsion
[ 8008 7997 7996 7995 ] final  -73.61 input   59.86 | X-H torsion
[ 10167 10162 10161 10158 ] final    1.76 input  -65.29 | X-H torsion
[ 10718 10713 10712 10709 ] final -148.98 input   66.30 | X-H torsion
[ 10763 10752 10751 10750 ] final -114.77 input  -60.55 | X-H torsion
[ 11005 11000 10999 10996 ] final   48.49 input  -57.11 | X-H torsion

> <Gold.Protein.ActiveResidues>
 VAL166  LYS551  ARG553  GLY616  TRP617  ASP618  TYR619  PRO620  LYS621  CYS622 
 ASP623  PHE694  ASN695  SER759  ASP760  ASP761  ALA762  ILE779  LEU786  VAL792 
 PHE793  MET794  SER795  GLU796  ALA797  LYS798  CYS799  TRP800  GLU811  SER814 

> <Gold.Protein.RotatedAtoms>
  152.3277  134.7300  160.0297 H   0  0  0  0  0  0  0  0  0  0  0  0  # atno 6907 bound_to 6896
  151.7727  133.3337  159.3457 H   0  0  0  0  0  0  0  0  0  0  0  0  # atno 6908 bound_to 6896
  150.7405  134.5935  159.6044 H   0  0  0  0  0  0  0  0  0  0  0  0  # atno 6909 bound_to 6896
  145.1599  140.8873  143.3597 H   0  0  0  0  0  0  0  0  0  0  0  0  # atno 7974 bound_to 7965
  154.5261  140.0776  156.8262 H   0  0  0  0  0  0  0  0  0  0  0  0  # atno 8008 bound_to 7997
  155.3472  140.3410  155.4221 H   0  0  0  0  0  0  0  0  0  0  0  0  # atno 8009 bound_to 7997
  156.1733  140.1627  156.8394 H   0  0  0  0  0  0  0  0  0  0  0  0  # atno 8010 bound_to 7997
  140.6667  143.7159  150.7842 H   0  0  0  0  0  0  0  0  0  0  0  0  # atno 10167 bound_to 10162
  156.4272  130.8058  151.2283 H   0  0  0  0  0  0  0  0  0  0  0  0  # atno 10718 bound_to 10713
  154.8454  135.4405  154.1559 H   0  0  0  0  0  0  0  0  0  0  0  0  # atno 10763 bound_to 10752
  153.2708  135.6945  153.7489 H   0  0  0  0  0  0  0  0  0  0  0  0  # atno 10764 bound_to 10752
  153.6730  135.3415  155.3133 H   0  0  0  0  0  0  0  0  0  0  0  0  # atno 10765 bound_to 10752
  140.1186  134.4859  155.8616 H   0  0  0  0  0  0  0  0  0  0  0  0  # atno 11005 bound_to 11000
  145.0342  139.3315  143.6009 LP  0  0  0  0  0  0  0  0  0  0  0  0  # atno 17320 bound_to 7965
  146.3484  139.9691  142.8708 LP  0  0  0  0  0  0  0  0  0  0  0  0  # atno 17321 bound_to 7965
  140.0838  143.4943  152.2516 LP  0  0  0  0  0  0  0  0  0  0  0  0  # atno 17342 bound_to 10162
  139.5919  144.7553  151.3380 LP  0  0  0  0  0  0  0  0  0  0  0  0  # atno 17343 bound_to 10162
  157.7508  131.0209  150.3730 LP  0  0  0  0  0  0  0  0  0  0  0  0  # atno 17370 bound_to 10713
  156.4060  130.3925  149.6926 LP  0  0  0  0  0  0  0  0  0  0  0  0  # atno 17371 bound_to 10713
  141.2147  133.6752  156.6845 LP  0  0  0  0  0  0  0  0  0  0  0  0  # atno 17394 bound_to 11000
  140.2995  134.8175  157.4085 LP  0  0  0  0  0  0  0  0  0  0  0  0  # atno 17395 bound_to 11000

$$$$
