AV-unprocessed.smi:37|AV-procd|sdf|329|dock5
  -GOLD-   2262016163D 1   1.00000     0.00000
 Structure written by MMmdl.
 43 44  0  0  0  0  0  0  0  0  2 V2000
  146.3274  134.0949  162.2593 C   0  0  0  0  0  0  0  0  0  0  0  0
  147.5720  134.9312  161.9280 C   0  0  0  0  0  0  0  0  0  0  0  0
  147.2753  136.1558  161.0598 C   0  0  0  0  0  0  0  0  0  0  0  0
  147.3331  137.3078  161.4938 O   0  0  0  0  0  0  0  0  0  0  0  0
  146.9609  135.8080  159.8067 O   0  0  0  0  0  0  0  0  0  0  0  0
  146.7635  136.8027  158.8150 C   0  0  0  0  0  0  0  0  0  0  0  0
  146.7807  136.1955  157.3998 C   0  0  2  0  0  0  0  0  0  0  0  0
  147.9781  135.4743  157.1141 O   0  0  0  0  0  0  0  0  0  0  0  0
  148.3273  135.6166  155.7639 C   0  0  2  0  0  0  0  0  0  0  0  0
  149.6083  136.4263  155.6538 N   0  0  0  0  0  0  0  0  0  0  0  0
  149.6173  137.7004  155.1076 C   0  0  0  0  0  0  0  0  0  0  0  0
  150.7551  138.4173  155.0141 C   0  0  0  0  0  0  0  0  0  0  0  0
  150.7279  139.6474  154.4727 F   0  0  0  0  0  0  0  0  0  0  0  0
  152.0093  137.8496  155.5027 C   0  0  0  0  0  0  0  0  0  0  0  0
  153.0501  138.4940  155.3848 O   0  0  0  0  0  0  0  0  0  0  0  0
  151.9663  136.6136  156.0783 N   0  5  0  0  0  0  0  0  0  0  0  0
  150.8132  135.8913  156.1891 C   0  0  0  0  0  0  0  0  0  0  0  0
  150.7620  134.7900  156.7369 O   0  0  0  0  0  0  0  0  0  0  0  0
  147.1533  136.3384  155.0743 C   0  0  1  0  0  0  0  0  0  0  0  0
  145.8466  134.9863  154.4157 Br  0  0  0  0  0  0  0  0  0  0  0  0
  146.5255  137.1306  156.2096 C   0  0  2  0  0  0  0  0  0  0  0  0
  147.1781  138.3858  156.3704 O   0  0  0  0  0  0  0  0  0  0  0  0
  147.0515  139.3499  155.4403 C   0  0  0  0  0  0  0  0  0  0  0  0
  146.3571  139.2846  154.4259 O   0  0  0  0  0  0  0  0  0  0  0  0
  147.8565  140.6059  155.7708 C   0  0  0  0  0  0  0  0  0  0  0  0
  147.6834  141.7160  154.7252 C   0  0  0  0  0  0  0  0  0  0  0  0
  146.5941  133.2431  162.8849 H   0  0  0  0  0  0  0  0  0  0  0  0
  145.8584  133.7055  161.3550 H   0  0  0  0  0  0  0  0  0  0  0  0
  145.5845  134.6816  162.8011 H   0  0  0  0  0  0  0  0  0  0  0  0
  148.0416  135.2708  162.8517 H   0  0  0  0  0  0  0  0  0  0  0  0
  148.3054  134.3105  161.4124 H   0  0  0  0  0  0  0  0  0  0  0  0
  145.8096  137.3013  158.9907 H   0  0  0  0  0  0  0  0  0  0  0  0
  147.5445  137.5602  158.8958 H   0  0  0  0  0  0  0  0  0  0  0  0
  145.9910  135.4433  157.3770 H   0  0  0  0  0  0  0  0  0  0  0  0
  148.5769  134.6505  155.3221 H   0  0  0  0  0  0  0  0  0  0  0  0
  148.7070  138.1521  154.7507 H   0  0  0  0  0  0  0  0  0  0  0  0
  147.4564  136.9453  154.2216 H   0  0  0  0  0  0  0  0  0  0  0  0
  145.4570  137.2917  156.0584 H   0  0  0  0  0  0  0  0  0  0  0  0
  147.5342  140.9720  156.7460 H   0  0  0  0  0  0  0  0  0  0  0  0
  148.9093  140.3399  155.8658 H   0  0  0  0  0  0  0  0  0  0  0  0
  148.1375  142.6443  155.0711 H   0  0  0  0  0  0  0  0  0  0  0  0
  146.6307  141.9175  154.5217 H   0  0  0  0  0  0  0  0  0  0  0  0
  148.1649  141.4484  153.7847 H   0  0  0  0  0  0  0  0  0  0  0  0
  1  2  1  0  0  0  0
  1 27  1  0  0  0  0
  1 28  1  0  0  0  0
  1 29  1  0  0  0  0
  2  3  1  0  0  0  0
  2 30  1  0  0  0  0
  2 31  1  0  0  0  0
  3  4  2  0  0  0  0
  3  5  1  0  0  0  0
  5  6  1  0  0  0  0
  6  7  1  0  0  0  0
  6 32  1  0  0  0  0
  6 33  1  0  0  0  0
  7 21  1  0  0  0  0
  7  8  1  0  0  0  0
  7 34  1  0  0  0  0
  8  9  1  0  0  0  0
  9 10  1  0  0  0  0
  9 19  1  0  0  0  0
  9 35  1  0  0  0  0
 10 17  1  0  0  0  0
 10 11  1  0  0  0  0
 11 12  2  0  0  0  0
 11 36  1  0  0  0  0
 12 13  1  0  0  0  0
 12 14  1  0  0  0  0
 14 15  2  0  0  0  0
 14 16  1  0  0  0  0
 16 17  1  0  0  0  0
 17 18  2  0  0  0  0
 19 20  1  0  0  0  0
 19 21  1  0  0  0  0
 19 37  1  0  0  0  0
 21 22  1  0  0  0  0
 21 38  1  0  0  0  0
 22 23  1  0  0  0  0
 23 24  2  0  0  0  0
 23 25  1  0  0  0  0
 25 26  1  0  0  0  0
 25 39  1  0  0  0  0
 25 40  1  0  0  0  0
 26 41  1  0  0  0  0
 26 42  1  0  0  0  0
 26 43  1  0  0  0  0
M  CHG  1  16  -1
M  END
> <s_m_source_file>
AV-unprocessed.smi

> <i_m_source_file_index>
37

> <i_lp_mmshare_version>
43012

> <i_f3d_flags>
0

> <s_epik_input>
W0NIM11bQ0gyXUMoPU8pT1tDSDJdW0NAQEhdMU9bQ0BASF0objJbY0hdYyhGKWMoPU8pW25IXWMyPU8pW0NAQEhdKEJyKVtDQEhdMU9DKD1PKVtDSDJdW0NIM10=

> <s_epik_cmdline>
J2VwaWtfcHl0aG9uJywgJy1waCcsICc3LjAnLCAnLXRuJywgJzgnLCAnLW1hJywgJzIwMCcsICctbWV0YWxfYmluZGluZycsICctaW1hZScsICc8aW5maWxlLm1hZT4nLCAnLW9tYWUnLCAnPG91dGZpbGUubWFlPic=

> <r_epik_Ionization_Penalty>
1.08158

> <r_epik_Ionization_Penalty_Charging>
9.05154e-09

> <r_epik_Ionization_Penalty_Neutral>
1.08158

> <r_epik_State_Penalty>
1.13706

> <r_epik_Charging_Adjusted_Penalty>
1.13706

> <i_epik_Tot_Q>
-1

> <i_epik_Tot_abs_Q>
1

> <r_epik_Metal_State_Penalty>
0.00343535

> <b_epik_Metal_Only>
0

> <s_epik_Chemistry_Notes>
This compound has an ester and may undergo hydrolysis at high or low pH. This compound contains an acetal/aminal-like group ( X-CH(R)-Y where X, Y are N, S, or O) that may be acid/base labile, releasing an aldehyde.

> <s_lp_Force_Field>
OPLS_2005

> <r_lp_Energy>
30.7461

> <b_lp_Chiralities_Consistent>
1

> <s_lp_Variant>
AV-unprocessed.smi:37-27

> <Gold.Version>
5.8.1

> <Gold.Id.Protein>
6NUR|6NUR_protein|mol2

> <Gold.PLP.Fitness>
42.0766

> <Gold.PLP.PLP>
-28.1316

> <Gold.PLP.part.hbond>
-4.3877

> <Gold.PLP.part.metal>
0.0000

> <Gold.PLP.part.buried>
-3.0438

> <Gold.PLP.part.nonpolar>
-20.6046

> <Gold.PLP.part.repulsive>
0.1190

> <Gold.PLP.ligand.clash>
0.0000

> <Gold.PLP.ligand.torsion>
0.2829

> <Gold.PLP.Chemscore.Hbond>
4.7755

> <Gold.PLP.Chemscore.CHOScore>
0.0000

> <Gold.PLP.Chemscore.Metal>
0.0000

> <Gold.Chemscore.Hbonds>
donor molecule, donor type, donor heavy atom, donor atom, acceptor molecule, acceptor atom, score
      P1  H  6931  6943       L1     4  0.83
      P1  H  6934  6947       L1     4  0.91
      P1  H  7997  8009       L1    15  0.50
      P1  H 10752 10763       L1    16  2.00

> <Gold.PLP.Chemscore.Internal.Correction>
0.1843

> <Gold.Rescore>
     Score         DG    S(hbond)    S(metal)    S(lipo)     H(rot)  DE(clash)    DE(int)     intcor
      9.09     -11.42       2.96        0.00      37.64       3.27       0.02       2.31       ----

> <Gold.Chemscore.Fitness>
9.0923

> <Gold.Chemscore.DG>
-11.4197

> <Gold.Chemscore.ZeroCoef>
-5.4800

> <Gold.Chemscore.Hbond>
2.9639

> <Gold.Chemscore.Metal>
0.0000

> <Gold.Chemscore.Lipo>
37.6366

> <Gold.Chemscore.Internal_Hbond>
0.0000

> <Gold.Chemscore.DEClash>
0.0165

> <Gold.Chemscore.DEInternal>
2.3109

> <Gold.Chemscore.Rot>
3.2669

> <Gold.Chemscore.Internal.Correction>
   9.000000E+99

> <Gold.Chemscore.Hbonds>
donor molecule, donor type, donor heavy atom, donor atom, acceptor molecule, acceptor atom, score
      P1  H  6931  6943       L1     4  0.81
      P1  H  6934  6947       L1     4  0.90
      P1  H  7997  8009       L1    15  0.48
      P1  H 10752 10763       L1    16  0.39

> <Gold.Chemscore.Hbond.Weighted>
-9.8996

> <Gold.Chemscore.Metal.Weighted>
-0.0000

> <Gold.Chemscore.Lipo.Weighted>
-4.4035

> <Gold.Chemscore.Internal_Hbond.Weighted>
0.0000

> <Gold.Chemscore.DEClash.Weighted>
0.0165

> <Gold.Chemscore.DEInternal.Weighted>
2.3109

> <Gold.Chemscore.Rot.Weighted>
8.3634

> <Gold.Chemscore.Internal.Correction.Weighted>
   9.000000E+99

> <Gold.Protein.RotatedTorsions>
[ 6907 6896 6895 6894 ] final  -76.66 input  -60.11 | X-H torsion
[ 7974 7965 7964 7962 ] final  -48.89 input  175.53 | X-H torsion
[ 8008 7997 7996 7995 ] final -147.28 input   59.86 | X-H torsion
[ 10167 10162 10161 10158 ] final   35.46 input  -65.29 | X-H torsion
[ 10718 10713 10712 10709 ] final  -11.04 input   66.30 | X-H torsion
[ 10763 10752 10751 10750 ] final  101.73 input  -60.55 | X-H torsion
[ 11005 11000 10999 10996 ] final -111.23 input  -57.11 | X-H torsion

> <Gold.Protein.ActiveResidues>
 VAL166  LYS551  ARG553  GLY616  TRP617  ASP618  TYR619  PRO620  LYS621  CYS622 
 ASP623  PHE694  ASN695  SER759  ASP760  ASP761  ALA762  ILE779  LEU786  VAL792 
 PHE793  MET794  SER795  GLU796  ALA797  LYS798  CYS799  TRP800  GLU811  SER814 

> <Gold.Protein.RotatedAtoms>
  150.7021  134.4539  159.5348 H   0  0  0  0  0  0  0  0  0  0  0  0  # atno 6907 bound_to 6896
  152.2226  134.8395  160.0493 H   0  0  0  0  0  0  0  0  0  0  0  0  # atno 6908 bound_to 6896
  151.9240  133.3558  159.3944 H   0  0  0  0  0  0  0  0  0  0  0  0  # atno 6909 bound_to 6896
  145.9464  140.7614  142.9526 H   0  0  0  0  0  0  0  0  0  0  0  0  # atno 7974 bound_to 7965
  155.5730  140.0636  157.2802 H   0  0  0  0  0  0  0  0  0  0  0  0  # atno 8008 bound_to 7997
  154.4355  140.1865  156.0945 H   0  0  0  0  0  0  0  0  0  0  0  0  # atno 8009 bound_to 7997
  156.0362  140.3301  155.7197 H   0  0  0  0  0  0  0  0  0  0  0  0  # atno 8010 bound_to 7997
  140.4220  144.1446  150.6149 H   0  0  0  0  0  0  0  0  0  0  0  0  # atno 10167 bound_to 10162
  156.6647  130.4992  149.6019 H   0  0  0  0  0  0  0  0  0  0  0  0  # atno 10718 bound_to 10713
  153.3304  135.4034  155.1491 H   0  0  0  0  0  0  0  0  0  0  0  0  # atno 10763 bound_to 10752
  154.8621  135.3609  154.5478 H   0  0  0  0  0  0  0  0  0  0  0  0  # atno 10764 bound_to 10752
  153.5916  135.7073  153.5480 H   0  0  0  0  0  0  0  0  0  0  0  0  # atno 10765 bound_to 10752
  141.0746  133.9322  157.2415 H   0  0  0  0  0  0  0  0  0  0  0  0  # atno 11005 bound_to 11000
  144.6788  140.2363  143.7349 LP  0  0  0  0  0  0  0  0  0  0  0  0  # atno 17320 bound_to 7965
  145.8231  139.2052  143.1926 LP  0  0  0  0  0  0  0  0  0  0  0  0  # atno 17321 bound_to 7965
  140.4523  143.2482  151.9331 LP  0  0  0  0  0  0  0  0  0  0  0  0  # atno 17342 bound_to 10162
  139.4783  144.5550  151.8328 LP  0  0  0  0  0  0  0  0  0  0  0  0  # atno 17343 bound_to 10162
  156.1984  130.6604  151.1140 LP  0  0  0  0  0  0  0  0  0  0  0  0  # atno 17370 bound_to 10713
  157.7097  131.0740  150.6542 LP  0  0  0  0  0  0  0  0  0  0  0  0  # atno 17371 bound_to 10713
  139.9559  135.0165  156.9125 LP  0  0  0  0  0  0  0  0  0  0  0  0  # atno 17394 bound_to 11000
  140.5600  134.0544  155.7396 LP  0  0  0  0  0  0  0  0  0  0  0  0  # atno 17395 bound_to 11000

$$$$
