AV-unprocessed.smi:694|AV-procd|sdf|3382|dock8
  -GOLD-   22720 0363D 1   1.00000     0.00000
 Structure written by MMmdl.
 42 43  0  0  0  0  0  0  0  0  1 V2000
  154.6602  141.0702  160.8376 C   0  0  0  0  0  0  0  0  0  0  0  0
  153.4471  141.8604  161.0223 N   0  0  0  0  0  0  0  0  0  0  0  0
  153.1616  142.4630  162.3185 C   0  0  0  0  0  0  0  0  0  0  0  0
  152.5457  142.0252  159.9459 C   0  0  0  0  0  0  0  0  0  0  0  0
  151.8825  143.2561  159.7169 C   0  0  0  0  0  0  0  0  0  0  0  0
  150.9919  143.3654  158.6320 C   0  0  0  0  0  0  0  0  0  0  0  0
  150.7745  142.2510  157.7993 C   0  0  0  0  0  0  0  0  0  0  0  0
  149.8819  142.4045  156.7027 N   0  0  0  0  0  0  0  0  0  0  0  0
  149.5166  141.4992  155.7784 C   0  0  0  0  0  0  0  0  0  0  0  0
  149.8731  140.3217  155.7511 O   0  0  0  0  0  0  0  0  0  0  0  0
  148.6821  142.0369  154.8776 N   0  0  0  0  0  0  0  0  0  0  0  0
  148.1022  141.3236  153.7437 C   0  0  0  0  0  0  0  0  0  0  0  0
  147.5903  139.9197  154.1322 C   0  0  2  0  0  0  0  0  0  0  0  0
  147.1153  139.0727  152.9462 C   0  0  0  0  0  0  0  0  0  0  0  0
  146.1779  138.0110  153.5416 C   0  0  0  0  0  0  0  0  0  0  0  0
  145.9005  138.4336  154.9932 C   0  0  0  0  0  0  0  0  0  0  0  0
  146.4149  139.8714  155.1217 C   0  0  2  0  0  0  0  0  0  0  0  0
  145.3822  140.7638  154.7450 O   0  0  0  0  0  0  0  0  0  0  0  0
  151.4888  141.0663  158.0964 C   0  0  0  0  0  0  0  0  0  0  0  0
  152.3421  140.9575  159.1363 N   0  0  0  0  0  0  0  0  0  0  0  0
  155.2841  141.5034  160.0551 H   0  0  0  0  0  0  0  0  0  0  0  0
  154.4104  140.0469  160.5545 H   0  0  0  0  0  0  0  0  0  0  0  0
  155.2526  141.0279  161.7517 H   0  0  0  0  0  0  0  0  0  0  0  0
  152.2316  142.0686  162.7287 H   0  0  0  0  0  0  0  0  0  0  0  0
  153.0727  143.5459  162.2267 H   0  0  0  0  0  0  0  0  0  0  0  0
  153.9553  142.2558  163.0362 H   0  0  0  0  0  0  0  0  0  0  0  0
  152.0381  144.1167  160.3496 H   0  0  0  0  0  0  0  0  0  0  0  0
  150.4804  144.2983  158.4457 H   0  0  0  0  0  0  0  0  0  0  0  0
  149.4448  143.3112  156.6292 H   0  0  0  0  0  0  0  0  0  0  0  0
  148.4382  143.0115  154.9761 H   0  0  0  0  0  0  0  0  0  0  0  0
  147.2889  141.9287  153.3426 H   0  0  0  0  0  0  0  0  0  0  0  0
  148.8409  141.2439  152.9443 H   0  0  0  0  0  0  0  0  0  0  0  0
  148.4165  139.3761  154.5940 H   0  0  0  0  0  0  0  0  0  0  0  0
  146.5589  139.6934  152.2426 H   0  0  0  0  0  0  0  0  0  0  0  0
  147.9487  138.6289  152.4007 H   0  0  0  0  0  0  0  0  0  0  0  0
  145.2529  137.9592  152.9663 H   0  0  0  0  0  0  0  0  0  0  0  0
  146.6339  137.0209  153.5126 H   0  0  0  0  0  0  0  0  0  0  0  0
  144.8502  138.3292  155.2683 H   0  0  0  0  0  0  0  0  0  0  0  0
  146.4716  137.7906  155.6642 H   0  0  0  0  0  0  0  0  0  0  0  0
  146.7267  140.1015  156.1411 H   0  0  0  0  0  0  0  0  0  0  0  0
  145.0700  140.5169  153.8882 H   0  0  0  0  0  0  0  0  0  0  0  0
  151.4077  140.1763  157.4931 H   0  0  0  0  0  0  0  0  0  0  0  0
  1  2  1  0  0  0  0
  1 21  1  0  0  0  0
  1 22  1  0  0  0  0
  1 23  1  0  0  0  0
  2  3  1  0  0  0  0
  2  4  1  0  0  0  0
  3 24  1  0  0  0  0
  3 25  1  0  0  0  0
  3 26  1  0  0  0  0
  4 20  1  0  0  0  0
  4  5  2  0  0  0  0
  5  6  1  0  0  0  0
  5 27  1  0  0  0  0
  6  7  2  0  0  0  0
  6 28  1  0  0  0  0
  7  8  1  0  0  0  0
  7 19  1  0  0  0  0
  8  9  1  0  0  0  0
  8 29  1  0  0  0  0
  9 10  2  0  0  0  0
  9 11  1  0  0  0  0
 11 12  1  0  0  0  0
 11 30  1  0  0  0  0
 12 13  1  0  0  0  0
 12 31  1  0  0  0  0
 12 32  1  0  0  0  0
 13 17  1  0  0  0  0
 13 14  1  0  0  0  0
 13 33  1  0  0  0  0
 14 15  1  0  0  0  0
 14 34  1  0  0  0  0
 14 35  1  0  0  0  0
 15 16  1  0  0  0  0
 15 36  1  0  0  0  0
 15 37  1  0  0  0  0
 16 17  1  0  0  0  0
 16 38  1  0  0  0  0
 16 39  1  0  0  0  0
 17 18  1  0  0  0  0
 17 40  1  0  0  0  0
 18 41  1  0  0  0  0
 19 20  2  0  0  0  0
 19 42  1  0  0  0  0
M  END
> <s_m_source_file>
AV-unprocessed.smi

> <i_m_source_file_index>
694

> <i_lp_mmshare_version>
43012

> <i_f3d_flags>
0

> <s_epik_input>
W0NIM11OKFtDSDNdKWMxW2NIXVtjSF1jKFtjSF1uMSlbTkhdQyg9TylbTkhdW0NIMl1bQ0BASF0yW0NIMl1bQ0gyXVtDSDJdW0NASF0yW09IXQ==

> <s_epik_cmdline>
J2VwaWtfcHl0aG9uJywgJy1waCcsICc3LjAnLCAnLXRuJywgJzgnLCAnLW1hJywgJzIwMCcsICctbWV0YWxfYmluZGluZycsICctaW1hZScsICc8aW5maWxlLm1hZT4nLCAnLW9tYWUnLCAnPG91dGZpbGUubWFlPic=

> <r_lp_tautomer_probability>
1

> <r_epik_Ionization_Penalty>
0.60335

> <r_epik_Ionization_Penalty_Charging>
0

> <r_epik_Ionization_Penalty_Neutral>
0.60335

> <r_epik_State_Penalty>
0.616805

> <r_epik_Charging_Adjusted_Penalty>
0.616805

> <i_epik_Tot_Q>
0

> <i_epik_Tot_abs_Q>
0

> <r_epik_Metal_State_Penalty>
0.301709

> <b_epik_Metal_Only>
0

> <s_lp_Force_Field>
OPLS_2005

> <r_lp_Energy>
30.3621

> <b_lp_Chiralities_Consistent>
1

> <s_lp_Variant>
AV-unprocessed.smi:694-7

> <Gold.Version>
5.8.1

> <Gold.Id.Protein>
6NUR|6NUR_protein|mol2

> <Gold.PLP.Fitness>
46.3838

> <Gold.PLP.PLP>
-38.7891

> <Gold.PLP.part.hbond>
-3.0000

> <Gold.PLP.part.metal>
0.0000

> <Gold.PLP.part.buried>
-4.0726

> <Gold.PLP.part.nonpolar>
-32.5130

> <Gold.PLP.part.repulsive>
0.3217

> <Gold.PLP.ligand.clash>
0.0000

> <Gold.PLP.ligand.torsion>
0.7103

> <Gold.PLP.Chemscore.Hbond>
3.0000

> <Gold.PLP.Chemscore.CHOScore>
0.0000

> <Gold.PLP.Chemscore.Metal>
0.0000

> <Gold.Chemscore.Hbonds>
donor molecule, donor type, donor heavy atom, donor atom, acceptor molecule, acceptor atom, score
      L1  H     8    29       P1  8028  1.00
      L1  H    11    30       P1  8028  0.99
      L1  H    18    41       P1 10175  1.00

> <Gold.PLP.Chemscore.Internal.Correction>
0.0154

> <Gold.Rescore>
     Score         DG    S(hbond)    S(metal)    S(lipo)     H(rot)  DE(clash)    DE(int)     intcor
     17.56     -20.56       2.90        0.00      83.90       1.73       0.09       2.91       ----

> <Gold.Chemscore.Fitness>
17.5552

> <Gold.Chemscore.DG>
-20.5571

> <Gold.Chemscore.ZeroCoef>
-5.4800

> <Gold.Chemscore.Hbond>
2.8978

> <Gold.Chemscore.Metal>
0.0000

> <Gold.Chemscore.Lipo>
83.9038

> <Gold.Chemscore.Internal_Hbond>
0.0000

> <Gold.Chemscore.DEClash>
0.0904

> <Gold.Chemscore.DEInternal>
2.9115

> <Gold.Chemscore.Rot>
1.7259

> <Gold.Chemscore.Internal.Correction>
   9.000000E+99

> <Gold.Chemscore.Hbonds>
donor molecule, donor type, donor heavy atom, donor atom, acceptor molecule, acceptor atom, score
      L1  H     8    29       P1  8028  0.96
      L1  H    11    30       P1  8028  0.94
      L1  H    18    41       P1 10175  0.93

> <Gold.Chemscore.Hbond.Weighted>
-9.6787

> <Gold.Chemscore.Metal.Weighted>
-0.0000

> <Gold.Chemscore.Lipo.Weighted>
-9.8167

> <Gold.Chemscore.Internal_Hbond.Weighted>
0.0000

> <Gold.Chemscore.DEClash.Weighted>
0.0904

> <Gold.Chemscore.DEInternal.Weighted>
2.9115

> <Gold.Chemscore.Rot.Weighted>
4.4184

> <Gold.Chemscore.Internal.Correction.Weighted>
   9.000000E+99

> <Gold.Protein.RotatedTorsions>
[ 6907 6896 6895 6894 ] final  140.57 input  -60.11 | X-H torsion
[ 7974 7965 7964 7962 ] final -116.99 input  175.53 | X-H torsion
[ 8008 7997 7996 7995 ] final   61.13 input   59.86 | X-H torsion
[ 10167 10162 10161 10158 ] final   63.29 input  -65.29 | X-H torsion
[ 10718 10713 10712 10709 ] final  -11.09 input   66.30 | X-H torsion
[ 10763 10752 10751 10750 ] final   81.37 input  -60.55 | X-H torsion
[ 11005 11000 10999 10996 ] final  -30.46 input  -57.11 | X-H torsion

> <Gold.Protein.ActiveResidues>
 VAL166  LYS551  ARG553  GLY616  TRP617  ASP618  TYR619  PRO620  LYS621  CYS622 
 ASP623  PHE694  ASN695  SER759  ASP760  ASP761  ALA762  ILE779  LEU786  VAL792 
 PHE793  MET794  SER795  GLU796  ALA797  LYS798  CYS799  TRP800  GLU811  SER814 

> <Gold.Protein.RotatedAtoms>
  152.2415  133.5139  159.5272 H   0  0  0  0  0  0  0  0  0  0  0  0  # atno 6907 bound_to 6896
  150.7066  134.1083  159.4000 H   0  0  0  0  0  0  0  0  0  0  0  0  # atno 6908 bound_to 6896
  151.9004  135.0380  160.0556 H   0  0  0  0  0  0  0  0  0  0  0  0  # atno 6909 bound_to 6896
  145.0904  140.8486  143.3986 H   0  0  0  0  0  0  0  0  0  0  0  0  # atno 7974 bound_to 7965
  155.5934  140.3493  155.4573 H   0  0  0  0  0  0  0  0  0  0  0  0  # atno 8008 bound_to 7997
  156.0284  140.1269  157.0309 H   0  0  0  0  0  0  0  0  0  0  0  0  # atno 8009 bound_to 7997
  154.4342  140.1048  156.6049 H   0  0  0  0  0  0  0  0  0  0  0  0  # atno 8010 bound_to 7997
  140.1346  144.4611  150.6845 H   0  0  0  0  0  0  0  0  0  0  0  0  # atno 10167 bound_to 10162
  156.6640  130.4990  149.6021 H   0  0  0  0  0  0  0  0  0  0  0  0  # atno 10718 bound_to 10713
  153.1111  135.4768  154.9036 H   0  0  0  0  0  0  0  0  0  0  0  0  # atno 10763 bound_to 10752
  154.7481  135.3099  154.8610 H   0  0  0  0  0  0  0  0  0  0  0  0  # atno 10764 bound_to 10752
  153.9198  135.6856  153.4801 H   0  0  0  0  0  0  0  0  0  0  0  0  # atno 10765 bound_to 10752
  140.9385  133.7294  156.1040 H   0  0  0  0  0  0  0  0  0  0  0  0  # atno 11005 bound_to 11000
  145.1073  139.2781  143.5655 LP  0  0  0  0  0  0  0  0  0  0  0  0  # atno 17320 bound_to 7965
  146.3531  140.0658  142.8626 LP  0  0  0  0  0  0  0  0  0  0  0  0  # atno 17321 bound_to 7965
  140.6797  143.2321  151.5417 LP  0  0  0  0  0  0  0  0  0  0  0  0  # atno 17342 bound_to 10162
  139.5502  144.2415  152.1517 LP  0  0  0  0  0  0  0  0  0  0  0  0  # atno 17343 bound_to 10162
  156.1989  130.6607  151.1145 LP  0  0  0  0  0  0  0  0  0  0  0  0  # atno 17370 bound_to 10713
  157.7100  131.0739  150.6534 LP  0  0  0  0  0  0  0  0  0  0  0  0  # atno 17371 bound_to 10713
  140.7767  134.3772  157.5496 LP  0  0  0  0  0  0  0  0  0  0  0  0  # atno 17394 bound_to 11000
  139.8814  134.9056  156.2903 LP  0  0  0  0  0  0  0  0  0  0  0  0  # atno 17395 bound_to 11000

$$$$
