AV-unprocessed.smi:766|AV-procd|sdf|3652|dock10
  -GOLD-   22720 1 53D 1   1.00000     0.00000
 Structure written by MMmdl.
 47 49  0  0  0  0  0  0  0  0  2 V2000
  152.6619  143.4364  161.7073 C   0  0  0  0  0  0  0  0  0  0  0  0
  152.3626  142.6921  160.4179 C   0  0  0  0  0  0  0  0  0  0  0  0
  152.6123  141.3027  160.3529 C   0  0  0  0  0  0  0  0  0  0  0  0
  152.3468  140.5735  159.1731 C   0  0  0  0  0  0  0  0  0  0  0  0
  152.5110  139.2281  158.8914 N   0  0  0  0  0  0  0  0  0  0  0  0
  152.0878  139.1641  157.6324 C   0  0  0  0  0  0  0  0  0  0  0  0
  151.6700  140.3115  157.0630 N   0  0  0  0  0  0  0  0  0  0  0  0
  151.1673  140.4915  155.7129 C   0  0  0  0  0  0  0  0  0  0  0  0
  150.1120  141.6104  155.6217 C   0  0  1  0  0  0  0  0  0  0  0  0
  149.4975  141.5747  154.3474 O   0  0  0  0  0  0  0  0  0  0  0  0
  149.0276  141.4692  156.7022 C   0  0  0  0  0  0  0  0  0  0  0  0
  147.8228  142.2488  156.3552 N   0  3  0  0  0  0  0  0  0  0  0  0
  146.9007  142.4750  157.4864 C   0  0  0  0  0  0  0  0  0  0  0  0
  147.6419  142.9927  158.7299 C   0  0  0  0  0  0  0  0  0  0  0  0
  146.7337  143.4789  159.7535 N   0  0  0  0  0  0  0  0  0  0  0  0
  145.9538  144.6163  159.7358 C   0  0  0  0  0  0  0  0  0  0  0  0
  145.2674  144.6568  160.9154 C   0  0  0  0  0  0  0  0  0  0  0  0
  145.6982  143.4853  161.5981 C   0  0  0  0  0  0  0  0  0  0  0  0
  146.5769  142.7831  160.9007 N   0  0  0  0  0  0  0  0  0  0  0  0
  151.8221  141.2785  158.0506 C   0  0  0  0  0  0  0  0  0  0  0  0
  151.5701  142.6608  158.1023 C   0  0  0  0  0  0  0  0  0  0  0  0
  151.8387  143.3736  159.2898 C   0  0  0  0  0  0  0  0  0  0  0  0
  151.5591  144.8653  159.3380 C   0  0  0  0  0  0  0  0  0  0  0  0
  153.0722  142.7696  162.4662 H   0  0  0  0  0  0  0  0  0  0  0  0
  151.7527  143.8823  162.1110 H   0  0  0  0  0  0  0  0  0  0  0  0
  153.3887  144.2296  161.5311 H   0  0  0  0  0  0  0  0  0  0  0  0
  153.0103  140.7828  161.2120 H   0  0  0  0  0  0  0  0  0  0  0  0
  152.0837  138.2292  157.0913 H   0  0  0  0  0  0  0  0  0  0  0  0
  152.0085  140.6997  155.0500 H   0  0  0  0  0  0  0  0  0  0  0  0
  150.7398  139.5436  155.3836 H   0  0  0  0  0  0  0  0  0  0  0  0
  150.6078  142.5758  155.7351 H   0  0  0  0  0  0  0  0  0  0  0  0
  148.5764  141.3935  154.4580 H   0  0  0  0  0  0  0  0  0  0  0  0
  148.7631  140.4205  156.8463 H   0  0  0  0  0  0  0  0  0  0  0  0
  149.4097  141.8366  157.6557 H   0  0  0  0  0  0  0  0  0  0  0  0
  148.1105  143.1449  155.9883 H   0  0  0  0  0  0  0  0  0  0  0  0
  146.1221  143.1809  157.1939 H   0  0  0  0  0  0  0  0  0  0  0  0
  146.4042  141.5334  157.7239 H   0  0  0  0  0  0  0  0  0  0  0  0
  148.2370  142.1877  159.1625 H   0  0  0  0  0  0  0  0  0  0  0  0
  148.3411  143.7875  158.4647 H   0  0  0  0  0  0  0  0  0  0  0  0
  145.9513  145.2947  158.8954 H   0  0  0  0  0  0  0  0  0  0  0  0
  144.5632  145.4085  161.2404 H   0  0  0  0  0  0  0  0  0  0  0  0
  145.4010  143.1277  162.5730 H   0  0  0  0  0  0  0  0  0  0  0  0
  151.1719  143.1679  157.2362 H   0  0  0  0  0  0  0  0  0  0  0  0
  151.1223  145.2186  158.4035 H   0  0  0  0  0  0  0  0  0  0  0  0
  152.4812  145.4210  159.5091 H   0  0  0  0  0  0  0  0  0  0  0  0
  150.8596  145.0979  160.1412 H   0  0  0  0  0  0  0  0  0  0  0  0
  147.3221  141.7544  155.6296 H   0  0  0  0  0  0  0  0  0  0  0  0
  1  2  1  0  0  0  0
  1 24  1  0  0  0  0
  1 25  1  0  0  0  0
  1 26  1  0  0  0  0
  2 22  1  0  0  0  0
  2  3  2  0  0  0  0
  3  4  1  0  0  0  0
  3 27  1  0  0  0  0
  4 20  2  0  0  0  0
  4  5  1  0  0  0  0
  5  6  2  0  0  0  0
  6  7  1  0  0  0  0
  6 28  1  0  0  0  0
  7  8  1  0  0  0  0
  7 20  1  0  0  0  0
  8  9  1  0  0  0  0
  8 29  1  0  0  0  0
  8 30  1  0  0  0  0
  9 10  1  0  0  0  0
  9 11  1  0  0  0  0
  9 31  1  0  0  0  0
 10 32  1  0  0  0  0
 11 12  1  0  0  0  0
 11 33  1  0  0  0  0
 11 34  1  0  0  0  0
 12 13  1  0  0  0  0
 12 35  1  0  0  0  0
 12 47  1  0  0  0  0
 13 14  1  0  0  0  0
 13 36  1  0  0  0  0
 13 37  1  0  0  0  0
 14 15  1  0  0  0  0
 14 38  1  0  0  0  0
 14 39  1  0  0  0  0
 15 19  1  0  0  0  0
 15 16  1  0  0  0  0
 16 17  2  0  0  0  0
 16 40  1  0  0  0  0
 17 18  1  0  0  0  0
 17 41  1  0  0  0  0
 18 19  2  0  0  0  0
 18 42  1  0  0  0  0
 20 21  1  0  0  0  0
 21 22  2  0  0  0  0
 21 43  1  0  0  0  0
 22 23  1  0  0  0  0
 23 44  1  0  0  0  0
 23 45  1  0  0  0  0
 23 46  1  0  0  0  0
M  CHG  1  12   1
M  END
> <s_m_source_file>
AV-unprocessed.smi

> <i_m_source_file_index>
766

> <i_lp_mmshare_version>
43012

> <i_f3d_flags>
0

> <s_epik_input>
W0NIM11jKFtjSF0xKWMoW0NIM10pW2NIXWMoYzEyKW4oW2NIXW4yKVtDSDJdW0NASF0oW09IXSlbQ0gyXVtOSF1bQ0gyXVtDSDJdbjNbY0hdW2NIXVtjSF1uMw==

> <s_epik_cmdline>
J2VwaWtfcHl0aG9uJywgJy1waCcsICc3LjAnLCAnLXRuJywgJzgnLCAnLW1hJywgJzIwMCcsICctbWV0YWxfYmluZGluZycsICctaW1hZScsICc8aW5maWxlLm1hZT4nLCAnLW9tYWUnLCAnPG91dGZpbGUubWFlPic=

> <r_lp_tautomer_probability>
1

> <r_epik_Ionization_Penalty>
0.127222

> <r_epik_Ionization_Penalty_Charging>
0.043815

> <r_epik_Ionization_Penalty_Neutral>
0.0834074

> <r_epik_State_Penalty>
0.115563

> <r_epik_Charging_Adjusted_Penalty>
0.159378

> <i_epik_Tot_Q>
1

> <i_epik_Tot_abs_Q>
1

> <r_epik_Metal_State_Penalty>
0.102594

> <b_epik_Metal_Only>
0

> <s_lp_Force_Field>
OPLS_2005

> <r_lp_Energy>
11.1584

> <b_lp_Chiralities_Consistent>
1

> <s_lp_Variant>
AV-unprocessed.smi:766-2

> <Gold.Version>
5.8.1

> <Gold.Id.Protein>
6NUR|6NUR_protein|mol2

> <Gold.PLP.Fitness>
61.5248

> <Gold.PLP.PLP>
-47.8093

> <Gold.PLP.part.hbond>
-5.0000

> <Gold.PLP.part.metal>
0.0000

> <Gold.PLP.part.buried>
-4.3063

> <Gold.PLP.part.nonpolar>
-37.4386

> <Gold.PLP.part.repulsive>
0.0207

> <Gold.PLP.ligand.clash>
0.0000

> <Gold.PLP.ligand.torsion>
0.8306

> <Gold.PLP.Chemscore.Hbond>
4.0825

> <Gold.PLP.Chemscore.CHOScore>
1.0000

> <Gold.PLP.Chemscore.Metal>
0.0000

> <Gold.Chemscore.Hbonds>
donor molecule, donor type, donor heavy atom, donor atom, acceptor molecule, acceptor atom, score
      L1  H    12    35       P1  8028  2.00
      P1  H  6933  6944       L1    19  0.83
      P1  H  6934  6946       L1    19  0.90
      P1  H  7989  7998       L1    10  0.01
      P1  H  8011  8017       L1    10  0.33
      L1  C    16    40       P1  8029  0.90

> <Gold.PLP.Chemscore.Internal.Correction>
0.1290

> <Gold.Rescore>
     Score         DG    S(hbond)    S(metal)    S(lipo)     H(rot)  DE(clash)    DE(int)     intcor
     19.60     -20.66       2.69        0.00     117.15       2.93       0.26       0.80       ----

> <Gold.Chemscore.Fitness>
19.5957

> <Gold.Chemscore.DG>
-20.6557

> <Gold.Chemscore.ZeroCoef>
-5.4800

> <Gold.Chemscore.Hbond>
2.6883

> <Gold.Chemscore.Metal>
0.0000

> <Gold.Chemscore.Lipo>
117.1497

> <Gold.Chemscore.Internal_Hbond>
0.0000

> <Gold.Chemscore.DEClash>
0.2571

> <Gold.Chemscore.DEInternal>
0.8028

> <Gold.Chemscore.Rot>
2.9335

> <Gold.Chemscore.Internal.Correction>
   9.000000E+99

> <Gold.Chemscore.Hbonds>
donor molecule, donor type, donor heavy atom, donor atom, acceptor molecule, acceptor atom, score
      L1  H    12    35       P1  8028  0.65
      P1  H  6933  6944       L1    19  0.35
      P1  H  6934  6946       L1    19  0.79
      P1  H  8011  8017       L1    10  0.23

> <Gold.Chemscore.Hbond.Weighted>
-8.9788

> <Gold.Chemscore.Metal.Weighted>
-0.0000

> <Gold.Chemscore.Lipo.Weighted>
-13.7065

> <Gold.Chemscore.Internal_Hbond.Weighted>
0.0000

> <Gold.Chemscore.DEClash.Weighted>
0.2571

> <Gold.Chemscore.DEInternal.Weighted>
0.8028

> <Gold.Chemscore.Rot.Weighted>
7.5097

> <Gold.Chemscore.Internal.Correction.Weighted>
   9.000000E+99

> <Gold.Protein.RotatedTorsions>
[ 6907 6896 6895 6894 ] final  135.24 input  -60.11 | X-H torsion
[ 7974 7965 7964 7962 ] final -134.57 input  175.53 | X-H torsion
[ 8008 7997 7996 7995 ] final   -3.18 input   59.86 | X-H torsion
[ 10167 10162 10161 10158 ] final   95.48 input  -65.29 | X-H torsion
[ 10718 10713 10712 10709 ] final   76.11 input   66.30 | X-H torsion
[ 10763 10752 10751 10750 ] final -141.55 input  -60.55 | X-H torsion
[ 11005 11000 10999 10996 ] final -159.12 input  -57.11 | X-H torsion

> <Gold.Protein.ActiveResidues>
 VAL166  LYS551  ARG553  GLY616  TRP617  ASP618  TYR619  PRO620  LYS621  CYS622 
 ASP623  PHE694  ASN695  SER759  ASP760  ASP761  ALA762  ILE779  LEU786  VAL792 
 PHE793  MET794  SER795  GLU796  ALA797  LYS798  CYS799  TRP800  GLU811  SER814 

> <Gold.Protein.RotatedAtoms>
  152.3026  133.5671  159.5628 H   0  0  0  0  0  0  0  0  0  0  0  0  # atno 6907 bound_to 6896
  150.7284  134.0269  159.3729 H   0  0  0  0  0  0  0  0  0  0  0  0  # atno 6908 bound_to 6896
  151.8168  135.0664  160.0471 H   0  0  0  0  0  0  0  0  0  0  0  0  # atno 6909 bound_to 6896
  144.9091  140.6871  143.5036 H   0  0  0  0  0  0  0  0  0  0  0  0  # atno 7974 bound_to 7965
  154.6276  140.2515  155.7472 H   0  0  0  0  0  0  0  0  0  0  0  0  # atno 8008 bound_to 7997
  156.2462  140.2913  156.0533 H   0  0  0  0  0  0  0  0  0  0  0  0  # atno 8009 bound_to 7997
  155.1796  140.0388  157.2870 H   0  0  0  0  0  0  0  0  0  0  0  0  # atno 8010 bound_to 7997
  139.7985  144.6823  150.9797 H   0  0  0  0  0  0  0  0  0  0  0  0  # atno 10167 bound_to 10162
  157.6660  130.9758  150.1449 H   0  0  0  0  0  0  0  0  0  0  0  0  # atno 10718 bound_to 10713
  154.8541  135.3521  154.5886 H   0  0  0  0  0  0  0  0  0  0  0  0  # atno 10763 bound_to 10752
  153.6496  135.6994  153.5218 H   0  0  0  0  0  0  0  0  0  0  0  0  # atno 10764 bound_to 10752
  153.2905  135.4236  155.1120 H   0  0  0  0  0  0  0  0  0  0  0  0  # atno 10765 bound_to 10752
  140.6460  134.4500  157.5234 H   0  0  0  0  0  0  0  0  0  0  0  0  # atno 11005 bound_to 11000
  145.3485  139.1712  143.4447 LP  0  0  0  0  0  0  0  0  0  0  0  0  # atno 17320 bound_to 7965
  146.3149  140.3534  142.8658 LP  0  0  0  0  0  0  0  0  0  0  0  0  # atno 17321 bound_to 7965
  140.7820  143.4306  151.0700 LP  0  0  0  0  0  0  0  0  0  0  0  0  # atno 17342 bound_to 10162
  139.7980  143.8124  152.3160 LP  0  0  0  0  0  0  0  0  0  0  0  0  # atno 17343 bound_to 10162
  156.2263  130.3678  149.8497 LP  0  0  0  0  0  0  0  0  0  0  0  0  # atno 17370 bound_to 10713
  156.6336  130.8676  151.3500 LP  0  0  0  0  0  0  0  0  0  0  0  0  # atno 17371 bound_to 10713
  139.9063  134.8443  156.1696 LP  0  0  0  0  0  0  0  0  0  0  0  0  # atno 17394 bound_to 11000
  141.0571  133.6859  156.1882 LP  0  0  0  0  0  0  0  0  0  0  0  0  # atno 17395 bound_to 11000

$$$$
