AV-unprocessed.smi:3345|AV-procd|sdf|12904|dock9
  -GOLD-   2272019313D 1   1.00000     0.00000
 Structure written by MMmdl.
 41 42  0  0  0  0  0  0  0  0  2 V2000
  145.8129  135.9953  153.5115 C   0  0  0  0  0  0  0  0  0  0  0  0
  146.0622  134.8316  152.5426 C   0  0  1  0  0  0  0  0  0  0  0  0
  145.8744  135.2753  151.0732 C   0  0  0  0  0  0  0  0  0  0  0  0
  145.4394  134.1701  150.1821 N   0  3  0  0  0  0  0  0  0  0  0  0
  146.1100  132.8789  150.4694 C   0  0  0  0  0  0  0  0  0  0  0  0
  145.6672  131.8146  149.4521 C   0  0  0  0  0  0  0  0  0  0  0  0
  144.2517  131.6785  149.4933 O   0  0  0  0  0  0  0  0  0  0  0  0
  143.5890  132.8886  149.1477 C   0  0  0  0  0  0  0  0  0  0  0  0
  143.9690  133.9929  150.1491 C   0  0  0  0  0  0  0  0  0  0  0  0
  147.4065  134.3021  152.7743 N   0  0  0  0  0  0  0  0  0  0  0  0
  147.7075  133.1503  153.3967 C   0  0  0  0  0  0  0  0  0  0  0  0
  146.8531  132.3684  153.8150 O   0  0  0  0  0  0  0  0  0  0  0  0
  149.2017  132.8373  153.5640 C   0  0  2  0  0  0  0  0  0  0  0  0
  149.4639  131.3357  153.7981 C   0  0  0  0  0  0  0  0  0  0  0  0
  149.7720  133.6710  154.6147 N   0  0  0  0  0  0  0  0  0  0  0  0
  149.7673  134.9988  154.7526 C   0  0  0  0  0  0  0  0  0  0  0  0
  150.3404  135.4270  155.8685 N   0  0  0  0  0  0  0  0  0  0  0  0
  150.6930  134.2276  156.4187 C   0  0  0  0  0  0  0  0  0  0  0  0
  150.3652  133.1442  155.7151 N   0  0  0  0  0  0  0  0  0  0  0  0
  144.8044  136.3931  153.3947 H   0  0  0  0  0  0  0  0  0  0  0  0
  146.5142  136.8134  153.3421 H   0  0  0  0  0  0  0  0  0  0  0  0
  145.9202  135.6735  154.5482 H   0  0  0  0  0  0  0  0  0  0  0  0
  145.3283  134.0609  152.7826 H   0  0  0  0  0  0  0  0  0  0  0  0
  145.1624  136.0994  151.0057 H   0  0  0  0  0  0  0  0  0  0  0  0
  146.8269  135.6696  150.7155 H   0  0  0  0  0  0  0  0  0  0  0  0
  147.1926  132.9935  150.4249 H   0  0  0  0  0  0  0  0  0  0  0  0
  145.8645  132.5528  151.4813 H   0  0  0  0  0  0  0  0  0  0  0  0
  145.9922  132.0802  148.4446 H   0  0  0  0  0  0  0  0  0  0  0  0
  146.1220  130.8531  149.6908 H   0  0  0  0  0  0  0  0  0  0  0  0
  143.8491  133.1808  148.1290 H   0  0  0  0  0  0  0  0  0  0  0  0
  142.5121  132.7197  149.1656 H   0  0  0  0  0  0  0  0  0  0  0  0
  143.6069  133.7381  151.1465 H   0  0  0  0  0  0  0  0  0  0  0  0
  143.4883  134.9283  149.8605 H   0  0  0  0  0  0  0  0  0  0  0  0
  148.1751  134.8791  152.4637 H   0  0  0  0  0  0  0  0  0  0  0  0
  149.7038  133.1095  152.6338 H   0  0  0  0  0  0  0  0  0  0  0  0
  149.0726  130.7362  152.9756 H   0  0  0  0  0  0  0  0  0  0  0  0
  149.0014  130.9747  154.7176 H   0  0  0  0  0  0  0  0  0  0  0  0
  150.5335  131.1354  153.8675 H   0  0  0  0  0  0  0  0  0  0  0  0
  149.3317  135.6665  154.0238 H   0  0  0  0  0  0  0  0  0  0  0  0
  151.1994  134.1502  157.3697 H   0  0  0  0  0  0  0  0  0  0  0  0
  145.7112  134.4380  149.2467 H   0  0  0  0  0  0  0  0  0  0  0  0
  1  2  1  0  0  0  0
  1 20  1  0  0  0  0
  1 21  1  0  0  0  0
  1 22  1  0  0  0  0
  2  3  1  0  0  0  0
  2 10  1  0  0  0  0
  2 23  1  0  0  0  0
  3  4  1  0  0  0  0
  3 24  1  0  0  0  0
  3 25  1  0  0  0  0
  4  9  1  0  0  0  0
  4  5  1  0  0  0  0
  4 41  1  0  0  0  0
  5  6  1  0  0  0  0
  5 26  1  0  0  0  0
  5 27  1  0  0  0  0
  6  7  1  0  0  0  0
  6 28  1  0  0  0  0
  6 29  1  0  0  0  0
  7  8  1  0  0  0  0
  8  9  1  0  0  0  0
  8 30  1  0  0  0  0
  8 31  1  0  0  0  0
  9 32  1  0  0  0  0
  9 33  1  0  0  0  0
 10 11  1  0  0  0  0
 10 34  1  0  0  0  0
 11 12  2  0  0  0  0
 11 13  1  0  0  0  0
 13 14  1  0  0  0  0
 13 15  1  0  0  0  0
 13 35  1  0  0  0  0
 14 36  1  0  0  0  0
 14 37  1  0  0  0  0
 14 38  1  0  0  0  0
 15 19  1  0  0  0  0
 15 16  1  0  0  0  0
 16 17  2  0  0  0  0
 16 39  1  0  0  0  0
 17 18  1  0  0  0  0
 18 19  2  0  0  0  0
 18 40  1  0  0  0  0
M  CHG  1   4   1
M  END
> <s_m_source_file>
AV-unprocessed.smi

> <i_m_source_file_index>
3345

> <i_lp_mmshare_version>
43012

> <i_f3d_flags>
0

> <s_epik_input>
W0NIMl0xW0NIMl1PW0NIMl1bQ0gyXU4xW0NIMl1bQ0BASF0oW0NIM10pW05IXUMoPU8pW0NASF0oW0NIM10pbjJbY0hdbltjSF1uMg==

> <s_epik_cmdline>
J2VwaWtfcHl0aG9uJywgJy1waCcsICc3LjAnLCAnLXRuJywgJzgnLCAnLW1hJywgJzIwMCcsICctbWV0YWxfYmluZGluZycsICctaW1hZScsICc8aW5maWxlLm1hZT4nLCAnLW9tYWUnLCAnPG91dGZpbGUubWFlPic=

> <r_lp_tautomer_probability>
1

> <r_epik_Ionization_Penalty>
0.71326

> <r_epik_Ionization_Penalty_Charging>
0.713252

> <r_epik_Ionization_Penalty_Neutral>
8.27671e-06

> <r_epik_State_Penalty>
0.737017

> <r_epik_Charging_Adjusted_Penalty>
1.45027

> <i_epik_Tot_Q>
1

> <i_epik_Tot_abs_Q>
1

> <r_epik_Metal_State_Penalty>
0.73702

> <b_epik_Metal_Only>
0

> <s_lp_Force_Field>
OPLS_2005

> <r_lp_Energy>
28.084

> <b_lp_Chiralities_Consistent>
1

> <s_lp_Variant>
AV-unprocessed.smi:3345-6

> <Gold.Version>
5.8.1

> <Gold.Id.Protein>
6NUR|6NUR_protein|mol2

> <Gold.PLP.Fitness>
39.5238

> <Gold.PLP.PLP>
-31.5897

> <Gold.PLP.part.hbond>
-3.0000

> <Gold.PLP.part.metal>
0.0000

> <Gold.PLP.part.buried>
-2.5768

> <Gold.PLP.part.nonpolar>
-27.3763

> <Gold.PLP.part.repulsive>
0.3701

> <Gold.PLP.ligand.clash>
0.0000

> <Gold.PLP.ligand.torsion>
1.2252

> <Gold.PLP.Chemscore.Hbond>
2.4077

> <Gold.PLP.Chemscore.CHOScore>
1.0000

> <Gold.PLP.Chemscore.Metal>
0.0000

> <Gold.Chemscore.Hbonds>
donor molecule, donor type, donor heavy atom, donor atom, acceptor molecule, acceptor atom, score
      L1  H     4    41       P1  7921  1.00
      L1  H    10    34       P1  7948  1.00
      P1  H 10785 10796       L1     7  0.58
      L1  C    16    39       P1  7948  1.00

> <Gold.PLP.Chemscore.Internal.Correction>
0.1615

> <Gold.Rescore>
     Score         DG    S(hbond)    S(metal)    S(lipo)     H(rot)  DE(clash)    DE(int)     intcor
     11.94     -13.81       2.24        0.00      64.46       2.61       0.46       1.41       ----

> <Gold.Chemscore.Fitness>
11.9397

> <Gold.Chemscore.DG>
-13.8107

> <Gold.Chemscore.ZeroCoef>
-5.4800

> <Gold.Chemscore.Hbond>
2.2396

> <Gold.Chemscore.Metal>
0.0000

> <Gold.Chemscore.Lipo>
64.4589

> <Gold.Chemscore.Internal_Hbond>
0.0000

> <Gold.Chemscore.DEClash>
0.4613

> <Gold.Chemscore.DEInternal>
1.4097

> <Gold.Chemscore.Rot>
2.6138

> <Gold.Chemscore.Internal.Correction>
   9.000000E+99

> <Gold.Chemscore.Hbonds>
donor molecule, donor type, donor heavy atom, donor atom, acceptor molecule, acceptor atom, score
      L1  H     4    41       P1  7921  0.82
      L1  H    10    34       P1  7948  0.60
      P1  H 10785 10796       L1     7  0.39

> <Gold.Chemscore.Hbond.Weighted>
-7.4802

> <Gold.Chemscore.Metal.Weighted>
-0.0000

> <Gold.Chemscore.Lipo.Weighted>
-7.5417

> <Gold.Chemscore.Internal_Hbond.Weighted>
0.0000

> <Gold.Chemscore.DEClash.Weighted>
0.4613

> <Gold.Chemscore.DEInternal.Weighted>
1.4097

> <Gold.Chemscore.Rot.Weighted>
6.6912

> <Gold.Chemscore.Internal.Correction.Weighted>
   9.000000E+99

> <Gold.Protein.RotatedTorsions>
[ 6907 6896 6895 6894 ] final  115.02 input  -60.11 | X-H torsion
[ 7974 7965 7964 7962 ] final  175.30 input  175.53 | X-H torsion
[ 8008 7997 7996 7995 ] final  -31.61 input   59.86 | X-H torsion
[ 10167 10162 10161 10158 ] final  151.06 input  -65.29 | X-H torsion
[ 10718 10713 10712 10709 ] final -146.86 input   66.30 | X-H torsion
[ 10763 10752 10751 10750 ] final   67.04 input  -60.55 | X-H torsion
[ 11005 11000 10999 10996 ] final  148.47 input  -57.11 | X-H torsion

> <Gold.Protein.ActiveResidues>
 VAL166  LYS551  ARG553  GLY616  TRP617  ASP618  TYR619  PRO620  LYS621  CYS622 
 ASP623  PHE694  ASN695  SER759  ASP760  ASP761  ALA762  ILE779  LEU786  VAL792 
 PHE793  MET794  SER795  GLU796  ALA797  LYS798  CYS799  TRP800  GLU811  SER814 

> <Gold.Protein.RotatedAtoms>
  152.4767  133.8155  159.7025 H   0  0  0  0  0  0  0  0  0  0  0  0  # atno 6907 bound_to 6896
  150.8789  133.7391  159.2944 H   0  0  0  0  0  0  0  0  0  0  0  0  # atno 6908 bound_to 6896
  151.4901  135.1060  159.9853 H   0  0  0  0  0  0  0  0  0  0  0  0  # atno 6909 bound_to 6896
  144.7204  139.9926  143.6440 H   0  0  0  0  0  0  0  0  0  0  0  0  # atno 7974 bound_to 7965
  154.4208  140.1759  156.1595 H   0  0  0  0  0  0  0  0  0  0  0  0  # atno 8008 bound_to 7997
  155.9850  140.3374  155.6674 H   0  0  0  0  0  0  0  0  0  0  0  0  # atno 8009 bound_to 7997
  155.6449  140.0684  157.2597 H   0  0  0  0  0  0  0  0  0  0  0  0  # atno 8010 bound_to 7997
  139.4844  144.5472  151.7464 H   0  0  0  0  0  0  0  0  0  0  0  0  # atno 10167 bound_to 10162
  156.4002  130.7930  151.2140 H   0  0  0  0  0  0  0  0  0  0  0  0  # atno 10718 bound_to 10713
  153.0167  135.5298  154.6917 H   0  0  0  0  0  0  0  0  0  0  0  0  # atno 10763 bound_to 10752
  154.6050  135.2872  155.0496 H   0  0  0  0  0  0  0  0  0  0  0  0  # atno 10764 bound_to 10752
  154.1539  135.6558  153.5022 H   0  0  0  0  0  0  0  0  0  0  0  0  # atno 10765 bound_to 10752
  140.0963  134.9011  157.1727 H   0  0  0  0  0  0  0  0  0  0  0  0  # atno 11005 bound_to 11000
  146.0400  139.3412  143.0703 LP  0  0  0  0  0  0  0  0  0  0  0  0  # atno 17320 bound_to 7965
  145.8347  140.9612  143.0830 LP  0  0  0  0  0  0  0  0  0  0  0  0  # atno 17321 bound_to 7965
  140.5020  144.1154  150.5973 LP  0  0  0  0  0  0  0  0  0  0  0  0  # atno 17342 bound_to 10162
  140.4051  143.2684  151.9901 LP  0  0  0  0  0  0  0  0  0  0  0  0  # atno 17343 bound_to 10162
  157.7503  131.0289  150.4069 LP  0  0  0  0  0  0  0  0  0  0  0  0  # atno 17370 bound_to 10713
  156.4347  130.3979  149.6737 LP  0  0  0  0  0  0  0  0  0  0  0  0  # atno 17371 bound_to 10713
  140.3282  134.2839  155.7233 LP  0  0  0  0  0  0  0  0  0  0  0  0  # atno 17394 bound_to 11000
  141.2093  133.7753  157.0007 LP  0  0  0  0  0  0  0  0  0  0  0  0  # atno 17395 bound_to 11000

$$$$
