AV-unprocessed.smi:1634|AV-procd|sdf|6537|dock2
  -GOLD-   22720 7223D 1   1.00000     0.00000
 Structure written by MMmdl.
 38 38  0  0  0  0  0  0  0  0  1 V2000
  152.3353  143.6390  161.3447 C   0  0  0  0  0  0  0  0  0  0  0  0
  152.8777  143.5813  159.9078 C   0  0  0  0  0  0  0  0  0  0  0  0
  151.8822  144.2132  158.9238 C   0  0  0  0  0  0  0  0  0  0  0  0
  153.2243  142.1421  159.4936 C   0  0  0  0  0  0  0  0  0  0  0  0
  152.2396  141.6664  158.5816 O   0  0  0  0  0  0  0  0  0  0  0  0
  152.6138  140.5256  157.8138 C   0  0  1  0  0  0  0  0  0  0  0  0
  152.8192  139.3562  158.7882 C   0  0  0  0  0  0  0  0  0  0  0  0
  151.5280  140.2036  156.7742 C   0  0  0  0  0  0  0  0  0  0  0  0
  151.5651  139.1287  156.1762 O   0  0  0  0  0  0  0  0  0  0  0  0
  150.5774  141.1475  156.6251 N   0  0  0  0  0  0  0  0  0  0  0  0
  149.4493  141.1680  155.7871 C   0  0  0  0  0  0  0  0  0  0  0  0
  148.2186  141.6248  156.1393 C   0  0  0  0  0  0  0  0  0  0  0  0
  147.0971  141.6129  155.2150 C   0  0  0  0  0  0  0  0  0  0  0  0
  145.7116  142.0743  155.6400 C   0  0  0  0  0  0  0  0  0  0  0  0
  145.7320  142.6097  156.8613 F   0  0  0  0  0  0  0  0  0  0  0  0
  145.2299  142.9839  154.7925 F   0  0  0  0  0  0  0  0  0  0  0  0
  144.8745  141.0380  155.6548 F   0  0  0  0  0  0  0  0  0  0  0  0
  147.3310  141.0989  153.9936 C   0  0  0  0  0  0  0  0  0  0  0  0
  148.5928  140.6299  153.6222 N   0  0  0  0  0  0  0  0  0  0  0  0
  149.6722  140.6266  154.4359 C   0  0  0  0  0  0  0  0  0  0  0  0
  150.7507  140.1912  154.0342 O   0  0  0  0  0  0  0  0  0  0  0  0
  148.6906  140.2692  152.6841 H   0  0  0  0  0  0  0  0  0  0  0  0
  151.4185  143.0572  161.4460 H   0  0  0  0  0  0  0  0  0  0  0  0
  152.1134  144.6648  161.6399 H   0  0  0  0  0  0  0  0  0  0  0  0
  153.0596  143.2440  162.0576 H   0  0  0  0  0  0  0  0  0  0  0  0
  153.7948  144.1706  159.8702 H   0  0  0  0  0  0  0  0  0  0  0  0
  150.9383  143.6672  158.9094 H   0  0  0  0  0  0  0  0  0  0  0  0
  152.2804  144.2165  157.9088 H   0  0  0  0  0  0  0  0  0  0  0  0
  151.6648  145.2468  159.1943 H   0  0  0  0  0  0  0  0  0  0  0  0
  154.2220  142.1163  159.0542 H   0  0  0  0  0  0  0  0  0  0  0  0
  153.2403  141.4950  160.3719 H   0  0  0  0  0  0  0  0  0  0  0  0
  153.5634  140.7229  157.3125 H   0  0  0  0  0  0  0  0  0  0  0  0
  153.0834  138.4407  158.2576 H   0  0  0  0  0  0  0  0  0  0  0  0
  151.9206  139.1578  159.3738 H   0  0  0  0  0  0  0  0  0  0  0  0
  153.6257  139.5745  159.4885 H   0  0  0  0  0  0  0  0  0  0  0  0
  150.6614  141.9541  157.2271 H   0  0  0  0  0  0  0  0  0  0  0  0
  148.0261  142.0096  157.1265 H   0  0  0  0  0  0  0  0  0  0  0  0
  146.5837  141.0043  153.2195 H   0  0  0  0  0  0  0  0  0  0  0  0
  1  2  1  0  0  0  0
  1 23  1  0  0  0  0
  1 24  1  0  0  0  0
  1 25  1  0  0  0  0
  2  3  1  0  0  0  0
  2  4  1  0  0  0  0
  2 26  1  0  0  0  0
  3 27  1  0  0  0  0
  3 28  1  0  0  0  0
  3 29  1  0  0  0  0
  4  5  1  0  0  0  0
  4 30  1  0  0  0  0
  4 31  1  0  0  0  0
  5  6  1  0  0  0  0
  6  7  1  0  0  0  0
  6  8  1  0  0  0  0
  6 32  1  0  0  0  0
  7 33  1  0  0  0  0
  7 34  1  0  0  0  0
  7 35  1  0  0  0  0
  8  9  2  0  0  0  0
  8 10  1  0  0  0  0
 10 11  1  0  0  0  0
 10 36  1  0  0  0  0
 11 20  1  0  0  0  0
 11 12  2  0  0  0  0
 12 13  1  0  0  0  0
 12 37  1  0  0  0  0
 13 14  1  0  0  0  0
 13 18  2  0  0  0  0
 14 15  1  0  0  0  0
 14 16  1  0  0  0  0
 14 17  1  0  0  0  0
 18 19  1  0  0  0  0
 18 38  1  0  0  0  0
 19 22  1  0  0  0  0
 19 20  1  0  0  0  0
 20 21  2  0  0  0  0
M  END
> <s_m_source_file>
AV-unprocessed.smi

> <i_m_source_file_index>
1634

> <i_lp_mmshare_version>
43012

> <i_f3d_flags>
0

> <s_epik_input>
W0NIM11bQ0hdKFtDSDNdKVtDSDJdT1tDQEhdKFtDSDNdKUMoPU8pW05IXWMxW2NIXWMoQyhGKShGKUYpW2NIXVtuSF1jMT1P

> <s_epik_cmdline>
J2VwaWtfcHl0aG9uJywgJy1waCcsICc3LjAnLCAnLXRuJywgJzgnLCAnLW1hJywgJzIwMCcsICctbWV0YWxfYmluZGluZycsICctaW1hZScsICc8aW5maWxlLm1hZT4nLCAnLW9tYWUnLCAnPG91dGZpbGUubWFlPic=

> <r_lp_tautomer_probability>
0.999

> <r_epik_Ionization_Penalty>
0.00884964

> <r_epik_Ionization_Penalty_Charging>
0.00884955

> <r_epik_Ionization_Penalty_Neutral>
9.33956e-08

> <r_epik_State_Penalty>
0.00669049

> <r_epik_Charging_Adjusted_Penalty>
0.01554

> <i_epik_Tot_Q>
0

> <i_epik_Tot_abs_Q>
0

> <r_epik_Metal_State_Penalty>
0.320763

> <b_epik_Metal_Only>
0

> <s_lp_Force_Field>
OPLS_2005

> <r_lp_Energy>
19.8034

> <b_lp_Chiralities_Consistent>
1

> <s_lp_Variant>
AV-unprocessed.smi:1634-2

> <Gold.Version>
5.8.1

> <Gold.Id.Protein>
6NUR|6NUR_protein|mol2

> <Gold.PLP.Fitness>
43.9317

> <Gold.PLP.PLP>
-40.5234

> <Gold.PLP.part.hbond>
-2.0000

> <Gold.PLP.part.metal>
0.0000

> <Gold.PLP.part.buried>
-3.8151

> <Gold.PLP.part.nonpolar>
-34.8513

> <Gold.PLP.part.repulsive>
0.3389

> <Gold.PLP.ligand.clash>
0.0000

> <Gold.PLP.ligand.torsion>
1.3586

> <Gold.PLP.Chemscore.Hbond>
1.9920

> <Gold.PLP.Chemscore.CHOScore>
0.0000

> <Gold.PLP.Chemscore.Metal>
0.0000

> <Gold.Chemscore.Hbonds>
donor molecule, donor type, donor heavy atom, donor atom, acceptor molecule, acceptor atom, score
      L1  H    19    22       P1  7957  1.00
      P1  H  7989  7998       L1    21  0.24

> <Gold.PLP.Chemscore.Internal.Correction>
0.1496

> <Gold.Rescore>
     Score         DG    S(hbond)    S(metal)    S(lipo)     H(rot)  DE(clash)    DE(int)     intcor
     11.38     -16.71       1.94        0.00      79.79       1.79       0.02       5.32       ----

> <Gold.Chemscore.Fitness>
11.3751

> <Gold.Chemscore.DG>
-16.7120

> <Gold.Chemscore.ZeroCoef>
-5.4800

> <Gold.Chemscore.Hbond>
1.9376

> <Gold.Chemscore.Metal>
0.0000

> <Gold.Chemscore.Lipo>
79.7935

> <Gold.Chemscore.Internal_Hbond>
0.0000

> <Gold.Chemscore.DEClash>
0.0190

> <Gold.Chemscore.DEInternal>
5.3179

> <Gold.Chemscore.Rot>
1.7873

> <Gold.Chemscore.Internal.Correction>
   9.000000E+99

> <Gold.Chemscore.Hbonds>
donor molecule, donor type, donor heavy atom, donor atom, acceptor molecule, acceptor atom, score
      L1  H    19    22       P1  7957  0.97
      P1  H  7989  7998       L1    21  0.25

> <Gold.Chemscore.Hbond.Weighted>
-6.4716

> <Gold.Chemscore.Metal.Weighted>
-0.0000

> <Gold.Chemscore.Lipo.Weighted>
-9.3358

> <Gold.Chemscore.Internal_Hbond.Weighted>
0.0000

> <Gold.Chemscore.DEClash.Weighted>
0.0190

> <Gold.Chemscore.DEInternal.Weighted>
5.3179

> <Gold.Chemscore.Rot.Weighted>
4.5755

> <Gold.Chemscore.Internal.Correction.Weighted>
   9.000000E+99

> <Gold.Protein.RotatedTorsions>
[ 6907 6896 6895 6894 ] final -179.41 input  -60.11 | X-H torsion
[ 7974 7965 7964 7962 ] final -111.81 input  175.53 | X-H torsion
[ 8008 7997 7996 7995 ] final  -94.87 input   59.86 | X-H torsion
[ 10167 10162 10161 10158 ] final  -15.91 input  -65.29 | X-H torsion
[ 10718 10713 10712 10709 ] final   53.38 input   66.30 | X-H torsion
[ 10763 10752 10751 10750 ] final   21.52 input  -60.55 | X-H torsion
[ 11005 11000 10999 10996 ] final -135.40 input  -57.11 | X-H torsion

> <Gold.Protein.ActiveResidues>
 VAL166  LYS551  ARG553  GLY616  TRP617  ASP618  TYR619  PRO620  LYS621  CYS622 
 ASP623  PHE694  ASN695  SER759  ASP760  ASP761  ALA762  ILE779  LEU786  VAL792 
 PHE793  MET794  SER795  GLU796  ALA797  LYS798  CYS799  TRP800  GLU811  SER814 

> <Gold.Protein.RotatedAtoms>
  151.6529  133.3320  159.3155 H   0  0  0  0  0  0  0  0  0  0  0  0  # atno 6907 bound_to 6896
  150.7951  134.7009  159.6559 H   0  0  0  0  0  0  0  0  0  0  0  0  # atno 6908 bound_to 6896
  152.4037  134.6247  160.0111 H   0  0  0  0  0  0  0  0  0  0  0  0  # atno 6909 bound_to 6896
  145.1516  140.8832  143.3643 H   0  0  0  0  0  0  0  0  0  0  0  0  # atno 7974 bound_to 7965
  154.7540  140.0485  157.0917 H   0  0  0  0  0  0  0  0  0  0  0  0  # atno 8008 bound_to 7997
  155.0022  140.3126  155.4843 H   0  0  0  0  0  0  0  0  0  0  0  0  # atno 8009 bound_to 7997
  156.2891  140.2199  156.5132 H   0  0  0  0  0  0  0  0  0  0  0  0  # atno 8010 bound_to 7997
  140.7226  143.5170  150.9679 H   0  0  0  0  0  0  0  0  0  0  0  0  # atno 10167 bound_to 10162
  157.5161  130.8533  149.8498 H   0  0  0  0  0  0  0  0  0  0  0  0  # atno 10718 bound_to 10713
  153.0989  135.6667  153.9711 H   0  0  0  0  0  0  0  0  0  0  0  0  # atno 10763 bound_to 10752
  153.9287  135.3006  155.3447 H   0  0  0  0  0  0  0  0  0  0  0  0  # atno 10764 bound_to 10752
  154.7409  135.5080  153.9195 H   0  0  0  0  0  0  0  0  0  0  0  0  # atno 10765 bound_to 10752
  140.8902  134.1821  157.4533 H   0  0  0  0  0  0  0  0  0  0  0  0  # atno 11005 bound_to 11000
  145.0425  139.3248  143.5969 LP  0  0  0  0  0  0  0  0  0  0  0  0  # atno 17320 bound_to 7965
  146.3494  139.9803  142.8696 LP  0  0  0  0  0  0  0  0  0  0  0  0  # atno 17321 bound_to 7965
  139.8886  143.6981  152.3148 LP  0  0  0  0  0  0  0  0  0  0  0  0  # atno 17342 bound_to 10162
  139.7289  144.7587  151.0834 LP  0  0  0  0  0  0  0  0  0  0  0  0  # atno 17343 bound_to 10162
  156.0321  130.3761  150.1658 LP  0  0  0  0  0  0  0  0  0  0  0  0  # atno 17370 bound_to 10713
  156.9847  130.9875  151.3429 LP  0  0  0  0  0  0  0  0  0  0  0  0  # atno 17371 bound_to 10713
  139.8729  134.9855  156.5285 LP  0  0  0  0  0  0  0  0  0  0  0  0  # atno 17394 bound_to 11000
  140.8356  133.8245  155.9025 LP  0  0  0  0  0  0  0  0  0  0  0  0  # atno 17395 bound_to 11000

$$$$
