AV-unprocessed.smi:193|AV-procd|sdf|1511|dock4
  -GOLD-   2262019343D 1   1.00000     0.00000
 Structure written by MMmdl.
 62 66  0  0  0  0  0  0  0  0  2 V2000
  149.3291  140.7440  154.2984 C   0  0  0  0  0  0  0  0  0  0  0  0
  148.8142  141.5254  155.5182 C   0  0  1  0  0  0  0  0  0  0  0  0
  147.6072  140.7852  156.1299 C   0  0  0  0  0  0  0  0  0  0  0  0
  146.7177  141.6374  156.9219 N   0  0  0  0  0  0  0  0  0  0  0  0
  145.4320  141.2332  157.0972 C   0  0  0  0  0  0  0  0  0  0  0  0
  145.1791  140.1936  157.9362 N   0  0  0  0  0  0  0  0  0  0  0  0
  143.9266  139.7747  158.1380 C   0  0  0  0  0  0  0  0  0  0  0  0
  142.7957  140.2432  157.6085 N   0  0  0  0  0  0  0  0  0  0  0  0
  143.0403  141.2803  156.7578 C   0  0  0  0  0  0  0  0  0  0  0  0
  144.3150  141.8334  156.4457 C   0  0  0  0  0  0  0  0  0  0  0  0
  144.1659  142.8664  155.5265 N   0  0  0  0  0  0  0  0  0  0  0  0
  142.8788  142.9287  155.3194 C   0  0  0  0  0  0  0  0  0  0  0  0
  142.1269  142.0167  156.0242 N   0  0  0  0  0  0  0  0  0  0  0  0
  140.6805  141.8647  155.9847 C   0  0  0  0  0  0  0  0  0  0  0  0
  140.1506  141.2435  154.6685 C   0  0  0  0  0  0  0  0  0  0  0  0
  140.4635  142.1373  153.6141 O   0  0  0  0  0  0  0  0  0  0  0  0
  140.8514  139.8987  154.3897 C   0  0  0  0  0  0  0  0  0  0  0  0
  140.2389  139.1626  153.1848 C   0  0  0  0  0  0  0  0  0  0  0  0
  138.8413  138.9865  153.3808 O   0  0  0  0  0  0  0  0  0  0  0  0
  138.1380  140.2197  153.4656 C   0  0  0  0  0  0  0  0  0  0  0  0
  138.6219  141.0235  154.6857 C   0  0  0  0  0  0  0  0  0  0  0  0
  147.2102  142.7437  157.7419 C   0  0  0  0  0  0  0  0  0  0  0  0
  148.5462  142.4454  158.4362 C   0  0  0  0  0  0  0  0  0  0  0  0
  149.6970  142.7530  157.5540 N   0  3  1  0  0  0  0  0  0  0  0  0
  150.9160  143.0640  158.3348 C   0  0  1  0  0  0  0  0  0  0  0  0
  151.8390  144.0458  157.6499 C   0  0  0  0  0  0  0  0  0  0  0  0
  150.9856  144.4974  158.8153 C   0  0  2  0  0  0  0  0  0  0  0  0
  151.6287  144.8374  160.1419 C   0  0  0  0  0  0  0  0  0  0  0  0
  149.9599  141.7048  156.5378 C   0  0  0  0  0  0  0  0  0  0  0  0
  149.6666  139.7457  154.5791 H   0  0  0  0  0  0  0  0  0  0  0  0
  150.1656  141.2572  153.8226 H   0  0  0  0  0  0  0  0  0  0  0  0
  148.5492  140.6311  153.5445 H   0  0  0  0  0  0  0  0  0  0  0  0
  148.4951  142.5029  155.1529 H   0  0  0  0  0  0  0  0  0  0  0  0
  147.0162  140.3640  155.3147 H   0  0  0  0  0  0  0  0  0  0  0  0
  147.9409  139.9402  156.7335 H   0  0  0  0  0  0  0  0  0  0  0  0
  143.8145  138.9464  158.8221 H   0  0  0  0  0  0  0  0  0  0  0  0
  142.4377  143.6481  154.6445 H   0  0  0  0  0  0  0  0  0  0  0  0
  140.3786  141.2575  156.8392 H   0  0  0  0  0  0  0  0  0  0  0  0
  140.2335  142.8472  156.1406 H   0  0  0  0  0  0  0  0  0  0  0  0
  141.3377  141.9469  153.3098 H   0  0  0  0  0  0  0  0  0  0  0  0
  141.9204  140.0490  154.2330 H   0  0  0  0  0  0  0  0  0  0  0  0
  140.7596  139.2566  155.2667 H   0  0  0  0  0  0  0  0  0  0  0  0
  140.4229  139.7043  152.2559 H   0  0  0  0  0  0  0  0  0  0  0  0
  140.7023  138.1821  153.0745 H   0  0  0  0  0  0  0  0  0  0  0  0
  138.2665  140.7886  152.5437 H   0  0  0  0  0  0  0  0  0  0  0  0
  137.0725  140.0090  153.5584 H   0  0  0  0  0  0  0  0  0  0  0  0
  138.3481  140.4774  155.5894 H   0  0  0  0  0  0  0  0  0  0  0  0
  138.0911  141.9752  154.7301 H   0  0  0  0  0  0  0  0  0  0  0  0
  147.2757  143.6506  157.1398 H   0  0  0  0  0  0  0  0  0  0  0  0
  146.4865  142.9540  158.5299 H   0  0  0  0  0  0  0  0  0  0  0  0
  148.6050  143.0980  159.3085 H   0  0  0  0  0  0  0  0  0  0  0  0
  148.5932  141.4250  158.8200 H   0  0  0  0  0  0  0  0  0  0  0  0
  151.3234  142.2538  158.9374 H   0  0  0  0  0  0  0  0  0  0  0  0
  152.9074  143.9311  157.8223 H   0  0  0  0  0  0  0  0  0  0  0  0
  151.5663  144.4087  156.6605 H   0  0  0  0  0  0  0  0  0  0  0  0
  150.1421  145.1390  158.5654 H   0  0  0  0  0  0  0  0  0  0  0  0
  152.4666  144.1707  160.3487 H   0  0  0  0  0  0  0  0  0  0  0  0
  150.9001  144.7398  160.9467 H   0  0  0  0  0  0  0  0  0  0  0  0
  151.9961  145.8638  160.1273 H   0  0  0  0  0  0  0  0  0  0  0  0
  150.1916  140.7584  157.0294 H   0  0  0  0  0  0  0  0  0  0  0  0
  150.8621  141.9921  155.9961 H   0  0  0  0  0  0  0  0  0  0  0  0
  149.4629  143.5987  157.0541 H   0  0  0  0  0  0  0  0  0  0  0  0
  1  2  1  0  0  0  0
  1 30  1  0  0  0  0
  1 31  1  0  0  0  0
  1 32  1  0  0  0  0
  2 29  1  0  0  0  0
  2  3  1  0  0  0  0
  2 33  1  0  0  0  0
  3  4  1  0  0  0  0
  3 34  1  0  0  0  0
  3 35  1  0  0  0  0
  4  5  1  0  0  0  0
  4 22  1  0  0  0  0
  5 10  1  0  0  0  0
  5  6  2  0  0  0  0
  6  7  1  0  0  0  0
  7  8  2  0  0  0  0
  7 36  1  0  0  0  0
  8  9  1  0  0  0  0
  9 13  1  0  0  0  0
  9 10  2  0  0  0  0
 10 11  1  0  0  0  0
 11 12  2  0  0  0  0
 12 13  1  0  0  0  0
 12 37  1  0  0  0  0
 13 14  1  0  0  0  0
 14 15  1  0  0  0  0
 14 38  1  0  0  0  0
 14 39  1  0  0  0  0
 15 21  1  0  0  0  0
 15 16  1  0  0  0  0
 15 17  1  0  0  0  0
 16 40  1  0  0  0  0
 17 18  1  0  0  0  0
 17 41  1  0  0  0  0
 17 42  1  0  0  0  0
 18 19  1  0  0  0  0
 18 43  1  0  0  0  0
 18 44  1  0  0  0  0
 19 20  1  0  0  0  0
 20 21  1  0  0  0  0
 20 45  1  0  0  0  0
 20 46  1  0  0  0  0
 21 47  1  0  0  0  0
 21 48  1  0  0  0  0
 22 23  1  0  0  0  0
 22 49  1  0  0  0  0
 22 50  1  0  0  0  0
 23 24  1  0  0  0  0
 23 51  1  0  0  0  0
 23 52  1  0  0  0  0
 24 25  1  0  0  0  0
 24 29  1  0  0  0  0
 24 62  1  0  0  0  0
 25 27  1  0  0  0  0
 25 26  1  0  0  0  0
 25 53  1  0  0  0  0
 26 27  1  0  0  0  0
 26 54  1  0  0  0  0
 26 55  1  0  0  0  0
 27 28  1  0  0  0  0
 27 56  1  0  0  0  0
 28 57  1  0  0  0  0
 28 58  1  0  0  0  0
 28 59  1  0  0  0  0
 29 60  1  0  0  0  0
 29 61  1  0  0  0  0
M  CHG  1  24   1
M  END
> <s_m_source_file>
AV-unprocessed.smi

> <i_m_source_file_index>
193

> <i_lp_mmshare_version>
43012

> <i_f3d_flags>
0

> <s_epik_input>
W0NIM11bQ0BASF0xW0NIMl1bQ0BIXTFOKFtDSDJdMilbQ0gyXVtDSDJdTihbQ0gyXVtDQEhdMltDSDNdKWMobltjSF1uMyljKGMzNCluW2NIXW40W0NIMl1DNShbT0hdKVtDSDJdW0NIMl1PW0NIMl1bQ0gyXTU=

> <s_epik_cmdline>
J2VwaWtfcHl0aG9uJywgJy1waCcsICc3LjAnLCAnLXRuJywgJzgnLCAnLW1hJywgJzIwMCcsICctbWV0YWxfYmluZGluZycsICctaW1hZScsICc8aW5maWxlLm1hZT4nLCAnLW9tYWUnLCAnPG91dGZpbGUubWFlPic=

> <r_lp_tautomer_probability>
1

> <r_epik_Ionization_Penalty>
0.0540825

> <r_epik_Ionization_Penalty_Charging>
0.0538476

> <r_epik_Ionization_Penalty_Neutral>
0.000234891

> <r_epik_State_Penalty>
0.0200719

> <r_epik_Charging_Adjusted_Penalty>
0.0739194

> <i_epik_Tot_Q>
1

> <i_epik_Tot_abs_Q>
1

> <r_epik_Metal_State_Penalty>
0.0199414

> <b_epik_Metal_Only>
0

> <s_lp_Force_Field>
OPLS_2005

> <r_lp_Energy>
53.3477

> <b_lp_Chiralities_Consistent>
1

> <s_lp_Variant>
AV-unprocessed.smi:193-16

> <Gold.Version>
5.8.1

> <Gold.Id.Protein>
6NUR|6NUR_protein|mol2

> <Gold.PLP.Fitness>
46.6964

> <Gold.PLP.PLP>
-36.8762

> <Gold.PLP.part.hbond>
-4.0000

> <Gold.PLP.part.metal>
0.0000

> <Gold.PLP.part.buried>
-1.7764

> <Gold.PLP.part.nonpolar>
-31.3230

> <Gold.PLP.part.repulsive>
0.2744

> <Gold.PLP.ligand.clash>
0.0000

> <Gold.PLP.ligand.torsion>
2.2131

> <Gold.PLP.Chemscore.Hbond>
3.7200

> <Gold.PLP.Chemscore.CHOScore>
0.5961

> <Gold.PLP.Chemscore.Metal>
0.0000

> <Gold.Chemscore.Hbonds>
donor molecule, donor type, donor heavy atom, donor atom, acceptor molecule, acceptor atom, score
      L1  H    16    40       P1 10174  0.86
      L1  H    24    62       P1  8028  2.00
      P1  H 10162 10167       L1    16  0.75
      L1  C    12    37       P1 10174  0.20

> <Gold.PLP.Chemscore.Internal.Correction>
1.2981

> <Gold.Rescore>
     Score         DG    S(hbond)    S(metal)    S(lipo)     H(rot)  DE(clash)    DE(int)     intcor
     15.61     -20.34       2.37        0.00     101.57       1.93       1.79       2.95       ----

> <Gold.Chemscore.Fitness>
15.6079

> <Gold.Chemscore.DG>
-20.3450

> <Gold.Chemscore.ZeroCoef>
-5.4800

> <Gold.Chemscore.Hbond>
2.3711

> <Gold.Chemscore.Metal>
0.0000

> <Gold.Chemscore.Lipo>
101.5695

> <Gold.Chemscore.Internal_Hbond>
0.0000

> <Gold.Chemscore.DEClash>
1.7906

> <Gold.Chemscore.DEInternal>
2.9464

> <Gold.Chemscore.Rot>
1.9290

> <Gold.Chemscore.Internal.Correction>
   9.000000E+99

> <Gold.Chemscore.Hbonds>
donor molecule, donor type, donor heavy atom, donor atom, acceptor molecule, acceptor atom, score
      L1  H    16    40       P1 10174  0.63
      L1  H    24    62       P1  8028  0.88
      P1  H 10162 10167       L1    16  0.09

> <Gold.Chemscore.Hbond.Weighted>
-7.9196

> <Gold.Chemscore.Metal.Weighted>
-0.0000

> <Gold.Chemscore.Lipo.Weighted>
-11.8836

> <Gold.Chemscore.Internal_Hbond.Weighted>
0.0000

> <Gold.Chemscore.DEClash.Weighted>
1.7906

> <Gold.Chemscore.DEInternal.Weighted>
2.9464

> <Gold.Chemscore.Rot.Weighted>
4.9383

> <Gold.Chemscore.Internal.Correction.Weighted>
   9.000000E+99

> <Gold.Protein.RotatedTorsions>
[ 6907 6896 6895 6894 ] final -115.57 input  -60.11 | X-H torsion
[ 7974 7965 7964 7962 ] final   32.22 input  175.53 | X-H torsion
[ 8008 7997 7996 7995 ] final  145.39 input   59.86 | X-H torsion
[ 10167 10162 10161 10158 ] final -117.14 input  -65.29 | X-H torsion
[ 10718 10713 10712 10709 ] final -125.70 input   66.30 | X-H torsion
[ 10763 10752 10751 10750 ] final  143.70 input  -60.55 | X-H torsion
[ 11005 11000 10999 10996 ] final  161.66 input  -57.11 | X-H torsion

> <Gold.Protein.ActiveResidues>
 VAL166  LYS551  ARG553  GLY616  TRP617  ASP618  TYR619  PRO620  LYS621  CYS622 
 ASP623  PHE694  ASN695  SER759  ASP760  ASP761  ALA762  ILE779  LEU786  VAL792 
 PHE793  MET794  SER795  GLU796  ALA797  LYS798  CYS799  TRP800  GLU811  SER814 

> <Gold.Protein.RotatedAtoms>
  150.7988  133.8639  159.3239 H   0  0  0  0  0  0  0  0  0  0  0  0  # atno 6907 bound_to 6896
  151.6457  135.1006  160.0160 H   0  0  0  0  0  0  0  0  0  0  0  0  # atno 6908 bound_to 6896
  152.4073  133.6869  159.6402 H   0  0  0  0  0  0  0  0  0  0  0  0  # atno 6909 bound_to 6896
  146.1500  139.6555  142.9105 H   0  0  0  0  0  0  0  0  0  0  0  0  # atno 7974 bound_to 7965
  156.2884  140.2210  156.5208 H   0  0  0  0  0  0  0  0  0  0  0  0  # atno 8008 bound_to 7997
  154.7530  140.0479  157.0932 H   0  0  0  0  0  0  0  0  0  0  0  0  # atno 8009 bound_to 7997
  155.0085  140.3110  155.4842 H   0  0  0  0  0  0  0  0  0  0  0  0  # atno 8010 bound_to 7997
  140.0716  143.4872  152.1977 H   0  0  0  0  0  0  0  0  0  0  0  0  # atno 10167 bound_to 10162
  156.1698  130.6660  151.0165 H   0  0  0  0  0  0  0  0  0  0  0  0  # atno 10718 bound_to 10713
  153.9767  135.2945  155.3423 H   0  0  0  0  0  0  0  0  0  0  0  0  # atno 10763 bound_to 10752
  154.7292  135.5075  153.8939 H   0  0  0  0  0  0  0  0  0  0  0  0  # atno 10764 bound_to 10752
  153.0874  135.6697  154.0035 H   0  0  0  0  0  0  0  0  0  0  0  0  # atno 10765 bound_to 10752
  140.2180  134.8218  157.3190 H   0  0  0  0  0  0  0  0  0  0  0  0  # atno 11005 bound_to 11000
  145.4845  141.0438  143.2627 LP  0  0  0  0  0  0  0  0  0  0  0  0  # atno 17320 bound_to 7965
  144.7893  139.6362  143.7120 LP  0  0  0  0  0  0  0  0  0  0  0  0  # atno 17321 bound_to 7965
  139.5833  144.7520  151.3585 LP  0  0  0  0  0  0  0  0  0  0  0  0  # atno 17342 bound_to 10162
  140.7123  143.7359  150.7589 LP  0  0  0  0  0  0  0  0  0  0  0  0  # atno 17343 bound_to 10162
  157.6795  131.0842  150.7408 LP  0  0  0  0  0  0  0  0  0  0  0  0  # atno 17370 bound_to 10713
  156.7467  130.4756  149.5465 LP  0  0  0  0  0  0  0  0  0  0  0  0  # atno 17371 bound_to 10713
  140.1880  134.4407  155.7732 LP  0  0  0  0  0  0  0  0  0  0  0  0  # atno 17394 bound_to 11000
  141.2224  133.7014  156.7980 LP  0  0  0  0  0  0  0  0  0  0  0  0  # atno 17395 bound_to 11000

$$$$
