AV-unprocessed.smi:2768|AV-procd|sdf|10649|dock7
  -GOLD-   2272015103D 1   1.00000     0.00000
 Structure written by MMmdl.
 35 36  0  0  0  0  0  0  0  0  1 V2000
  150.8354  140.5491  154.9902 O   0  0  0  0  0  0  0  0  0  0  0  0
  150.3868  140.1611  156.0696 C   0  0  0  0  0  0  0  0  0  0  0  0
  149.0985  139.8256  156.2496 N   0  0  0  0  0  0  0  0  0  0  0  0
  148.0475  139.9241  155.2397 C   0  0  1  0  0  0  0  0  0  0  0  0
  148.0801  141.3082  154.5630 C   0  0  0  0  0  0  0  0  0  0  0  0
  146.9843  141.4292  153.4917 C   0  0  0  0  0  0  0  0  0  0  0  0
  147.0970  140.3070  152.4479 C   0  0  0  0  0  0  0  0  0  0  0  0
  147.0752  138.9171  153.1098 C   0  0  0  0  0  0  0  0  0  0  0  0
  148.1499  138.7762  154.2052 C   0  0  1  0  0  0  0  0  0  0  0  0
  149.4293  138.7560  153.5979 O   0  0  0  0  0  0  0  0  0  0  0  0
  151.2986  140.0682  157.3016 C   0  0  0  0  0  0  0  0  0  0  0  0
  150.6452  139.4239  158.2717 F   0  0  0  0  0  0  0  0  0  0  0  0
  152.3841  139.3538  156.9948 F   0  0  0  0  0  0  0  0  0  0  0  0
  151.7065  141.4666  157.7588 C   0  0  0  0  0  0  0  0  0  0  0  0
  152.5647  141.6518  158.8672 C   0  0  0  0  0  0  0  0  0  0  0  0
  152.8924  142.9651  159.2554 C   0  0  0  0  0  0  0  0  0  0  0  0
  152.3527  144.0430  158.5286 C   0  0  0  0  0  0  0  0  0  0  0  0
  151.5046  143.7584  157.4408 C   0  0  0  0  0  0  0  0  0  0  0  0
  151.1836  142.5032  157.0613 N   0  0  0  0  0  0  0  0  0  0  0  0
  147.0832  139.8380  155.7447 H   0  0  0  0  0  0  0  0  0  0  0  0
  148.0163  137.8171  154.7069 H   0  0  0  0  0  0  0  0  0  0  0  0
  148.8166  139.5118  157.1670 H   0  0  0  0  0  0  0  0  0  0  0  0
  147.9477  142.0918  155.3099 H   0  0  0  0  0  0  0  0  0  0  0  0
  149.0560  141.4795  154.1063 H   0  0  0  0  0  0  0  0  0  0  0  0
  146.0031  141.3889  153.9666 H   0  0  0  0  0  0  0  0  0  0  0  0
  147.0499  142.4007  153.0010 H   0  0  0  0  0  0  0  0  0  0  0  0
  146.2812  140.3870  151.7289 H   0  0  0  0  0  0  0  0  0  0  0  0
  148.0195  140.4297  151.8792 H   0  0  0  0  0  0  0  0  0  0  0  0
  146.0925  138.7512  153.5528 H   0  0  0  0  0  0  0  0  0  0  0  0
  147.2018  138.1403  152.3547 H   0  0  0  0  0  0  0  0  0  0  0  0
  149.3864  139.2545  152.7963 H   0  0  0  0  0  0  0  0  0  0  0  0
  152.9629  140.8103  159.4147 H   0  0  0  0  0  0  0  0  0  0  0  0
  153.5449  143.1426  160.0972 H   0  0  0  0  0  0  0  0  0  0  0  0
  152.5823  145.0633  158.7982 H   0  0  0  0  0  0  0  0  0  0  0  0
  151.0713  144.5599  156.8608 H   0  0  0  0  0  0  0  0  0  0  0  0
  1  2  2  0  0  0  0
  2  3  1  0  0  0  0
  2 11  1  0  0  0  0
  3  4  1  0  0  0  0
  3 22  1  0  0  0  0
  4 20  1  0  0  0  0
  4  9  1  0  0  0  0
  4  5  1  0  0  0  0
  5  6  1  0  0  0  0
  5 23  1  0  0  0  0
  5 24  1  0  0  0  0
  6  7  1  0  0  0  0
  6 25  1  0  0  0  0
  6 26  1  0  0  0  0
  7  8  1  0  0  0  0
  7 27  1  0  0  0  0
  7 28  1  0  0  0  0
  8  9  1  0  0  0  0
  8 29  1  0  0  0  0
  8 30  1  0  0  0  0
  9 21  1  0  0  0  0
  9 10  1  0  0  0  0
 10 31  1  0  0  0  0
 11 12  1  0  0  0  0
 11 13  1  0  0  0  0
 11 14  1  0  0  0  0
 14 19  1  0  0  0  0
 14 15  2  0  0  0  0
 15 16  1  0  0  0  0
 15 32  1  0  0  0  0
 16 17  2  0  0  0  0
 16 33  1  0  0  0  0
 17 18  1  0  0  0  0
 17 34  1  0  0  0  0
 18 19  2  0  0  0  0
 18 35  1  0  0  0  0
M  END
> <s_m_source_file>
AV-unprocessed.smi

> <i_m_source_file_index>
2768

> <i_lp_mmshare_version>
43012

> <i_f3d_flags>
0

> <s_epik_input>
bjFbY0hdW2NIXVtjSF1bY0hdYzFDKEYpKEYpQyg9TylbTkhdW0NAQEhdMltDSDJdW0NIMl1bQ0gyXVtDSDJdW0NASF0yW09IXQ==

> <s_epik_cmdline>
J2VwaWtfcHl0aG9uJywgJy1waCcsICc3LjAnLCAnLXRuJywgJzgnLCAnLW1hJywgJzIwMCcsICctbWV0YWxfYmluZGluZycsICctaW1hZScsICc8aW5maWxlLm1hZT4nLCAnLW9tYWUnLCAnPG91dGZpbGUubWFlPic=

> <r_lp_tautomer_probability>
1

> <r_epik_Ionization_Penalty>
4.19456e-05

> <r_epik_Ionization_Penalty_Charging>
0

> <r_epik_Ionization_Penalty_Neutral>
4.19456e-05

> <r_epik_State_Penalty>
-0

> <r_epik_Charging_Adjusted_Penalty>
0

> <i_epik_Tot_Q>
0

> <i_epik_Tot_abs_Q>
0

> <r_epik_Metal_State_Penalty>
0.0354684

> <b_epik_Metal_Only>
0

> <s_lp_Force_Field>
OPLS_2005

> <r_lp_Energy>
19.7139

> <b_lp_Chiralities_Consistent>
1

> <s_lp_Variant>
AV-unprocessed.smi:2768-2

> <Gold.Version>
5.8.1

> <Gold.Id.Protein>
6NUR|6NUR_protein|mol2

> <Gold.PLP.Fitness>
42.5536

> <Gold.PLP.PLP>
-34.3931

> <Gold.PLP.part.hbond>
-2.8655

> <Gold.PLP.part.metal>
0.0000

> <Gold.PLP.part.buried>
-1.2735

> <Gold.PLP.part.nonpolar>
-29.9973

> <Gold.PLP.part.repulsive>
0.1692

> <Gold.PLP.ligand.clash>
0.0000

> <Gold.PLP.ligand.torsion>
0.4203

> <Gold.PLP.Chemscore.Hbond>
1.9920

> <Gold.PLP.Chemscore.CHOScore>
1.0000

> <Gold.PLP.Chemscore.Metal>
0.0000

> <Gold.Chemscore.Hbonds>
donor molecule, donor type, donor heavy atom, donor atom, acceptor molecule, acceptor atom, score
      L1  H    10    31       P1  7957  1.00
      P1  H  7989  7998       L1     1  1.00
      L1  C    18    35       P1  8028  1.00

> <Gold.PLP.Chemscore.Internal.Correction>
0.0251

> <Gold.Rescore>
     Score         DG    S(hbond)    S(metal)    S(lipo)     H(rot)  DE(clash)    DE(int)     intcor
     14.43     -18.02       1.92        0.00      95.91       2.00       0.13       3.46       ----

> <Gold.Chemscore.Fitness>
14.4297

> <Gold.Chemscore.DG>
-18.0157

> <Gold.Chemscore.ZeroCoef>
-5.4800

> <Gold.Chemscore.Hbond>
1.9241

> <Gold.Chemscore.Metal>
0.0000

> <Gold.Chemscore.Lipo>
95.9084

> <Gold.Chemscore.Internal_Hbond>
0.0000

> <Gold.Chemscore.DEClash>
0.1274

> <Gold.Chemscore.DEInternal>
3.4585

> <Gold.Chemscore.Rot>
1.9969

> <Gold.Chemscore.Internal.Correction>
   9.000000E+99

> <Gold.Chemscore.Hbonds>
donor molecule, donor type, donor heavy atom, donor atom, acceptor molecule, acceptor atom, score
      L1  H    10    31       P1  7957  1.00
      P1  H  7989  7998       L1     1  0.94

> <Gold.Chemscore.Hbond.Weighted>
-6.4266

> <Gold.Chemscore.Metal.Weighted>
-0.0000

> <Gold.Chemscore.Lipo.Weighted>
-11.2213

> <Gold.Chemscore.Internal_Hbond.Weighted>
0.0000

> <Gold.Chemscore.DEClash.Weighted>
0.1274

> <Gold.Chemscore.DEInternal.Weighted>
3.4585

> <Gold.Chemscore.Rot.Weighted>
5.1122

> <Gold.Chemscore.Internal.Correction.Weighted>
   9.000000E+99

> <Gold.Protein.RotatedTorsions>
[ 6907 6896 6895 6894 ] final  -52.38 input  -60.11 | X-H torsion
[ 7974 7965 7964 7962 ] final  -39.78 input  175.53 | X-H torsion
[ 8008 7997 7996 7995 ] final   43.05 input   59.86 | X-H torsion
[ 10167 10162 10161 10158 ] final  108.39 input  -65.29 | X-H torsion
[ 10718 10713 10712 10709 ] final  100.85 input   66.30 | X-H torsion
[ 10763 10752 10751 10750 ] final   -0.00 input  -60.55 | X-H torsion
[ 11005 11000 10999 10996 ] final -142.89 input  -57.11 | X-H torsion

> <Gold.Protein.ActiveResidues>
 VAL166  LYS551  ARG553  GLY616  TRP617  ASP618  TYR619  PRO620  LYS621  CYS622 
 ASP623  PHE694  ASN695  SER759  ASP760  ASP761  ALA762  ILE779  LEU786  VAL792 
 PHE793  MET794  SER795  GLU796  ALA797  LYS798  CYS799  TRP800  GLU811  SER814 

> <Gold.Protein.RotatedAtoms>
  150.8523  134.7852  159.7018 H   0  0  0  0  0  0  0  0  0  0  0  0  # atno 6907 bound_to 6896
  152.4585  134.5235  159.9799 H   0  0  0  0  0  0  0  0  0  0  0  0  # atno 6908 bound_to 6896
  151.5354  133.3404  159.2961 H   0  0  0  0  0  0  0  0  0  0  0  0  # atno 6909 bound_to 6896
  146.0365  140.6664  142.9107 H   0  0  0  0  0  0  0  0  0  0  0  0  # atno 7974 bound_to 7965
  155.2963  140.3382  155.4250 H   0  0  0  0  0  0  0  0  0  0  0  0  # atno 8008 bound_to 7997
  156.2022  140.1737  156.7914 H   0  0  0  0  0  0  0  0  0  0  0  0  # atno 8009 bound_to 7997
  154.5574  140.0694  156.8750 H   0  0  0  0  0  0  0  0  0  0  0  0  # atno 8010 bound_to 7997
  139.6850  144.7114  151.1448 H   0  0  0  0  0  0  0  0  0  0  0  0  # atno 10167 bound_to 10162
  157.6844  131.0710  150.5163 H   0  0  0  0  0  0  0  0  0  0  0  0  # atno 10718 bound_to 10713
  153.3263  135.6972  153.6987 H   0  0  0  0  0  0  0  0  0  0  0  0  # atno 10763 bound_to 10752
  153.5807  135.3498  155.2874 H   0  0  0  0  0  0  0  0  0  0  0  0  # atno 10764 bound_to 10752
  154.8608  135.4294  154.2440 H   0  0  0  0  0  0  0  0  0  0  0  0  # atno 10765 bound_to 10752
  140.8180  134.2665  157.4913 H   0  0  0  0  0  0  0  0  0  0  0  0  # atno 11005 bound_to 11000
  144.7054  140.3831  143.7122 LP  0  0  0  0  0  0  0  0  0  0  0  0  # atno 17320 bound_to 7965
  145.6955  139.1649  143.2623 LP  0  0  0  0  0  0  0  0  0  0  0  0  # atno 17321 bound_to 7965
  140.7665  143.5642  150.9065 LP  0  0  0  0  0  0  0  0  0  0  0  0  # atno 17342 bound_to 10162
  139.9317  143.6486  152.3075 LP  0  0  0  0  0  0  0  0  0  0  0  0  # atno 17343 bound_to 10162
  156.5478  130.4224  149.6122 LP  0  0  0  0  0  0  0  0  0  0  0  0  # atno 17370 bound_to 10713
  156.2929  130.7134  151.1987 LP  0  0  0  0  0  0  0  0  0  0  0  0  # atno 17371 bound_to 10713
  139.8710  134.9519  156.4100 LP  0  0  0  0  0  0  0  0  0  0  0  0  # atno 17394 bound_to 11000
  140.9129  133.7699  155.9813 LP  0  0  0  0  0  0  0  0  0  0  0  0  # atno 17395 bound_to 11000

$$$$
