AV-unprocessed.smi:3056|AV-procd|sdf|11657|dock5
  -GOLD-   2272017 63D 1   1.00000     0.00000
 Structure written by MMmdl.
 47 48  0  0  0  0  0  0  0  0  1 V2000
  151.7266  144.7192  158.7568 C   0  0  0  0  0  0  0  0  0  0  0  0
  151.6552  143.2496  158.4579 C   0  0  0  0  0  0  0  0  0  0  0  0
  152.3788  142.1941  159.0813 C   0  0  0  0  0  0  0  0  0  0  0  0
  152.0827  141.0047  158.5846 N   0  0  0  0  0  0  0  0  0  0  0  0
  151.1643  141.2555  157.6244 N   0  0  0  0  0  0  0  0  0  0  0  0
  150.5926  140.1621  156.8478 C   0  0  2  0  0  0  0  0  0  0  0  0
  150.6156  140.5173  155.3477 C   0  0  0  0  0  0  0  0  0  0  0  0
  149.1761  139.7639  157.3457 C   0  0  2  0  0  0  0  0  0  0  0  0
  148.3435  140.9682  157.8374 C   0  0  0  0  0  0  0  0  0  0  0  0
  149.3322  138.8145  158.4445 N   0  0  0  0  0  0  0  0  0  0  0  0
  148.2009  137.8829  158.5509 C   0  0  0  0  0  0  0  0  0  0  0  0
  148.5275  136.7049  159.4760 C   0  0  0  0  0  0  0  0  0  0  0  0
  149.6986  136.3283  159.5303 O   0  0  0  0  0  0  0  0  0  0  0  0
  147.5407  136.1165  160.1955 N   0  0  0  0  0  0  0  0  0  0  0  0
  147.6990  135.0165  161.1515 C   0  0  0  0  0  0  0  0  0  0  0  0
  147.3350  135.5414  162.5509 C   0  0  0  0  0  0  0  0  0  0  0  0
  146.0016  136.0464  162.5400 O   0  0  0  0  0  0  0  0  0  0  0  0
  145.8002  137.0981  161.5965 C   0  0  2  0  0  0  0  0  0  0  0  0
  144.3426  137.5611  161.6978 C   0  0  0  0  0  0  0  0  0  0  0  0
  146.1528  136.5863  160.1850 C   0  0  0  0  0  0  0  0  0  0  0  0
  150.8889  142.6039  157.5295 C   0  0  0  0  0  0  0  0  0  0  0  0
  152.1669  144.9125  159.7352 H   0  0  0  0  0  0  0  0  0  0  0  0
  150.7387  145.1804  158.7536 H   0  0  0  0  0  0  0  0  0  0  0  0
  152.3322  145.2488  158.0214 H   0  0  0  0  0  0  0  0  0  0  0  0
  153.1058  142.2572  159.8776 H   0  0  0  0  0  0  0  0  0  0  0  0
  151.2539  139.3056  156.9925 H   0  0  0  0  0  0  0  0  0  0  0  0
  150.3107  139.6727  154.7299 H   0  0  0  0  0  0  0  0  0  0  0  0
  151.6187  140.8037  155.0303 H   0  0  0  0  0  0  0  0  0  0  0  0
  149.9468  141.3488  155.1225 H   0  0  0  0  0  0  0  0  0  0  0  0
  148.6500  139.2845  156.5179 H   0  0  0  0  0  0  0  0  0  0  0  0
  148.1665  141.6877  157.0381 H   0  0  0  0  0  0  0  0  0  0  0  0
  148.8505  141.4935  158.6474 H   0  0  0  0  0  0  0  0  0  0  0  0
  147.3619  140.6682  158.2023 H   0  0  0  0  0  0  0  0  0  0  0  0
  150.1938  138.3058  158.3054 H   0  0  0  0  0  0  0  0  0  0  0  0
  147.2992  138.3849  158.8999 H   0  0  0  0  0  0  0  0  0  0  0  0
  147.9655  137.4934  157.5591 H   0  0  0  0  0  0  0  0  0  0  0  0
  147.0303  134.2009  160.8737 H   0  0  0  0  0  0  0  0  0  0  0  0
  148.6972  134.5841  161.1691 H   0  0  0  0  0  0  0  0  0  0  0  0
  147.4025  134.7387  163.2849 H   0  0  0  0  0  0  0  0  0  0  0  0
  148.0285  136.3227  162.8660 H   0  0  0  0  0  0  0  0  0  0  0  0
  146.4509  137.9351  161.8564 H   0  0  0  0  0  0  0  0  0  0  0  0
  144.1408  138.3770  161.0034 H   0  0  0  0  0  0  0  0  0  0  0  0
  144.1157  137.9171  162.7028 H   0  0  0  0  0  0  0  0  0  0  0  0
  143.6533  136.7481  161.4689 H   0  0  0  0  0  0  0  0  0  0  0  0
  145.9791  137.3747  159.4513 H   0  0  0  0  0  0  0  0  0  0  0  0
  145.4954  135.7624  159.9032 H   0  0  0  0  0  0  0  0  0  0  0  0
  150.1764  142.9898  156.8150 H   0  0  0  0  0  0  0  0  0  0  0  0
  1  2  1  0  0  0  0
  1 22  1  0  0  0  0
  1 23  1  0  0  0  0
  1 24  1  0  0  0  0
  2 21  2  0  0  0  0
  2  3  1  0  0  0  0
  3  4  2  0  0  0  0
  3 25  1  0  0  0  0
  4  5  1  0  0  0  0
  5  6  1  0  0  0  0
  5 21  1  0  0  0  0
  6  7  1  0  0  0  0
  6  8  1  0  0  0  0
  6 26  1  0  0  0  0
  7 27  1  0  0  0  0
  7 28  1  0  0  0  0
  7 29  1  0  0  0  0
  8  9  1  0  0  0  0
  8 10  1  0  0  0  0
  8 30  1  0  0  0  0
  9 31  1  0  0  0  0
  9 32  1  0  0  0  0
  9 33  1  0  0  0  0
 10 11  1  0  0  0  0
 10 34  1  0  0  0  0
 11 12  1  0  0  0  0
 11 35  1  0  0  0  0
 11 36  1  0  0  0  0
 12 13  2  0  0  0  0
 12 14  1  0  0  0  0
 14 20  1  0  0  0  0
 14 15  1  0  0  0  0
 15 16  1  0  0  0  0
 15 37  1  0  0  0  0
 15 38  1  0  0  0  0
 16 17  1  0  0  0  0
 16 39  1  0  0  0  0
 16 40  1  0  0  0  0
 17 18  1  0  0  0  0
 18 19  1  0  0  0  0
 18 20  1  0  0  0  0
 18 41  1  0  0  0  0
 19 42  1  0  0  0  0
 19 43  1  0  0  0  0
 19 44  1  0  0  0  0
 20 45  1  0  0  0  0
 20 46  1  0  0  0  0
 21 47  1  0  0  0  0
M  END
> <s_m_source_file>
AV-unprocessed.smi

> <i_m_source_file_index>
3056

> <i_lp_mmshare_version>
43012

> <i_f3d_flags>
0

> <s_epik_input>
W0NIM11jMVtjSF1ubihbY0hdMSlbQ0BIXShbQ0gzXSlbQ0BIXShbQ0gzXSlbTkhdW0NIMl1DKD1PKU4yW0NIMl1bQ0gyXU9bQ0BASF0oW0NIM10pW0NIMl0y

> <s_epik_cmdline>
J2VwaWtfcHl0aG9uJywgJy1waCcsICc3LjAnLCAnLXRuJywgJzgnLCAnLW1hJywgJzIwMCcsICctbWV0YWxfYmluZGluZycsICctaW1hZScsICc8aW5maWxlLm1hZT4nLCAnLW9tYWUnLCAnPG91dGZpbGUubWFlPic=

> <r_lp_tautomer_probability>
1

> <r_epik_Ionization_Penalty>
0.667689

> <r_epik_Ionization_Penalty_Charging>
0

> <r_epik_Ionization_Penalty_Neutral>
0.667689

> <r_epik_State_Penalty>
0.684601

> <r_epik_Charging_Adjusted_Penalty>
0.684601

> <i_epik_Tot_Q>
0

> <i_epik_Tot_abs_Q>
0

> <r_epik_Metal_State_Penalty>
0.681448

> <b_epik_Metal_Only>
0

> <s_lp_Force_Field>
OPLS_2005

> <r_lp_Energy>
28.8183

> <b_lp_Chiralities_Consistent>
1

> <s_lp_Variant>
AV-unprocessed.smi:3056-13

> <Gold.Version>
5.8.1

> <Gold.Id.Protein>
6NUR|6NUR_protein|mol2

> <Gold.PLP.Fitness>
38.8816

> <Gold.PLP.PLP>
-36.3110

> <Gold.PLP.part.hbond>
-1.0000

> <Gold.PLP.part.metal>
0.0000

> <Gold.PLP.part.buried>
-3.8690

> <Gold.PLP.part.nonpolar>
-31.3917

> <Gold.PLP.part.repulsive>
0.0000

> <Gold.PLP.ligand.clash>
0.0000

> <Gold.PLP.ligand.torsion>
1.7802

> <Gold.PLP.Chemscore.Hbond>
1.0000

> <Gold.PLP.Chemscore.CHOScore>
1.0000

> <Gold.PLP.Chemscore.Metal>
0.0000

> <Gold.Chemscore.Hbonds>
donor molecule, donor type, donor heavy atom, donor atom, acceptor molecule, acceptor atom, score
      P1  H  6896  6907       L1    13  1.00
      L1  C    21    47       P1  8028  1.00

> <Gold.PLP.Chemscore.Internal.Correction>
0.1310

> <Gold.Rescore>
     Score         DG    S(hbond)    S(metal)    S(lipo)     H(rot)  DE(clash)    DE(int)     intcor
     12.90     -14.53       1.00        0.00      85.60       1.68       0.01       1.62       ----

> <Gold.Chemscore.Fitness>
12.8956

> <Gold.Chemscore.DG>
-14.5300

> <Gold.Chemscore.ZeroCoef>
-5.4800

> <Gold.Chemscore.Hbond>
0.9983

> <Gold.Chemscore.Metal>
0.0000

> <Gold.Chemscore.Lipo>
85.5970

> <Gold.Chemscore.Internal_Hbond>
0.0000

> <Gold.Chemscore.DEClash>
0.0110

> <Gold.Chemscore.DEInternal>
1.6234

> <Gold.Chemscore.Rot>
1.6793

> <Gold.Chemscore.Internal.Correction>
   9.000000E+99

> <Gold.Chemscore.Hbonds>
donor molecule, donor type, donor heavy atom, donor atom, acceptor molecule, acceptor atom, score
      P1  H  6896  6907       L1    13  0.99

> <Gold.Chemscore.Hbond.Weighted>
-3.3342

> <Gold.Chemscore.Metal.Weighted>
-0.0000

> <Gold.Chemscore.Lipo.Weighted>
-10.0149

> <Gold.Chemscore.Internal_Hbond.Weighted>
0.0000

> <Gold.Chemscore.DEClash.Weighted>
0.0110

> <Gold.Chemscore.DEInternal.Weighted>
1.6234

> <Gold.Chemscore.Rot.Weighted>
4.2990

> <Gold.Chemscore.Internal.Correction.Weighted>
   9.000000E+99

> <Gold.Protein.RotatedTorsions>
[ 6907 6896 6895 6894 ] final  -58.41 input  -60.11 | X-H torsion
[ 7974 7965 7964 7962 ] final  -48.16 input  175.53 | X-H torsion
[ 8008 7997 7996 7995 ] final  -29.74 input   59.86 | X-H torsion
[ 10167 10162 10161 10158 ] final  100.42 input  -65.29 | X-H torsion
[ 10718 10713 10712 10709 ] final  -52.46 input   66.30 | X-H torsion
[ 10763 10752 10751 10750 ] final   91.62 input  -60.55 | X-H torsion
[ 11005 11000 10999 10996 ] final -121.01 input  -57.11 | X-H torsion

> <Gold.Protein.ActiveResidues>
 VAL166  LYS551  ARG553  GLY616  TRP617  ASP618  TYR619  PRO620  LYS621  CYS622 
 ASP623  PHE694  ASN695  SER759  ASP760  ASP761  ALA762  ILE779  LEU786  VAL792 
 PHE793  MET794  SER795  GLU796  ALA797  LYS798  CYS799  TRP800  GLU811  SER814 

> <Gold.Protein.RotatedAtoms>
  150.8009  134.7103  159.6599 H   0  0  0  0  0  0  0  0  0  0  0  0  # atno 6907 bound_to 6896
  152.4126  134.6094  160.0031 H   0  0  0  0  0  0  0  0  0  0  0  0  # atno 6908 bound_to 6896
  151.6333  133.3293  159.3150 H   0  0  0  0  0  0  0  0  0  0  0  0  # atno 6909 bound_to 6896
  145.9541  140.7544  142.9490 H   0  0  0  0  0  0  0  0  0  0  0  0  # atno 7974 bound_to 7965
  154.4278  140.1810  156.1296 H   0  0  0  0  0  0  0  0  0  0  0  0  # atno 8008 bound_to 7997
  156.0078  140.3353  155.6885 H   0  0  0  0  0  0  0  0  0  0  0  0  # atno 8009 bound_to 7997
  155.6153  140.0654  157.2685 H   0  0  0  0  0  0  0  0  0  0  0  0  # atno 8010 bound_to 7997
  139.7528  144.6978  151.0406 H   0  0  0  0  0  0  0  0  0  0  0  0  # atno 10167 bound_to 10162
  156.1619  130.4149  149.9780 H   0  0  0  0  0  0  0  0  0  0  0  0  # atno 10718 bound_to 10713
  153.2102  135.4391  155.0371 H   0  0  0  0  0  0  0  0  0  0  0  0  # atno 10763 bound_to 10752
  154.8196  135.3331  154.7080 H   0  0  0  0  0  0  0  0  0  0  0  0  # atno 10764 bound_to 10752
  153.7518  135.6997  153.5000 H   0  0  0  0  0  0  0  0  0  0  0  0  # atno 10765 bound_to 10752
  141.0101  134.0277  157.3425 H   0  0  0  0  0  0  0  0  0  0  0  0  # atno 11005 bound_to 11000
  144.6801  140.2482  143.7335 LP  0  0  0  0  0  0  0  0  0  0  0  0  # atno 17320 bound_to 7965
  145.8131  139.2011  143.1981 LP  0  0  0  0  0  0  0  0  0  0  0  0  # atno 17321 bound_to 7965
  140.7799  143.4788  151.0046 LP  0  0  0  0  0  0  0  0  0  0  0  0  # atno 17342 bound_to 10162
  139.8475  143.7481  152.3179 LP  0  0  0  0  0  0  0  0  0  0  0  0  # atno 17343 bound_to 10162
  156.7606  130.9149  151.3641 LP  0  0  0  0  0  0  0  0  0  0  0  0  # atno 17370 bound_to 10713
  157.6739  130.9076  150.0104 LP  0  0  0  0  0  0  0  0  0  0  0  0  # atno 17371 bound_to 10713
  139.9085  135.0185  156.7591 LP  0  0  0  0  0  0  0  0  0  0  0  0  # atno 17394 bound_to 11000
  140.6747  133.9528  155.7876 LP  0  0  0  0  0  0  0  0  0  0  0  0  # atno 17395 bound_to 11000

$$$$
