AV-unprocessed.smi:2706|AV-procd|sdf|10455|dock10
  -GOLD-   2272014493D 1   1.00000     0.00000
 Structure written by MMmdl.
 43 46  0  0  0  0  0  0  0  0  1 V2000
  154.9521  140.8841  161.4276 C   0  0  0  0  0  0  0  0  0  0  0  0
  154.0629  140.8288  160.2798 N   0  0  0  0  0  0  0  0  0  0  0  0
  153.8286  139.5082  159.7209 C   0  0  0  0  0  0  0  0  0  0  0  0
  153.2653  141.9041  159.9379 C   0  0  0  0  0  0  0  0  0  0  0  0
  153.3126  143.0251  160.6826 C   0  0  0  0  0  0  0  0  0  0  0  0
  152.4784  144.1543  160.3277 C   0  0  0  0  0  0  0  0  0  0  0  0
  151.6532  144.1024  159.2622 C   0  0  0  0  0  0  0  0  0  0  0  0
  151.5730  142.9114  158.4336 C   0  0  0  0  0  0  0  0  0  0  0  0
  150.7680  142.8885  157.4108 N   0  0  0  0  0  0  0  0  0  0  0  0
  150.6406  141.7837  156.5755 C   0  0  0  0  0  0  0  0  0  0  0  0
  151.2839  140.7299  156.5819 O   0  0  0  0  0  0  0  0  0  0  0  0
  149.6614  142.0033  155.6871 N   0  0  0  0  0  0  0  0  0  0  0  0
  149.2282  141.1072  154.6633 C   0  0  2  0  0  0  0  0  0  0  0  0
  147.7650  141.0105  154.2706 C   0  0  2  0  0  0  0  0  0  0  0  0
  146.4862  141.2226  155.0891 C   0  0  2  0  0  0  0  0  0  0  0  0
  146.7477  141.8183  156.4873 C   0  0  0  0  0  0  0  0  0  0  0  0
  147.4334  140.6462  157.2228 C   0  0  0  0  0  0  0  0  0  0  0  0
  147.4650  139.5496  156.1392 C   0  0  1  0  0  0  0  0  0  0  0  0
  146.1199  139.7907  155.4632 C   0  0  0  0  0  0  0  0  0  0  0  0
  148.4431  139.8519  154.9979 C   0  0  2  0  0  0  0  0  0  0  0  0
  152.4111  141.8549  158.8375 N   0  0  0  0  0  0  0  0  0  0  0  0
  155.2697  141.9092  161.6212 H   0  0  0  0  0  0  0  0  0  0  0  0
  155.8442  140.2807  161.2577 H   0  0  0  0  0  0  0  0  0  0  0  0
  154.4449  140.5090  162.3167 H   0  0  0  0  0  0  0  0  0  0  0  0
  153.3694  139.5819  158.7346 H   0  0  0  0  0  0  0  0  0  0  0  0
  153.1615  138.9374  160.3672 H   0  0  0  0  0  0  0  0  0  0  0  0
  154.7644  138.9583  159.6173 H   0  0  0  0  0  0  0  0  0  0  0  0
  153.9665  143.0887  161.5406 H   0  0  0  0  0  0  0  0  0  0  0  0
  152.5179  145.0524  160.9265 H   0  0  0  0  0  0  0  0  0  0  0  0
  151.0554  144.9763  159.0474 H   0  0  0  0  0  0  0  0  0  0  0  0
  149.1768  142.8878  155.7399 H   0  0  0  0  0  0  0  0  0  0  0  0
  149.9203  140.9897  153.8309 H   0  0  0  0  0  0  0  0  0  0  0  0
  147.5743  140.8548  153.2103 H   0  0  0  0  0  0  0  0  0  0  0  0
  145.7214  141.7519  154.5202 H   0  0  0  0  0  0  0  0  0  0  0  0
  147.3376  142.7334  156.4603 H   0  0  0  0  0  0  0  0  0  0  0  0
  145.8045  142.0653  156.9761 H   0  0  0  0  0  0  0  0  0  0  0  0
  148.4188  140.8852  157.6202 H   0  0  0  0  0  0  0  0  0  0  0  0
  146.8218  140.3264  158.0675 H   0  0  0  0  0  0  0  0  0  0  0  0
  147.5992  138.5424  156.5347 H   0  0  0  0  0  0  0  0  0  0  0  0
  145.2653  139.7146  156.1385 H   0  0  0  0  0  0  0  0  0  0  0  0
  145.9497  139.1478  154.5976 H   0  0  0  0  0  0  0  0  0  0  0  0
  148.6711  138.9804  154.3868 H   0  0  0  0  0  0  0  0  0  0  0  0
  152.4203  140.9883  158.3191 H   0  0  0  0  0  0  0  0  0  0  0  0
  1  2  1  0  0  0  0
  1 22  1  0  0  0  0
  1 23  1  0  0  0  0
  1 24  1  0  0  0  0
  2  3  1  0  0  0  0
  2  4  1  0  0  0  0
  3 25  1  0  0  0  0
  3 26  1  0  0  0  0
  3 27  1  0  0  0  0
  4 21  1  0  0  0  0
  4  5  2  0  0  0  0
  5  6  1  0  0  0  0
  5 28  1  0  0  0  0
  6  7  2  0  0  0  0
  6 29  1  0  0  0  0
  7  8  1  0  0  0  0
  7 30  1  0  0  0  0
  8  9  2  0  0  0  0
  8 21  1  0  0  0  0
  9 10  1  0  0  0  0
 10 11  2  0  0  0  0
 10 12  1  0  0  0  0
 12 13  1  0  0  0  0
 12 31  1  0  0  0  0
 13 20  1  0  0  0  0
 13 14  1  0  0  0  0
 13 32  1  0  0  0  0
 14 20  1  0  0  0  0
 14 15  1  0  0  0  0
 14 33  1  0  0  0  0
 15 19  1  0  0  0  0
 15 16  1  0  0  0  0
 15 34  1  0  0  0  0
 16 17  1  0  0  0  0
 16 35  1  0  0  0  0
 16 36  1  0  0  0  0
 17 18  1  0  0  0  0
 17 37  1  0  0  0  0
 17 38  1  0  0  0  0
 18 19  1  0  0  0  0
 18 20  1  0  0  0  0
 18 39  1  0  0  0  0
 19 40  1  0  0  0  0
 19 41  1  0  0  0  0
 20 42  1  0  0  0  0
 21 43  1  0  0  0  0
M  END
> <s_m_source_file>
AV-unprocessed.smi

> <i_m_source_file_index>
2706

> <i_lp_mmshare_version>
43012

> <i_f3d_flags>
0

> <s_epik_input>
W0NIM11OKFtDSDNdKWMxW2NIXVtjSF1bY0hdYyhuMSlbTkhdQyg9TylbTkhdW0NASF0yW0NAQEhdM1tDQEBIXShbQ0gyXTQpW0NIMl1bQ0gyXVtDQEBIXTRbQ0BIXTIz

> <s_epik_cmdline>
J2VwaWtfcHl0aG9uJywgJy1waCcsICc3LjAnLCAnLXRuJywgJzgnLCAnLW1hJywgJzIwMCcsICctbWV0YWxfYmluZGluZycsICctaW1hZScsICc8aW5maWxlLm1hZT4nLCAnLW9tYWUnLCAnPG91dGZpbGUubWFlPic=

> <r_lp_tautomer_probability>
0.999994

> <r_epik_Ionization_Penalty>
2.07242

> <r_epik_Ionization_Penalty_Charging>
2.07242

> <r_epik_Ionization_Penalty_Neutral>
9.73808e-07

> <r_epik_State_Penalty>
3.96009

> <r_epik_Charging_Adjusted_Penalty>
6.03251

> <i_epik_Tot_Q>
0

> <i_epik_Tot_abs_Q>
0

> <r_epik_Metal_State_Penalty>
3.98849

> <b_epik_Metal_Only>
1

> <s_lp_Force_Field>
OPLS_2005

> <r_lp_Energy>
108.692

> <b_lp_Chiralities_Consistent>
1

> <s_lp_Variant>
AV-unprocessed.smi:2706-12

> <Gold.Version>
5.8.1

> <Gold.Id.Protein>
6NUR|6NUR_protein|mol2

> <Gold.PLP.Fitness>
43.7414

> <Gold.PLP.PLP>
-41.1544

> <Gold.PLP.part.hbond>
-1.0000

> <Gold.PLP.part.metal>
0.0000

> <Gold.PLP.part.buried>
-4.7363

> <Gold.PLP.part.nonpolar>
-36.1405

> <Gold.PLP.part.repulsive>
0.9714

> <Gold.PLP.ligand.clash>
0.0000

> <Gold.PLP.ligand.torsion>
0.2909

> <Gold.PLP.Chemscore.Hbond>
1.0000

> <Gold.PLP.Chemscore.CHOScore>
0.0000

> <Gold.PLP.Chemscore.Metal>
0.0000

> <Gold.Chemscore.Hbonds>
donor molecule, donor type, donor heavy atom, donor atom, acceptor molecule, acceptor atom, score
      L1  H    12    31       P1  8028  1.00

> <Gold.PLP.Chemscore.Internal.Correction>
0.1688

> <Gold.Rescore>
     Score         DG    S(hbond)    S(metal)    S(lipo)     H(rot)  DE(clash)    DE(int)     intcor
     15.66     -15.84       1.00        0.00      81.87       1.00       0.08       0.09       ----

> <Gold.Chemscore.Fitness>
15.6631

> <Gold.Chemscore.DG>
-15.8352

> <Gold.Chemscore.ZeroCoef>
-5.4800

> <Gold.Chemscore.Hbond>
0.9991

> <Gold.Chemscore.Metal>
0.0000

> <Gold.Chemscore.Lipo>
81.8657

> <Gold.Chemscore.Internal_Hbond>
0.0000

> <Gold.Chemscore.DEClash>
0.0774

> <Gold.Chemscore.DEInternal>
0.0947

> <Gold.Chemscore.Rot>
1.0000

> <Gold.Chemscore.Internal.Correction>
   9.000000E+99

> <Gold.Chemscore.Hbonds>
donor molecule, donor type, donor heavy atom, donor atom, acceptor molecule, acceptor atom, score
      L1  H    12    31       P1  8028  1.00

> <Gold.Chemscore.Hbond.Weighted>
-3.3369

> <Gold.Chemscore.Metal.Weighted>
-0.0000

> <Gold.Chemscore.Lipo.Weighted>
-9.5783

> <Gold.Chemscore.Internal_Hbond.Weighted>
0.0000

> <Gold.Chemscore.DEClash.Weighted>
0.0774

> <Gold.Chemscore.DEInternal.Weighted>
0.0947

> <Gold.Chemscore.Rot.Weighted>
2.5600

> <Gold.Chemscore.Internal.Correction.Weighted>
   9.000000E+99

> <Gold.Protein.RotatedTorsions>
[ 6907 6896 6895 6894 ] final   40.55 input  -60.11 | X-H torsion
[ 7974 7965 7964 7962 ] final  -29.94 input  175.53 | X-H torsion
[ 8008 7997 7996 7995 ] final -168.28 input   59.86 | X-H torsion
[ 10167 10162 10161 10158 ] final   14.01 input  -65.29 | X-H torsion
[ 10718 10713 10712 10709 ] final -142.37 input   66.30 | X-H torsion
[ 10763 10752 10751 10750 ] final   67.38 input  -60.55 | X-H torsion
[ 11005 11000 10999 10996 ] final  114.76 input  -57.11 | X-H torsion

> <Gold.Protein.ActiveResidues>
 VAL166  LYS551  ARG553  GLY616  TRP617  ASP618  TYR619  PRO620  LYS621  CYS622 
 ASP623  PHE694  ASN695  SER759  ASP760  ASP761  ALA762  ILE779  LEU786  VAL792 
 PHE793  MET794  SER795  GLU796  ALA797  LYS798  CYS799  TRP800  GLU811  SER814 

> <Gold.Protein.RotatedAtoms>
  152.1839  134.8730  160.0523 H   0  0  0  0  0  0  0  0  0  0  0  0  # atno 6907 bound_to 6896
  151.9644  133.3700  159.4055 H   0  0  0  0  0  0  0  0  0  0  0  0  # atno 6908 bound_to 6896
  150.6922  134.4130  159.5214 H   0  0  0  0  0  0  0  0  0  0  0  0  # atno 6909 bound_to 6896
  146.1180  140.5477  142.8748 H   0  0  0  0  0  0  0  0  0  0  0  0  # atno 7974 bound_to 7965
  155.8892  140.1022  157.1430 H   0  0  0  0  0  0  0  0  0  0  0  0  # atno 8008 bound_to 7997
  154.4013  140.1314  156.4358 H   0  0  0  0  0  0  0  0  0  0  0  0  # atno 8009 bound_to 7997
  155.7553  140.3464  155.5173 H   0  0  0  0  0  0  0  0  0  0  0  0  # atno 8010 bound_to 7997
  140.5964  143.8692  150.6922 H   0  0  0  0  0  0  0  0  0  0  0  0  # atno 10167 bound_to 10162
  156.3451  130.7658  151.1801 H   0  0  0  0  0  0  0  0  0  0  0  0  # atno 10718 bound_to 10713
  153.0184  135.5286  154.6971 H   0  0  0  0  0  0  0  0  0  0  0  0  # atno 10763 bound_to 10752
  154.6090  135.2876  155.0455 H   0  0  0  0  0  0  0  0  0  0  0  0  # atno 10764 bound_to 10752
  154.1484  135.6567  153.5010 H   0  0  0  0  0  0  0  0  0  0  0  0  # atno 10765 bound_to 10752
  139.8990  134.9573  156.6941 H   0  0  0  0  0  0  0  0  0  0  0  0  # atno 11005 bound_to 11000
  144.7570  140.5332  143.6762 LP  0  0  0  0  0  0  0  0  0  0  0  0  # atno 17320 bound_to 7965
  145.5527  139.1477  143.3385 LP  0  0  0  0  0  0  0  0  0  0  0  0  # atno 17321 bound_to 7965
  140.2227  143.3796  152.1629 LP  0  0  0  0  0  0  0  0  0  0  0  0  # atno 17342 bound_to 10162
  139.5261  144.7104  151.5224 LP  0  0  0  0  0  0  0  0  0  0  0  0  # atno 17343 bound_to 10162
  157.7453  131.0443  150.4789 LP  0  0  0  0  0  0  0  0  0  0  0  0  # atno 17370 bound_to 10713
  156.4975  130.4109  149.6371 LP  0  0  0  0  0  0  0  0  0  0  0  0  # atno 17371 bound_to 10713
  140.7202  133.9147  155.8141 LP  0  0  0  0  0  0  0  0  0  0  0  0  # atno 17394 bound_to 11000
  141.0233  134.0858  157.4096 LP  0  0  0  0  0  0  0  0  0  0  0  0  # atno 17395 bound_to 11000

$$$$
