AV-unprocessed.smi:101|AV-procd|sdf|942|dock2
  -GOLD-   2262017463D 1   1.00000     0.00000
 Structure written by MMmdl.
 43 45  0  0  0  0  0  0  0  0  2 V2000
  146.2152  135.4596  154.4404 C   0  0  0  0  0  0  0  0  0  0  0  0
  146.5133  136.4292  155.5705 C   0  0  0  0  0  0  0  0  0  0  0  0
  146.8613  137.7152  155.3441 C   0  0  0  0  0  0  0  0  0  0  0  0
  147.1298  138.5955  156.3778 N   0  0  0  0  0  0  0  0  0  0  0  0
  147.5020  140.0339  156.0958 C   0  0  1  0  0  0  0  0  0  0  0  0
  148.6816  140.3437  156.7816 O   0  0  0  0  0  0  0  0  0  0  0  0
  149.6558  140.8625  155.8828 C   0  0  1  0  0  0  0  0  0  0  0  0
  151.0569  140.4900  156.3840 C   0  0  0  0  0  0  0  0  0  0  0  0
  151.4559  141.3965  157.3990 O   0  0  0  0  0  0  0  0  0  0  0  0
  151.7503  140.9435  158.6324 C   0  0  0  0  0  0  0  0  0  0  0  0
  151.8098  139.7472  158.9240 O   0  0  0  0  0  0  0  0  0  0  0  0
  151.9964  142.0427  159.6097 C   0  0  0  0  0  0  0  0  0  0  0  0
  152.0108  143.3827  159.1568 C   0  0  0  0  0  0  0  0  0  0  0  0
  152.2406  144.4416  160.0566 C   0  0  0  0  0  0  0  0  0  0  0  0
  152.4565  144.1737  161.4210 C   0  0  0  0  0  0  0  0  0  0  0  0
  152.4431  142.8451  161.8845 C   0  0  0  0  0  0  0  0  0  0  0  0
  152.2149  141.7846  160.9859 C   0  0  0  0  0  0  0  0  0  0  0  0
  149.2792  140.2461  154.5355 C   0  0  2  0  0  0  0  0  0  0  0  0
  149.7774  140.9672  153.4245 O   0  0  0  0  0  0  0  0  0  0  0  0
  147.7574  140.2283  154.5931 C   0  0  2  0  0  0  0  0  0  0  0  0
  147.1739  141.4359  154.1381 O   0  0  0  0  0  0  0  0  0  0  0  0
  147.0045  138.1588  157.7222 C   0  0  0  0  0  0  0  0  0  0  0  0
  147.2006  138.9801  158.6184 O   0  0  0  0  0  0  0  0  0  0  0  0
  146.6640  136.8601  157.9604 N   0  5  0  0  0  0  0  0  0  0  0  0
  146.4171  135.9660  156.9602 C   0  0  0  0  0  0  0  0  0  0  0  0
  146.1158  134.7950  157.1895 O   0  0  0  0  0  0  0  0  0  0  0  0
  146.3264  135.9385  153.4675 H   0  0  0  0  0  0  0  0  0  0  0  0
  145.1938  135.0863  154.5188 H   0  0  0  0  0  0  0  0  0  0  0  0
  146.8968  134.6095  154.4780 H   0  0  0  0  0  0  0  0  0  0  0  0
  146.9230  138.0608  154.3233 H   0  0  0  0  0  0  0  0  0  0  0  0
  146.6896  140.6423  156.4967 H   0  0  0  0  0  0  0  0  0  0  0  0
  149.5325  141.9466  155.8538 H   0  0  0  0  0  0  0  0  0  0  0  0
  151.0467  139.4797  156.7947 H   0  0  0  0  0  0  0  0  0  0  0  0
  151.7701  140.5004  155.5585 H   0  0  0  0  0  0  0  0  0  0  0  0
  151.8468  143.6132  158.1139 H   0  0  0  0  0  0  0  0  0  0  0  0
  152.2502  145.4606  159.6987 H   0  0  0  0  0  0  0  0  0  0  0  0
  152.6317  144.9859  162.1110 H   0  0  0  0  0  0  0  0  0  0  0  0
  152.6080  142.6380  162.9314 H   0  0  0  0  0  0  0  0  0  0  0  0
  152.2102  140.7769  161.3750 H   0  0  0  0  0  0  0  0  0  0  0  0
  149.6481  139.2204  154.4880 H   0  0  0  0  0  0  0  0  0  0  0  0
  149.5539  140.4892  152.6402 H   0  0  0  0  0  0  0  0  0  0  0  0
  147.3397  139.4063  154.0095 H   0  0  0  0  0  0  0  0  0  0  0  0
  147.8690  142.0548  153.9713 H   0  0  0  0  0  0  0  0  0  0  0  0
  1  2  1  0  0  0  0
  1 27  1  0  0  0  0
  1 28  1  0  0  0  0
  1 29  1  0  0  0  0
  2 25  1  0  0  0  0
  2  3  2  0  0  0  0
  3  4  1  0  0  0  0
  3 30  1  0  0  0  0
  4  5  1  0  0  0  0
  4 22  1  0  0  0  0
  5 20  1  0  0  0  0
  5  6  1  0  0  0  0
  5 31  1  0  0  0  0
  6  7  1  0  0  0  0
  7  8  1  0  0  0  0
  7 18  1  0  0  0  0
  7 32  1  0  0  0  0
  8  9  1  0  0  0  0
  8 33  1  0  0  0  0
  8 34  1  0  0  0  0
  9 10  1  0  0  0  0
 10 11  2  0  0  0  0
 10 12  1  0  0  0  0
 12 17  1  0  0  0  0
 12 13  2  0  0  0  0
 13 14  1  0  0  0  0
 13 35  1  0  0  0  0
 14 15  2  0  0  0  0
 14 36  1  0  0  0  0
 15 16  1  0  0  0  0
 15 37  1  0  0  0  0
 16 17  2  0  0  0  0
 16 38  1  0  0  0  0
 17 39  1  0  0  0  0
 18 19  1  0  0  0  0
 18 20  1  0  0  0  0
 18 40  1  0  0  0  0
 19 41  1  0  0  0  0
 20 21  1  0  0  0  0
 20 42  1  0  0  0  0
 21 43  1  0  0  0  0
 22 23  2  0  0  0  0
 22 24  1  0  0  0  0
 24 25  1  0  0  0  0
 25 26  2  0  0  0  0
M  CHG  1  24  -1
M  END
> <s_m_source_file>
AV-unprocessed.smi

> <i_m_source_file_index>
101

> <i_lp_mmshare_version>
43012

> <i_f3d_flags>
0

> <s_epik_input>
Tz1jMVtuSF1jKD1PKW4oW2NIXWMxW0NIM10pW0NAQEhdMk9bQ0BIXShbQ0BASF0oW09IXSlbQ0BIXTJbT0hdKVtDSDJdT0MoPU8pYzNbY0hdW2NIXVtjSF1bY0hdW2NIXTM=

> <s_epik_cmdline>
J2VwaWtfcHl0aG9uJywgJy1waCcsICc3LjAnLCAnLXRuJywgJzgnLCAnLW1hJywgJzIwMCcsICctbWV0YWxfYmluZGluZycsICctaW1hZScsICc8aW5maWxlLm1hZT4nLCAnLW9tYWUnLCAnPG91dGZpbGUubWFlPic=

> <r_lp_tautomer_probability>
0.999537

> <r_epik_Ionization_Penalty>
3.21006

> <r_epik_Ionization_Penalty_Charging>
5.75142e-08

> <r_epik_Ionization_Penalty_Neutral>
3.21006

> <r_epik_State_Penalty>
3.20925

> <r_epik_Charging_Adjusted_Penalty>
3.20925

> <i_epik_Tot_Q>
-1

> <i_epik_Tot_abs_Q>
1

> <r_epik_Metal_State_Penalty>
0.119957

> <b_epik_Metal_Only>
1

> <s_epik_Chemistry_Notes>
This compound has an ester and may undergo hydrolysis at high or low pH. This compound contains an acetal/aminal-like group ( X-CH(R)-Y where X, Y are N, S, or O) that may be acid/base labile, releasing an aldehyde.

> <s_lp_Force_Field>
OPLS_2005

> <r_lp_Energy>
44.5591

> <b_lp_Chiralities_Consistent>
1

> <s_lp_Variant>
AV-unprocessed.smi:101-30

> <Gold.Version>
5.8.1

> <Gold.Id.Protein>
6NUR|6NUR_protein|mol2

> <Gold.PLP.Fitness>
56.6401

> <Gold.PLP.PLP>
-42.1558

> <Gold.PLP.part.hbond>
-3.9884

> <Gold.PLP.part.metal>
0.0000

> <Gold.PLP.part.buried>
-5.5601

> <Gold.PLP.part.nonpolar>
-33.0636

> <Gold.PLP.part.repulsive>
0.0069

> <Gold.PLP.ligand.clash>
0.0000

> <Gold.PLP.ligand.torsion>
0.7265

> <Gold.PLP.Chemscore.Hbond>
4.2892

> <Gold.PLP.Chemscore.CHOScore>
1.0000

> <Gold.PLP.Chemscore.Metal>
0.0000

> <Gold.Chemscore.Hbonds>
donor molecule, donor type, donor heavy atom, donor atom, acceptor molecule, acceptor atom, score
      L1  H    19    41       P1  7957  1.00
      P1  H  7989  7998       L1    19  0.24
      P1  H  8011  8017       L1    19  0.20

> <Gold.PLP.Chemscore.Internal.Correction>
0.0698

> <Gold.Rescore>
     Score         DG    S(hbond)    S(metal)    S(lipo)     H(rot)  DE(clash)    DE(int)     intcor
     15.50     -17.56       2.60        0.00     100.55       3.27       0.19       1.87       ----

> <Gold.Chemscore.Fitness>
15.4998

> <Gold.Chemscore.DG>
-17.5637

> <Gold.Chemscore.ZeroCoef>
-5.4800

> <Gold.Chemscore.Hbond>
2.5984

> <Gold.Chemscore.Metal>
0.0000

> <Gold.Chemscore.Lipo>
100.5536

> <Gold.Chemscore.Internal_Hbond>
0.0000

> <Gold.Chemscore.DEClash>
0.1949

> <Gold.Chemscore.DEInternal>
1.8691

> <Gold.Chemscore.Rot>
3.2656

> <Gold.Chemscore.Internal.Correction>
   9.000000E+99

> <Gold.Chemscore.Hbonds>
donor molecule, donor type, donor heavy atom, donor atom, acceptor molecule, acceptor atom, score
      L1  H    19    41       P1  7957  0.94
      P1  H  6934  6947       L1    23  0.03
      P1  H  7989  7998       L1    19  0.07

> <Gold.Chemscore.Hbond.Weighted>
-8.6788

> <Gold.Chemscore.Metal.Weighted>
-0.0000

> <Gold.Chemscore.Lipo.Weighted>
-11.7648

> <Gold.Chemscore.Internal_Hbond.Weighted>
0.0000

> <Gold.Chemscore.DEClash.Weighted>
0.1949

> <Gold.Chemscore.DEInternal.Weighted>
1.8691

> <Gold.Chemscore.Rot.Weighted>
8.3598

> <Gold.Chemscore.Internal.Correction.Weighted>
   9.000000E+99

> <Gold.Protein.RotatedTorsions>
[ 6907 6896 6895 6894 ] final  157.61 input  -60.11 | X-H torsion
[ 7974 7965 7964 7962 ] final   62.87 input  175.53 | X-H torsion
[ 8008 7997 7996 7995 ] final  -91.69 input   59.86 | X-H torsion
[ 10167 10162 10161 10158 ] final   71.57 input  -65.29 | X-H torsion
[ 10718 10713 10712 10709 ] final   70.84 input   66.30 | X-H torsion
[ 10763 10752 10751 10750 ] final   85.60 input  -60.55 | X-H torsion
[ 11005 11000 10999 10996 ] final -102.73 input  -57.11 | X-H torsion

> <Gold.Protein.ActiveResidues>
 VAL166  LYS551  ARG553  GLY616  TRP617  ASP618  TYR619  PRO620  LYS621  CYS622 
 ASP623  PHE694  ASN695  SER759  ASP760  ASP761  ALA762  ILE779  LEU786  VAL792 
 PHE793  MET794  SER795  GLU796  ALA797  LYS798  CYS799  TRP800  GLU811  SER814 

> <Gold.Protein.RotatedAtoms>
  152.0125  133.3867  159.4225 H   0  0  0  0  0  0  0  0  0  0  0  0  # atno 6907 bound_to 6896
  150.6898  134.3714  159.5003 H   0  0  0  0  0  0  0  0  0  0  0  0  # atno 6908 bound_to 6896
  152.1477  134.9012  160.0600 H   0  0  0  0  0  0  0  0  0  0  0  0  # atno 6909 bound_to 6896
  145.8684  139.3361  143.0777 H   0  0  0  0  0  0  0  0  0  0  0  0  # atno 7974 bound_to 7965
  154.7138  140.0517  157.0575 H   0  0  0  0  0  0  0  0  0  0  0  0  # atno 8008 bound_to 7997
  155.0519  140.3180  155.4670 H   0  0  0  0  0  0  0  0  0  0  0  0  # atno 8009 bound_to 7997
  156.2797  140.2114  156.5645 H   0  0  0  0  0  0  0  0  0  0  0  0  # atno 8010 bound_to 7997
  140.0447  144.5361  150.7408 H   0  0  0  0  0  0  0  0  0  0  0  0  # atno 10167 bound_to 10162
  157.6421  130.9498  150.0707 H   0  0  0  0  0  0  0  0  0  0  0  0  # atno 10718 bound_to 10713
  153.1490  135.4611  154.9609 H   0  0  0  0  0  0  0  0  0  0  0  0  # atno 10763 bound_to 10752
  154.7809  135.3188  154.7993 H   0  0  0  0  0  0  0  0  0  0  0  0  # atno 10764 bound_to 10752
  153.8502  135.6922  153.4847 H   0  0  0  0  0  0  0  0  0  0  0  0  # atno 10765 bound_to 10752
  141.1176  133.8582  157.1397 H   0  0  0  0  0  0  0  0  0  0  0  0  # atno 11005 bound_to 11000
  145.9166  140.9144  143.0426 LP  0  0  0  0  0  0  0  0  0  0  0  0  # atno 17320 bound_to 7965
  144.6726  140.1232  143.7448 LP  0  0  0  0  0  0  0  0  0  0  0  0  # atno 17321 bound_to 7965
  140.7244  143.2621  151.4169 LP  0  0  0  0  0  0  0  0  0  0  0  0  # atno 17342 bound_to 10162
  139.5991  144.1333  152.2178 LP  0  0  0  0  0  0  0  0  0  0  0  0  # atno 17343 bound_to 10162
  156.1712  130.3646  149.9163 LP  0  0  0  0  0  0  0  0  0  0  0  0  # atno 17370 bound_to 10713
  156.7138  130.8980  151.3612 LP  0  0  0  0  0  0  0  0  0  0  0  0  # atno 17371 bound_to 10713
  140.0110  134.9988  157.0394 LP  0  0  0  0  0  0  0  0  0  0  0  0  # atno 17394 bound_to 11000
  140.4600  134.1494  155.7190 LP  0  0  0  0  0  0  0  0  0  0  0  0  # atno 17395 bound_to 11000

$$$$
