AV-unprocessed.smi:550|AV-procd|sdf|2894|dock2
  -GOLD-   2262023393D 1   1.00000     0.00000
 Structure written by MMmdl.
 45 47  0  0  0  0  0  0  0  0  1 V2000
  147.4381  140.6942  153.9889 O   0  0  0  0  0  0  0  0  0  0  0  0
  148.1653  139.7605  153.6514 C   0  0  0  0  0  0  0  0  0  0  0  0
  147.8235  138.8534  152.7253 N   0  0  0  0  0  0  0  0  0  0  0  0
  146.5592  138.8209  151.9958 C   0  0  0  0  0  0  0  0  0  0  0  0
  145.7913  137.5056  152.2305 C   0  0  2  0  0  0  0  0  0  0  0  0
  146.1308  136.8671  153.5916 C   0  0  0  0  0  0  0  0  0  0  0  0
  145.5342  135.4569  153.6338 C   0  0  0  0  0  0  0  0  0  0  0  0
  145.6494  134.8227  151.9202 S   0  0  0  0  0  0  0  0  0  0  0  0
  146.8248  133.9471  151.7994 O   0  0  0  0  0  0  0  0  0  0  0  0
  144.3190  134.3687  151.4878 O   0  0  0  0  0  0  0  0  0  0  0  0
  146.0292  136.4402  151.1454 C   0  0  0  0  0  0  0  0  0  0  0  0
  149.3956  139.5195  154.1356 N   0  0  0  0  0  0  0  0  0  0  0  0
  150.0971  140.2206  155.1532 C   0  0  0  0  0  0  0  0  0  0  0  0
  151.0859  139.5258  155.8761 C   0  0  0  0  0  0  0  0  0  0  0  0
  151.7825  140.1895  156.9036 C   0  0  0  0  0  0  0  0  0  0  0  0
  151.4659  141.5387  157.1879 C   0  0  0  0  0  0  0  0  0  0  0  0
  152.1347  142.2399  158.2108 N   0  0  0  0  0  0  0  0  0  0  0  0
  152.5313  141.5914  159.4512 C   0  0  0  0  0  0  0  0  0  0  0  0
  153.0788  142.7225  160.3201 C   0  0  0  0  0  0  0  0  0  0  0  0
  152.2379  143.9251  159.8920 C   0  0  0  0  0  0  0  0  0  0  0  0
  151.9479  143.6706  158.4081 C   0  0  0  0  0  0  0  0  0  0  0  0
  150.5010  142.2013  156.5070 N   0  0  0  0  0  0  0  0  0  0  0  0
  149.8368  141.5618  155.5212 C   0  0  0  0  0  0  0  0  0  0  0  0
  148.4887  138.1254  152.5090 H   0  0  0  0  0  0  0  0  0  0  0  0
  145.9368  139.6798  152.2530 H   0  0  0  0  0  0  0  0  0  0  0  0
  146.7900  138.9231  150.9351 H   0  0  0  0  0  0  0  0  0  0  0  0
  144.7233  137.7290  152.2407 H   0  0  0  0  0  0  0  0  0  0  0  0
  147.2146  136.7940  153.6933 H   0  0  0  0  0  0  0  0  0  0  0  0
  145.7732  137.4742  154.4239 H   0  0  0  0  0  0  0  0  0  0  0  0
  146.0558  134.7903  154.3207 H   0  0  0  0  0  0  0  0  0  0  0  0
  144.4803  135.4905  153.9109 H   0  0  0  0  0  0  0  0  0  0  0  0
  145.4107  136.5865  150.2597 H   0  0  0  0  0  0  0  0  0  0  0  0
  147.0749  136.4210  150.8370 H   0  0  0  0  0  0  0  0  0  0  0  0
  149.9076  138.7692  153.6956 H   0  0  0  0  0  0  0  0  0  0  0  0
  151.3129  138.4946  155.6479 H   0  0  0  0  0  0  0  0  0  0  0  0
  152.5381  139.6562  157.4606 H   0  0  0  0  0  0  0  0  0  0  0  0
  151.6578  141.1351  159.9192 H   0  0  0  0  0  0  0  0  0  0  0  0
  153.2785  140.8156  159.2806 H   0  0  0  0  0  0  0  0  0  0  0  0
  153.0095  142.5093  161.3868 H   0  0  0  0  0  0  0  0  0  0  0  0
  154.1272  142.9012  160.0773 H   0  0  0  0  0  0  0  0  0  0  0  0
  151.3011  143.9296  160.4509 H   0  0  0  0  0  0  0  0  0  0  0  0
  152.7372  144.8782  160.0681 H   0  0  0  0  0  0  0  0  0  0  0  0
  152.6568  144.2084  157.7780 H   0  0  0  0  0  0  0  0  0  0  0  0
  150.9400  143.9956  158.1472 H   0  0  0  0  0  0  0  0  0  0  0  0
  149.0681  142.1485  155.0434 H   0  0  0  0  0  0  0  0  0  0  0  0
  1  2  2  0  0  0  0
  2  3  1  0  0  0  0
  2 12  1  0  0  0  0
  3  4  1  0  0  0  0
  3 24  1  0  0  0  0
  4  5  1  0  0  0  0
  4 25  1  0  0  0  0
  4 26  1  0  0  0  0
  5 11  1  0  0  0  0
  5  6  1  0  0  0  0
  5 27  1  0  0  0  0
  6  7  1  0  0  0  0
  6 28  1  0  0  0  0
  6 29  1  0  0  0  0
  7  8  1  0  0  0  0
  7 30  1  0  0  0  0
  7 31  1  0  0  0  0
  8  9  2  0  0  0  0
  8 10  2  0  0  0  0
  8 11  1  0  0  0  0
 11 32  1  0  0  0  0
 11 33  1  0  0  0  0
 12 13  1  0  0  0  0
 12 34  1  0  0  0  0
 13 23  1  0  0  0  0
 13 14  2  0  0  0  0
 14 15  1  0  0  0  0
 14 35  1  0  0  0  0
 15 16  2  0  0  0  0
 15 36  1  0  0  0  0
 16 17  1  0  0  0  0
 16 22  1  0  0  0  0
 17 21  1  0  0  0  0
 17 18  1  0  0  0  0
 18 19  1  0  0  0  0
 18 37  1  0  0  0  0
 18 38  1  0  0  0  0
 19 20  1  0  0  0  0
 19 39  1  0  0  0  0
 19 40  1  0  0  0  0
 20 21  1  0  0  0  0
 20 41  1  0  0  0  0
 20 42  1  0  0  0  0
 21 43  1  0  0  0  0
 21 44  1  0  0  0  0
 22 23  2  0  0  0  0
 23 45  1  0  0  0  0
M  END
> <s_m_source_file>
AV-unprocessed.smi

> <i_m_source_file_index>
550

> <i_lp_mmshare_version>
43012

> <i_f3d_flags>
0

> <s_epik_input>
Tz1TMSg9TylbQ0gyXVtDSDJdW0NASF0oW0NIMl0xKVtDSDJdW05IXUMoPU8pW05IXWMyW2NIXVtjSF1jKG5bY0hdMilOM1tDSDJdW0NIMl1bQ0gyXVtDSDJdMw==

> <s_epik_cmdline>
J2VwaWtfcHl0aG9uJywgJy1waCcsICc3LjAnLCAnLXRuJywgJzgnLCAnLW1hJywgJzIwMCcsICctbWV0YWxfYmluZGluZycsICctaW1hZScsICc8aW5maWxlLm1hZT4nLCAnLW9tYWUnLCAnPG91dGZpbGUubWFlPic=

> <r_lp_tautomer_probability>
1

> <r_epik_Ionization_Penalty>
0.0965651

> <r_epik_Ionization_Penalty_Charging>
0

> <r_epik_Ionization_Penalty_Neutral>
0.0965651

> <r_epik_State_Penalty>
0.0861592

> <r_epik_Charging_Adjusted_Penalty>
0.0861592

> <i_epik_Tot_Q>
0

> <i_epik_Tot_abs_Q>
0

> <r_epik_Metal_State_Penalty>
0.0740405

> <b_epik_Metal_Only>
0

> <s_lp_Force_Field>
OPLS_2005

> <r_lp_Energy>
29.4066

> <b_lp_Chiralities_Consistent>
1

> <s_lp_Variant>
AV-unprocessed.smi:550-1

> <Gold.Version>
5.8.1

> <Gold.Id.Protein>
6NUR|6NUR_protein|mol2

> <Gold.PLP.Fitness>
43.4131

> <Gold.PLP.PLP>
-40.2415

> <Gold.PLP.part.hbond>
-3.0000

> <Gold.PLP.part.metal>
0.0000

> <Gold.PLP.part.buried>
-2.8371

> <Gold.PLP.part.nonpolar>
-37.3122

> <Gold.PLP.part.repulsive>
1.3351

> <Gold.PLP.ligand.clash>
0.0098

> <Gold.PLP.ligand.torsion>
0.8770

> <Gold.PLP.Chemscore.Hbond>
1.0000

> <Gold.PLP.Chemscore.CHOScore>
0.5804

> <Gold.PLP.Chemscore.Metal>
0.0000

> <Gold.Chemscore.Hbonds>
donor molecule, donor type, donor heavy atom, donor atom, acceptor molecule, acceptor atom, score
      L1  H     3    24       P1  7948  1.00
      L1  C    23    45       P1  8028  0.56

> <Gold.PLP.Chemscore.Internal.Correction>
0.1942

> <Gold.Rescore>
     Score         DG    S(hbond)    S(metal)    S(lipo)     H(rot)  DE(clash)    DE(int)     intcor
     14.18     -16.41       1.00        0.00      92.24       1.25       0.26       1.97       ----

> <Gold.Chemscore.Fitness>
14.1786

> <Gold.Chemscore.DG>
-16.4101

> <Gold.Chemscore.ZeroCoef>
-5.4800

> <Gold.Chemscore.Hbond>
0.9999

> <Gold.Chemscore.Metal>
0.0000

> <Gold.Chemscore.Lipo>
92.2382

> <Gold.Chemscore.Internal_Hbond>
0.0000

> <Gold.Chemscore.DEClash>
0.2582

> <Gold.Chemscore.DEInternal>
1.9732

> <Gold.Chemscore.Rot>
1.2506

> <Gold.Chemscore.Internal.Correction>
   9.000000E+99

> <Gold.Chemscore.Hbonds>
donor molecule, donor type, donor heavy atom, donor atom, acceptor molecule, acceptor atom, score
      L1  H     3    24       P1  7948  0.91

> <Gold.Chemscore.Hbond.Weighted>
-3.3398

> <Gold.Chemscore.Metal.Weighted>
-0.0000

> <Gold.Chemscore.Lipo.Weighted>
-10.7919

> <Gold.Chemscore.Internal_Hbond.Weighted>
0.0000

> <Gold.Chemscore.DEClash.Weighted>
0.2582

> <Gold.Chemscore.DEInternal.Weighted>
1.9732

> <Gold.Chemscore.Rot.Weighted>
3.2016

> <Gold.Chemscore.Internal.Correction.Weighted>
   9.000000E+99

> <Gold.Protein.RotatedTorsions>
[ 6907 6896 6895 6894 ] final -144.46 input  -60.11 | X-H torsion
[ 7974 7965 7964 7962 ] final   99.88 input  175.53 | X-H torsion
[ 8008 7997 7996 7995 ] final  140.37 input   59.86 | X-H torsion
[ 10167 10162 10161 10158 ] final  127.77 input  -65.29 | X-H torsion
[ 10718 10713 10712 10709 ] final  105.76 input   66.30 | X-H torsion
[ 10763 10752 10751 10750 ] final -144.25 input  -60.55 | X-H torsion
[ 11005 11000 10999 10996 ] final  153.26 input  -57.11 | X-H torsion

> <Gold.Protein.ActiveResidues>
 VAL166  LYS551  ARG553  GLY616  TRP617  ASP618  TYR619  PRO620  LYS621  CYS622 
 ASP623  PHE694  ASN695  SER759  ASP760  ASP761  ALA762  ILE779  LEU786  VAL792 
 PHE793  MET794  SER795  GLU796  ALA797  LYS798  CYS799  TRP800  GLU811  SER814 

> <Gold.Protein.RotatedAtoms>
  151.1144  133.5150  159.2604 H   0  0  0  0  0  0  0  0  0  0  0  0  # atno 6907 bound_to 6896
  151.1931  135.0410  159.8851 H   0  0  0  0  0  0  0  0  0  0  0  0  # atno 6908 bound_to 6896
  152.5452  134.0981  159.8359 H   0  0  0  0  0  0  0  0  0  0  0  0  # atno 6909 bound_to 6896
  145.3929  139.2360  143.3342 H   0  0  0  0  0  0  0  0  0  0  0  0  # atno 7974 bound_to 7965
  156.2980  140.2343  156.4390 H   0  0  0  0  0  0  0  0  0  0  0  0  # atno 8008 bound_to 7997
  154.8203  140.0438  157.1426 H   0  0  0  0  0  0  0  0  0  0  0  0  # atno 8009 bound_to 7997
  154.9323  140.3018  155.5165 H   0  0  0  0  0  0  0  0  0  0  0  0  # atno 8010 bound_to 7997
  139.5561  144.6849  151.4178 H   0  0  0  0  0  0  0  0  0  0  0  0  # atno 10167 bound_to 10162
  157.6694  131.0835  150.5905 H   0  0  0  0  0  0  0  0  0  0  0  0  # atno 10718 bound_to 10713
  154.8436  135.3445  154.6316 H   0  0  0  0  0  0  0  0  0  0  0  0  # atno 10763 bound_to 10752
  153.6926  135.6974  153.5090 H   0  0  0  0  0  0  0  0  0  0  0  0  # atno 10764 bound_to 10752
  153.2583  135.4331  155.0823 H   0  0  0  0  0  0  0  0  0  0  0  0  # atno 10765 bound_to 10752
  140.1382  134.8757  157.2295 H   0  0  0  0  0  0  0  0  0  0  0  0  # atno 11005 bound_to 11000
  146.2789  140.4615  142.8784 LP  0  0  0  0  0  0  0  0  0  0  0  0  # atno 17320 bound_to 7965
  144.8427  140.6882  143.6219 LP  0  0  0  0  0  0  0  0  0  0  0  0  # atno 17321 bound_to 7965
  140.6834  143.8030  150.7152 LP  0  0  0  0  0  0  0  0  0  0  0  0  # atno 17342 bound_to 10162
  140.1490  143.4374  152.2144 LP  0  0  0  0  0  0  0  0  0  0  0  0  # atno 17343 bound_to 10162
  156.6205  130.4404  149.5824 LP  0  0  0  0  0  0  0  0  0  0  0  0  # atno 17370 bound_to 10713
  156.2359  130.6822  151.1509 LP  0  0  0  0  0  0  0  0  0  0  0  0  # atno 17371 bound_to 10713
  140.2756  134.3409  155.7359 LP  0  0  0  0  0  0  0  0  0  0  0  0  # atno 17394 bound_to 11000
  141.2181  133.7448  156.9287 LP  0  0  0  0  0  0  0  0  0  0  0  0  # atno 17395 bound_to 11000

$$$$
