AV-unprocessed.smi:3208|AV-procd|sdf|12263|dock1
  -GOLD-   2272018 93D 1   1.00000     0.00000
 Structure written by MMmdl.
 30 30  0  0  0  0  0  0  0  0  3 V2000
  146.5292  141.4409  154.1852 C   0  0  0  0  0  0  0  0  0  0  0  0
  147.7195  140.8405  154.0362 C   0  0  0  0  0  0  0  0  0  0  0  0
  149.0534  141.4977  154.3144 C   0  0  0  0  0  0  0  0  0  0  0  0
  150.1111  140.5707  154.1011 O   0  0  0  0  0  0  0  0  0  0  0  0
  150.4349  139.7418  155.2146 C   0  0  1  0  0  0  0  0  0  0  0  0
  151.1616  138.5025  154.6709 C   0  0  0  0  0  0  0  0  0  0  0  0
  151.3127  140.5077  156.2177 C   0  0  0  0  0  0  0  0  0  0  0  0
  152.4656  140.1304  156.4331 O   0  0  0  0  0  0  0  0  0  0  0  0
  150.7390  141.5805  156.7936 N   0  0  0  0  0  0  0  0  0  0  0  0
  151.2853  142.4743  157.7560 C   0  0  0  0  0  0  0  0  0  0  0  0
  151.0906  143.8153  157.6892 N   0  3  0  0  0  0  0  0  0  0  0  0
  151.5986  144.6897  158.5844 C   0  0  0  0  0  0  0  0  0  0  0  0
  152.3777  144.2190  159.6584 C   0  0  0  0  0  0  0  0  0  0  0  0
  152.6113  142.8344  159.7764 C   0  0  0  0  0  0  0  0  0  0  0  0
  152.0617  141.9542  158.8200 C   0  0  0  0  0  0  0  0  0  0  0  0
  152.2882  140.6110  158.9352 O   0  5  0  0  0  0  0  0  0  0  0  0
  146.4539  142.4638  154.5240 H   0  0  0  0  0  0  0  0  0  0  0  0
  145.6118  140.9138  153.9684 H   0  0  0  0  0  0  0  0  0  0  0  0
  147.7544  139.8162  153.6947 H   0  0  0  0  0  0  0  0  0  0  0  0
  149.1666  142.3759  153.6773 H   0  0  0  0  0  0  0  0  0  0  0  0
  149.0568  141.8392  155.3502 H   0  0  0  0  0  0  0  0  0  0  0  0
  149.5142  139.4123  155.7006 H   0  0  0  0  0  0  0  0  0  0  0  0
  151.4527  137.8281  155.4769 H   0  0  0  0  0  0  0  0  0  0  0  0
  152.0619  138.7742  154.1185 H   0  0  0  0  0  0  0  0  0  0  0  0
  150.5167  137.9437  153.9925 H   0  0  0  0  0  0  0  0  0  0  0  0
  149.7893  141.7853  156.5169 H   0  0  0  0  0  0  0  0  0  0  0  0
  151.3678  145.7311  158.4143 H   0  0  0  0  0  0  0  0  0  0  0  0
  152.7902  144.9075  160.3810 H   0  0  0  0  0  0  0  0  0  0  0  0
  153.2066  142.4526  160.5929 H   0  0  0  0  0  0  0  0  0  0  0  0
  150.5296  144.1815  156.9193 H   0  0  0  0  0  0  0  0  0  0  0  0
  1  2  2  0  0  0  0
  1 17  1  0  0  0  0
  1 18  1  0  0  0  0
  2  3  1  0  0  0  0
  2 19  1  0  0  0  0
  3  4  1  0  0  0  0
  3 20  1  0  0  0  0
  3 21  1  0  0  0  0
  4  5  1  0  0  0  0
  5  6  1  0  0  0  0
  5  7  1  0  0  0  0
  5 22  1  0  0  0  0
  6 23  1  0  0  0  0
  6 24  1  0  0  0  0
  6 25  1  0  0  0  0
  7  8  2  0  0  0  0
  7  9  1  0  0  0  0
  9 26  1  0  0  0  0
  9 10  1  0  0  0  0
 10 15  2  0  0  0  0
 10 11  1  0  0  0  0
 11 30  1  0  0  0  0
 11 12  2  0  0  0  0
 12 27  1  0  0  0  0
 12 13  1  0  0  0  0
 13 28  1  0  0  0  0
 13 14  2  0  0  0  0
 14 15  1  0  0  0  0
 14 29  1  0  0  0  0
 15 16  1  0  0  0  0
M  CHG  1  11   1
M  CHG  1  16  -1
M  END
> <s_m_source_file>
AV-unprocessed.smi

> <i_m_source_file_index>
3208

> <i_lp_mmshare_version>
43012

> <i_f3d_flags>
0

> <s_epik_input>
W0NIMl09W0NIXVtDSDJdT1tDQEhdKFtDSDNdKUMoPU8pW05IXWMxbltjSF1bY0hdW2NIXWMxW09IXQ==

> <s_epik_cmdline>
J2VwaWtfcHl0aG9uJywgJy1waCcsICc3LjAnLCAnLXRuJywgJzgnLCAnLW1hJywgJzIwMCcsICctbWV0YWxfYmluZGluZycsICctaW1hZScsICc8aW5maWxlLm1hZT4nLCAnLW9tYWUnLCAnPG91dGZpbGUubWFlPic=

> <r_lp_tautomer_probability>
0.56342

> <r_epik_Ionization_Penalty>
0.29395

> <r_epik_Ionization_Penalty_Charging>
0.0267837

> <r_epik_Ionization_Penalty_Neutral>
0.267166

> <r_epik_State_Penalty>
0.587031

> <r_epik_Charging_Adjusted_Penalty>
0.613815

> <i_epik_Tot_Q>
0

> <i_epik_Tot_abs_Q>
2

> <r_epik_Metal_State_Penalty>
2.67911

> <b_epik_Metal_Only>
0

> <s_lp_Force_Field>
OPLS_2005

> <r_lp_Energy>
5.73852

> <b_lp_Chiralities_Consistent>
1

> <s_lp_Variant>
AV-unprocessed.smi:3208-4

> <Gold.Version>
5.8.1

> <Gold.Id.Protein>
6NUR|6NUR_protein|mol2

> <Gold.PLP.Fitness>
46.9205

> <Gold.PLP.PLP>
-36.1070

> <Gold.PLP.part.hbond>
-3.0000

> <Gold.PLP.part.metal>
0.0000

> <Gold.PLP.part.buried>
-3.8095

> <Gold.PLP.part.nonpolar>
-29.9060

> <Gold.PLP.part.repulsive>
1.0485

> <Gold.PLP.ligand.clash>
0.0291

> <Gold.PLP.ligand.torsion>
0.7023

> <Gold.PLP.Chemscore.Hbond>
3.8000

> <Gold.PLP.Chemscore.CHOScore>
0.0000

> <Gold.PLP.Chemscore.Metal>
0.0000

> <Gold.Chemscore.Hbonds>
donor molecule, donor type, donor heavy atom, donor atom, acceptor molecule, acceptor atom, score
      L1  H    11    30       P1  8028  1.59
      P1  H  7989  7998       L1     4  0.75
      P1  H  7997  8010       L1     8  1.00

> <Gold.PLP.Chemscore.Internal.Correction>
0.8472

> <Gold.Rescore>
     Score         DG    S(hbond)    S(metal)    S(lipo)     H(rot)  DE(clash)    DE(int)     intcor
     15.49     -19.51       2.70        0.00      80.06       1.70       0.42       3.60       ----

> <Gold.Chemscore.Fitness>
15.4908

> <Gold.Chemscore.DG>
-19.5080

> <Gold.Chemscore.ZeroCoef>
-5.4800

> <Gold.Chemscore.Hbond>
2.6969

> <Gold.Chemscore.Metal>
0.0000

> <Gold.Chemscore.Lipo>
80.0604

> <Gold.Chemscore.Internal_Hbond>
0.0000

> <Gold.Chemscore.DEClash>
0.4206

> <Gold.Chemscore.DEInternal>
3.5967

> <Gold.Chemscore.Rot>
1.6979

> <Gold.Chemscore.Internal.Correction>
   9.000000E+99

> <Gold.Chemscore.Hbonds>
donor molecule, donor type, donor heavy atom, donor atom, acceptor molecule, acceptor atom, score
      L1  H    11    30       P1  8028  0.77
      P1  H  7989  7998       L1     4  0.26
      P1  H  7997  8010       L1     8  0.99

> <Gold.Chemscore.Hbond.Weighted>
-9.0077

> <Gold.Chemscore.Metal.Weighted>
-0.0000

> <Gold.Chemscore.Lipo.Weighted>
-9.3671

> <Gold.Chemscore.Internal_Hbond.Weighted>
0.0000

> <Gold.Chemscore.DEClash.Weighted>
0.4206

> <Gold.Chemscore.DEInternal.Weighted>
3.5967

> <Gold.Chemscore.Rot.Weighted>
4.3467

> <Gold.Chemscore.Internal.Correction.Weighted>
   9.000000E+99

> <Gold.Protein.RotatedTorsions>
[ 6907 6896 6895 6894 ] final -169.87 input  -60.11 | X-H torsion
[ 7974 7965 7964 7962 ] final  -64.31 input  175.53 | X-H torsion
[ 8008 7997 7996 7995 ] final   73.50 input   59.86 | X-H torsion
[ 10167 10162 10161 10158 ] final   -4.92 input  -65.29 | X-H torsion
[ 10718 10713 10712 10709 ] final  -41.97 input   66.30 | X-H torsion
[ 10763 10752 10751 10750 ] final   28.77 input  -60.55 | X-H torsion
[ 11005 11000 10999 10996 ] final  176.62 input  -57.11 | X-H torsion

> <Gold.Protein.ActiveResidues>
 VAL166  LYS551  ARG553  GLY616  TRP617  ASP618  TYR619  PRO620  LYS621  CYS622 
 ASP623  PHE694  ASN695  SER759  ASP760  ASP761  ALA762  ILE779  LEU786  VAL792 
 PHE793  MET794  SER795  GLU796  ALA797  LYS798  CYS799  TRP800  GLU811  SER814 

> <Gold.Protein.RotatedAtoms>
  151.4986  133.3509  159.2864 H   0  0  0  0  0  0  0  0  0  0  0  0  # atno 6907 bound_to 6896
  150.8787  134.8177  159.7220 H   0  0  0  0  0  0  0  0  0  0  0  0  # atno 6908 bound_to 6896
  152.4748  134.4881  159.9738 H   0  0  0  0  0  0  0  0  0  0  0  0  # atno 6909 bound_to 6896
  145.7683  140.8826  143.0393 H   0  0  0  0  0  0  0  0  0  0  0  0  # atno 7974 bound_to 7965
  155.7845  140.3481  155.5316 H   0  0  0  0  0  0  0  0  0  0  0  0  # atno 8008 bound_to 7997
  155.8695  140.0984  157.1580 H   0  0  0  0  0  0  0  0  0  0  0  0  # atno 8009 bound_to 7997
  154.4016  140.1343  156.4048 H   0  0  0  0  0  0  0  0  0  0  0  0  # atno 8010 bound_to 7997
  140.6945  143.6368  150.8472 H   0  0  0  0  0  0  0  0  0  0  0  0  # atno 10167 bound_to 10162
  156.2646  130.4200  149.8504 H   0  0  0  0  0  0  0  0  0  0  0  0  # atno 10718 bound_to 10713
  153.0471  135.6505  154.0789 H   0  0  0  0  0  0  0  0  0  0  0  0  # atno 10763 bound_to 10752
  154.0484  135.2897  155.3346 H   0  0  0  0  0  0  0  0  0  0  0  0  # atno 10764 bound_to 10752
  154.6736  135.5347  153.8236 H   0  0  0  0  0  0  0  0  0  0  0  0  # atno 10765 bound_to 10752
  140.3752  134.6995  157.4417 H   0  0  0  0  0  0  0  0  0  0  0  0  # atno 11005 bound_to 11000
  144.6817  139.9819  143.7483 LP  0  0  0  0  0  0  0  0  0  0  0  0  # atno 17320 bound_to 7965
  146.0195  139.3239  143.0821 LP  0  0  0  0  0  0  0  0  0  0  0  0  # atno 17321 bound_to 7965
  140.0084  143.5669  152.2848 LP  0  0  0  0  0  0  0  0  0  0  0  0  # atno 17342 bound_to 10162
  139.6384  144.7652  151.2391 LP  0  0  0  0  0  0  0  0  0  0  0  0  # atno 17343 bound_to 10162
  156.6007  130.8545  151.3431 LP  0  0  0  0  0  0  0  0  0  0  0  0  # atno 17370 bound_to 10713
  157.7263  130.9627  150.1649 LP  0  0  0  0  0  0  0  0  0  0  0  0  # atno 17371 bound_to 10713
  140.0521  134.6116  155.8849 LP  0  0  0  0  0  0  0  0  0  0  0  0  # atno 17394 bound_to 11000
  141.1942  133.6582  156.5582 LP  0  0  0  0  0  0  0  0  0  0  0  0  # atno 17395 bound_to 11000

$$$$
