AV-unprocessed.smi:1040|AV-procd|sdf|4525|dock9
  -GOLD-   22720 2543D 1   1.00000     0.00000
 Structure written by MMmdl.
 54 55  0  0  0  0  0  0  0  0  1 V2000
  145.5966  135.0974  157.9348 C   0  0  0  0  0  0  0  0  0  0  0  0
  147.0307  135.3763  158.4154 C   0  0  1  0  0  0  0  0  0  0  0  0
  147.6641  136.2713  157.4489 N   0  0  0  0  0  0  0  0  0  0  0  0
  148.9756  136.5441  157.3896 C   0  0  0  0  0  0  0  0  0  0  0  0
  149.8099  136.0323  158.1359 O   0  0  0  0  0  0  0  0  0  0  0  0
  149.2378  137.4282  156.4129 N   0  0  0  0  0  0  0  0  0  0  0  0
  150.4975  137.9118  155.9546 C   0  0  0  0  0  0  0  0  0  0  0  0
  151.7275  137.2918  156.2856 C   0  0  0  0  0  0  0  0  0  0  0  0
  152.9286  137.8578  155.8220 C   0  0  0  0  0  0  0  0  0  0  0  0
  152.8611  139.0320  155.0525 C   0  0  0  0  0  0  0  0  0  0  0  0
  151.7006  139.6427  154.7397 N   0  0  0  0  0  0  0  0  0  0  0  0
  150.5378  139.1023  155.1790 C   0  0  0  0  0  0  0  0  0  0  0  0
  149.3445  139.7597  154.8187 N   0  0  0  0  0  0  0  0  0  0  0  0
  149.4467  141.1790  154.4804 C   0  0  0  0  0  0  0  0  0  0  0  0
  148.0528  141.8283  154.4407 C   0  0  0  0  0  0  0  0  0  0  0  0
  147.1156  141.0620  153.4929 C   0  0  0  0  0  0  0  0  0  0  0  0
  147.0727  139.5728  153.8728 C   0  0  0  0  0  0  0  0  0  0  0  0
  148.4901  138.9779  153.9269 C   0  0  0  0  0  0  0  0  0  0  0  0
  146.9434  136.0527  159.7926 C   0  0  0  0  0  0  0  0  0  0  0  0
  147.4688  137.1511  159.9812 O   0  0  0  0  0  0  0  0  0  0  0  0
  146.2541  135.3809  160.7321 N   0  0  0  0  0  0  0  0  0  0  0  0
  145.9852  135.7709  162.1213 C   0  0  0  0  0  0  0  0  0  0  0  0
  144.9641  134.7640  162.6795 C   0  0  0  0  0  0  0  0  0  0  0  0
  145.3740  137.1866  162.1791 C   0  0  0  0  0  0  0  0  0  0  0  0
  147.2736  135.6993  162.9681 C   0  0  0  0  0  0  0  0  0  0  0  0
  145.0724  134.4287  158.6188 H   0  0  0  0  0  0  0  0  0  0  0  0
  145.6026  134.6181  156.9552 H   0  0  0  0  0  0  0  0  0  0  0  0
  145.0093  136.0132  157.8489 H   0  0  0  0  0  0  0  0  0  0  0  0
  147.5847  134.4378  158.4847 H   0  0  0  0  0  0  0  0  0  0  0  0
  147.0515  136.7392  156.7976 H   0  0  0  0  0  0  0  0  0  0  0  0
  148.4456  137.7143  155.8560 H   0  0  0  0  0  0  0  0  0  0  0  0
  151.7777  136.4059  156.8987 H   0  0  0  0  0  0  0  0  0  0  0  0
  153.8803  137.4057  156.0586 H   0  0  0  0  0  0  0  0  0  0  0  0
  153.7626  139.4973  154.6826 H   0  0  0  0  0  0  0  0  0  0  0  0
  150.0726  141.6910  155.2126 H   0  0  0  0  0  0  0  0  0  0  0  0
  149.9318  141.2866  153.5092 H   0  0  0  0  0  0  0  0  0  0  0  0
  147.6271  141.8379  155.4451 H   0  0  0  0  0  0  0  0  0  0  0  0
  148.1344  142.8696  154.1282 H   0  0  0  0  0  0  0  0  0  0  0  0
  146.1130  141.4892  153.5264 H   0  0  0  0  0  0  0  0  0  0  0  0
  147.4670  141.1679  152.4658 H   0  0  0  0  0  0  0  0  0  0  0  0
  146.5921  139.4575  154.8454 H   0  0  0  0  0  0  0  0  0  0  0  0
  146.4623  139.0203  153.1581 H   0  0  0  0  0  0  0  0  0  0  0  0
  148.9315  138.9759  152.9295 H   0  0  0  0  0  0  0  0  0  0  0  0
  148.4400  137.9375  154.2489 H   0  0  0  0  0  0  0  0  0  0  0  0
  145.8698  134.4903  160.4518 H   0  0  0  0  0  0  0  0  0  0  0  0
  144.7115  134.9878  163.7167 H   0  0  0  0  0  0  0  0  0  0  0  0
  145.3525  133.7452  162.6502 H   0  0  0  0  0  0  0  0  0  0  0  0
  144.0360  134.7794  162.1064 H   0  0  0  0  0  0  0  0  0  0  0  0
  144.4831  137.2595  161.5544 H   0  0  0  0  0  0  0  0  0  0  0  0
  146.0752  137.9506  161.8436 H   0  0  0  0  0  0  0  0  0  0  0  0
  145.0822  137.4466  163.1973 H   0  0  0  0  0  0  0  0  0  0  0  0
  147.0625  135.8946  164.0201 H   0  0  0  0  0  0  0  0  0  0  0  0
  148.0153  136.4325  162.6514 H   0  0  0  0  0  0  0  0  0  0  0  0
  147.7365  134.7136  162.9044 H   0  0  0  0  0  0  0  0  0  0  0  0
  1  2  1  0  0  0  0
  1 26  1  0  0  0  0
  1 27  1  0  0  0  0
  1 28  1  0  0  0  0
  2  3  1  0  0  0  0
  2 19  1  0  0  0  0
  2 29  1  0  0  0  0
  3  4  1  0  0  0  0
  3 30  1  0  0  0  0
  4  5  2  0  0  0  0
  4  6  1  0  0  0  0
  6  7  1  0  0  0  0
  6 31  1  0  0  0  0
  7 12  1  0  0  0  0
  7  8  2  0  0  0  0
  8  9  1  0  0  0  0
  8 32  1  0  0  0  0
  9 10  2  0  0  0  0
  9 33  1  0  0  0  0
 10 11  1  0  0  0  0
 10 34  1  0  0  0  0
 11 12  2  0  0  0  0
 12 13  1  0  0  0  0
 13 18  1  0  0  0  0
 13 14  1  0  0  0  0
 14 15  1  0  0  0  0
 14 35  1  0  0  0  0
 14 36  1  0  0  0  0
 15 16  1  0  0  0  0
 15 37  1  0  0  0  0
 15 38  1  0  0  0  0
 16 17  1  0  0  0  0
 16 39  1  0  0  0  0
 16 40  1  0  0  0  0
 17 18  1  0  0  0  0
 17 41  1  0  0  0  0
 17 42  1  0  0  0  0
 18 43  1  0  0  0  0
 18 44  1  0  0  0  0
 19 20  2  0  0  0  0
 19 21  1  0  0  0  0
 21 22  1  0  0  0  0
 21 45  1  0  0  0  0
 22 23  1  0  0  0  0
 22 24  1  0  0  0  0
 22 25  1  0  0  0  0
 23 46  1  0  0  0  0
 23 47  1  0  0  0  0
 23 48  1  0  0  0  0
 24 49  1  0  0  0  0
 24 50  1  0  0  0  0
 24 51  1  0  0  0  0
 25 52  1  0  0  0  0
 25 53  1  0  0  0  0
 25 54  1  0  0  0  0
M  END
> <s_m_source_file>
AV-unprocessed.smi

> <i_m_source_file_index>
1040

> <i_lp_mmshare_version>
43012

> <i_f3d_flags>
0

> <s_epik_input>
W0NIM11DKFtDSDNdKShbQ0gzXSlbTkhdQyg9TylbQ0BIXShbQ0gzXSlbTkhdQyg9TylbTkhdYzFbY0hdW2NIXVtjSF1uYzFOMltDSDJdW0NIMl1bQ0gyXVtDSDJdW0NIMl0y

> <s_epik_cmdline>
J2VwaWtfcHl0aG9uJywgJy1waCcsICc3LjAnLCAnLXRuJywgJzgnLCAnLW1hJywgJzIwMCcsICctbWV0YWxfYmluZGluZycsICctaW1hZScsICc8aW5maWxlLm1hZT4nLCAnLW9tYWUnLCAnPG91dGZpbGUubWFlPic=

> <r_lp_tautomer_probability>
1

> <r_epik_Ionization_Penalty>
0.0878593

> <r_epik_Ionization_Penalty_Charging>
0

> <r_epik_Ionization_Penalty_Neutral>
0.0878593

> <r_epik_State_Penalty>
0.07381

> <r_epik_Charging_Adjusted_Penalty>
0.07381

> <i_epik_Tot_Q>
0

> <i_epik_Tot_abs_Q>
0

> <r_epik_Metal_State_Penalty>
0.0646628

> <b_epik_Metal_Only>
0

> <s_lp_Force_Field>
OPLS_2005

> <r_lp_Energy>
20.3339

> <b_lp_Chiralities_Consistent>
1

> <s_lp_Variant>
AV-unprocessed.smi:1040-2

> <Gold.Version>
5.8.1

> <Gold.Id.Protein>
6NUR|6NUR_protein|mol2

> <Gold.PLP.Fitness>
42.4535

> <Gold.PLP.PLP>
-35.5913

> <Gold.PLP.part.hbond>
-3.0382

> <Gold.PLP.part.metal>
0.0000

> <Gold.PLP.part.buried>
-2.3110

> <Gold.PLP.part.nonpolar>
-30.8845

> <Gold.PLP.part.repulsive>
0.1767

> <Gold.PLP.ligand.clash>
0.0000

> <Gold.PLP.ligand.torsion>
0.7571

> <Gold.PLP.Chemscore.Hbond>
2.6869

> <Gold.PLP.Chemscore.CHOScore>
0.0000

> <Gold.PLP.Chemscore.Metal>
0.0000

> <Gold.Chemscore.Hbonds>
donor molecule, donor type, donor heavy atom, donor atom, acceptor molecule, acceptor atom, score
      P1  H  6896  6909       L1     5  0.62
      P1  H  6934  6947       L1    20  0.76
      P1  H  7989  7998       L1    11  1.00

> <Gold.PLP.Chemscore.Internal.Correction>
0.3159

> <Gold.Rescore>
     Score         DG    S(hbond)    S(metal)    S(lipo)     H(rot)  DE(clash)    DE(int)     intcor
     18.78     -21.49       2.85        0.00      90.80       1.61       0.42       2.29       ----

> <Gold.Chemscore.Fitness>
18.7840

> <Gold.Chemscore.DG>
-21.4935

> <Gold.Chemscore.ZeroCoef>
-5.4800

> <Gold.Chemscore.Hbond>
2.8509

> <Gold.Chemscore.Metal>
0.0000

> <Gold.Chemscore.Lipo>
90.8034

> <Gold.Chemscore.Internal_Hbond>
0.0000

> <Gold.Chemscore.DEClash>
0.4226

> <Gold.Chemscore.DEInternal>
2.2869

> <Gold.Chemscore.Rot>
1.6143

> <Gold.Chemscore.Internal.Correction>
   9.000000E+99

> <Gold.Chemscore.Hbonds>
donor molecule, donor type, donor heavy atom, donor atom, acceptor molecule, acceptor atom, score
      P1  H  6896  6909       L1     5  0.60
      P1  H  6934  6947       L1    20  0.72
      P1  H  7989  7998       L1    11  0.94

> <Gold.Chemscore.Hbond.Weighted>
-9.5221

> <Gold.Chemscore.Metal.Weighted>
-0.0000

> <Gold.Chemscore.Lipo.Weighted>
-10.6240

> <Gold.Chemscore.Internal_Hbond.Weighted>
0.0000

> <Gold.Chemscore.DEClash.Weighted>
0.4226

> <Gold.Chemscore.DEInternal.Weighted>
2.2869

> <Gold.Chemscore.Rot.Weighted>
4.1326

> <Gold.Chemscore.Internal.Correction.Weighted>
   9.000000E+99

> <Gold.Protein.RotatedTorsions>
[ 6907 6896 6895 6894 ] final   63.06 input  -60.11 | X-H torsion
[ 7974 7965 7964 7962 ] final  -26.64 input  175.53 | X-H torsion
[ 8008 7997 7996 7995 ] final  -64.74 input   59.86 | X-H torsion
[ 10167 10162 10161 10158 ] final  112.74 input  -65.29 | X-H torsion
[ 10718 10713 10712 10709 ] final   14.74 input   66.30 | X-H torsion
[ 10763 10752 10751 10750 ] final   85.15 input  -60.55 | X-H torsion
[ 11005 11000 10999 10996 ] final  173.62 input  -57.11 | X-H torsion

> <Gold.Protein.ActiveResidues>
 VAL166  LYS551  ARG553  GLY616  TRP617  ASP618  TYR619  PRO620  LYS621  CYS622 
 ASP623  PHE694  ASN695  SER759  ASP760  ASP761  ALA762  ILE779  LEU786  VAL792 
 PHE793  MET794  SER795  GLU796  ALA797  LYS798  CYS799  TRP800  GLU811  SER814 

> <Gold.Protein.RotatedAtoms>
  152.4223  134.5933  159.9979 H   0  0  0  0  0  0  0  0  0  0  0  0  # atno 6907 bound_to 6896
  151.6079  133.3344  159.3069 H   0  0  0  0  0  0  0  0  0  0  0  0  # atno 6908 bound_to 6896
  150.8111  134.7304  159.6754 H   0  0  0  0  0  0  0  0  0  0  0  0  # atno 6909 bound_to 6896
  146.1412  140.5046  142.8651 H   0  0  0  0  0  0  0  0  0  0  0  0  # atno 7974 bound_to 7965
  154.4629  140.0947  156.6943 H   0  0  0  0  0  0  0  0  0  0  0  0  # atno 8008 bound_to 7997
  155.4941  140.3471  155.4341 H   0  0  0  0  0  0  0  0  0  0  0  0  # atno 8009 bound_to 7997
  156.0904  140.1396  156.9588 H   0  0  0  0  0  0  0  0  0  0  0  0  # atno 8010 bound_to 7997
  139.6513  144.7128  151.2043 H   0  0  0  0  0  0  0  0  0  0  0  0  # atno 10167 bound_to 10162
  157.0435  130.6241  149.5755 H   0  0  0  0  0  0  0  0  0  0  0  0  # atno 10718 bound_to 10713
  153.1448  135.4628  154.9549 H   0  0  0  0  0  0  0  0  0  0  0  0  # atno 10763 bound_to 10752
  154.7777  135.3178  154.8060 H   0  0  0  0  0  0  0  0  0  0  0  0  # atno 10764 bound_to 10752
  153.8576  135.6915  153.4840 H   0  0  0  0  0  0  0  0  0  0  0  0  # atno 10765 bound_to 10752
  140.3425  134.7264  157.4212 H   0  0  0  0  0  0  0  0  0  0  0  0  # atno 11005 bound_to 11000
  144.7794  140.5809  143.6615 LP  0  0  0  0  0  0  0  0  0  0  0  0  # atno 17320 bound_to 7965
  145.5042  139.1482  143.3640 LP  0  0  0  0  0  0  0  0  0  0  0  0  # atno 17321 bound_to 7965
  140.7539  143.6146  150.8572 LP  0  0  0  0  0  0  0  0  0  0  0  0  # atno 17342 bound_to 10162
  139.9794  143.5968  152.2948 LP  0  0  0  0  0  0  0  0  0  0  0  0  # atno 17343 bound_to 10162
  156.0030  130.5112  150.7732 LP  0  0  0  0  0  0  0  0  0  0  0  0  # atno 17370 bound_to 10713
  157.5086  131.0924  151.0227 LP  0  0  0  0  0  0  0  0  0  0  0  0  # atno 17371 bound_to 10713
  140.0770  134.5784  155.8581 LP  0  0  0  0  0  0  0  0  0  0  0  0  # atno 17394 bound_to 11000
  141.2035  133.6632  156.6064 LP  0  0  0  0  0  0  0  0  0  0  0  0  # atno 17395 bound_to 11000

$$$$
