AV-unprocessed.smi:3348|AV-procd|sdf|12926|dock4
  -GOLD-   2272019353D 1   1.00000     0.00000
 Structure written by MMmdl.
 46 47  0  0  0  0  0  0  0  0  1 V2000
  152.0935  136.4497  157.9191 C   0  0  0  0  0  0  0  0  0  0  0  0
  151.6726  137.6322  158.8172 C   0  0  1  0  0  0  0  0  0  0  0  0
  152.1688  138.9853  158.2670 C   0  0  0  0  0  0  0  0  0  0  0  0
  153.4111  139.4247  158.8786 N   0  0  0  0  0  0  0  0  0  0  0  0
  153.6115  140.4823  159.7408 C   0  0  0  0  0  0  0  0  0  0  0  0
  154.9422  140.5123  160.0454 C   0  0  0  0  0  0  0  0  0  0  0  0
  155.4821  139.4218  159.3076 C   0  0  0  0  0  0  0  0  0  0  0  0
  154.5640  138.7741  158.6085 N   0  0  0  0  0  0  0  0  0  0  0  0
  150.2182  137.6944  158.9890 N   0  0  0  0  0  0  0  0  0  0  0  0
  149.5926  136.4970  159.5485 C   0  0  0  0  0  0  0  0  0  0  0  0
  148.0668  136.5935  159.4614 C   0  0  0  0  0  0  0  0  0  0  0  0
  147.5059  135.5722  160.2728 O   0  0  0  0  0  0  0  0  0  0  0  0
  147.8412  135.6554  161.6537 C   0  0  1  0  0  0  0  0  0  0  0  0
  147.3581  136.9968  162.2470 C   0  0  0  0  0  0  0  0  0  0  0  0
  145.8249  137.1101  162.2224 C   0  0  0  0  0  0  0  0  0  0  0  0
  145.1688  135.9244  162.9459 C   0  0  0  0  0  0  0  0  0  0  0  0
  145.6433  134.5830  162.3647 C   0  0  0  0  0  0  0  0  0  0  0  0
  147.1811  134.4671  162.3889 C   0  0  1  0  0  0  0  0  0  0  0  0
  147.6611  133.1127  161.8443 C   0  0  0  0  0  0  0  0  0  0  0  0
  153.1737  136.4200  157.7776 H   0  0  0  0  0  0  0  0  0  0  0  0
  151.6342  136.5193  156.9326 H   0  0  0  0  0  0  0  0  0  0  0  0
  151.8172  135.4886  158.3509 H   0  0  0  0  0  0  0  0  0  0  0  0
  152.1315  137.4873  159.7961 H   0  0  0  0  0  0  0  0  0  0  0  0
  152.3045  138.9280  157.1854 H   0  0  0  0  0  0  0  0  0  0  0  0
  151.4206  139.7591  158.4439 H   0  0  0  0  0  0  0  0  0  0  0  0
  152.7987  141.1164  160.0633 H   0  0  0  0  0  0  0  0  0  0  0  0
  155.4524  141.2081  160.6947 H   0  0  0  0  0  0  0  0  0  0  0  0
  156.5071  139.0849  159.2586 H   0  0  0  0  0  0  0  0  0  0  0  0
  149.7788  137.9172  158.1013 H   0  0  0  0  0  0  0  0  0  0  0  0
  149.9215  135.5967  159.0308 H   0  0  0  0  0  0  0  0  0  0  0  0
  149.8872  136.3878  160.5927 H   0  0  0  0  0  0  0  0  0  0  0  0
  147.7431  137.5650  159.8371 H   0  0  0  0  0  0  0  0  0  0  0  0
  147.7378  136.5199  158.4246 H   0  0  0  0  0  0  0  0  0  0  0  0
  148.9232  135.5746  161.7735 H   0  0  0  0  0  0  0  0  0  0  0  0
  147.7051  137.0766  163.2779 H   0  0  0  0  0  0  0  0  0  0  0  0
  147.8009  137.8408  161.7193 H   0  0  0  0  0  0  0  0  0  0  0  0
  145.5140  138.0461  162.6871 H   0  0  0  0  0  0  0  0  0  0  0  0
  145.4761  137.1479  161.1895 H   0  0  0  0  0  0  0  0  0  0  0  0
  145.4096  135.9672  164.0088 H   0  0  0  0  0  0  0  0  0  0  0  0
  144.0834  135.9982  162.8722 H   0  0  0  0  0  0  0  0  0  0  0  0
  145.1991  133.7641  162.9315 H   0  0  0  0  0  0  0  0  0  0  0  0
  145.2792  134.4805  161.3415 H   0  0  0  0  0  0  0  0  0  0  0  0
  147.4947  134.5160  163.4329 H   0  0  0  0  0  0  0  0  0  0  0  0
  147.3635  132.9722  160.8047 H   0  0  0  0  0  0  0  0  0  0  0  0
  147.2429  132.2882  162.4224 H   0  0  0  0  0  0  0  0  0  0  0  0
  148.7473  133.0322  161.8936 H   0  0  0  0  0  0  0  0  0  0  0  0
  1  2  1  0  0  0  0
  1 20  1  0  0  0  0
  1 21  1  0  0  0  0
  1 22  1  0  0  0  0
  2  3  1  0  0  0  0
  2  9  1  0  0  0  0
  2 23  1  0  0  0  0
  3  4  1  0  0  0  0
  3 24  1  0  0  0  0
  3 25  1  0  0  0  0
  4  8  1  0  0  0  0
  4  5  1  0  0  0  0
  5  6  2  0  0  0  0
  5 26  1  0  0  0  0
  6  7  1  0  0  0  0
  6 27  1  0  0  0  0
  7  8  2  0  0  0  0
  7 28  1  0  0  0  0
  9 10  1  0  0  0  0
  9 29  1  0  0  0  0
 10 11  1  0  0  0  0
 10 30  1  0  0  0  0
 10 31  1  0  0  0  0
 11 12  1  0  0  0  0
 11 32  1  0  0  0  0
 11 33  1  0  0  0  0
 12 13  1  0  0  0  0
 13 18  1  0  0  0  0
 13 14  1  0  0  0  0
 13 34  1  0  0  0  0
 14 15  1  0  0  0  0
 14 35  1  0  0  0  0
 14 36  1  0  0  0  0
 15 16  1  0  0  0  0
 15 37  1  0  0  0  0
 15 38  1  0  0  0  0
 16 17  1  0  0  0  0
 16 39  1  0  0  0  0
 16 40  1  0  0  0  0
 17 18  1  0  0  0  0
 17 41  1  0  0  0  0
 17 42  1  0  0  0  0
 18 19  1  0  0  0  0
 18 43  1  0  0  0  0
 19 44  1  0  0  0  0
 19 45  1  0  0  0  0
 19 46  1  0  0  0  0
M  END
> <s_m_source_file>
AV-unprocessed.smi

> <i_m_source_file_index>
3348

> <i_lp_mmshare_version>
43012

> <i_f3d_flags>
0

> <s_epik_input>
bjFbY0hdW2NIXVtjSF1uMVtDSDJdW0NAQEhdKFtDSDNdKVtOSF1bQ0gyXVtDSDJdT1tDQEBIXTJbQ0gyXVtDSDJdW0NIMl1bQ0gyXVtDQEhdMltDSDNd

> <s_epik_cmdline>
J2VwaWtfcHl0aG9uJywgJy1waCcsICc3LjAnLCAnLXRuJywgJzgnLCAnLW1hJywgJzIwMCcsICctbWV0YWxfYmluZGluZycsICctaW1hZScsICc8aW5maWxlLm1hZT4nLCAnLW9tYWUnLCAnPG91dGZpbGUubWFlPic=

> <r_lp_tautomer_probability>
1

> <r_epik_Ionization_Penalty>
2.46945

> <r_epik_Ionization_Penalty_Charging>
0

> <r_epik_Ionization_Penalty_Neutral>
2.46945

> <r_epik_State_Penalty>
2.6322

> <r_epik_Charging_Adjusted_Penalty>
2.6322

> <i_epik_Tot_Q>
0

> <i_epik_Tot_abs_Q>
0

> <r_epik_Metal_State_Penalty>
2.63217

> <b_epik_Metal_Only>
0

> <s_lp_Force_Field>
OPLS_2005

> <r_lp_Energy>
17.8462

> <b_lp_Chiralities_Consistent>
1

> <s_lp_Variant>
AV-unprocessed.smi:3348-12

> <Gold.Version>
5.8.1

> <Gold.Id.Protein>
6NUR|6NUR_protein|mol2

> <Gold.PLP.Fitness>
42.1037

> <Gold.PLP.PLP>
-40.3292

> <Gold.PLP.part.hbond>
-1.9802

> <Gold.PLP.part.metal>
0.0000

> <Gold.PLP.part.buried>
-5.6372

> <Gold.PLP.part.nonpolar>
-32.6333

> <Gold.PLP.part.repulsive>
0.0000

> <Gold.PLP.ligand.clash>
0.0000

> <Gold.PLP.ligand.torsion>
0.6935

> <Gold.PLP.Chemscore.Hbond>
1.0000

> <Gold.PLP.Chemscore.CHOScore>
0.0000

> <Gold.PLP.Chemscore.Metal>
0.0000

> <Gold.Chemscore.Hbonds>
donor molecule, donor type, donor heavy atom, donor atom, acceptor molecule, acceptor atom, score
      P1  H  7997  8009       L1     8  0.14

> <Gold.PLP.Chemscore.Internal.Correction>
0.1615

> <Gold.Rescore>
     Score         DG    S(hbond)    S(metal)    S(lipo)     H(rot)  DE(clash)    DE(int)     intcor
     14.05     -15.15       0.46        0.00     107.08       1.72       0.20       0.90       ----

> <Gold.Chemscore.Fitness>
14.0499

> <Gold.Chemscore.DG>
-15.1468

> <Gold.Chemscore.ZeroCoef>
-5.4800

> <Gold.Chemscore.Hbond>
0.4645

> <Gold.Chemscore.Metal>
0.0000

> <Gold.Chemscore.Lipo>
107.0751

> <Gold.Chemscore.Internal_Hbond>
0.0000

> <Gold.Chemscore.DEClash>
0.1977

> <Gold.Chemscore.DEInternal>
0.8992

> <Gold.Chemscore.Rot>
1.7237

> <Gold.Chemscore.Internal.Correction>
   9.000000E+99

> <Gold.Chemscore.Hbond.Weighted>
-1.5515

> <Gold.Chemscore.Metal.Weighted>
-0.0000

> <Gold.Chemscore.Lipo.Weighted>
-12.5278

> <Gold.Chemscore.Internal_Hbond.Weighted>
0.0000

> <Gold.Chemscore.DEClash.Weighted>
0.1977

> <Gold.Chemscore.DEInternal.Weighted>
0.8992

> <Gold.Chemscore.Rot.Weighted>
4.4126

> <Gold.Chemscore.Internal.Correction.Weighted>
   9.000000E+99

> <Gold.Protein.RotatedTorsions>
[ 6907 6896 6895 6894 ] final   -9.44 input  -60.11 | X-H torsion
[ 7974 7965 7964 7962 ] final   19.96 input  175.53 | X-H torsion
[ 8008 7997 7996 7995 ] final  135.88 input   59.86 | X-H torsion
[ 10167 10162 10161 10158 ] final  -80.06 input  -65.29 | X-H torsion
[ 10718 10713 10712 10709 ] final   25.08 input   66.30 | X-H torsion
[ 10763 10752 10751 10750 ] final -123.72 input  -60.55 | X-H torsion
[ 11005 11000 10999 10996 ] final   27.74 input  -57.11 | X-H torsion

> <Gold.Protein.ActiveResidues>
 VAL166  LYS551  ARG553  GLY616  TRP617  ASP618  TYR619  PRO620  LYS621  CYS622 
 ASP623  PHE694  ASN695  SER759  ASP760  ASP761  ALA762  ILE779  LEU786  VAL792 
 PHE793  MET794  SER795  GLU796  ALA797  LYS798  CYS799  TRP800  GLU811  SER814 

> <Gold.Protein.RotatedAtoms>
  151.4177  135.0994  159.9604 H   0  0  0  0  0  0  0  0  0  0  0  0  # atno 6907 bound_to 6896
  152.4999  133.8736  159.7321 H   0  0  0  0  0  0  0  0  0  0  0  0  # atno 6908 bound_to 6896
  150.9245  133.6782  159.2852 H   0  0  0  0  0  0  0  0  0  0  0  0  # atno 6909 bound_to 6896
  146.2129  139.8238  142.8674 H   0  0  0  0  0  0  0  0  0  0  0  0  # atno 7974 bound_to 7965
  156.3003  140.2459  156.3653 H   0  0  0  0  0  0  0  0  0  0  0  0  # atno 8008 bound_to 7997
  154.8839  140.0411  157.1818 H   0  0  0  0  0  0  0  0  0  0  0  0  # atno 8009 bound_to 7997
  154.8667  140.2929  155.5510 H   0  0  0  0  0  0  0  0  0  0  0  0  # atno 8010 bound_to 7997
  140.4537  143.2475  151.8451 H   0  0  0  0  0  0  0  0  0  0  0  0  # atno 10167 bound_to 10162
  157.1886  130.6835  149.6141 H   0  0  0  0  0  0  0  0  0  0  0  0  # atno 10718 bound_to 10713
  154.8712  135.4088  154.2988 H   0  0  0  0  0  0  0  0  0  0  0  0  # atno 10763 bound_to 10752
  153.3851  135.7013  153.6541 H   0  0  0  0  0  0  0  0  0  0  0  0  # atno 10764 bound_to 10752
  153.5347  135.3660  155.2663 H   0  0  0  0  0  0  0  0  0  0  0  0  # atno 10765 bound_to 10752
  140.3230  134.2522  155.7714 H   0  0  0  0  0  0  0  0  0  0  0  0  # atno 11005 bound_to 11000
  145.3069  141.0209  143.3577 LP  0  0  0  0  0  0  0  0  0  0  0  0  # atno 17320 bound_to 7965
  144.8964  139.4706  143.6653 LP  0  0  0  0  0  0  0  0  0  0  0  0  # atno 17321 bound_to 7965
  139.4799  144.5089  151.8959 LP  0  0  0  0  0  0  0  0  0  0  0  0  # atno 17342 bound_to 10162
  140.4176  144.2286  150.5887 LP  0  0  0  0  0  0  0  0  0  0  0  0  # atno 17343 bound_to 10162
  155.9715  130.4622  150.6138 LP  0  0  0  0  0  0  0  0  0  0  0  0  # atno 17370 bound_to 10713
  157.3883  131.0791  151.1416 LP  0  0  0  0  0  0  0  0  0  0  0  0  # atno 17371 bound_to 10713
  141.2082  133.7785  157.0074 LP  0  0  0  0  0  0  0  0  0  0  0  0  # atno 17394 bound_to 11000
  140.0925  134.9584  157.1798 LP  0  0  0  0  0  0  0  0  0  0  0  0  # atno 17395 bound_to 11000

$$$$
