AV-unprocessed.smi:1760|AV-procd|sdf|7092|dock7
  -GOLD-   22720 8313D 1   1.00000     0.00000
 Structure written by MMmdl.
 43 45  0  0  0  0  0  0  0  0  3 V2000
  148.9554  134.0398  155.7350 O   0  0  0  0  0  0  0  0  0  0  0  0
  148.8646  134.5928  154.6393 C   0  0  0  0  0  0  0  0  0  0  0  0
  149.3127  135.8243  154.3358 N   0  0  0  0  0  0  0  0  0  0  0  0
  150.0043  136.7465  155.1395 C   0  0  0  0  0  0  0  0  0  0  0  0
  149.6293  138.0408  155.3382 C   0  0  0  0  0  0  0  0  0  0  0  0
  150.3844  138.9468  156.1949 C   0  0  0  0  0  0  0  0  0  0  0  0
  150.0233  140.4015  156.4323 C   0  0  0  0  0  0  0  0  0  0  0  0
  148.8240  140.4894  157.0067 F   0  0  0  0  0  0  0  0  0  0  0  0
  150.9121  140.9711  157.2457 F   0  0  0  0  0  0  0  0  0  0  0  0
  149.9948  141.0899  155.2911 F   0  0  0  0  0  0  0  0  0  0  0  0
  151.4850  138.3380  156.7639 C   0  0  0  0  0  0  0  0  0  0  0  0
  151.9169  137.0648  156.6308 N   0  5  0  0  0  0  0  0  0  0  0  0
  151.2055  136.2261  155.8258 C   0  0  0  0  0  0  0  0  0  0  0  0
  151.5413  135.0526  155.6605 O   0  0  0  0  0  0  0  0  0  0  0  0
  148.2710  134.0305  153.5763 N   0  0  0  0  0  0  0  0  0  0  0  0
  147.6508  132.7086  153.5410 C   0  0  2  0  0  0  0  0  0  0  0  0
  148.7354  131.6186  153.5504 C   0  0  0  0  0  0  0  0  0  0  0  0
  148.1164  130.2195  153.3946 C   0  0  0  0  0  0  0  0  0  0  0  0
  147.2959  130.1349  152.1609 N   0  3  1  0  0  0  0  0  0  0  0  0
  146.7837  128.7679  151.9240 C   0  0  0  0  0  0  0  0  0  0  0  0
  147.7136  127.6782  152.4049 C   0  0  0  0  0  0  0  0  0  0  0  0
  147.5997  127.9787  150.9269 C   0  0  0  0  0  0  0  0  0  0  0  0
  146.2110  131.1476  152.1520 C   0  0  0  0  0  0  0  0  0  0  0  0
  146.7821  132.5699  152.2796 C   0  0  0  0  0  0  0  0  0  0  0  0
  149.0981  136.1654  153.4101 H   0  0  0  0  0  0  0  0  0  0  0  0
  148.7401  138.4348  154.8750 H   0  0  0  0  0  0  0  0  0  0  0  0
  152.1117  138.9726  157.4261 H   0  0  0  0  0  0  0  0  0  0  0  0
  148.2428  134.5670  152.7215 H   0  0  0  0  0  0  0  0  0  0  0  0
  147.0120  132.5608  154.4138 H   0  0  0  0  0  0  0  0  0  0  0  0
  149.4455  131.7924  152.7403 H   0  0  0  0  0  0  0  0  0  0  0  0
  149.3070  131.6679  154.4780 H   0  0  0  0  0  0  0  0  0  0  0  0
  148.9105  129.4727  153.3591 H   0  0  0  0  0  0  0  0  0  0  0  0
  147.4979  129.9825  154.2619 H   0  0  0  0  0  0  0  0  0  0  0  0
  145.7042  128.6383  151.9815 H   0  0  0  0  0  0  0  0  0  0  0  0
  148.6350  127.9693  152.9061 H   0  0  0  0  0  0  0  0  0  0  0  0
  147.2625  126.7544  152.7615 H   0  0  0  0  0  0  0  0  0  0  0  0
  147.0739  127.2528  150.3098 H   0  0  0  0  0  0  0  0  0  0  0  0
  148.4458  128.4689  150.4486 H   0  0  0  0  0  0  0  0  0  0  0  0
  145.6414  131.0660  151.2255 H   0  0  0  0  0  0  0  0  0  0  0  0
  145.5166  130.9462  152.9694 H   0  0  0  0  0  0  0  0  0  0  0  0
  145.9666  133.2938  152.3059 H   0  0  0  0  0  0  0  0  0  0  0  0
  147.3736  132.8025  151.3928 H   0  0  0  0  0  0  0  0  0  0  0  0
  147.9071  130.3534  151.3871 H   0  0  0  0  0  0  0  0  0  0  0  0
  1  2  2  0  0  0  0
  2  3  1  0  0  0  0
  2 15  1  0  0  0  0
  3  4  1  0  0  0  0
  3 25  1  0  0  0  0
  4 13  1  0  0  0  0
  4  5  2  0  0  0  0
  5  6  1  0  0  0  0
  5 26  1  0  0  0  0
  6  7  1  0  0  0  0
  6 11  2  0  0  0  0
  7  8  1  0  0  0  0
  7  9  1  0  0  0  0
  7 10  1  0  0  0  0
 11 12  1  0  0  0  0
 11 27  1  0  0  0  0
 12 13  1  0  0  0  0
 13 14  2  0  0  0  0
 15 16  1  0  0  0  0
 15 28  1  0  0  0  0
 16 24  1  0  0  0  0
 16 17  1  0  0  0  0
 16 29  1  0  0  0  0
 17 18  1  0  0  0  0
 17 30  1  0  0  0  0
 17 31  1  0  0  0  0
 18 19  1  0  0  0  0
 18 32  1  0  0  0  0
 18 33  1  0  0  0  0
 19 20  1  0  0  0  0
 19 23  1  0  0  0  0
 19 43  1  0  0  0  0
 20 22  1  0  0  0  0
 20 21  1  0  0  0  0
 20 34  1  0  0  0  0
 21 22  1  0  0  0  0
 21 35  1  0  0  0  0
 21 36  1  0  0  0  0
 22 37  1  0  0  0  0
 22 38  1  0  0  0  0
 23 24  1  0  0  0  0
 23 39  1  0  0  0  0
 23 40  1  0  0  0  0
 24 41  1  0  0  0  0
 24 42  1  0  0  0  0
M  CHG  1  12  -1
M  CHG  1  19   1
M  END
> <s_m_source_file>
AV-unprocessed.smi

> <i_m_source_file_index>
1760

> <i_lp_mmshare_version>
43012

> <i_f3d_flags>
0

> <s_epik_input>
W0NIMl0xW0NIMl1bQ0hdMU4oW0NIMl1bQ0gyXTIpW0NIMl1bQ0gyXVtDSF0yW05IXUMoPU8pW05IXWMzW2NIXWMoQyhGKShGKUYpW2NIXVtuSF1jMz1P

> <s_epik_cmdline>
J2VwaWtfcHl0aG9uJywgJy1waCcsICc3LjAnLCAnLXRuJywgJzgnLCAnLW1hJywgJzIwMCcsICctbWV0YWxfYmluZGluZycsICctaW1hZScsICc8aW5maWxlLm1hZT4nLCAnLW9tYWUnLCAnPG91dGZpbGUubWFlPic=

> <r_lp_tautomer_probability>
0.999

> <r_epik_Ionization_Penalty>
3.16043

> <r_epik_Ionization_Penalty_Charging>
0.268029

> <r_epik_Ionization_Penalty_Neutral>
2.8924

> <r_epik_State_Penalty>
3.0039

> <r_epik_Charging_Adjusted_Penalty>
3.27193

> <i_epik_Tot_Q>
0

> <i_epik_Tot_abs_Q>
2

> <r_epik_Metal_State_Penalty>
0.560618

> <b_epik_Metal_Only>
1

> <s_lp_Force_Field>
OPLS_2005

> <r_lp_Energy>
39.9714

> <b_lp_Chiralities_Consistent>
1

> <s_lp_Variant>
AV-unprocessed.smi:1760-4

> <Gold.Version>
5.8.1

> <Gold.Id.Protein>
6NUR|6NUR_protein|mol2

> <Gold.PLP.Fitness>
43.5826

> <Gold.PLP.PLP>
-34.0565

> <Gold.PLP.part.hbond>
-4.0000

> <Gold.PLP.part.metal>
0.0000

> <Gold.PLP.part.buried>
-4.4352

> <Gold.PLP.part.nonpolar>
-26.6991

> <Gold.PLP.part.repulsive>
0.0946

> <Gold.PLP.ligand.clash>
0.4546

> <Gold.PLP.ligand.torsion>
1.4919

> <Gold.PLP.Chemscore.Hbond>
3.8960

> <Gold.PLP.Chemscore.CHOScore>
0.0000

> <Gold.PLP.Chemscore.Metal>
0.0000

> <Gold.Chemscore.Hbonds>
donor molecule, donor type, donor heavy atom, donor atom, acceptor molecule, acceptor atom, score
      L1  H     3    25       P1  7948  1.00
      L1  H    15    28       P1  7948  0.86
      L1  H    19    43       P1 10747  1.00
      P1  H 10752 10764       L1    14  0.66

> <Gold.PLP.Chemscore.Internal.Correction>
1.2764

> <Gold.Rescore>
     Score         DG    S(hbond)    S(metal)    S(lipo)     H(rot)  DE(clash)    DE(int)     intcor
     19.87     -22.52       3.57        0.00      71.67       1.28       0.15       2.50       ----

> <Gold.Chemscore.Fitness>
19.8746

> <Gold.Chemscore.DG>
-22.5231

> <Gold.Chemscore.ZeroCoef>
-5.4800

> <Gold.Chemscore.Hbond>
3.5723

> <Gold.Chemscore.Metal>
0.0000

> <Gold.Chemscore.Lipo>
71.6694

> <Gold.Chemscore.Internal_Hbond>
0.0000

> <Gold.Chemscore.DEClash>
0.1465

> <Gold.Chemscore.DEInternal>
2.5020

> <Gold.Chemscore.Rot>
1.2787

> <Gold.Chemscore.Internal.Correction>
   9.000000E+99

> <Gold.Chemscore.Hbonds>
donor molecule, donor type, donor heavy atom, donor atom, acceptor molecule, acceptor atom, score
      L1  H     3    25       P1  7948  0.88
      L1  H    15    28       P1  7948  0.33
      L1  H    19    43       P1 10747  0.99
      P1  H 10752 10764       L1    14  0.08

> <Gold.Chemscore.Hbond.Weighted>
-11.9313

> <Gold.Chemscore.Metal.Weighted>
-0.0000

> <Gold.Chemscore.Lipo.Weighted>
-8.3853

> <Gold.Chemscore.Internal_Hbond.Weighted>
0.0000

> <Gold.Chemscore.DEClash.Weighted>
0.1465

> <Gold.Chemscore.DEInternal.Weighted>
2.5020

> <Gold.Chemscore.Rot.Weighted>
3.2735

> <Gold.Chemscore.Internal.Correction.Weighted>
   9.000000E+99

> <Gold.Protein.RotatedTorsions>
[ 6907 6896 6895 6894 ] final -142.47 input  -60.11 | X-H torsion
[ 7974 7965 7964 7962 ] final   81.12 input  175.53 | X-H torsion
[ 8008 7997 7996 7995 ] final  177.49 input   59.86 | X-H torsion
[ 10167 10162 10161 10158 ] final -129.34 input  -65.29 | X-H torsion
[ 10718 10713 10712 10709 ] final   98.20 input   66.30 | X-H torsion
[ 10763 10752 10751 10750 ] final  -30.64 input  -60.55 | X-H torsion
[ 11005 11000 10999 10996 ] final    2.65 input  -57.11 | X-H torsion

> <Gold.Protein.ActiveResidues>
 VAL166  LYS551  ARG553  GLY616  TRP617  ASP618  TYR619  PRO620  LYS621  CYS622 
 ASP623  PHE694  ASN695  SER759  ASP760  ASP761  ALA762  ILE779  LEU786  VAL792 
 PHE793  MET794  SER795  GLU796  ALA797  LYS798  CYS799  TRP800  GLU811  SER814 

> <Gold.Protein.RotatedAtoms>
  151.0874  133.5342  159.2616 H   0  0  0  0  0  0  0  0  0  0  0  0  # atno 6907 bound_to 6896
  151.2222  135.0522  159.8964 H   0  0  0  0  0  0  0  0  0  0  0  0  # atno 6908 bound_to 6896
  152.5430  134.0675  159.8233 H   0  0  0  0  0  0  0  0  0  0  0  0  # atno 6909 bound_to 6896
  145.6423  139.2428  143.2023 H   0  0  0  0  0  0  0  0  0  0  0  0  # atno 7974 bound_to 7965
  156.0651  140.1357  156.9895 H   0  0  0  0  0  0  0  0  0  0  0  0  # atno 8008 bound_to 7997
  154.4502  140.0983  156.6646 H   0  0  0  0  0  0  0  0  0  0  0  0  # atno 8009 bound_to 7997
  155.5316  140.3459  155.4430 H   0  0  0  0  0  0  0  0  0  0  0  0  # atno 8010 bound_to 7997
  139.9408  143.6166  152.2504 H   0  0  0  0  0  0  0  0  0  0  0  0  # atno 10167 bound_to 10162
  157.6900  131.0633  150.4760 H   0  0  0  0  0  0  0  0  0  0  0  0  # atno 10718 bound_to 10713
  153.7844  135.6902  153.4882 H   0  0  0  0  0  0  0  0  0  0  0  0  # atno 10763 bound_to 10752
  153.1791  135.4513  155.0002 H   0  0  0  0  0  0  0  0  0  0  0  0  # atno 10764 bound_to 10752
  154.8069  135.3361  154.7344 H   0  0  0  0  0  0  0  0  0  0  0  0  # atno 10765 bound_to 10752
  140.6019  133.9828  155.8136 H   0  0  0  0  0  0  0  0  0  0  0  0  # atno 11005 bound_to 11000
  146.1270  140.7235  142.9430 LP  0  0  0  0  0  0  0  0  0  0  0  0  # atno 17320 bound_to 7965
  144.7153  140.4186  143.7049 LP  0  0  0  0  0  0  0  0  0  0  0  0  # atno 17321 bound_to 7965
  139.6706  144.7661  151.1790 LP  0  0  0  0  0  0  0  0  0  0  0  0  # atno 17342 bound_to 10162
  140.7611  143.5871  150.8835 LP  0  0  0  0  0  0  0  0  0  0  0  0  # atno 17343 bound_to 10162
  156.5095  130.4136  149.6309 LP  0  0  0  0  0  0  0  0  0  0  0  0  # atno 17370 bound_to 10713
  156.3254  130.7303  151.2223 LP  0  0  0  0  0  0  0  0  0  0  0  0  # atno 17371 bound_to 10713
  141.0866  133.9980  157.3303 LP  0  0  0  0  0  0  0  0  0  0  0  0  # atno 17394 bound_to 11000
  139.9229  135.0201  156.8129 LP  0  0  0  0  0  0  0  0  0  0  0  0  # atno 17395 bound_to 11000

$$$$
