AV-unprocessed.smi:235|AV-procd|sdf|1807|dock1
  -GOLD-   2262020383D 1   1.00000     0.00000
 Structure written by MMmdl.
 54 58  0  0  0  0  0  0  0  0  1 V2000
  153.0667  134.3586  161.0581 O   0  0  0  0  0  0  0  0  0  0  0  0
  154.0385  134.0299  161.7399 C   0  0  0  0  0  0  0  0  0  0  0  0
  154.7953  132.9542  161.4783 N   0  0  0  0  0  0  0  0  0  0  0  0
  154.6049  132.0494  160.3916 C   0  0  0  0  0  0  0  0  0  0  0  0
  155.7723  131.8224  159.4552 C   0  0  0  0  0  0  0  0  0  0  0  0
  154.5887  132.6271  158.9929 C   0  0  0  0  0  0  0  0  0  0  0  0
  154.4401  134.8512  162.9733 C   0  0  2  0  0  0  0  0  0  0  0  0
  154.4261  134.0115  164.2570 C   0  0  0  0  0  0  0  0  0  0  0  0
  154.2440  135.0607  165.3469 C   0  0  0  0  0  0  0  0  0  0  0  0
  153.3159  136.0834  164.6910 C   0  0  0  0  0  0  0  0  0  0  0  0
  153.4930  135.9335  163.2491 N   0  0  0  0  0  0  0  0  0  0  0  0
  153.7021  137.0772  162.5605 C   0  0  0  0  0  0  0  0  0  0  0  0
  154.8145  137.7895  162.8629 N   0  0  0  0  0  0  0  0  0  0  0  0
  155.0673  138.9354  162.2225 C   0  0  0  0  0  0  0  0  0  0  0  0
  154.3512  139.5353  161.2682 N   0  0  0  0  0  0  0  0  0  0  0  0
  153.2317  138.8177  160.9643 C   0  0  0  0  0  0  0  0  0  0  0  0
  152.8331  137.5869  161.5555 C   0  0  0  0  0  0  0  0  0  0  0  0
  151.6375  137.1540  160.9940 N   0  0  0  0  0  0  0  0  0  0  0  0
  151.3467  138.0773  160.1181 C   0  0  0  0  0  0  0  0  0  0  0  0
  152.2505  139.1124  160.0357 N   0  0  0  0  0  0  0  0  0  0  0  0
  152.1801  140.2643  159.1552 C   0  0  0  0  0  0  0  0  0  0  0  0
  152.5307  141.5769  159.8818 C   0  0  1  0  0  0  0  0  0  0  0  0
  153.9306  141.7869  159.8848 O   0  0  0  0  0  0  0  0  0  0  0  0
  151.8062  142.8013  159.2878 C   0  0  1  0  0  0  0  0  0  0  0  0
  152.2863  144.1776  159.7809 C   0  0  0  0  0  0  0  0  0  0  0  0
  152.5760  144.9423  158.4997 C   0  0  0  0  0  0  0  0  0  0  0  0
  151.7821  144.1740  157.4505 C   0  0  0  0  0  0  0  0  0  0  0  0
  151.9242  142.8272  157.8691 O   0  0  0  0  0  0  0  0  0  0  0  0
  155.5696  132.7624  162.0972 H   0  0  0  0  0  0  0  0  0  0  0  0
  153.9557  131.1917  160.5620 H   0  0  0  0  0  0  0  0  0  0  0  0
  156.6976  132.3601  159.6536 H   0  0  0  0  0  0  0  0  0  0  0  0
  155.8946  130.8246  159.0382 H   0  0  0  0  0  0  0  0  0  0  0  0
  153.9200  132.1664  158.2685 H   0  0  0  0  0  0  0  0  0  0  0  0
  154.7223  133.7019  158.8845 H   0  0  0  0  0  0  0  0  0  0  0  0
  155.4428  135.2585  162.8287 H   0  0  0  0  0  0  0  0  0  0  0  0
  153.5809  133.3206  164.2673 H   0  0  0  0  0  0  0  0  0  0  0  0
  155.3387  133.4293  164.3884 H   0  0  0  0  0  0  0  0  0  0  0  0
  153.8394  134.6507  166.2726 H   0  0  0  0  0  0  0  0  0  0  0  0
  155.2049  135.5252  165.5729 H   0  0  0  0  0  0  0  0  0  0  0  0
  152.2763  135.8512  164.9242 H   0  0  0  0  0  0  0  0  0  0  0  0
  153.5122  137.0924  165.0577 H   0  0  0  0  0  0  0  0  0  0  0  0
  155.9726  139.4448  162.5184 H   0  0  0  0  0  0  0  0  0  0  0  0
  150.4605  138.0269  159.5022 H   0  0  0  0  0  0  0  0  0  0  0  0
  152.8515  140.0988  158.3117 H   0  0  0  0  0  0  0  0  0  0  0  0
  151.1709  140.3182  158.7452 H   0  0  0  0  0  0  0  0  0  0  0  0
  152.2284  141.4851  160.9259 H   0  0  0  0  0  0  0  0  0  0  0  0
  154.2600  141.6057  159.0177 H   0  0  0  0  0  0  0  0  0  0  0  0
  150.7412  142.7152  159.5104 H   0  0  0  0  0  0  0  0  0  0  0  0
  151.4951  144.6664  160.3510 H   0  0  0  0  0  0  0  0  0  0  0  0
  153.1672  144.1293  160.4215 H   0  0  0  0  0  0  0  0  0  0  0  0
  152.2977  145.9949  158.5571 H   0  0  0  0  0  0  0  0  0  0  0  0
  153.6405  144.8847  158.2690 H   0  0  0  0  0  0  0  0  0  0  0  0
  150.7284  144.4565  157.4723 H   0  0  0  0  0  0  0  0  0  0  0  0
  152.1609  144.3246  156.4393 H   0  0  0  0  0  0  0  0  0  0  0  0
  1  2  2  0  0  0  0
  2  3  1  0  0  0  0
  2  7  1  0  0  0  0
  3  4  1  0  0  0  0
  3 29  1  0  0  0  0
  4  6  1  0  0  0  0
  4  5  1  0  0  0  0
  4 30  1  0  0  0  0
  5  6  1  0  0  0  0
  5 31  1  0  0  0  0
  5 32  1  0  0  0  0
  6 33  1  0  0  0  0
  6 34  1  0  0  0  0
  7 11  1  0  0  0  0
  7  8  1  0  0  0  0
  7 35  1  0  0  0  0
  8  9  1  0  0  0  0
  8 36  1  0  0  0  0
  8 37  1  0  0  0  0
  9 10  1  0  0  0  0
  9 38  1  0  0  0  0
  9 39  1  0  0  0  0
 10 11  1  0  0  0  0
 10 40  1  0  0  0  0
 10 41  1  0  0  0  0
 11 12  1  0  0  0  0
 12 17  1  0  0  0  0
 12 13  2  0  0  0  0
 13 14  1  0  0  0  0
 14 15  2  0  0  0  0
 14 42  1  0  0  0  0
 15 16  1  0  0  0  0
 16 20  1  0  0  0  0
 16 17  2  0  0  0  0
 17 18  1  0  0  0  0
 18 19  2  0  0  0  0
 19 20  1  0  0  0  0
 19 43  1  0  0  0  0
 20 21  1  0  0  0  0
 21 22  1  0  0  0  0
 21 44  1  0  0  0  0
 21 45  1  0  0  0  0
 22 23  1  0  0  0  0
 22 24  1  0  0  0  0
 22 46  1  0  0  0  0
 23 47  1  0  0  0  0
 24 28  1  0  0  0  0
 24 25  1  0  0  0  0
 24 48  1  0  0  0  0
 25 26  1  0  0  0  0
 25 49  1  0  0  0  0
 25 50  1  0  0  0  0
 26 27  1  0  0  0  0
 26 51  1  0  0  0  0
 26 52  1  0  0  0  0
 27 28  1  0  0  0  0
 27 53  1  0  0  0  0
 27 54  1  0  0  0  0
M  END
> <s_m_source_file>
AV-unprocessed.smi

> <i_m_source_file_index>
235

> <i_lp_mmshare_version>
43012

> <i_f3d_flags>
0

> <s_epik_input>
W0NIMl0xW0NIMl1bQ0hdMVtOSF1DKD1PKVtDQEBIXTJbQ0gyXVtDSDJdW0NIMl1OMmMobltjSF1uMyljKGMzNCluW2NIXW40W0NIMl1bQ0BIXShbT0hdKVtDQEBIXTVbQ0gyXVtDSDJdW0NIMl1PNQ==

> <s_epik_cmdline>
J2VwaWtfcHl0aG9uJywgJy1waCcsICc3LjAnLCAnLXRuJywgJzgnLCAnLW1hJywgJzIwMCcsICctbWV0YWxfYmluZGluZycsICctaW1hZScsICc8aW5maWxlLm1hZT4nLCAnLW9tYWUnLCAnPG91dGZpbGUubWFlPic=

> <r_lp_tautomer_probability>
1

> <r_epik_Ionization_Penalty>
0.000526714

> <r_epik_Ionization_Penalty_Charging>
0

> <r_epik_Ionization_Penalty_Neutral>
0.000526714

> <r_epik_State_Penalty>
0.000272704

> <r_epik_Charging_Adjusted_Penalty>
0.000272704

> <i_epik_Tot_Q>
0

> <i_epik_Tot_abs_Q>
0

> <r_epik_Metal_State_Penalty>
-0

> <b_epik_Metal_Only>
0

> <s_lp_Force_Field>
OPLS_2005

> <r_lp_Energy>
60.9584

> <b_lp_Chiralities_Consistent>
1

> <s_lp_Variant>
AV-unprocessed.smi:235-7

> <Gold.Version>
5.8.1

> <Gold.Id.Protein>
6NUR|6NUR_protein|mol2

> <Gold.PLP.Fitness>
46.0036

> <Gold.PLP.PLP>
-41.7328

> <Gold.PLP.part.hbond>
-2.0000

> <Gold.PLP.part.metal>
0.0000

> <Gold.PLP.part.buried>
-5.9760

> <Gold.PLP.part.nonpolar>
-34.2983

> <Gold.PLP.part.repulsive>
0.0586

> <Gold.PLP.ligand.clash>
0.0000

> <Gold.PLP.ligand.torsion>
0.8301

> <Gold.PLP.Chemscore.Hbond>
1.7836

> <Gold.PLP.Chemscore.CHOScore>
0.0000

> <Gold.PLP.Chemscore.Metal>
0.0000

> <Gold.Chemscore.Hbonds>
donor molecule, donor type, donor heavy atom, donor atom, acceptor molecule, acceptor atom, score
      P1  H  6896  6909       L1    18  0.52

> <Gold.PLP.Chemscore.Internal.Correction>
0.5802

> <Gold.Rescore>
     Score         DG    S(hbond)    S(metal)    S(lipo)     H(rot)  DE(clash)    DE(int)     intcor
     14.28     -15.69       1.93        0.00      97.93       3.00       0.01       1.40       ----

> <Gold.Chemscore.Fitness>
14.2827

> <Gold.Chemscore.DG>
-15.6899

> <Gold.Chemscore.ZeroCoef>
-5.4800

> <Gold.Chemscore.Hbond>
1.9251

> <Gold.Chemscore.Metal>
0.0000

> <Gold.Chemscore.Lipo>
97.9262

> <Gold.Chemscore.Internal_Hbond>
0.0000

> <Gold.Chemscore.DEClash>
0.0106

> <Gold.Chemscore.DEInternal>
1.3966

> <Gold.Chemscore.Rot>
2.9989

> <Gold.Chemscore.Internal.Correction>
   9.000000E+99

> <Gold.Chemscore.Hbonds>
donor molecule, donor type, donor heavy atom, donor atom, acceptor molecule, acceptor atom, score
      P1  H  6896  6907       L1     1  0.01
      P1  H  6896  6909       L1    18  0.35

> <Gold.Chemscore.Hbond.Weighted>
-6.4297

> <Gold.Chemscore.Metal.Weighted>
-0.0000

> <Gold.Chemscore.Lipo.Weighted>
-11.4574

> <Gold.Chemscore.Internal_Hbond.Weighted>
0.0000

> <Gold.Chemscore.DEClash.Weighted>
0.0106

> <Gold.Chemscore.DEInternal.Weighted>
1.3966

> <Gold.Chemscore.Rot.Weighted>
7.6772

> <Gold.Chemscore.Internal.Correction.Weighted>
   9.000000E+99

> <Gold.Protein.RotatedTorsions>
[ 6907 6896 6895 6894 ] final  113.96 input  -60.11 | X-H torsion
[ 7974 7965 7964 7962 ] final -120.89 input  175.53 | X-H torsion
[ 8008 7997 7996 7995 ] final  -95.00 input   59.86 | X-H torsion
[ 10167 10162 10161 10158 ] final   76.76 input  -65.29 | X-H torsion
[ 10718 10713 10712 10709 ] final   75.74 input   66.30 | X-H torsion
[ 10763 10752 10751 10750 ] final  128.06 input  -60.55 | X-H torsion
[ 11005 11000 10999 10996 ] final  156.89 input  -57.11 | X-H torsion

> <Gold.Protein.ActiveResidues>
 VAL166  LYS551  ARG553  GLY616  TRP617  ASP618  TYR619  PRO620  LYS621  CYS622 
 ASP623  PHE694  ASN695  SER759  ASP760  ASP761  ALA762  ILE779  LEU786  VAL792 
 PHE793  MET794  SER795  GLU796  ALA797  LYS798  CYS799  TRP800  GLU811  SER814 

> <Gold.Protein.RotatedAtoms>
  152.4830  133.8303  159.7099 H   0  0  0  0  0  0  0  0  0  0  0  0  # atno 6907 bound_to 6896
  150.8895  133.7253  159.2915 H   0  0  0  0  0  0  0  0  0  0  0  0  # atno 6908 bound_to 6896
  151.4731  135.1051  159.9809 H   0  0  0  0  0  0  0  0  0  0  0  0  # atno 6909 bound_to 6896
  145.0463  140.8184  143.4236 H   0  0  0  0  0  0  0  0  0  0  0  0  # atno 7974 bound_to 7965
  154.7557  140.0484  157.0931 H   0  0  0  0  0  0  0  0  0  0  0  0  # atno 8008 bound_to 7997
  155.0001  140.3123  155.4851 H   0  0  0  0  0  0  0  0  0  0  0  0  # atno 8009 bound_to 7997
  156.2894  140.2203  156.5110 H   0  0  0  0  0  0  0  0  0  0  0  0  # atno 8010 bound_to 7997
  139.9888  144.5773  150.7836 H   0  0  0  0  0  0  0  0  0  0  0  0  # atno 10167 bound_to 10162
  157.6646  130.9741  150.1396 H   0  0  0  0  0  0  0  0  0  0  0  0  # atno 10718 bound_to 10713
  153.7195  135.3255  155.3263 H   0  0  0  0  0  0  0  0  0  0  0  0  # atno 10763 bound_to 10752
  154.8360  135.4496  154.1232 H   0  0  0  0  0  0  0  0  0  0  0  0  # atno 10764 bound_to 10752
  153.2348  135.6964  153.7928 H   0  0  0  0  0  0  0  0  0  0  0  0  # atno 10765 bound_to 10752
  140.1717  134.8538  157.2698 H   0  0  0  0  0  0  0  0  0  0  0  0  # atno 11005 bound_to 11000
  145.1583  139.2473  143.5405 LP  0  0  0  0  0  0  0  0  0  0  0  0  # atno 17320 bound_to 7965
  146.3514  140.1304  142.8597 LP  0  0  0  0  0  0  0  0  0  0  0  0  # atno 17321 bound_to 7965
  140.7462  143.2888  151.3389 LP  0  0  0  0  0  0  0  0  0  0  0  0  # atno 17342 bound_to 10162
  139.6355  144.0638  152.2512 LP  0  0  0  0  0  0  0  0  0  0  0  0  # atno 17343 bound_to 10162
  156.2222  130.3675  149.8542 LP  0  0  0  0  0  0  0  0  0  0  0  0  # atno 17370 bound_to 10713
  156.6392  130.8697  151.3510 LP  0  0  0  0  0  0  0  0  0  0  0  0  # atno 17371 bound_to 10713
  140.2369  134.3842  155.7497 LP  0  0  0  0  0  0  0  0  0  0  0  0  # atno 17394 bound_to 11000
  141.2218  133.7244  156.8729 LP  0  0  0  0  0  0  0  0  0  0  0  0  # atno 17395 bound_to 11000

$$$$
