AV-unprocessed.smi:2899|AV-procd|sdf|11144|dock10
  -GOLD-   2272016 23D 1   1.00000     0.00000
 Structure written by MMmdl.
 30 32  0  0  0  0  0  0  0  0  1 V2000
  153.1577  142.7167  161.5837 C   0  0  0  0  0  0  0  0  0  0  0  0
  152.4987  142.9596  160.2427 C   0  0  0  0  0  0  0  0  0  0  0  0
  152.2761  144.2633  159.7533 C   0  0  0  0  0  0  0  0  0  0  0  0
  151.6540  144.3549  158.4917 C   0  0  0  0  0  0  0  0  0  0  0  0
  151.2950  143.2553  157.7934 N   0  0  0  0  0  0  0  0  0  0  0  0
  151.5546  142.0698  158.3506 C   0  0  0  0  0  0  0  0  0  0  0  0
  151.1759  140.9683  157.6055 N   0  0  0  0  0  0  0  0  0  0  0  0
  151.0436  140.9559  156.1530 C   0  0  1  0  0  0  0  0  0  0  0  0
  151.9359  139.9134  155.4755 C   0  0  0  0  0  0  0  0  0  0  0  0
  150.9217  139.1404  154.6198 C   0  0  1  0  0  0  0  0  0  0  0  0
  150.0555  138.2093  155.4779 C   0  0  0  0  0  0  0  0  0  0  0  0
  149.1478  139.2057  156.1965 C   0  0  0  0  0  0  0  0  0  0  0  0
  149.6473  140.5506  155.6413 C   0  0  2  0  0  0  0  0  0  0  0  0
  149.9839  140.1613  154.3202 O   0  0  0  0  0  0  0  0  0  0  0  0
  152.1362  141.8649  159.5389 N   0  0  0  0  0  0  0  0  0  0  0  0
  153.3609  143.6561  162.0987 H   0  0  0  0  0  0  0  0  0  0  0  0
  154.1023  142.1884  161.4514 H   0  0  0  0  0  0  0  0  0  0  0  0
  152.5111  142.1124  162.2204 H   0  0  0  0  0  0  0  0  0  0  0  0
  152.5631  145.1436  160.3093 H   0  0  0  0  0  0  0  0  0  0  0  0
  151.4437  145.3135  158.0410 H   0  0  0  0  0  0  0  0  0  0  0  0
  150.8671  140.1543  158.1162 H   0  0  0  0  0  0  0  0  0  0  0  0
  151.3001  141.9424  155.7641 H   0  0  0  0  0  0  0  0  0  0  0  0
  152.6812  140.4048  154.8491 H   0  0  0  0  0  0  0  0  0  0  0  0
  152.4605  139.2605  156.1748 H   0  0  0  0  0  0  0  0  0  0  0  0
  151.3570  138.6573  153.7447 H   0  0  0  0  0  0  0  0  0  0  0  0
  149.4663  137.5384  154.8517 H   0  0  0  0  0  0  0  0  0  0  0  0
  150.6490  137.6045  156.1645 H   0  0  0  0  0  0  0  0  0  0  0  0
  148.1074  139.0397  155.9152 H   0  0  0  0  0  0  0  0  0  0  0  0
  149.2158  139.1390  157.2825 H   0  0  0  0  0  0  0  0  0  0  0  0
  148.9073  141.3497  155.6925 H   0  0  0  0  0  0  0  0  0  0  0  0
  1  2  1  0  0  0  0
  1 16  1  0  0  0  0
  1 17  1  0  0  0  0
  1 18  1  0  0  0  0
  2 15  1  0  0  0  0
  2  3  2  0  0  0  0
  3  4  1  0  0  0  0
  3 19  1  0  0  0  0
  4  5  2  0  0  0  0
  4 20  1  0  0  0  0
  5  6  1  0  0  0  0
  6  7  1  0  0  0  0
  6 15  2  0  0  0  0
  7  8  1  0  0  0  0
  7 21  1  0  0  0  0
  8 13  1  0  0  0  0
  8  9  1  0  0  0  0
  8 22  1  0  0  0  0
  9 10  1  0  0  0  0
  9 23  1  0  0  0  0
  9 24  1  0  0  0  0
 10 14  1  0  0  0  0
 10 11  1  0  0  0  0
 10 25  1  0  0  0  0
 11 12  1  0  0  0  0
 11 26  1  0  0  0  0
 11 27  1  0  0  0  0
 12 13  1  0  0  0  0
 12 28  1  0  0  0  0
 12 29  1  0  0  0  0
 13 14  1  0  0  0  0
 13 30  1  0  0  0  0
M  END
> <s_m_source_file>
AV-unprocessed.smi

> <i_m_source_file_index>
2899

> <i_lp_mmshare_version>
43012

> <i_f3d_flags>
0

> <s_epik_input>
W0NIM11jMVtjSF1bY0hdbmMobjEpW05IXVtDQEhdKFtDSDJdW0NAQEhdMjMpW0NAQEhdKE8zKVtDSDJdW0NIMl0y

> <s_epik_cmdline>
J2VwaWtfcHl0aG9uJywgJy1waCcsICc3LjAnLCAnLXRuJywgJzgnLCAnLW1hJywgJzIwMCcsICctbWV0YWxfYmluZGluZycsICctaW1hZScsICc8aW5maWxlLm1hZT4nLCAnLW9tYWUnLCAnPG91dGZpbGUubWFlPic=

> <r_lp_tautomer_probability>
1

> <r_epik_Ionization_Penalty>
0.00589655

> <r_epik_Ionization_Penalty_Charging>
0

> <r_epik_Ionization_Penalty_Neutral>
0.00589655

> <r_epik_State_Penalty>
0.00375391

> <r_epik_Charging_Adjusted_Penalty>
0.00375391

> <i_epik_Tot_Q>
0

> <i_epik_Tot_abs_Q>
0

> <r_epik_Metal_State_Penalty>
-0

> <b_epik_Metal_Only>
0

> <s_lp_Force_Field>
OPLS_2005

> <r_lp_Energy>
31.8412

> <b_lp_Chiralities_Consistent>
1

> <s_lp_Variant>
AV-unprocessed.smi:2899-2

> <Gold.Version>
5.8.1

> <Gold.Id.Protein>
6NUR|6NUR_protein|mol2

> <Gold.PLP.Fitness>
36.8426

> <Gold.PLP.PLP>
-34.1275

> <Gold.PLP.part.hbond>
-0.9236

> <Gold.PLP.part.metal>
0.0000

> <Gold.PLP.part.buried>
-5.0270

> <Gold.PLP.part.nonpolar>
-28.9698

> <Gold.PLP.part.repulsive>
0.3824

> <Gold.PLP.ligand.clash>
0.0000

> <Gold.PLP.ligand.torsion>
0.1468

> <Gold.PLP.Chemscore.Hbond>
1.0000

> <Gold.PLP.Chemscore.CHOScore>
0.0000

> <Gold.PLP.Chemscore.Metal>
0.0000

> <Gold.PLP.Chemscore.Internal.Correction>
0.0088

> <Gold.Rescore>
     Score         DG    S(hbond)    S(metal)    S(lipo)     H(rot)  DE(clash)    DE(int)     intcor
     15.53     -15.68       0.91        0.00      83.00       1.00       0.00       0.15       ----

> <Gold.Chemscore.Fitness>
15.5279

> <Gold.Chemscore.DG>
-15.6760

> <Gold.Chemscore.ZeroCoef>
-5.4800

> <Gold.Chemscore.Hbond>
0.9116

> <Gold.Chemscore.Metal>
0.0000

> <Gold.Chemscore.Lipo>
83.0023

> <Gold.Chemscore.Internal_Hbond>
0.0000

> <Gold.Chemscore.DEClash>
0.0000

> <Gold.Chemscore.DEInternal>
0.1482

> <Gold.Chemscore.Rot>
1.0000

> <Gold.Chemscore.Internal.Correction>
   9.000000E+99

> <Gold.Chemscore.Hbond.Weighted>
-3.0448

> <Gold.Chemscore.Metal.Weighted>
-0.0000

> <Gold.Chemscore.Lipo.Weighted>
-9.7113

> <Gold.Chemscore.Internal_Hbond.Weighted>
0.0000

> <Gold.Chemscore.DEClash.Weighted>
0.0000

> <Gold.Chemscore.DEInternal.Weighted>
0.1482

> <Gold.Chemscore.Rot.Weighted>
2.5600

> <Gold.Chemscore.Internal.Correction.Weighted>
   9.000000E+99

> <Gold.Protein.RotatedTorsions>
[ 6907 6896 6895 6894 ] final  101.83 input  -60.11 | X-H torsion
[ 7974 7965 7964 7962 ] final    2.61 input  175.53 | X-H torsion
[ 8008 7997 7996 7995 ] final  -54.76 input   59.86 | X-H torsion
[ 10167 10162 10161 10158 ] final  -49.07 input  -65.29 | X-H torsion
[ 10718 10713 10712 10709 ] final -137.74 input   66.30 | X-H torsion
[ 10763 10752 10751 10750 ] final   97.69 input  -60.55 | X-H torsion
[ 11005 11000 10999 10996 ] final -112.39 input  -57.11 | X-H torsion

> <Gold.Protein.ActiveResidues>
 VAL166  LYS551  ARG553  GLY616  TRP617  ASP618  TYR619  PRO620  LYS621  CYS622 
 ASP623  PHE694  ASN695  SER759  ASP760  ASP761  ALA762  ILE779  LEU786  VAL792 
 PHE793  MET794  SER795  GLU796  ALA797  LYS798  CYS799  TRP800  GLU811  SER814 

> <Gold.Protein.RotatedAtoms>
  152.5339  134.0067  159.7919 H   0  0  0  0  0  0  0  0  0  0  0  0  # atno 6907 bound_to 6896
  151.0277  133.5811  159.2671 H   0  0  0  0  0  0  0  0  0  0  0  0  # atno 6908 bound_to 6896
  151.2827  135.0726  159.9229 H   0  0  0  0  0  0  0  0  0  0  0  0  # atno 6909 bound_to 6896
  146.2444  140.0810  142.8357 H   0  0  0  0  0  0  0  0  0  0  0  0  # atno 7974 bound_to 7965
  154.4173  140.1169  156.5367 H   0  0  0  0  0  0  0  0  0  0  0  0  # atno 8008 bound_to 7997
  155.6550  140.3496  155.4742 H   0  0  0  0  0  0  0  0  0  0  0  0  # atno 8009 bound_to 7997
  155.9761  140.1151  157.0758 H   0  0  0  0  0  0  0  0  0  0  0  0  # atno 8010 bound_to 7997
  140.6702  143.2713  151.4162 H   0  0  0  0  0  0  0  0  0  0  0  0  # atno 10167 bound_to 10162
  156.2915  130.7378  151.1405 H   0  0  0  0  0  0  0  0  0  0  0  0  # atno 10718 bound_to 10713
  153.2799  135.4174  155.1069 H   0  0  0  0  0  0  0  0  0  0  0  0  # atno 10763 bound_to 10752
  154.8486  135.3493  154.6126 H   0  0  0  0  0  0  0  0  0  0  0  0  # atno 10764 bound_to 10752
  153.6547  135.7051  153.5255 H   0  0  0  0  0  0  0  0  0  0  0  0  # atno 10765 bound_to 10752
  141.0678  133.9430  157.2545 H   0  0  0  0  0  0  0  0  0  0  0  0  # atno 11005 bound_to 11000
  145.0733  140.9171  143.4869 LP  0  0  0  0  0  0  0  0  0  0  0  0  # atno 17320 bound_to 7965
  145.0948  139.2864  143.5716 LP  0  0  0  0  0  0  0  0  0  0  0  0  # atno 17321 bound_to 7965
  139.5967  144.1382  152.2152 LP  0  0  0  0  0  0  0  0  0  0  0  0  # atno 17342 bound_to 10162
  140.0753  144.5745  150.7161 LP  0  0  0  0  0  0  0  0  0  0  0  0  # atno 17343 bound_to 10162
  157.7344  131.0582  150.5528 LP  0  0  0  0  0  0  0  0  0  0  0  0  # atno 17370 bound_to 10713
  156.5645  130.4264  149.6048 LP  0  0  0  0  0  0  0  0  0  0  0  0  # atno 17371 bound_to 10713
  139.9493  135.0178  156.8947 LP  0  0  0  0  0  0  0  0  0  0  0  0  # atno 17394 bound_to 11000
  140.5737  134.0418  155.7439 LP  0  0  0  0  0  0  0  0  0  0  0  0  # atno 17395 bound_to 11000

$$$$
