AV-unprocessed.smi:3174|AV-procd|sdf|12121|dock2
  -GOLD-   2272017563D 1   1.00000     0.00000
 Structure written by MMmdl.
 32 33  0  0  0  0  0  0  0  0  1 V2000
  156.6151  137.8034  164.0953 C   0  0  0  0  0  0  0  0  0  0  0  0
  155.8573  136.6697  163.7128 O   0  0  0  0  0  0  0  0  0  0  0  0
  154.8331  136.9862  162.7848 C   0  0  0  0  0  0  0  0  0  0  0  0
  155.4318  137.7266  161.5774 C   0  0  0  0  0  0  0  0  0  0  0  0
  154.3944  138.3718  160.7646 N   0  0  0  0  0  0  0  0  0  0  0  0
  154.4441  139.7559  160.7876 N   0  0  0  0  0  0  0  0  0  0  0  0
  153.5933  140.4498  160.1025 C   0  0  0  0  0  0  0  0  0  0  0  0
  153.6151  141.9392  160.0993 C   0  0  0  0  0  0  0  0  0  0  0  0
  154.0961  142.5835  161.0331 O   0  0  0  0  0  0  0  0  0  0  0  0
  153.0750  142.5182  159.0125 N   0  0  0  0  0  0  0  0  0  0  0  0
  152.9776  143.9227  158.7797 C   0  0  0  0  0  0  0  0  0  0  0  0
  152.2049  144.7489  159.7851 C   0  0  0  0  0  0  0  0  0  0  0  0
  151.6166  144.4827  158.4270 C   0  0  0  0  0  0  0  0  0  0  0  0
  152.5735  139.7945  159.3010 C   0  0  0  0  0  0  0  0  0  0  0  0
  152.5383  138.4441  159.2865 C   0  0  0  0  0  0  0  0  0  0  0  0
  153.4905  137.6355  160.0496 C   0  0  0  0  0  0  0  0  0  0  0  0
  153.4792  136.4050  160.0465 O   0  0  0  0  0  0  0  0  0  0  0  0
  157.3866  137.5046  164.8047 H   0  0  0  0  0  0  0  0  0  0  0  0
  155.9869  138.5537  164.5770 H   0  0  0  0  0  0  0  0  0  0  0  0
  157.1070  138.2579  163.2344 H   0  0  0  0  0  0  0  0  0  0  0  0
  154.3577  136.0651  162.4450 H   0  0  0  0  0  0  0  0  0  0  0  0
  154.0605  137.5933  163.2595 H   0  0  0  0  0  0  0  0  0  0  0  0
  156.1863  138.4412  161.9099 H   0  0  0  0  0  0  0  0  0  0  0  0
  155.9727  137.0115  160.9553 H   0  0  0  0  0  0  0  0  0  0  0  0
  152.7043  141.9126  158.2942 H   0  0  0  0  0  0  0  0  0  0  0  0
  153.8306  144.4131  158.3127 H   0  0  0  0  0  0  0  0  0  0  0  0
  151.7605  144.2330  160.6343 H   0  0  0  0  0  0  0  0  0  0  0  0
  152.5641  145.7555  159.9884 H   0  0  0  0  0  0  0  0  0  0  0  0
  151.5840  145.3112  157.7222 H   0  0  0  0  0  0  0  0  0  0  0  0
  150.7785  143.7904  158.3706 H   0  0  0  0  0  0  0  0  0  0  0  0
  151.8579  140.3656  158.7272 H   0  0  0  0  0  0  0  0  0  0  0  0
  151.7860  137.9441  158.6944 H   0  0  0  0  0  0  0  0  0  0  0  0
  1  2  1  0  0  0  0
  1 18  1  0  0  0  0
  1 19  1  0  0  0  0
  1 20  1  0  0  0  0
  2  3  1  0  0  0  0
  3  4  1  0  0  0  0
  3 21  1  0  0  0  0
  3 22  1  0  0  0  0
  4  5  1  0  0  0  0
  4 23  1  0  0  0  0
  4 24  1  0  0  0  0
  5 16  1  0  0  0  0
  5  6  1  0  0  0  0
  6  7  2  0  0  0  0
  7  8  1  0  0  0  0
  7 14  1  0  0  0  0
  8  9  2  0  0  0  0
  8 10  1  0  0  0  0
 10 11  1  0  0  0  0
 10 25  1  0  0  0  0
 11 13  1  0  0  0  0
 11 12  1  0  0  0  0
 11 26  1  0  0  0  0
 12 13  1  0  0  0  0
 12 27  1  0  0  0  0
 12 28  1  0  0  0  0
 13 29  1  0  0  0  0
 13 30  1  0  0  0  0
 14 15  2  0  0  0  0
 14 31  1  0  0  0  0
 15 16  1  0  0  0  0
 15 32  1  0  0  0  0
 16 17  2  0  0  0  0
M  END
> <s_m_source_file>
AV-unprocessed.smi

> <i_m_source_file_index>
3174

> <i_lp_mmshare_version>
43012

> <i_f3d_flags>
0

> <s_epik_input>
W0NIM11PW0NIMl1bQ0gyXW4xbmMoW2NIXVtjSF1jMT1PKUMoPU8pW05IXVtDSF0yW0NIMl1bQ0gyXTI=

> <s_epik_cmdline>
J2VwaWtfcHl0aG9uJywgJy1waCcsICc3LjAnLCAnLXRuJywgJzgnLCAnLW1hJywgJzIwMCcsICctbWV0YWxfYmluZGluZycsICctaW1hZScsICc8aW5maWxlLm1hZT4nLCAnLW9tYWUnLCAnPG91dGZpbGUubWFlPic=

> <r_lp_tautomer_probability>
1

> <r_epik_Ionization_Penalty>
5.63485e-07

> <r_epik_Ionization_Penalty_Charging>
6.67133e-09

> <r_epik_Ionization_Penalty_Neutral>
5.56814e-07

> <r_epik_State_Penalty>
-0

> <r_epik_Charging_Adjusted_Penalty>
6.67133e-09

> <i_epik_Tot_Q>
0

> <i_epik_Tot_abs_Q>
0

> <r_epik_Metal_State_Penalty>
-0

> <b_epik_Metal_Only>
0

> <s_lp_Force_Field>
OPLS_2005

> <r_lp_Energy>
37.1062

> <b_lp_Chiralities_Consistent>
1

> <s_lp_Variant>
AV-unprocessed.smi:3174-1

> <Gold.Version>
5.8.1

> <Gold.Id.Protein>
6NUR|6NUR_protein|mol2

> <Gold.PLP.Fitness>
39.5394

> <Gold.PLP.PLP>
-37.2194

> <Gold.PLP.part.hbond>
-1.0000

> <Gold.PLP.part.metal>
0.0000

> <Gold.PLP.part.buried>
-4.8507

> <Gold.PLP.part.nonpolar>
-30.6216

> <Gold.PLP.part.repulsive>
0.1548

> <Gold.PLP.ligand.clash>
0.0000

> <Gold.PLP.ligand.torsion>
0.4077

> <Gold.PLP.Chemscore.Hbond>
1.0000

> <Gold.PLP.Chemscore.CHOScore>
0.0000

> <Gold.PLP.Chemscore.Metal>
0.0000

> <Gold.Chemscore.Hbonds>
donor molecule, donor type, donor heavy atom, donor atom, acceptor molecule, acceptor atom, score
      P1  H  6896  6909       L1    17  1.00

> <Gold.PLP.Chemscore.Internal.Correction>
0.1354

> <Gold.Rescore>
     Score         DG    S(hbond)    S(metal)    S(lipo)     H(rot)  DE(clash)    DE(int)     intcor
     13.95     -14.38       1.00        0.00      84.23       1.68       0.15       0.28       ----

> <Gold.Chemscore.Fitness>
13.9520

> <Gold.Chemscore.DG>
-14.3841

> <Gold.Chemscore.ZeroCoef>
-5.4800

> <Gold.Chemscore.Hbond>
0.9994

> <Gold.Chemscore.Metal>
0.0000

> <Gold.Chemscore.Lipo>
84.2341

> <Gold.Chemscore.Internal_Hbond>
0.0000

> <Gold.Chemscore.DEClash>
0.1492

> <Gold.Chemscore.DEInternal>
0.2829

> <Gold.Chemscore.Rot>
1.6756

> <Gold.Chemscore.Internal.Correction>
   9.000000E+99

> <Gold.Chemscore.Hbonds>
donor molecule, donor type, donor heavy atom, donor atom, acceptor molecule, acceptor atom, score
      P1  H  6896  6909       L1    17  0.99

> <Gold.Chemscore.Hbond.Weighted>
-3.3381

> <Gold.Chemscore.Metal.Weighted>
-0.0000

> <Gold.Chemscore.Lipo.Weighted>
-9.8554

> <Gold.Chemscore.Internal_Hbond.Weighted>
0.0000

> <Gold.Chemscore.DEClash.Weighted>
0.1492

> <Gold.Chemscore.DEInternal.Weighted>
0.2829

> <Gold.Chemscore.Rot.Weighted>
4.2894

> <Gold.Chemscore.Internal.Correction.Weighted>
   9.000000E+99

> <Gold.Protein.RotatedTorsions>
[ 6907 6896 6895 6894 ] final  151.72 input  -60.11 | X-H torsion
[ 7974 7965 7964 7962 ] final   44.09 input  175.53 | X-H torsion
[ 8008 7997 7996 7995 ] final -177.16 input   59.86 | X-H torsion
[ 10167 10162 10161 10158 ] final -159.25 input  -65.29 | X-H torsion
[ 10718 10713 10712 10709 ] final   80.12 input   66.30 | X-H torsion
[ 10763 10752 10751 10750 ] final  -35.69 input  -60.55 | X-H torsion
[ 11005 11000 10999 10996 ] final   61.58 input  -57.11 | X-H torsion

> <Gold.Protein.ActiveResidues>
 VAL166  LYS551  ARG553  GLY616  TRP617  ASP618  TYR619  PRO620  LYS621  CYS622 
 ASP623  PHE694  ASN695  SER759  ASP760  ASP761  ALA762  ILE779  LEU786  VAL792 
 PHE793  MET794  SER795  GLU796  ALA797  LYS798  CYS799  TRP800  GLU811  SER814 

> <Gold.Protein.RotatedAtoms>
  152.0967  133.4228  159.4568 H   0  0  0  0  0  0  0  0  0  0  0  0  # atno 6907 bound_to 6896
  150.6863  134.2808  159.4635 H   0  0  0  0  0  0  0  0  0  0  0  0  # atno 6908 bound_to 6896
  152.0664  134.9561  160.0625 H   0  0  0  0  0  0  0  0  0  0  0  0  # atno 6909 bound_to 6896
  146.0599  139.5113  142.9665 H   0  0  0  0  0  0  0  0  0  0  0  0  # atno 7974 bound_to 7965
  156.0036  140.1225  157.0523 H   0  0  0  0  0  0  0  0  0  0  0  0  # atno 8008 bound_to 7997
  154.4251  140.1102  156.5800 H   0  0  0  0  0  0  0  0  0  0  0  0  # atno 8009 bound_to 7997
  155.6178  140.3472  155.4644 H   0  0  0  0  0  0  0  0  0  0  0  0  # atno 8010 bound_to 7997
  139.6629  143.9880  152.2237 H   0  0  0  0  0  0  0  0  0  0  0  0  # atno 10167 bound_to 10162
  157.6797  130.9945  150.2033 H   0  0  0  0  0  0  0  0  0  0  0  0  # atno 10718 bound_to 10713
  153.8674  135.6834  153.4777 H   0  0  0  0  0  0  0  0  0  0  0  0  # atno 10763 bound_to 10752
  153.1307  135.4699  154.9341 H   0  0  0  0  0  0  0  0  0  0  0  0  # atno 10764 bound_to 10752
  154.7730  135.3244  154.8100 H   0  0  0  0  0  0  0  0  0  0  0  0  # atno 10765 bound_to 10752
  140.0151  134.6237  155.9722 H   0  0  0  0  0  0  0  0  0  0  0  0  # atno 11005 bound_to 11000
  145.6579  141.0247  143.1725 LP  0  0  0  0  0  0  0  0  0  0  0  0  # atno 17320 bound_to 7965
  144.7169  139.8166  143.7395 LP  0  0  0  0  0  0  0  0  0  0  0  0  # atno 17321 bound_to 7965
  139.9624  144.6549  150.8067 LP  0  0  0  0  0  0  0  0  0  0  0  0  # atno 17342 bound_to 10162
  140.7587  143.3114  151.2836 LP  0  0  0  0  0  0  0  0  0  0  0  0  # atno 17343 bound_to 10162
  156.2719  130.3723  149.8022 LP  0  0  0  0  0  0  0  0  0  0  0  0  # atno 17370 bound_to 10713
  156.5737  130.8435  151.3363 LP  0  0  0  0  0  0  0  0  0  0  0  0  # atno 17371 bound_to 10713
  141.1737  133.6539  156.4748 LP  0  0  0  0  0  0  0  0  0  0  0  0  # atno 17394 bound_to 11000
  140.4485  134.6950  157.5028 LP  0  0  0  0  0  0  0  0  0  0  0  0  # atno 17395 bound_to 11000

$$$$
