AV-unprocessed.smi:2478|AV-procd|sdf|9765|dock10
  -GOLD-   2272013413D 1   1.00000     0.00000
 Structure written by MMmdl.
 42 43  0  0  0  0  0  0  0  0  1 V2000
  149.0724  141.7165  158.3254 C   0  0  0  0  0  0  0  0  0  0  0  0
  149.6298  141.3426  156.9429 C   0  0  2  0  0  0  0  0  0  0  0  0
  148.5400  141.4009  155.8535 C   0  0  0  0  0  0  0  0  0  0  0  0
  149.1090  141.0584  154.4673 C   0  0  0  0  0  0  0  0  0  0  0  0
  149.8021  139.6877  154.4722 C   0  0  0  0  0  0  0  0  0  0  0  0
  150.8910  139.6164  155.5565 C   0  0  0  0  0  0  0  0  0  0  0  0
  150.3380  139.9685  156.9498 C   0  0  2  0  0  0  0  0  0  0  0  0
  149.4036  138.9621  157.3174 O   0  0  0  0  0  0  0  0  0  0  0  0
  149.9497  137.6537  157.4139 C   0  0  0  0  0  0  0  0  0  0  0  0
  149.7666  137.1339  158.8404 C   0  0  0  0  0  0  0  0  0  0  0  0
  150.7508  137.0141  159.5697 O   0  0  0  0  0  0  0  0  0  0  0  0
  148.5020  136.8517  159.2052 N   0  0  0  0  0  0  0  0  0  0  0  0
  148.0207  136.3453  160.4413 C   0  0  0  0  0  0  0  0  0  0  0  0
  148.3474  136.8840  161.6424 N   0  0  0  0  0  0  0  0  0  0  0  0
  147.8435  136.3395  162.7683 C   0  0  0  0  0  0  0  0  0  0  0  0
  146.9820  135.2287  162.7657 C   0  0  0  0  0  0  0  0  0  0  0  0
  146.6350  134.6616  161.5272 C   0  0  0  0  0  0  0  0  0  0  0  0
  147.1655  135.2196  160.3404 C   0  0  0  0  0  0  0  0  0  0  0  0
  146.8522  134.7196  159.0956 O   0  0  0  0  0  0  0  0  0  0  0  0
  146.9887  133.3856  158.8746 C   0  0  0  0  0  0  0  0  0  0  0  0
  146.5411  133.0625  157.6366 F   0  0  0  0  0  0  0  0  0  0  0  0
  148.2972  133.0408  158.9426 F   0  0  0  0  0  0  0  0  0  0  0  0
  148.2889  141.0263  158.6401 H   0  0  0  0  0  0  0  0  0  0  0  0
  148.6451  142.7196  158.3166 H   0  0  0  0  0  0  0  0  0  0  0  0
  149.8564  141.6992  159.0829 H   0  0  0  0  0  0  0  0  0  0  0  0
  150.3815  142.0926  156.6924 H   0  0  0  0  0  0  0  0  0  0  0  0
  147.7338  140.7079  156.0977 H   0  0  0  0  0  0  0  0  0  0  0  0
  148.0922  142.3947  155.8268 H   0  0  0  0  0  0  0  0  0  0  0  0
  148.3101  141.0680  153.7254 H   0  0  0  0  0  0  0  0  0  0  0  0
  149.8218  141.8265  154.1648 H   0  0  0  0  0  0  0  0  0  0  0  0
  149.0613  138.9052  154.6417 H   0  0  0  0  0  0  0  0  0  0  0  0
  150.2397  139.4893  153.4935 H   0  0  0  0  0  0  0  0  0  0  0  0
  151.3354  138.6206  155.5723 H   0  0  0  0  0  0  0  0  0  0  0  0
  151.6958  140.3076  155.3031 H   0  0  0  0  0  0  0  0  0  0  0  0
  151.1730  140.0031  157.6527 H   0  0  0  0  0  0  0  0  0  0  0  0
  149.4523  136.9858  156.7090 H   0  0  0  0  0  0  0  0  0  0  0  0
  151.0146  137.6642  157.1774 H   0  0  0  0  0  0  0  0  0  0  0  0
  147.7987  136.9932  158.4943 H   0  0  0  0  0  0  0  0  0  0  0  0
  148.1340  136.8046  163.6986 H   0  0  0  0  0  0  0  0  0  0  0  0
  146.5954  134.8243  163.6893 H   0  0  0  0  0  0  0  0  0  0  0  0
  145.9674  133.8134  161.4961 H   0  0  0  0  0  0  0  0  0  0  0  0
  146.4489  132.7968  159.6171 H   0  0  0  0  0  0  0  0  0  0  0  0
  1  2  1  0  0  0  0
  1 23  1  0  0  0  0
  1 24  1  0  0  0  0
  1 25  1  0  0  0  0
  2  7  1  0  0  0  0
  2  3  1  0  0  0  0
  2 26  1  0  0  0  0
  3  4  1  0  0  0  0
  3 27  1  0  0  0  0
  3 28  1  0  0  0  0
  4  5  1  0  0  0  0
  4 29  1  0  0  0  0
  4 30  1  0  0  0  0
  5  6  1  0  0  0  0
  5 31  1  0  0  0  0
  5 32  1  0  0  0  0
  6  7  1  0  0  0  0
  6 33  1  0  0  0  0
  6 34  1  0  0  0  0
  7  8  1  0  0  0  0
  7 35  1  0  0  0  0
  8  9  1  0  0  0  0
  9 10  1  0  0  0  0
  9 36  1  0  0  0  0
  9 37  1  0  0  0  0
 10 11  2  0  0  0  0
 10 12  1  0  0  0  0
 12 13  1  0  0  0  0
 12 38  1  0  0  0  0
 13 18  1  0  0  0  0
 13 14  2  0  0  0  0
 14 15  1  0  0  0  0
 15 16  2  0  0  0  0
 15 39  1  0  0  0  0
 16 17  1  0  0  0  0
 16 40  1  0  0  0  0
 17 18  2  0  0  0  0
 17 41  1  0  0  0  0
 18 19  1  0  0  0  0
 19 20  1  0  0  0  0
 20 21  1  0  0  0  0
 20 22  1  0  0  0  0
 20 42  1  0  0  0  0
M  END
> <s_m_source_file>
AV-unprocessed.smi

> <i_m_source_file_index>
2478

> <i_lp_mmshare_version>
43012

> <i_f3d_flags>
0

> <s_epik_input>
W0NIM11bQ0BASF0xW0NIMl1bQ0gyXVtDSDJdW0NIMl1bQ0BIXTFPW0NIMl1DKD1PKVtOSF1jMm5bY0hdW2NIXVtjSF1jMk9bQ0hdKEYpRg==

> <s_epik_cmdline>
J2VwaWtfcHl0aG9uJywgJy1waCcsICc3LjAnLCAnLXRuJywgJzgnLCAnLW1hJywgJzIwMCcsICctbWV0YWxfYmluZGluZycsICctaW1hZScsICc8aW5maWxlLm1hZT4nLCAnLW9tYWUnLCAnPG91dGZpbGUubWFlPic=

> <r_lp_tautomer_probability>
1

> <r_epik_Ionization_Penalty>
6.06012e-05

> <r_epik_Ionization_Penalty_Charging>
0

> <r_epik_Ionization_Penalty_Neutral>
6.06012e-05

> <r_epik_State_Penalty>
-0

> <r_epik_Charging_Adjusted_Penalty>
0

> <i_epik_Tot_Q>
0

> <i_epik_Tot_abs_Q>
0

> <r_epik_Metal_State_Penalty>
-0

> <b_epik_Metal_Only>
0

> <s_lp_Force_Field>
OPLS_2005

> <r_lp_Energy>
14.1885

> <b_lp_Chiralities_Consistent>
1

> <s_lp_Variant>
AV-unprocessed.smi:2478-3

> <Gold.Version>
5.8.1

> <Gold.Id.Protein>
6NUR|6NUR_protein|mol2

> <Gold.PLP.Fitness>
38.5382

> <Gold.PLP.PLP>
-34.5482

> <Gold.PLP.part.hbond>
-2.3239

> <Gold.PLP.part.metal>
0.0000

> <Gold.PLP.part.buried>
-4.7548

> <Gold.PLP.part.nonpolar>
-28.5322

> <Gold.PLP.part.repulsive>
0.1795

> <Gold.PLP.ligand.clash>
0.0000

> <Gold.PLP.ligand.torsion>
1.0193

> <Gold.PLP.Chemscore.Hbond>
1.9913

> <Gold.PLP.Chemscore.CHOScore>
0.0000

> <Gold.PLP.Chemscore.Metal>
0.0000

> <Gold.Chemscore.Hbonds>
donor molecule, donor type, donor heavy atom, donor atom, acceptor molecule, acceptor atom, score
      P1  H  6896  6909       L1    11  1.00
      P1  H  6931  6943       L1    14  1.00

> <Gold.PLP.Chemscore.Internal.Correction>
0.0549

> <Gold.Rescore>
     Score         DG    S(hbond)    S(metal)    S(lipo)     H(rot)  DE(clash)    DE(int)     intcor
     14.59     -15.48       1.86        0.00      72.80       1.85       0.03       0.86       ----

> <Gold.Chemscore.Fitness>
14.5935

> <Gold.Chemscore.DG>
-15.4847

> <Gold.Chemscore.ZeroCoef>
-5.4800

> <Gold.Chemscore.Hbond>
1.8616

> <Gold.Chemscore.Metal>
0.0000

> <Gold.Chemscore.Lipo>
72.8045

> <Gold.Chemscore.Internal_Hbond>
0.0000

> <Gold.Chemscore.DEClash>
0.0318

> <Gold.Chemscore.DEInternal>
0.8594

> <Gold.Chemscore.Rot>
1.8481

> <Gold.Chemscore.Internal.Correction>
   9.000000E+99

> <Gold.Chemscore.Hbonds>
donor molecule, donor type, donor heavy atom, donor atom, acceptor molecule, acceptor atom, score
      P1  H  6896  6909       L1    11  0.84
      P1  H  6931  6943       L1    14  0.78

> <Gold.Chemscore.Hbond.Weighted>
-6.2177

> <Gold.Chemscore.Metal.Weighted>
-0.0000

> <Gold.Chemscore.Lipo.Weighted>
-8.5181

> <Gold.Chemscore.Internal_Hbond.Weighted>
0.0000

> <Gold.Chemscore.DEClash.Weighted>
0.0318

> <Gold.Chemscore.DEInternal.Weighted>
0.8594

> <Gold.Chemscore.Rot.Weighted>
4.7311

> <Gold.Chemscore.Internal.Correction.Weighted>
   9.000000E+99

> <Gold.Protein.RotatedTorsions>
[ 6907 6896 6895 6894 ] final  100.57 input  -60.11 | X-H torsion
[ 7974 7965 7964 7962 ] final -169.46 input  175.53 | X-H torsion
[ 8008 7997 7996 7995 ] final -164.64 input   59.86 | X-H torsion
[ 10167 10162 10161 10158 ] final   10.23 input  -65.29 | X-H torsion
[ 10718 10713 10712 10709 ] final  157.29 input   66.30 | X-H torsion
[ 10763 10752 10751 10750 ] final   24.85 input  -60.55 | X-H torsion
[ 11005 11000 10999 10996 ] final  -52.06 input  -57.11 | X-H torsion

> <Gold.Protein.ActiveResidues>
 VAL166  LYS551  ARG553  GLY616  TRP617  ASP618  TYR619  PRO620  LYS621  CYS622 
 ASP623  PHE694  ASN695  SER759  ASP760  ASP761  ALA762  ILE779  LEU786  VAL792 
 PHE793  MET794  SER795  GLU796  ALA797  LYS798  CYS799  TRP800  GLU811  SER814 

> <Gold.Protein.RotatedAtoms>
  152.5369  134.0257  159.8001 H   0  0  0  0  0  0  0  0  0  0  0  0  # atno 6907 bound_to 6896
  151.0436  133.5677  159.2656 H   0  0  0  0  0  0  0  0  0  0  0  0  # atno 6908 bound_to 6896
  151.2637  135.0670  159.9162 H   0  0  0  0  0  0  0  0  0  0  0  0  # atno 6909 bound_to 6896
  144.7185  140.2218  143.6315 H   0  0  0  0  0  0  0  0  0  0  0  0  # atno 7974 bound_to 7965
  155.8385  140.0945  157.1749 H   0  0  0  0  0  0  0  0  0  0  0  0  # atno 8008 bound_to 7997
  154.3981  140.1405  156.3761 H   0  0  0  0  0  0  0  0  0  0  0  0  # atno 8009 bound_to 7997
  155.8089  140.3450  155.5449 H   0  0  0  0  0  0  0  0  0  0  0  0  # atno 8010 bound_to 7997
  140.6207  143.8211  150.7171 H   0  0  0  0  0  0  0  0  0  0  0  0  # atno 10167 bound_to 10162
  157.1934  131.0660  151.2066 H   0  0  0  0  0  0  0  0  0  0  0  0  # atno 10718 bound_to 10713
  153.0734  135.6596  154.0198 H   0  0  0  0  0  0  0  0  0  0  0  0  # atno 10763 bound_to 10752
  153.9837  135.2952  155.3419 H   0  0  0  0  0  0  0  0  0  0  0  0  # atno 10764 bound_to 10752
  154.7115  135.5203  153.8744 H   0  0  0  0  0  0  0  0  0  0  0  0  # atno 10765 bound_to 10752
  141.0904  133.6634  156.3969 H   0  0  0  0  0  0  0  0  0  0  0  0  # atno 11005 bound_to 11000
  145.8494  139.2168  143.1781 LP  0  0  0  0  0  0  0  0  0  0  0  0  # atno 17320 bound_to 7965
  146.0275  140.8290  142.9892 LP  0  0  0  0  0  0  0  0  0  0  0  0  # atno 17321 bound_to 7965
  140.1801  143.4122  152.1939 LP  0  0  0  0  0  0  0  0  0  0  0  0  # atno 17342 bound_to 10162
  139.5436  144.7279  151.4655 LP  0  0  0  0  0  0  0  0  0  0  0  0  # atno 17343 bound_to 10162
  157.3838  130.7245  149.6649 LP  0  0  0  0  0  0  0  0  0  0  0  0  # atno 17370 bound_to 10713
  155.9709  130.4165  150.4234 LP  0  0  0  0  0  0  0  0  0  0  0  0  # atno 17371 bound_to 10713
  140.5265  134.6254  157.5336 LP  0  0  0  0  0  0  0  0  0  0  0  0  # atno 17394 bound_to 11000
  139.9729  134.7263  156.0006 LP  0  0  0  0  0  0  0  0  0  0  0  0  # atno 17395 bound_to 11000

$$$$
