AV-unprocessed.smi:45|AV-procd|sdf|412|dock9
  -GOLD-   2262016273D 1   1.00000     0.00000
 Structure written by MMmdl.
 61 64  0  0  0  0  0  0  0  0  2 V2000
  151.3234  142.2651  158.4377 C   0  0  0  0  0  0  0  0  0  0  0  0
  151.3639  140.8804  158.7507 O   0  0  0  0  0  0  0  0  0  0  0  0
  150.8488  139.9881  157.8330 C   0  0  0  0  0  0  0  0  0  0  0  0
  150.4022  140.3568  156.5384 C   0  0  0  0  0  0  0  0  0  0  0  0
  149.8856  139.3883  155.6564 C   0  0  0  0  0  0  0  0  0  0  0  0
  149.8057  138.0379  156.0503 C   0  0  0  0  0  0  0  0  0  0  0  0
  149.2439  136.9970  155.1019 C   0  0  0  0  0  0  0  0  0  0  0  0
  149.4720  135.6329  155.5558 N   0  0  0  0  0  0  0  0  0  0  0  0
  148.8214  134.5424  154.9567 C   0  0  0  0  0  0  0  0  0  0  0  0
  147.9781  134.7891  153.9193 N   0  3  0  0  0  0  0  0  0  0  0  0
  147.3384  133.7874  153.2937 C   0  0  0  0  0  0  0  0  0  0  0  0
  146.4775  134.0804  152.2371 N   0  0  0  0  0  0  0  0  0  0  0  0
  146.2887  133.1495  151.1292 C   0  0  0  0  0  0  0  0  0  0  0  0
  144.8475  133.3395  150.6587 C   0  0  0  0  0  0  0  0  0  0  0  0
  144.5594  134.7917  151.0166 C   0  0  0  0  0  0  0  0  0  0  0  0
  145.3411  134.9993  152.3219 C   0  0  2  0  0  0  0  0  0  0  0  0
  145.7578  136.4702  152.5345 C   0  0  0  0  0  0  0  0  0  0  0  0
  146.2502  137.0077  151.3261 O   0  0  0  0  0  0  0  0  0  0  0  0
  147.4927  132.5089  153.6618 N   0  0  0  0  0  0  0  0  0  0  0  0
  148.3157  132.2107  154.6844 C   0  0  0  0  0  0  0  0  0  0  0  0
  149.0285  133.2048  155.3826 C   0  0  0  0  0  0  0  0  0  0  0  0
  149.9142  132.8365  156.5419 C   0  0  0  0  0  0  0  0  0  0  0  0
  149.7328  133.3152  157.6615 O   0  0  0  0  0  0  0  0  0  0  0  0
  150.9073  131.9803  156.2541 N   0  0  0  0  0  0  0  0  0  0  0  0
  151.8440  131.4362  157.2299 C   0  0  0  0  0  0  0  0  0  0  0  0
  152.9121  130.5701  156.5845 C   0  0  0  0  0  0  0  0  0  0  0  0
  152.4911  129.5899  155.7791 N   0  0  0  0  0  0  0  0  0  0  0  0
  153.4417  128.8290  155.1943 C   0  0  0  0  0  0  0  0  0  0  0  0
  154.8146  129.0547  155.4201 C   0  0  0  0  0  0  0  0  0  0  0  0
  155.1376  130.1172  156.2878 C   0  0  0  0  0  0  0  0  0  0  0  0
  154.1829  130.8754  156.8693 N   0  0  0  0  0  0  0  0  0  0  0  0
  150.2505  137.6633  157.3334 C   0  0  0  0  0  0  0  0  0  0  0  0
  150.7667  138.6310  158.2176 C   0  0  0  0  0  0  0  0  0  0  0  0
  151.2991  138.1379  159.7853 Cl  0  0  0  0  0  0  0  0  0  0  0  0
  144.7226  134.6707  153.1589 H   0  0  0  0  0  0  0  0  0  0  0  0
  151.7629  142.8323  159.2580 H   0  0  0  0  0  0  0  0  0  0  0  0
  150.2983  142.6150  158.3078 H   0  0  0  0  0  0  0  0  0  0  0  0
  151.8992  142.4875  157.5383 H   0  0  0  0  0  0  0  0  0  0  0  0
  150.4441  141.3796  156.1963 H   0  0  0  0  0  0  0  0  0  0  0  0
  149.5488  139.6868  154.6743 H   0  0  0  0  0  0  0  0  0  0  0  0
  148.1719  137.1679  154.9969 H   0  0  0  0  0  0  0  0  0  0  0  0
  149.6883  137.1258  154.1140 H   0  0  0  0  0  0  0  0  0  0  0  0
  150.1446  135.4728  156.2929 H   0  0  0  0  0  0  0  0  0  0  0  0
  146.9913  133.4040  150.3349 H   0  0  0  0  0  0  0  0  0  0  0  0
  146.4681  132.1141  151.4216 H   0  0  0  0  0  0  0  0  0  0  0  0
  144.7145  133.1237  149.5983 H   0  0  0  0  0  0  0  0  0  0  0  0
  144.1837  132.6830  151.2233 H   0  0  0  0  0  0  0  0  0  0  0  0
  144.9480  135.4403  150.2298 H   0  0  0  0  0  0  0  0  0  0  0  0
  143.4943  134.9991  151.1245 H   0  0  0  0  0  0  0  0  0  0  0  0
  144.9209  137.0892  152.8547 H   0  0  0  0  0  0  0  0  0  0  0  0
  146.5251  136.5505  153.3053 H   0  0  0  0  0  0  0  0  0  0  0  0
  147.1731  136.8132  151.2611 H   0  0  0  0  0  0  0  0  0  0  0  0
  148.3944  131.1659  154.9477 H   0  0  0  0  0  0  0  0  0  0  0  0
  150.9996  131.6476  155.3056 H   0  0  0  0  0  0  0  0  0  0  0  0
  152.3289  132.2674  157.7425 H   0  0  0  0  0  0  0  0  0  0  0  0
  151.3052  130.8762  157.9968 H   0  0  0  0  0  0  0  0  0  0  0  0
  153.1054  128.0359  154.5433 H   0  0  0  0  0  0  0  0  0  0  0  0
  155.5766  128.4475  154.9541 H   0  0  0  0  0  0  0  0  0  0  0  0
  156.1650  130.3606  156.5146 H   0  0  0  0  0  0  0  0  0  0  0  0
  150.1941  136.6311  157.6464 H   0  0  0  0  0  0  0  0  0  0  0  0
  147.8358  135.7533  153.6199 H   0  0  0  0  0  0  0  0  0  0  0  0
  1  2  1  0  0  0  0
  1 36  1  0  0  0  0
  1 37  1  0  0  0  0
  1 38  1  0  0  0  0
  2  3  1  0  0  0  0
  3 33  1  0  0  0  0
  3  4  2  0  0  0  0
  4  5  1  0  0  0  0
  4 39  1  0  0  0  0
  5  6  2  0  0  0  0
  5 40  1  0  0  0  0
  6  7  1  0  0  0  0
  6 32  1  0  0  0  0
  7  8  1  0  0  0  0
  7 41  1  0  0  0  0
  7 42  1  0  0  0  0
  8  9  1  0  0  0  0
  8 43  1  0  0  0  0
  9 21  1  0  0  0  0
  9 10  2  0  0  0  0
 10 11  1  0  0  0  0
 10 61  1  0  0  0  0
 11 12  1  0  0  0  0
 11 19  2  0  0  0  0
 12 16  1  0  0  0  0
 12 13  1  0  0  0  0
 13 14  1  0  0  0  0
 13 44  1  0  0  0  0
 13 45  1  0  0  0  0
 14 15  1  0  0  0  0
 14 46  1  0  0  0  0
 14 47  1  0  0  0  0
 15 16  1  0  0  0  0
 15 48  1  0  0  0  0
 15 49  1  0  0  0  0
 16 35  1  0  0  0  0
 16 17  1  0  0  0  0
 17 18  1  0  0  0  0
 17 50  1  0  0  0  0
 17 51  1  0  0  0  0
 18 52  1  0  0  0  0
 19 20  1  0  0  0  0
 20 21  2  0  0  0  0
 20 53  1  0  0  0  0
 21 22  1  0  0  0  0
 22 23  2  0  0  0  0
 22 24  1  0  0  0  0
 24 25  1  0  0  0  0
 24 54  1  0  0  0  0
 25 26  1  0  0  0  0
 25 55  1  0  0  0  0
 25 56  1  0  0  0  0
 26 31  1  0  0  0  0
 26 27  2  0  0  0  0
 27 28  1  0  0  0  0
 28 29  2  0  0  0  0
 28 57  1  0  0  0  0
 29 30  1  0  0  0  0
 29 58  1  0  0  0  0
 30 31  2  0  0  0  0
 30 59  1  0  0  0  0
 32 33  2  0  0  0  0
 32 60  1  0  0  0  0
 33 34  1  0  0  0  0
M  CHG  1  10   1
M  END
> <s_m_source_file>
AV-unprocessed.smi

> <i_m_source_file_index>
45

> <i_lp_mmshare_version>
43012

> <i_f3d_flags>
0

> <s_epik_input>
W0NIM11PYzFbY0hdW2NIXWMoW2NIXWMxQ2wpW0NIMl1bTkhdYzJuYyhOM1tDSDJdW0NIMl1bQ0gyXVtDQEhdM1tDSDJdW09IXSluW2NIXWMyQyg9TylbTkhdW0NIMl1jNG5bY0hdW2NIXVtjSF1uNA==

> <s_epik_cmdline>
J2VwaWtfcHl0aG9uJywgJy1waCcsICc3LjAnLCAnLXRuJywgJzgnLCAnLW1hJywgJzIwMCcsICctbWV0YWxfYmluZGluZycsICctaW1hZScsICc8aW5maWxlLm1hZT4nLCAnLW9tYWUnLCAnPG91dGZpbGUubWFlPic=

> <r_lp_tautomer_probability>
0.424989

> <r_epik_Ionization_Penalty>
2.31209

> <r_epik_Ionization_Penalty_Charging>
2.31199

> <r_epik_Ionization_Penalty_Neutral>
9.65277e-05

> <r_epik_State_Penalty>
2.29675

> <r_epik_Charging_Adjusted_Penalty>
4.60874

> <i_epik_Tot_Q>
1

> <i_epik_Tot_abs_Q>
1

> <r_epik_Metal_State_Penalty>
2.3404

> <b_epik_Metal_Only>
0

> <s_epik_Chemistry_Notes>
This compound contains an electron-poor aromatic ring that is susceptible to covalent hydrolysis at low pH, typically resulting in measured values for nitrogen ring protonation that are around two units higher than predicted values.

> <s_lp_Force_Field>
OPLS_2005

> <r_lp_Energy>
35.4262

> <b_lp_Chiralities_Consistent>
1

> <s_lp_Variant>
AV-unprocessed.smi:45-6

> <Gold.Version>
5.8.1

> <Gold.Id.Protein>
6NUR|6NUR_protein|mol2

> <Gold.PLP.Fitness>
51.1279

> <Gold.PLP.PLP>
-43.1059

> <Gold.PLP.part.hbond>
-3.0973

> <Gold.PLP.part.metal>
0.0000

> <Gold.PLP.part.buried>
-6.0887

> <Gold.PLP.part.nonpolar>
-34.8275

> <Gold.PLP.part.repulsive>
0.2424

> <Gold.PLP.ligand.clash>
0.0000

> <Gold.PLP.ligand.torsion>
2.2009

> <Gold.PLP.Chemscore.Hbond>
2.5440

> <Gold.PLP.Chemscore.CHOScore>
1.0000

> <Gold.PLP.Chemscore.Metal>
0.0000

> <Gold.Chemscore.Hbonds>
donor molecule, donor type, donor heavy atom, donor atom, acceptor molecule, acceptor atom, score
      L1  H    10    61       P1  7948  0.33
      L1  H    18    52       P1  7948  1.00
      P1  H  6896  6908       L1    23  1.00

> <Gold.PLP.Chemscore.Internal.Correction>
1.7920

> <Gold.Rescore>
     Score         DG    S(hbond)    S(metal)    S(lipo)     H(rot)  DE(clash)    DE(int)     intcor
     15.26     -17.73       2.30        0.00     103.33       2.94       0.24       2.23       ----

> <Gold.Chemscore.Fitness>
15.2633

> <Gold.Chemscore.DG>
-17.7283

> <Gold.Chemscore.ZeroCoef>
-5.4800

> <Gold.Chemscore.Hbond>
2.3004

> <Gold.Chemscore.Metal>
0.0000

> <Gold.Chemscore.Lipo>
103.3340

> <Gold.Chemscore.Internal_Hbond>
0.0000

> <Gold.Chemscore.DEClash>
0.2400

> <Gold.Chemscore.DEInternal>
2.2250

> <Gold.Chemscore.Rot>
2.9395

> <Gold.Chemscore.Internal.Correction>
   9.000000E+99

> <Gold.Chemscore.Hbonds>
donor molecule, donor type, donor heavy atom, donor atom, acceptor molecule, acceptor atom, score
      L1  H    10    61       P1  7948  0.18
      L1  H    18    52       P1  7948  0.99
      P1  H  6896  6908       L1    23  0.97

> <Gold.Chemscore.Hbond.Weighted>
-7.6834

> <Gold.Chemscore.Metal.Weighted>
-0.0000

> <Gold.Chemscore.Lipo.Weighted>
-12.0901

> <Gold.Chemscore.Internal_Hbond.Weighted>
0.0000

> <Gold.Chemscore.DEClash.Weighted>
0.2400

> <Gold.Chemscore.DEInternal.Weighted>
2.2250

> <Gold.Chemscore.Rot.Weighted>
7.5251

> <Gold.Chemscore.Internal.Correction.Weighted>
   9.000000E+99

> <Gold.Protein.RotatedTorsions>
[ 6907 6896 6895 6894 ] final  107.85 input  -60.11 | X-H torsion
[ 7974 7965 7964 7962 ] final  108.91 input  175.53 | X-H torsion
[ 8008 7997 7996 7995 ] final   74.17 input   59.86 | X-H torsion
[ 10167 10162 10161 10158 ] final  -53.42 input  -65.29 | X-H torsion
[ 10718 10713 10712 10709 ] final   43.20 input   66.30 | X-H torsion
[ 10763 10752 10751 10750 ] final   65.75 input  -60.55 | X-H torsion
[ 11005 11000 10999 10996 ] final  132.28 input  -57.11 | X-H torsion

> <Gold.Protein.ActiveResidues>
 VAL166  LYS551  ARG553  GLY616  TRP617  ASP618  TYR619  PRO620  LYS621  CYS622 
 ASP623  PHE694  ASN695  SER759  ASP760  ASP761  ALA762  ILE779  LEU786  VAL792 
 PHE793  MET794  SER795  GLU796  ALA797  LYS798  CYS799  TRP800  GLU811  SER814 

> <Gold.Protein.RotatedAtoms>
  152.5137  133.9174  159.7517 H   0  0  0  0  0  0  0  0  0  0  0  0  # atno 6907 bound_to 6896
  150.9554  133.6495  159.2771 H   0  0  0  0  0  0  0  0  0  0  0  0  # atno 6908 bound_to 6896
  151.3759  135.0936  159.9533 H   0  0  0  0  0  0  0  0  0  0  0  0  # atno 6909 bound_to 6896
  145.2746  139.2654  143.3948 H   0  0  0  0  0  0  0  0  0  0  0  0  # atno 7974 bound_to 7965
  155.7945  140.3478  155.5368 H   0  0  0  0  0  0  0  0  0  0  0  0  # atno 8008 bound_to 7997
  155.8601  140.0970  157.1639 H   0  0  0  0  0  0  0  0  0  0  0  0  # atno 8009 bound_to 7997
  154.4011  140.1360  156.3937 H   0  0  0  0  0  0  0  0  0  0  0  0  # atno 8010 bound_to 7997
  140.6485  143.2551  151.4790 H   0  0  0  0  0  0  0  0  0  0  0  0  # atno 10167 bound_to 10162
  157.4133  130.7927  149.7450 H   0  0  0  0  0  0  0  0  0  0  0  0  # atno 10718 bound_to 10713
  153.0110  135.5345  154.6717 H   0  0  0  0  0  0  0  0  0  0  0  0  # atno 10763 bound_to 10752
  154.5900  135.2858  155.0648 H   0  0  0  0  0  0  0  0  0  0  0  0  # atno 10764 bound_to 10752
  154.1744  135.6526  153.5070 H   0  0  0  0  0  0  0  0  0  0  0  0  # atno 10765 bound_to 10752
  139.9780  134.9557  156.9559 H   0  0  0  0  0  0  0  0  0  0  0  0  # atno 11005 bound_to 11000
  146.3235  140.3198  142.8632 LP  0  0  0  0  0  0  0  0  0  0  0  0  # atno 17320 bound_to 7965
  144.9305  140.7969  143.5692 LP  0  0  0  0  0  0  0  0  0  0  0  0  # atno 17321 bound_to 7965
  139.5698  144.1955  152.1819 LP  0  0  0  0  0  0  0  0  0  0  0  0  # atno 17342 bound_to 10162
  140.1248  144.5341  150.6840 LP  0  0  0  0  0  0  0  0  0  0  0  0  # atno 17343 bound_to 10162
  155.9857  130.3980  150.3247 LP  0  0  0  0  0  0  0  0  0  0  0  0  # atno 17370 bound_to 10713
  157.1388  131.0291  151.2937 LP  0  0  0  0  0  0  0  0  0  0  0  0  # atno 17371 bound_to 10713
  140.5154  134.0960  155.7279 LP  0  0  0  0  0  0  0  0  0  0  0  0  # atno 17394 bound_to 11000
  141.1455  133.9062  157.2224 LP  0  0  0  0  0  0  0  0  0  0  0  0  # atno 17395 bound_to 11000

$$$$
