AV-unprocessed.smi:1060|AV-procd|sdf|4658|dock5
  -GOLD-   22720 3173D 1   1.00000     0.00000
 Structure written by MMmdl.
 36 37  0  0  0  0  0  0  0  0  2 V2000
  149.9583  135.9975  158.4201 O   0  0  0  0  0  0  0  0  0  0  0  0
  149.3847  136.9956  158.8553 C   0  0  0  0  0  0  0  0  0  0  0  0
  149.7010  138.3705  158.2634 C   0  0  0  0  0  0  0  0  0  0  0  0
  151.0588  138.6978  158.5175 O   0  0  0  0  0  0  0  0  0  0  0  0
  151.4727  139.8808  157.8563 C   0  0  0  0  0  0  0  0  0  0  0  0
  151.6248  140.9988  158.8948 C   0  0  2  0  0  0  0  0  0  0  0  0
  151.7062  142.3972  158.2895 C   0  0  0  0  0  0  0  0  0  0  0  0
  152.3927  143.1990  159.3814 C   0  0  0  0  0  0  0  0  0  0  0  0
  153.1331  142.1402  160.2052 C   0  0  0  0  0  0  0  0  0  0  0  0
  152.8731  140.8984  159.5617 O   0  0  0  0  0  0  0  0  0  0  0  0
  148.4677  137.0051  159.8429 N   0  0  0  0  0  0  0  0  0  0  0  0
  147.9469  135.9483  160.6117 C   0  0  0  0  0  0  0  0  0  0  0  0
  148.1097  134.6225  160.3426 C   0  0  0  0  0  0  0  0  0  0  0  0
  147.5434  133.5786  161.1877 C   0  0  0  0  0  0  0  0  0  0  0  0
  147.6288  132.0962  160.8695 C   0  0  0  0  0  0  0  0  0  0  0  0
  148.2360  131.9176  159.6972 F   0  0  0  0  0  0  0  0  0  0  0  0
  148.3265  131.4464  161.8015 F   0  0  0  0  0  0  0  0  0  0  0  0
  146.4148  131.5506  160.7968 F   0  0  0  0  0  0  0  0  0  0  0  0
  146.8297  134.0942  162.2516 C   0  0  0  0  0  0  0  0  0  0  0  0
  146.6371  135.3848  162.6003 N   0  5  0  0  0  0  0  0  0  0  0  0
  147.1738  136.3527  161.8051 C   0  0  0  0  0  0  0  0  0  0  0  0
  147.0289  137.5485  162.0616 O   0  0  0  0  0  0  0  0  0  0  0  0
  149.5119  138.3587  157.1886 H   0  0  0  0  0  0  0  0  0  0  0  0
  149.0400  139.1120  158.7146 H   0  0  0  0  0  0  0  0  0  0  0  0
  152.4097  139.7229  157.3199 H   0  0  0  0  0  0  0  0  0  0  0  0
  150.7154  140.1614  157.1227 H   0  0  0  0  0  0  0  0  0  0  0  0
  150.8139  140.9597  159.6248 H   0  0  0  0  0  0  0  0  0  0  0  0
  152.3311  142.3846  157.3953 H   0  0  0  0  0  0  0  0  0  0  0  0
  150.7302  142.7988  158.0156 H   0  0  0  0  0  0  0  0  0  0  0  0
  153.0672  143.9490  158.9672 H   0  0  0  0  0  0  0  0  0  0  0  0
  151.6586  143.7129  160.0028 H   0  0  0  0  0  0  0  0  0  0  0  0
  154.2061  142.3264  160.2512 H   0  0  0  0  0  0  0  0  0  0  0  0
  152.7494  142.1093  161.2255 H   0  0  0  0  0  0  0  0  0  0  0  0
  148.0801  137.9081  160.0752 H   0  0  0  0  0  0  0  0  0  0  0  0
  148.6744  134.2896  159.4892 H   0  0  0  0  0  0  0  0  0  0  0  0
  146.3358  133.3581  162.9213 H   0  0  0  0  0  0  0  0  0  0  0  0
  1  2  2  0  0  0  0
  2  3  1  0  0  0  0
  2 11  1  0  0  0  0
  3  4  1  0  0  0  0
  3 23  1  0  0  0  0
  3 24  1  0  0  0  0
  4  5  1  0  0  0  0
  5  6  1  0  0  0  0
  5 25  1  0  0  0  0
  5 26  1  0  0  0  0
  6 10  1  0  0  0  0
  6  7  1  0  0  0  0
  6 27  1  0  0  0  0
  7  8  1  0  0  0  0
  7 28  1  0  0  0  0
  7 29  1  0  0  0  0
  8  9  1  0  0  0  0
  8 30  1  0  0  0  0
  8 31  1  0  0  0  0
  9 10  1  0  0  0  0
  9 32  1  0  0  0  0
  9 33  1  0  0  0  0
 11 12  1  0  0  0  0
 11 34  1  0  0  0  0
 12 21  1  0  0  0  0
 12 13  2  0  0  0  0
 13 14  1  0  0  0  0
 13 35  1  0  0  0  0
 14 15  1  0  0  0  0
 14 19  2  0  0  0  0
 15 16  1  0  0  0  0
 15 17  1  0  0  0  0
 15 18  1  0  0  0  0
 19 20  1  0  0  0  0
 19 36  1  0  0  0  0
 20 21  1  0  0  0  0
 21 22  2  0  0  0  0
M  CHG  1  20  -1
M  END
> <s_m_source_file>
AV-unprocessed.smi

> <i_m_source_file_index>
1060

> <i_lp_mmshare_version>
43012

> <i_f3d_flags>
0

> <s_epik_input>
Tz1jMVtuSF1bY0hdYyhDKEYpKEYpRilbY0hdYzFbTkhdQyg9TylbQ0gyXU9bQ0gyXVtDQEBIXTJbQ0gyXVtDSDJdW0NIMl1PMg==

> <s_epik_cmdline>
J2VwaWtfcHl0aG9uJywgJy1waCcsICc3LjAnLCAnLXRuJywgJzgnLCAnLW1hJywgJzIwMCcsICctbWV0YWxfYmluZGluZycsICctaW1hZScsICc8aW5maWxlLm1hZT4nLCAnLW9tYWUnLCAnPG91dGZpbGUubWFlPic=

> <r_epik_Ionization_Penalty>
2.50578

> <r_epik_Ionization_Penalty_Charging>
0.0523173

> <r_epik_Ionization_Penalty_Neutral>
2.45346

> <r_epik_State_Penalty>
2.61512

> <r_epik_Charging_Adjusted_Penalty>
2.66744

> <i_epik_Tot_Q>
-1

> <i_epik_Tot_abs_Q>
1

> <r_epik_Metal_State_Penalty>
0.513209

> <b_epik_Metal_Only>
0

> <s_lp_Force_Field>
OPLS_2005

> <r_lp_Energy>
34.3401

> <b_lp_Chiralities_Consistent>
1

> <s_lp_Variant>
AV-unprocessed.smi:1060-3

> <Gold.Version>
5.8.1

> <Gold.Id.Protein>
6NUR|6NUR_protein|mol2

> <Gold.PLP.Fitness>
45.5662

> <Gold.PLP.PLP>
-40.0214

> <Gold.PLP.part.hbond>
-3.0000

> <Gold.PLP.part.metal>
0.0000

> <Gold.PLP.part.buried>
-5.9931

> <Gold.PLP.part.nonpolar>
-31.4429

> <Gold.PLP.part.repulsive>
0.4837

> <Gold.PLP.ligand.clash>
0.0000

> <Gold.PLP.ligand.torsion>
0.6670

> <Gold.PLP.Chemscore.Hbond>
2.2320

> <Gold.PLP.Chemscore.CHOScore>
0.0000

> <Gold.PLP.Chemscore.Metal>
0.0000

> <Gold.Chemscore.Hbonds>
donor molecule, donor type, donor heavy atom, donor atom, acceptor molecule, acceptor atom, score
      P1  H  6896  6907       L1     1  1.00
      P1  H  6931  6943       L1    22  0.50
      P1  H  6934  6947       L1    22  0.69

> <Gold.PLP.Chemscore.Internal.Correction>
0.1829

> <Gold.Rescore>
     Score         DG    S(hbond)    S(metal)    S(lipo)     H(rot)  DE(clash)    DE(int)     intcor
     14.51     -16.26       1.97        0.00      77.95       1.92       0.03       1.72       ----

> <Gold.Chemscore.Fitness>
14.5101

> <Gold.Chemscore.DG>
-16.2604

> <Gold.Chemscore.ZeroCoef>
-5.4800

> <Gold.Chemscore.Hbond>
1.9678

> <Gold.Chemscore.Metal>
0.0000

> <Gold.Chemscore.Lipo>
77.9543

> <Gold.Chemscore.Internal_Hbond>
0.0000

> <Gold.Chemscore.DEClash>
0.0318

> <Gold.Chemscore.DEInternal>
1.7185

> <Gold.Chemscore.Rot>
1.9190

> <Gold.Chemscore.Internal.Correction>
   9.000000E+99

> <Gold.Chemscore.Hbonds>
donor molecule, donor type, donor heavy atom, donor atom, acceptor molecule, acceptor atom, score
      P1  H  6896  6907       L1     1  0.93
      P1  H  6931  6943       L1    22  0.17
      P1  H  6934  6947       L1    22  0.68

> <Gold.Chemscore.Hbond.Weighted>
-6.5724

> <Gold.Chemscore.Metal.Weighted>
-0.0000

> <Gold.Chemscore.Lipo.Weighted>
-9.1207

> <Gold.Chemscore.Internal_Hbond.Weighted>
0.0000

> <Gold.Chemscore.DEClash.Weighted>
0.0318

> <Gold.Chemscore.DEInternal.Weighted>
1.7185

> <Gold.Chemscore.Rot.Weighted>
4.9126

> <Gold.Chemscore.Internal.Correction.Weighted>
   9.000000E+99

> <Gold.Protein.RotatedTorsions>
[ 6907 6896 6895 6894 ] final  -51.47 input  -60.11 | X-H torsion
[ 7974 7965 7964 7962 ] final  153.55 input  175.53 | X-H torsion
[ 8008 7997 7996 7995 ] final   14.25 input   59.86 | X-H torsion
[ 10167 10162 10161 10158 ] final  -26.74 input  -65.29 | X-H torsion
[ 10718 10713 10712 10709 ] final -140.99 input   66.30 | X-H torsion
[ 10763 10752 10751 10750 ] final  121.88 input  -60.55 | X-H torsion
[ 11005 11000 10999 10996 ] final  -66.15 input  -57.11 | X-H torsion

> <Gold.Protein.ActiveResidues>
 VAL166  LYS551  ARG553  GLY616  TRP617  ASP618  TYR619  PRO620  LYS621  CYS622 
 ASP623  PHE694  ASN695  SER759  ASP760  ASP761  ALA762  ILE779  LEU786  VAL792 
 PHE793  MET794  SER795  GLU796  ALA797  LYS798  CYS799  TRP800  GLU811  SER814 

> <Gold.Protein.RotatedAtoms>
  150.8608  134.7959  159.7080 H   0  0  0  0  0  0  0  0  0  0  0  0  # atno 6907 bound_to 6896
  152.4645  134.5103  159.9761 H   0  0  0  0  0  0  0  0  0  0  0  0  # atno 6908 bound_to 6896
  151.5207  133.3429  159.2936 H   0  0  0  0  0  0  0  0  0  0  0  0  # atno 6909 bound_to 6896
  144.8147  139.6815  143.6126 H   0  0  0  0  0  0  0  0  0  0  0  0  # atno 7974 bound_to 7965
  154.8458  140.2922  155.5630 H   0  0  0  0  0  0  0  0  0  0  0  0  # atno 8008 bound_to 7997
  156.3014  140.2505  156.3340 H   0  0  0  0  0  0  0  0  0  0  0  0  # atno 8009 bound_to 7997
  154.9075  140.0389  157.1917 H   0  0  0  0  0  0  0  0  0  0  0  0  # atno 8010 bound_to 7997
  140.7281  143.4152  151.1040 H   0  0  0  0  0  0  0  0  0  0  0  0  # atno 10167 bound_to 10162
  156.3288  130.7574  151.1688 H   0  0  0  0  0  0  0  0  0  0  0  0  # atno 10718 bound_to 10713
  153.6211  135.3413  155.3011 H   0  0  0  0  0  0  0  0  0  0  0  0  # atno 10763 bound_to 10752
  154.8600  135.4273  154.2207 H   0  0  0  0  0  0  0  0  0  0  0  0  # atno 10764 bound_to 10752
  153.3080  135.7029  153.7215 H   0  0  0  0  0  0  0  0  0  0  0  0  # atno 10765 bound_to 10752
  141.1474  133.6694  156.6095 H   0  0  0  0  0  0  0  0  0  0  0  0  # atno 11005 bound_to 11000
  146.2449  139.6078  142.9466 LP  0  0  0  0  0  0  0  0  0  0  0  0  # atno 17320 bound_to 7965
  145.5242  141.0430  143.2419 LP  0  0  0  0  0  0  0  0  0  0  0  0  # atno 17321 bound_to 7965
  139.7791  143.8382  152.3134 LP  0  0  0  0  0  0  0  0  0  0  0  0  # atno 17342 bound_to 10162
  139.8327  144.7246  150.9430 LP  0  0  0  0  0  0  0  0  0  0  0  0  # atno 17343 bound_to 10162
  157.7426  131.0487  150.5009 LP  0  0  0  0  0  0  0  0  0  0  0  0  # atno 17370 bound_to 10713
  156.5172  130.4153  149.6270 LP  0  0  0  0  0  0  0  0  0  0  0  0  # atno 17371 bound_to 10713
  140.3625  134.7675  157.4544 LP  0  0  0  0  0  0  0  0  0  0  0  0  # atno 17394 bound_to 11000
  140.0773  134.5779  155.8577 LP  0  0  0  0  0  0  0  0  0  0  0  0  # atno 17395 bound_to 11000

$$$$
