AV-unprocessed.smi:3211|AV-procd|sdf|12277|dock5
  -GOLD-   2272018113D 1   1.00000     0.00000
 Structure written by MMmdl.
 34 35  0  0  0  0  0  0  0  0  1 V2000
  152.8241  143.5088  162.3058 C   0  0  0  0  0  0  0  0  0  0  0  0
  153.3129  142.6224  161.1556 C   0  0  0  0  0  0  0  0  0  0  0  0
  152.5261  142.8234  159.9038 C   0  0  0  0  0  0  0  0  0  0  0  0
  151.6830  141.9131  159.4089 N   0  0  0  0  0  0  0  0  0  0  0  0
  151.0396  142.3505  158.2469 C   0  0  0  0  0  0  0  0  0  0  0  0
  150.0598  141.4560  157.5504 C   0  0  0  0  0  0  0  0  0  0  0  0
  150.5810  140.9733  156.1865 C   0  0  0  0  0  0  0  0  0  0  0  0
  149.5886  140.1651  155.4869 N   0  0  0  0  0  0  0  0  0  0  0  0
  148.9378  140.5377  154.3742 C   0  0  0  0  0  0  0  0  0  0  0  0
  149.1176  141.6258  153.8248 O   0  0  0  0  0  0  0  0  0  0  0  0
  147.9792  139.5140  153.8595 C   0  0  1  0  0  0  0  0  0  0  0  0
  146.4995  139.7846  154.0437 C   0  0  0  0  0  0  0  0  0  0  0  0
  147.1159  139.8909  152.6698 C   0  0  2  0  0  0  0  0  0  0  0  0
  146.8041  138.8699  151.5970 C   0  0  0  0  0  0  0  0  0  0  0  0
  151.4023  143.6205  157.8728 C   0  0  0  0  0  0  0  0  0  0  0  0
  152.5646  144.3142  158.9693 S   0  0  0  0  0  0  0  0  0  0  0  0
  153.4175  143.3416  163.2046 H   0  0  0  0  0  0  0  0  0  0  0  0
  151.7825  143.2974  162.5498 H   0  0  0  0  0  0  0  0  0  0  0  0
  152.9001  144.5656  162.0472 H   0  0  0  0  0  0  0  0  0  0  0  0
  154.3620  142.8320  160.9453 H   0  0  0  0  0  0  0  0  0  0  0  0
  153.2558  141.5721  161.4442 H   0  0  0  0  0  0  0  0  0  0  0  0
  149.8357  140.5962  158.1831 H   0  0  0  0  0  0  0  0  0  0  0  0
  149.1124  141.9789  157.4133 H   0  0  0  0  0  0  0  0  0  0  0  0
  150.8244  141.8296  155.5567 H   0  0  0  0  0  0  0  0  0  0  0  0
  151.5055  140.4064  156.3094 H   0  0  0  0  0  0  0  0  0  0  0  0
  149.3835  139.2559  155.8756 H   0  0  0  0  0  0  0  0  0  0  0  0
  148.2965  138.4741  153.9287 H   0  0  0  0  0  0  0  0  0  0  0  0
  145.8663  138.9265  154.2602 H   0  0  0  0  0  0  0  0  0  0  0  0
  146.1956  140.7111  154.5279 H   0  0  0  0  0  0  0  0  0  0  0  0
  147.2260  140.9012  152.2784 H   0  0  0  0  0  0  0  0  0  0  0  0
  146.6826  137.8767  152.0303 H   0  0  0  0  0  0  0  0  0  0  0  0
  147.6136  138.8349  150.8677 H   0  0  0  0  0  0  0  0  0  0  0  0
  145.8826  139.1394  151.0810 H   0  0  0  0  0  0  0  0  0  0  0  0
  151.0535  144.1896  157.0236 H   0  0  0  0  0  0  0  0  0  0  0  0
  1  2  1  0  0  0  0
  1 17  1  0  0  0  0
  1 18  1  0  0  0  0
  1 19  1  0  0  0  0
  2  3  1  0  0  0  0
  2 20  1  0  0  0  0
  2 21  1  0  0  0  0
  3 16  1  0  0  0  0
  3  4  2  0  0  0  0
  4  5  1  0  0  0  0
  5  6  1  0  0  0  0
  5 15  2  0  0  0  0
  6  7  1  0  0  0  0
  6 22  1  0  0  0  0
  6 23  1  0  0  0  0
  7  8  1  0  0  0  0
  7 24  1  0  0  0  0
  7 25  1  0  0  0  0
  8  9  1  0  0  0  0
  8 26  1  0  0  0  0
  9 10  2  0  0  0  0
  9 11  1  0  0  0  0
 11 13  1  0  0  0  0
 11 12  1  0  0  0  0
 11 27  1  0  0  0  0
 12 13  1  0  0  0  0
 12 28  1  0  0  0  0
 12 29  1  0  0  0  0
 13 14  1  0  0  0  0
 13 30  1  0  0  0  0
 14 31  1  0  0  0  0
 14 32  1  0  0  0  0
 14 33  1  0  0  0  0
 15 16  1  0  0  0  0
 15 34  1  0  0  0  0
M  END
> <s_m_source_file>
AV-unprocessed.smi

> <i_m_source_file_index>
3211

> <i_lp_mmshare_version>
43012

> <i_f3d_flags>
0

> <s_epik_input>
W0NIM11bQ0gyXWMxbmMoW2NIXXMxKVtDSDJdW0NIMl1bTkhdQyg9TylbQ0BASF0yW0NIMl1bQ0BIXTJbQ0gzXQ==

> <s_epik_cmdline>
J2VwaWtfcHl0aG9uJywgJy1waCcsICc3LjAnLCAnLXRuJywgJzgnLCAnLW1hJywgJzIwMCcsICctbWV0YWxfYmluZGluZycsICctaW1hZScsICc8aW5maWxlLm1hZT4nLCAnLW9tYWUnLCAnPG91dGZpbGUubWFlPic=

> <r_epik_Ionization_Penalty>
0.00109667

> <r_epik_Ionization_Penalty_Charging>
0

> <r_epik_Ionization_Penalty_Neutral>
0.00109667

> <r_epik_State_Penalty>
0.000719322

> <r_epik_Charging_Adjusted_Penalty>
0.000719322

> <i_epik_Tot_Q>
0

> <i_epik_Tot_abs_Q>
0

> <r_epik_Metal_State_Penalty>
-0

> <b_epik_Metal_Only>
0

> <s_lp_Force_Field>
OPLS_2005

> <r_lp_Energy>
-0.564993

> <b_lp_Chiralities_Consistent>
1

> <s_lp_Variant>
AV-unprocessed.smi:3211-4

> <Gold.Version>
5.8.1

> <Gold.Id.Protein>
6NUR|6NUR_protein|mol2

> <Gold.PLP.Fitness>
42.5174

> <Gold.PLP.PLP>
-38.3225

> <Gold.PLP.part.hbond>
-1.7349

> <Gold.PLP.part.metal>
0.0000

> <Gold.PLP.part.buried>
-0.4424

> <Gold.PLP.part.nonpolar>
-36.0958

> <Gold.PLP.part.repulsive>
0.2768

> <Gold.PLP.ligand.clash>
0.0000

> <Gold.PLP.ligand.torsion>
0.3718

> <Gold.PLP.Chemscore.Hbond>
0.6560

> <Gold.PLP.Chemscore.CHOScore>
0.9623

> <Gold.PLP.Chemscore.Metal>
0.0000

> <Gold.Chemscore.Hbonds>
donor molecule, donor type, donor heavy atom, donor atom, acceptor molecule, acceptor atom, score
      P1  H  8011  8017       L1    10  0.67
      L1  C    15    34       P1  8028  0.86

> <Gold.PLP.Chemscore.Internal.Correction>
0.0835

> <Gold.Rescore>
     Score         DG    S(hbond)    S(metal)    S(lipo)     H(rot)  DE(clash)    DE(int)     intcor
     15.67     -16.28       0.66        0.00     106.53       1.51       0.33       0.28       ----

> <Gold.Chemscore.Fitness>
15.6659

> <Gold.Chemscore.DG>
-16.2775

> <Gold.Chemscore.ZeroCoef>
-5.4800

> <Gold.Chemscore.Hbond>
0.6582

> <Gold.Chemscore.Metal>
0.0000

> <Gold.Chemscore.Lipo>
106.5269

> <Gold.Chemscore.Internal_Hbond>
0.0000

> <Gold.Chemscore.DEClash>
0.3268

> <Gold.Chemscore.DEInternal>
0.2849

> <Gold.Chemscore.Rot>
1.5096

> <Gold.Chemscore.Internal.Correction>
   9.000000E+99

> <Gold.Chemscore.Hbonds>
donor molecule, donor type, donor heavy atom, donor atom, acceptor molecule, acceptor atom, score
      P1  H  8011  8017       L1    10  0.68

> <Gold.Chemscore.Hbond.Weighted>
-2.1985

> <Gold.Chemscore.Metal.Weighted>
-0.0000

> <Gold.Chemscore.Lipo.Weighted>
-12.4636

> <Gold.Chemscore.Internal_Hbond.Weighted>
0.0000

> <Gold.Chemscore.DEClash.Weighted>
0.3268

> <Gold.Chemscore.DEInternal.Weighted>
0.2849

> <Gold.Chemscore.Rot.Weighted>
3.8646

> <Gold.Chemscore.Internal.Correction.Weighted>
   9.000000E+99

> <Gold.Protein.RotatedTorsions>
[ 6907 6896 6895 6894 ] final   -2.03 input  -60.11 | X-H torsion
[ 7974 7965 7964 7962 ] final  121.91 input  175.53 | X-H torsion
[ 8008 7997 7996 7995 ] final  127.72 input   59.86 | X-H torsion
[ 10167 10162 10161 10158 ] final -129.27 input  -65.29 | X-H torsion
[ 10718 10713 10712 10709 ] final   50.78 input   66.30 | X-H torsion
[ 10763 10752 10751 10750 ] final    9.32 input  -60.55 | X-H torsion
[ 11005 11000 10999 10996 ] final  -54.12 input  -57.11 | X-H torsion

> <Gold.Protein.ActiveResidues>
 VAL166  LYS551  ARG553  GLY616  TRP617  ASP618  TYR619  PRO620  LYS621  CYS622 
 ASP623  PHE694  ASN695  SER759  ASP760  ASP761  ALA762  ILE779  LEU786  VAL792 
 PHE793  MET794  SER795  GLU796  ALA797  LYS798  CYS799  TRP800  GLU811  SER814 

> <Gold.Protein.RotatedAtoms>
  151.5365  135.1068  159.9915 H   0  0  0  0  0  0  0  0  0  0  0  0  # atno 6907 bound_to 6896
  152.4555  133.7710  159.6809 H   0  0  0  0  0  0  0  0  0  0  0  0  # atno 6908 bound_to 6896
  150.8497  133.7740  159.3054 H   0  0  0  0  0  0  0  0  0  0  0  0  # atno 6909 bound_to 6896
  145.1137  139.3435  143.4750 H   0  0  0  0  0  0  0  0  0  0  0  0  # atno 7974 bound_to 7965
  156.2898  140.2662  156.2319 H   0  0  0  0  0  0  0  0  0  0  0  0  # atno 8008 bound_to 7997
  155.0063  140.0387  157.2399 H   0  0  0  0  0  0  0  0  0  0  0  0  # atno 8009 bound_to 7997
  154.7557  140.2751  155.6261 H   0  0  0  0  0  0  0  0  0  0  0  0  # atno 8010 bound_to 7997
  139.9415  143.6157  152.2502 H   0  0  0  0  0  0  0  0  0  0  0  0  # atno 10167 bound_to 10162
  157.4917  130.8380  149.8211 H   0  0  0  0  0  0  0  0  0  0  0  0  # atno 10718 bound_to 10713
  153.2153  135.6874  153.8065 H   0  0  0  0  0  0  0  0  0  0  0  0  # atno 10763 bound_to 10752
  153.7283  135.3256  155.3281 H   0  0  0  0  0  0  0  0  0  0  0  0  # atno 10764 bound_to 10752
  154.8243  135.4629  154.0978 H   0  0  0  0  0  0  0  0  0  0  0  0  # atno 10765 bound_to 10752
  141.1010  133.6618  156.4273 H   0  0  0  0  0  0  0  0  0  0  0  0  # atno 11005 bound_to 11000
  146.3525  140.1067  142.8605 LP  0  0  0  0  0  0  0  0  0  0  0  0  # atno 17320 bound_to 7965
  145.0818  140.9226  143.4821 LP  0  0  0  0  0  0  0  0  0  0  0  0  # atno 17321 bound_to 7965
  139.6700  144.7661  151.1800 LP  0  0  0  0  0  0  0  0  0  0  0  0  # atno 17342 bound_to 10162
  140.7609  143.5879  150.8827 LP  0  0  0  0  0  0  0  0  0  0  0  0  # atno 17343 bound_to 10162
  156.0177  130.3807  150.2058 LP  0  0  0  0  0  0  0  0  0  0  0  0  # atno 17370 bound_to 10713
  157.0246  130.9989  151.3330 LP  0  0  0  0  0  0  0  0  0  0  0  0  # atno 17371 bound_to 10713
  140.5022  134.6474  157.5253 LP  0  0  0  0  0  0  0  0  0  0  0  0  # atno 17394 bound_to 11000
  139.9861  134.7059  155.9771 LP  0  0  0  0  0  0  0  0  0  0  0  0  # atno 17395 bound_to 11000

$$$$
