AV-unprocessed.smi:1645|AV-procd|sdf|6605|dock5
  -GOLD-   22720 7303D 1   1.00000     0.00000
 Structure written by MMmdl.
 55 58  0  0  0  0  0  0  0  0  2 V2000
  146.6696  138.1447  155.1787 O   0  0  0  0  0  0  0  0  0  0  0  0
  147.4052  137.7100  154.2925 C   0  0  0  0  0  0  0  0  0  0  0  0
  148.7012  138.0287  154.1358 N   0  0  0  0  0  0  0  0  0  0  0  0
  149.5003  138.8686  154.9573 C   0  0  0  0  0  0  0  0  0  0  0  0
  150.8825  139.0881  154.7562 C   0  0  0  0  0  0  0  0  0  0  0  0
  151.5677  139.9590  155.6242 C   0  0  0  0  0  0  0  0  0  0  0  0
  150.8576  140.5955  156.6684 C   0  0  0  0  0  0  0  0  0  0  0  0
  151.5312  141.4700  157.5470 N   0  0  0  0  0  0  0  0  0  0  0  0
  151.1304  142.8749  157.4525 C   0  0  0  0  0  0  0  0  0  0  0  0
  152.1651  143.7940  158.1243 C   0  0  0  0  0  0  0  0  0  0  0  0
  152.4432  143.3517  159.5686 C   0  0  0  0  0  0  0  0  0  0  0  0
  152.8634  141.8749  159.5951 C   0  0  0  0  0  0  0  0  0  0  0  0
  151.8130  140.9905  158.9019 C   0  0  0  0  0  0  0  0  0  0  0  0
  149.5302  140.3913  156.8525 N   0  0  0  0  0  0  0  0  0  0  0  0
  148.8762  139.5592  156.0152 C   0  0  0  0  0  0  0  0  0  0  0  0
  146.9914  136.8599  153.3417 N   0  0  0  0  0  0  0  0  0  0  0  0
  145.6308  136.3428  153.2169 C   0  0  1  0  0  0  0  0  0  0  0  0
  144.5582  137.3855  153.5612 C   0  0  0  0  0  0  0  0  0  0  0  0
  143.3886  137.1011  152.5971 C   0  0  0  0  0  0  0  0  0  0  0  0
  143.7850  135.9327  151.7768 N   0  3  2  0  0  0  0  0  0  0  0  0
  143.1830  134.6672  152.2822 C   0  0  0  0  0  0  0  0  0  0  0  0
  143.7722  133.4273  151.5966 C   0  0  0  0  0  0  0  0  0  0  0  0
  145.2913  133.3905  151.7817 C   0  0  0  0  0  0  0  0  0  0  0  0
  145.9014  134.6692  151.2004 C   0  0  0  0  0  0  0  0  0  0  0  0
  145.2680  135.9560  151.7765 C   0  0  2  0  0  0  0  0  0  0  0  0
  149.1534  137.6773  153.3043 H   0  0  0  0  0  0  0  0  0  0  0  0
  151.4254  138.6180  153.9510 H   0  0  0  0  0  0  0  0  0  0  0  0
  152.6265  140.1213  155.4879 H   0  0  0  0  0  0  0  0  0  0  0  0
  150.9989  143.1867  156.4171 H   0  0  0  0  0  0  0  0  0  0  0  0
  150.1609  142.9916  157.9380 H   0  0  0  0  0  0  0  0  0  0  0  0
  153.0936  143.7762  157.5517 H   0  0  0  0  0  0  0  0  0  0  0  0
  151.8117  144.8251  158.1100 H   0  0  0  0  0  0  0  0  0  0  0  0
  153.2215  143.9741  160.0107 H   0  0  0  0  0  0  0  0  0  0  0  0
  151.5475  143.4903  160.1753 H   0  0  0  0  0  0  0  0  0  0  0  0
  153.8250  141.7600  159.0932 H   0  0  0  0  0  0  0  0  0  0  0  0
  153.0095  141.5444  160.6235 H   0  0  0  0  0  0  0  0  0  0  0  0
  150.8882  140.9880  159.4803 H   0  0  0  0  0  0  0  0  0  0  0  0
  152.1766  139.9627  158.8686 H   0  0  0  0  0  0  0  0  0  0  0  0
  147.8195  139.4363  156.2029 H   0  0  0  0  0  0  0  0  0  0  0  0
  147.6615  136.5583  152.6493 H   0  0  0  0  0  0  0  0  0  0  0  0
  145.4930  135.4848  153.8773 H   0  0  0  0  0  0  0  0  0  0  0  0
  144.2533  137.3074  154.6053 H   0  0  0  0  0  0  0  0  0  0  0  0
  144.9253  138.4005  153.4024 H   0  0  0  0  0  0  0  0  0  0  0  0
  142.4474  136.9393  153.1245 H   0  0  0  0  0  0  0  0  0  0  0  0
  143.2423  137.9549  151.9343 H   0  0  0  0  0  0  0  0  0  0  0  0
  143.3340  134.5873  153.3599 H   0  0  0  0  0  0  0  0  0  0  0  0
  142.1047  134.6994  152.1228 H   0  0  0  0  0  0  0  0  0  0  0  0
  143.3251  132.5245  152.0139 H   0  0  0  0  0  0  0  0  0  0  0  0
  143.5251  133.4350  150.5342 H   0  0  0  0  0  0  0  0  0  0  0  0
  145.5415  133.2985  152.8392 H   0  0  0  0  0  0  0  0  0  0  0  0
  145.7107  132.5154  151.2847 H   0  0  0  0  0  0  0  0  0  0  0  0
  146.9812  134.6729  151.3447 H   0  0  0  0  0  0  0  0  0  0  0  0
  145.7501  134.6618  150.1202 H   0  0  0  0  0  0  0  0  0  0  0  0
  145.5667  136.7819  151.1276 H   0  0  0  0  0  0  0  0  0  0  0  0
  143.4594  136.0617  150.8296 H   0  0  0  0  0  0  0  0  0  0  0  0
  1  2  2  0  0  0  0
  2  3  1  0  0  0  0
  2 16  1  0  0  0  0
  3  4  1  0  0  0  0
  3 26  1  0  0  0  0
  4 15  1  0  0  0  0
  4  5  2  0  0  0  0
  5  6  1  0  0  0  0
  5 27  1  0  0  0  0
  6  7  2  0  0  0  0
  6 28  1  0  0  0  0
  7  8  1  0  0  0  0
  7 14  1  0  0  0  0
  8 13  1  0  0  0  0
  8  9  1  0  0  0  0
  9 10  1  0  0  0  0
  9 29  1  0  0  0  0
  9 30  1  0  0  0  0
 10 11  1  0  0  0  0
 10 31  1  0  0  0  0
 10 32  1  0  0  0  0
 11 12  1  0  0  0  0
 11 33  1  0  0  0  0
 11 34  1  0  0  0  0
 12 13  1  0  0  0  0
 12 35  1  0  0  0  0
 12 36  1  0  0  0  0
 13 37  1  0  0  0  0
 13 38  1  0  0  0  0
 14 15  2  0  0  0  0
 15 39  1  0  0  0  0
 16 17  1  0  0  0  0
 16 40  1  0  0  0  0
 17 25  1  0  0  0  0
 17 18  1  0  0  0  0
 17 41  1  0  0  0  0
 18 19  1  0  0  0  0
 18 42  1  0  0  0  0
 18 43  1  0  0  0  0
 19 20  1  0  0  0  0
 19 44  1  0  0  0  0
 19 45  1  0  0  0  0
 20 25  1  0  0  0  0
 20 21  1  0  0  0  0
 20 55  1  0  0  0  0
 21 22  1  0  0  0  0
 21 46  1  0  0  0  0
 21 47  1  0  0  0  0
 22 23  1  0  0  0  0
 22 48  1  0  0  0  0
 22 49  1  0  0  0  0
 23 24  1  0  0  0  0
 23 50  1  0  0  0  0
 23 51  1  0  0  0  0
 24 25  1  0  0  0  0
 24 52  1  0  0  0  0
 24 53  1  0  0  0  0
 25 54  1  0  0  0  0
M  CHG  1  20   1
M  END
> <s_m_source_file>
AV-unprocessed.smi

> <i_m_source_file_index>
1645

> <i_lp_mmshare_version>
43012

> <i_f3d_flags>
0

> <s_epik_input>
W0NIMl0xW0NIMl1bQ0gyXVtDSDJdW0NASF0oTjEyKVtDQEBIXShbQ0gyXVtDSDJdMilbTkhdQyg9TylbTkhdYzNbY0hdW2NIXWMobltjSF0zKU40W0NIMl1bQ0gyXVtDSDJdW0NIMl1bQ0gyXTQ=

> <s_epik_cmdline>
J2VwaWtfcHl0aG9uJywgJy1waCcsICc3LjAnLCAnLXRuJywgJzgnLCAnLW1hJywgJzIwMCcsICctbWV0YWxfYmluZGluZycsICctaW1hZScsICc8aW5maWxlLm1hZT4nLCAnLW9tYWUnLCAnPG91dGZpbGUubWFlPic=

> <r_lp_tautomer_probability>
1

> <r_epik_Ionization_Penalty>
0.0808019

> <r_epik_Ionization_Penalty_Charging>
0.000974069

> <r_epik_Ionization_Penalty_Neutral>
0.0798278

> <r_epik_State_Penalty>
0.0653665

> <r_epik_Charging_Adjusted_Penalty>
0.0663406

> <i_epik_Tot_Q>
1

> <i_epik_Tot_abs_Q>
1

> <r_epik_Metal_State_Penalty>
0.0585673

> <b_epik_Metal_Only>
0

> <s_lp_Force_Field>
OPLS_2005

> <r_lp_Energy>
54.666

> <b_lp_Chiralities_Consistent>
1

> <s_lp_Variant>
AV-unprocessed.smi:1645-6

> <Gold.Version>
5.8.1

> <Gold.Id.Protein>
6NUR|6NUR_protein|mol2

> <Gold.PLP.Fitness>
48.0945

> <Gold.PLP.PLP>
-43.2120

> <Gold.PLP.part.hbond>
-2.0636

> <Gold.PLP.part.metal>
0.0000

> <Gold.PLP.part.buried>
-5.0890

> <Gold.PLP.part.nonpolar>
-37.0110

> <Gold.PLP.part.repulsive>
0.1234

> <Gold.PLP.ligand.clash>
0.0000

> <Gold.PLP.ligand.torsion>
0.5665

> <Gold.PLP.Chemscore.Hbond>
1.8640

> <Gold.PLP.Chemscore.CHOScore>
0.0000

> <Gold.PLP.Chemscore.Metal>
0.0000

> <Gold.Chemscore.Hbonds>
donor molecule, donor type, donor heavy atom, donor atom, acceptor molecule, acceptor atom, score
      L1  H     3    26       P1  7948  0.85
      L1  H    16    40       P1  7948  1.00

> <Gold.PLP.Chemscore.Internal.Correction>
0.4235

> <Gold.Rescore>
     Score         DG    S(hbond)    S(metal)    S(lipo)     H(rot)  DE(clash)    DE(int)     intcor
     17.97     -21.40       1.87        0.00     108.51       1.17       0.09       3.35       ----

> <Gold.Chemscore.Fitness>
17.9660

> <Gold.Chemscore.DG>
-21.4024

> <Gold.Chemscore.ZeroCoef>
-5.4800

> <Gold.Chemscore.Hbond>
1.8652

> <Gold.Chemscore.Metal>
0.0000

> <Gold.Chemscore.Lipo>
108.5127

> <Gold.Chemscore.Internal_Hbond>
0.0000

> <Gold.Chemscore.DEClash>
0.0907

> <Gold.Chemscore.DEInternal>
3.3457

> <Gold.Chemscore.Rot>
1.1731

> <Gold.Chemscore.Internal.Correction>
   9.000000E+99

> <Gold.Chemscore.Hbonds>
donor molecule, donor type, donor heavy atom, donor atom, acceptor molecule, acceptor atom, score
      L1  H     3    26       P1  7948  0.79
      L1  H    16    40       P1  7948  0.94

> <Gold.Chemscore.Hbond.Weighted>
-6.2296

> <Gold.Chemscore.Metal.Weighted>
-0.0000

> <Gold.Chemscore.Lipo.Weighted>
-12.6960

> <Gold.Chemscore.Internal_Hbond.Weighted>
0.0000

> <Gold.Chemscore.DEClash.Weighted>
0.0907

> <Gold.Chemscore.DEInternal.Weighted>
3.3457

> <Gold.Chemscore.Rot.Weighted>
3.0032

> <Gold.Chemscore.Internal.Correction.Weighted>
   9.000000E+99

> <Gold.Protein.RotatedTorsions>
[ 6907 6896 6895 6894 ] final   15.43 input  -60.11 | X-H torsion
[ 7974 7965 7964 7962 ] final -162.10 input  175.53 | X-H torsion
[ 8008 7997 7996 7995 ] final -101.42 input   59.86 | X-H torsion
[ 10167 10162 10161 10158 ] final -147.92 input  -65.29 | X-H torsion
[ 10718 10713 10712 10709 ] final  141.15 input   66.30 | X-H torsion
[ 10763 10752 10751 10750 ] final  -95.74 input  -60.55 | X-H torsion
[ 11005 11000 10999 10996 ] final   19.64 input  -57.11 | X-H torsion

> <Gold.Protein.ActiveResidues>
 VAL166  LYS551  ARG553  GLY616  TRP617  ASP618  TYR619  PRO620  LYS621  CYS622 
 ASP623  PHE694  ASN695  SER759  ASP760  ASP761  ALA762  ILE779  LEU786  VAL792 
 PHE793  MET794  SER795  GLU796  ALA797  LYS798  CYS799  TRP800  GLU811  SER814 

> <Gold.Protein.RotatedAtoms>
  151.8180  135.0660  160.0421 H   0  0  0  0  0  0  0  0  0  0  0  0  # atno 6907 bound_to 6896
  152.2972  133.5615  159.5603 H   0  0  0  0  0  0  0  0  0  0  0  0  # atno 6908 bound_to 6896
  150.7257  134.0260  159.3759 H   0  0  0  0  0  0  0  0  0  0  0  0  # atno 6909 bound_to 6896
  144.7369  140.3302  143.6154 H   0  0  0  0  0  0  0  0  0  0  0  0  # atno 7974 bound_to 7965
  154.8423  140.0434  157.1549 H   0  0  0  0  0  0  0  0  0  0  0  0  # atno 8008 bound_to 7997
  154.9033  140.3003  155.5285 H   0  0  0  0  0  0  0  0  0  0  0  0  # atno 8009 bound_to 7997
  156.2993  140.2371  156.4064 H   0  0  0  0  0  0  0  0  0  0  0  0  # atno 8010 bound_to 7997
  139.7579  143.8421  152.2601 H   0  0  0  0  0  0  0  0  0  0  0  0  # atno 10167 bound_to 10162
  157.3952  131.1010  151.0607 H   0  0  0  0  0  0  0  0  0  0  0  0  # atno 10718 bound_to 10713
  154.7176  135.5109  153.8761 H   0  0  0  0  0  0  0  0  0  0  0  0  # atno 10763 bound_to 10752
  153.0834  135.6638  154.0008 H   0  0  0  0  0  0  0  0  0  0  0  0  # atno 10764 bound_to 10752
  153.9837  135.3026  155.3397 H   0  0  0  0  0  0  0  0  0  0  0  0  # atno 10765 bound_to 10752
  140.4114  134.1614  155.7667 H   0  0  0  0  0  0  0  0  0  0  0  0  # atno 11005 bound_to 11000
  145.7479  139.1784  143.2338 LP  0  0  0  0  0  0  0  0  0  0  0  0  # atno 17320 bound_to 7965
  146.1083  140.7459  142.9515 LP  0  0  0  0  0  0  0  0  0  0  0  0  # atno 17321 bound_to 7965
  139.8418  144.7206  150.9321 LP  0  0  0  0  0  0  0  0  0  0  0  0  # atno 17342 bound_to 10162
  140.7804  143.3976  151.1203 LP  0  0  0  0  0  0  0  0  0  0  0  0  # atno 17343 bound_to 10162
  157.1626  130.6232  149.5615 LP  0  0  0  0  0  0  0  0  0  0  0  0  # atno 17370 bound_to 10713
  155.9808  130.4812  150.6795 LP  0  0  0  0  0  0  0  0  0  0  0  0  # atno 17371 bound_to 10713
  141.1819  133.8395  157.1226 LP  0  0  0  0  0  0  0  0  0  0  0  0  # atno 17394 bound_to 11000
  140.0265  134.9921  157.0695 LP  0  0  0  0  0  0  0  0  0  0  0  0  # atno 17395 bound_to 11000

$$$$
