AV-unprocessed.smi:672|AV-procd|sdf|3292|dock9
  -GOLD-   22720 0253D 1   1.00000     0.00000
 Structure written by MMmdl.
 36 37  0  0  0  0  0  0  0  0  1 V2000
  151.4379  143.3388  157.4906 C   0  0  0  0  0  0  0  0  0  0  0  0
  150.5314  142.1178  157.6783 C   0  0  0  0  0  0  0  0  0  0  0  0
  150.2817  141.3853  156.4021 C   0  0  0  0  0  0  0  0  0  0  0  0
  151.2669  140.8480  155.6718 N   0  0  0  0  0  0  0  0  0  0  0  0
  150.7905  140.1992  154.5414 N   0  0  0  0  0  0  0  0  0  0  0  0
  149.4538  140.2531  154.4601 C   0  0  0  0  0  0  0  0  0  0  0  0
  148.7033  139.6694  153.4052 N   0  0  0  0  0  0  0  0  0  0  0  0
  147.5160  139.0422  153.4754 C   0  0  0  0  0  0  0  0  0  0  0  0
  146.8612  138.8690  154.5037 O   0  0  0  0  0  0  0  0  0  0  0  0
  147.1214  138.6135  152.2677 N   0  0  0  0  0  0  0  0  0  0  0  0
  145.8796  137.8919  151.9983 C   0  0  1  0  0  0  0  0  0  0  0  0
  145.8239  137.4236  150.5315 C   0  0  0  0  0  0  0  0  0  0  0  0
  145.4443  135.9421  150.5725 C   0  0  0  0  0  0  0  0  0  0  0  0
  146.0060  135.4447  151.9032 C   0  0  2  0  0  0  0  0  0  0  0  0
  145.2300  133.9076  152.4804 S   0  0  0  0  0  0  0  0  0  0  0  0
  145.6178  132.8085  151.0929 C   0  0  0  0  0  0  0  0  0  0  0  0
  145.7672  136.6168  152.8578 C   0  0  0  0  0  0  0  0  0  0  0  0
  148.6616  141.1062  155.7737 S   0  0  0  0  0  0  0  0  0  0  0  0
  151.5995  143.8507  158.4394 H   0  0  0  0  0  0  0  0  0  0  0  0
  150.9957  144.0543  156.7966 H   0  0  0  0  0  0  0  0  0  0  0  0
  152.4128  143.0486  157.0979 H   0  0  0  0  0  0  0  0  0  0  0  0
  150.9801  141.4286  158.3939 H   0  0  0  0  0  0  0  0  0  0  0  0
  149.5747  142.4265  158.1009 H   0  0  0  0  0  0  0  0  0  0  0  0
  149.1239  139.7309  152.4899 H   0  0  0  0  0  0  0  0  0  0  0  0
  147.7206  138.7986  151.4769 H   0  0  0  0  0  0  0  0  0  0  0  0
  145.0284  138.5445  152.2023 H   0  0  0  0  0  0  0  0  0  0  0  0
  145.1163  138.0062  149.9409 H   0  0  0  0  0  0  0  0  0  0  0  0
  146.8003  137.5265  150.0554 H   0  0  0  0  0  0  0  0  0  0  0  0
  144.3579  135.8436  150.5663 H   0  0  0  0  0  0  0  0  0  0  0  0
  145.8337  135.3905  149.7166 H   0  0  0  0  0  0  0  0  0  0  0  0
  147.0807  135.2844  151.8051 H   0  0  0  0  0  0  0  0  0  0  0  0
  145.2492  131.8035  151.2981 H   0  0  0  0  0  0  0  0  0  0  0  0
  146.6954  132.7561  150.9371 H   0  0  0  0  0  0  0  0  0  0  0  0
  145.1488  133.1658  150.1763 H   0  0  0  0  0  0  0  0  0  0  0  0
  146.4544  136.5996  153.7050 H   0  0  0  0  0  0  0  0  0  0  0  0
  144.7577  136.5574  153.2676 H   0  0  0  0  0  0  0  0  0  0  0  0
  1  2  1  0  0  0  0
  1 19  1  0  0  0  0
  1 20  1  0  0  0  0
  1 21  1  0  0  0  0
  2  3  1  0  0  0  0
  2 22  1  0  0  0  0
  2 23  1  0  0  0  0
  3 18  1  0  0  0  0
  3  4  2  0  0  0  0
  4  5  1  0  0  0  0
  5  6  2  0  0  0  0
  6  7  1  0  0  0  0
  6 18  1  0  0  0  0
  7  8  1  0  0  0  0
  7 24  1  0  0  0  0
  8  9  2  0  0  0  0
  8 10  1  0  0  0  0
 10 11  1  0  0  0  0
 10 25  1  0  0  0  0
 11 17  1  0  0  0  0
 11 12  1  0  0  0  0
 11 26  1  0  0  0  0
 12 13  1  0  0  0  0
 12 27  1  0  0  0  0
 12 28  1  0  0  0  0
 13 14  1  0  0  0  0
 13 29  1  0  0  0  0
 13 30  1  0  0  0  0
 14 15  1  0  0  0  0
 14 17  1  0  0  0  0
 14 31  1  0  0  0  0
 15 16  1  0  0  0  0
 16 32  1  0  0  0  0
 16 33  1  0  0  0  0
 16 34  1  0  0  0  0
 17 35  1  0  0  0  0
 17 36  1  0  0  0  0
M  END
> <s_m_source_file>
AV-unprocessed.smi

> <i_m_source_file_index>
672

> <i_lp_mmshare_version>
43012

> <i_f3d_flags>
0

> <s_epik_input>
W0NIM11bQ0gyXWMxbm5jKHMxKVtOSF1DKD1PKVtOSF1bQ0BASF0yW0NIMl1bQ0gyXVtDQEhdKFtDSDJdMilTW0NIM10=

> <s_epik_cmdline>
J2VwaWtfcHl0aG9uJywgJy1waCcsICc3LjAnLCAnLXRuJywgJzgnLCAnLW1hJywgJzIwMCcsICctbWV0YWxfYmluZGluZycsICctaW1hZScsICc8aW5maWxlLm1hZT4nLCAnLW9tYWUnLCAnPG91dGZpbGUubWFlPic=

> <r_lp_tautomer_probability>
1

> <r_epik_Ionization_Penalty>
0.000422169

> <r_epik_Ionization_Penalty_Charging>
0

> <r_epik_Ionization_Penalty_Neutral>
0.000422169

> <r_epik_State_Penalty>
-0

> <r_epik_Charging_Adjusted_Penalty>
0

> <i_epik_Tot_Q>
0

> <i_epik_Tot_abs_Q>
0

> <r_epik_Metal_State_Penalty>
0.200061

> <b_epik_Metal_Only>
0

> <s_lp_Force_Field>
OPLS_2005

> <r_lp_Energy>
11.6788

> <b_lp_Chiralities_Consistent>
1

> <s_lp_Variant>
AV-unprocessed.smi:672-4

> <Gold.Version>
5.8.1

> <Gold.Id.Protein>
6NUR|6NUR_protein|mol2

> <Gold.PLP.Fitness>
35.9970

> <Gold.PLP.PLP>
-29.8246

> <Gold.PLP.part.hbond>
-4.6812

> <Gold.PLP.part.metal>
0.0000

> <Gold.PLP.part.buried>
-0.6539

> <Gold.PLP.part.nonpolar>
-27.0366

> <Gold.PLP.part.repulsive>
0.3901

> <Gold.PLP.ligand.clash>
0.0000

> <Gold.PLP.ligand.torsion>
0.3160

> <Gold.PLP.Chemscore.Hbond>
2.2631

> <Gold.PLP.Chemscore.CHOScore>
0.0000

> <Gold.PLP.Chemscore.Metal>
0.0000

> <Gold.Chemscore.Hbonds>
donor molecule, donor type, donor heavy atom, donor atom, acceptor molecule, acceptor atom, score
      L1  H     7    24       P1  7957  0.80
      L1  H    10    25       P1  7957  0.35
      P1  H  7989  7998       L1     5  0.93

> <Gold.PLP.Chemscore.Internal.Correction>
0.0151

> <Gold.Rescore>
     Score         DG    S(hbond)    S(metal)    S(lipo)     H(rot)  DE(clash)    DE(int)     intcor
     15.25     -18.58       2.29        0.00      76.52       1.37       3.06       0.26       ----

> <Gold.Chemscore.Fitness>
15.2542

> <Gold.Chemscore.DG>
-18.5750

> <Gold.Chemscore.ZeroCoef>
-5.4800

> <Gold.Chemscore.Hbond>
2.2877

> <Gold.Chemscore.Metal>
0.0000

> <Gold.Chemscore.Lipo>
76.5242

> <Gold.Chemscore.Internal_Hbond>
0.0000

> <Gold.Chemscore.DEClash>
3.0598

> <Gold.Chemscore.DEInternal>
0.2610

> <Gold.Chemscore.Rot>
1.3669

> <Gold.Chemscore.Internal.Correction>
   9.000000E+99

> <Gold.Chemscore.Hbonds>
donor molecule, donor type, donor heavy atom, donor atom, acceptor molecule, acceptor atom, score
      L1  H     7    24       P1  7957  0.79
      L1  H    10    25       P1  7957  0.25
      P1  H  7989  7998       L1     5  0.22

> <Gold.Chemscore.Hbond.Weighted>
-7.6409

> <Gold.Chemscore.Metal.Weighted>
-0.0000

> <Gold.Chemscore.Lipo.Weighted>
-8.9533

> <Gold.Chemscore.Internal_Hbond.Weighted>
0.0000

> <Gold.Chemscore.DEClash.Weighted>
3.0598

> <Gold.Chemscore.DEInternal.Weighted>
0.2610

> <Gold.Chemscore.Rot.Weighted>
3.4992

> <Gold.Chemscore.Internal.Correction.Weighted>
   9.000000E+99

> <Gold.Protein.RotatedTorsions>
[ 6907 6896 6895 6894 ] final  -10.45 input  -60.11 | X-H torsion
[ 7974 7965 7964 7962 ] final   -8.54 input  175.53 | X-H torsion
[ 8008 7997 7996 7995 ] final  166.07 input   59.86 | X-H torsion
[ 10167 10162 10161 10158 ] final  156.99 input  -65.29 | X-H torsion
[ 10718 10713 10712 10709 ] final  -25.00 input   66.30 | X-H torsion
[ 10763 10752 10751 10750 ] final    3.60 input  -60.55 | X-H torsion
[ 11005 11000 10999 10996 ] final   92.35 input  -57.11 | X-H torsion

> <Gold.Protein.ActiveResidues>
 VAL166  LYS551  ARG553  GLY616  TRP617  ASP618  TYR619  PRO620  LYS621  CYS622 
 ASP623  PHE694  ASN695  SER759  ASP760  ASP761  ALA762  ILE779  LEU786  VAL792 
 PHE793  MET794  SER795  GLU796  ALA797  LYS798  CYS799  TRP800  GLU811  SER814 

> <Gold.Protein.RotatedAtoms>
  151.4018  135.0972  159.9557 H   0  0  0  0  0  0  0  0  0  0  0  0  # atno 6907 bound_to 6896
  152.5048  133.8881  159.7390 H   0  0  0  0  0  0  0  0  0  0  0  0  # atno 6908 bound_to 6896
  150.9356  133.6659  159.2830 H   0  0  0  0  0  0  0  0  0  0  0  0  # atno 6909 bound_to 6896
  146.2277  140.2483  142.8346 H   0  0  0  0  0  0  0  0  0  0  0  0  # atno 7974 bound_to 7965
  156.1749  140.1653  156.8381 H   0  0  0  0  0  0  0  0  0  0  0  0  # atno 8008 bound_to 7997
  154.5296  140.0760  156.8354 H   0  0  0  0  0  0  0  0  0  0  0  0  # atno 8009 bound_to 7997
  155.3435  140.3386  155.4241 H   0  0  0  0  0  0  0  0  0  0  0  0  # atno 8010 bound_to 7997
  139.4822  144.4958  151.8241 H   0  0  0  0  0  0  0  0  0  0  0  0  # atno 10167 bound_to 10162
  156.4701  130.4522  149.6874 H   0  0  0  0  0  0  0  0  0  0  0  0  # atno 10718 bound_to 10713
  153.2814  135.6941  153.7382 H   0  0  0  0  0  0  0  0  0  0  0  0  # atno 10763 bound_to 10752
  153.6368  135.3400  155.3060 H   0  0  0  0  0  0  0  0  0  0  0  0  # atno 10764 bound_to 10752
  154.8496  135.4422  154.1868 H   0  0  0  0  0  0  0  0  0  0  0  0  # atno 10765 bound_to 10752
  139.8825  134.8728  156.3560 H   0  0  0  0  0  0  0  0  0  0  0  0  # atno 11005 bound_to 11000
  144.9431  140.8099  143.5618 LP  0  0  0  0  0  0  0  0  0  0  0  0  # atno 17320 bound_to 7965
  145.2437  139.2061  143.4979 LP  0  0  0  0  0  0  0  0  0  0  0  0  # atno 17321 bound_to 7965
  140.4447  144.1938  150.5893 LP  0  0  0  0  0  0  0  0  0  0  0  0  # atno 17342 bound_to 10162
  140.4647  143.2435  151.9172 LP  0  0  0  0  0  0  0  0  0  0  0  0  # atno 17343 bound_to 10162
  156.3627  130.7489  151.2463 LP  0  0  0  0  0  0  0  0  0  0  0  0  # atno 17370 bound_to 10713
  157.7492  131.0346  150.4323 LP  0  0  0  0  0  0  0  0  0  0  0  0  # atno 17371 bound_to 10713
  140.9562  133.7418  156.0338 LP  0  0  0  0  0  0  0  0  0  0  0  0  # atno 17394 bound_to 11000
  140.8046  134.3470  157.5430 LP  0  0  0  0  0  0  0  0  0  0  0  0  # atno 17395 bound_to 11000

$$$$
