AV-unprocessed.smi:3234|AV-procd|sdf|12354|dock9
  -GOLD-   2272018213D 1   1.00000     0.00000
 Structure written by MMmdl.
 38 40  0  0  0  0  0  0  0  0  3 V2000
  145.0047  138.4379  153.0725 O   0  0  0  0  0  0  0  0  0  0  0  0
  146.0042  137.8823  152.6180 C   0  0  0  0  0  0  0  0  0  0  0  0
  147.2672  138.3247  152.7502 N   0  0  0  0  0  0  0  0  0  0  0  0
  147.7278  139.5044  153.3972 C   0  0  0  0  0  0  0  0  0  0  0  0
  146.9217  140.6607  153.3009 C   0  0  0  0  0  0  0  0  0  0  0  0
  147.3306  141.8494  153.9392 C   0  0  0  0  0  0  0  0  0  0  0  0
  148.4811  141.8719  154.6455 N   0  3  0  0  0  0  0  0  0  0  0  0
  149.2772  140.7892  154.7785 C   0  0  0  0  0  0  0  0  0  0  0  0
  148.9207  139.5725  154.1618 C   0  0  0  0  0  0  0  0  0  0  0  0
  145.9580  136.7286  151.9362 N   0  0  0  0  0  0  0  0  0  0  0  0
  144.7339  135.9904  151.6401 C   0  0  2  0  0  0  0  0  0  0  0  0
  144.2366  135.1036  152.7851 C   0  0  0  0  0  0  0  0  0  0  0  0
  143.5119  133.9401  152.0863 C   0  0  0  0  0  0  0  0  0  0  0  0
  143.7856  134.0723  150.6361 N   0  3  2  0  0  0  0  0  0  0  0  0
  143.9562  132.7860  149.9278 C   0  0  0  0  0  0  0  0  0  0  0  0
  144.4198  131.6611  150.8223 C   0  0  0  0  0  0  0  0  0  0  0  0
  145.3900  132.3169  149.8636 C   0  0  0  0  0  0  0  0  0  0  0  0
  144.9317  134.9895  150.5057 C   0  0  0  0  0  0  0  0  0  0  0  0
  147.9901  137.7151  152.3966 H   0  0  0  0  0  0  0  0  0  0  0  0
  145.9994  140.6434  152.7382 H   0  0  0  0  0  0  0  0  0  0  0  0
  146.7750  142.7753  153.9077 H   0  0  0  0  0  0  0  0  0  0  0  0
  150.1673  140.9255  155.3751 H   0  0  0  0  0  0  0  0  0  0  0  0
  149.5621  138.7152  154.2981 H   0  0  0  0  0  0  0  0  0  0  0  0
  146.8250  136.3349  151.6001 H   0  0  0  0  0  0  0  0  0  0  0  0
  143.9435  136.6877  151.3540 H   0  0  0  0  0  0  0  0  0  0  0  0
  145.0784  134.7147  153.3602 H   0  0  0  0  0  0  0  0  0  0  0  0
  143.5878  135.6456  153.4739 H   0  0  0  0  0  0  0  0  0  0  0  0
  143.8741  132.9862  152.4730 H   0  0  0  0  0  0  0  0  0  0  0  0
  142.4354  133.9780  152.2550 H   0  0  0  0  0  0  0  0  0  0  0  0
  143.2738  132.5909  149.1022 H   0  0  0  0  0  0  0  0  0  0  0  0
  144.5476  131.8650  151.8839 H   0  0  0  0  0  0  0  0  0  0  0  0
  144.0833  130.6550  150.5796 H   0  0  0  0  0  0  0  0  0  0  0  0
  145.6921  131.7420  148.9905 H   0  0  0  0  0  0  0  0  0  0  0  0
  146.1618  132.9565  150.2886 H   0  0  0  0  0  0  0  0  0  0  0  0
  144.9543  135.4655  149.5247 H   0  0  0  0  0  0  0  0  0  0  0  0
  145.8634  134.4361  150.6397 H   0  0  0  0  0  0  0  0  0  0  0  0
  142.9894  134.5462  150.2337 H   0  0  0  0  0  0  0  0  0  0  0  0
  148.7584  142.7417  155.1016 H   0  0  0  0  0  0  0  0  0  0  0  0
  1  2  2  0  0  0  0
  2  3  1  0  0  0  0
  2 10  1  0  0  0  0
  3  4  1  0  0  0  0
  3 19  1  0  0  0  0
  4  9  1  0  0  0  0
  4  5  2  0  0  0  0
  5  6  1  0  0  0  0
  5 20  1  0  0  0  0
  6  7  2  0  0  0  0
  6 21  1  0  0  0  0
  7  8  1  0  0  0  0
  7 38  1  0  0  0  0
  8  9  2  0  0  0  0
  8 22  1  0  0  0  0
  9 23  1  0  0  0  0
 10 11  1  0  0  0  0
 10 24  1  0  0  0  0
 11 18  1  0  0  0  0
 11 12  1  0  0  0  0
 11 25  1  0  0  0  0
 12 13  1  0  0  0  0
 12 26  1  0  0  0  0
 12 27  1  0  0  0  0
 13 14  1  0  0  0  0
 13 28  1  0  0  0  0
 13 29  1  0  0  0  0
 14 15  1  0  0  0  0
 14 18  1  0  0  0  0
 14 37  1  0  0  0  0
 15 17  1  0  0  0  0
 15 16  1  0  0  0  0
 15 30  1  0  0  0  0
 16 17  1  0  0  0  0
 16 31  1  0  0  0  0
 16 32  1  0  0  0  0
 17 33  1  0  0  0  0
 17 34  1  0  0  0  0
 18 35  1  0  0  0  0
 18 36  1  0  0  0  0
M  CHG  1   7   1
M  CHG  1  14   1
M  END
> <s_m_source_file>
AV-unprocessed.smi

> <i_m_source_file_index>
3234

> <i_lp_mmshare_version>
43012

> <i_f3d_flags>
0

> <s_epik_input>
W2NIXTFbY0hdbltjSF1bY0hdYzFbTkhdQyg9TylbTkhdW0NAQEhdMltDSDJdW0NIMl1OKFtDSDJdMilbQ0hdM1tDSDJdW0NIMl0z

> <s_epik_cmdline>
J2VwaWtfcHl0aG9uJywgJy1waCcsICc3LjAnLCAnLXRuJywgJzgnLCAnLW1hJywgJzIwMCcsICctbWV0YWxfYmluZGluZycsICctaW1hZScsICc8aW5maWxlLm1hZT4nLCAnLW9tYWUnLCAnPG91dGZpbGUubWFlPic=

> <r_epik_Ionization_Penalty>
1.14489

> <r_epik_Ionization_Penalty_Charging>
1.14487

> <r_epik_Ionization_Penalty_Neutral>
1.95212e-05

> <r_epik_State_Penalty>
1.205

> <r_epik_Charging_Adjusted_Penalty>
2.34987

> <i_epik_Tot_Q>
2

> <i_epik_Tot_abs_Q>
2

> <r_epik_Metal_State_Penalty>
1.28709

> <b_epik_Metal_Only>
0

> <s_lp_Force_Field>
OPLS_2005

> <r_lp_Energy>
48.7284

> <b_lp_Chiralities_Consistent>
1

> <s_lp_Variant>
AV-unprocessed.smi:3234-7

> <Gold.Version>
5.8.1

> <Gold.Id.Protein>
6NUR|6NUR_protein|mol2

> <Gold.PLP.Fitness>
47.2172

> <Gold.PLP.PLP>
-32.6507

> <Gold.PLP.part.hbond>
-4.2546

> <Gold.PLP.part.metal>
0.0000

> <Gold.PLP.part.buried>
-3.3646

> <Gold.PLP.part.nonpolar>
-30.7767

> <Gold.PLP.part.repulsive>
4.5615

> <Gold.PLP.ligand.clash>
0.0000

> <Gold.PLP.ligand.torsion>
1.4237

> <Gold.PLP.Chemscore.Hbond>
5.3836

> <Gold.PLP.Chemscore.CHOScore>
0.0000

> <Gold.PLP.Chemscore.Metal>
0.0000

> <Gold.Chemscore.Hbonds>
donor molecule, donor type, donor heavy atom, donor atom, acceptor molecule, acceptor atom, score
      L1  H     3    19       P1  7948  1.00
      L1  H     7    38       P1  8028  1.92
      L1  H    10    24       P1  7948  0.75
      L1  H    14    37       P1 10186  1.65

> <Gold.PLP.Chemscore.Internal.Correction>
1.2632

> <Gold.Rescore>
     Score         DG    S(hbond)    S(metal)    S(lipo)     H(rot)  DE(clash)    DE(int)     intcor
     18.80     -23.09       3.24        0.00      84.79       1.22       1.68       2.61       ----

> <Gold.Chemscore.Fitness>
18.8024

> <Gold.Chemscore.DG>
-23.0890

> <Gold.Chemscore.ZeroCoef>
-5.4800

> <Gold.Chemscore.Hbond>
3.2408

> <Gold.Chemscore.Metal>
0.0000

> <Gold.Chemscore.Lipo>
84.7874

> <Gold.Chemscore.Internal_Hbond>
0.0000

> <Gold.Chemscore.DEClash>
1.6785

> <Gold.Chemscore.DEInternal>
2.6082

> <Gold.Chemscore.Rot>
1.2248

> <Gold.Chemscore.Internal.Correction>
   9.000000E+99

> <Gold.Chemscore.Hbonds>
donor molecule, donor type, donor heavy atom, donor atom, acceptor molecule, acceptor atom, score
      L1  H     3    19       P1  7948  1.00
      L1  H     7    38       P1  8028  0.91
      L1  H    10    24       P1  7948  0.71
      L1  H    14    37       P1 10186  0.54

> <Gold.Chemscore.Hbond.Weighted>
-10.8244

> <Gold.Chemscore.Metal.Weighted>
-0.0000

> <Gold.Chemscore.Lipo.Weighted>
-9.9201

> <Gold.Chemscore.Internal_Hbond.Weighted>
0.0000

> <Gold.Chemscore.DEClash.Weighted>
1.6785

> <Gold.Chemscore.DEInternal.Weighted>
2.6082

> <Gold.Chemscore.Rot.Weighted>
3.1355

> <Gold.Chemscore.Internal.Correction.Weighted>
   9.000000E+99

> <Gold.Protein.RotatedTorsions>
[ 6907 6896 6895 6894 ] final  -50.94 input  -60.11 | X-H torsion
[ 7974 7965 7964 7962 ] final    7.44 input  175.53 | X-H torsion
[ 8008 7997 7996 7995 ] final  -17.82 input   59.86 | X-H torsion
[ 10167 10162 10161 10158 ] final  160.53 input  -65.29 | X-H torsion
[ 10718 10713 10712 10709 ] final   92.42 input   66.30 | X-H torsion
[ 10763 10752 10751 10750 ] final   41.11 input  -60.55 | X-H torsion
[ 11005 11000 10999 10996 ] final  -73.56 input  -57.11 | X-H torsion

> <Gold.Protein.ActiveResidues>
 VAL166  LYS551  ARG553  GLY616  TRP617  ASP618  TYR619  PRO620  LYS621  CYS622 
 ASP623  PHE694  ASN695  SER759  ASP760  ASP761  ALA762  ILE779  LEU786  VAL792 
 PHE793  MET794  SER795  GLU796  ALA797  LYS798  CYS799  TRP800  GLU811  SER814 

> <Gold.Protein.RotatedAtoms>
  150.8658  134.8021  159.7117 H   0  0  0  0  0  0  0  0  0  0  0  0  # atno 6907 bound_to 6896
  152.4680  134.5025  159.9739 H   0  0  0  0  0  0  0  0  0  0  0  0  # atno 6908 bound_to 6896
  151.5122  133.3444  159.2922 H   0  0  0  0  0  0  0  0  0  0  0  0  # atno 6909 bound_to 6896
  146.2426  140.0083  142.8409 H   0  0  0  0  0  0  0  0  0  0  0  0  # atno 7974 bound_to 7965
  154.4950  140.2132  155.9466 H   0  0  0  0  0  0  0  0  0  0  0  0  # atno 8008 bound_to 7997
  156.1358  140.3189  155.8386 H   0  0  0  0  0  0  0  0  0  0  0  0  # atno 8009 bound_to 7997
  155.4213  140.0497  157.3016 H   0  0  0  0  0  0  0  0  0  0  0  0  # atno 8010 bound_to 7997
  139.4841  144.4624  151.8686 H   0  0  0  0  0  0  0  0  0  0  0  0  # atno 10167 bound_to 10162
  157.6958  131.0442  150.3879 H   0  0  0  0  0  0  0  0  0  0  0  0  # atno 10718 bound_to 10713
  152.9917  135.6171  154.2734 H   0  0  0  0  0  0  0  0  0  0  0  0  # atno 10763 bound_to 10752
  154.2466  135.2787  155.2835 H   0  0  0  0  0  0  0  0  0  0  0  0  # atno 10764 bound_to 10752
  154.5324  135.5784  153.6827 H   0  0  0  0  0  0  0  0  0  0  0  0  # atno 10765 bound_to 10752
  141.1624  133.6882  156.7231 H   0  0  0  0  0  0  0  0  0  0  0  0  # atno 11005 bound_to 11000
  145.1352  140.9540  143.4521 LP  0  0  0  0  0  0  0  0  0  0  0  0  # atno 17320 bound_to 7965
  145.0349  139.3309  143.6006 LP  0  0  0  0  0  0  0  0  0  0  0  0  # atno 17321 bound_to 7965
  140.4088  144.2397  150.5889 LP  0  0  0  0  0  0  0  0  0  0  0  0  # atno 17342 bound_to 10162
  140.4986  143.2324  151.8712 LP  0  0  0  0  0  0  0  0  0  0  0  0  # atno 17343 bound_to 10162
  156.4286  130.3967  149.6776 LP  0  0  0  0  0  0  0  0  0  0  0  0  # atno 17370 bound_to 10713
  156.4001  130.7670  151.2678 LP  0  0  0  0  0  0  0  0  0  0  0  0  # atno 17371 bound_to 10713
  140.2801  134.8323  157.3925 LP  0  0  0  0  0  0  0  0  0  0  0  0  # atno 17394 bound_to 11000
  140.1441  134.4934  155.8009 LP  0  0  0  0  0  0  0  0  0  0  0  0  # atno 17395 bound_to 11000

$$$$
