AV-unprocessed.smi:3193|AV-procd|sdf|12202|dock6
  -GOLD-   2272018 33D 1   1.00000     0.00000
 Structure written by MMmdl.
 40 41  0  0  0  0  0  0  0  0  2 V2000
  153.8996  142.1322  159.5059 C   0  0  0  0  0  0  0  0  0  0  0  0
  152.4750  142.1364  160.0975 C   0  0  1  0  0  0  0  0  0  0  0  0
  152.4965  142.3253  161.6293 C   0  0  0  0  0  0  0  0  0  0  0  0
  152.8510  143.7652  162.0371 C   0  0  0  0  0  0  0  0  0  0  0  0
  151.9066  144.7780  161.3743 C   0  0  0  0  0  0  0  0  0  0  0  0
  151.8838  144.6102  159.8468 C   0  0  0  0  0  0  0  0  0  0  0  0
  151.5155  143.1652  159.4406 C   0  0  1  0  0  0  0  0  0  0  0  0
  151.4135  142.9913  157.9117 C   0  0  0  0  0  0  0  0  0  0  0  0
  150.0513  142.5993  157.4975 N   0  3  0  0  0  0  0  0  0  0  0  0
  149.9767  141.2701  156.8612 C   0  0  0  0  0  0  0  0  0  0  0  0
  150.9849  141.1519  155.7103 C   0  0  0  0  0  0  0  0  0  0  0  0
  151.2065  139.7690  155.3397 N   0  0  0  0  0  0  0  0  0  0  0  0
  150.6234  139.0798  154.2845 C   0  0  0  0  0  0  0  0  0  0  0  0
  151.1361  137.8025  154.3184 C   0  0  0  0  0  0  0  0  0  0  0  0
  152.0315  137.6853  155.3790 N   0  0  0  0  0  0  0  0  0  0  0  0
  152.0203  138.8882  155.9380 C   0  0  0  0  0  0  0  0  0  0  0  0
  154.3855  143.1035  159.5934 H   0  0  0  0  0  0  0  0  0  0  0  0
  153.8960  141.8570  158.4514 H   0  0  0  0  0  0  0  0  0  0  0  0
  154.5297  141.4054  160.0191 H   0  0  0  0  0  0  0  0  0  0  0  0
  152.0652  141.1427  159.9105 H   0  0  0  0  0  0  0  0  0  0  0  0
  151.5150  142.0750  162.0347 H   0  0  0  0  0  0  0  0  0  0  0  0
  153.1964  141.6257  162.0876 H   0  0  0  0  0  0  0  0  0  0  0  0
  152.7976  143.8652  163.1216 H   0  0  0  0  0  0  0  0  0  0  0  0
  153.8821  143.9882  161.7615 H   0  0  0  0  0  0  0  0  0  0  0  0
  150.8986  144.6473  161.7701 H   0  0  0  0  0  0  0  0  0  0  0  0
  152.2095  145.7930  161.6330 H   0  0  0  0  0  0  0  0  0  0  0  0
  151.1669  145.3156  159.4260 H   0  0  0  0  0  0  0  0  0  0  0  0
  152.8547  144.8834  159.4325 H   0  0  0  0  0  0  0  0  0  0  0  0
  150.5235  142.9601  159.8476 H   0  0  0  0  0  0  0  0  0  0  0  0
  151.6928  143.9127  157.3993 H   0  0  0  0  0  0  0  0  0  0  0  0
  152.1079  142.2168  157.5829 H   0  0  0  0  0  0  0  0  0  0  0  0
  149.4566  142.5983  158.3138 H   0  0  0  0  0  0  0  0  0  0  0  0
  150.1720  140.5014  157.6103 H   0  0  0  0  0  0  0  0  0  0  0  0
  148.9643  141.1080  156.4882 H   0  0  0  0  0  0  0  0  0  0  0  0
  150.6301  141.6943  154.8326 H   0  0  0  0  0  0  0  0  0  0  0  0
  151.9421  141.5925  155.9921 H   0  0  0  0  0  0  0  0  0  0  0  0
  149.9119  139.5398  153.6145 H   0  0  0  0  0  0  0  0  0  0  0  0
  150.9318  136.9660  153.6665 H   0  0  0  0  0  0  0  0  0  0  0  0
  152.6205  139.1347  156.8018 H   0  0  0  0  0  0  0  0  0  0  0  0
  149.7047  143.2891  156.8458 H   0  0  0  0  0  0  0  0  0  0  0  0
  1  2  1  0  0  0  0
  1 17  1  0  0  0  0
  1 18  1  0  0  0  0
  1 19  1  0  0  0  0
  2  7  1  0  0  0  0
  2  3  1  0  0  0  0
  2 20  1  0  0  0  0
  3  4  1  0  0  0  0
  3 21  1  0  0  0  0
  3 22  1  0  0  0  0
  4  5  1  0  0  0  0
  4 23  1  0  0  0  0
  4 24  1  0  0  0  0
  5  6  1  0  0  0  0
  5 25  1  0  0  0  0
  5 26  1  0  0  0  0
  6  7  1  0  0  0  0
  6 27  1  0  0  0  0
  6 28  1  0  0  0  0
  7  8  1  0  0  0  0
  7 29  1  0  0  0  0
  8  9  1  0  0  0  0
  8 30  1  0  0  0  0
  8 31  1  0  0  0  0
  9 10  1  0  0  0  0
  9 32  1  0  0  0  0
  9 40  1  0  0  0  0
 10 11  1  0  0  0  0
 10 33  1  0  0  0  0
 10 34  1  0  0  0  0
 11 12  1  0  0  0  0
 11 35  1  0  0  0  0
 11 36  1  0  0  0  0
 12 16  1  0  0  0  0
 12 13  1  0  0  0  0
 13 14  2  0  0  0  0
 13 37  1  0  0  0  0
 14 15  1  0  0  0  0
 14 38  1  0  0  0  0
 15 16  2  0  0  0  0
 16 39  1  0  0  0  0
M  CHG  1   9   1
M  END
> <s_m_source_file>
AV-unprocessed.smi

> <i_m_source_file_index>
3193

> <i_lp_mmshare_version>
43012

> <i_f3d_flags>
0

> <s_epik_input>
W0NIM11bQ0BASF0xW0NIMl1bQ0gyXVtDSDJdW0NIMl1bQ0BIXTFbQ0gyXVtOSF1bQ0gyXVtDSDJdbjJbY0hdW2NIXW5bY0hdMg==

> <s_epik_cmdline>
J2VwaWtfcHl0aG9uJywgJy1waCcsICc3LjAnLCAnLXRuJywgJzgnLCAnLW1hJywgJzIwMCcsICctbWV0YWxfYmluZGluZycsICctaW1hZScsICc8aW5maWxlLm1hZT4nLCAnLW9tYWUnLCAnPG91dGZpbGUubWFlPic=

> <r_lp_tautomer_probability>
1

> <r_epik_Ionization_Penalty>
0.0503046

> <r_epik_Ionization_Penalty_Charging>
0.0503046

> <r_epik_Ionization_Penalty_Neutral>
0

> <r_epik_State_Penalty>
0.0981804

> <r_epik_Charging_Adjusted_Penalty>
0.148485

> <i_epik_Tot_Q>
1

> <i_epik_Tot_abs_Q>
1

> <r_epik_Metal_State_Penalty>
0.000105854

> <b_epik_Metal_Only>
0

> <s_lp_Force_Field>
OPLS_2005

> <r_lp_Energy>
20.219

> <b_lp_Chiralities_Consistent>
1

> <s_lp_Variant>
AV-unprocessed.smi:3193-2

> <Gold.Version>
5.8.1

> <Gold.Id.Protein>
6NUR|6NUR_protein|mol2

> <Gold.PLP.Fitness>
47.8066

> <Gold.PLP.PLP>
-38.4498

> <Gold.PLP.part.hbond>
-1.3415

> <Gold.PLP.part.metal>
0.0000

> <Gold.PLP.part.buried>
-0.2553

> <Gold.PLP.part.nonpolar>
-35.5750

> <Gold.PLP.part.repulsive>
0.0634

> <Gold.PLP.ligand.clash>
0.0000

> <Gold.PLP.ligand.torsion>
1.5061

> <Gold.PLP.Chemscore.Hbond>
2.0000

> <Gold.PLP.Chemscore.CHOScore>
2.1054

> <Gold.PLP.Chemscore.Metal>
0.0000

> <Gold.Chemscore.Hbonds>
donor molecule, donor type, donor heavy atom, donor atom, acceptor molecule, acceptor atom, score
      L1  H     9    40       P1  8028  2.00
      L1  C    13    37       P1  7957  1.00
      L1  C    14    38       P1  7948  0.12
      L1  C    14    38       P1  7949  0.98

> <Gold.PLP.Chemscore.Internal.Correction>
0.0530

> <Gold.Rescore>
     Score         DG    S(hbond)    S(metal)    S(lipo)     H(rot)  DE(clash)    DE(int)     intcor
     15.99     -17.60       0.97        0.00     117.26       1.89       0.31       1.30       ----

> <Gold.Chemscore.Fitness>
15.9897

> <Gold.Chemscore.DG>
-17.5993

> <Gold.Chemscore.ZeroCoef>
-5.4800

> <Gold.Chemscore.Hbond>
0.9693

> <Gold.Chemscore.Metal>
0.0000

> <Gold.Chemscore.Lipo>
117.2564

> <Gold.Chemscore.Internal_Hbond>
0.0000

> <Gold.Chemscore.DEClash>
0.3129

> <Gold.Chemscore.DEInternal>
1.2967

> <Gold.Chemscore.Rot>
1.8895

> <Gold.Chemscore.Internal.Correction>
   9.000000E+99

> <Gold.Chemscore.Hbonds>
donor molecule, donor type, donor heavy atom, donor atom, acceptor molecule, acceptor atom, score
      L1  H     9    40       P1  8028  0.93
      P1  H 10752 10763       L1    15  0.01

> <Gold.Chemscore.Hbond.Weighted>
-3.2373

> <Gold.Chemscore.Metal.Weighted>
-0.0000

> <Gold.Chemscore.Lipo.Weighted>
-13.7190

> <Gold.Chemscore.Internal_Hbond.Weighted>
0.0000

> <Gold.Chemscore.DEClash.Weighted>
0.3129

> <Gold.Chemscore.DEInternal.Weighted>
1.2967

> <Gold.Chemscore.Rot.Weighted>
4.8371

> <Gold.Chemscore.Internal.Correction.Weighted>
   9.000000E+99

> <Gold.Protein.RotatedTorsions>
[ 6907 6896 6895 6894 ] final -157.44 input  -60.11 | X-H torsion
[ 7974 7965 7964 7962 ] final  117.28 input  175.53 | X-H torsion
[ 8008 7997 7996 7995 ] final  -18.05 input   59.86 | X-H torsion
[ 10167 10162 10161 10158 ] final -163.53 input  -65.29 | X-H torsion
[ 10718 10713 10712 10709 ] final -175.87 input   66.30 | X-H torsion
[ 10763 10752 10751 10750 ] final   91.43 input  -60.55 | X-H torsion
[ 11005 11000 10999 10996 ] final   70.95 input  -57.11 | X-H torsion

> <Gold.Protein.ActiveResidues>
 VAL166  LYS551  ARG553  GLY616  TRP617  ASP618  TYR619  PRO620  LYS621  CYS622 
 ASP623  PHE694  ASN695  SER759  ASP760  ASP761  ALA762  ILE779  LEU786  VAL792 
 PHE793  MET794  SER795  GLU796  ALA797  LYS798  CYS799  TRP800  GLU811  SER814 

> <Gold.Protein.RotatedAtoms>
  151.3029  133.4114  159.2640 H   0  0  0  0  0  0  0  0  0  0  0  0  # atno 6907 bound_to 6896
  151.0180  134.9448  159.8054 H   0  0  0  0  0  0  0  0  0  0  0  0  # atno 6908 bound_to 6896
  152.5317  134.2992  159.9124 H   0  0  0  0  0  0  0  0  0  0  0  0  # atno 6909 bound_to 6896
  145.1693  139.3111  143.4476 H   0  0  0  0  0  0  0  0  0  0  0  0  # atno 7974 bound_to 7965
  154.4934  140.2126  155.9499 H   0  0  0  0  0  0  0  0  0  0  0  0  # atno 8008 bound_to 7997
  156.1337  140.3192  155.8356 H   0  0  0  0  0  0  0  0  0  0  0  0  # atno 8009 bound_to 7997
  155.4250  140.0499  157.3013 H   0  0  0  0  0  0  0  0  0  0  0  0  # atno 8010 bound_to 7997
  139.6314  144.0432  152.2019 H   0  0  0  0  0  0  0  0  0  0  0  0  # atno 10167 bound_to 10162
  156.8062  130.9570  151.3117 H   0  0  0  0  0  0  0  0  0  0  0  0  # atno 10718 bound_to 10713
  153.2082  135.4398  155.0348 H   0  0  0  0  0  0  0  0  0  0  0  0  # atno 10763 bound_to 10752
  154.8185  135.3326  154.7109 H   0  0  0  0  0  0  0  0  0  0  0  0  # atno 10764 bound_to 10752
  153.7548  135.6995  153.4993 H   0  0  0  0  0  0  0  0  0  0  0  0  # atno 10765 bound_to 10752
  139.9570  134.7127  156.0731 H   0  0  0  0  0  0  0  0  0  0  0  0  # atno 11005 bound_to 11000
  146.3471  140.1832  142.8589 LP  0  0  0  0  0  0  0  0  0  0  0  0  # atno 17320 bound_to 7965
  145.0250  140.8824  143.5144 LP  0  0  0  0  0  0  0  0  0  0  0  0  # atno 17321 bound_to 7965
  140.0099  144.6232  150.7656 LP  0  0  0  0  0  0  0  0  0  0  0  0  # atno 17342 bound_to 10162
  140.7441  143.2856  151.3474 LP  0  0  0  0  0  0  0  0  0  0  0  0  # atno 17343 bound_to 10162
  157.6529  130.8899  149.9669 LP  0  0  0  0  0  0  0  0  0  0  0  0  # atno 17370 bound_to 10713
  156.1071  130.3652  150.0114 LP  0  0  0  0  0  0  0  0  0  0  0  0  # atno 17371 bound_to 10713
  141.1242  133.6604  156.3294 LP  0  0  0  0  0  0  0  0  0  0  0  0  # atno 17394 bound_to 11000
  140.5587  134.5956  157.5428 LP  0  0  0  0  0  0  0  0  0  0  0  0  # atno 17395 bound_to 11000

$$$$
