AV-unprocessed.smi:1225|AV-procd|sdf|5141|dock4
  -GOLD-   22720 4203D 1   1.00000     0.00000
 Structure written by MMmdl.
 49 51  0  0  0  0  0  0  0  0  2 V2000
  149.7922  133.9684  154.6822 C   0  0  0  0  0  0  0  0  0  0  0  0
  149.3229  135.3740  154.8425 C   0  0  0  0  0  0  0  0  0  0  0  0
  150.1430  136.4105  155.0302 N   0  0  0  0  0  0  0  0  0  0  0  0
  149.4561  137.6203  155.1499 C   0  0  0  0  0  0  0  0  0  0  0  0
  148.0925  137.4959  155.0450 C   0  0  0  0  0  0  0  0  0  0  0  0
  147.0663  138.5785  155.1115 C   0  0  0  0  0  0  0  0  0  0  0  0
  147.2185  139.5600  154.0068 N   0  3  2  0  0  0  0  0  0  0  0  0
  146.8981  138.9793  152.6820 C   0  0  0  0  0  0  0  0  0  0  0  0
  148.5356  140.2441  154.0141 C   0  0  0  0  0  0  0  0  0  0  0  0
  148.6960  141.1771  155.2353 C   0  0  2  0  0  0  0  0  0  0  0  0
  147.7889  142.2524  155.1052 O   0  0  0  0  0  0  0  0  0  0  0  0
  150.1133  141.7662  155.3827 C   0  0  0  0  0  0  0  0  0  0  0  0
  150.8563  141.1684  156.4776 N   0  0  0  0  0  0  0  0  0  0  0  0
  151.2202  139.8771  156.6020 C   0  0  0  0  0  0  0  0  0  0  0  0
  151.8909  139.5368  157.6982 N   0  0  0  0  0  0  0  0  0  0  0  0
  151.9865  140.7508  158.3559 C   0  0  0  0  0  0  0  0  0  0  0  0
  152.5875  141.0795  159.5904 C   0  0  0  0  0  0  0  0  0  0  0  0
  152.5641  142.4058  160.0777 C   0  0  0  0  0  0  0  0  0  0  0  0
  153.2244  142.7147  161.4098 C   0  0  0  0  0  0  0  0  0  0  0  0
  151.9330  143.4283  159.3248 C   0  0  0  0  0  0  0  0  0  0  0  0
  151.8974  144.8606  159.8276 C   0  0  0  0  0  0  0  0  0  0  0  0
  151.3285  143.1174  158.0888 C   0  0  0  0  0  0  0  0  0  0  0  0
  151.3546  141.7932  157.6163 C   0  0  0  0  0  0  0  0  0  0  0  0
  147.6254  135.8332  154.7960 S   0  0  0  0  0  0  0  0  0  0  0  0
  150.8452  133.8817  154.9517 H   0  0  0  0  0  0  0  0  0  0  0  0
  149.6684  133.6507  153.6468 H   0  0  0  0  0  0  0  0  0  0  0  0
  149.2125  133.3054  155.3244 H   0  0  0  0  0  0  0  0  0  0  0  0
  150.0201  138.5285  155.3035 H   0  0  0  0  0  0  0  0  0  0  0  0
  146.0803  138.1158  155.0764 H   0  0  0  0  0  0  0  0  0  0  0  0
  147.1175  139.0943  156.0716 H   0  0  0  0  0  0  0  0  0  0  0  0
  147.6074  138.1936  152.4186 H   0  0  0  0  0  0  0  0  0  0  0  0
  146.9325  139.7449  151.9062 H   0  0  0  0  0  0  0  0  0  0  0  0
  145.8949  138.5528  152.6698 H   0  0  0  0  0  0  0  0  0  0  0  0
  149.3182  139.4851  153.9831 H   0  0  0  0  0  0  0  0  0  0  0  0
  148.6580  140.8392  153.1076 H   0  0  0  0  0  0  0  0  0  0  0  0
  148.4447  140.6468  156.1528 H   0  0  0  0  0  0  0  0  0  0  0  0
  148.2316  143.0521  155.3475 H   0  0  0  0  0  0  0  0  0  0  0  0
  150.6802  141.6226  154.4613 H   0  0  0  0  0  0  0  0  0  0  0  0
  150.0621  142.8422  155.5547 H   0  0  0  0  0  0  0  0  0  0  0  0
  150.9699  139.1425  155.8504 H   0  0  0  0  0  0  0  0  0  0  0  0
  153.0707  140.3010  160.1627 H   0  0  0  0  0  0  0  0  0  0  0  0
  152.4985  143.1263  162.1113 H   0  0  0  0  0  0  0  0  0  0  0  0
  154.0287  143.4388  161.2777 H   0  0  0  0  0  0  0  0  0  0  0  0
  153.6529  141.8185  161.8593 H   0  0  0  0  0  0  0  0  0  0  0  0
  151.3740  145.5150  159.1298 H   0  0  0  0  0  0  0  0  0  0  0  0
  152.9092  145.2468  159.9534 H   0  0  0  0  0  0  0  0  0  0  0  0
  151.3831  144.9162  160.7873 H   0  0  0  0  0  0  0  0  0  0  0  0
  150.8491  143.8891  157.5053 H   0  0  0  0  0  0  0  0  0  0  0  0
  146.5359  140.2874  154.1675 H   0  0  0  0  0  0  0  0  0  0  0  0
  1  2  1  0  0  0  0
  1 25  1  0  0  0  0
  1 26  1  0  0  0  0
  1 27  1  0  0  0  0
  2 24  1  0  0  0  0
  2  3  2  0  0  0  0
  3  4  1  0  0  0  0
  4  5  2  0  0  0  0
  4 28  1  0  0  0  0
  5  6  1  0  0  0  0
  5 24  1  0  0  0  0
  6  7  1  0  0  0  0
  6 29  1  0  0  0  0
  6 30  1  0  0  0  0
  7  8  1  0  0  0  0
  7  9  1  0  0  0  0
  7 49  1  0  0  0  0
  8 31  1  0  0  0  0
  8 32  1  0  0  0  0
  8 33  1  0  0  0  0
  9 10  1  0  0  0  0
  9 34  1  0  0  0  0
  9 35  1  0  0  0  0
 10 11  1  0  0  0  0
 10 12  1  0  0  0  0
 10 36  1  0  0  0  0
 11 37  1  0  0  0  0
 12 13  1  0  0  0  0
 12 38  1  0  0  0  0
 12 39  1  0  0  0  0
 13 23  1  0  0  0  0
 13 14  1  0  0  0  0
 14 15  2  0  0  0  0
 14 40  1  0  0  0  0
 15 16  1  0  0  0  0
 16 23  2  0  0  0  0
 16 17  1  0  0  0  0
 17 18  2  0  0  0  0
 17 41  1  0  0  0  0
 18 19  1  0  0  0  0
 18 20  1  0  0  0  0
 19 42  1  0  0  0  0
 19 43  1  0  0  0  0
 19 44  1  0  0  0  0
 20 21  1  0  0  0  0
 20 22  2  0  0  0  0
 21 45  1  0  0  0  0
 21 46  1  0  0  0  0
 21 47  1  0  0  0  0
 22 23  1  0  0  0  0
 22 48  1  0  0  0  0
M  CHG  1   7   1
M  END
> <s_m_source_file>
AV-unprocessed.smi

> <i_m_source_file_index>
1225

> <i_lp_mmshare_version>
43012

> <i_f3d_flags>
0

> <s_epik_input>
W0NIM11jMW5bY0hdYyhzMSlbQ0gyXU4oW0NIM10pW0NIMl1bQ0BIXShbT0hdKVtDSDJdbihbY0hdbjIpYyhjMjMpW2NIXWMoW0NIM10pYyhbY0hdMylbQ0gzXQ==

> <s_epik_cmdline>
J2VwaWtfcHl0aG9uJywgJy1waCcsICc3LjAnLCAnLXRuJywgJzgnLCAnLW1hJywgJzIwMCcsICctbWV0YWxfYmluZGluZycsICctaW1hZScsICc8aW5maWxlLm1hZT4nLCAnLW9tYWUnLCAnPG91dGZpbGUubWFlPic=

> <r_epik_Ionization_Penalty>
1.62543

> <r_epik_Ionization_Penalty_Charging>
1.53932

> <r_epik_Ionization_Penalty_Neutral>
0.0861152

> <r_epik_State_Penalty>
1.73127

> <r_epik_Charging_Adjusted_Penalty>
3.27059

> <i_epik_Tot_Q>
1

> <i_epik_Tot_abs_Q>
1

> <r_epik_Metal_State_Penalty>
1.71387

> <b_epik_Metal_Only>
0

> <s_lp_Force_Field>
OPLS_2005

> <r_lp_Energy>
11.3811

> <b_lp_Chiralities_Consistent>
1

> <s_lp_Variant>
AV-unprocessed.smi:1225-6

> <Gold.Version>
5.8.1

> <Gold.Id.Protein>
6NUR|6NUR_protein|mol2

> <Gold.PLP.Fitness>
45.3009

> <Gold.PLP.PLP>
-43.8069

> <Gold.PLP.part.hbond>
-1.0000

> <Gold.PLP.part.metal>
0.0000

> <Gold.PLP.part.buried>
-3.8409

> <Gold.PLP.part.nonpolar>
-38.2392

> <Gold.PLP.part.repulsive>
0.1399

> <Gold.PLP.ligand.clash>
0.0000

> <Gold.PLP.ligand.torsion>
0.8068

> <Gold.PLP.Chemscore.Hbond>
1.0000

> <Gold.PLP.Chemscore.CHOScore>
0.0000

> <Gold.PLP.Chemscore.Metal>
0.0000

> <Gold.Chemscore.Hbonds>
donor molecule, donor type, donor heavy atom, donor atom, acceptor molecule, acceptor atom, score
      L1  H    11    37       P1  8028  1.00

> <Gold.PLP.Chemscore.Internal.Correction>
0.1076

> <Gold.Rescore>
     Score         DG    S(hbond)    S(metal)    S(lipo)     H(rot)  DE(clash)    DE(int)     intcor
     16.05     -17.16       0.98        0.00     123.80       2.37       0.29       0.82       ----

> <Gold.Chemscore.Fitness>
16.0454

> <Gold.Chemscore.DG>
-17.1638

> <Gold.Chemscore.ZeroCoef>
-5.4800

> <Gold.Chemscore.Hbond>
0.9820

> <Gold.Chemscore.Metal>
0.0000

> <Gold.Chemscore.Lipo>
123.7954

> <Gold.Chemscore.Internal_Hbond>
0.0000

> <Gold.Chemscore.DEClash>
0.2936

> <Gold.Chemscore.DEInternal>
0.8248

> <Gold.Chemscore.Rot>
2.3750

> <Gold.Chemscore.Internal.Correction>
   9.000000E+99

> <Gold.Chemscore.Hbonds>
donor molecule, donor type, donor heavy atom, donor atom, acceptor molecule, acceptor atom, score
      L1  H    11    37       P1  8028  0.97

> <Gold.Chemscore.Hbond.Weighted>
-3.2798

> <Gold.Chemscore.Metal.Weighted>
-0.0000

> <Gold.Chemscore.Lipo.Weighted>
-14.4841

> <Gold.Chemscore.Internal_Hbond.Weighted>
0.0000

> <Gold.Chemscore.DEClash.Weighted>
0.2936

> <Gold.Chemscore.DEInternal.Weighted>
0.8248

> <Gold.Chemscore.Rot.Weighted>
6.0800

> <Gold.Chemscore.Internal.Correction.Weighted>
   9.000000E+99

> <Gold.Protein.RotatedTorsions>
[ 6907 6896 6895 6894 ] final -170.66 input  -60.11 | X-H torsion
[ 7974 7965 7964 7962 ] final  109.93 input  175.53 | X-H torsion
[ 8008 7997 7996 7995 ] final -161.91 input   59.86 | X-H torsion
[ 10167 10162 10161 10158 ] final   47.64 input  -65.29 | X-H torsion
[ 10718 10713 10712 10709 ] final  -70.64 input   66.30 | X-H torsion
[ 10763 10752 10751 10750 ] final  -69.26 input  -60.55 | X-H torsion
[ 11005 11000 10999 10996 ] final -165.76 input  -57.11 | X-H torsion

> <Gold.Protein.ActiveResidues>
 VAL166  LYS551  ARG553  GLY616  TRP617  ASP618  TYR619  PRO620  LYS621  CYS622 
 ASP623  PHE694  ASN695  SER759  ASP760  ASP761  ALA762  ILE779  LEU786  VAL792 
 PHE793  MET794  SER795  GLU796  ALA797  LYS798  CYS799  TRP800  GLU811  SER814 

> <Gold.Protein.RotatedAtoms>
  151.5112  133.3484  159.2885 H   0  0  0  0  0  0  0  0  0  0  0  0  # atno 6907 bound_to 6896
  150.8711  134.8087  159.7166 H   0  0  0  0  0  0  0  0  0  0  0  0  # atno 6908 bound_to 6896
  152.4699  134.4996  159.9772 H   0  0  0  0  0  0  0  0  0  0  0  0  # atno 6909 bound_to 6896
  145.2615  139.2701  143.4014 H   0  0  0  0  0  0  0  0  0  0  0  0  # atno 7974 bound_to 7965
  155.7991  140.0889  157.1967 H   0  0  0  0  0  0  0  0  0  0  0  0  # atno 8008 bound_to 7997
  154.3982  140.1476  156.3311 H   0  0  0  0  0  0  0  0  0  0  0  0  # atno 8009 bound_to 7997
  155.8481  140.3436  155.5678 H   0  0  0  0  0  0  0  0  0  0  0  0  # atno 8010 bound_to 7997
  140.3015  144.2928  150.6218 H   0  0  0  0  0  0  0  0  0  0  0  0  # atno 10167 bound_to 10162
  156.0398  130.4335  150.2326 H   0  0  0  0  0  0  0  0  0  0  0  0  # atno 10718 bound_to 10713
  154.4008  135.6031  153.5896 H   0  0  0  0  0  0  0  0  0  0  0  0  # atno 10763 bound_to 10752
  152.9788  135.5906  154.4186 H   0  0  0  0  0  0  0  0  0  0  0  0  # atno 10764 bound_to 10752
  154.3984  135.2842  155.2090 H   0  0  0  0  0  0  0  0  0  0  0  0  # atno 10765 bound_to 10752
  140.5720  134.5228  157.5163 H   0  0  0  0  0  0  0  0  0  0  0  0  # atno 11005 bound_to 11000
  146.3274  140.3033  142.8622 LP  0  0  0  0  0  0  0  0  0  0  0  0  # atno 17320 bound_to 7965
  144.9414  140.8083  143.5628 LP  0  0  0  0  0  0  0  0  0  0  0  0  # atno 17321 bound_to 7965
  140.5647  143.2188  151.7705 LP  0  0  0  0  0  0  0  0  0  0  0  0  # atno 17342 bound_to 10162
  139.4914  144.4301  151.9882 LP  0  0  0  0  0  0  0  0  0  0  0  0  # atno 17343 bound_to 10162
  157.0422  131.0038  151.3280 LP  0  0  0  0  0  0  0  0  0  0  0  0  # atno 17370 bound_to 10713
  157.5201  130.7992  149.7799 LP  0  0  0  0  0  0  0  0  0  0  0  0  # atno 17371 bound_to 10713
  139.9357  134.7880  156.0809 LP  0  0  0  0  0  0  0  0  0  0  0  0  # atno 17394 bound_to 11000
  141.1050  133.6663  156.2842 LP  0  0  0  0  0  0  0  0  0  0  0  0  # atno 17395 bound_to 11000

$$$$
