AV-unprocessed.smi:3149|AV-procd|sdf|12005|dock8
  -GOLD-   2272017413D 1   1.00000     0.00000
 Structure written by MMmdl.
 37 38  0  0  0  0  0  0  0  0  1 V2000
  148.0589  141.6228  157.3292 C   0  0  0  0  0  0  0  0  0  0  0  0
  149.3877  141.1819  156.6767 C   0  0  2  0  0  0  0  0  0  0  0  0
  150.1997  142.3601  156.3819 N   0  0  0  0  0  0  0  0  0  0  0  0
  150.8383  142.9441  157.5694 C   0  0  0  0  0  0  0  0  0  0  0  0
  151.8185  141.9652  158.2239 C   0  0  0  0  0  0  0  0  0  0  0  0
  152.0278  140.8655  157.7127 O   0  0  0  0  0  0  0  0  0  0  0  0
  152.5230  142.3988  159.3514 N   0  0  0  0  0  0  0  0  0  0  0  0
  151.9888  143.4320  160.2247 C   0  0  0  0  0  0  0  0  0  0  0  0
  152.7884  142.7470  161.3382 C   0  0  0  0  0  0  0  0  0  0  0  0
  152.8466  141.5005  160.4494 C   0  0  0  0  0  0  0  0  0  0  0  0
  149.1836  140.3908  155.3553 C   0  0  1  0  0  0  0  0  0  0  0  0
  148.8083  141.3012  154.1690 C   0  0  0  0  0  0  0  0  0  0  0  0
  150.3487  139.5837  155.0126 N   0  0  0  0  0  0  0  0  0  0  0  0
  150.4328  138.2108  154.9033 C   0  0  0  0  0  0  0  0  0  0  0  0
  151.7202  137.9048  154.5670 C   0  0  0  0  0  0  0  0  0  0  0  0
  152.3593  139.1731  154.4874 C   0  0  0  0  0  0  0  0  0  0  0  0
  151.5375  140.1751  154.7532 N   0  0  0  0  0  0  0  0  0  0  0  0
  147.4353  140.7674  157.5887 H   0  0  0  0  0  0  0  0  0  0  0  0
  147.4811  142.2603  156.6596 H   0  0  0  0  0  0  0  0  0  0  0  0
  148.2206  142.1729  158.2553 H   0  0  0  0  0  0  0  0  0  0  0  0
  149.9249  140.5383  157.3752 H   0  0  0  0  0  0  0  0  0  0  0  0
  149.6522  143.0402  155.8742 H   0  0  0  0  0  0  0  0  0  0  0  0
  151.3784  143.8498  157.2941 H   0  0  0  0  0  0  0  0  0  0  0  0
  150.0844  143.2351  158.3014 H   0  0  0  0  0  0  0  0  0  0  0  0
  152.3226  144.4399  159.9769 H   0  0  0  0  0  0  0  0  0  0  0  0
  150.9083  143.3673  160.3689 H   0  0  0  0  0  0  0  0  0  0  0  0
  153.7659  143.2007  161.5115 H   0  0  0  0  0  0  0  0  0  0  0  0
  152.2347  142.6088  162.2675 H   0  0  0  0  0  0  0  0  0  0  0  0
  152.0581  140.7797  160.6748 H   0  0  0  0  0  0  0  0  0  0  0  0
  153.8321  141.0403  160.3747 H   0  0  0  0  0  0  0  0  0  0  0  0
  148.3591  139.6913  155.5049 H   0  0  0  0  0  0  0  0  0  0  0  0
  147.8585  141.8080  154.3394 H   0  0  0  0  0  0  0  0  0  0  0  0
  148.7040  140.7236  153.2501 H   0  0  0  0  0  0  0  0  0  0  0  0
  149.5649  142.0673  153.9961 H   0  0  0  0  0  0  0  0  0  0  0  0
  149.5788  137.5721  155.0747 H   0  0  0  0  0  0  0  0  0  0  0  0
  152.1415  136.9242  154.4020 H   0  0  0  0  0  0  0  0  0  0  0  0
  153.3885  139.3938  154.2460 H   0  0  0  0  0  0  0  0  0  0  0  0
  1  2  1  0  0  0  0
  1 18  1  0  0  0  0
  1 19  1  0  0  0  0
  1 20  1  0  0  0  0
  2  3  1  0  0  0  0
  2 11  1  0  0  0  0
  2 21  1  0  0  0  0
  3  4  1  0  0  0  0
  3 22  1  0  0  0  0
  4  5  1  0  0  0  0
  4 23  1  0  0  0  0
  4 24  1  0  0  0  0
  5  6  2  0  0  0  0
  5  7  1  0  0  0  0
  7 10  1  0  0  0  0
  7  8  1  0  0  0  0
  8  9  1  0  0  0  0
  8 25  1  0  0  0  0
  8 26  1  0  0  0  0
  9 10  1  0  0  0  0
  9 27  1  0  0  0  0
  9 28  1  0  0  0  0
 10 29  1  0  0  0  0
 10 30  1  0  0  0  0
 11 12  1  0  0  0  0
 11 13  1  0  0  0  0
 11 31  1  0  0  0  0
 12 32  1  0  0  0  0
 12 33  1  0  0  0  0
 12 34  1  0  0  0  0
 13 17  1  0  0  0  0
 13 14  1  0  0  0  0
 14 15  2  0  0  0  0
 14 35  1  0  0  0  0
 15 16  1  0  0  0  0
 15 36  1  0  0  0  0
 16 17  2  0  0  0  0
 16 37  1  0  0  0  0
M  END
> <s_m_source_file>
AV-unprocessed.smi

> <i_m_source_file_index>
3149

> <i_lp_mmshare_version>
43012

> <i_f3d_flags>
0

> <s_epik_input>
bjFbY0hdW2NIXVtjSF1uMVtDQEBIXShbQ0gzXSlbQ0BIXShbQ0gzXSlbTkhdW0NIMl1DKD1PKU4yW0NIMl1bQ0gyXVtDSDJdMg==

> <s_epik_cmdline>
J2VwaWtfcHl0aG9uJywgJy1waCcsICc3LjAnLCAnLXRuJywgJzgnLCAnLW1hJywgJzIwMCcsICctbWV0YWxfYmluZGluZycsICctaW1hZScsICc8aW5maWxlLm1hZT4nLCAnLW9tYWUnLCAnPG91dGZpbGUubWFlPic=

> <r_lp_tautomer_probability>
1

> <r_epik_Ionization_Penalty>
0.918674

> <r_epik_Ionization_Penalty_Charging>
0

> <r_epik_Ionization_Penalty_Neutral>
0.918674

> <r_epik_State_Penalty>
0.958258

> <r_epik_Charging_Adjusted_Penalty>
0.958258

> <i_epik_Tot_Q>
0

> <i_epik_Tot_abs_Q>
0

> <r_epik_Metal_State_Penalty>
0.956881

> <b_epik_Metal_Only>
0

> <s_lp_Force_Field>
OPLS_2005

> <r_lp_Energy>
23.4504

> <b_lp_Chiralities_Consistent>
1

> <s_lp_Variant>
AV-unprocessed.smi:3149-7

> <Gold.Version>
5.8.1

> <Gold.Id.Protein>
6NUR|6NUR_protein|mol2

> <Gold.PLP.Fitness>
43.7446

> <Gold.PLP.PLP>
-38.6430

> <Gold.PLP.part.hbond>
-2.0000

> <Gold.PLP.part.metal>
0.0000

> <Gold.PLP.part.buried>
-5.2138

> <Gold.PLP.part.nonpolar>
-31.8916

> <Gold.PLP.part.repulsive>
0.0608

> <Gold.PLP.ligand.clash>
0.0000

> <Gold.PLP.ligand.torsion>
0.8832

> <Gold.PLP.Chemscore.Hbond>
1.9920

> <Gold.PLP.Chemscore.CHOScore>
0.0000

> <Gold.PLP.Chemscore.Metal>
0.0000

> <Gold.Chemscore.Hbonds>
donor molecule, donor type, donor heavy atom, donor atom, acceptor molecule, acceptor atom, score
      L1  H     3    22       P1  8028  1.00
      P1  H  7989  7998       L1    17  0.67

> <Gold.PLP.Chemscore.Internal.Correction>
0.8919

> <Gold.Rescore>
     Score         DG    S(hbond)    S(metal)    S(lipo)     H(rot)  DE(clash)    DE(int)     intcor
     14.15     -16.07       1.70        0.00      81.20       1.79       0.02       1.90       ----

> <Gold.Chemscore.Fitness>
14.1486

> <Gold.Chemscore.DG>
-16.0694

> <Gold.Chemscore.ZeroCoef>
-5.4800

> <Gold.Chemscore.Hbond>
1.6961

> <Gold.Chemscore.Metal>
0.0000

> <Gold.Chemscore.Lipo>
81.1994

> <Gold.Chemscore.Internal_Hbond>
0.0000

> <Gold.Chemscore.DEClash>
0.0234

> <Gold.Chemscore.DEInternal>
1.8974

> <Gold.Chemscore.Rot>
1.7874

> <Gold.Chemscore.Internal.Correction>
   9.000000E+99

> <Gold.Chemscore.Hbonds>
donor molecule, donor type, donor heavy atom, donor atom, acceptor molecule, acceptor atom, score
      L1  H     3    22       P1  8028  0.97
      P1  H  7989  7998       L1    17  0.12

> <Gold.Chemscore.Hbond.Weighted>
-5.6649

> <Gold.Chemscore.Metal.Weighted>
-0.0000

> <Gold.Chemscore.Lipo.Weighted>
-9.5003

> <Gold.Chemscore.Internal_Hbond.Weighted>
0.0000

> <Gold.Chemscore.DEClash.Weighted>
0.0234

> <Gold.Chemscore.DEInternal.Weighted>
1.8974

> <Gold.Chemscore.Rot.Weighted>
4.5758

> <Gold.Chemscore.Internal.Correction.Weighted>
   9.000000E+99

> <Gold.Protein.RotatedTorsions>
[ 6907 6896 6895 6894 ] final -142.91 input  -60.11 | X-H torsion
[ 7974 7965 7964 7962 ] final -122.42 input  175.53 | X-H torsion
[ 8008 7997 7996 7995 ] final  111.22 input   59.86 | X-H torsion
[ 10167 10162 10161 10158 ] final   73.74 input  -65.29 | X-H torsion
[ 10718 10713 10712 10709 ] final   49.73 input   66.30 | X-H torsion
[ 10763 10752 10751 10750 ] final  150.93 input  -60.55 | X-H torsion
[ 11005 11000 10999 10996 ] final   57.38 input  -57.11 | X-H torsion

> <Gold.Protein.ActiveResidues>
 VAL166  LYS551  ARG553  GLY616  TRP617  ASP618  TYR619  PRO620  LYS621  CYS622 
 ASP623  PHE694  ASN695  SER759  ASP760  ASP761  ALA762  ILE779  LEU786  VAL792 
 PHE793  MET794  SER795  GLU796  ALA797  LYS798  CYS799  TRP800  GLU811  SER814 

> <Gold.Protein.RotatedAtoms>
  151.0934  133.5298  159.2613 H   0  0  0  0  0  0  0  0  0  0  0  0  # atno 6907 bound_to 6896
  151.2157  135.0498  159.8939 H   0  0  0  0  0  0  0  0  0  0  0  0  # atno 6908 bound_to 6896
  152.5436  134.0744  159.8261 H   0  0  0  0  0  0  0  0  0  0  0  0  # atno 6909 bound_to 6896
  145.0297  140.8057  143.4331 H   0  0  0  0  0  0  0  0  0  0  0  0  # atno 7974 bound_to 7965
  156.2109  140.3023  155.9730 H   0  0  0  0  0  0  0  0  0  0  0  0  # atno 8008 bound_to 7997
  155.2727  140.0434  157.3025 H   0  0  0  0  0  0  0  0  0  0  0  0  # atno 8009 bound_to 7997
  154.5698  140.2345  155.8218 H   0  0  0  0  0  0  0  0  0  0  0  0  # atno 8010 bound_to 7997
  140.0212  144.5539  150.7580 H   0  0  0  0  0  0  0  0  0  0  0  0  # atno 10167 bound_to 10162
  157.4816  130.8318  149.8099 H   0  0  0  0  0  0  0  0  0  0  0  0  # atno 10718 bound_to 10713
  154.0955  135.2849  155.3262 H   0  0  0  0  0  0  0  0  0  0  0  0  # atno 10763 bound_to 10752
  154.6591  135.5341  153.7999 H   0  0  0  0  0  0  0  0  0  0  0  0  # atno 10764 bound_to 10752
  153.0398  135.6529  154.1121 H   0  0  0  0  0  0  0  0  0  0  0  0  # atno 10765 bound_to 10752
  140.0457  134.5809  155.9326 H   0  0  0  0  0  0  0  0  0  0  0  0  # atno 11005 bound_to 11000
  145.1787  139.2364  143.5304 LP  0  0  0  0  0  0  0  0  0  0  0  0  # atno 17320 bound_to 7965
  146.3497  140.1556  142.8591 LP  0  0  0  0  0  0  0  0  0  0  0  0  # atno 17321 bound_to 7965
  140.7341  143.2725  151.3843 LP  0  0  0  0  0  0  0  0  0  0  0  0  # atno 17342 bound_to 10162
  139.6138  144.1044  152.2325 LP  0  0  0  0  0  0  0  0  0  0  0  0  # atno 17343 bound_to 10162
  156.0124  130.3827  150.2220 LP  0  0  0  0  0  0  0  0  0  0  0  0  # atno 17370 bound_to 10713
  157.0406  131.0034  151.3285 LP  0  0  0  0  0  0  0  0  0  0  0  0  # atno 17371 bound_to 10713
  141.1905  133.6569  156.5417 LP  0  0  0  0  0  0  0  0  0  0  0  0  # atno 17394 bound_to 11000
  140.3998  134.7367  157.4772 LP  0  0  0  0  0  0  0  0  0  0  0  0  # atno 17395 bound_to 11000

$$$$
