AV-unprocessed.smi:1148|AV-procd|sdf|4889|dock1
  -GOLD-   22720 3463D 1   1.00000     0.00000
 Structure written by MMmdl.
 45 47  0  0  0  0  0  0  0  0  1 V2000
  144.9024  133.8262  150.5144 C   0  0  0  0  0  0  0  0  0  0  0  0
  145.9617  133.8307  151.4652 O   0  0  0  0  0  0  0  0  0  0  0  0
  146.3471  132.6294  152.0295 C   0  0  0  0  0  0  0  0  0  0  0  0
  145.6848  131.5030  151.6635 N   0  0  0  0  0  0  0  0  0  0  0  0
  146.0611  130.3293  152.2112 C   0  0  0  0  0  0  0  0  0  0  0  0
  147.1127  130.2138  153.1386 C   0  0  0  0  0  0  0  0  0  0  0  0
  147.8008  131.3804  153.5203 C   0  0  0  0  0  0  0  0  0  0  0  0
  147.4070  132.6225  152.9663 C   0  0  0  0  0  0  0  0  0  0  0  0
  148.0456  133.8558  153.2710 N   0  0  0  0  0  0  0  0  0  0  0  0
  148.6953  134.2034  154.3947 C   0  0  0  0  0  0  0  0  0  0  0  0
  148.8612  133.4774  155.3749 O   0  0  0  0  0  0  0  0  0  0  0  0
  149.1328  135.4689  154.3276 N   0  0  0  0  0  0  0  0  0  0  0  0
  149.8436  136.1739  155.3900 C   0  0  0  0  0  0  0  0  0  0  0  0
  149.0455  137.4304  155.7998 C   0  0  0  0  0  0  0  0  0  0  0  0
  149.8473  138.2952  156.7873 C   0  0  0  0  0  0  0  0  0  0  0  0
  151.1311  138.6492  156.1667 N   0  0  0  0  0  0  0  0  0  0  0  0
  151.4916  139.8819  155.7304 C   0  0  0  0  0  0  0  0  0  0  0  0
  152.6049  140.1102  155.2547 O   0  0  0  0  0  0  0  0  0  0  0  0
  150.4602  140.9657  155.8205 C   0  0  0  0  0  0  0  0  0  0  0  0
  150.8392  142.2692  156.5006 C   0  0  0  0  0  0  0  0  0  0  0  0
  149.9294  141.2936  157.2001 C   0  0  0  0  0  0  0  0  0  0  0  0
  151.9689  137.4605  155.9646 C   0  0  0  0  0  0  0  0  0  0  0  0
  151.2791  136.5369  154.9433 C   0  0  0  0  0  0  0  0  0  0  0  0
  144.7216  134.8449  150.1718 H   0  0  0  0  0  0  0  0  0  0  0  0
  143.9746  133.4561  150.9533 H   0  0  0  0  0  0  0  0  0  0  0  0
  145.1516  133.2230  149.6403 H   0  0  0  0  0  0  0  0  0  0  0  0
  145.5116  129.4547  151.8956 H   0  0  0  0  0  0  0  0  0  0  0  0
  147.3881  129.2517  153.5445 H   0  0  0  0  0  0  0  0  0  0  0  0
  148.6217  131.2985  154.2158 H   0  0  0  0  0  0  0  0  0  0  0  0
  147.9174  134.5877  152.5875 H   0  0  0  0  0  0  0  0  0  0  0  0
  148.9496  135.9895  153.4825 H   0  0  0  0  0  0  0  0  0  0  0  0
  149.9101  135.5267  156.2668 H   0  0  0  0  0  0  0  0  0  0  0  0
  148.8058  138.0249  154.9166 H   0  0  0  0  0  0  0  0  0  0  0  0
  148.0937  137.1407  156.2464 H   0  0  0  0  0  0  0  0  0  0  0  0
  149.2587  139.1549  157.1052 H   0  0  0  0  0  0  0  0  0  0  0  0
  150.0364  137.7305  157.7013 H   0  0  0  0  0  0  0  0  0  0  0  0
  149.7754  141.0558  154.9790 H   0  0  0  0  0  0  0  0  0  0  0  0
  151.8422  142.3870  156.9068 H   0  0  0  0  0  0  0  0  0  0  0  0
  150.3982  143.1802  156.1009 H   0  0  0  0  0  0  0  0  0  0  0  0
  148.8726  141.5412  157.2758 H   0  0  0  0  0  0  0  0  0  0  0  0
  150.3378  140.7493  158.0501 H   0  0  0  0  0  0  0  0  0  0  0  0
  152.9751  137.7027  155.6203 H   0  0  0  0  0  0  0  0  0  0  0  0
  152.0989  136.9399  156.9146 H   0  0  0  0  0  0  0  0  0  0  0  0
  151.8715  135.6319  154.8036 H   0  0  0  0  0  0  0  0  0  0  0  0
  151.2488  137.0381  153.9745 H   0  0  0  0  0  0  0  0  0  0  0  0
  1  2  1  0  0  0  0
  1 24  1  0  0  0  0
  1 25  1  0  0  0  0
  1 26  1  0  0  0  0
  2  3  1  0  0  0  0
  3  8  1  0  0  0  0
  3  4  2  0  0  0  0
  4  5  1  0  0  0  0
  5  6  2  0  0  0  0
  5 27  1  0  0  0  0
  6  7  1  0  0  0  0
  6 28  1  0  0  0  0
  7  8  2  0  0  0  0
  7 29  1  0  0  0  0
  8  9  1  0  0  0  0
  9 10  1  0  0  0  0
  9 30  1  0  0  0  0
 10 11  2  0  0  0  0
 10 12  1  0  0  0  0
 12 13  1  0  0  0  0
 12 31  1  0  0  0  0
 13 23  1  0  0  0  0
 13 14  1  0  0  0  0
 13 32  1  0  0  0  0
 14 15  1  0  0  0  0
 14 33  1  0  0  0  0
 14 34  1  0  0  0  0
 15 16  1  0  0  0  0
 15 35  1  0  0  0  0
 15 36  1  0  0  0  0
 16 17  1  0  0  0  0
 16 22  1  0  0  0  0
 17 18  2  0  0  0  0
 17 19  1  0  0  0  0
 19 21  1  0  0  0  0
 19 20  1  0  0  0  0
 19 37  1  0  0  0  0
 20 21  1  0  0  0  0
 20 38  1  0  0  0  0
 20 39  1  0  0  0  0
 21 40  1  0  0  0  0
 21 41  1  0  0  0  0
 22 23  1  0  0  0  0
 22 42  1  0  0  0  0
 22 43  1  0  0  0  0
 23 44  1  0  0  0  0
 23 45  1  0  0  0  0
M  END
> <s_m_source_file>
AV-unprocessed.smi

> <i_m_source_file_index>
1148

> <i_lp_mmshare_version>
43012

> <i_f3d_flags>
0

> <s_epik_input>
W0NIM11PYzFuW2NIXVtjSF1bY0hdYzFbTkhdQyg9TylbTkhdW0NIXTJbQ0gyXVtDSDJdTihbQ0gyXVtDSDJdMilDKD1PKVtDSF0zW0NIMl1bQ0gyXTM=

> <s_epik_cmdline>
J2VwaWtfcHl0aG9uJywgJy1waCcsICc3LjAnLCAnLXRuJywgJzgnLCAnLW1hJywgJzIwMCcsICctbWV0YWxfYmluZGluZycsICctaW1hZScsICc8aW5maWxlLm1hZT4nLCAnLW9tYWUnLCAnPG91dGZpbGUubWFlPic=

> <r_lp_tautomer_probability>
1

> <r_epik_Ionization_Penalty>
9.48164e-05

> <r_epik_Ionization_Penalty_Charging>
0

> <r_epik_Ionization_Penalty_Neutral>
9.48164e-05

> <r_epik_State_Penalty>
-0

> <r_epik_Charging_Adjusted_Penalty>
0

> <i_epik_Tot_Q>
0

> <i_epik_Tot_abs_Q>
0

> <r_epik_Metal_State_Penalty>
-0

> <b_epik_Metal_Only>
0

> <s_lp_Force_Field>
OPLS_2005

> <r_lp_Energy>
31.242

> <b_lp_Chiralities_Consistent>
1

> <s_lp_Variant>
AV-unprocessed.smi:1148-1

> <Gold.Version>
5.8.1

> <Gold.Id.Protein>
6NUR|6NUR_protein|mol2

> <Gold.PLP.Fitness>
39.1074

> <Gold.PLP.PLP>
-30.3440

> <Gold.PLP.part.hbond>
-4.0000

> <Gold.PLP.part.metal>
0.0000

> <Gold.PLP.part.buried>
0.2174

> <Gold.PLP.part.nonpolar>
-26.7806

> <Gold.PLP.part.repulsive>
0.3374

> <Gold.PLP.ligand.clash>
0.0000

> <Gold.PLP.ligand.torsion>
0.2375

> <Gold.PLP.Chemscore.Hbond>
3.0408

> <Gold.PLP.Chemscore.CHOScore>
0.0000

> <Gold.PLP.Chemscore.Metal>
0.0000

> <Gold.Chemscore.Hbonds>
donor molecule, donor type, donor heavy atom, donor atom, acceptor molecule, acceptor atom, score
      L1  H     9    30       P1  7948  0.76
      L1  H    12    31       P1  7948  1.00
      P1  H  7989  7998       L1    18  0.20
      P1  H  7997  8008       L1    18  1.00

> <Gold.PLP.Chemscore.Internal.Correction>
0.1158

> <Gold.Rescore>
     Score         DG    S(hbond)    S(metal)    S(lipo)     H(rot)  DE(clash)    DE(int)     intcor
     16.22     -18.17       2.55        0.00      67.64       1.46       0.61       1.35       ----

> <Gold.Chemscore.Fitness>
16.2173

> <Gold.Chemscore.DG>
-18.1743

> <Gold.Chemscore.ZeroCoef>
-5.4800

> <Gold.Chemscore.Hbond>
2.5474

> <Gold.Chemscore.Metal>
0.0000

> <Gold.Chemscore.Lipo>
67.6444

> <Gold.Chemscore.Internal_Hbond>
0.0000

> <Gold.Chemscore.DEClash>
0.6091

> <Gold.Chemscore.DEInternal>
1.3479

> <Gold.Chemscore.Rot>
1.4564

> <Gold.Chemscore.Internal.Correction>
   9.000000E+99

> <Gold.Chemscore.Hbonds>
donor molecule, donor type, donor heavy atom, donor atom, acceptor molecule, acceptor atom, score
      L1  H     9    30       P1  7948  0.46
      L1  H    12    31       P1  7948  0.93
      P1  H  7989  7998       L1    18  0.01
      P1  H  7997  8008       L1    18  0.95

> <Gold.Chemscore.Hbond.Weighted>
-8.5084

> <Gold.Chemscore.Metal.Weighted>
-0.0000

> <Gold.Chemscore.Lipo.Weighted>
-7.9144

> <Gold.Chemscore.Internal_Hbond.Weighted>
0.0000

> <Gold.Chemscore.DEClash.Weighted>
0.6091

> <Gold.Chemscore.DEInternal.Weighted>
1.3479

> <Gold.Chemscore.Rot.Weighted>
3.7285

> <Gold.Chemscore.Internal.Correction.Weighted>
   9.000000E+99

> <Gold.Protein.RotatedTorsions>
[ 6907 6896 6895 6894 ] final   94.98 input  -60.11 | X-H torsion
[ 7974 7965 7964 7962 ] final   38.63 input  175.53 | X-H torsion
[ 8008 7997 7996 7995 ] final  -36.59 input   59.86 | X-H torsion
[ 10167 10162 10161 10158 ] final   76.16 input  -65.29 | X-H torsion
[ 10718 10713 10712 10709 ] final   23.77 input   66.30 | X-H torsion
[ 10763 10752 10751 10750 ] final  153.94 input  -60.55 | X-H torsion
[ 11005 11000 10999 10996 ] final  178.91 input  -57.11 | X-H torsion

> <Gold.Protein.ActiveResidues>
 VAL166  LYS551  ARG553  GLY616  TRP617  ASP618  TYR619  PRO620  LYS621  CYS622 
 ASP623  PHE694  ASN695  SER759  ASP760  ASP761  ALA762  ILE779  LEU786  VAL792 
 PHE793  MET794  SER795  GLU796  ALA797  LYS798  CYS799  TRP800  GLU811  SER814 

> <Gold.Protein.RotatedAtoms>
  152.5446  134.1111  159.8358 H   0  0  0  0  0  0  0  0  0  0  0  0  # atno 6907 bound_to 6896
  151.1177  133.5119  159.2610 H   0  0  0  0  0  0  0  0  0  0  0  0  # atno 6908 bound_to 6896
  151.1813  135.0372  159.8848 H   0  0  0  0  0  0  0  0  0  0  0  0  # atno 6909 bound_to 6896
  146.1047  139.5749  142.9391 H   0  0  0  0  0  0  0  0  0  0  0  0  # atno 7974 bound_to 7965
  154.4070  140.1626  156.2399 H   0  0  0  0  0  0  0  0  0  0  0  0  # atno 8008 bound_to 7997
  155.9210  140.3421  155.6150 H   0  0  0  0  0  0  0  0  0  0  0  0  # atno 8009 bound_to 7997
  155.7222  140.0770  157.2316 H   0  0  0  0  0  0  0  0  0  0  0  0  # atno 8010 bound_to 7997
  139.9952  144.5727  150.7784 H   0  0  0  0  0  0  0  0  0  0  0  0  # atno 10167 bound_to 10162
  157.1706  130.6758  149.6076 H   0  0  0  0  0  0  0  0  0  0  0  0  # atno 10718 bound_to 10713
  154.1444  135.2819  155.3152 H   0  0  0  0  0  0  0  0  0  0  0  0  # atno 10763 bound_to 10752
  154.6263  135.5450  153.7634 H   0  0  0  0  0  0  0  0  0  0  0  0  # atno 10764 bound_to 10752
  153.0240  135.6451  154.1590 H   0  0  0  0  0  0  0  0  0  0  0  0  # atno 10765 bound_to 10752
  140.4004  134.6783  157.4558 H   0  0  0  0  0  0  0  0  0  0  0  0  # atno 11005 bound_to 11000
  145.5785  141.0385  143.2135 LP  0  0  0  0  0  0  0  0  0  0  0  0  # atno 17320 bound_to 7965
  144.7461  139.7317  143.7292 LP  0  0  0  0  0  0  0  0  0  0  0  0  # atno 17321 bound_to 7965
  140.7440  143.2854  151.3479 LP  0  0  0  0  0  0  0  0  0  0  0  0  # atno 17342 bound_to 10162
  139.6311  144.0719  152.2477 LP  0  0  0  0  0  0  0  0  0  0  0  0  # atno 17343 bound_to 10162
  155.9739  130.4680  150.6346 LP  0  0  0  0  0  0  0  0  0  0  0  0  # atno 17370 bound_to 10713
  157.4047  131.0815  151.1276 LP  0  0  0  0  0  0  0  0  0  0  0  0  # atno 17371 bound_to 10713
  140.0341  134.6363  155.9067 LP  0  0  0  0  0  0  0  0  0  0  0  0  # atno 17394 bound_to 11000
  141.1859  133.6556  156.5216 LP  0  0  0  0  0  0  0  0  0  0  0  0  # atno 17395 bound_to 11000

$$$$
