AV-unprocessed.smi:2264|AV-procd|sdf|9142|dock5
  -GOLD-   2272012343D 1   1.00000     0.00000
 Structure written by MMmdl.
 44 45  0  0  0  0  0  0  0  0  1 V2000
  153.6335  141.8475  161.4853 C   0  0  0  0  0  0  0  0  0  0  0  0
  152.9257  141.8949  160.1469 C   0  0  0  0  0  0  0  0  0  0  0  0
  152.5233  140.7059  159.5082 C   0  0  0  0  0  0  0  0  0  0  0  0
  151.8659  140.7571  158.2644 C   0  0  0  0  0  0  0  0  0  0  0  0
  151.6008  142.0022  157.6405 C   0  0  0  0  0  0  0  0  0  0  0  0
  150.9633  142.1292  156.4248 O   0  0  0  0  0  0  0  0  0  0  0  0
  150.4333  140.9639  155.8076 C   0  0  0  0  0  0  0  0  0  0  0  0
  149.3436  141.4019  154.8177 C   0  0  1  0  0  0  0  0  0  0  0  0
  149.6742  140.8536  153.5580 O   0  0  0  0  0  0  0  0  0  0  0  0
  147.9402  140.9021  155.2341 C   0  0  0  0  0  0  0  0  0  0  0  0
  146.9154  141.9450  155.0690 N   0  0  0  0  0  0  0  0  0  0  0  0
  146.6950  142.3994  153.7576 C   0  0  0  0  0  0  0  0  0  0  0  0
  145.8169  143.3107  153.4935 N   0  0  0  0  0  0  0  0  0  0  0  0
  145.0576  143.8669  154.5271 C   0  0  0  0  0  0  0  0  0  0  0  0
  144.0616  144.9338  154.1080 C   0  0  0  0  0  0  0  0  0  0  0  0
  145.2168  143.4639  155.8174 C   0  0  0  0  0  0  0  0  0  0  0  0
  144.4200  144.0354  156.9834 C   0  0  0  0  0  0  0  0  0  0  0  0
  146.2069  142.4211  156.1325 C   0  0  0  0  0  0  0  0  0  0  0  0
  146.3937  142.0009  157.2760 O   0  0  0  0  0  0  0  0  0  0  0  0
  152.0100  143.1916  158.2862 C   0  0  0  0  0  0  0  0  0  0  0  0
  151.7372  144.5378  157.6410 C   0  0  0  0  0  0  0  0  0  0  0  0
  152.6681  143.1354  159.5325 C   0  0  0  0  0  0  0  0  0  0  0  0
  153.6609  140.8337  161.8859 H   0  0  0  0  0  0  0  0  0  0  0  0
  153.1218  142.4842  162.2075 H   0  0  0  0  0  0  0  0  0  0  0  0
  154.6597  142.2012  161.3821 H   0  0  0  0  0  0  0  0  0  0  0  0
  152.7177  139.7482  159.9687 H   0  0  0  0  0  0  0  0  0  0  0  0
  151.5767  139.8236  157.8066 H   0  0  0  0  0  0  0  0  0  0  0  0
  151.2301  140.4409  155.2760 H   0  0  0  0  0  0  0  0  0  0  0  0
  150.0148  140.2840  156.5521 H   0  0  0  0  0  0  0  0  0  0  0  0
  149.3643  142.4896  154.7347 H   0  0  0  0  0  0  0  0  0  0  0  0
  149.4589  139.9335  153.5639 H   0  0  0  0  0  0  0  0  0  0  0  0
  147.6785  139.9858  154.7011 H   0  0  0  0  0  0  0  0  0  0  0  0
  147.9535  140.5930  156.2813 H   0  0  0  0  0  0  0  0  0  0  0  0
  147.3087  141.9274  152.9881 H   0  0  0  0  0  0  0  0  0  0  0  0
  144.2994  145.8857  154.5835 H   0  0  0  0  0  0  0  0  0  0  0  0
  143.0490  144.6452  154.3910 H   0  0  0  0  0  0  0  0  0  0  0  0
  144.0748  145.0869  153.0281 H   0  0  0  0  0  0  0  0  0  0  0  0
  143.8416  143.2469  157.4657 H   0  0  0  0  0  0  0  0  0  0  0  0
  143.7241  144.8181  156.6858 H   0  0  0  0  0  0  0  0  0  0  0  0
  145.0947  144.4630  157.7257 H   0  0  0  0  0  0  0  0  0  0  0  0
  152.0765  145.3598  158.2719 H   0  0  0  0  0  0  0  0  0  0  0  0
  150.6685  144.6649  157.4661 H   0  0  0  0  0  0  0  0  0  0  0  0
  152.2528  144.6095  156.6831 H   0  0  0  0  0  0  0  0  0  0  0  0
  152.9777  144.0473  160.0224 H   0  0  0  0  0  0  0  0  0  0  0  0
  1  2  1  0  0  0  0
  1 23  1  0  0  0  0
  1 24  1  0  0  0  0
  1 25  1  0  0  0  0
  2 22  1  0  0  0  0
  2  3  2  0  0  0  0
  3  4  1  0  0  0  0
  3 26  1  0  0  0  0
  4  5  2  0  0  0  0
  4 27  1  0  0  0  0
  5  6  1  0  0  0  0
  5 20  1  0  0  0  0
  6  7  1  0  0  0  0
  7  8  1  0  0  0  0
  7 28  1  0  0  0  0
  7 29  1  0  0  0  0
  8  9  1  0  0  0  0
  8 10  1  0  0  0  0
  8 30  1  0  0  0  0
  9 31  1  0  0  0  0
 10 11  1  0  0  0  0
 10 32  1  0  0  0  0
 10 33  1  0  0  0  0
 11 18  1  0  0  0  0
 11 12  1  0  0  0  0
 12 13  2  0  0  0  0
 12 34  1  0  0  0  0
 13 14  1  0  0  0  0
 14 15  1  0  0  0  0
 14 16  2  0  0  0  0
 15 35  1  0  0  0  0
 15 36  1  0  0  0  0
 15 37  1  0  0  0  0
 16 17  1  0  0  0  0
 16 18  1  0  0  0  0
 17 38  1  0  0  0  0
 17 39  1  0  0  0  0
 17 40  1  0  0  0  0
 18 19  2  0  0  0  0
 20 21  1  0  0  0  0
 20 22  2  0  0  0  0
 21 41  1  0  0  0  0
 21 42  1  0  0  0  0
 21 43  1  0  0  0  0
 22 44  1  0  0  0  0
M  END
> <s_m_source_file>
AV-unprocessed.smi

> <i_m_source_file_index>
2264

> <i_lp_mmshare_version>
43012

> <i_f3d_flags>
0

> <s_epik_input>
W0NIM11jMVtjSF1bY0hdYyhjKFtDSDNdKVtjSF0xKU9bQ0gyXVtDQEhdKFtPSF0pW0NIMl1uMltjSF1uYyhbQ0gzXSljKFtDSDNdKWMyPU8=

> <s_epik_cmdline>
J2VwaWtfcHl0aG9uJywgJy1waCcsICc3LjAnLCAnLXRuJywgJzgnLCAnLW1hJywgJzIwMCcsICctbWV0YWxfYmluZGluZycsICctaW1hZScsICc8aW5maWxlLm1hZT4nLCAnLW9tYWUnLCAnPG91dGZpbGUubWFlPic=

> <r_lp_tautomer_probability>
1

> <r_epik_Ionization_Penalty>
3.7476e-05

> <r_epik_Ionization_Penalty_Charging>
8.44705e-08

> <r_epik_Ionization_Penalty_Neutral>
3.73915e-05

> <r_epik_State_Penalty>
-0

> <r_epik_Charging_Adjusted_Penalty>
8.44705e-08

> <i_epik_Tot_Q>
0

> <i_epik_Tot_abs_Q>
0

> <r_epik_Metal_State_Penalty>
-0

> <b_epik_Metal_Only>
0

> <s_lp_Force_Field>
OPLS_2005

> <r_lp_Energy>
22.0846

> <b_lp_Chiralities_Consistent>
1

> <s_lp_Variant>
AV-unprocessed.smi:2264-2

> <Gold.Version>
5.8.1

> <Gold.Id.Protein>
6NUR|6NUR_protein|mol2

> <Gold.PLP.Fitness>
51.0982

> <Gold.PLP.PLP>
-50.0199

> <Gold.PLP.part.hbond>
-3.0000

> <Gold.PLP.part.metal>
0.0000

> <Gold.PLP.part.buried>
-7.4368

> <Gold.PLP.part.nonpolar>
-39.0477

> <Gold.PLP.part.repulsive>
0.3932

> <Gold.PLP.ligand.clash>
0.0000

> <Gold.PLP.ligand.torsion>
1.5053

> <Gold.PLP.Chemscore.Hbond>
1.3520

> <Gold.PLP.Chemscore.CHOScore>
0.0000

> <Gold.PLP.Chemscore.Metal>
0.0000

> <Gold.Chemscore.Hbonds>
donor molecule, donor type, donor heavy atom, donor atom, acceptor molecule, acceptor atom, score
      P1  H  7989  7998       L1     9  0.35
      P1  H  8011  8017       L1     9  1.00

> <Gold.PLP.Chemscore.Internal.Correction>
0.0330

> <Gold.Rescore>
     Score         DG    S(hbond)    S(metal)    S(lipo)     H(rot)  DE(clash)    DE(int)     intcor
     14.97     -16.54       0.94        0.00     118.46       2.32       0.04       1.54       ----

> <Gold.Chemscore.Fitness>
14.9684

> <Gold.Chemscore.DG>
-16.5417

> <Gold.Chemscore.ZeroCoef>
-5.4800

> <Gold.Chemscore.Hbond>
0.9431

> <Gold.Chemscore.Metal>
0.0000

> <Gold.Chemscore.Lipo>
118.4621

> <Gold.Chemscore.Internal_Hbond>
0.0000

> <Gold.Chemscore.DEClash>
0.0356

> <Gold.Chemscore.DEInternal>
1.5377

> <Gold.Chemscore.Rot>
2.3236

> <Gold.Chemscore.Internal.Correction>
   9.000000E+99

> <Gold.Chemscore.Hbonds>
donor molecule, donor type, donor heavy atom, donor atom, acceptor molecule, acceptor atom, score
      P1  H  7989  7998       L1     9  0.09
      P1  H  8011  8017       L1     9  0.47

> <Gold.Chemscore.Hbond.Weighted>
-3.1500

> <Gold.Chemscore.Metal.Weighted>
-0.0000

> <Gold.Chemscore.Lipo.Weighted>
-13.8601

> <Gold.Chemscore.Internal_Hbond.Weighted>
0.0000

> <Gold.Chemscore.DEClash.Weighted>
0.0356

> <Gold.Chemscore.DEInternal.Weighted>
1.5377

> <Gold.Chemscore.Rot.Weighted>
5.9484

> <Gold.Chemscore.Internal.Correction.Weighted>
   9.000000E+99

> <Gold.Protein.RotatedTorsions>
[ 6907 6896 6895 6894 ] final   30.54 input  -60.11 | X-H torsion
[ 7974 7965 7964 7962 ] final   56.51 input  175.53 | X-H torsion
[ 8008 7997 7996 7995 ] final  140.32 input   59.86 | X-H torsion
[ 10167 10162 10161 10158 ] final  104.30 input  -65.29 | X-H torsion
[ 10718 10713 10712 10709 ] final -151.58 input   66.30 | X-H torsion
[ 10763 10752 10751 10750 ] final   10.22 input  -60.55 | X-H torsion
[ 11005 11000 10999 10996 ] final   85.27 input  -57.11 | X-H torsion

> <Gold.Protein.ActiveResidues>
 VAL166  LYS551  ARG553  GLY616  TRP617  ASP618  TYR619  PRO620  LYS621  CYS622 
 ASP623  PHE694  ASN695  SER759  ASP760  ASP761  ALA762  ILE779  LEU786  VAL792 
 PHE793  MET794  SER795  GLU796  ALA797  LYS798  CYS799  TRP800  GLU811  SER814 

> <Gold.Protein.RotatedAtoms>
  152.0474  134.9674  160.0574 H   0  0  0  0  0  0  0  0  0  0  0  0  # atno 6907 bound_to 6896
  152.1088  133.4285  159.4630 H   0  0  0  0  0  0  0  0  0  0  0  0  # atno 6908 bound_to 6896
  150.6842  134.2591  159.4585 H   0  0  0  0  0  0  0  0  0  0  0  0  # atno 6909 bound_to 6896
  145.9390  139.3872  143.0375 H   0  0  0  0  0  0  0  0  0  0  0  0  # atno 7974 bound_to 7965
  156.2980  140.2344  156.4382 H   0  0  0  0  0  0  0  0  0  0  0  0  # atno 8008 bound_to 7997
  154.8209  140.0438  157.1430 H   0  0  0  0  0  0  0  0  0  0  0  0  # atno 8009 bound_to 7997
  154.9316  140.3017  155.5169 H   0  0  0  0  0  0  0  0  0  0  0  0  # atno 8010 bound_to 7997
  139.7189  144.7062  151.0904 H   0  0  0  0  0  0  0  0  0  0  0  0  # atno 10167 bound_to 10162
  156.4612  130.8214  151.2445 H   0  0  0  0  0  0  0  0  0  0  0  0  # atno 10718 bound_to 10713
  153.2055  135.6862  153.8178 H   0  0  0  0  0  0  0  0  0  0  0  0  # atno 10763 bound_to 10752
  153.7429  135.3235  155.3308 H   0  0  0  0  0  0  0  0  0  0  0  0  # atno 10764 bound_to 10752
  154.8194  135.4662  154.0840 H   0  0  0  0  0  0  0  0  0  0  0  0  # atno 10765 bound_to 10752
  139.8976  134.8275  156.2560 H   0  0  0  0  0  0  0  0  0  0  0  0  # atno 11005 bound_to 11000
  145.8325  140.9623  143.0841 LP  0  0  0  0  0  0  0  0  0  0  0  0  # atno 17320 bound_to 7965
  144.6776  140.0181  143.7484 LP  0  0  0  0  0  0  0  0  0  0  0  0  # atno 17321 bound_to 7965
  140.7749  143.5192  150.9557 LP  0  0  0  0  0  0  0  0  0  0  0  0  # atno 17342 bound_to 10162
  139.8879  143.6990  152.3149 LP  0  0  0  0  0  0  0  0  0  0  0  0  # atno 17343 bound_to 10162
  157.7497  131.0106  150.3314 LP  0  0  0  0  0  0  0  0  0  0  0  0  # atno 17370 bound_to 10713
  156.3715  130.3864  149.7172 LP  0  0  0  0  0  0  0  0  0  0  0  0  # atno 17371 bound_to 10713
  141.0193  133.7050  156.1242 LP  0  0  0  0  0  0  0  0  0  0  0  0  # atno 17394 bound_to 11000
  140.7256  134.4311  157.5571 LP  0  0  0  0  0  0  0  0  0  0  0  0  # atno 17395 bound_to 11000

$$$$
