AV-unprocessed.smi:2247|AV-procd|sdf|9091|dock7
  -GOLD-   2272012293D 1   1.00000     0.00000
 Structure written by MMmdl.
 34 35  0  0  0  0  0  0  0  0  1 V2000
  152.5033  143.5534  161.6350 C   0  0  0  0  0  0  0  0  0  0  0  0
  152.4340  142.4074  160.6123 C   0  0  0  0  0  0  0  0  0  0  0  0
  153.6837  141.5142  160.6252 C   0  0  0  0  0  0  0  0  0  0  0  0
  152.1537  142.8924  159.2541 N   0  0  0  0  0  0  0  0  0  0  0  0
  152.2911  144.2956  158.8956 C   0  0  0  0  0  0  0  0  0  0  0  0
  151.6714  144.4002  157.4991 C   0  0  0  0  0  0  0  0  0  0  0  0
  151.6657  142.9737  156.9276 C   0  0  2  0  0  0  0  0  0  0  0  0
  150.4025  142.7144  156.2382 N   0  0  0  0  0  0  0  0  0  0  0  0
  150.1148  141.6183  155.5196 C   0  0  0  0  0  0  0  0  0  0  0  0
  150.9329  140.7042  155.3751 O   0  0  0  0  0  0  0  0  0  0  0  0
  148.8403  141.7181  154.9816 N   0  0  0  0  0  0  0  0  0  0  0  0
  148.3429  140.7132  154.3275 C   0  0  0  0  0  0  0  0  0  0  0  0
  148.8446  139.4576  153.9943 N   0  0  0  0  0  0  0  0  0  0  0  0
  147.8898  138.7941  153.2755 C   0  0  0  0  0  0  0  0  0  0  0  0
  146.8329  139.5925  153.1597 C   0  0  0  0  0  0  0  0  0  0  0  0
  147.0803  140.7733  153.7935 O   0  0  0  0  0  0  0  0  0  0  0  0
  151.7917  142.1407  158.2044 C   0  0  0  0  0  0  0  0  0  0  0  0
  151.6104  140.9230  158.2213 O   0  0  0  0  0  0  0  0  0  0  0  0
  152.5736  143.1612  162.6499 H   0  0  0  0  0  0  0  0  0  0  0  0
  151.6122  144.1800  161.5865 H   0  0  0  0  0  0  0  0  0  0  0  0
  153.3734  144.1898  161.4737 H   0  0  0  0  0  0  0  0  0  0  0  0
  151.5999  141.7780  160.9273 H   0  0  0  0  0  0  0  0  0  0  0  0
  153.8481  141.0872  161.6148 H   0  0  0  0  0  0  0  0  0  0  0  0
  154.5783  142.0759  160.3550 H   0  0  0  0  0  0  0  0  0  0  0  0
  153.5830  140.6868  159.9219 H   0  0  0  0  0  0  0  0  0  0  0  0
  151.7900  144.9618  159.5975 H   0  0  0  0  0  0  0  0  0  0  0  0
  153.3492  144.5587  158.8700 H   0  0  0  0  0  0  0  0  0  0  0  0
  150.6540  144.7851  157.5905 H   0  0  0  0  0  0  0  0  0  0  0  0
  152.2208  145.0934  156.8611 H   0  0  0  0  0  0  0  0  0  0  0  0
  152.5345  142.8037  156.2896 H   0  0  0  0  0  0  0  0  0  0  0  0
  149.6904  143.4261  156.3132 H   0  0  0  0  0  0  0  0  0  0  0  0
  149.7466  139.0641  154.2220 H   0  0  0  0  0  0  0  0  0  0  0  0
  148.0747  137.7935  152.9131 H   0  0  0  0  0  0  0  0  0  0  0  0
  145.8731  139.4730  152.6792 H   0  0  0  0  0  0  0  0  0  0  0  0
  1  2  1  0  0  0  0
  1 19  1  0  0  0  0
  1 20  1  0  0  0  0
  1 21  1  0  0  0  0
  2  3  1  0  0  0  0
  2  4  1  0  0  0  0
  2 22  1  0  0  0  0
  3 23  1  0  0  0  0
  3 24  1  0  0  0  0
  3 25  1  0  0  0  0
  4 17  1  0  0  0  0
  4  5  1  0  0  0  0
  5  6  1  0  0  0  0
  5 26  1  0  0  0  0
  5 27  1  0  0  0  0
  6  7  1  0  0  0  0
  6 28  1  0  0  0  0
  6 29  1  0  0  0  0
  7  8  1  0  0  0  0
  7 17  1  0  0  0  0
  7 30  1  0  0  0  0
  8 31  1  0  0  0  0
  8  9  1  0  0  0  0
  9 11  1  0  0  0  0
  9 10  2  0  0  0  0
 11 12  2  0  0  0  0
 12 16  1  0  0  0  0
 12 13  1  0  0  0  0
 13 32  1  0  0  0  0
 13 14  1  0  0  0  0
 14 33  1  0  0  0  0
 14 15  2  0  0  0  0
 15 34  1  0  0  0  0
 15 16  1  0  0  0  0
 17 18  2  0  0  0  0
M  END
> <s_m_source_file>
AV-unprocessed.smi

> <i_m_source_file_index>
2247

> <i_lp_mmshare_version>
43012

> <i_f3d_flags>
0

> <s_epik_input>
W0NIM11bQ0hdKFtDSDNdKU4xW0NIMl1bQ0gyXVtDQEhdKEMxPU8pW05IXUMoPU8pW05IXWMybltjSF1bY0hdbzI=

> <s_epik_cmdline>
J2VwaWtfcHl0aG9uJywgJy1waCcsICc3LjAnLCAnLXRuJywgJzgnLCAnLW1hJywgJzIwMCcsICctbWV0YWxfYmluZGluZycsICctaW1hZScsICc8aW5maWxlLm1hZT4nLCAnLW9tYWUnLCAnPG91dGZpbGUubWFlPic=

> <r_lp_tautomer_probability>
0.107061

> <r_epik_Ionization_Penalty>
0.180736

> <r_epik_Ionization_Penalty_Charging>
0.180388

> <r_epik_Ionization_Penalty_Neutral>
0.000348501

> <r_epik_State_Penalty>
2.44396

> <r_epik_Charging_Adjusted_Penalty>
2.62435

> <i_epik_Tot_Q>
0

> <i_epik_Tot_abs_Q>
0

> <r_epik_Metal_State_Penalty>
4.38331

> <b_epik_Metal_Only>
0

> <s_lp_Force_Field>
OPLS_2005

> <r_lp_Energy>
46.2393

> <b_lp_Chiralities_Consistent>
1

> <s_lp_Variant>
AV-unprocessed.smi:2247-6

> <Gold.Version>
5.8.1

> <Gold.Id.Protein>
6NUR|6NUR_protein|mol2

> <Gold.PLP.Fitness>
48.4547

> <Gold.PLP.PLP>
-37.4784

> <Gold.PLP.part.hbond>
-2.9931

> <Gold.PLP.part.metal>
0.0000

> <Gold.PLP.part.buried>
-4.0406

> <Gold.PLP.part.nonpolar>
-31.2805

> <Gold.PLP.part.repulsive>
0.8506

> <Gold.PLP.ligand.clash>
0.0000

> <Gold.PLP.ligand.torsion>
0.3442

> <Gold.PLP.Chemscore.Hbond>
1.8560

> <Gold.PLP.Chemscore.CHOScore>
2.0000

> <Gold.PLP.Chemscore.Metal>
0.0000

> <Gold.Chemscore.Hbonds>
donor molecule, donor type, donor heavy atom, donor atom, acceptor molecule, acceptor atom, score
      L1  H     8    31       P1  8028  0.99
      P1  H  7989  7998       L1    10  0.85
      L1  C    14    33       P1  7948  1.00
      L1  C    15    34       P1 10175  1.00

> <Gold.PLP.Chemscore.Internal.Correction>
0.0967

> <Gold.Rescore>
     Score         DG    S(hbond)    S(metal)    S(lipo)     H(rot)  DE(clash)    DE(int)     intcor
     14.45     -16.87       1.54        0.00      82.69       1.33       1.46       0.96       ----

> <Gold.Chemscore.Fitness>
14.4536

> <Gold.Chemscore.DG>
-16.8720

> <Gold.Chemscore.ZeroCoef>
-5.4800

> <Gold.Chemscore.Hbond>
1.5366

> <Gold.Chemscore.Metal>
0.0000

> <Gold.Chemscore.Lipo>
82.6869

> <Gold.Chemscore.Internal_Hbond>
0.0000

> <Gold.Chemscore.DEClash>
1.4572

> <Gold.Chemscore.DEInternal>
0.9612

> <Gold.Chemscore.Rot>
1.3338

> <Gold.Chemscore.Internal.Correction>
   9.000000E+99

> <Gold.Chemscore.Hbonds>
donor molecule, donor type, donor heavy atom, donor atom, acceptor molecule, acceptor atom, score
      L1  H     8    31       P1  8028  0.94
      P1  H  7989  7998       L1    10  0.45

> <Gold.Chemscore.Hbond.Weighted>
-5.1321

> <Gold.Chemscore.Metal.Weighted>
-0.0000

> <Gold.Chemscore.Lipo.Weighted>
-9.6744

> <Gold.Chemscore.Internal_Hbond.Weighted>
0.0000

> <Gold.Chemscore.DEClash.Weighted>
1.4572

> <Gold.Chemscore.DEInternal.Weighted>
0.9612

> <Gold.Chemscore.Rot.Weighted>
3.4145

> <Gold.Chemscore.Internal.Correction.Weighted>
   9.000000E+99

> <Gold.Protein.RotatedTorsions>
[ 6907 6896 6895 6894 ] final -141.71 input  -60.11 | X-H torsion
[ 7974 7965 7964 7962 ] final  -49.89 input  175.53 | X-H torsion
[ 8008 7997 7996 7995 ] final  174.69 input   59.86 | X-H torsion
[ 10167 10162 10161 10158 ] final  -75.85 input  -65.29 | X-H torsion
[ 10718 10713 10712 10709 ] final  -66.32 input   66.30 | X-H torsion
[ 10763 10752 10751 10750 ] final  -68.35 input  -60.55 | X-H torsion
[ 11005 11000 10999 10996 ] final -142.66 input  -57.11 | X-H torsion

> <Gold.Protein.ActiveResidues>
 VAL166  LYS551  ARG553  GLY616  TRP617  ASP618  TYR619  PRO620  LYS621  CYS622 
 ASP623  PHE694  ASN695  SER759  ASP760  ASP761  ALA762  ILE779  LEU786  VAL792 
 PHE793  MET794  SER795  GLU796  ALA797  LYS798  CYS799  TRP800  GLU811  SER814 

> <Gold.Protein.RotatedAtoms>
  151.0774  133.5417  159.2622 H   0  0  0  0  0  0  0  0  0  0  0  0  # atno 6907 bound_to 6896
  151.2334  135.0562  159.9006 H   0  0  0  0  0  0  0  0  0  0  0  0  # atno 6908 bound_to 6896
  152.5419  134.0559  159.8184 H   0  0  0  0  0  0  0  0  0  0  0  0  # atno 6909 bound_to 6896
  145.9357  140.7708  142.9577 H   0  0  0  0  0  0  0  0  0  0  0  0  # atno 7974 bound_to 7965
  156.0948  140.1428  156.9545 H   0  0  0  0  0  0  0  0  0  0  0  0  # atno 8008 bound_to 7997
  154.4664  140.0924  156.7079 H   0  0  0  0  0  0  0  0  0  0  0  0  # atno 8009 bound_to 7997
  155.4859  140.3446  155.4349 H   0  0  0  0  0  0  0  0  0  0  0  0  # atno 8010 bound_to 7997
  140.4907  143.2381  151.7912 H   0  0  0  0  0  0  0  0  0  0  0  0  # atno 10167 bound_to 10162
  156.0619  130.4260  150.1692 H   0  0  0  0  0  0  0  0  0  0  0  0  # atno 10718 bound_to 10713
  154.3877  135.6060  153.5826 H   0  0  0  0  0  0  0  0  0  0  0  0  # atno 10763 bound_to 10752
  152.9787  135.5876  154.4334 H   0  0  0  0  0  0  0  0  0  0  0  0  # atno 10764 bound_to 10752
  154.4114  135.2844  155.2012 H   0  0  0  0  0  0  0  0  0  0  0  0  # atno 10765 bound_to 10752
  140.8202  134.2640  157.4903 H   0  0  0  0  0  0  0  0  0  0  0  0  # atno 11005 bound_to 11000
  144.6771  140.2199  143.7367 LP  0  0  0  0  0  0  0  0  0  0  0  0  # atno 17320 bound_to 7965
  145.8367  139.2110  143.1851 LP  0  0  0  0  0  0  0  0  0  0  0  0  # atno 17321 bound_to 7965
  139.4851  144.4653  151.9492 LP  0  0  0  0  0  0  0  0  0  0  0  0  # atno 17342 bound_to 10162
  140.3740  144.2820  150.5916 LP  0  0  0  0  0  0  0  0  0  0  0  0  # atno 17343 bound_to 10162
  156.9759  130.9849  151.3448 LP  0  0  0  0  0  0  0  0  0  0  0  0  # atno 17370 bound_to 10713
  157.5633  130.8261  149.8295 LP  0  0  0  0  0  0  0  0  0  0  0  0  # atno 17371 bound_to 10713
  139.8709  134.9531  156.4136 LP  0  0  0  0  0  0  0  0  0  0  0  0  # atno 17394 bound_to 11000
  140.9106  133.7714  155.9787 LP  0  0  0  0  0  0  0  0  0  0  0  0  # atno 17395 bound_to 11000

$$$$
