AV-unprocessed.smi:1776|AV-procd|sdf|7175|dock8
  -GOLD-   22720 8413D 1   1.00000     0.00000
 Structure written by MMmdl.
 30 31  0  0  0  0  0  0  0  0  2 V2000
  156.5069  139.5076  161.0201 O   0  0  0  0  0  0  0  0  0  0  0  0
  155.8328  139.9266  161.9611 C   0  0  0  0  0  0  0  0  0  0  0  0
  154.6742  140.6066  161.8460 N   0  0  0  0  0  0  0  0  0  0  0  0
  153.9609  141.0066  160.7016 C   0  0  0  0  0  0  0  0  0  0  0  0
  153.3613  142.2180  160.5300 C   0  0  0  0  0  0  0  0  0  0  0  0
  152.6308  142.5631  159.3167 C   0  0  0  0  0  0  0  0  0  0  0  0
  152.0319  143.9338  159.0548 C   0  0  0  0  0  0  0  0  0  0  0  0
  152.1300  144.7148  160.1310 F   0  0  0  0  0  0  0  0  0  0  0  0
  152.6770  144.5265  158.0512 F   0  0  0  0  0  0  0  0  0  0  0  0
  150.7446  143.8369  158.7216 F   0  0  0  0  0  0  0  0  0  0  0  0
  152.6405  141.5393  158.3897 C   0  0  0  0  0  0  0  0  0  0  0  0
  153.1876  140.3083  158.4878 N   0  5  0  0  0  0  0  0  0  0  0  0
  153.8656  139.9951  159.6278 C   0  0  0  0  0  0  0  0  0  0  0  0
  154.3943  138.8929  159.7789 O   0  0  0  0  0  0  0  0  0  0  0  0
  156.3076  139.6960  163.4038 C   0  0  2  0  0  0  0  0  0  0  0  0
  155.4601  138.6507  164.1668 C   0  0  0  0  0  0  0  0  0  0  0  0
  155.9443  138.5333  165.4987 O   0  0  0  0  0  0  0  0  0  0  0  0
  155.8701  139.7737  166.1876 C   0  0  0  0  0  0  0  0  0  0  0  0
  156.7219  140.8115  165.4394 C   0  0  0  0  0  0  0  0  0  0  0  0
  156.2382  140.9332  164.1089 O   0  0  0  0  0  0  0  0  0  0  0  0
  154.2283  140.8612  162.7158 H   0  0  0  0  0  0  0  0  0  0  0  0
  153.3950  142.9727  161.2968 H   0  0  0  0  0  0  0  0  0  0  0  0
  152.1359  141.7415  157.4210 H   0  0  0  0  0  0  0  0  0  0  0  0
  157.3465  139.3642  163.3594 H   0  0  0  0  0  0  0  0  0  0  0  0
  154.4042  138.9276  164.1782 H   0  0  0  0  0  0  0  0  0  0  0  0
  155.5317  137.6731  163.6891 H   0  0  0  0  0  0  0  0  0  0  0  0
  154.8327  140.1032  166.2635 H   0  0  0  0  0  0  0  0  0  0  0  0
  156.2406  139.6400  167.2039 H   0  0  0  0  0  0  0  0  0  0  0  0
  156.6570  141.7818  165.9316 H   0  0  0  0  0  0  0  0  0  0  0  0
  157.7740  140.5223  165.4338 H   0  0  0  0  0  0  0  0  0  0  0  0
  1  2  2  0  0  0  0
  2  3  1  0  0  0  0
  2 15  1  0  0  0  0
  3  4  1  0  0  0  0
  3 21  1  0  0  0  0
  4 13  1  0  0  0  0
  4  5  2  0  0  0  0
  5  6  1  0  0  0  0
  5 22  1  0  0  0  0
  6  7  1  0  0  0  0
  6 11  2  0  0  0  0
  7  8  1  0  0  0  0
  7  9  1  0  0  0  0
  7 10  1  0  0  0  0
 11 12  1  0  0  0  0
 11 23  1  0  0  0  0
 12 13  1  0  0  0  0
 13 14  2  0  0  0  0
 15 20  1  0  0  0  0
 15 16  1  0  0  0  0
 15 24  1  0  0  0  0
 16 17  1  0  0  0  0
 16 25  1  0  0  0  0
 16 26  1  0  0  0  0
 17 18  1  0  0  0  0
 18 19  1  0  0  0  0
 18 27  1  0  0  0  0
 18 28  1  0  0  0  0
 19 20  1  0  0  0  0
 19 29  1  0  0  0  0
 19 30  1  0  0  0  0
M  CHG  1  12  -1
M  END
> <s_m_source_file>
AV-unprocessed.smi

> <i_m_source_file_index>
1776

> <i_lp_mmshare_version>
43012

> <i_f3d_flags>
0

> <s_epik_input>
TzFbQ0gyXVtDSDJdT1tDSDJdW0NASF0xQyg9TylbTkhdYzJbY0hdYyhDKEYpKEYpRilbY0hdW25IXWMyPU8=

> <s_epik_cmdline>
J2VwaWtfcHl0aG9uJywgJy1waCcsICc3LjAnLCAnLXRuJywgJzgnLCAnLW1hJywgJzIwMCcsICctbWV0YWxfYmluZGluZycsICctaW1hZScsICc8aW5maWxlLm1hZT4nLCAnLW9tYWUnLCAnPG91dGZpbGUubWFlPic=

> <r_epik_Ionization_Penalty>
2.46925

> <r_epik_Ionization_Penalty_Charging>
0.0509887

> <r_epik_Ionization_Penalty_Neutral>
2.41826

> <r_epik_State_Penalty>
2.57741

> <r_epik_Charging_Adjusted_Penalty>
2.6284

> <i_epik_Tot_Q>
-1

> <i_epik_Tot_abs_Q>
1

> <r_epik_Metal_State_Penalty>
0.510263

> <b_epik_Metal_Only>
0

> <s_lp_Force_Field>
OPLS_2005

> <r_lp_Energy>
25.1464

> <b_lp_Chiralities_Consistent>
1

> <s_lp_Variant>
AV-unprocessed.smi:1776-3

> <Gold.Version>
5.8.1

> <Gold.Id.Protein>
6NUR|6NUR_protein|mol2

> <Gold.PLP.Fitness>
42.8713

> <Gold.PLP.PLP>
-38.7401

> <Gold.PLP.part.hbond>
-2.2611

> <Gold.PLP.part.metal>
0.0000

> <Gold.PLP.part.buried>
-4.4719

> <Gold.PLP.part.nonpolar>
-30.8046

> <Gold.PLP.part.repulsive>
0.0588

> <Gold.PLP.ligand.clash>
0.0000

> <Gold.PLP.ligand.torsion>
0.6715

> <Gold.PLP.Chemscore.Hbond>
1.8080

> <Gold.PLP.Chemscore.CHOScore>
0.0000

> <Gold.PLP.Chemscore.Metal>
0.0000

> <Gold.Chemscore.Hbonds>
donor molecule, donor type, donor heavy atom, donor atom, acceptor molecule, acceptor atom, score
      P1  H  7997  8009       L1    12  1.81

> <Gold.PLP.Chemscore.Internal.Correction>
0.0501

> <Gold.Rescore>
     Score         DG    S(hbond)    S(metal)    S(lipo)     H(rot)  DE(clash)    DE(int)     intcor
      8.21     -11.80       0.00        0.00      75.86       1.00       0.20       3.39       ----

> <Gold.Chemscore.Fitness>
8.2079

> <Gold.Chemscore.DG>
-11.7956

> <Gold.Chemscore.ZeroCoef>
-5.4800

> <Gold.Chemscore.Hbond>
0.0000

> <Gold.Chemscore.Metal>
0.0000

> <Gold.Chemscore.Lipo>
75.8602

> <Gold.Chemscore.Internal_Hbond>
0.0000

> <Gold.Chemscore.DEClash>
0.2002

> <Gold.Chemscore.DEInternal>
3.3876

> <Gold.Chemscore.Rot>
1.0000

> <Gold.Chemscore.Internal.Correction>
   9.000000E+99

> <Gold.Chemscore.Hbonds>
donor molecule, donor type, donor heavy atom, donor atom, acceptor molecule, acceptor atom, score
      P1  H  7997  8009       L1    12  0.21

> <Gold.Chemscore.Hbond.Weighted>
-0.0000

> <Gold.Chemscore.Metal.Weighted>
-0.0000

> <Gold.Chemscore.Lipo.Weighted>
-8.8756

> <Gold.Chemscore.Internal_Hbond.Weighted>
0.0000

> <Gold.Chemscore.DEClash.Weighted>
0.2002

> <Gold.Chemscore.DEInternal.Weighted>
3.3876

> <Gold.Chemscore.Rot.Weighted>
2.5600

> <Gold.Chemscore.Internal.Correction.Weighted>
   9.000000E+99

> <Gold.Protein.RotatedTorsions>
[ 6907 6896 6895 6894 ] final   98.74 input  -60.11 | X-H torsion
[ 7974 7965 7964 7962 ] final  -86.26 input  175.53 | X-H torsion
[ 8008 7997 7996 7995 ] final  151.97 input   59.86 | X-H torsion
[ 10167 10162 10161 10158 ] final  -73.13 input  -65.29 | X-H torsion
[ 10718 10713 10712 10709 ] final  -69.68 input   66.30 | X-H torsion
[ 10763 10752 10751 10750 ] final   78.92 input  -60.55 | X-H torsion
[ 11005 11000 10999 10996 ] final -132.04 input  -57.11 | X-H torsion

> <Gold.Protein.ActiveResidues>
 VAL166  LYS551  ARG553  GLY616  TRP617  ASP618  TYR619  PRO620  LYS621  CYS622 
 ASP623  PHE694  ASN695  SER759  ASP760  ASP761  ALA762  ILE779  LEU786  VAL792 
 PHE793  MET794  SER795  GLU796  ALA797  LYS798  CYS799  TRP800  GLU811  SER814 

> <Gold.Protein.RotatedAtoms>
  152.5404  134.0534  159.8119 H   0  0  0  0  0  0  0  0  0  0  0  0  # atno 6907 bound_to 6896
  151.0672  133.5488  159.2637 H   0  0  0  0  0  0  0  0  0  0  0  0  # atno 6908 bound_to 6896
  151.2364  135.0581  159.9062 H   0  0  0  0  0  0  0  0  0  0  0  0  # atno 6909 bound_to 6896
  145.4823  140.9556  143.1857 H   0  0  0  0  0  0  0  0  0  0  0  0  # atno 7974 bound_to 7965
  156.2650  140.2033  156.6260 H   0  0  0  0  0  0  0  0  0  0  0  0  # atno 8008 bound_to 7997
  154.6720  140.0549  157.0200 H   0  0  0  0  0  0  0  0  0  0  0  0  # atno 8009 bound_to 7997
  155.1123  140.3216  155.4521 H   0  0  0  0  0  0  0  0  0  0  0  0  # atno 8010 bound_to 7997
  140.5136  143.2341  151.7552 H   0  0  0  0  0  0  0  0  0  0  0  0  # atno 10167 bound_to 10162
  156.0443  130.4317  150.2184 H   0  0  0  0  0  0  0  0  0  0  0  0  # atno 10718 bound_to 10713
  153.0912  135.4859  154.8693 H   0  0  0  0  0  0  0  0  0  0  0  0  # atno 10763 bound_to 10752
  154.7271  135.3052  154.8955 H   0  0  0  0  0  0  0  0  0  0  0  0  # atno 10764 bound_to 10752
  153.9601  135.6813  153.4798 H   0  0  0  0  0  0  0  0  0  0  0  0  # atno 10765 bound_to 10752
  140.9205  134.1450  157.4317 H   0  0  0  0  0  0  0  0  0  0  0  0  # atno 11005 bound_to 11000
  144.7882  139.6384  143.7125 LP  0  0  0  0  0  0  0  0  0  0  0  0  # atno 17320 bound_to 7965
  146.2333  139.5857  142.9540 LP  0  0  0  0  0  0  0  0  0  0  0  0  # atno 17321 bound_to 7965
  139.4903  144.4356  151.9823 LP  0  0  0  0  0  0  0  0  0  0  0  0  # atno 17342 bound_to 10162
  140.3449  144.3159  150.5960 LP  0  0  0  0  0  0  0  0  0  0  0  0  # atno 17343 bound_to 10162
  157.0276  130.9998  151.3322 LP  0  0  0  0  0  0  0  0  0  0  0  0  # atno 17370 bound_to 10713
  157.5300  130.8052  149.7906 LP  0  0  0  0  0  0  0  0  0  0  0  0  # atno 17371 bound_to 10713
  139.8774  134.9970  156.5822 LP  0  0  0  0  0  0  0  0  0  0  0  0  # atno 17394 bound_to 11000
  140.7993  133.8518  155.8713 LP  0  0  0  0  0  0  0  0  0  0  0  0  # atno 17395 bound_to 11000

$$$$
