AV-unprocessed.smi:1350|AV-procd|sdf|5523|dock10
  -GOLD-   22720 5113D 1   1.00000     0.00000
 Structure written by MMmdl.
 44 46  0  0  0  0  0  0  0  0  2 V2000
  151.0734  145.2581  160.4353 C   0  0  0  0  0  0  0  0  0  0  0  0
  151.1436  144.0813  159.6433 O   0  0  0  0  0  0  0  0  0  0  0  0
  152.0178  143.0832  160.0246 C   0  0  0  0  0  0  0  0  0  0  0  0
  152.7857  143.1339  161.2169 C   0  0  0  0  0  0  0  0  0  0  0  0
  153.6520  142.0788  161.5585 C   0  0  0  0  0  0  0  0  0  0  0  0
  153.7609  140.9570  160.7192 C   0  0  0  0  0  0  0  0  0  0  0  0
  153.0072  140.8952  159.5338 C   0  0  0  0  0  0  0  0  0  0  0  0
  152.1452  141.9551  159.1762 C   0  0  0  0  0  0  0  0  0  0  0  0
  151.3286  141.8548  157.8958 C   0  0  0  0  0  0  0  0  0  0  0  0
  151.4804  140.5967  157.2562 O   0  0  0  0  0  0  0  0  0  0  0  0
  151.4466  140.6864  155.8414 C   0  0  0  0  0  0  0  0  0  0  0  0
  150.0164  140.4014  155.3557 C   0  0  1  0  0  0  0  0  0  0  0  0
  149.4516  139.3980  156.1769 O   0  0  0  0  0  0  0  0  0  0  0  0
  149.1289  141.6605  155.4092 C   0  0  0  0  0  0  0  0  0  0  0  0
  147.7177  141.3739  155.1119 N   0  0  0  0  0  0  0  0  0  0  0  0
  147.1482  140.9518  153.9505 C   0  0  0  0  0  0  0  0  0  0  0  0
  145.8099  140.8281  154.1683 N   0  3  0  0  0  0  0  0  0  0  0  0
  145.5188  141.1739  155.4894 C   0  0  0  0  0  0  0  0  0  0  0  0
  144.3090  141.2043  156.1760 C   0  0  0  0  0  0  0  0  0  0  0  0
  144.3583  141.6034  157.5276 C   0  0  0  0  0  0  0  0  0  0  0  0
  145.5763  141.9516  158.1464 C   0  0  0  0  0  0  0  0  0  0  0  0
  146.7971  141.9181  157.4404 C   0  0  0  0  0  0  0  0  0  0  0  0
  146.7404  141.5245  156.1034 C   0  0  0  0  0  0  0  0  0  0  0  0
  150.3525  145.9456  159.9936 H   0  0  0  0  0  0  0  0  0  0  0  0
  152.0353  145.7710  160.4737 H   0  0  0  0  0  0  0  0  0  0  0  0
  150.7392  145.0372  161.4499 H   0  0  0  0  0  0  0  0  0  0  0  0
  152.7266  143.9733  161.8925 H   0  0  0  0  0  0  0  0  0  0  0  0
  154.2305  142.1292  162.4691 H   0  0  0  0  0  0  0  0  0  0  0  0
  154.4204  140.1438  160.9839 H   0  0  0  0  0  0  0  0  0  0  0  0
  153.0957  140.0253  158.8994 H   0  0  0  0  0  0  0  0  0  0  0  0
  150.2800  142.0225  158.1457 H   0  0  0  0  0  0  0  0  0  0  0  0
  151.6283  142.6394  157.2000 H   0  0  0  0  0  0  0  0  0  0  0  0
  151.7966  141.6604  155.4950 H   0  0  0  0  0  0  0  0  0  0  0  0
  152.1267  139.9361  155.4350 H   0  0  0  0  0  0  0  0  0  0  0  0
  150.0466  140.0384  154.3275 H   0  0  0  0  0  0  0  0  0  0  0  0
  149.0669  138.7370  155.6223 H   0  0  0  0  0  0  0  0  0  0  0  0
  149.2054  142.1622  156.3739 H   0  0  0  0  0  0  0  0  0  0  0  0
  149.4667  142.3817  154.6638 H   0  0  0  0  0  0  0  0  0  0  0  0
  147.6652  140.7507  153.0232 H   0  0  0  0  0  0  0  0  0  0  0  0
  143.3747  140.9364  155.7045 H   0  0  0  0  0  0  0  0  0  0  0  0
  143.4438  141.6417  158.1017 H   0  0  0  0  0  0  0  0  0  0  0  0
  145.5749  142.2499  159.1848 H   0  0  0  0  0  0  0  0  0  0  0  0
  147.7232  142.1835  157.9276 H   0  0  0  0  0  0  0  0  0  0  0  0
  145.1468  140.5276  153.4652 H   0  0  0  0  0  0  0  0  0  0  0  0
  1  2  1  0  0  0  0
  1 24  1  0  0  0  0
  1 25  1  0  0  0  0
  1 26  1  0  0  0  0
  2  3  1  0  0  0  0
  3  8  1  0  0  0  0
  3  4  2  0  0  0  0
  4  5  1  0  0  0  0
  4 27  1  0  0  0  0
  5  6  2  0  0  0  0
  5 28  1  0  0  0  0
  6  7  1  0  0  0  0
  6 29  1  0  0  0  0
  7  8  2  0  0  0  0
  7 30  1  0  0  0  0
  8  9  1  0  0  0  0
  9 10  1  0  0  0  0
  9 31  1  0  0  0  0
  9 32  1  0  0  0  0
 10 11  1  0  0  0  0
 11 12  1  0  0  0  0
 11 33  1  0  0  0  0
 11 34  1  0  0  0  0
 12 13  1  0  0  0  0
 12 14  1  0  0  0  0
 12 35  1  0  0  0  0
 13 36  1  0  0  0  0
 14 15  1  0  0  0  0
 14 37  1  0  0  0  0
 14 38  1  0  0  0  0
 15 23  1  0  0  0  0
 15 16  1  0  0  0  0
 16 17  2  0  0  0  0
 16 39  1  0  0  0  0
 17 18  1  0  0  0  0
 17 44  1  0  0  0  0
 18 23  2  0  0  0  0
 18 19  1  0  0  0  0
 19 20  2  0  0  0  0
 19 40  1  0  0  0  0
 20 21  1  0  0  0  0
 20 41  1  0  0  0  0
 21 22  2  0  0  0  0
 21 42  1  0  0  0  0
 22 23  1  0  0  0  0
 22 43  1  0  0  0  0
M  CHG  1  17   1
M  END
> <s_m_source_file>
AV-unprocessed.smi

> <i_m_source_file_index>
1350

> <i_lp_mmshare_version>
43012

> <i_f3d_flags>
0

> <s_epik_input>
W0NIM11PYzFbY0hdW2NIXVtjSF1bY0hdYzFbQ0gyXU9bQ0gyXVtDQEhdKFtPSF0pW0NIMl1uKFtjSF1uMiljKGMyMylbY0hdW2NIXVtjSF1bY0hdMw==

> <s_epik_cmdline>
J2VwaWtfcHl0aG9uJywgJy1waCcsICc3LjAnLCAnLXRuJywgJzgnLCAnLW1hJywgJzIwMCcsICctbWV0YWxfYmluZGluZycsICctaW1hZScsICc8aW5maWxlLm1hZT4nLCAnLW9tYWUnLCAnPG91dGZpbGUubWFlPic=

> <r_lp_tautomer_probability>
1

> <r_epik_Ionization_Penalty>
1.28975

> <r_epik_Ionization_Penalty_Charging>
1.28975

> <r_epik_Ionization_Penalty_Neutral>
1.07667e-06

> <r_epik_State_Penalty>
1.36276

> <r_epik_Charging_Adjusted_Penalty>
2.65251

> <i_epik_Tot_Q>
1

> <i_epik_Tot_abs_Q>
1

> <r_epik_Metal_State_Penalty>
5.39298

> <b_epik_Metal_Only>
0

> <s_lp_Force_Field>
OPLS_2005

> <r_lp_Energy>
25.8807

> <b_lp_Chiralities_Consistent>
1

> <s_lp_Variant>
AV-unprocessed.smi:1350-4

> <Gold.Version>
5.8.1

> <Gold.Id.Protein>
6NUR|6NUR_protein|mol2

> <Gold.PLP.Fitness>
53.3655

> <Gold.PLP.PLP>
-45.9856

> <Gold.PLP.part.hbond>
-1.0000

> <Gold.PLP.part.metal>
0.0000

> <Gold.PLP.part.buried>
-4.6588

> <Gold.PLP.part.nonpolar>
-39.7570

> <Gold.PLP.part.repulsive>
0.0651

> <Gold.PLP.ligand.clash>
0.0000

> <Gold.PLP.ligand.torsion>
0.8434

> <Gold.PLP.Chemscore.Hbond>
2.0000

> <Gold.PLP.Chemscore.CHOScore>
1.0000

> <Gold.PLP.Chemscore.Metal>
0.0000

> <Gold.Chemscore.Hbonds>
donor molecule, donor type, donor heavy atom, donor atom, acceptor molecule, acceptor atom, score
      L1  H    17    44       P1 10175  2.00
      L1  C    16    39       P1  7957  0.40

> <Gold.PLP.Chemscore.Internal.Correction>
0.0667

> <Gold.Rescore>
     Score         DG    S(hbond)    S(metal)    S(lipo)     H(rot)  DE(clash)    DE(int)     intcor
     14.23     -15.11       0.97        0.00     114.67       2.74       0.10       0.79       ----

> <Gold.Chemscore.Fitness>
14.2253

> <Gold.Chemscore.DG>
-15.1096

> <Gold.Chemscore.ZeroCoef>
-5.4800

> <Gold.Chemscore.Hbond>
0.9656

> <Gold.Chemscore.Metal>
0.0000

> <Gold.Chemscore.Lipo>
114.6691

> <Gold.Chemscore.Internal_Hbond>
0.0000

> <Gold.Chemscore.DEClash>
0.0984

> <Gold.Chemscore.DEInternal>
0.7859

> <Gold.Chemscore.Rot>
2.7390

> <Gold.Chemscore.Internal.Correction>
   9.000000E+99

> <Gold.Chemscore.Hbonds>
donor molecule, donor type, donor heavy atom, donor atom, acceptor molecule, acceptor atom, score
      L1  H    17    44       P1 10175  0.98

> <Gold.Chemscore.Hbond.Weighted>
-3.2251

> <Gold.Chemscore.Metal.Weighted>
-0.0000

> <Gold.Chemscore.Lipo.Weighted>
-13.4163

> <Gold.Chemscore.Internal_Hbond.Weighted>
0.0000

> <Gold.Chemscore.DEClash.Weighted>
0.0984

> <Gold.Chemscore.DEInternal.Weighted>
0.7859

> <Gold.Chemscore.Rot.Weighted>
7.0118

> <Gold.Chemscore.Internal.Correction.Weighted>
   9.000000E+99

> <Gold.Protein.RotatedTorsions>
[ 6907 6896 6895 6894 ] final  -97.90 input  -60.11 | X-H torsion
[ 7974 7965 7964 7962 ] final  107.56 input  175.53 | X-H torsion
[ 8008 7997 7996 7995 ] final   53.00 input   59.86 | X-H torsion
[ 10167 10162 10161 10158 ] final  -20.44 input  -65.29 | X-H torsion
[ 10718 10713 10712 10709 ] final -137.71 input   66.30 | X-H torsion
[ 10763 10752 10751 10750 ] final  -50.92 input  -60.55 | X-H torsion
[ 11005 11000 10999 10996 ] final  144.92 input  -57.11 | X-H torsion

> <Gold.Protein.ActiveResidues>
 VAL166  LYS551  ARG553  GLY616  TRP617  ASP618  TYR619  PRO620  LYS621  CYS622 
 ASP623  PHE694  ASN695  SER759  ASP760  ASP761  ALA762  ILE779  LEU786  VAL792 
 PHE793  MET794  SER795  GLU796  ALA797  LYS798  CYS799  TRP800  GLU811  SER814 

> <Gold.Protein.RotatedAtoms>
  150.7030  134.1278  159.4058 H   0  0  0  0  0  0  0  0  0  0  0  0  # atno 6907 bound_to 6896
  151.9264  135.0273  160.0535 H   0  0  0  0  0  0  0  0  0  0  0  0  # atno 6908 bound_to 6896
  152.2213  133.4950  159.5200 H   0  0  0  0  0  0  0  0  0  0  0  0  # atno 6909 bound_to 6896
  145.2920  139.2597  143.3860 H   0  0  0  0  0  0  0  0  0  0  0  0  # atno 7974 bound_to 7965
  155.4610  140.3462  155.4313 H   0  0  0  0  0  0  0  0  0  0  0  0  # atno 8008 bound_to 7997
  156.1161  140.1474  156.9300 H   0  0  0  0  0  0  0  0  0  0  0  0  # atno 8009 bound_to 7997
  154.4790  140.0876  156.7310 H   0  0  0  0  0  0  0  0  0  0  0  0  # atno 8010 bound_to 7997
  140.7276  143.4722  151.0231 H   0  0  0  0  0  0  0  0  0  0  0  0  # atno 10167 bound_to 10162
  156.2912  130.7376  151.1402 H   0  0  0  0  0  0  0  0  0  0  0  0  # atno 10718 bound_to 10713
  154.1181  135.6539  153.4898 H   0  0  0  0  0  0  0  0  0  0  0  0  # atno 10763 bound_to 10752
  153.0234  135.5264  154.7124 H   0  0  0  0  0  0  0  0  0  0  0  0  # atno 10764 bound_to 10752
  154.6324  135.2978  155.0171 H   0  0  0  0  0  0  0  0  0  0  0  0  # atno 10765 bound_to 10752
  140.0671  134.9172  157.1283 H   0  0  0  0  0  0  0  0  0  0  0  0  # atno 11005 bound_to 11000
  146.3181  140.3413  142.8648 LP  0  0  0  0  0  0  0  0  0  0  0  0  # atno 17320 bound_to 7965
  144.9165  140.7818  143.5775 LP  0  0  0  0  0  0  0  0  0  0  0  0  # atno 17321 bound_to 7965
  139.8414  143.7558  152.3180 LP  0  0  0  0  0  0  0  0  0  0  0  0  # atno 17342 bound_to 10162
  139.7708  144.7477  151.0227 LP  0  0  0  0  0  0  0  0  0  0  0  0  # atno 17343 bound_to 10162
  157.7343  131.0583  150.5533 LP  0  0  0  0  0  0  0  0  0  0  0  0  # atno 17370 bound_to 10713
  156.5649  130.4265  149.6046 LP  0  0  0  0  0  0  0  0  0  0  0  0  # atno 17371 bound_to 10713
  140.3683  134.2419  155.7180 LP  0  0  0  0  0  0  0  0  0  0  0  0  # atno 17394 bound_to 11000
  141.1997  133.8005  157.0524 LP  0  0  0  0  0  0  0  0  0  0  0  0  # atno 17395 bound_to 11000

$$$$
