AV-unprocessed.smi:243|AV-procd|sdf|1863|dock2
  -GOLD-   2262020493D 1   1.00000     0.00000
 Structure written by MMmdl.
 58 61  0  0  0  0  0  0  0  0  2 V2000
  150.6822  145.2608  159.7482 C   0  0  0  0  0  0  0  0  0  0  0  0
  151.3740  144.9733  158.4077 C   0  0  0  0  0  0  0  0  0  0  0  0
  150.7035  143.8916  157.6434 N   0  3  1  0  0  0  0  0  0  0  0  0
  151.4766  143.4886  156.4426 C   0  0  0  0  0  0  0  0  0  0  0  0
  150.7038  142.4670  155.5919 C   0  0  0  0  0  0  0  0  0  0  0  0
  150.3101  141.2258  156.4226 C   0  0  2  0  0  0  0  0  0  0  0  0
  149.6074  140.2109  155.6197 N   0  0  0  0  0  0  0  0  0  0  0  0
  148.8205  140.6737  154.4805 C   0  0  0  0  0  0  0  0  0  0  0  0
  150.3228  139.1159  155.2707 C   0  0  0  0  0  0  0  0  0  0  0  0
  151.3340  139.2962  154.3854 N   0  0  0  0  0  0  0  0  0  0  0  0
  152.0722  138.2542  153.9920 C   0  0  0  0  0  0  0  0  0  0  0  0
  151.9717  136.9746  154.3577 N   0  0  0  0  0  0  0  0  0  0  0  0
  150.9654  136.7929  155.2603 C   0  0  0  0  0  0  0  0  0  0  0  0
  150.1032  137.8017  155.7743 C   0  0  0  0  0  0  0  0  0  0  0  0
  149.2122  137.2441  156.6838 N   0  0  0  0  0  0  0  0  0  0  0  0
  149.5237  135.9770  156.6991 C   0  0  0  0  0  0  0  0  0  0  0  0
  150.5564  135.6165  155.8633 N   0  0  0  0  0  0  0  0  0  0  0  0
  151.0978  134.2803  155.6706 C   0  0  0  0  0  0  0  0  0  0  0  0
  150.0169  133.2227  155.3462 C   0  0  2  0  0  0  0  0  0  0  0  0
  149.2548  132.9632  156.5124 O   0  0  0  0  0  0  0  0  0  0  0  0
  150.5765  131.8987  154.8305 C   0  0  0  0  0  0  0  0  0  0  0  0
  149.5068  131.4330  153.8530 C   0  0  0  0  0  0  0  0  0  0  0  0
  149.1180  132.6430  153.2270 O   0  0  0  0  0  0  0  0  0  0  0  0
  149.0571  133.6602  154.2210 C   0  0  0  0  0  0  0  0  0  0  0  0
  149.5205  141.6861  157.6836 C   0  0  2  0  0  0  0  0  0  0  0  0
  148.1056  142.2273  157.3882 C   0  0  0  0  0  0  0  0  0  0  0  0
  150.3483  142.7144  158.4791 C   0  0  0  0  0  0  0  0  0  0  0  0
  151.1398  146.1201  160.2388 H   0  0  0  0  0  0  0  0  0  0  0  0
  150.7556  144.4207  160.4380 H   0  0  0  0  0  0  0  0  0  0  0  0
  149.6254  145.4882  159.6049 H   0  0  0  0  0  0  0  0  0  0  0  0
  151.3524  145.8930  157.8216 H   0  0  0  0  0  0  0  0  0  0  0  0
  152.4262  144.7292  158.5597 H   0  0  0  0  0  0  0  0  0  0  0  0
  151.6952  144.3663  155.8326 H   0  0  0  0  0  0  0  0  0  0  0  0
  152.4361  143.0706  156.7516 H   0  0  0  0  0  0  0  0  0  0  0  0
  149.8183  142.9339  155.1600 H   0  0  0  0  0  0  0  0  0  0  0  0
  151.3370  142.1815  154.7520 H   0  0  0  0  0  0  0  0  0  0  0  0
  151.2428  140.7745  156.7607 H   0  0  0  0  0  0  0  0  0  0  0  0
  148.5433  139.8572  153.8113 H   0  0  0  0  0  0  0  0  0  0  0  0
  149.3783  141.4108  153.9015 H   0  0  0  0  0  0  0  0  0  0  0  0
  147.8950  141.1354  154.8243 H   0  0  0  0  0  0  0  0  0  0  0  0
  152.8534  138.4771  153.2805 H   0  0  0  0  0  0  0  0  0  0  0  0
  149.0005  135.2647  157.3202 H   0  0  0  0  0  0  0  0  0  0  0  0
  151.8407  134.3190  154.8729 H   0  0  0  0  0  0  0  0  0  0  0  0
  151.6371  133.9997  156.5764 H   0  0  0  0  0  0  0  0  0  0  0  0
  148.4380  132.5639  156.2551 H   0  0  0  0  0  0  0  0  0  0  0  0
  151.5011  132.0698  154.2775 H   0  0  0  0  0  0  0  0  0  0  0  0
  150.7890  131.1720  155.6159 H   0  0  0  0  0  0  0  0  0  0  0  0
  149.8806  130.7066  153.1312 H   0  0  0  0  0  0  0  0  0  0  0  0
  148.6549  130.9970  154.3774 H   0  0  0  0  0  0  0  0  0  0  0  0
  148.0290  133.7586  154.5743 H   0  0  0  0  0  0  0  0  0  0  0  0
  149.3412  134.6146  153.7765 H   0  0  0  0  0  0  0  0  0  0  0  0
  149.3924  140.8284  158.3443 H   0  0  0  0  0  0  0  0  0  0  0  0
  148.1283  143.1192  156.7627 H   0  0  0  0  0  0  0  0  0  0  0  0
  147.5927  142.4924  158.3131 H   0  0  0  0  0  0  0  0  0  0  0  0
  147.4858  141.4881  156.8825 H   0  0  0  0  0  0  0  0  0  0  0  0
  151.2625  142.2475  158.8495 H   0  0  0  0  0  0  0  0  0  0  0  0
  149.7834  143.0245  159.3577 H   0  0  0  0  0  0  0  0  0  0  0  0
  149.8365  144.2808  157.3011 H   0  0  0  0  0  0  0  0  0  0  0  0
  1  2  1  0  0  0  0
  1 28  1  0  0  0  0
  1 29  1  0  0  0  0
  1 30  1  0  0  0  0
  2  3  1  0  0  0  0
  2 31  1  0  0  0  0
  2 32  1  0  0  0  0
  3 27  1  0  0  0  0
  3  4  1  0  0  0  0
  3 58  1  0  0  0  0
  4  5  1  0  0  0  0
  4 33  1  0  0  0  0
  4 34  1  0  0  0  0
  5  6  1  0  0  0  0
  5 35  1  0  0  0  0
  5 36  1  0  0  0  0
  6  7  1  0  0  0  0
  6 25  1  0  0  0  0
  6 37  1  0  0  0  0
  7  8  1  0  0  0  0
  7  9  1  0  0  0  0
  8 38  1  0  0  0  0
  8 39  1  0  0  0  0
  8 40  1  0  0  0  0
  9 14  1  0  0  0  0
  9 10  2  0  0  0  0
 10 11  1  0  0  0  0
 11 12  2  0  0  0  0
 11 41  1  0  0  0  0
 12 13  1  0  0  0  0
 13 17  1  0  0  0  0
 13 14  2  0  0  0  0
 14 15  1  0  0  0  0
 15 16  2  0  0  0  0
 16 17  1  0  0  0  0
 16 42  1  0  0  0  0
 17 18  1  0  0  0  0
 18 19  1  0  0  0  0
 18 43  1  0  0  0  0
 18 44  1  0  0  0  0
 19 24  1  0  0  0  0
 19 20  1  0  0  0  0
 19 21  1  0  0  0  0
 20 45  1  0  0  0  0
 21 22  1  0  0  0  0
 21 46  1  0  0  0  0
 21 47  1  0  0  0  0
 22 23  1  0  0  0  0
 22 48  1  0  0  0  0
 22 49  1  0  0  0  0
 23 24  1  0  0  0  0
 24 50  1  0  0  0  0
 24 51  1  0  0  0  0
 25 26  1  0  0  0  0
 25 27  1  0  0  0  0
 25 52  1  0  0  0  0
 26 53  1  0  0  0  0
 26 54  1  0  0  0  0
 26 55  1  0  0  0  0
 27 56  1  0  0  0  0
 27 57  1  0  0  0  0
M  CHG  1   3   1
M  END
> <s_m_source_file>
AV-unprocessed.smi

> <i_m_source_file_index>
243

> <i_lp_mmshare_version>
43012

> <i_f3d_flags>
0

> <s_epik_input>
W0NIM11bQ0gyXU4xW0NIMl1bQ0gyXVtDQEhdKFtDQEBIXShbQ0gzXSlbQ0gyXTEpTihbQ0gzXSljKG5bY0hdbjIpYyhjMjMpbltjSF1uM1tDSDJdW0NAQF00KFtPSF0pW0NIMl1bQ0gyXU9bQ0gyXTQ=

> <s_epik_cmdline>
J2VwaWtfcHl0aG9uJywgJy1waCcsICc3LjAnLCAnLXRuJywgJzgnLCAnLW1hJywgJzIwMCcsICctbWV0YWxfYmluZGluZycsICctaW1hZScsICc8aW5maWxlLm1hZT4nLCAnLW9tYWUnLCAnPG91dGZpbGUubWFlPic=

> <r_lp_tautomer_probability>
1

> <r_epik_Ionization_Penalty>
0.00253099

> <r_epik_Ionization_Penalty_Charging>
0.00137877

> <r_epik_Ionization_Penalty_Neutral>
0.00115221

> <r_epik_State_Penalty>
-0

> <r_epik_Charging_Adjusted_Penalty>
0.00137877

> <i_epik_Tot_Q>
1

> <i_epik_Tot_abs_Q>
1

> <r_epik_Metal_State_Penalty>
-0

> <b_epik_Metal_Only>
0

> <s_lp_Force_Field>
OPLS_2005

> <r_lp_Energy>
46.6392

> <b_lp_Chiralities_Consistent>
1

> <s_lp_Variant>
AV-unprocessed.smi:243-16

> <Gold.Version>
5.8.1

> <Gold.Id.Protein>
6NUR|6NUR_protein|mol2

> <Gold.PLP.Fitness>
45.7985

> <Gold.PLP.PLP>
-36.4095

> <Gold.PLP.part.hbond>
-3.0000

> <Gold.PLP.part.metal>
0.0000

> <Gold.PLP.part.buried>
-4.6399

> <Gold.PLP.part.nonpolar>
-29.3551

> <Gold.PLP.part.repulsive>
0.4980

> <Gold.PLP.ligand.clash>
0.0000

> <Gold.PLP.ligand.torsion>
1.4878

> <Gold.PLP.Chemscore.Hbond>
3.9520

> <Gold.PLP.Chemscore.CHOScore>
0.0000

> <Gold.PLP.Chemscore.Metal>
0.0000

> <Gold.Chemscore.Hbonds>
donor molecule, donor type, donor heavy atom, donor atom, acceptor molecule, acceptor atom, score
      L1  H     3    58       P1  8028  1.73
      P1  H  7989  7998       L1    10  1.00
      P1  H 10752 10763       L1    12  1.00

> <Gold.PLP.Chemscore.Internal.Correction>
0.5085

> <Gold.Rescore>
     Score         DG    S(hbond)    S(metal)    S(lipo)     H(rot)  DE(clash)    DE(int)     intcor
     13.15     -18.02       2.03        0.00     104.51       2.53       3.38       1.49       ----

> <Gold.Chemscore.Fitness>
13.1468

> <Gold.Chemscore.DG>
-18.0182

> <Gold.Chemscore.ZeroCoef>
-5.4800

> <Gold.Chemscore.Hbond>
2.0324

> <Gold.Chemscore.Metal>
0.0000

> <Gold.Chemscore.Lipo>
104.5120

> <Gold.Chemscore.Internal_Hbond>
0.0000

> <Gold.Chemscore.DEClash>
3.3816

> <Gold.Chemscore.DEInternal>
1.4898

> <Gold.Chemscore.Rot>
2.5305

> <Gold.Chemscore.Internal.Correction>
   9.000000E+99

> <Gold.Chemscore.Hbonds>
donor molecule, donor type, donor heavy atom, donor atom, acceptor molecule, acceptor atom, score
      L1  H     3    58       P1  8028  0.38
      P1  H  7989  7998       L1    10  0.90
      P1  H 10752 10763       L1    12  0.76

> <Gold.Chemscore.Hbond.Weighted>
-6.7883

> <Gold.Chemscore.Metal.Weighted>
-0.0000

> <Gold.Chemscore.Lipo.Weighted>
-12.2279

> <Gold.Chemscore.Internal_Hbond.Weighted>
0.0000

> <Gold.Chemscore.DEClash.Weighted>
3.3816

> <Gold.Chemscore.DEInternal.Weighted>
1.4898

> <Gold.Chemscore.Rot.Weighted>
6.4780

> <Gold.Chemscore.Internal.Correction.Weighted>
   9.000000E+99

> <Gold.Protein.RotatedTorsions>
[ 6907 6896 6895 6894 ] final -133.61 input  -60.11 | X-H torsion
[ 7974 7965 7964 7962 ] final   41.71 input  175.53 | X-H torsion
[ 8008 7997 7996 7995 ] final  -17.72 input   59.86 | X-H torsion
[ 10167 10162 10161 10158 ] final   73.64 input  -65.29 | X-H torsion
[ 10718 10713 10712 10709 ] final  163.65 input   66.30 | X-H torsion
[ 10763 10752 10751 10750 ] final   42.38 input  -60.55 | X-H torsion
[ 11005 11000 10999 10996 ] final -113.24 input  -57.11 | X-H torsion

> <Gold.Protein.ActiveResidues>
 VAL166  LYS551  ARG553  GLY616  TRP617  ASP618  TYR619  PRO620  LYS621  CYS622 
 ASP623  PHE694  ASN695  SER759  ASP760  ASP761  ALA762  ILE779  LEU786  VAL792 
 PHE793  MET794  SER795  GLU796  ALA797  LYS798  CYS799  TRP800  GLU811  SER814 

> <Gold.Protein.RotatedAtoms>
  150.9761  133.6293  159.2729 H   0  0  0  0  0  0  0  0  0  0  0  0  # atno 6907 bound_to 6896
  151.3565  135.0894  159.9430 H   0  0  0  0  0  0  0  0  0  0  0  0  # atno 6908 bound_to 6896
  152.5200  133.9343  159.7650 H   0  0  0  0  0  0  0  0  0  0  0  0  # atno 6909 bound_to 6896
  146.0801  139.5385  142.9542 H   0  0  0  0  0  0  0  0  0  0  0  0  # atno 7974 bound_to 7965
  154.4958  140.2135  155.9451 H   0  0  0  0  0  0  0  0  0  0  0  0  # atno 8008 bound_to 7997
  156.1368  140.3187  155.8400 H   0  0  0  0  0  0  0  0  0  0  0  0  # atno 8009 bound_to 7997
  155.4195  140.0496  157.3017 H   0  0  0  0  0  0  0  0  0  0  0  0  # atno 8010 bound_to 7997
  140.0223  144.5530  150.7572 H   0  0  0  0  0  0  0  0  0  0  0  0  # atno 10167 bound_to 10162
  157.1055  131.0454  151.2479 H   0  0  0  0  0  0  0  0  0  0  0  0  # atno 10718 bound_to 10713
  152.9884  135.6133  154.2940 H   0  0  0  0  0  0  0  0  0  0  0  0  # atno 10763 bound_to 10752
  154.2664  135.2781  155.2758 H   0  0  0  0  0  0  0  0  0  0  0  0  # atno 10764 bound_to 10752
  154.5161  135.5828  153.6700 H   0  0  0  0  0  0  0  0  0  0  0  0  # atno 10765 bound_to 10752
  141.0626  133.9510  157.2638 H   0  0  0  0  0  0  0  0  0  0  0  0  # atno 11005 bound_to 11000
  145.6233  141.0318  143.1903 LP  0  0  0  0  0  0  0  0  0  0  0  0  # atno 17320 bound_to 7965
  144.7288  139.7792  143.7355 LP  0  0  0  0  0  0  0  0  0  0  0  0  # atno 17321 bound_to 7965
  140.7337  143.2720  151.3858 LP  0  0  0  0  0  0  0  0  0  0  0  0  # atno 17342 bound_to 10162
  139.6131  144.1058  152.2319 LP  0  0  0  0  0  0  0  0  0  0  0  0  # atno 17343 bound_to 10162
  157.4604  130.7650  149.7230 LP  0  0  0  0  0  0  0  0  0  0  0  0  # atno 17370 bound_to 10713
  155.9863  130.3976  150.3220 LP  0  0  0  0  0  0  0  0  0  0  0  0  # atno 17371 bound_to 10713
  139.9447  135.0186  156.8815 LP  0  0  0  0  0  0  0  0  0  0  0  0  # atno 17394 bound_to 11000
  140.5838  134.0327  155.7474 LP  0  0  0  0  0  0  0  0  0  0  0  0  # atno 17395 bound_to 11000

$$$$
