AV-unprocessed.smi:713|AV-procd|sdf|3475|dock8
  -GOLD-   22720 0463D 1   1.00000     0.00000
 Structure written by MMmdl.
 41 42  0  0  0  0  0  0  0  0  1 V2000
  153.3372  141.9260  161.9295 C   0  0  0  0  0  0  0  0  0  0  0  0
  153.5180  142.2786  160.4389 C   0  0  1  0  0  0  0  0  0  0  0  0
  153.3366  141.0683  159.5057 C   0  0  0  0  0  0  0  0  0  0  0  0
  154.3043  140.5499  158.9471 O   0  0  0  0  0  0  0  0  0  0  0  0
  152.0778  140.6292  159.3407 N   0  0  0  0  0  0  0  0  0  0  0  0
  151.6799  139.4945  158.5141 C   0  0  2  0  0  0  0  0  0  0  0  0
  152.1631  139.7252  157.0701 C   0  0  0  0  0  0  0  0  0  0  0  0
  151.6880  138.6138  156.1211 C   0  0  0  0  0  0  0  0  0  0  0  0
  150.1582  138.4643  156.1606 C   0  0  0  0  0  0  0  0  0  0  0  0
  149.6213  138.2250  157.5857 C   0  0  1  0  0  0  0  0  0  0  0  0
  149.9610  136.4849  158.1543 S   0  0  0  0  0  0  0  0  0  0  0  0
  149.0774  136.4056  159.7671 C   0  0  0  0  0  0  0  0  0  0  0  0
  149.2907  135.5670  157.2208 O   0  0  0  0  0  0  0  0  0  0  0  0
  151.3958  136.3114  158.4230 O   0  0  0  0  0  0  0  0  0  0  0  0
  150.1460  139.3056  158.5576 C   0  0  0  0  0  0  0  0  0  0  0  0
  152.6495  143.3792  160.0339 N   0  0  0  0  0  0  0  0  0  0  0  0
  152.5396  143.9588  158.7859 C   0  0  0  0  0  0  0  0  0  0  0  0
  151.5808  144.9277  158.8658 C   0  0  0  0  0  0  0  0  0  0  0  0
  151.1463  144.8623  160.2185 C   0  0  0  0  0  0  0  0  0  0  0  0
  151.7805  143.9317  160.9125 N   0  0  0  0  0  0  0  0  0  0  0  0
  154.0445  141.1569  162.2416 H   0  0  0  0  0  0  0  0  0  0  0  0
  152.3327  141.5584  162.1431 H   0  0  0  0  0  0  0  0  0  0  0  0
  153.5092  142.7998  162.5584 H   0  0  0  0  0  0  0  0  0  0  0  0
  154.5469  142.6187  160.3114 H   0  0  0  0  0  0  0  0  0  0  0  0
  151.3410  141.1116  159.8342 H   0  0  0  0  0  0  0  0  0  0  0  0
  152.1771  138.6078  158.9048 H   0  0  0  0  0  0  0  0  0  0  0  0
  151.7924  140.6850  156.7067 H   0  0  0  0  0  0  0  0  0  0  0  0
  153.2517  139.7867  157.0461 H   0  0  0  0  0  0  0  0  0  0  0  0
  152.0072  138.8403  155.1035 H   0  0  0  0  0  0  0  0  0  0  0  0
  152.1675  137.6715  156.3836 H   0  0  0  0  0  0  0  0  0  0  0  0
  149.7065  139.3726  155.7601 H   0  0  0  0  0  0  0  0  0  0  0  0
  149.8447  137.6567  155.4987 H   0  0  0  0  0  0  0  0  0  0  0  0
  148.5345  138.3042  157.5496 H   0  0  0  0  0  0  0  0  0  0  0  0
  149.0912  135.3789  160.1323 H   0  0  0  0  0  0  0  0  0  0  0  0
  148.0447  136.7276  159.6364 H   0  0  0  0  0  0  0  0  0  0  0  0
  149.5732  137.0448  160.4968 H   0  0  0  0  0  0  0  0  0  0  0  0
  149.8160  139.0940  159.5733 H   0  0  0  0  0  0  0  0  0  0  0  0
  149.6751  140.2537  158.2933 H   0  0  0  0  0  0  0  0  0  0  0  0
  153.1464  143.6364  157.9526 H   0  0  0  0  0  0  0  0  0  0  0  0
  151.2395  145.5816  158.0771 H   0  0  0  0  0  0  0  0  0  0  0  0
  150.3914  145.4563  160.7123 H   0  0  0  0  0  0  0  0  0  0  0  0
  1  2  1  0  0  0  0
  1 21  1  0  0  0  0
  1 22  1  0  0  0  0
  1 23  1  0  0  0  0
  2  3  1  0  0  0  0
  2 16  1  0  0  0  0
  2 24  1  0  0  0  0
  3  4  2  0  0  0  0
  3  5  1  0  0  0  0
  5  6  1  0  0  0  0
  5 25  1  0  0  0  0
  6 15  1  0  0  0  0
  6  7  1  0  0  0  0
  6 26  1  0  0  0  0
  7  8  1  0  0  0  0
  7 27  1  0  0  0  0
  7 28  1  0  0  0  0
  8  9  1  0  0  0  0
  8 29  1  0  0  0  0
  8 30  1  0  0  0  0
  9 10  1  0  0  0  0
  9 31  1  0  0  0  0
  9 32  1  0  0  0  0
 10 11  1  0  0  0  0
 10 15  1  0  0  0  0
 10 33  1  0  0  0  0
 11 12  1  0  0  0  0
 11 13  2  0  0  0  0
 11 14  2  0  0  0  0
 12 34  1  0  0  0  0
 12 35  1  0  0  0  0
 12 36  1  0  0  0  0
 15 37  1  0  0  0  0
 15 38  1  0  0  0  0
 16 20  1  0  0  0  0
 16 17  1  0  0  0  0
 17 18  2  0  0  0  0
 17 39  1  0  0  0  0
 18 19  1  0  0  0  0
 18 40  1  0  0  0  0
 19 20  2  0  0  0  0
 19 41  1  0  0  0  0
M  END
> <s_m_source_file>
AV-unprocessed.smi

> <i_m_source_file_index>
713

> <i_lp_mmshare_version>
43012

> <i_f3d_flags>
0

> <s_epik_input>
bjFbY0hdW2NIXVtjSF1uMVtDQEhdKFtDSDNdKUMoPU8pW05IXVtDQEBIXTJbQ0gyXVtDSDJdW0NIMl1bQ0BIXShbQ0gyXTIpUyg9TykoPU8pW0NIM10=

> <s_epik_cmdline>
J2VwaWtfcHl0aG9uJywgJy1waCcsICc3LjAnLCAnLXRuJywgJzgnLCAnLW1hJywgJzIwMCcsICctbWV0YWxfYmluZGluZycsICctaW1hZScsICc8aW5maWxlLm1hZT4nLCAnLW9tYWUnLCAnPG91dGZpbGUubWFlPic=

> <r_lp_tautomer_probability>
1

> <r_epik_Ionization_Penalty>
4.07816e-05

> <r_epik_Ionization_Penalty_Charging>
0

> <r_epik_Ionization_Penalty_Neutral>
4.07816e-05

> <r_epik_State_Penalty>
-0

> <r_epik_Charging_Adjusted_Penalty>
0

> <i_epik_Tot_Q>
0

> <i_epik_Tot_abs_Q>
0

> <r_epik_Metal_State_Penalty>
-0

> <b_epik_Metal_Only>
0

> <s_lp_Force_Field>
OPLS_2005

> <r_lp_Energy>
4.9413

> <b_lp_Chiralities_Consistent>
1

> <s_lp_Variant>
AV-unprocessed.smi:713-2

> <Gold.Version>
5.8.1

> <Gold.Id.Protein>
6NUR|6NUR_protein|mol2

> <Gold.PLP.Fitness>
43.5911

> <Gold.PLP.PLP>
-38.8171

> <Gold.PLP.part.hbond>
-2.0000

> <Gold.PLP.part.metal>
0.0000

> <Gold.PLP.part.buried>
-4.6667

> <Gold.PLP.part.nonpolar>
-32.1638

> <Gold.PLP.part.repulsive>
0.2526

> <Gold.PLP.ligand.clash>
0.0000

> <Gold.PLP.ligand.torsion>
0.3454

> <Gold.PLP.Chemscore.Hbond>
1.7280

> <Gold.PLP.Chemscore.CHOScore>
0.0000

> <Gold.PLP.Chemscore.Metal>
0.0000

> <Gold.Chemscore.Hbonds>
donor molecule, donor type, donor heavy atom, donor atom, acceptor molecule, acceptor atom, score
      P1  H  6896  6908       L1    14  0.36
      P1  H  7997  8009       L1     4  0.72

> <Gold.PLP.Chemscore.Internal.Correction>
0.2808

> <Gold.Rescore>
     Score         DG    S(hbond)    S(metal)    S(lipo)     H(rot)  DE(clash)    DE(int)     intcor
     16.30     -17.90       1.84        0.00      91.25       1.72       0.12       1.48       ----

> <Gold.Chemscore.Fitness>
16.3031

> <Gold.Chemscore.DG>
-17.9027

> <Gold.Chemscore.ZeroCoef>
-5.4800

> <Gold.Chemscore.Hbond>
1.8449

> <Gold.Chemscore.Metal>
0.0000

> <Gold.Chemscore.Lipo>
91.2518

> <Gold.Chemscore.Internal_Hbond>
0.0000

> <Gold.Chemscore.DEClash>
0.1186

> <Gold.Chemscore.DEInternal>
1.4811

> <Gold.Chemscore.Rot>
1.7249

> <Gold.Chemscore.Internal.Correction>
   9.000000E+99

> <Gold.Chemscore.Hbonds>
donor molecule, donor type, donor heavy atom, donor atom, acceptor molecule, acceptor atom, score
      P1  H  6896  6908       L1    14  0.03
      P1  H  7997  8009       L1     4  0.72

> <Gold.Chemscore.Hbond.Weighted>
-6.1619

> <Gold.Chemscore.Metal.Weighted>
-0.0000

> <Gold.Chemscore.Lipo.Weighted>
-10.6765

> <Gold.Chemscore.Internal_Hbond.Weighted>
0.0000

> <Gold.Chemscore.DEClash.Weighted>
0.1186

> <Gold.Chemscore.DEInternal.Weighted>
1.4811

> <Gold.Chemscore.Rot.Weighted>
4.4157

> <Gold.Chemscore.Internal.Correction.Weighted>
   9.000000E+99

> <Gold.Protein.RotatedTorsions>
[ 6907 6896 6895 6894 ] final -151.64 input  -60.11 | X-H torsion
[ 7974 7965 7964 7962 ] final    2.58 input  175.53 | X-H torsion
[ 8008 7997 7996 7995 ] final  129.61 input   59.86 | X-H torsion
[ 10167 10162 10161 10158 ] final  -51.17 input  -65.29 | X-H torsion
[ 10718 10713 10712 10709 ] final  125.14 input   66.30 | X-H torsion
[ 10763 10752 10751 10750 ] final  153.84 input  -60.55 | X-H torsion
[ 11005 11000 10999 10996 ] final  -83.78 input  -57.11 | X-H torsion

> <Gold.Protein.ActiveResidues>
 VAL166  LYS551  ARG553  GLY616  TRP617  ASP618  TYR619  PRO620  LYS621  CYS622 
 ASP623  PHE694  ASN695  SER759  ASP760  ASP761  ALA762  ILE779  LEU786  VAL792 
 PHE793  MET794  SER795  GLU796  ALA797  LYS798  CYS799  TRP800  GLU811  SER814 

> <Gold.Protein.RotatedAtoms>
  151.2161  133.4528  159.2599 H   0  0  0  0  0  0  0  0  0  0  0  0  # atno 6907 bound_to 6896
  151.0929  134.9927  159.8422 H   0  0  0  0  0  0  0  0  0  0  0  0  # atno 6908 bound_to 6896
  152.5436  134.2093  159.8796 H   0  0  0  0  0  0  0  0  0  0  0  0  # atno 6909 bound_to 6896
  146.2444  140.0814  142.8357 H   0  0  0  0  0  0  0  0  0  0  0  0  # atno 7974 bound_to 7965
  156.2939  140.2616  156.2627 H   0  0  0  0  0  0  0  0  0  0  0  0  # atno 8008 bound_to 7997
  154.9772  140.0390  157.2280 H   0  0  0  0  0  0  0  0  0  0  0  0  # atno 8009 bound_to 7997
  154.7804  140.2794  155.6072 H   0  0  0  0  0  0  0  0  0  0  0  0  # atno 8010 bound_to 7997
  140.6601  143.2629  151.4466 H   0  0  0  0  0  0  0  0  0  0  0  0  # atno 10167 bound_to 10162
  157.5527  131.1093  150.8674 H   0  0  0  0  0  0  0  0  0  0  0  0  # atno 10718 bound_to 10713
  154.1427  135.2820  155.3156 H   0  0  0  0  0  0  0  0  0  0  0  0  # atno 10763 bound_to 10752
  154.6275  135.5446  153.7647 H   0  0  0  0  0  0  0  0  0  0  0  0  # atno 10764 bound_to 10752
  153.0245  135.6454  154.1574 H   0  0  0  0  0  0  0  0  0  0  0  0  # atno 10765 bound_to 10752
  141.1655  133.7312  156.8770 H   0  0  0  0  0  0  0  0  0  0  0  0  # atno 11005 bound_to 11000
  145.0729  140.9168  143.4871 LP  0  0  0  0  0  0  0  0  0  0  0  0  # atno 17320 bound_to 7965
  145.0952  139.2862  143.5714 LP  0  0  0  0  0  0  0  0  0  0  0  0  # atno 17321 bound_to 7965
  139.5833  144.1660  152.1997 LP  0  0  0  0  0  0  0  0  0  0  0  0  # atno 17342 bound_to 10162
  140.0992  144.5554  150.7000 LP  0  0  0  0  0  0  0  0  0  0  0  0  # atno 17343 bound_to 10162
  156.9194  130.5309  149.5279 LP  0  0  0  0  0  0  0  0  0  0  0  0  # atno 17370 bound_to 10713
  156.0591  130.5647  150.9155 LP  0  0  0  0  0  0  0  0  0  0  0  0  # atno 17371 bound_to 10713
  140.1741  134.9079  157.2869 LP  0  0  0  0  0  0  0  0  0  0  0  0  # atno 17394 bound_to 11000
  140.2468  134.3730  155.7458 LP  0  0  0  0  0  0  0  0  0  0  0  0  # atno 17395 bound_to 11000

$$$$
