AV-unprocessed.smi:3327|AV-procd|sdf|12790|dock4
  -GOLD-   2272019143D 1   1.00000     0.00000
 Structure written by MMmdl.
 40 41  0  0  0  0  0  0  0  0  1 V2000
  151.4426  144.9759  158.7565 C   0  0  0  0  0  0  0  0  0  0  0  0
  152.1847  143.6325  158.7842 C   0  0  1  0  0  0  0  0  0  0  0  0
  153.0434  143.4848  160.0596 C   0  0  0  0  0  0  0  0  0  0  0  0
  153.6978  142.0936  160.1564 C   0  0  0  0  0  0  0  0  0  0  0  0
  152.6516  140.9828  159.9603 C   0  0  0  0  0  0  0  0  0  0  0  0
  151.9832  141.1896  158.6685 N   0  0  0  0  0  0  0  0  0  0  0  0
  152.1305  140.4075  157.5710 C   0  0  0  0  0  0  0  0  0  0  0  0
  152.8379  139.3979  157.5756 O   0  0  0  0  0  0  0  0  0  0  0  0
  151.3880  140.7928  156.2794 C   0  0  0  0  0  0  0  0  0  0  0  0
  150.7898  139.6439  155.5868 N   0  0  0  0  0  0  0  0  0  0  0  0
  151.8251  138.7548  155.0824 C   0  0  0  0  0  0  0  0  0  0  0  0
  151.1754  137.5761  154.3429 C   0  0  0  0  0  0  0  0  0  0  0  0
  150.8906  136.4737  155.2411 N   0  0  0  0  0  0  0  0  0  0  0  0
  149.7791  135.6579  155.2709 C   0  0  0  0  0  0  0  0  0  0  0  0
  149.9561  134.7671  156.2907 C   0  0  0  0  0  0  0  0  0  0  0  0
  151.2230  135.1222  156.8328 C   0  0  0  0  0  0  0  0  0  0  0  0
  151.7795  136.1444  156.2030 N   0  0  0  0  0  0  0  0  0  0  0  0
  151.2122  142.4402  158.6550 C   0  0  0  0  0  0  0  0  0  0  0  0
  150.7448  145.0616  159.5900 H   0  0  0  0  0  0  0  0  0  0  0  0
  150.8742  145.0910  157.8331 H   0  0  0  0  0  0  0  0  0  0  0  0
  152.1408  145.8108  158.8196 H   0  0  0  0  0  0  0  0  0  0  0  0
  152.8555  143.6109  157.9239 H   0  0  0  0  0  0  0  0  0  0  0  0
  153.8105  144.2590  160.0917 H   0  0  0  0  0  0  0  0  0  0  0  0
  152.4141  143.6392  160.9371 H   0  0  0  0  0  0  0  0  0  0  0  0
  154.4763  142.0001  159.3978 H   0  0  0  0  0  0  0  0  0  0  0  0
  154.1901  141.9793  161.1223 H   0  0  0  0  0  0  0  0  0  0  0  0
  153.1227  140.0067  160.0626 H   0  0  0  0  0  0  0  0  0  0  0  0
  151.9086  141.0275  160.7578 H   0  0  0  0  0  0  0  0  0  0  0  0
  150.5996  141.5049  156.5292 H   0  0  0  0  0  0  0  0  0  0  0  0
  152.0895  141.2892  155.6074 H   0  0  0  0  0  0  0  0  0  0  0  0
  150.1725  139.1286  156.1979 H   0  0  0  0  0  0  0  0  0  0  0  0
  152.4869  139.3024  154.4096 H   0  0  0  0  0  0  0  0  0  0  0  0
  152.4309  138.3850  155.9111 H   0  0  0  0  0  0  0  0  0  0  0  0
  150.2410  137.8886  153.8743 H   0  0  0  0  0  0  0  0  0  0  0  0
  151.8257  137.2160  153.5440 H   0  0  0  0  0  0  0  0  0  0  0  0
  148.9635  135.7784  154.5730 H   0  0  0  0  0  0  0  0  0  0  0  0
  149.2833  133.9817  156.6017 H   0  0  0  0  0  0  0  0  0  0  0  0
  151.7511  134.6709  157.6599 H   0  0  0  0  0  0  0  0  0  0  0  0
  150.5046  142.4363  159.4855 H   0  0  0  0  0  0  0  0  0  0  0  0
  150.6069  142.5496  157.7541 H   0  0  0  0  0  0  0  0  0  0  0  0
  1  2  1  0  0  0  0
  1 19  1  0  0  0  0
  1 20  1  0  0  0  0
  1 21  1  0  0  0  0
  2 18  1  0  0  0  0
  2  3  1  0  0  0  0
  2 22  1  0  0  0  0
  3  4  1  0  0  0  0
  3 23  1  0  0  0  0
  3 24  1  0  0  0  0
  4  5  1  0  0  0  0
  4 25  1  0  0  0  0
  4 26  1  0  0  0  0
  5  6  1  0  0  0  0
  5 27  1  0  0  0  0
  5 28  1  0  0  0  0
  6  7  1  0  0  0  0
  6 18  1  0  0  0  0
  7  8  2  0  0  0  0
  7  9  1  0  0  0  0
  9 10  1  0  0  0  0
  9 29  1  0  0  0  0
  9 30  1  0  0  0  0
 10 11  1  0  0  0  0
 10 31  1  0  0  0  0
 11 12  1  0  0  0  0
 11 32  1  0  0  0  0
 11 33  1  0  0  0  0
 12 13  1  0  0  0  0
 12 34  1  0  0  0  0
 12 35  1  0  0  0  0
 13 17  1  0  0  0  0
 13 14  1  0  0  0  0
 14 15  2  0  0  0  0
 14 36  1  0  0  0  0
 15 16  1  0  0  0  0
 15 37  1  0  0  0  0
 16 17  2  0  0  0  0
 16 38  1  0  0  0  0
 18 39  1  0  0  0  0
 18 40  1  0  0  0  0
M  END
> <s_m_source_file>
AV-unprocessed.smi

> <i_m_source_file_index>
3327

> <i_lp_mmshare_version>
43012

> <i_f3d_flags>
0

> <s_epik_input>
W0NIM11bQ0BASF0xW0NIMl1bQ0gyXVtDSDJdTihbQ0gyXTEpQyg9TylbQ0gyXVtOSF1bQ0gyXVtDSDJdbjJbY0hdW2NIXVtjSF1uMg==

> <s_epik_cmdline>
J2VwaWtfcHl0aG9uJywgJy1waCcsICc3LjAnLCAnLXRuJywgJzgnLCAnLW1hJywgJzIwMCcsICctbWV0YWxfYmluZGluZycsICctaW1hZScsICc8aW5maWxlLm1hZT4nLCAnLW9tYWUnLCAnPG91dGZpbGUubWFlPic=

> <r_lp_tautomer_probability>
1

> <r_epik_Ionization_Penalty>
0.752964

> <r_epik_Ionization_Penalty_Charging>
0

> <r_epik_Ionization_Penalty_Neutral>
0.752964

> <r_epik_State_Penalty>
0.778238

> <r_epik_Charging_Adjusted_Penalty>
0.778238

> <i_epik_Tot_Q>
0

> <i_epik_Tot_abs_Q>
0

> <r_epik_Metal_State_Penalty>
0.776974

> <b_epik_Metal_Only>
0

> <s_lp_Force_Field>
OPLS_2005

> <r_lp_Energy>
25.5335

> <b_lp_Chiralities_Consistent>
1

> <s_lp_Variant>
AV-unprocessed.smi:3327-4

> <Gold.Version>
5.8.1

> <Gold.Id.Protein>
6NUR|6NUR_protein|mol2

> <Gold.PLP.Fitness>
48.0384

> <Gold.PLP.PLP>
-40.6320

> <Gold.PLP.part.hbond>
-2.0000

> <Gold.PLP.part.metal>
0.0000

> <Gold.PLP.part.buried>
-4.2252

> <Gold.PLP.part.nonpolar>
-34.5304

> <Gold.PLP.part.repulsive>
0.0310

> <Gold.PLP.ligand.clash>
0.0000

> <Gold.PLP.ligand.torsion>
0.7193

> <Gold.PLP.Chemscore.Hbond>
2.0000

> <Gold.PLP.Chemscore.CHOScore>
0.9302

> <Gold.PLP.Chemscore.Metal>
0.0000

> <Gold.Chemscore.Hbonds>
donor molecule, donor type, donor heavy atom, donor atom, acceptor molecule, acceptor atom, score
      P1  H  7997  8008       L1     8  0.95
      P1  H 10752 10763       L1    17  0.95
      L1  C    14    36       P1  7948  0.50

> <Gold.PLP.Chemscore.Internal.Correction>
0.0545

> <Gold.Rescore>
     Score         DG    S(hbond)    S(metal)    S(lipo)     H(rot)  DE(clash)    DE(int)     intcor
     16.93     -18.56       1.85        0.00      96.88       1.73       0.05       1.57       ----

> <Gold.Chemscore.Fitness>
16.9350

> <Gold.Chemscore.DG>
-18.5599

> <Gold.Chemscore.ZeroCoef>
-5.4800

> <Gold.Chemscore.Hbond>
1.8481

> <Gold.Chemscore.Metal>
0.0000

> <Gold.Chemscore.Lipo>
96.8809

> <Gold.Chemscore.Internal_Hbond>
0.0000

> <Gold.Chemscore.DEClash>
0.0528

> <Gold.Chemscore.DEInternal>
1.5722

> <Gold.Chemscore.Rot>
1.7296

> <Gold.Chemscore.Internal.Correction>
   9.000000E+99

> <Gold.Chemscore.Hbonds>
donor molecule, donor type, donor heavy atom, donor atom, acceptor molecule, acceptor atom, score
      P1  H  7997  8008       L1     8  0.21
      P1  H 10752 10763       L1    17  0.14

> <Gold.Chemscore.Hbond.Weighted>
-6.1727

> <Gold.Chemscore.Metal.Weighted>
-0.0000

> <Gold.Chemscore.Lipo.Weighted>
-11.3351

> <Gold.Chemscore.Internal_Hbond.Weighted>
0.0000

> <Gold.Chemscore.DEClash.Weighted>
0.0528

> <Gold.Chemscore.DEInternal.Weighted>
1.5722

> <Gold.Chemscore.Rot.Weighted>
4.4278

> <Gold.Chemscore.Internal.Correction.Weighted>
   9.000000E+99

> <Gold.Protein.RotatedTorsions>
[ 6907 6896 6895 6894 ] final   15.15 input  -60.11 | X-H torsion
[ 7974 7965 7964 7962 ] final   86.19 input  175.53 | X-H torsion
[ 8008 7997 7996 7995 ] final  -57.00 input   59.86 | X-H torsion
[ 10167 10162 10161 10158 ] final  -85.16 input  -65.29 | X-H torsion
[ 10718 10713 10712 10709 ] final -126.01 input   66.30 | X-H torsion
[ 10763 10752 10751 10750 ] final   92.22 input  -60.55 | X-H torsion
[ 11005 11000 10999 10996 ] final  147.73 input  -57.11 | X-H torsion

> <Gold.Protein.ActiveResidues>
 VAL166  LYS551  ARG553  GLY616  TRP617  ASP618  TYR619  PRO620  LYS621  CYS622 
 ASP623  PHE694  ASN695  SER759  ASP760  ASP761  ALA762  ILE779  LEU786  VAL792 
 PHE793  MET794  SER795  GLU796  ALA797  LYS798  CYS799  TRP800  GLU811  SER814 

> <Gold.Protein.RotatedAtoms>
  151.8135  135.0674  160.0415 H   0  0  0  0  0  0  0  0  0  0  0  0  # atno 6907 bound_to 6896
  152.3003  133.5644  159.5623 H   0  0  0  0  0  0  0  0  0  0  0  0  # atno 6908 bound_to 6896
  150.7270  134.0217  159.3745 H   0  0  0  0  0  0  0  0  0  0  0  0  # atno 6909 bound_to 6896
  145.5755  139.2319  143.2382 H   0  0  0  0  0  0  0  0  0  0  0  0  # atno 7974 bound_to 7965
  154.4251  140.1117  156.5727 H   0  0  0  0  0  0  0  0  0  0  0  0  # atno 8008 bound_to 7997
  155.6195  140.3495  155.4628 H   0  0  0  0  0  0  0  0  0  0  0  0  # atno 8009 bound_to 7997
  156.0035  140.1204  157.0513 H   0  0  0  0  0  0  0  0  0  0  0  0  # atno 8010 bound_to 7997
  140.4064  143.2641  151.9075 H   0  0  0  0  0  0  0  0  0  0  0  0  # atno 10167 bound_to 10162
  156.1727  130.6678  151.0201 H   0  0  0  0  0  0  0  0  0  0  0  0  # atno 10718 bound_to 10713
  153.2168  135.4369  155.0444 H   0  0  0  0  0  0  0  0  0  0  0  0  # atno 10763 bound_to 10752
  154.8229  135.3346  154.6986 H   0  0  0  0  0  0  0  0  0  0  0  0  # atno 10764 bound_to 10752
  153.7420  135.7004  153.5020 H   0  0  0  0  0  0  0  0  0  0  0  0  # atno 10765 bound_to 10752
  140.0900  134.9046  157.1636 H   0  0  0  0  0  0  0  0  0  0  0  0  # atno 11005 bound_to 11000
  146.1753  140.6582  142.9214 LP  0  0  0  0  0  0  0  0  0  0  0  0  # atno 17320 bound_to 7965
  144.7418  140.4961  143.6864 LP  0  0  0  0  0  0  0  0  0  0  0  0  # atno 17321 bound_to 7965
  139.4783  144.5582  151.8281 LP  0  0  0  0  0  0  0  0  0  0  0  0  # atno 17342 bound_to 10162
  140.4685  144.1621  150.5915 LP  0  0  0  0  0  0  0  0  0  0  0  0  # atno 17343 bound_to 10162
  157.6814  131.0837  150.7360 LP  0  0  0  0  0  0  0  0  0  0  0  0  # atno 17370 bound_to 10713
  156.7418  130.4741  149.5476 LP  0  0  0  0  0  0  0  0  0  0  0  0  # atno 17371 bound_to 10713
  140.3365  134.2751  155.7219 LP  0  0  0  0  0  0  0  0  0  0  0  0  # atno 17394 bound_to 11000
  141.2075  133.7804  157.0116 LP  0  0  0  0  0  0  0  0  0  0  0  0  # atno 17395 bound_to 11000

$$$$
