AV-unprocessed.smi:229|AV-procd|sdf|1757|dock10
  -GOLD-   2262020283D 1   1.00000     0.00000
 Structure written by MMmdl.
 58 62  0  0  0  0  0  0  0  0  1 V2000
  152.9627  131.9044  156.9277 C   0  0  0  0  0  0  0  0  0  0  0  0
  151.4648  132.2343  156.9188 C   0  0  0  0  0  0  0  0  0  0  0  0
  151.0708  133.1952  155.7873 C   0  0  2  0  0  0  0  0  0  0  0  0
  151.2931  134.6656  156.1800 C   0  0  0  0  0  0  0  0  0  0  0  0
  150.8123  135.5390  155.1157 N   0  0  0  0  0  0  0  0  0  0  0  0
  151.1880  136.8424  155.1304 C   0  0  0  0  0  0  0  0  0  0  0  0
  152.1787  137.2750  154.3051 N   0  0  0  0  0  0  0  0  0  0  0  0
  152.5585  138.5563  154.3202 C   0  0  0  0  0  0  0  0  0  0  0  0
  152.0883  139.5581  155.0661 N   0  0  0  0  0  0  0  0  0  0  0  0
  151.0883  139.1321  155.8893 C   0  0  0  0  0  0  0  0  0  0  0  0
  150.5813  137.8054  155.9854 C   0  0  0  0  0  0  0  0  0  0  0  0
  149.5565  137.7583  156.9241 N   0  0  0  0  0  0  0  0  0  0  0  0
  149.4687  138.9844  157.3627 C   0  0  0  0  0  0  0  0  0  0  0  0
  150.3501  139.8748  156.7929 N   0  0  0  0  0  0  0  0  0  0  0  0
  150.4673  141.2932  157.0827 C   0  0  0  0  0  0  0  0  0  0  0  0
  151.1020  141.5600  158.4619 C   0  0  1  0  0  0  0  0  0  0  0  0
  152.4987  141.3455  158.3818 O   0  0  0  0  0  0  0  0  0  0  0  0
  150.8488  142.9970  158.9539 C   0  0  2  0  0  0  0  0  0  0  0  0
  151.5468  144.0821  158.1312 C   0  0  0  0  0  0  0  0  0  0  0  0
  151.7151  145.2312  159.1136 C   0  0  0  0  0  0  0  0  0  0  0  0
  151.4406  144.5972  160.4796 C   0  0  0  0  0  0  0  0  0  0  0  0
  151.4175  143.1978  160.2385 O   0  0  0  0  0  0  0  0  0  0  0  0
  149.4155  135.3014  154.7707 C   0  0  0  0  0  0  0  0  0  0  0  0
  149.1785  133.8135  154.4289 C   0  0  2  0  0  0  0  0  0  0  0  0
  149.7547  133.4005  153.0696 C   0  0  0  0  0  0  0  0  0  0  0  0
  148.5349  133.3402  152.1614 C   0  0  0  0  0  0  0  0  0  0  0  0
  147.5407  132.8296  153.0292 O   0  0  0  0  0  0  0  0  0  0  0  0
  147.6760  133.5133  154.2671 C   0  0  0  0  0  0  0  0  0  0  0  0
  149.6881  132.9962  155.4872 O   0  0  0  0  0  0  0  0  0  0  0  0
  153.2074  131.2340  157.7518 H   0  0  0  0  0  0  0  0  0  0  0  0
  153.5642  132.8064  157.0422 H   0  0  0  0  0  0  0  0  0  0  0  0
  153.2655  131.4151  156.0016 H   0  0  0  0  0  0  0  0  0  0  0  0
  150.8889  131.3118  156.8368 H   0  0  0  0  0  0  0  0  0  0  0  0
  151.1982  132.6785  157.8787 H   0  0  0  0  0  0  0  0  0  0  0  0
  151.6777  132.9655  154.9104 H   0  0  0  0  0  0  0  0  0  0  0  0
  150.7613  134.8950  157.1048 H   0  0  0  0  0  0  0  0  0  0  0  0
  152.3546  134.8410  156.3606 H   0  0  0  0  0  0  0  0  0  0  0  0
  153.3535  138.8162  153.6369 H   0  0  0  0  0  0  0  0  0  0  0  0
  148.7492  139.2759  158.1140 H   0  0  0  0  0  0  0  0  0  0  0  0
  151.0545  141.7646  156.2933 H   0  0  0  0  0  0  0  0  0  0  0  0
  149.4700  141.7319  157.0330 H   0  0  0  0  0  0  0  0  0  0  0  0
  150.6953  140.8535  159.1870 H   0  0  0  0  0  0  0  0  0  0  0  0
  152.7014  141.0092  157.5222 H   0  0  0  0  0  0  0  0  0  0  0  0
  149.7773  143.2007  159.0078 H   0  0  0  0  0  0  0  0  0  0  0  0
  152.5290  143.7364  157.8055 H   0  0  0  0  0  0  0  0  0  0  0  0
  150.9802  144.3637  157.2430 H   0  0  0  0  0  0  0  0  0  0  0  0
  152.7226  145.6448  159.0569 H   0  0  0  0  0  0  0  0  0  0  0  0
  151.0090  146.0378  158.9139 H   0  0  0  0  0  0  0  0  0  0  0  0
  152.1951  144.8567  161.2225 H   0  0  0  0  0  0  0  0  0  0  0  0
  150.4672  144.9118  160.8590 H   0  0  0  0  0  0  0  0  0  0  0  0
  148.8026  135.5849  155.6274 H   0  0  0  0  0  0  0  0  0  0  0  0
  149.0928  135.9262  153.9384 H   0  0  0  0  0  0  0  0  0  0  0  0
  150.5243  134.0764  152.6946 H   0  0  0  0  0  0  0  0  0  0  0  0
  150.1915  132.4030  153.1326 H   0  0  0  0  0  0  0  0  0  0  0  0
  148.2516  134.3351  151.8143 H   0  0  0  0  0  0  0  0  0  0  0  0
  148.6843  132.6972  151.2938 H   0  0  0  0  0  0  0  0  0  0  0  0
  147.2733  132.9151  155.0850 H   0  0  0  0  0  0  0  0  0  0  0  0
  147.0920  134.4337  154.2157 H   0  0  0  0  0  0  0  0  0  0  0  0
  1  2  1  0  0  0  0
  1 30  1  0  0  0  0
  1 31  1  0  0  0  0
  1 32  1  0  0  0  0
  2  3  1  0  0  0  0
  2 33  1  0  0  0  0
  2 34  1  0  0  0  0
  3 29  1  0  0  0  0
  3  4  1  0  0  0  0
  3 35  1  0  0  0  0
  4  5  1  0  0  0  0
  4 36  1  0  0  0  0
  4 37  1  0  0  0  0
  5  6  1  0  0  0  0
  5 23  1  0  0  0  0
  6 11  1  0  0  0  0
  6  7  2  0  0  0  0
  7  8  1  0  0  0  0
  8  9  2  0  0  0  0
  8 38  1  0  0  0  0
  9 10  1  0  0  0  0
 10 14  1  0  0  0  0
 10 11  2  0  0  0  0
 11 12  1  0  0  0  0
 12 13  2  0  0  0  0
 13 14  1  0  0  0  0
 13 39  1  0  0  0  0
 14 15  1  0  0  0  0
 15 16  1  0  0  0  0
 15 40  1  0  0  0  0
 15 41  1  0  0  0  0
 16 17  1  0  0  0  0
 16 18  1  0  0  0  0
 16 42  1  0  0  0  0
 17 43  1  0  0  0  0
 18 22  1  0  0  0  0
 18 19  1  0  0  0  0
 18 44  1  0  0  0  0
 19 20  1  0  0  0  0
 19 45  1  0  0  0  0
 19 46  1  0  0  0  0
 20 21  1  0  0  0  0
 20 47  1  0  0  0  0
 20 48  1  0  0  0  0
 21 22  1  0  0  0  0
 21 49  1  0  0  0  0
 21 50  1  0  0  0  0
 23 24  1  0  0  0  0
 23 51  1  0  0  0  0
 23 52  1  0  0  0  0
 24 28  1  0  0  0  0
 24 25  1  0  0  0  0
 24 29  1  0  0  0  0
 25 26  1  0  0  0  0
 25 53  1  0  0  0  0
 25 54  1  0  0  0  0
 26 27  1  0  0  0  0
 26 55  1  0  0  0  0
 26 56  1  0  0  0  0
 27 28  1  0  0  0  0
 28 57  1  0  0  0  0
 28 58  1  0  0  0  0
M  END
> <s_m_source_file>
AV-unprocessed.smi

> <i_m_source_file_index>
229

> <i_lp_mmshare_version>
43012

> <i_f3d_flags>
0

> <s_epik_input>
W0NIMl0xT1tDSDJdW0NIMl1bQ0BdMTJbQ0gyXU4oW0NIMl1bQ0BIXShPMilbQ0gyXVtDSDNdKWMobltjSF1uMyljKGMzNCluW2NIXW40W0NIMl1bQ0BIXShbT0hdKVtDQEBIXTVbQ0gyXVtDSDJdW0NIMl1PNQ==

> <s_epik_cmdline>
J2VwaWtfcHl0aG9uJywgJy1waCcsICc3LjAnLCAnLXRuJywgJzgnLCAnLW1hJywgJzIwMCcsICctbWV0YWxfYmluZGluZycsICctaW1hZScsICc8aW5maWxlLm1hZT4nLCAnLW9tYWUnLCAnPG91dGZpbGUubWFlPic=

> <r_lp_tautomer_probability>
1

> <r_epik_Ionization_Penalty>
0.00318402

> <r_epik_Ionization_Penalty_Charging>
0

> <r_epik_Ionization_Penalty_Neutral>
0.00318402

> <r_epik_State_Penalty>
0.00215642

> <r_epik_Charging_Adjusted_Penalty>
0.00215642

> <i_epik_Tot_Q>
0

> <i_epik_Tot_abs_Q>
0

> <r_epik_Metal_State_Penalty>
-0

> <b_epik_Metal_Only>
0

> <s_lp_Force_Field>
OPLS_2005

> <r_lp_Energy>
53.2063

> <b_lp_Chiralities_Consistent>
1

> <s_lp_Variant>
AV-unprocessed.smi:229-11

> <Gold.Version>
5.8.1

> <Gold.Id.Protein>
6NUR|6NUR_protein|mol2

> <Gold.PLP.Fitness>
47.8052

> <Gold.PLP.PLP>
-44.4051

> <Gold.PLP.part.hbond>
-1.8384

> <Gold.PLP.part.metal>
0.0000

> <Gold.PLP.part.buried>
-6.7213

> <Gold.PLP.part.nonpolar>
-36.3388

> <Gold.PLP.part.repulsive>
0.4253

> <Gold.PLP.ligand.clash>
0.0000

> <Gold.PLP.ligand.torsion>
0.8130

> <Gold.PLP.Chemscore.Hbond>
1.5569

> <Gold.PLP.Chemscore.CHOScore>
0.0000

> <Gold.PLP.Chemscore.Metal>
0.0000

> <Gold.Chemscore.Hbonds>
donor molecule, donor type, donor heavy atom, donor atom, acceptor molecule, acceptor atom, score
      P1  H  7989  7998       L1     9  0.66
      P1  H 10752 10764       L1     7  0.20

> <Gold.PLP.Chemscore.Internal.Correction>
0.3553

> <Gold.Rescore>
     Score         DG    S(hbond)    S(metal)    S(lipo)     H(rot)  DE(clash)    DE(int)     intcor
     13.21     -14.13       0.90        0.00     102.08       2.46       0.09       0.83       ----

> <Gold.Chemscore.Fitness>
13.2116

> <Gold.Chemscore.DG>
-14.1267

> <Gold.Chemscore.ZeroCoef>
-5.4800

> <Gold.Chemscore.Hbond>
0.8977

> <Gold.Chemscore.Metal>
0.0000

> <Gold.Chemscore.Lipo>
102.0817

> <Gold.Chemscore.Internal_Hbond>
0.0000

> <Gold.Chemscore.DEClash>
0.0867

> <Gold.Chemscore.DEInternal>
0.8284

> <Gold.Chemscore.Rot>
2.4591

> <Gold.Chemscore.Internal.Correction>
   9.000000E+99

> <Gold.Chemscore.Hbonds>
donor molecule, donor type, donor heavy atom, donor atom, acceptor molecule, acceptor atom, score
      P1  H  7989  7998       L1     9  0.11

> <Gold.Chemscore.Hbond.Weighted>
-2.9984

> <Gold.Chemscore.Metal.Weighted>
-0.0000

> <Gold.Chemscore.Lipo.Weighted>
-11.9436

> <Gold.Chemscore.Internal_Hbond.Weighted>
0.0000

> <Gold.Chemscore.DEClash.Weighted>
0.0867

> <Gold.Chemscore.DEInternal.Weighted>
0.8284

> <Gold.Chemscore.Rot.Weighted>
6.2953

> <Gold.Chemscore.Internal.Correction.Weighted>
   9.000000E+99

> <Gold.Protein.RotatedTorsions>
[ 6907 6896 6895 6894 ] final  -83.97 input  -60.11 | X-H torsion
[ 7974 7965 7964 7962 ] final  177.36 input  175.53 | X-H torsion
[ 8008 7997 7996 7995 ] final  -24.62 input   59.86 | X-H torsion
[ 10167 10162 10161 10158 ] final   33.32 input  -65.29 | X-H torsion
[ 10718 10713 10712 10709 ] final  131.72 input   66.30 | X-H torsion
[ 10763 10752 10751 10750 ] final  -59.14 input  -60.55 | X-H torsion
[ 11005 11000 10999 10996 ] final   86.94 input  -57.11 | X-H torsion

> <Gold.Protein.ActiveResidues>
 VAL166  LYS551  ARG553  GLY616  TRP617  ASP618  TYR619  PRO620  LYS621  CYS622 
 ASP623  PHE694  ASN695  SER759  ASP760  ASP761  ALA762  ILE779  LEU786  VAL792 
 PHE793  MET794  SER795  GLU796  ALA797  LYS798  CYS799  TRP800  GLU811  SER814 

> <Gold.Protein.RotatedAtoms>
  150.6880  134.3431  159.4876 H   0  0  0  0  0  0  0  0  0  0  0  0  # atno 6907 bound_to 6896
  152.1281  134.9153  160.0569 H   0  0  0  0  0  0  0  0  0  0  0  0  # atno 6908 bound_to 6896
  152.0333  133.3911  159.4343 H   0  0  0  0  0  0  0  0  0  0  0  0  # atno 6909 bound_to 6896
  144.7170  140.0235  143.6440 H   0  0  0  0  0  0  0  0  0  0  0  0  # atno 7974 bound_to 7965
  154.4519  140.1948  156.0493 H   0  0  0  0  0  0  0  0  0  0  0  0  # atno 8008 bound_to 7997
  156.0666  140.3290  155.7498 H   0  0  0  0  0  0  0  0  0  0  0  0  # atno 8009 bound_to 7997
  155.5329  140.0579  157.2876 H   0  0  0  0  0  0  0  0  0  0  0  0  # atno 8010 bound_to 7997
  140.4418  144.1176  150.6175 H   0  0  0  0  0  0  0  0  0  0  0  0  # atno 10167 bound_to 10162
  157.4941  131.1091  150.9517 H   0  0  0  0  0  0  0  0  0  0  0  0  # atno 10718 bound_to 10713
  154.2491  135.6329  153.5234 H   0  0  0  0  0  0  0  0  0  0  0  0  # atno 10763 bound_to 10752
  152.9915  135.5560  154.5827 H   0  0  0  0  0  0  0  0  0  0  0  0  # atno 10764 bound_to 10752
  154.5350  135.2891  155.1121 H   0  0  0  0  0  0  0  0  0  0  0  0  # atno 10765 bound_to 10752
  139.8932  134.8389  156.2791 H   0  0  0  0  0  0  0  0  0  0  0  0  # atno 11005 bound_to 11000
  146.0161  139.3211  143.0841 LP  0  0  0  0  0  0  0  0  0  0  0  0  # atno 17320 bound_to 7965
  145.8624  140.9468  143.0693 LP  0  0  0  0  0  0  0  0  0  0  0  0  # atno 17321 bound_to 7965
  140.4309  143.2568  151.9596 LP  0  0  0  0  0  0  0  0  0  0  0  0  # atno 17342 bound_to 10162
  139.4790  144.5744  151.8035 LP  0  0  0  0  0  0  0  0  0  0  0  0  # atno 17343 bound_to 10162
  157.0209  130.5673  149.5331 LP  0  0  0  0  0  0  0  0  0  0  0  0  # atno 17370 bound_to 10713
  156.0190  130.5285  150.8220 LP  0  0  0  0  0  0  0  0  0  0  0  0  # atno 17371 bound_to 10713
  141.0051  133.7128  156.1021 LP  0  0  0  0  0  0  0  0  0  0  0  0  # atno 17394 bound_to 11000
  140.7445  134.4113  157.5550 LP  0  0  0  0  0  0  0  0  0  0  0  0  # atno 17395 bound_to 11000

$$$$
