AV-unprocessed.smi:99|AV-procd|sdf|890|dock10
  -GOLD-   2262017373D 1   1.00000     0.00000
 Structure written by MMmdl.
 52 55  0  0  0  0  0  0  0  0  2 V2000
  151.3423  137.1788  154.6623 O   0  0  0  0  0  0  0  0  0  0  0  0
  150.2472  137.4609  155.1525 C   0  0  0  0  0  0  0  0  0  0  0  0
  149.6340  136.7146  156.0876 O   0  0  0  0  0  0  0  0  0  0  0  0
  150.1773  135.4663  156.4869 C   0  0  0  0  0  0  0  0  0  0  0  0
  149.0563  134.5593  157.0125 C   0  0  1  0  0  0  0  0  0  0  0  0
  149.1731  134.3809  158.4146 O   0  0  0  0  0  0  0  0  0  0  0  0
  147.9191  134.0988  158.9581 C   0  0  1  0  0  0  0  0  0  0  0  0
  147.7521  134.9254  160.2164 N   0  0  0  0  0  0  0  0  0  0  0  0
  147.4595  134.3108  161.4218 C   0  0  0  0  0  0  0  0  0  0  0  0
  147.3148  135.0232  162.5575 C   0  0  0  0  0  0  0  0  0  0  0  0
  147.4706  136.4745  162.5161 C   0  0  0  0  0  0  0  0  0  0  0  0
  147.3256  137.1188  163.5531 O   0  0  0  0  0  0  0  0  0  0  0  0
  147.7743  137.0550  161.3188 N   0  5  0  0  0  0  0  0  0  0  0  0
  147.9309  136.3345  160.1699 C   0  0  0  0  0  0  0  0  0  0  0  0
  148.2351  136.8447  159.0914 O   0  0  0  0  0  0  0  0  0  0  0  0
  146.8416  134.4027  157.8892 C   0  0  1  0  0  0  0  0  0  0  0  0
  145.7936  135.2484  158.3265 O   0  0  0  0  0  0  0  0  0  0  0  0
  147.6384  135.0853  156.7861 C   0  0  2  0  0  0  0  0  0  0  0  0
  147.1832  134.6765  155.5026 O   0  0  0  0  0  0  0  0  0  0  0  0
  147.1977  133.3744  155.1465 C   0  0  0  0  0  0  0  0  0  0  0  0
  147.5524  132.4616  155.8949 O   0  0  0  0  0  0  0  0  0  0  0  0
  146.7334  133.1536  153.7464 C   0  0  0  0  0  0  0  0  0  0  0  0
  146.6755  131.8360  153.2352 C   0  0  0  0  0  0  0  0  0  0  0  0
  146.2408  131.5963  151.9173 C   0  0  0  0  0  0  0  0  0  0  0  0
  145.8597  132.6713  151.0936 C   0  0  0  0  0  0  0  0  0  0  0  0
  145.9136  133.9870  151.5898 C   0  0  0  0  0  0  0  0  0  0  0  0
  146.3472  134.2286  152.9081 C   0  0  0  0  0  0  0  0  0  0  0  0
  149.4615  138.6721  154.7787 C   0  0  0  0  0  0  0  0  0  0  0  0
  148.2057  138.5167  154.1471 C   0  0  0  0  0  0  0  0  0  0  0  0
  147.4449  139.6429  153.7775 C   0  0  0  0  0  0  0  0  0  0  0  0
  147.9304  140.9383  154.0356 C   0  0  0  0  0  0  0  0  0  0  0  0
  149.1768  141.1063  154.6664 C   0  0  0  0  0  0  0  0  0  0  0  0
  149.9379  139.9814  155.0385 C   0  0  0  0  0  0  0  0  0  0  0  0
  150.6663  134.9986  155.6315 H   0  0  0  0  0  0  0  0  0  0  0  0
  150.9330  135.6094  157.2603 H   0  0  0  0  0  0  0  0  0  0  0  0
  149.1523  133.5686  156.5646 H   0  0  0  0  0  0  0  0  0  0  0  0
  147.9218  133.0536  159.2691 H   0  0  0  0  0  0  0  0  0  0  0  0
  147.3477  133.2389  161.4633 H   0  0  0  0  0  0  0  0  0  0  0  0
  147.0884  134.5254  163.4889 H   0  0  0  0  0  0  0  0  0  0  0  0
  146.4343  133.4501  157.5472 H   0  0  0  0  0  0  0  0  0  0  0  0
  146.1601  136.0972  158.5253 H   0  0  0  0  0  0  0  0  0  0  0  0
  147.6192  136.1676  156.9224 H   0  0  0  0  0  0  0  0  0  0  0  0
  146.9633  130.9942  153.8485 H   0  0  0  0  0  0  0  0  0  0  0  0
  146.1999  130.5856  151.5383 H   0  0  0  0  0  0  0  0  0  0  0  0
  145.5267  132.4871  150.0828 H   0  0  0  0  0  0  0  0  0  0  0  0
  145.6217  134.8131  150.9582 H   0  0  0  0  0  0  0  0  0  0  0  0
  146.3768  135.2506  153.2569 H   0  0  0  0  0  0  0  0  0  0  0  0
  147.8136  137.5322  153.9364 H   0  0  0  0  0  0  0  0  0  0  0  0
  146.4879  139.5120  153.2942 H   0  0  0  0  0  0  0  0  0  0  0  0
  147.3473  141.8017  153.7513 H   0  0  0  0  0  0  0  0  0  0  0  0
  149.5504  142.0995  154.8671 H   0  0  0  0  0  0  0  0  0  0  0  0
  150.8869  140.1475  155.5266 H   0  0  0  0  0  0  0  0  0  0  0  0
  1  2  2  0  0  0  0
  2  3  1  0  0  0  0
  2 28  1  0  0  0  0
  3  4  1  0  0  0  0
  4  5  1  0  0  0  0
  4 34  1  0  0  0  0
  4 35  1  0  0  0  0
  5 18  1  0  0  0  0
  5  6  1  0  0  0  0
  5 36  1  0  0  0  0
  6  7  1  0  0  0  0
  7  8  1  0  0  0  0
  7 16  1  0  0  0  0
  7 37  1  0  0  0  0
  8 14  1  0  0  0  0
  8  9  1  0  0  0  0
  9 10  2  0  0  0  0
  9 38  1  0  0  0  0
 10 11  1  0  0  0  0
 10 39  1  0  0  0  0
 11 12  2  0  0  0  0
 11 13  1  0  0  0  0
 13 14  1  0  0  0  0
 14 15  2  0  0  0  0
 16 17  1  0  0  0  0
 16 18  1  0  0  0  0
 16 40  1  0  0  0  0
 17 41  1  0  0  0  0
 18 19  1  0  0  0  0
 18 42  1  0  0  0  0
 19 20  1  0  0  0  0
 20 21  2  0  0  0  0
 20 22  1  0  0  0  0
 22 27  1  0  0  0  0
 22 23  2  0  0  0  0
 23 24  1  0  0  0  0
 23 43  1  0  0  0  0
 24 25  2  0  0  0  0
 24 44  1  0  0  0  0
 25 26  1  0  0  0  0
 25 45  1  0  0  0  0
 26 27  2  0  0  0  0
 26 46  1  0  0  0  0
 27 47  1  0  0  0  0
 28 33  1  0  0  0  0
 28 29  2  0  0  0  0
 29 30  1  0  0  0  0
 29 48  1  0  0  0  0
 30 31  2  0  0  0  0
 30 49  1  0  0  0  0
 31 32  1  0  0  0  0
 31 50  1  0  0  0  0
 32 33  2  0  0  0  0
 32 51  1  0  0  0  0
 33 52  1  0  0  0  0
M  CHG  1  13  -1
M  END
> <s_m_source_file>
AV-unprocessed.smi

> <i_m_source_file_index>
99

> <i_lp_mmshare_version>
43012

> <i_f3d_flags>
0

> <s_epik_input>
W2NIXTFbY0hdW2NIXVtjSF1bY0hdYzFDKD1PKU9bQ0gyXVtDQEBIXTJPW0NAQEhdKG4zW2NIXVtjSF1jKD1PKVtuSF1jMz1PKVtDQEBIXShbT0hdKVtDQEhdMk9DKD1PKWM0W2NIXVtjSF1bY0hdW2NIXVtjSF00

> <s_epik_cmdline>
J2VwaWtfcHl0aG9uJywgJy1waCcsICc3LjAnLCAnLXRuJywgJzgnLCAnLW1hJywgJzIwMCcsICctbWV0YWxfYmluZGluZycsICctaW1hZScsICc8aW5maWxlLm1hZT4nLCAnLW9tYWUnLCAnPG91dGZpbGUubWFlPic=

> <r_lp_tautomer_probability>
1

> <r_epik_Ionization_Penalty>
2.89159

> <r_epik_Ionization_Penalty_Charging>
2.1077e-08

> <r_epik_Ionization_Penalty_Neutral>
2.89159

> <r_epik_State_Penalty>
2.88671

> <r_epik_Charging_Adjusted_Penalty>
2.88671

> <i_epik_Tot_Q>
-1

> <i_epik_Tot_abs_Q>
1

> <r_epik_Metal_State_Penalty>
0.0727308

> <b_epik_Metal_Only>
1

> <s_epik_Chemistry_Notes>
This compound has an ester and may undergo hydrolysis at high or low pH. This compound contains an acetal/aminal-like group ( X-CH(R)-Y where X, Y are N, S, or O) that may be acid/base labile, releasing an aldehyde.

> <s_lp_Force_Field>
OPLS_2005

> <r_lp_Energy>
45.1404

> <b_lp_Chiralities_Consistent>
1

> <s_lp_Variant>
AV-unprocessed.smi:99-26

> <Gold.Version>
5.8.1

> <Gold.Id.Protein>
6NUR|6NUR_protein|mol2

> <Gold.PLP.Fitness>
55.6594

> <Gold.PLP.PLP>
-43.6340

> <Gold.PLP.part.hbond>
-4.3350

> <Gold.PLP.part.metal>
0.0000

> <Gold.PLP.part.buried>
-4.7449

> <Gold.PLP.part.nonpolar>
-36.5036

> <Gold.PLP.part.repulsive>
0.2481

> <Gold.PLP.ligand.clash>
0.0000

> <Gold.PLP.ligand.torsion>
2.1733

> <Gold.PLP.Chemscore.Hbond>
5.3229

> <Gold.PLP.Chemscore.CHOScore>
0.0000

> <Gold.PLP.Chemscore.Metal>
0.0000

> <Gold.Chemscore.Hbonds>
donor molecule, donor type, donor heavy atom, donor atom, acceptor molecule, acceptor atom, score
      P1  H  6896  6909       L1     6  1.00
      P1  H  6931  6943       L1    13  1.90
      P1  H  6934  6947       L1    13  1.41
      P1  H 10752 10765       L1     1  0.52

> <Gold.PLP.Chemscore.Internal.Correction>
0.4035

> <Gold.Rescore>
     Score         DG    S(hbond)    S(metal)    S(lipo)     H(rot)  DE(clash)    DE(int)     intcor
      9.48     -17.66       2.81        0.00      92.53       3.13       1.12       7.06       ----

> <Gold.Chemscore.Fitness>
9.4787

> <Gold.Chemscore.DG>
-17.6579

> <Gold.Chemscore.ZeroCoef>
-5.4800

> <Gold.Chemscore.Hbond>
2.8075

> <Gold.Chemscore.Metal>
0.0000

> <Gold.Chemscore.Lipo>
92.5255

> <Gold.Chemscore.Internal_Hbond>
0.0000

> <Gold.Chemscore.DEClash>
1.1193

> <Gold.Chemscore.DEInternal>
7.0599

> <Gold.Chemscore.Rot>
3.1346

> <Gold.Chemscore.Internal.Correction>
   9.000000E+99

> <Gold.Chemscore.Hbonds>
donor molecule, donor type, donor heavy atom, donor atom, acceptor molecule, acceptor atom, score
      P1  H  6896  6909       L1     6  0.94
      P1  H  6931  6943       L1    13  0.21
      P1  H  6934  6947       L1    13  0.55
      P1  H 10752 10765       L1     1  0.52

> <Gold.Chemscore.Hbond.Weighted>
-9.3770

> <Gold.Chemscore.Metal.Weighted>
-0.0000

> <Gold.Chemscore.Lipo.Weighted>
-10.8255

> <Gold.Chemscore.Internal_Hbond.Weighted>
0.0000

> <Gold.Chemscore.DEClash.Weighted>
1.1193

> <Gold.Chemscore.DEInternal.Weighted>
7.0599

> <Gold.Chemscore.Rot.Weighted>
8.0246

> <Gold.Chemscore.Internal.Correction.Weighted>
   9.000000E+99

> <Gold.Protein.RotatedTorsions>
[ 6907 6896 6895 6894 ] final    6.41 input  -60.11 | X-H torsion
[ 7974 7965 7964 7962 ] final  -13.65 input  175.53 | X-H torsion
[ 8008 7997 7996 7995 ] final   60.21 input   59.86 | X-H torsion
[ 10167 10162 10161 10158 ] final  -42.17 input  -65.29 | X-H torsion
[ 10718 10713 10712 10709 ] final   51.14 input   66.30 | X-H torsion
[ 10763 10752 10751 10750 ] final  168.12 input  -60.55 | X-H torsion
[ 11005 11000 10999 10996 ] final   26.41 input  -57.11 | X-H torsion

> <Gold.Protein.ActiveResidues>
 VAL166  LYS551  ARG553  GLY616  TRP617  ASP618  TYR619  PRO620  LYS621  CYS622 
 ASP623  PHE694  ASN695  SER759  ASP760  ASP761  ALA762  ILE779  LEU786  VAL792 
 PHE793  MET794  SER795  GLU796  ALA797  LYS798  CYS799  TRP800  GLU811  SER814 

> <Gold.Protein.RotatedAtoms>
  151.6732  135.0973  160.0201 H   0  0  0  0  0  0  0  0  0  0  0  0  # atno 6907 bound_to 6896
  152.3879  133.6633  159.6222 H   0  0  0  0  0  0  0  0  0  0  0  0  # atno 6908 bound_to 6896
  150.7801  133.8920  159.3357 H   0  0  0  0  0  0  0  0  0  0  0  0  # atno 6909 bound_to 6896
  146.2106  140.3235  142.8392 H   0  0  0  0  0  0  0  0  0  0  0  0  # atno 7974 bound_to 7965
  155.5786  140.3491  155.4534 H   0  0  0  0  0  0  0  0  0  0  0  0  # atno 8008 bound_to 7997
  156.0390  140.1291  157.0201 H   0  0  0  0  0  0  0  0  0  0  0  0  # atno 8009 bound_to 7997
  154.4384  140.1028  156.6195 H   0  0  0  0  0  0  0  0  0  0  0  0  # atno 8010 bound_to 7997
  140.6978  143.3053  151.3171 H   0  0  0  0  0  0  0  0  0  0  0  0  # atno 10167 bound_to 10162
  157.4952  130.8402  149.8250 H   0  0  0  0  0  0  0  0  0  0  0  0  # atno 10718 bound_to 10713
  154.3639  135.2753  155.2304 H   0  0  0  0  0  0  0  0  0  0  0  0  # atno 10763 bound_to 10752
  154.4480  135.5938  153.6176 H   0  0  0  0  0  0  0  0  0  0  0  0  # atno 10764 bound_to 10752
  152.9842  135.6035  154.3863 H   0  0  0  0  0  0  0  0  0  0  0  0  # atno 10765 bound_to 10752
  140.3374  134.2371  155.7694 H   0  0  0  0  0  0  0  0  0  0  0  0  # atno 11005 bound_to 11000
  144.8903  140.7515  143.5931 LP  0  0  0  0  0  0  0  0  0  0  0  0  # atno 17320 bound_to 7965
  145.3157  139.1804  143.4615 LP  0  0  0  0  0  0  0  0  0  0  0  0  # atno 17321 bound_to 7965
  139.6456  144.0458  152.2588 LP  0  0  0  0  0  0  0  0  0  0  0  0  # atno 17342 bound_to 10162
  139.9977  144.6316  150.7757 LP  0  0  0  0  0  0  0  0  0  0  0  0  # atno 17343 bound_to 10162
  156.0196  130.3800  150.2001 LP  0  0  0  0  0  0  0  0  0  0  0  0  # atno 17370 bound_to 10713
  157.0191  130.9974  151.3345 LP  0  0  0  0  0  0  0  0  0  0  0  0  # atno 17371 bound_to 10713
  141.2048  133.7878  157.0269 LP  0  0  0  0  0  0  0  0  0  0  0  0  # atno 17394 bound_to 11000
  140.0810  134.9648  157.1624 LP  0  0  0  0  0  0  0  0  0  0  0  0  # atno 17395 bound_to 11000

$$$$
