AV-unprocessed.smi:2421|AV-procd|sdf|9555|dock9
  -GOLD-   2272013183D 1   1.00000     0.00000
 Structure written by MMmdl.
 44 46  0  0  0  0  0  0  0  0  1 V2000
  141.5645  137.5027  155.6906 C   0  0  0  0  0  0  0  0  0  0  0  0
  142.1090  136.5986  154.6229 C   0  0  0  0  0  0  0  0  0  0  0  0
  141.5804  135.3994  154.4303 N   0  0  0  0  0  0  0  0  0  0  0  0
  142.2939  134.8148  153.3695 O   0  0  0  0  0  0  0  0  0  0  0  0
  143.2465  135.6870  152.9423 C   0  0  0  0  0  0  0  0  0  0  0  0
  144.1130  135.2546  151.8088 C   0  0  0  0  0  0  0  0  0  0  0  0
  143.1713  136.8119  153.7074 C   0  0  0  0  0  0  0  0  0  0  0  0
  143.9600  137.9739  153.5819 N   0  0  0  0  0  0  0  0  0  0  0  0
  145.1481  138.1430  154.1853 C   0  0  0  0  0  0  0  0  0  0  0  0
  145.7054  137.2664  154.8437 O   0  0  0  0  0  0  0  0  0  0  0  0
  145.7016  139.3561  154.0063 N   0  0  0  0  0  0  0  0  0  0  0  0
  146.9771  139.8540  154.5257 C   0  0  2  0  0  0  0  0  0  0  0  0
  147.2890  141.2235  153.9100 C   0  0  0  0  0  0  0  0  0  0  0  0
  148.6645  141.7216  154.3754 C   0  0  0  0  0  0  0  0  0  0  0  0
  149.6770  140.7647  154.0688 O   0  0  0  0  0  0  0  0  0  0  0  0
  149.4952  139.4556  154.6215 C   0  0  0  0  0  0  0  0  0  0  0  0
  149.7397  139.4386  156.1413 C   0  0  0  0  0  0  0  0  0  0  0  0
  151.2602  139.5231  156.3034 C   0  0  0  0  0  0  0  0  0  0  0  0
  151.8554  138.9543  155.0077 C   0  0  0  0  0  0  0  0  0  0  0  0
  150.6639  138.6066  154.1069 C   0  0  0  0  0  0  0  0  0  0  0  0
  148.1260  138.8870  154.1900 C   0  0  0  0  0  0  0  0  0  0  0  0
  142.1261  138.4354  155.7462 H   0  0  0  0  0  0  0  0  0  0  0  0
  141.6165  137.0272  156.6701 H   0  0  0  0  0  0  0  0  0  0  0  0
  140.5219  137.7555  155.4959 H   0  0  0  0  0  0  0  0  0  0  0  0
  144.8741  136.0041  151.5903 H   0  0  0  0  0  0  0  0  0  0  0  0
  143.5204  135.1010  150.9070 H   0  0  0  0  0  0  0  0  0  0  0  0
  144.6196  134.3191  152.0457 H   0  0  0  0  0  0  0  0  0  0  0  0
  143.5780  138.7380  153.0438 H   0  0  0  0  0  0  0  0  0  0  0  0
  145.1891  139.9983  153.4192 H   0  0  0  0  0  0  0  0  0  0  0  0
  146.9063  139.9792  155.6076 H   0  0  0  0  0  0  0  0  0  0  0  0
  147.2815  141.1540  152.8211 H   0  0  0  0  0  0  0  0  0  0  0  0
  146.5201  141.9473  154.1827 H   0  0  0  0  0  0  0  0  0  0  0  0
  148.9103  142.6546  153.8682 H   0  0  0  0  0  0  0  0  0  0  0  0
  148.6539  141.9484  155.4410 H   0  0  0  0  0  0  0  0  0  0  0  0
  149.2178  140.2199  156.6918 H   0  0  0  0  0  0  0  0  0  0  0  0
  149.3969  138.4872  156.5507 H   0  0  0  0  0  0  0  0  0  0  0  0
  151.5644  140.5639  156.4211 H   0  0  0  0  0  0  0  0  0  0  0  0
  151.6008  138.9809  157.1861 H   0  0  0  0  0  0  0  0  0  0  0  0
  152.4840  139.7061  154.5286 H   0  0  0  0  0  0  0  0  0  0  0  0
  152.4783  138.0791  155.1950 H   0  0  0  0  0  0  0  0  0  0  0  0
  150.4287  137.5476  154.2245 H   0  0  0  0  0  0  0  0  0  0  0  0
  150.8755  138.7753  153.0502 H   0  0  0  0  0  0  0  0  0  0  0  0
  147.9596  137.9145  154.6548 H   0  0  0  0  0  0  0  0  0  0  0  0
  148.1392  138.7097  153.1133 H   0  0  0  0  0  0  0  0  0  0  0  0
  1  2  1  0  0  0  0
  1 22  1  0  0  0  0
  1 23  1  0  0  0  0
  1 24  1  0  0  0  0
  2  7  1  0  0  0  0
  2  3  2  0  0  0  0
  3  4  1  0  0  0  0
  4  5  1  0  0  0  0
  5  6  1  0  0  0  0
  5  7  2  0  0  0  0
  6 25  1  0  0  0  0
  6 26  1  0  0  0  0
  6 27  1  0  0  0  0
  7  8  1  0  0  0  0
  8  9  1  0  0  0  0
  8 28  1  0  0  0  0
  9 10  2  0  0  0  0
  9 11  1  0  0  0  0
 11 12  1  0  0  0  0
 11 29  1  0  0  0  0
 12 21  1  0  0  0  0
 12 13  1  0  0  0  0
 12 30  1  0  0  0  0
 13 14  1  0  0  0  0
 13 31  1  0  0  0  0
 13 32  1  0  0  0  0
 14 15  1  0  0  0  0
 14 33  1  0  0  0  0
 14 34  1  0  0  0  0
 15 16  1  0  0  0  0
 16 20  1  0  0  0  0
 16 17  1  0  0  0  0
 16 21  1  0  0  0  0
 17 18  1  0  0  0  0
 17 35  1  0  0  0  0
 17 36  1  0  0  0  0
 18 19  1  0  0  0  0
 18 37  1  0  0  0  0
 18 38  1  0  0  0  0
 19 20  1  0  0  0  0
 19 39  1  0  0  0  0
 19 40  1  0  0  0  0
 20 41  1  0  0  0  0
 20 42  1  0  0  0  0
 21 43  1  0  0  0  0
 21 44  1  0  0  0  0
M  END
> <s_m_source_file>
AV-unprocessed.smi

> <i_m_source_file_index>
2421

> <i_lp_mmshare_version>
43012

> <i_f3d_flags>
0

> <s_epik_input>
W0NIM11jMW5vYyhbQ0gzXSljMVtOSF1DKD1PKVtOSF1bQ0BASF0oW0NIMl0yKVtDSDJdW0NIMl1PQzIzW0NIMl1bQ0gyXVtDSDJdW0NIMl0z

> <s_epik_cmdline>
J2VwaWtfcHl0aG9uJywgJy1waCcsICc3LjAnLCAnLXRuJywgJzgnLCAnLW1hJywgJzIwMCcsICctbWV0YWxfYmluZGluZycsICctaW1hZScsICc8aW5maWxlLm1hZT4nLCAnLW9tYWUnLCAnPG91dGZpbGUubWFlPic=

> <r_lp_tautomer_probability>
1

> <r_epik_Ionization_Penalty>
3.59808e-05

> <r_epik_Ionization_Penalty_Charging>
0

> <r_epik_Ionization_Penalty_Neutral>
3.59808e-05

> <r_epik_State_Penalty>
-0

> <r_epik_Charging_Adjusted_Penalty>
0

> <i_epik_Tot_Q>
0

> <i_epik_Tot_abs_Q>
0

> <r_epik_Metal_State_Penalty>
-0

> <b_epik_Metal_Only>
0

> <s_lp_Force_Field>
OPLS_2005

> <r_lp_Energy>
43.4187

> <b_lp_Chiralities_Consistent>
1

> <s_lp_Variant>
AV-unprocessed.smi:2421-1

> <Gold.Version>
5.8.1

> <Gold.Id.Protein>
6NUR|6NUR_protein|mol2

> <Gold.PLP.Fitness>
38.6868

> <Gold.PLP.PLP>
-30.6464

> <Gold.PLP.part.hbond>
-4.1056

> <Gold.PLP.part.metal>
0.0000

> <Gold.PLP.part.buried>
-5.8888

> <Gold.PLP.part.nonpolar>
-21.9565

> <Gold.PLP.part.repulsive>
1.2584

> <Gold.PLP.ligand.clash>
0.0000

> <Gold.PLP.ligand.torsion>
0.8064

> <Gold.PLP.Chemscore.Hbond>
3.0502

> <Gold.PLP.Chemscore.CHOScore>
0.0000

> <Gold.PLP.Chemscore.Metal>
0.0000

> <Gold.Chemscore.Hbonds>
donor molecule, donor type, donor heavy atom, donor atom, acceptor molecule, acceptor atom, score
      L1  H     8    28       P1 10175  1.00
      L1  H    11    29       P1 10175  1.00
      P1  H  7989  7998       L1    15  0.56
      P1  H 11000 11005       L1     3  0.59

> <Gold.PLP.Chemscore.Internal.Correction>
0.5025

> <Gold.Rescore>
     Score         DG    S(hbond)    S(metal)    S(lipo)     H(rot)  DE(clash)    DE(int)     intcor
     19.07     -21.55       3.27        0.00      65.75       1.00       0.40       2.08       ----

> <Gold.Chemscore.Fitness>
19.0731

> <Gold.Chemscore.DG>
-21.5475

> <Gold.Chemscore.ZeroCoef>
-5.4800

> <Gold.Chemscore.Hbond>
3.2739

> <Gold.Chemscore.Metal>
0.0000

> <Gold.Chemscore.Lipo>
65.7483

> <Gold.Chemscore.Internal_Hbond>
0.0000

> <Gold.Chemscore.DEClash>
0.3991

> <Gold.Chemscore.DEInternal>
2.0753

> <Gold.Chemscore.Rot>
1.0000

> <Gold.Chemscore.Internal.Correction>
   9.000000E+99

> <Gold.Chemscore.Hbonds>
donor molecule, donor type, donor heavy atom, donor atom, acceptor molecule, acceptor atom, score
      L1  H     8    28       P1 10175  0.95
      L1  H    11    29       P1 10175  0.96
      P1  H  7989  7998       L1    15  0.32
      P1  H 11000 11005       L1     3  0.57

> <Gold.Chemscore.Hbond.Weighted>
-10.9349

> <Gold.Chemscore.Metal.Weighted>
-0.0000

> <Gold.Chemscore.Lipo.Weighted>
-7.6925

> <Gold.Chemscore.Internal_Hbond.Weighted>
0.0000

> <Gold.Chemscore.DEClash.Weighted>
0.3991

> <Gold.Chemscore.DEInternal.Weighted>
2.0753

> <Gold.Chemscore.Rot.Weighted>
2.5600

> <Gold.Chemscore.Internal.Correction.Weighted>
   9.000000E+99

> <Gold.Protein.RotatedTorsions>
[ 6907 6896 6895 6894 ] final  -82.21 input  -60.11 | X-H torsion
[ 7974 7965 7964 7962 ] final  140.22 input  175.53 | X-H torsion
[ 8008 7997 7996 7995 ] final  148.32 input   59.86 | X-H torsion
[ 10167 10162 10161 10158 ] final  132.23 input  -65.29 | X-H torsion
[ 10718 10713 10712 10709 ] final   12.82 input   66.30 | X-H torsion
[ 10763 10752 10751 10750 ] final -145.32 input  -60.55 | X-H torsion
[ 11005 11000 10999 10996 ] final   23.57 input  -57.11 | X-H torsion

> <Gold.Protein.ActiveResidues>
 VAL166  LYS551  ARG553  GLY616  TRP617  ASP618  TYR619  PRO620  LYS621  CYS622 
 ASP623  PHE694  ASN695  SER759  ASP760  ASP761  ALA762  ILE779  LEU786  VAL792 
 PHE793  MET794  SER795  GLU796  ALA797  LYS798  CYS799  TRP800  GLU811  SER814 

> <Gold.Protein.RotatedAtoms>
  150.6900  134.3699  159.4987 H   0  0  0  0  0  0  0  0  0  0  0  0  # atno 6907 bound_to 6896
  152.1516  134.8981  160.0557 H   0  0  0  0  0  0  0  0  0  0  0  0  # atno 6908 bound_to 6896
  152.0076  133.3814  159.4244 H   0  0  0  0  0  0  0  0  0  0  0  0  # atno 6909 bound_to 6896
  144.9206  139.5172  143.5665 H   0  0  0  0  0  0  0  0  0  0  0  0  # atno 7974 bound_to 7965
  156.2795  140.2132  156.5679 H   0  0  0  0  0  0  0  0  0  0  0  0  # atno 8008 bound_to 7997
  154.7160  140.0508  157.0617 H   0  0  0  0  0  0  0  0  0  0  0  0  # atno 8009 bound_to 7997
  155.0542  140.3159  155.4685 H   0  0  0  0  0  0  0  0  0  0  0  0  # atno 8010 bound_to 7997
  139.5349  144.6671  151.4822 H   0  0  0  0  0  0  0  0  0  0  0  0  # atno 10167 bound_to 10162
  157.0157  130.6134  149.5714 H   0  0  0  0  0  0  0  0  0  0  0  0  # atno 10718 bound_to 10713
  154.8388  135.3416  154.6486 H   0  0  0  0  0  0  0  0  0  0  0  0  # atno 10763 bound_to 10752
  153.7099  135.6964  153.5045 H   0  0  0  0  0  0  0  0  0  0  0  0  # atno 10764 bound_to 10752
  153.2460  135.4369  155.0701 H   0  0  0  0  0  0  0  0  0  0  0  0  # atno 10765 bound_to 10752
  140.3682  134.2052  155.7668 H   0  0  0  0  0  0  0  0  0  0  0  0  # atno 11005 bound_to 11000
  146.3203  139.8083  142.8951 LP  0  0  0  0  0  0  0  0  0  0  0  0  # atno 17320 bound_to 7965
  145.3302  141.0265  143.3451 LP  0  0  0  0  0  0  0  0  0  0  0  0  # atno 17321 bound_to 7965
  140.6549  143.8620  150.6824 LP  0  0  0  0  0  0  0  0  0  0  0  0  # atno 17342 bound_to 10162
  140.1996  143.3970  152.1801 LP  0  0  0  0  0  0  0  0  0  0  0  0  # atno 17343 bound_to 10162
  156.0120  130.5212  150.8018 LP  0  0  0  0  0  0  0  0  0  0  0  0  # atno 17370 bound_to 10713
  157.5287  131.0935  150.9983 LP  0  0  0  0  0  0  0  0  0  0  0  0  # atno 17371 bound_to 10713
  141.1963  133.8086  157.0678 LP  0  0  0  0  0  0  0  0  0  0  0  0  # atno 17394 bound_to 11000
  140.0573  134.9774  157.1242 LP  0  0  0  0  0  0  0  0  0  0  0  0  # atno 17395 bound_to 11000

$$$$
