AV-unprocessed.smi:2833|AV-procd|sdf|10914|dock1
  -GOLD-   2272015363D 1   1.00000     0.00000
 Structure written by MMmdl.
 28 29  0  0  0  0  0  0  0  0  1 V2000
  149.0406  141.1259  153.0913 O   0  0  0  0  0  0  0  0  0  0  0  0
  148.5260  140.2555  154.0768 C   0  0  0  0  0  0  0  0  0  0  0  0
  149.5829  139.9973  155.1617 C   0  0  2  0  0  0  0  0  0  0  0  0
  149.9136  141.2820  155.9479 C   0  0  0  0  0  0  0  0  0  0  0  0
  150.9840  141.0251  156.9033 N   0  0  0  0  0  0  0  0  0  0  0  0
  151.2542  142.1066  157.7544 C   0  0  0  0  0  0  0  0  0  0  0  0
  150.7902  143.3307  157.4022 N   0  0  0  0  0  0  0  0  0  0  0  0
  151.0522  144.3742  158.2185 C   0  0  0  0  0  0  0  0  0  0  0  0
  151.7831  144.2520  159.4166 C   0  0  0  0  0  0  0  0  0  0  0  0
  152.0812  145.6284  160.4131 Cl  0  0  0  0  0  0  0  0  0  0  0  0
  152.2646  142.9806  159.7820 C   0  0  0  0  0  0  0  0  0  0  0  0
  151.9967  141.8871  158.9360 C   0  0  0  0  0  0  0  0  0  0  0  0
  152.4461  140.6495  159.2564 F   0  0  0  0  0  0  0  0  0  0  0  0
  152.1748  140.4725  156.2713 C   0  0  0  0  0  0  0  0  0  0  0  0
  151.8030  139.2216  155.4587 C   0  0  0  0  0  0  0  0  0  0  0  0
  150.7791  139.5507  154.5242 O   0  0  0  0  0  0  0  0  0  0  0  0
  148.9297  140.7210  152.2447 H   0  0  0  0  0  0  0  0  0  0  0  0
  147.6090  140.6625  154.5041 H   0  0  0  0  0  0  0  0  0  0  0  0
  148.2630  139.3226  153.5774 H   0  0  0  0  0  0  0  0  0  0  0  0
  149.2189  139.2368  155.8558 H   0  0  0  0  0  0  0  0  0  0  0  0
  150.2144  142.0732  155.2594 H   0  0  0  0  0  0  0  0  0  0  0  0
  149.0288  141.6349  156.4795 H   0  0  0  0  0  0  0  0  0  0  0  0
  150.6682  145.3338  157.9052 H   0  0  0  0  0  0  0  0  0  0  0  0
  152.8291  142.8448  160.6927 H   0  0  0  0  0  0  0  0  0  0  0  0
  152.6253  141.2190  155.6153 H   0  0  0  0  0  0  0  0  0  0  0  0
  152.9150  140.2200  157.0317 H   0  0  0  0  0  0  0  0  0  0  0  0
  152.6737  138.8519  154.9173 H   0  0  0  0  0  0  0  0  0  0  0  0
  151.4684  138.4157  156.1139 H   0  0  0  0  0  0  0  0  0  0  0  0
  1  2  1  0  0  0  0
  1 17  1  0  0  0  0
  2  3  1  0  0  0  0
  2 18  1  0  0  0  0
  2 19  1  0  0  0  0
  3 16  1  0  0  0  0
  3  4  1  0  0  0  0
  3 20  1  0  0  0  0
  4  5  1  0  0  0  0
  4 21  1  0  0  0  0
  4 22  1  0  0  0  0
  5  6  1  0  0  0  0
  5 14  1  0  0  0  0
  6 12  1  0  0  0  0
  6  7  2  0  0  0  0
  7  8  1  0  0  0  0
  8  9  2  0  0  0  0
  8 23  1  0  0  0  0
  9 10  1  0  0  0  0
  9 11  1  0  0  0  0
 11 12  2  0  0  0  0
 11 24  1  0  0  0  0
 12 13  1  0  0  0  0
 14 15  1  0  0  0  0
 14 25  1  0  0  0  0
 14 26  1  0  0  0  0
 15 16  1  0  0  0  0
 15 27  1  0  0  0  0
 15 28  1  0  0  0  0
M  END
> <s_m_source_file>
AV-unprocessed.smi

> <i_m_source_file_index>
2833

> <i_lp_mmshare_version>
43012

> <i_f3d_flags>
0

> <s_epik_input>
W09IXVtDSDJdW0NAQEhdMVtDSDJdTihbQ0gyXVtDSDJdTzEpYzJuW2NIXWMoQ2wpW2NIXWMyRg==

> <s_epik_cmdline>
J2VwaWtfcHl0aG9uJywgJy1waCcsICc3LjAnLCAnLXRuJywgJzgnLCAnLW1hJywgJzIwMCcsICctbWV0YWxfYmluZGluZycsICctaW1hZScsICc8aW5maWxlLm1hZT4nLCAnLW9tYWUnLCAnPG91dGZpbGUubWFlPic=

> <r_lp_tautomer_probability>
1

> <r_epik_Ionization_Penalty>
1.06846e-07

> <r_epik_Ionization_Penalty_Charging>
0

> <r_epik_Ionization_Penalty_Neutral>
1.06846e-07

> <r_epik_State_Penalty>
-0

> <r_epik_Charging_Adjusted_Penalty>
0

> <i_epik_Tot_Q>
0

> <i_epik_Tot_abs_Q>
0

> <r_epik_Metal_State_Penalty>
-0

> <b_epik_Metal_Only>
0

> <s_lp_Force_Field>
OPLS_2005

> <r_lp_Energy>
22.731

> <b_lp_Chiralities_Consistent>
1

> <s_lp_Variant>
AV-unprocessed.smi:2833-1

> <Gold.Version>
5.8.1

> <Gold.Id.Protein>
6NUR|6NUR_protein|mol2

> <Gold.PLP.Fitness>
38.6309

> <Gold.PLP.PLP>
-31.7974

> <Gold.PLP.part.hbond>
-3.0394

> <Gold.PLP.part.metal>
0.0000

> <Gold.PLP.part.buried>
-4.0336

> <Gold.PLP.part.nonpolar>
-26.5373

> <Gold.PLP.part.repulsive>
1.6150

> <Gold.PLP.ligand.clash>
0.0000

> <Gold.PLP.ligand.torsion>
0.2853

> <Gold.PLP.Chemscore.Hbond>
2.1820

> <Gold.PLP.Chemscore.CHOScore>
0.2500

> <Gold.PLP.Chemscore.Metal>
0.0000

> <Gold.Chemscore.Hbonds>
donor molecule, donor type, donor heavy atom, donor atom, acceptor molecule, acceptor atom, score
      L1  H     1    17       P1  7957  0.70
      P1  H  7989  7998       L1    16  1.00
      P1  H  8011  8017       L1     1  0.40
      L1  C     8    23       P1  8028  0.04
      L1  C     8    23       P1  8029  0.07

> <Gold.PLP.Chemscore.Internal.Correction>
0.1080

> <Gold.Rescore>
     Score         DG    S(hbond)    S(metal)    S(lipo)     H(rot)  DE(clash)    DE(int)     intcor
     12.80     -15.33       1.33        0.00      85.08       1.78       1.43       1.10       ----

> <Gold.Chemscore.Fitness>
12.7954

> <Gold.Chemscore.DG>
-15.3281

> <Gold.Chemscore.ZeroCoef>
-5.4800

> <Gold.Chemscore.Hbond>
1.3304

> <Gold.Chemscore.Metal>
0.0000

> <Gold.Chemscore.Lipo>
85.0823

> <Gold.Chemscore.Internal_Hbond>
0.0000

> <Gold.Chemscore.DEClash>
1.4317

> <Gold.Chemscore.DEInternal>
1.1010

> <Gold.Chemscore.Rot>
1.7773

> <Gold.Chemscore.Internal.Correction>
   9.000000E+99

> <Gold.Chemscore.Hbonds>
donor molecule, donor type, donor heavy atom, donor atom, acceptor molecule, acceptor atom, score
      L1  H     1    17       P1  7957  0.69
      P1  H  7989  7998       L1    16  0.26
      P1  H  8011  8017       L1     1  0.01

> <Gold.Chemscore.Hbond.Weighted>
-4.4434

> <Gold.Chemscore.Metal.Weighted>
-0.0000

> <Gold.Chemscore.Lipo.Weighted>
-9.9546

> <Gold.Chemscore.Internal_Hbond.Weighted>
0.0000

> <Gold.Chemscore.DEClash.Weighted>
1.4317

> <Gold.Chemscore.DEInternal.Weighted>
1.1010

> <Gold.Chemscore.Rot.Weighted>
4.5499

> <Gold.Chemscore.Internal.Correction.Weighted>
   9.000000E+99

> <Gold.Protein.RotatedTorsions>
[ 6907 6896 6895 6894 ] final -175.83 input  -60.11 | X-H torsion
[ 7974 7965 7964 7962 ] final  -13.84 input  175.53 | X-H torsion
[ 8008 7997 7996 7995 ] final  -70.13 input   59.86 | X-H torsion
[ 10167 10162 10161 10158 ] final  -25.85 input  -65.29 | X-H torsion
[ 10718 10713 10712 10709 ] final   33.27 input   66.30 | X-H torsion
[ 10763 10752 10751 10750 ] final -171.85 input  -60.55 | X-H torsion
[ 11005 11000 10999 10996 ] final    6.39 input  -57.11 | X-H torsion

> <Gold.Protein.ActiveResidues>
 VAL166  LYS551  ARG553  GLY616  TRP617  ASP618  TYR619  PRO620  LYS621  CYS622 
 ASP623  PHE694  ASN695  SER759  ASP760  ASP761  ALA762  ILE779  LEU786  VAL792 
 PHE793  MET794  SER795  GLU796  ALA797  LYS798  CYS799  TRP800  GLU811  SER814 

> <Gold.Protein.RotatedAtoms>
  151.5949  133.3362  159.3035 H   0  0  0  0  0  0  0  0  0  0  0  0  # atno 6907 bound_to 6896
  150.8240  134.7465  159.6808 H   0  0  0  0  0  0  0  0  0  0  0  0  # atno 6908 bound_to 6896
  152.4331  134.5745  159.9982 H   0  0  0  0  0  0  0  0  0  0  0  0  # atno 6909 bound_to 6896
  146.2098  140.3262  142.8395 H   0  0  0  0  0  0  0  0  0  0  0  0  # atno 7974 bound_to 7965
  154.4989  140.0840  156.7756 H   0  0  0  0  0  0  0  0  0  0  0  0  # atno 8008 bound_to 7997
  155.4049  140.3439  155.4241 H   0  0  0  0  0  0  0  0  0  0  0  0  # atno 8009 bound_to 7997
  156.1431  140.1535  156.8877 H   0  0  0  0  0  0  0  0  0  0  0  0  # atno 8010 bound_to 7997
  140.7285  143.4229  151.0923 H   0  0  0  0  0  0  0  0  0  0  0  0  # atno 10167 bound_to 10162
  157.2957  130.7325  149.6637 H   0  0  0  0  0  0  0  0  0  0  0  0  # atno 10718 bound_to 10713
  154.6259  135.2880  155.0273 H   0  0  0  0  0  0  0  0  0  0  0  0  # atno 10763 bound_to 10752
  154.1451  135.6512  153.4955 H   0  0  0  0  0  0  0  0  0  0  0  0  # atno 10764 bound_to 10752
  153.0257  135.5342  154.7066 H   0  0  0  0  0  0  0  0  0  0  0  0  # atno 10765 bound_to 10752
  140.5600  134.0201  155.7968 H   0  0  0  0  0  0  0  0  0  0  0  0  # atno 11005 bound_to 11000
  144.8885  140.7493  143.5942 LP  0  0  0  0  0  0  0  0  0  0  0  0  # atno 17320 bound_to 7965
  145.3184  139.1796  143.4601 LP  0  0  0  0  0  0  0  0  0  0  0  0  # atno 17321 bound_to 7965
  139.7877  143.8264  152.3147 LP  0  0  0  0  0  0  0  0  0  0  0  0  # atno 17342 bound_to 10162
  139.8237  144.7284  150.9539 LP  0  0  0  0  0  0  0  0  0  0  0  0  # atno 17343 bound_to 10162
  155.9669  130.4295  150.4835 LP  0  0  0  0  0  0  0  0  0  0  0  0  # atno 17370 bound_to 10713
  157.2807  131.0606  151.2200 LP  0  0  0  0  0  0  0  0  0  0  0  0  # atno 17371 bound_to 10713
  141.1120  133.9601  157.2892 LP  0  0  0  0  0  0  0  0  0  0  0  0  # atno 17394 bound_to 11000
  139.9412  135.0190  156.8715 LP  0  0  0  0  0  0  0  0  0  0  0  0  # atno 17395 bound_to 11000

$$$$
