AV-unprocessed.smi:3132|AV-procd|sdf|11930|dock7
  -GOLD-   2272017313D 1   1.00000     0.00000
 Structure written by MMmdl.
 34 35  0  0  0  0  0  0  0  0  2 V2000
  149.0982  140.3578  157.1214 C   0  0  0  0  0  0  0  0  0  0  0  0
  149.5607  141.2341  155.9499 C   0  0  1  0  0  0  0  0  0  0  0  0
  148.4104  141.4776  154.9482 C   0  0  0  0  0  0  0  0  0  0  0  0
  148.1745  140.3404  154.0525 N   0  0  0  0  0  0  0  0  0  0  0  0
  147.1105  140.1517  153.2078 C   0  0  0  0  0  0  0  0  0  0  0  0
  147.3272  138.9586  152.5677 C   0  0  0  0  0  0  0  0  0  0  0  0
  148.5094  138.4672  153.0531 N   0  3  0  0  0  0  0  0  0  0  0  0
  149.0203  139.3063  153.9599 C   0  0  0  0  0  0  0  0  0  0  0  0
  150.0767  142.4951  156.4810 N   0  0  0  0  0  0  0  0  0  0  0  0
  151.1391  142.6323  157.2904 C   0  0  0  0  0  0  0  0  0  0  0  0
  151.8265  141.6824  157.6681 O   0  0  0  0  0  0  0  0  0  0  0  0
  151.4687  144.0634  157.7399 C   0  0  2  0  0  0  0  0  0  0  0  0
  152.7101  144.1548  158.6500 C   0  0  0  0  0  0  0  0  0  0  0  0
  152.1915  144.7914  159.9280 C   0  0  0  0  0  0  0  0  0  0  0  0
  150.7099  144.4467  159.9004 C   0  0  0  0  0  0  0  0  0  0  0  0
  150.3847  144.5613  158.5228 O   0  0  0  0  0  0  0  0  0  0  0  0
  148.7410  139.3896  156.7700 H   0  0  0  0  0  0  0  0  0  0  0  0
  148.2866  140.8306  157.6757 H   0  0  0  0  0  0  0  0  0  0  0  0
  149.9151  140.1715  157.8197 H   0  0  0  0  0  0  0  0  0  0  0  0
  150.3640  140.6945  155.4449 H   0  0  0  0  0  0  0  0  0  0  0  0
  147.4771  141.6672  155.4805 H   0  0  0  0  0  0  0  0  0  0  0  0
  148.6084  142.3587  154.3360 H   0  0  0  0  0  0  0  0  0  0  0  0
  146.3037  140.8649  153.1219 H   0  0  0  0  0  0  0  0  0  0  0  0
  146.7445  138.4362  151.8229 H   0  0  0  0  0  0  0  0  0  0  0  0
  149.9402  139.1789  154.5023 H   0  0  0  0  0  0  0  0  0  0  0  0
  149.5700  143.3321  156.2302 H   0  0  0  0  0  0  0  0  0  0  0  0
  151.5865  144.7106  156.8694 H   0  0  0  0  0  0  0  0  0  0  0  0
  153.1365  143.1740  158.8660 H   0  0  0  0  0  0  0  0  0  0  0  0
  153.5003  144.7569  158.2000 H   0  0  0  0  0  0  0  0  0  0  0  0
  152.6967  144.4284  160.8232 H   0  0  0  0  0  0  0  0  0  0  0  0
  152.3178  145.8739  159.8812 H   0  0  0  0  0  0  0  0  0  0  0  0
  150.5397  143.4243  160.2407 H   0  0  0  0  0  0  0  0  0  0  0  0
  150.1079  145.1181  160.5128 H   0  0  0  0  0  0  0  0  0  0  0  0
  148.9389  137.5962  152.7673 H   0  0  0  0  0  0  0  0  0  0  0  0
  1  2  1  0  0  0  0
  1 17  1  0  0  0  0
  1 18  1  0  0  0  0
  1 19  1  0  0  0  0
  2  3  1  0  0  0  0
  2  9  1  0  0  0  0
  2 20  1  0  0  0  0
  3  4  1  0  0  0  0
  3 21  1  0  0  0  0
  3 22  1  0  0  0  0
  4  8  1  0  0  0  0
  4  5  1  0  0  0  0
  5  6  2  0  0  0  0
  5 23  1  0  0  0  0
  6  7  1  0  0  0  0
  6 24  1  0  0  0  0
  7  8  2  0  0  0  0
  7 34  1  0  0  0  0
  8 25  1  0  0  0  0
  9 10  1  0  0  0  0
  9 26  1  0  0  0  0
 10 11  2  0  0  0  0
 10 12  1  0  0  0  0
 12 16  1  0  0  0  0
 12 13  1  0  0  0  0
 12 27  1  0  0  0  0
 13 14  1  0  0  0  0
 13 28  1  0  0  0  0
 13 29  1  0  0  0  0
 14 15  1  0  0  0  0
 14 30  1  0  0  0  0
 14 31  1  0  0  0  0
 15 16  1  0  0  0  0
 15 32  1  0  0  0  0
 15 33  1  0  0  0  0
M  CHG  1   7   1
M  END
> <s_m_source_file>
AV-unprocessed.smi

> <i_m_source_file_index>
3132

> <i_lp_mmshare_version>
43012

> <i_f3d_flags>
0

> <s_epik_input>
W2NIXTFuW2NIXVtjSF1uMVtDSDJdW0NAQEhdKFtDSDNdKVtOSF1DKD1PKVtDQEBIXTJbQ0gyXVtDSDJdW0NIMl1PMg==

> <s_epik_cmdline>
J2VwaWtfcHl0aG9uJywgJy1waCcsICc3LjAnLCAnLXRuJywgJzgnLCAnLW1hJywgJzIwMCcsICctbWV0YWxfYmluZGluZycsICctaW1hZScsICc8aW5maWxlLm1hZT4nLCAnLW9tYWUnLCAnPG91dGZpbGUubWFlPic=

> <r_lp_tautomer_probability>
1

> <r_epik_Ionization_Penalty>
0.250802

> <r_epik_Ionization_Penalty_Charging>
0

> <r_epik_Ionization_Penalty_Neutral>
0.250802

> <r_epik_State_Penalty>
0.242139

> <r_epik_Charging_Adjusted_Penalty>
0.242139

> <i_epik_Tot_Q>
1

> <i_epik_Tot_abs_Q>
1

> <r_epik_Metal_State_Penalty>
0.533361

> <b_epik_Metal_Only>
0

> <s_lp_Force_Field>
OPLS_2005

> <r_lp_Energy>
21.4246

> <b_lp_Chiralities_Consistent>
1

> <s_lp_Variant>
AV-unprocessed.smi:3132-2

> <Gold.Version>
5.8.1

> <Gold.Id.Protein>
6NUR|6NUR_protein|mol2

> <Gold.PLP.Fitness>
44.2708

> <Gold.PLP.PLP>
-33.5471

> <Gold.PLP.part.hbond>
-3.0000

> <Gold.PLP.part.metal>
0.0000

> <Gold.PLP.part.buried>
-3.4026

> <Gold.PLP.part.nonpolar>
-29.5694

> <Gold.PLP.part.repulsive>
0.5412

> <Gold.PLP.ligand.clash>
0.0000

> <Gold.PLP.ligand.torsion>
0.3278

> <Gold.PLP.Chemscore.Hbond>
3.0000

> <Gold.PLP.Chemscore.CHOScore>
0.7886

> <Gold.PLP.Chemscore.Metal>
0.0000

> <Gold.Chemscore.Hbonds>
donor molecule, donor type, donor heavy atom, donor atom, acceptor molecule, acceptor atom, score
      L1  H     7    34       P1  7948  2.00
      L1  H     9    26       P1  8028  1.00
      L1  C     5    23       P1 10175  0.53

> <Gold.PLP.Chemscore.Internal.Correction>
0.0134

> <Gold.Rescore>
     Score         DG    S(hbond)    S(metal)    S(lipo)     H(rot)  DE(clash)    DE(int)     intcor
     15.92     -16.34       1.97        0.00      78.89       1.93       0.09       0.32       ----

> <Gold.Chemscore.Fitness>
15.9234

> <Gold.Chemscore.DG>
-16.3363

> <Gold.Chemscore.ZeroCoef>
-5.4800

> <Gold.Chemscore.Hbond>
1.9668

> <Gold.Chemscore.Metal>
0.0000

> <Gold.Chemscore.Lipo>
78.8888

> <Gold.Chemscore.Internal_Hbond>
0.0000

> <Gold.Chemscore.DEClash>
0.0889

> <Gold.Chemscore.DEInternal>
0.3240

> <Gold.Chemscore.Rot>
1.9308

> <Gold.Chemscore.Internal.Correction>
   9.000000E+99

> <Gold.Chemscore.Hbonds>
donor molecule, donor type, donor heavy atom, donor atom, acceptor molecule, acceptor atom, score
      L1  H     7    34       P1  7948  0.95
      L1  H     9    26       P1  8028  1.00

> <Gold.Chemscore.Hbond.Weighted>
-6.5692

> <Gold.Chemscore.Metal.Weighted>
-0.0000

> <Gold.Chemscore.Lipo.Weighted>
-9.2300

> <Gold.Chemscore.Internal_Hbond.Weighted>
0.0000

> <Gold.Chemscore.DEClash.Weighted>
0.0889

> <Gold.Chemscore.DEInternal.Weighted>
0.3240

> <Gold.Chemscore.Rot.Weighted>
4.9429

> <Gold.Chemscore.Internal.Correction.Weighted>
   9.000000E+99

> <Gold.Protein.RotatedTorsions>
[ 6907 6896 6895 6894 ] final  159.27 input  -60.11 | X-H torsion
[ 7974 7965 7964 7962 ] final -108.65 input  175.53 | X-H torsion
[ 8008 7997 7996 7995 ] final -174.72 input   59.86 | X-H torsion
[ 10167 10162 10161 10158 ] final  112.55 input  -65.29 | X-H torsion
[ 10718 10713 10712 10709 ] final  179.17 input   66.30 | X-H torsion
[ 10763 10752 10751 10750 ] final   66.16 input  -60.55 | X-H torsion
[ 11005 11000 10999 10996 ] final  -46.47 input  -57.11 | X-H torsion

> <Gold.Protein.ActiveResidues>
 VAL166  LYS551  ARG553  GLY616  TRP617  ASP618  TYR619  PRO620  LYS621  CYS622 
 ASP623  PHE694  ASN695  SER759  ASP760  ASP761  ALA762  ILE779  LEU786  VAL792 
 PHE793  MET794  SER795  GLU796  ALA797  LYS798  CYS799  TRP800  GLU811  SER814 

> <Gold.Protein.RotatedAtoms>
  151.9881  133.3781  159.4133 H   0  0  0  0  0  0  0  0  0  0  0  0  # atno 6907 bound_to 6896
  150.6925  134.3967  159.5109 H   0  0  0  0  0  0  0  0  0  0  0  0  # atno 6908 bound_to 6896
  152.1696  134.8845  160.0586 H   0  0  0  0  0  0  0  0  0  0  0  0  # atno 6909 bound_to 6896
  145.1903  140.9011  143.3428 H   0  0  0  0  0  0  0  0  0  0  0  0  # atno 7974 bound_to 7965
  155.9736  140.1168  157.0790 H   0  0  0  0  0  0  0  0  0  0  0  0  # atno 8008 bound_to 7997
  154.4163  140.1158  156.5408 H   0  0  0  0  0  0  0  0  0  0  0  0  # atno 8009 bound_to 7997
  155.6564  140.3473  155.4769 H   0  0  0  0  0  0  0  0  0  0  0  0  # atno 8010 bound_to 7997
  139.6527  144.7128  151.2017 H   0  0  0  0  0  0  0  0  0  0  0  0  # atno 10167 bound_to 10162
  156.8797  130.9812  151.3063 H   0  0  0  0  0  0  0  0  0  0  0  0  # atno 10718 bound_to 10713
  153.0127  135.5331  154.6780 H   0  0  0  0  0  0  0  0  0  0  0  0  # atno 10763 bound_to 10752
  154.5947  135.2862  155.0601 H   0  0  0  0  0  0  0  0  0  0  0  0  # atno 10764 bound_to 10752
  154.1680  135.6536  153.5055 H   0  0  0  0  0  0  0  0  0  0  0  0  # atno 10765 bound_to 10752
  141.0581  133.6719  156.3159 H   0  0  0  0  0  0  0  0  0  0  0  0  # atno 11005 bound_to 11000
  145.0048  139.3564  143.6149 LP  0  0  0  0  0  0  0  0  0  0  0  0  # atno 17320 bound_to 7965
  146.3437  139.9286  142.8756 LP  0  0  0  0  0  0  0  0  0  0  0  0  # atno 17321 bound_to 7965
  140.7545  143.6123  150.8593 LP  0  0  0  0  0  0  0  0  0  0  0  0  # atno 17342 bound_to 10162
  139.9773  143.5990  152.2954 LP  0  0  0  0  0  0  0  0  0  0  0  0  # atno 17343 bound_to 10162
  157.6147  130.8609  149.9009 LP  0  0  0  0  0  0  0  0  0  0  0  0  # atno 17370 bound_to 10713
  156.0683  130.3689  150.0830 LP  0  0  0  0  0  0  0  0  0  0  0  0  # atno 17371 bound_to 10713
  140.5924  134.5637  157.5502 LP  0  0  0  0  0  0  0  0  0  0  0  0  # atno 17394 bound_to 11000
  139.9408  134.7791  156.0685 LP  0  0  0  0  0  0  0  0  0  0  0  0  # atno 17395 bound_to 11000

$$$$
