AV-unprocessed.smi:632|AV-procd|sdf|3126|dock6
  -GOLD-   22720 0 43D 1   1.00000     0.00000
 Structure written by MMmdl.
 42 43  0  0  0  0  0  0  0  0  1 V2000
  151.1432  137.5657  159.3587 C   0  0  0  0  0  0  0  0  0  0  0  0
  151.8291  137.3482  157.9957 C   0  0  0  0  0  0  0  0  0  0  0  0
  152.1452  138.7406  157.4067 C   0  0  0  0  0  0  0  0  0  0  0  0
  153.1681  136.6067  158.1746 C   0  0  0  0  0  0  0  0  0  0  0  0
  150.9210  136.5547  157.0847 C   0  0  0  0  0  0  0  0  0  0  0  0
  150.4226  135.3623  157.4453 N   0  0  0  0  0  0  0  0  0  0  0  0
  149.6117  134.8001  156.4707 N   0  0  0  0  0  0  0  0  0  0  0  0
  149.5148  135.5820  155.3884 C   0  0  0  0  0  0  0  0  0  0  0  0
  148.7458  135.2503  154.2413 N   0  0  0  0  0  0  0  0  0  0  0  0
  147.7027  134.4056  154.1546 C   0  0  0  0  0  0  0  0  0  0  0  0
  147.2401  133.7482  155.0872 O   0  0  0  0  0  0  0  0  0  0  0  0
  147.2172  134.3588  152.9052 N   0  0  0  0  0  0  0  0  0  0  0  0
  146.0889  133.5393  152.4722 C   0  0  2  0  0  0  0  0  0  0  0  0
  146.5606  132.4235  151.5161 C   0  0  0  0  0  0  0  0  0  0  0  0
  145.3762  131.5939  150.9940 C   0  0  0  0  0  0  0  0  0  0  0  0
  144.3237  132.4909  150.3202 C   0  0  1  0  0  0  0  0  0  0  0  0
  143.2210  131.7050  149.9206 O   0  0  0  0  0  0  0  0  0  0  0  0
  143.8468  133.5972  151.2769 C   0  0  0  0  0  0  0  0  0  0  0  0
  145.0312  134.4297  151.7935 C   0  0  0  0  0  0  0  0  0  0  0  0
  150.4146  137.0845  155.4753 S   0  0  0  0  0  0  0  0  0  0  0  0
  151.7720  138.1486  160.0325 H   0  0  0  0  0  0  0  0  0  0  0  0
  150.9298  136.6184  159.8551 H   0  0  0  0  0  0  0  0  0  0  0  0
  150.1977  138.0980  159.2472 H   0  0  0  0  0  0  0  0  0  0  0  0
  151.2409  139.3336  157.2650 H   0  0  0  0  0  0  0  0  0  0  0  0
  152.6496  138.6651  156.4426 H   0  0  0  0  0  0  0  0  0  0  0  0
  152.8006  139.3099  158.0669 H   0  0  0  0  0  0  0  0  0  0  0  0
  153.8503  137.1661  158.8159 H   0  0  0  0  0  0  0  0  0  0  0  0
  153.6672  136.4526  157.2173 H   0  0  0  0  0  0  0  0  0  0  0  0
  153.0253  135.6268  158.6316 H   0  0  0  0  0  0  0  0  0  0  0  0
  149.0210  135.7122  153.3874 H   0  0  0  0  0  0  0  0  0  0  0  0
  147.6571  134.9333  152.2014 H   0  0  0  0  0  0  0  0  0  0  0  0
  145.6275  133.0796  153.3487 H   0  0  0  0  0  0  0  0  0  0  0  0
  147.0956  132.8612  150.6721 H   0  0  0  0  0  0  0  0  0  0  0  0
  147.2689  131.7665  152.0225 H   0  0  0  0  0  0  0  0  0  0  0  0
  145.7345  130.8418  150.2901 H   0  0  0  0  0  0  0  0  0  0  0  0
  144.9232  131.0501  151.8244 H   0  0  0  0  0  0  0  0  0  0  0  0
  144.7548  132.9445  149.4267 H   0  0  0  0  0  0  0  0  0  0  0  0
  142.5181  132.2817  149.6632 H   0  0  0  0  0  0  0  0  0  0  0  0
  143.1316  134.2480  150.7726 H   0  0  0  0  0  0  0  0  0  0  0  0
  143.3200  133.1545  152.1238 H   0  0  0  0  0  0  0  0  0  0  0  0
  144.6705  135.1835  152.4945 H   0  0  0  0  0  0  0  0  0  0  0  0
  145.4817  134.9717  150.9606 H   0  0  0  0  0  0  0  0  0  0  0  0
  1  2  1  0  0  0  0
  1 21  1  0  0  0  0
  1 22  1  0  0  0  0
  1 23  1  0  0  0  0
  2  3  1  0  0  0  0
  2  4  1  0  0  0  0
  2  5  1  0  0  0  0
  3 24  1  0  0  0  0
  3 25  1  0  0  0  0
  3 26  1  0  0  0  0
  4 27  1  0  0  0  0
  4 28  1  0  0  0  0
  4 29  1  0  0  0  0
  5 20  1  0  0  0  0
  5  6  2  0  0  0  0
  6  7  1  0  0  0  0
  7  8  2  0  0  0  0
  8  9  1  0  0  0  0
  8 20  1  0  0  0  0
  9 10  1  0  0  0  0
  9 30  1  0  0  0  0
 10 11  2  0  0  0  0
 10 12  1  0  0  0  0
 12 13  1  0  0  0  0
 12 31  1  0  0  0  0
 13 19  1  0  0  0  0
 13 14  1  0  0  0  0
 13 32  1  0  0  0  0
 14 15  1  0  0  0  0
 14 33  1  0  0  0  0
 14 34  1  0  0  0  0
 15 16  1  0  0  0  0
 15 35  1  0  0  0  0
 15 36  1  0  0  0  0
 16 17  1  0  0  0  0
 16 18  1  0  0  0  0
 16 37  1  0  0  0  0
 17 38  1  0  0  0  0
 18 19  1  0  0  0  0
 18 39  1  0  0  0  0
 18 40  1  0  0  0  0
 19 41  1  0  0  0  0
 19 42  1  0  0  0  0
M  END
> <s_m_source_file>
AV-unprocessed.smi

> <i_m_source_file_index>
632

> <i_lp_mmshare_version>
43012

> <i_f3d_flags>
0

> <s_epik_input>
W0NIM11DKFtDSDNdKShbQ0gzXSljMW5uYyhzMSlbTkhdQyg9TylbTkhdW0NAQEhdMltDSDJdW0NIMl1bQ0BASF0oW09IXSlbQ0gyXVtDSDJdMg==

> <s_epik_cmdline>
J2VwaWtfcHl0aG9uJywgJy1waCcsICc3LjAnLCAnLXRuJywgJzgnLCAnLW1hJywgJzIwMCcsICctbWV0YWxfYmluZGluZycsICctaW1hZScsICc8aW5maWxlLm1hZT4nLCAnLW9tYWUnLCAnPG91dGZpbGUubWFlPic=

> <r_lp_tautomer_probability>
1

> <r_epik_Ionization_Penalty>
0.000349475

> <r_epik_Ionization_Penalty_Charging>
0

> <r_epik_Ionization_Penalty_Neutral>
0.000349475

> <r_epik_State_Penalty>
-0

> <r_epik_Charging_Adjusted_Penalty>
0

> <i_epik_Tot_Q>
0

> <i_epik_Tot_abs_Q>
0

> <r_epik_Metal_State_Penalty>
0.179207

> <b_epik_Metal_Only>
0

> <s_lp_Force_Field>
OPLS_2005

> <r_lp_Energy>
2.50478

> <b_lp_Chiralities_Consistent>
1

> <s_lp_Variant>
AV-unprocessed.smi:632-1

> <Gold.Version>
5.8.1

> <Gold.Id.Protein>
6NUR|6NUR_protein|mol2

> <Gold.PLP.Fitness>
36.5884

> <Gold.PLP.PLP>
-27.3659

> <Gold.PLP.part.hbond>
-5.0000

> <Gold.PLP.part.metal>
0.0000

> <Gold.PLP.part.buried>
-4.1278

> <Gold.PLP.part.nonpolar>
-18.6508

> <Gold.PLP.part.repulsive>
0.0347

> <Gold.PLP.ligand.clash>
0.0000

> <Gold.PLP.ligand.torsion>
0.2591

> <Gold.PLP.Chemscore.Hbond>
3.2443

> <Gold.PLP.Chemscore.CHOScore>
0.0000

> <Gold.PLP.Chemscore.Metal>
0.0000

> <Gold.Chemscore.Hbonds>
donor molecule, donor type, donor heavy atom, donor atom, acceptor molecule, acceptor atom, score
      L1  H     9    30       P1  7948  1.00
      L1  H    12    31       P1  7948  0.94
      P1  H  6896  6908       L1     6  0.29
      P1  H 10785 10796       L1    17  1.00

> <Gold.PLP.Chemscore.Internal.Correction>
0.0077

> <Gold.Rescore>
     Score         DG    S(hbond)    S(metal)    S(lipo)     H(rot)  DE(clash)    DE(int)     intcor
     18.69     -20.08       3.47        0.00      62.83       1.70       0.01       1.38       ----

> <Gold.Chemscore.Fitness>
18.6896

> <Gold.Chemscore.DG>
-20.0845

> <Gold.Chemscore.ZeroCoef>
-5.4800

> <Gold.Chemscore.Hbond>
3.4723

> <Gold.Chemscore.Metal>
0.0000

> <Gold.Chemscore.Lipo>
62.8288

> <Gold.Chemscore.Internal_Hbond>
0.0000

> <Gold.Chemscore.DEClash>
0.0149

> <Gold.Chemscore.DEInternal>
1.3801

> <Gold.Chemscore.Rot>
1.6968

> <Gold.Chemscore.Internal.Correction>
   9.000000E+99

> <Gold.Chemscore.Hbonds>
donor molecule, donor type, donor heavy atom, donor atom, acceptor molecule, acceptor atom, score
      L1  H     9    30       P1  7948  0.80
      L1  H    12    31       P1  7948  0.80
      P1  H  6896  6908       L1     6  0.28
      P1  H 10785 10796       L1    17  0.68

> <Gold.Chemscore.Hbond.Weighted>
-11.5974

> <Gold.Chemscore.Metal.Weighted>
-0.0000

> <Gold.Chemscore.Lipo.Weighted>
-7.3510

> <Gold.Chemscore.Internal_Hbond.Weighted>
0.0000

> <Gold.Chemscore.DEClash.Weighted>
0.0149

> <Gold.Chemscore.DEInternal.Weighted>
1.3801

> <Gold.Chemscore.Rot.Weighted>
4.3438

> <Gold.Chemscore.Internal.Correction.Weighted>
   9.000000E+99

> <Gold.Protein.RotatedTorsions>
[ 6907 6896 6895 6894 ] final  156.10 input  -60.11 | X-H torsion
[ 7974 7965 7964 7962 ] final -116.75 input  175.53 | X-H torsion
[ 8008 7997 7996 7995 ] final -170.64 input   59.86 | X-H torsion
[ 10167 10162 10161 10158 ] final  -98.69 input  -65.29 | X-H torsion
[ 10718 10713 10712 10709 ] final -105.40 input   66.30 | X-H torsion
[ 10763 10752 10751 10750 ] final   29.89 input  -60.55 | X-H torsion
[ 11005 11000 10999 10996 ] final   74.76 input  -57.11 | X-H torsion

> <Gold.Protein.ActiveResidues>
 VAL166  LYS551  ARG553  GLY616  TRP617  ASP618  TYR619  PRO620  LYS621  CYS622 
 ASP623  PHE694  ASN695  SER759  ASP760  ASP761  ALA762  ILE779  LEU786  VAL792 
 PHE793  MET794  SER795  GLU796  ALA797  LYS798  CYS799  TRP800  GLU811  SER814 

> <Gold.Protein.RotatedAtoms>
  152.0346  133.3951  159.4311 H   0  0  0  0  0  0  0  0  0  0  0  0  # atno 6907 bound_to 6896
  150.6880  134.3483  159.4907 H   0  0  0  0  0  0  0  0  0  0  0  0  # atno 6908 bound_to 6896
  152.1273  134.9160  160.0611 H   0  0  0  0  0  0  0  0  0  0  0  0  # atno 6909 bound_to 6896
  145.0932  140.8503  143.3970 H   0  0  0  0  0  0  0  0  0  0  0  0  # atno 7974 bound_to 7965
  155.9210  140.1074  157.1207 H   0  0  0  0  0  0  0  0  0  0  0  0  # atno 8008 bound_to 7997
  154.4054  140.1256  156.4745 H   0  0  0  0  0  0  0  0  0  0  0  0  # atno 8009 bound_to 7997
  155.7196  140.3470  155.5012 H   0  0  0  0  0  0  0  0  0  0  0  0  # atno 8010 bound_to 7997
  140.2703  143.3348  152.0541 H   0  0  0  0  0  0  0  0  0  0  0  0  # atno 10167 bound_to 10162
  156.0344  130.5562  150.7534 H   0  0  0  0  0  0  0  0  0  0  0  0  # atno 10718 bound_to 10713
  153.0403  135.6478  154.0960 H   0  0  0  0  0  0  0  0  0  0  0  0  # atno 10763 bound_to 10752
  154.0668  135.2883  155.3317 H   0  0  0  0  0  0  0  0  0  0  0  0  # atno 10764 bound_to 10752
  154.6621  135.5387  153.8096 H   0  0  0  0  0  0  0  0  0  0  0  0  # atno 10765 bound_to 10752
  139.9375  134.7460  156.1188 H   0  0  0  0  0  0  0  0  0  0  0  0  # atno 11005 bound_to 11000
  145.1042  139.2802  143.5671 LP  0  0  0  0  0  0  0  0  0  0  0  0  # atno 17320 bound_to 7965
  146.3531  140.0618  142.8629 LP  0  0  0  0  0  0  0  0  0  0  0  0  # atno 17321 bound_to 7965
  139.4991  144.6661  151.6353 LP  0  0  0  0  0  0  0  0  0  0  0  0  # atno 17342 bound_to 10162
  140.5895  143.9805  150.6316 LP  0  0  0  0  0  0  0  0  0  0  0  0  # atno 17343 bound_to 10162
  157.5072  131.0923  151.0242 LP  0  0  0  0  0  0  0  0  0  0  0  0  # atno 17370 bound_to 10713
  157.0608  130.5824  149.5385 LP  0  0  0  0  0  0  0  0  0  0  0  0  # atno 17371 bound_to 10713
  141.0996  133.6682  156.2723 LP  0  0  0  0  0  0  0  0  0  0  0  0  # atno 17394 bound_to 11000
  140.6037  134.5529  157.5522 LP  0  0  0  0  0  0  0  0  0  0  0  0  # atno 17395 bound_to 11000

$$$$
