AV-unprocessed.smi:2260|AV-procd|sdf|9132|dock1
  -GOLD-   2272012333D 1   1.00000     0.00000
 Structure written by MMmdl.
 43 44  0  0  0  0  0  0  0  0  2 V2000
  148.6256  140.5611  154.3764 C   0  0  0  0  0  0  0  0  0  0  0  0
  149.8194  139.6307  154.5007 C   0  0  0  0  0  0  0  0  0  0  0  0
  149.9932  138.4892  153.8259 C   0  0  0  0  0  0  0  0  0  0  0  0
  151.5062  137.7017  154.2080 S   0  0  0  0  0  0  0  0  0  0  0  0
  151.9179  139.0274  155.3545 C   0  0  0  0  0  0  0  0  0  0  0  0
  152.9678  139.0585  155.9943 O   0  0  0  0  0  0  0  0  0  0  0  0
  150.8742  139.9505  155.3647 N   0  0  0  0  0  0  0  0  0  0  0  0
  150.9087  141.1449  156.2133 C   0  0  0  0  0  0  0  0  0  0  0  0
  150.6513  140.7891  157.6854 C   0  0  0  0  0  0  0  0  0  0  0  0
  151.6997  141.3624  158.5543 N   0  3  0  0  0  0  0  0  0  0  0  0
  151.2711  142.4869  159.4202 C   0  0  2  0  0  0  0  0  0  0  0  0
  150.2609  143.4021  158.6890 C   0  0  0  0  0  0  0  0  0  0  0  0
  149.8030  144.5657  159.5789 C   0  0  0  0  0  0  0  0  0  0  0  0
  150.9984  145.3712  160.1010 C   0  0  0  0  0  0  0  0  0  0  0  0
  152.0019  144.4620  160.8297 C   0  0  0  0  0  0  0  0  0  0  0  0
  152.5027  143.2746  159.9666 C   0  0  0  0  0  0  0  0  0  0  0  0
  153.3470  142.3569  160.8776 C   0  0  0  0  0  0  0  0  0  0  0  0
  153.4142  143.7969  158.8297 C   0  0  0  0  0  0  0  0  0  0  0  0
  148.0737  140.3473  153.4605 H   0  0  0  0  0  0  0  0  0  0  0  0
  148.9290  141.6070  154.3381 H   0  0  0  0  0  0  0  0  0  0  0  0
  147.9481  140.4219  155.2191 H   0  0  0  0  0  0  0  0  0  0  0  0
  149.3115  138.0605  153.1059 H   0  0  0  0  0  0  0  0  0  0  0  0
  151.8597  141.6667  156.1055 H   0  0  0  0  0  0  0  0  0  0  0  0
  150.1545  141.8554  155.8703 H   0  0  0  0  0  0  0  0  0  0  0  0
  149.6748  141.1647  157.9914 H   0  0  0  0  0  0  0  0  0  0  0  0
  150.6323  139.7056  157.8078 H   0  0  0  0  0  0  0  0  0  0  0  0
  152.0187  140.6226  159.1635 H   0  0  0  0  0  0  0  0  0  0  0  0
  150.7576  142.0549  160.2812 H   0  0  0  0  0  0  0  0  0  0  0  0
  150.6966  143.7924  157.7692 H   0  0  0  0  0  0  0  0  0  0  0  0
  149.3807  142.8348  158.3871 H   0  0  0  0  0  0  0  0  0  0  0  0
  149.1292  145.2178  159.0229 H   0  0  0  0  0  0  0  0  0  0  0  0
  149.2303  144.1763  160.4215 H   0  0  0  0  0  0  0  0  0  0  0  0
  151.4864  145.8898  159.2756 H   0  0  0  0  0  0  0  0  0  0  0  0
  150.6479  146.1489  160.7802 H   0  0  0  0  0  0  0  0  0  0  0  0
  152.8464  145.0596  161.1761 H   0  0  0  0  0  0  0  0  0  0  0  0
  151.5217  144.0781  161.7311 H   0  0  0  0  0  0  0  0  0  0  0  0
  154.1783  142.9026  161.3259 H   0  0  0  0  0  0  0  0  0  0  0  0
  153.7740  141.5178  160.3277 H   0  0  0  0  0  0  0  0  0  0  0  0
  152.7522  141.9444  161.6934 H   0  0  0  0  0  0  0  0  0  0  0  0
  154.2425  144.3822  159.2301 H   0  0  0  0  0  0  0  0  0  0  0  0
  152.8823  144.4358  158.1262 H   0  0  0  0  0  0  0  0  0  0  0  0
  153.8526  142.9806  158.2551 H   0  0  0  0  0  0  0  0  0  0  0  0
  152.4785  141.6648  157.9868 H   0  0  0  0  0  0  0  0  0  0  0  0
  1  2  1  0  0  0  0
  1 19  1  0  0  0  0
  1 20  1  0  0  0  0
  1 21  1  0  0  0  0
  2  7  1  0  0  0  0
  2  3  2  0  0  0  0
  3  4  1  0  0  0  0
  3 22  1  0  0  0  0
  4  5  1  0  0  0  0
  5  6  2  0  0  0  0
  5  7  1  0  0  0  0
  7  8  1  0  0  0  0
  8  9  1  0  0  0  0
  8 23  1  0  0  0  0
  8 24  1  0  0  0  0
  9 10  1  0  0  0  0
  9 25  1  0  0  0  0
  9 26  1  0  0  0  0
 10 11  1  0  0  0  0
 10 27  1  0  0  0  0
 10 43  1  0  0  0  0
 11 16  1  0  0  0  0
 11 12  1  0  0  0  0
 11 28  1  0  0  0  0
 12 13  1  0  0  0  0
 12 29  1  0  0  0  0
 12 30  1  0  0  0  0
 13 14  1  0  0  0  0
 13 31  1  0  0  0  0
 13 32  1  0  0  0  0
 14 15  1  0  0  0  0
 14 33  1  0  0  0  0
 14 34  1  0  0  0  0
 15 16  1  0  0  0  0
 15 35  1  0  0  0  0
 15 36  1  0  0  0  0
 16 17  1  0  0  0  0
 16 18  1  0  0  0  0
 17 37  1  0  0  0  0
 17 38  1  0  0  0  0
 17 39  1  0  0  0  0
 18 40  1  0  0  0  0
 18 41  1  0  0  0  0
 18 42  1  0  0  0  0
M  CHG  1  10   1
M  END
> <s_m_source_file>
AV-unprocessed.smi

> <i_m_source_file_index>
2260

> <i_lp_mmshare_version>
43012

> <i_f3d_flags>
0

> <s_epik_input>
W0NIM11jMVtjSF1zYyg9TyluMVtDSDJdW0NIMl1bTkhdW0NAQEhdKEMyKFtDSDNdKVtDSDNdKVtDSDJdW0NIMl1bQ0gyXVtDSDJdMg==

> <s_epik_cmdline>
J2VwaWtfcHl0aG9uJywgJy1waCcsICc3LjAnLCAnLXRuJywgJzgnLCAnLW1hJywgJzIwMCcsICctbWV0YWxfYmluZGluZycsICctaW1hZScsICc8aW5maWxlLm1hZT4nLCAnLW9tYWUnLCAnPG91dGZpbGUubWFlPic=

> <r_epik_Ionization_Penalty>
0.0114277

> <r_epik_Ionization_Penalty_Charging>
0.0114277

> <r_epik_Ionization_Penalty_Neutral>
2.57259e-08

> <r_epik_State_Penalty>
0.0087935

> <r_epik_Charging_Adjusted_Penalty>
0.0202212

> <i_epik_Tot_Q>
1

> <i_epik_Tot_abs_Q>
1

> <r_epik_Metal_State_Penalty>
0.0087935

> <b_epik_Metal_Only>
0

> <s_lp_Force_Field>
OPLS_2005

> <r_lp_Energy>
26.3368

> <b_lp_Chiralities_Consistent>
1

> <s_lp_Variant>
AV-unprocessed.smi:2260-1

> <Gold.Version>
5.8.1

> <Gold.Id.Protein>
6NUR|6NUR_protein|mol2

> <Gold.PLP.Fitness>
47.1927

> <Gold.PLP.PLP>
-42.1997

> <Gold.PLP.part.hbond>
-1.0000

> <Gold.PLP.part.metal>
0.0000

> <Gold.PLP.part.buried>
0.0550

> <Gold.PLP.part.nonpolar>
-40.3203

> <Gold.PLP.part.repulsive>
0.1038

> <Gold.PLP.ligand.clash>
0.0000

> <Gold.PLP.ligand.torsion>
1.0613

> <Gold.PLP.Chemscore.Hbond>
1.0000

> <Gold.PLP.Chemscore.CHOScore>
1.3681

> <Gold.PLP.Chemscore.Metal>
0.0000

> <Gold.Chemscore.Hbonds>
donor molecule, donor type, donor heavy atom, donor atom, acceptor molecule, acceptor atom, score
      P1  H  7997  8010       L1     6  1.00
      L1  C     3    22       P1  7948  1.00
      L1  C     3    22       P1  7957  0.14

> <Gold.PLP.Chemscore.Internal.Correction>
0.0115

> <Gold.Rescore>
     Score         DG    S(hbond)    S(metal)    S(lipo)     H(rot)  DE(clash)    DE(int)     intcor
     18.63     -19.69       1.00        0.00     125.32       1.48       0.30       0.77       ----

> <Gold.Chemscore.Fitness>
18.6277

> <Gold.Chemscore.DG>
-19.6950

> <Gold.Chemscore.ZeroCoef>
-5.4800

> <Gold.Chemscore.Hbond>
0.9993

> <Gold.Chemscore.Metal>
0.0000

> <Gold.Chemscore.Lipo>
125.3193

> <Gold.Chemscore.Internal_Hbond>
0.0000

> <Gold.Chemscore.DEClash>
0.2959

> <Gold.Chemscore.DEInternal>
0.7714

> <Gold.Chemscore.Rot>
1.4785

> <Gold.Chemscore.Internal.Correction>
   9.000000E+99

> <Gold.Chemscore.Hbonds>
donor molecule, donor type, donor heavy atom, donor atom, acceptor molecule, acceptor atom, score
      P1  H  7997  8010       L1     6  0.96

> <Gold.Chemscore.Hbond.Weighted>
-3.3377

> <Gold.Chemscore.Metal.Weighted>
-0.0000

> <Gold.Chemscore.Lipo.Weighted>
-14.6624

> <Gold.Chemscore.Internal_Hbond.Weighted>
0.0000

> <Gold.Chemscore.DEClash.Weighted>
0.2959

> <Gold.Chemscore.DEInternal.Weighted>
0.7714

> <Gold.Chemscore.Rot.Weighted>
3.7850

> <Gold.Chemscore.Internal.Correction.Weighted>
   9.000000E+99

> <Gold.Protein.RotatedTorsions>
[ 6907 6896 6895 6894 ] final  113.22 input  -60.11 | X-H torsion
[ 7974 7965 7964 7962 ] final -178.05 input  175.53 | X-H torsion
[ 8008 7997 7996 7995 ] final   64.10 input   59.86 | X-H torsion
[ 10167 10162 10161 10158 ] final   88.15 input  -65.29 | X-H torsion
[ 10718 10713 10712 10709 ] final  -86.29 input   66.30 | X-H torsion
[ 10763 10752 10751 10750 ] final    4.96 input  -60.55 | X-H torsion
[ 11005 11000 10999 10996 ] final  174.73 input  -57.11 | X-H torsion

> <Gold.Protein.ActiveResidues>
 VAL166  LYS551  ARG553  GLY616  TRP617  ASP618  TYR619  PRO620  LYS621  CYS622 
 ASP623  PHE694  ASN695  SER759  ASP760  ASP761  ALA762  ILE779  LEU786  VAL792 
 PHE793  MET794  SER795  GLU796  ALA797  LYS798  CYS799  TRP800  GLU811  SER814 

> <Gold.Protein.RotatedAtoms>
  152.4873  133.8406  159.7150 H   0  0  0  0  0  0  0  0  0  0  0  0  # atno 6907 bound_to 6896
  150.8970  133.7158  159.2895 H   0  0  0  0  0  0  0  0  0  0  0  0  # atno 6908 bound_to 6896
  151.4612  135.1042  159.9777 H   0  0  0  0  0  0  0  0  0  0  0  0  # atno 6909 bound_to 6896
  144.7129  140.0927  143.6420 H   0  0  0  0  0  0  0  0  0  0  0  0  # atno 7974 bound_to 7965
  155.6407  140.3497  155.4714 H   0  0  0  0  0  0  0  0  0  0  0  0  # atno 8008 bound_to 7997
  155.9928  140.1197  157.0645 H   0  0  0  0  0  0  0  0  0  0  0  0  # atno 8009 bound_to 7997
  154.4224  140.1116  156.5575 H   0  0  0  0  0  0  0  0  0  0  0  0  # atno 8010 bound_to 7997
  139.8702  144.6497  150.8958 H   0  0  0  0  0  0  0  0  0  0  0  0  # atno 10167 bound_to 10162
  155.9991  130.4760  150.4692 H   0  0  0  0  0  0  0  0  0  0  0  0  # atno 10718 bound_to 10713
  153.2650  135.6927  153.7539 H   0  0  0  0  0  0  0  0  0  0  0  0  # atno 10763 bound_to 10752
  153.6583  135.3365  155.3121 H   0  0  0  0  0  0  0  0  0  0  0  0  # atno 10764 bound_to 10752
  154.8444  135.4471  154.1654 H   0  0  0  0  0  0  0  0  0  0  0  0  # atno 10765 bound_to 10752
  140.3544  134.7167  157.4290 H   0  0  0  0  0  0  0  0  0  0  0  0  # atno 11005 bound_to 11000
  145.9606  139.2798  143.1157 LP  0  0  0  0  0  0  0  0  0  0  0  0  # atno 17320 bound_to 7965
  145.9224  140.9106  143.0398 LP  0  0  0  0  0  0  0  0  0  0  0  0  # atno 17321 bound_to 7965
  140.7762  143.3670  151.1720 LP  0  0  0  0  0  0  0  0  0  0  0  0  # atno 17342 bound_to 10162
  139.7291  143.9101  152.3013 LP  0  0  0  0  0  0  0  0  0  0  0  0  # atno 17343 bound_to 10162
  157.2709  131.0587  151.2260 LP  0  0  0  0  0  0  0  0  0  0  0  0  # atno 17370 bound_to 10713
  157.3341  130.7000  149.6342 LP  0  0  0  0  0  0  0  0  0  0  0  0  # atno 17371 bound_to 10713
  140.0677  134.5907  155.8677 LP  0  0  0  0  0  0  0  0  0  0  0  0  # atno 17394 bound_to 11000
  141.2002  133.6611  156.5887 LP  0  0  0  0  0  0  0  0  0  0  0  0  # atno 17395 bound_to 11000

$$$$
