AV-unprocessed.smi:107|AV-procd|sdf|1015|dock9
  -GOLD-   2262018 13D 1   1.00000     0.00000
 Structure written by MMmdl.
 31 32  0  0  0  0  0  0  0  0  1 V2000
  151.6255  144.8049  158.6598 C   0  0  0  0  0  0  0  0  0  0  0  0
  151.4859  143.2945  158.7534 C   0  0  0  0  0  0  0  0  0  0  0  0
  150.6548  142.5888  157.9447 C   0  0  0  0  0  0  0  0  0  0  0  0
  150.5098  141.2096  158.0023 N   0  0  0  0  0  0  0  0  0  0  0  0
  149.5715  140.4827  157.0659 C   0  0  2  0  0  0  0  0  0  0  0  0
  150.3414  139.4995  156.1824 C   0  0  0  0  0  0  0  0  0  0  0  0
  149.6167  139.6468  154.8608 C   0  0  2  0  0  0  0  0  0  0  0  0
  150.4646  139.2982  153.7858 O   0  0  0  0  0  0  0  0  0  0  0  0
  149.2514  141.1345  154.8640 C   0  0  1  0  0  0  0  0  0  0  0  0
  148.0422  141.5027  153.9903 C   0  0  0  0  0  0  0  0  0  0  0  0
  147.7697  142.8851  154.0773 O   0  0  0  0  0  0  0  0  0  0  0  0
  148.9503  141.4153  156.2297 O   0  0  0  0  0  0  0  0  0  0  0  0
  151.2753  140.4728  158.9300 C   0  0  0  0  0  0  0  0  0  0  0  0
  151.2257  139.2469  159.0196 O   0  0  0  0  0  0  0  0  0  0  0  0
  152.1252  141.1970  159.7642 N   0  0  0  0  0  0  0  0  0  0  0  0
  152.2902  142.5842  159.7514 C   0  0  0  0  0  0  0  0  0  0  0  0
  153.0707  143.1101  160.5430 O   0  0  0  0  0  0  0  0  0  0  0  0
  152.6728  140.6738  160.4320 H   0  0  0  0  0  0  0  0  0  0  0  0
  150.9702  145.2251  157.8965 H   0  0  0  0  0  0  0  0  0  0  0  0
  152.6509  145.0770  158.4069 H   0  0  0  0  0  0  0  0  0  0  0  0
  151.3717  145.2721  159.6119 H   0  0  0  0  0  0  0  0  0  0  0  0
  150.0810  143.1344  157.2112 H   0  0  0  0  0  0  0  0  0  0  0  0
  148.7916  140.0094  157.6643 H   0  0  0  0  0  0  0  0  0  0  0  0
  151.3809  139.8208  156.0931 H   0  0  0  0  0  0  0  0  0  0  0  0
  150.3143  138.4902  156.5940 H   0  0  0  0  0  0  0  0  0  0  0  0
  148.7195  139.0263  154.8537 H   0  0  0  0  0  0  0  0  0  0  0  0
  150.1162  138.5243  153.3693 H   0  0  0  0  0  0  0  0  0  0  0  0
  150.1181  141.7369  154.5864 H   0  0  0  0  0  0  0  0  0  0  0  0
  148.2113  141.2263  152.9491 H   0  0  0  0  0  0  0  0  0  0  0  0
  147.1588  140.9604  154.3278 H   0  0  0  0  0  0  0  0  0  0  0  0
  148.3698  143.2711  154.6971 H   0  0  0  0  0  0  0  0  0  0  0  0
  1  2  1  0  0  0  0
  1 19  1  0  0  0  0
  1 20  1  0  0  0  0
  1 21  1  0  0  0  0
  2 16  1  0  0  0  0
  2  3  2  0  0  0  0
  3  4  1  0  0  0  0
  3 22  1  0  0  0  0
  4  5  1  0  0  0  0
  4 13  1  0  0  0  0
  5 12  1  0  0  0  0
  5  6  1  0  0  0  0
  5 23  1  0  0  0  0
  6  7  1  0  0  0  0
  6 24  1  0  0  0  0
  6 25  1  0  0  0  0
  7  8  1  0  0  0  0
  7  9  1  0  0  0  0
  7 26  1  0  0  0  0
  8 27  1  0  0  0  0
  9 10  1  0  0  0  0
  9 12  1  0  0  0  0
  9 28  1  0  0  0  0
 10 11  1  0  0  0  0
 10 29  1  0  0  0  0
 10 30  1  0  0  0  0
 11 31  1  0  0  0  0
 13 14  2  0  0  0  0
 13 15  1  0  0  0  0
 15 18  1  0  0  0  0
 15 16  1  0  0  0  0
 16 17  2  0  0  0  0
M  END
> <s_m_source_file>
AV-unprocessed.smi

> <i_m_source_file_index>
107

> <i_lp_mmshare_version>
43012

> <i_f3d_flags>
0

> <s_epik_input>
Tz1jMVtuSF1jKD1PKW4oW2NIXWMxW0NIM10pW0NAQEhdMltDSDJdW0NAQEhdKFtPSF0pW0NASF0oTzIpW0NIMl1bT0hd

> <s_epik_cmdline>
J2VwaWtfcHl0aG9uJywgJy1waCcsICc3LjAnLCAnLXRuJywgJzgnLCAnLW1hJywgJzIwMCcsICctbWV0YWxfYmluZGluZycsICctaW1hZScsICc8aW5maWxlLm1hZT4nLCAnLW9tYWUnLCAnPG91dGZpbGUubWFlPic=

> <r_lp_tautomer_probability>
0.999537

> <r_epik_Ionization_Penalty>
0.00121888

> <r_epik_Ionization_Penalty_Charging>
0.00121876

> <r_epik_Ionization_Penalty_Neutral>
1.19946e-07

> <r_epik_State_Penalty>
0.000805124

> <r_epik_Charging_Adjusted_Penalty>
0.00202389

> <i_epik_Tot_Q>
0

> <i_epik_Tot_abs_Q>
0

> <r_epik_Metal_State_Penalty>
0.662472

> <b_epik_Metal_Only>
0

> <s_epik_Chemistry_Notes>
This compound contains an acetal/aminal-like group ( X-CH(R)-Y where X, Y are N, S, or O) that may be acid/base labile, releasing an aldehyde.

> <s_lp_Force_Field>
OPLS_2005

> <r_lp_Energy>
24.0727

> <b_lp_Chiralities_Consistent>
1

> <s_lp_Variant>
AV-unprocessed.smi:107-3

> <Gold.Version>
5.8.1

> <Gold.Id.Protein>
6NUR|6NUR_protein|mol2

> <Gold.PLP.Fitness>
39.1597

> <Gold.PLP.PLP>
-30.4481

> <Gold.PLP.part.hbond>
-5.0000

> <Gold.PLP.part.metal>
0.0000

> <Gold.PLP.part.buried>
-3.1958

> <Gold.PLP.part.nonpolar>
-23.7670

> <Gold.PLP.part.repulsive>
0.2393

> <Gold.PLP.ligand.clash>
0.0000

> <Gold.PLP.ligand.torsion>
0.0041

> <Gold.PLP.Chemscore.Hbond>
1.9040

> <Gold.PLP.Chemscore.CHOScore>
1.0000

> <Gold.PLP.Chemscore.Metal>
0.0000

> <Gold.Chemscore.Hbonds>
donor molecule, donor type, donor heavy atom, donor atom, acceptor molecule, acceptor atom, score
      L1  H    11    31       P1  8028  0.94
      P1  H  7989  7998       L1     8  1.00
      L1  C     3    22       P1  8028  1.00

> <Gold.PLP.Chemscore.Internal.Correction>
0.0077

> <Gold.Rescore>
     Score         DG    S(hbond)    S(metal)    S(lipo)     H(rot)  DE(clash)    DE(int)     intcor
      8.70      -9.94       1.44        0.00      56.59       2.73       0.08       1.16       ----

> <Gold.Chemscore.Fitness>
8.7019

> <Gold.Chemscore.DG>
-9.9408

> <Gold.Chemscore.ZeroCoef>
-5.4800

> <Gold.Chemscore.Hbond>
1.4421

> <Gold.Chemscore.Metal>
0.0000

> <Gold.Chemscore.Lipo>
56.5889

> <Gold.Chemscore.Internal_Hbond>
0.0000

> <Gold.Chemscore.DEClash>
0.0812

> <Gold.Chemscore.DEInternal>
1.1578

> <Gold.Chemscore.Rot>
2.7253

> <Gold.Chemscore.Internal.Correction>
   9.000000E+99

> <Gold.Chemscore.Hbonds>
donor molecule, donor type, donor heavy atom, donor atom, acceptor molecule, acceptor atom, score
      L1  H    11    31       P1  8028  0.91
      P1  H  7989  7998       L1     8  0.56

> <Gold.Chemscore.Hbond.Weighted>
-4.8168

> <Gold.Chemscore.Metal.Weighted>
-0.0000

> <Gold.Chemscore.Lipo.Weighted>
-6.6209

> <Gold.Chemscore.Internal_Hbond.Weighted>
0.0000

> <Gold.Chemscore.DEClash.Weighted>
0.0812

> <Gold.Chemscore.DEInternal.Weighted>
1.1578

> <Gold.Chemscore.Rot.Weighted>
6.9769

> <Gold.Chemscore.Internal.Correction.Weighted>
   9.000000E+99

> <Gold.Protein.RotatedTorsions>
[ 6907 6896 6895 6894 ] final -129.03 input  -60.11 | X-H torsion
[ 7974 7965 7964 7962 ] final  -21.85 input  175.53 | X-H torsion
[ 8008 7997 7996 7995 ] final -108.42 input   59.86 | X-H torsion
[ 10167 10162 10161 10158 ] final  -17.97 input  -65.29 | X-H torsion
[ 10718 10713 10712 10709 ] final  -73.89 input   66.30 | X-H torsion
[ 10763 10752 10751 10750 ] final -158.30 input  -60.55 | X-H torsion
[ 11005 11000 10999 10996 ] final -162.39 input  -57.11 | X-H torsion

> <Gold.Protein.ActiveResidues>
 VAL166  LYS551  ARG553  GLY616  TRP617  ASP618  TYR619  PRO620  LYS621  CYS622 
 ASP623  PHE694  ASN695  SER759  ASP760  ASP761  ALA762  ILE779  LEU786  VAL792 
 PHE793  MET794  SER795  GLU796  ALA797  LYS798  CYS799  TRP800  GLU811  SER814 

> <Gold.Protein.RotatedAtoms>
  150.9243  133.6842  159.2824 H   0  0  0  0  0  0  0  0  0  0  0  0  # atno 6907 bound_to 6896
  151.4286  135.1005  159.9645 H   0  0  0  0  0  0  0  0  0  0  0  0  # atno 6908 bound_to 6896
  152.4995  133.8679  159.7338 H   0  0  0  0  0  0  0  0  0  0  0  0  # atno 6909 bound_to 6896
  146.1709  140.4398  142.8533 H   0  0  0  0  0  0  0  0  0  0  0  0  # atno 7974 bound_to 7965
  154.9440  140.0402  157.2111 H   0  0  0  0  0  0  0  0  0  0  0  0  # atno 8008 bound_to 7997
  154.8041  140.2857  155.5878 H   0  0  0  0  0  0  0  0  0  0  0  0  # atno 8009 bound_to 7997
  156.2964  140.2549  156.2916 H   0  0  0  0  0  0  0  0  0  0  0  0  # atno 8010 bound_to 7997
  140.7253  143.4963  150.9927 H   0  0  0  0  0  0  0  0  0  0  0  0  # atno 10167 bound_to 10162
  156.0263  130.4404  150.2811 H   0  0  0  0  0  0  0  0  0  0  0  0  # atno 10718 bound_to 10713
  154.7567  135.3106  154.8456 H   0  0  0  0  0  0  0  0  0  0  0  0  # atno 10763 bound_to 10752
  153.9228  135.6794  153.4751 H   0  0  0  0  0  0  0  0  0  0  0  0  # atno 10764 bound_to 10752
  153.1165  135.4842  154.9054 H   0  0  0  0  0  0  0  0  0  0  0  0  # atno 10765 bound_to 10752
  140.6098  134.4861  157.5214 H   0  0  0  0  0  0  0  0  0  0  0  0  # atno 11005 bound_to 11000
  144.8162  140.6472  143.6383 LP  0  0  0  0  0  0  0  0  0  0  0  0  # atno 17320 bound_to 7965
  145.4342  139.1544  143.4005 LP  0  0  0  0  0  0  0  0  0  0  0  0  # atno 17321 bound_to 7965
  139.8670  143.7241  152.3169 LP  0  0  0  0  0  0  0  0  0  0  0  0  # atno 17342 bound_to 10162
  139.7477  144.7543  151.0555 LP  0  0  0  0  0  0  0  0  0  0  0  0  # atno 17343 bound_to 10162
  157.0914  131.0170  151.3120 LP  0  0  0  0  0  0  0  0  0  0  0  0  # atno 17370 bound_to 10713
  157.4851  130.7788  149.7452 LP  0  0  0  0  0  0  0  0  0  0  0  0  # atno 17371 bound_to 10713
  139.9197  134.8174  156.1251 LP  0  0  0  0  0  0  0  0  0  0  0  0  # atno 17394 bound_to 11000
  141.0816  133.6752  156.2348 LP  0  0  0  0  0  0  0  0  0  0  0  0  # atno 17395 bound_to 11000

$$$$
