AV-unprocessed.smi:1966|AV-procd|sdf|7949|dock6
  -GOLD-   2272010113D 1   1.00000     0.00000
 Structure written by MMmdl.
 53 54  0  0  0  0  0  0  0  0  1 V2000
  148.8190  132.7230  153.2000 C   0  0  0  0  0  0  0  0  0  0  0  0
  147.6703  133.5253  153.8008 C   0  0  0  0  0  0  0  0  0  0  0  0
  146.9362  133.0157  154.6471 O   0  0  0  0  0  0  0  0  0  0  0  0
  147.5252  134.7824  153.3522 N   0  0  0  0  0  0  0  0  0  0  0  0
  146.5013  135.7297  153.7991 C   0  0  1  0  0  0  0  0  0  0  0  0
  147.1315  136.6923  154.8250 C   0  0  0  0  0  0  0  0  0  0  0  0
  146.6688  136.7629  155.9641 O   0  0  0  0  0  0  0  0  0  0  0  0
  148.2031  137.3810  154.3900 N   0  0  0  0  0  0  0  0  0  0  0  0
  148.9987  138.3303  155.0870 C   0  0  0  0  0  0  0  0  0  0  0  0
  148.9628  138.3111  156.4947 C   0  0  0  0  0  0  0  0  0  0  0  0
  149.7508  139.2262  157.2177 C   0  0  0  0  0  0  0  0  0  0  0  0
  150.5690  140.1396  156.5126 C   0  0  0  0  0  0  0  0  0  0  0  0
  151.3683  141.0662  157.2168 N   0  0  0  0  0  0  0  0  0  0  0  0
  150.8107  142.4100  157.3405 C   0  0  0  0  0  0  0  0  0  0  0  0
  151.8834  143.3953  157.8431 C   0  0  1  0  0  0  0  0  0  0  0  0
  151.3043  144.7888  158.1074 C   0  0  0  0  0  0  0  0  0  0  0  0
  152.4408  142.9056  159.0596 O   0  0  0  0  0  0  0  0  0  0  0  0
  153.0807  141.6433  158.8948 C   0  0  1  0  0  0  0  0  0  0  0  0
  153.7280  141.2546  160.2279 C   0  0  0  0  0  0  0  0  0  0  0  0
  152.0393  140.6076  158.4316 C   0  0  0  0  0  0  0  0  0  0  0  0
  150.6091  140.1532  155.1576 N   0  0  0  0  0  0  0  0  0  0  0  0
  149.8528  139.2734  154.4676 C   0  0  0  0  0  0  0  0  0  0  0  0
  145.9779  136.5265  152.5674 C   0  0  0  0  0  0  0  0  0  0  0  0
  145.1408  137.7626  152.9583 C   0  0  0  0  0  0  0  0  0  0  0  0
  145.1486  135.6374  151.6197 C   0  0  0  0  0  0  0  0  0  0  0  0
  149.7693  133.2286  153.3734 H   0  0  0  0  0  0  0  0  0  0  0  0
  148.6796  132.6061  152.1249 H   0  0  0  0  0  0  0  0  0  0  0  0
  148.8739  131.7301  153.6478 H   0  0  0  0  0  0  0  0  0  0  0  0
  148.1811  135.1172  152.6617 H   0  0  0  0  0  0  0  0  0  0  0  0
  145.6720  135.1850  154.2559 H   0  0  0  0  0  0  0  0  0  0  0  0
  148.5128  137.1632  153.4541 H   0  0  0  0  0  0  0  0  0  0  0  0
  148.3335  137.6073  157.0199 H   0  0  0  0  0  0  0  0  0  0  0  0
  149.7085  139.2255  158.2965 H   0  0  0  0  0  0  0  0  0  0  0  0
  150.4156  142.7691  156.3914 H   0  0  0  0  0  0  0  0  0  0  0  0
  149.9736  142.3770  158.0394 H   0  0  0  0  0  0  0  0  0  0  0  0
  152.6763  143.4852  157.0983 H   0  0  0  0  0  0  0  0  0  0  0  0
  150.8783  145.2150  157.1990 H   0  0  0  0  0  0  0  0  0  0  0  0
  152.0769  145.4701  158.4644 H   0  0  0  0  0  0  0  0  0  0  0  0
  150.5178  144.7524  158.8617 H   0  0  0  0  0  0  0  0  0  0  0  0
  153.8663  141.7358  158.1423 H   0  0  0  0  0  0  0  0  0  0  0  0
  154.2386  140.2944  160.1504 H   0  0  0  0  0  0  0  0  0  0  0  0
  152.9831  141.1760  161.0202 H   0  0  0  0  0  0  0  0  0  0  0  0
  154.4636  141.9988  160.5347 H   0  0  0  0  0  0  0  0  0  0  0  0
  151.2957  140.4461  159.2133 H   0  0  0  0  0  0  0  0  0  0  0  0
  152.5342  139.6528  158.2487 H   0  0  0  0  0  0  0  0  0  0  0  0
  149.9647  139.3319  153.3967 H   0  0  0  0  0  0  0  0  0  0  0  0
  146.8361  136.8860  151.9967 H   0  0  0  0  0  0  0  0  0  0  0  0
  144.2883  137.4812  153.5772 H   0  0  0  0  0  0  0  0  0  0  0  0
  144.7536  138.2698  152.0741 H   0  0  0  0  0  0  0  0  0  0  0  0
  145.7254  138.4990  153.5098 H   0  0  0  0  0  0  0  0  0  0  0  0
  144.2876  135.2098  152.1343 H   0  0  0  0  0  0  0  0  0  0  0  0
  145.7356  134.8140  151.2126 H   0  0  0  0  0  0  0  0  0  0  0  0
  144.7756  136.2100  150.7702 H   0  0  0  0  0  0  0  0  0  0  0  0
  1  2  1  0  0  0  0
  1 26  1  0  0  0  0
  1 27  1  0  0  0  0
  1 28  1  0  0  0  0
  2  3  2  0  0  0  0
  2  4  1  0  0  0  0
  4  5  1  0  0  0  0
  4 29  1  0  0  0  0
  5  6  1  0  0  0  0
  5 23  1  0  0  0  0
  5 30  1  0  0  0  0
  6  7  2  0  0  0  0
  6  8  1  0  0  0  0
  8  9  1  0  0  0  0
  8 31  1  0  0  0  0
  9 22  1  0  0  0  0
  9 10  2  0  0  0  0
 10 11  1  0  0  0  0
 10 32  1  0  0  0  0
 11 12  2  0  0  0  0
 11 33  1  0  0  0  0
 12 13  1  0  0  0  0
 12 21  1  0  0  0  0
 13 20  1  0  0  0  0
 13 14  1  0  0  0  0
 14 15  1  0  0  0  0
 14 34  1  0  0  0  0
 14 35  1  0  0  0  0
 15 16  1  0  0  0  0
 15 17  1  0  0  0  0
 15 36  1  0  0  0  0
 16 37  1  0  0  0  0
 16 38  1  0  0  0  0
 16 39  1  0  0  0  0
 17 18  1  0  0  0  0
 18 19  1  0  0  0  0
 18 20  1  0  0  0  0
 18 40  1  0  0  0  0
 19 41  1  0  0  0  0
 19 42  1  0  0  0  0
 19 43  1  0  0  0  0
 20 44  1  0  0  0  0
 20 45  1  0  0  0  0
 21 22  2  0  0  0  0
 22 46  1  0  0  0  0
 23 24  1  0  0  0  0
 23 25  1  0  0  0  0
 23 47  1  0  0  0  0
 24 48  1  0  0  0  0
 24 49  1  0  0  0  0
 24 50  1  0  0  0  0
 25 51  1  0  0  0  0
 25 52  1  0  0  0  0
 25 53  1  0  0  0  0
M  END
> <s_m_source_file>
AV-unprocessed.smi

> <i_m_source_file_index>
1966

> <i_lp_mmshare_version>
43012

> <i_f3d_flags>
0

> <s_epik_input>
W0NIM11DKD1PKVtOSF1bQ0BASF0oW0NIXShbQ0gzXSlbQ0gzXSlDKD1PKVtOSF1jMVtjSF1bY0hdYyhuW2NIXTEpTjJbQ0gyXVtDQEBIXShbQ0gzXSlPW0NAQEhdKFtDSDNdKVtDSDJdMg==

> <s_epik_cmdline>
J2VwaWtfcHl0aG9uJywgJy1waCcsICc3LjAnLCAnLXRuJywgJzgnLCAnLW1hJywgJzIwMCcsICctbWV0YWxfYmluZGluZycsICctaW1hZScsICc8aW5maWxlLm1hZT4nLCAnLW9tYWUnLCAnPG91dGZpbGUubWFlPic=

> <r_lp_tautomer_probability>
1

> <r_epik_Ionization_Penalty>
0.000679699

> <r_epik_Ionization_Penalty_Charging>
0

> <r_epik_Ionization_Penalty_Neutral>
0.000679699

> <r_epik_State_Penalty>
0.000430485

> <r_epik_Charging_Adjusted_Penalty>
0.000430485

> <i_epik_Tot_Q>
0

> <i_epik_Tot_abs_Q>
0

> <r_epik_Metal_State_Penalty>
-0

> <b_epik_Metal_Only>
0

> <s_lp_Force_Field>
OPLS_2005

> <r_lp_Energy>
24.6084

> <b_lp_Chiralities_Consistent>
1

> <s_lp_Variant>
AV-unprocessed.smi:1966-2

> <Gold.Version>
5.8.1

> <Gold.Id.Protein>
6NUR|6NUR_protein|mol2

> <Gold.PLP.Fitness>
43.1397

> <Gold.PLP.PLP>
-33.8007

> <Gold.PLP.part.hbond>
-2.8634

> <Gold.PLP.part.metal>
0.0000

> <Gold.PLP.part.buried>
-3.3253

> <Gold.PLP.part.nonpolar>
-26.7544

> <Gold.PLP.part.repulsive>
0.1139

> <Gold.PLP.ligand.clash>
0.0000

> <Gold.PLP.ligand.torsion>
1.0858

> <Gold.PLP.Chemscore.Hbond>
2.7150

> <Gold.PLP.Chemscore.CHOScore>
1.0000

> <Gold.PLP.Chemscore.Metal>
0.0000

> <Gold.Chemscore.Hbonds>
donor molecule, donor type, donor heavy atom, donor atom, acceptor molecule, acceptor atom, score
      L1  H     4    29       P1  7948  1.00
      L1  H     8    31       P1  7948  1.00
      P1  H  7989  7998       L1    21  0.72
      L1  C    22    46       P1  7957  1.00

> <Gold.PLP.Chemscore.Internal.Correction>
0.3656

> <Gold.Rescore>
     Score         DG    S(hbond)    S(metal)    S(lipo)     H(rot)  DE(clash)    DE(int)     intcor
     15.60     -18.30       1.87        0.00      92.77       1.68       0.28       2.41       ----

> <Gold.Chemscore.Fitness>
15.6048

> <Gold.Chemscore.DG>
-18.2979

> <Gold.Chemscore.ZeroCoef>
-5.4800

> <Gold.Chemscore.Hbond>
1.8724

> <Gold.Chemscore.Metal>
0.0000

> <Gold.Chemscore.Lipo>
92.7706

> <Gold.Chemscore.Internal_Hbond>
0.0000

> <Gold.Chemscore.DEClash>
0.2814

> <Gold.Chemscore.DEInternal>
2.4117

> <Gold.Chemscore.Rot>
1.6759

> <Gold.Chemscore.Internal.Correction>
   9.000000E+99

> <Gold.Chemscore.Hbonds>
donor molecule, donor type, donor heavy atom, donor atom, acceptor molecule, acceptor atom, score
      L1  H     4    29       P1  7948  0.84
      L1  H     8    31       P1  7948  1.00
      P1  H  7989  7998       L1    21  0.10

> <Gold.Chemscore.Hbond.Weighted>
-6.2540

> <Gold.Chemscore.Metal.Weighted>
-0.0000

> <Gold.Chemscore.Lipo.Weighted>
-10.8542

> <Gold.Chemscore.Internal_Hbond.Weighted>
0.0000

> <Gold.Chemscore.DEClash.Weighted>
0.2814

> <Gold.Chemscore.DEInternal.Weighted>
2.4117

> <Gold.Chemscore.Rot.Weighted>
4.2902

> <Gold.Chemscore.Internal.Correction.Weighted>
   9.000000E+99

> <Gold.Protein.RotatedTorsions>
[ 6907 6896 6895 6894 ] final   31.40 input  -60.11 | X-H torsion
[ 7974 7965 7964 7962 ] final  117.53 input  175.53 | X-H torsion
[ 8008 7997 7996 7995 ] final -115.96 input   59.86 | X-H torsion
[ 10167 10162 10161 10158 ] final -161.91 input  -65.29 | X-H torsion
[ 10718 10713 10712 10709 ] final  170.01 input   66.30 | X-H torsion
[ 10763 10752 10751 10750 ] final   64.08 input  -60.55 | X-H torsion
[ 11005 11000 10999 10996 ] final   -0.52 input  -57.11 | X-H torsion

> <Gold.Protein.ActiveResidues>
 VAL166  LYS551  ARG553  GLY616  TRP617  ASP618  TYR619  PRO620  LYS621  CYS622 
 ASP623  PHE694  ASN695  SER759  ASP760  ASP761  ALA762  ILE779  LEU786  VAL792 
 PHE793  MET794  SER795  GLU796  ALA797  LYS798  CYS799  TRP800  GLU811  SER814 

> <Gold.Protein.RotatedAtoms>
  152.0597  134.9602  160.0574 H   0  0  0  0  0  0  0  0  0  0  0  0  # atno 6907 bound_to 6896
  152.0970  133.4225  159.4578 H   0  0  0  0  0  0  0  0  0  0  0  0  # atno 6908 bound_to 6896
  150.6838  134.2724  159.4637 H   0  0  0  0  0  0  0  0  0  0  0  0  # atno 6909 bound_to 6896
  145.1662  139.3127  143.4491 H   0  0  0  0  0  0  0  0  0  0  0  0  # atno 7974 bound_to 7965
  155.0604  140.0393  157.2574 H   0  0  0  0  0  0  0  0  0  0  0  0  # atno 8008 bound_to 7997
  154.7064  140.2684  155.6646 H   0  0  0  0  0  0  0  0  0  0  0  0  # atno 8009 bound_to 7997
  156.2776  140.2730  156.1692 H   0  0  0  0  0  0  0  0  0  0  0  0  # atno 8010 bound_to 7997
  139.6430  144.0224  152.2106 H   0  0  0  0  0  0  0  0  0  0  0  0  # atno 10167 bound_to 10162
  157.0143  131.0213  151.2794 H   0  0  0  0  0  0  0  0  0  0  0  0  # atno 10718 bound_to 10713
  153.0042  135.5406  154.6454 H   0  0  0  0  0  0  0  0  0  0  0  0  # atno 10763 bound_to 10752
  154.5699  135.2841  155.0839 H   0  0  0  0  0  0  0  0  0  0  0  0  # atno 10764 bound_to 10752
  154.2009  135.6484  153.5139 H   0  0  0  0  0  0  0  0  0  0  0  0  # atno 10765 bound_to 10752
  140.6372  133.9522  155.8306 H   0  0  0  0  0  0  0  0  0  0  0  0  # atno 11005 bound_to 11000
  146.3475  140.1791  142.8589 LP  0  0  0  0  0  0  0  0  0  0  0  0  # atno 17320 bound_to 7965
  145.0279  140.8847  143.5127 LP  0  0  0  0  0  0  0  0  0  0  0  0  # atno 17321 bound_to 7965
  139.9918  144.6356  150.7807 LP  0  0  0  0  0  0  0  0  0  0  0  0  # atno 17342 bound_to 10162
  140.7500  143.2949  151.3232 LP  0  0  0  0  0  0  0  0  0  0  0  0  # atno 17343 bound_to 10162
  157.5297  130.8051  149.7903 LP  0  0  0  0  0  0  0  0  0  0  0  0  # atno 17370 bound_to 10713
  156.0125  130.3827  150.2218 LP  0  0  0  0  0  0  0  0  0  0  0  0  # atno 17371 bound_to 10713
  141.0633  134.0314  157.3629 LP  0  0  0  0  0  0  0  0  0  0  0  0  # atno 17394 bound_to 11000
  139.9093  135.0187  156.7625 LP  0  0  0  0  0  0  0  0  0  0  0  0  # atno 17395 bound_to 11000

$$$$
