AV-unprocessed.smi:2886|AV-procd|sdf|11090|dock5
  -GOLD-   2272015563D 1   1.00000     0.00000
 Structure written by MMmdl.
 28 30  0  0  0  0  0  0  0  0  1 V2000
  150.9126  138.0341  154.3183 O   0  0  0  0  0  0  0  0  0  0  0  0
  150.6074  139.0697  154.9066 C   0  0  0  0  0  0  0  0  0  0  0  0
  149.5675  139.8342  154.4981 N   0  0  0  0  0  0  0  0  0  0  0  0
  149.1313  141.0001  155.0786 N   0  0  0  0  0  0  0  0  0  0  0  0
  149.7579  141.4414  156.1153 C   0  0  0  0  0  0  0  0  0  0  0  0
  150.9121  140.7598  156.6924 C   0  0  0  0  0  0  0  0  0  0  0  0
  151.5867  141.2352  157.8100 N   0  0  0  0  0  0  0  0  0  0  0  0
  151.3191  142.4284  158.6009 C   0  0  1  0  0  0  0  0  0  0  0  0
  152.3531  142.6407  159.7096 C   0  0  0  0  0  0  0  0  0  0  0  0
  152.8667  144.0510  159.3927 C   0  0  2  0  0  0  0  0  0  0  0  0
  151.8064  145.1298  159.6543 C   0  0  0  0  0  0  0  0  0  0  0  0
  150.8446  144.9135  158.4860 C   0  0  0  0  0  0  0  0  0  0  0  0
  151.4806  143.7133  157.7718 C   0  0  1  0  0  0  0  0  0  0  0  0
  152.8531  144.0083  157.9766 O   0  0  0  0  0  0  0  0  0  0  0  0
  151.3003  139.6024  156.0879 C   0  0  0  0  0  0  0  0  0  0  0  0
  152.6512  138.7043  156.6951 Cl  0  0  0  0  0  0  0  0  0  0  0  0
  149.0316  139.5472  153.6918 H   0  0  0  0  0  0  0  0  0  0  0  0
  149.4397  142.3561  156.6139 H   0  0  0  0  0  0  0  0  0  0  0  0
  152.4512  140.7677  158.0444 H   0  0  0  0  0  0  0  0  0  0  0  0
  150.3077  142.3909  159.0043 H   0  0  0  0  0  0  0  0  0  0  0  0
  151.9194  142.5688  160.7074 H   0  0  0  0  0  0  0  0  0  0  0  0
  153.1677  141.9176  159.6420 H   0  0  0  0  0  0  0  0  0  0  0  0
  153.8422  144.2738  159.8260 H   0  0  0  0  0  0  0  0  0  0  0  0
  151.3269  145.0109  160.6265 H   0  0  0  0  0  0  0  0  0  0  0  0
  152.2450  146.1272  159.6084 H   0  0  0  0  0  0  0  0  0  0  0  0
  149.8220  144.7149  158.8081 H   0  0  0  0  0  0  0  0  0  0  0  0
  150.8329  145.7883  157.8347 H   0  0  0  0  0  0  0  0  0  0  0  0
  151.1846  143.6195  156.7263 H   0  0  0  0  0  0  0  0  0  0  0  0
  1  2  2  0  0  0  0
  2 15  1  0  0  0  0
  2  3  1  0  0  0  0
  3 17  1  0  0  0  0
  3  4  1  0  0  0  0
  4  5  2  0  0  0  0
  5  6  1  0  0  0  0
  5 18  1  0  0  0  0
  6  7  1  0  0  0  0
  6 15  2  0  0  0  0
  7  8  1  0  0  0  0
  7 19  1  0  0  0  0
  8 13  1  0  0  0  0
  8  9  1  0  0  0  0
  8 20  1  0  0  0  0
  9 10  1  0  0  0  0
  9 21  1  0  0  0  0
  9 22  1  0  0  0  0
 10 14  1  0  0  0  0
 10 11  1  0  0  0  0
 10 23  1  0  0  0  0
 11 12  1  0  0  0  0
 11 24  1  0  0  0  0
 11 25  1  0  0  0  0
 12 13  1  0  0  0  0
 12 26  1  0  0  0  0
 12 27  1  0  0  0  0
 13 14  1  0  0  0  0
 13 28  1  0  0  0  0
 15 16  1  0  0  0  0
M  END
> <s_m_source_file>
AV-unprocessed.smi

> <i_m_source_file_index>
2886

> <i_lp_mmshare_version>
43012

> <i_f3d_flags>
0

> <s_epik_input>
Tz1jMVtuSF1uW2NIXWMoYzFDbClbTkhdW0NASF0oW0NIMl1bQ0BASF0yMylbQ0BASF0oTzMpW0NIMl1bQ0gyXTI=

> <s_epik_cmdline>
J2VwaWtfcHl0aG9uJywgJy1waCcsICc3LjAnLCAnLXRuJywgJzgnLCAnLW1hJywgJzIwMCcsICctbWV0YWxfYmluZGluZycsICctaW1hZScsICc8aW5maWxlLm1hZT4nLCAnLW9tYWUnLCAnPG91dGZpbGUubWFlPic=

> <r_lp_tautomer_probability>
0.986175

> <r_epik_Ionization_Penalty>
0.000975594

> <r_epik_Ionization_Penalty_Charging>
0.000940184

> <r_epik_Ionization_Penalty_Neutral>
3.54099e-05

> <r_epik_State_Penalty>
0.00620319

> <r_epik_Charging_Adjusted_Penalty>
0.00714337

> <i_epik_Tot_Q>
0

> <i_epik_Tot_abs_Q>
0

> <r_epik_Metal_State_Penalty>
0.287699

> <b_epik_Metal_Only>
0

> <s_lp_Force_Field>
OPLS_2005

> <r_lp_Energy>
54.6963

> <b_lp_Chiralities_Consistent>
1

> <s_lp_Variant>
AV-unprocessed.smi:2886-4

> <Gold.Version>
5.8.1

> <Gold.Id.Protein>
6NUR|6NUR_protein|mol2

> <Gold.PLP.Fitness>
38.3165

> <Gold.PLP.PLP>
-32.3431

> <Gold.PLP.part.hbond>
-2.2273

> <Gold.PLP.part.metal>
0.0000

> <Gold.PLP.part.buried>
-2.7372

> <Gold.PLP.part.nonpolar>
-29.2537

> <Gold.PLP.part.repulsive>
2.9484

> <Gold.PLP.ligand.clash>
0.0000

> <Gold.PLP.ligand.torsion>
0.0099

> <Gold.PLP.Chemscore.Hbond>
0.9913

> <Gold.PLP.Chemscore.CHOScore>
1.0000

> <Gold.PLP.Chemscore.Metal>
0.0000

> <Gold.Chemscore.Hbonds>
donor molecule, donor type, donor heavy atom, donor atom, acceptor molecule, acceptor atom, score
      L1  C     5    18       P1  8028  0.81

> <Gold.PLP.Chemscore.Internal.Correction>
0.0196

> <Gold.Rescore>
     Score         DG    S(hbond)    S(metal)    S(lipo)     H(rot)  DE(clash)    DE(int)     intcor
     13.41     -13.68       0.00        0.00      91.95       1.00       0.04       0.22       ----

> <Gold.Chemscore.Fitness>
13.4104

> <Gold.Chemscore.DG>
-13.6777

> <Gold.Chemscore.ZeroCoef>
-5.4800

> <Gold.Chemscore.Hbond>
0.0000

> <Gold.Chemscore.Metal>
0.0000

> <Gold.Chemscore.Lipo>
91.9462

> <Gold.Chemscore.Internal_Hbond>
0.0000

> <Gold.Chemscore.DEClash>
0.0440

> <Gold.Chemscore.DEInternal>
0.2233

> <Gold.Chemscore.Rot>
1.0000

> <Gold.Chemscore.Internal.Correction>
   9.000000E+99

> <Gold.Chemscore.Hbond.Weighted>
-0.0000

> <Gold.Chemscore.Metal.Weighted>
-0.0000

> <Gold.Chemscore.Lipo.Weighted>
-10.7577

> <Gold.Chemscore.Internal_Hbond.Weighted>
0.0000

> <Gold.Chemscore.DEClash.Weighted>
0.0440

> <Gold.Chemscore.DEInternal.Weighted>
0.2233

> <Gold.Chemscore.Rot.Weighted>
2.5600

> <Gold.Chemscore.Internal.Correction.Weighted>
   9.000000E+99

> <Gold.Protein.RotatedTorsions>
[ 6907 6896 6895 6894 ] final   -4.19 input  -60.11 | X-H torsion
[ 7974 7965 7964 7962 ] final -166.01 input  175.53 | X-H torsion
[ 8008 7997 7996 7995 ] final  -29.12 input   59.86 | X-H torsion
[ 10167 10162 10161 10158 ] final   66.52 input  -65.29 | X-H torsion
[ 10718 10713 10712 10709 ] final -167.20 input   66.30 | X-H torsion
[ 10763 10752 10751 10750 ] final  174.86 input  -60.55 | X-H torsion
[ 11005 11000 10999 10996 ] final   -0.03 input  -57.11 | X-H torsion

> <Gold.Protein.ActiveResidues>
 VAL166  LYS551  ARG553  GLY616  TRP617  ASP618  TYR619  PRO620  LYS621  CYS622 
 ASP623  PHE694  ASN695  SER759  ASP760  ASP761  ALA762  ILE779  LEU786  VAL792 
 PHE793  MET794  SER795  GLU796  ALA797  LYS798  CYS799  TRP800  GLU811  SER814 

> <Gold.Protein.RotatedAtoms>
  151.5016  135.1062  159.9830 H   0  0  0  0  0  0  0  0  0  0  0  0  # atno 6907 bound_to 6896
  152.4699  133.8002  159.6959 H   0  0  0  0  0  0  0  0  0  0  0  0  # atno 6908 bound_to 6896
  150.8702  133.7453  159.2989 H   0  0  0  0  0  0  0  0  0  0  0  0  # atno 6909 bound_to 6896
  144.7256  140.2730  143.6248 H   0  0  0  0  0  0  0  0  0  0  0  0  # atno 7974 bound_to 7965
  154.4303  140.1827  156.1197 H   0  0  0  0  0  0  0  0  0  0  0  0  # atno 8008 bound_to 7997
  156.0152  140.3346  155.6957 H   0  0  0  0  0  0  0  0  0  0  0  0  # atno 8009 bound_to 7997
  155.6054  140.0644  157.2712 H   0  0  0  0  0  0  0  0  0  0  0  0  # atno 8010 bound_to 7997
  140.0996  144.4916  150.7046 H   0  0  0  0  0  0  0  0  0  0  0  0  # atno 10167 bound_to 10162
  156.6790  130.9114  151.3054 H   0  0  0  0  0  0  0  0  0  0  0  0  # atno 10718 bound_to 10713
  154.4598  135.2767  155.1721 H   0  0  0  0  0  0  0  0  0  0  0  0  # atno 10763 bound_to 10752
  154.3514  135.6149  153.5648 H   0  0  0  0  0  0  0  0  0  0  0  0  # atno 10764 bound_to 10752
  152.9854  135.5812  154.4958 H   0  0  0  0  0  0  0  0  0  0  0  0  # atno 10765 bound_to 10752
  140.6317  133.9569  155.8278 H   0  0  0  0  0  0  0  0  0  0  0  0  # atno 11005 bound_to 11000
  145.8024  139.1970  143.2040 LP  0  0  0  0  0  0  0  0  0  0  0  0  # atno 17320 bound_to 7965
  146.0665  140.7915  142.9709 LP  0  0  0  0  0  0  0  0  0  0  0  0  # atno 17321 bound_to 7965
  140.6985  143.2419  151.4932 LP  0  0  0  0  0  0  0  0  0  0  0  0  # atno 17342 bound_to 10162
  139.5679  144.1999  152.1792 LP  0  0  0  0  0  0  0  0  0  0  0  0  # atno 17343 bound_to 10162
  157.7050  130.9375  150.0904 LP  0  0  0  0  0  0  0  0  0  0  0  0  # atno 17370 bound_to 10713
  156.1882  130.3653  149.8945 LP  0  0  0  0  0  0  0  0  0  0  0  0  # atno 17371 bound_to 10713
  141.0670  134.0262  157.3579 LP  0  0  0  0  0  0  0  0  0  0  0  0  # atno 17394 bound_to 11000
  139.9113  135.0190  156.7704 LP  0  0  0  0  0  0  0  0  0  0  0  0  # atno 17395 bound_to 11000

$$$$
