AV-unprocessed.smi:3354|AV-procd|sdf|12960|dock2
  -GOLD-   2272019393D 1   1.00000     0.00000
 Structure written by MMmdl.
 38 40  0  0  0  0  0  0  0  0  1 V2000
  151.3651  138.6545  154.3962 C   0  0  0  0  0  0  0  0  0  0  0  0
  151.0456  139.3488  155.7061 C   0  0  1  0  0  0  0  0  0  0  0  0
  150.7189  140.8235  155.7389 C   0  0  0  0  0  0  0  0  0  0  0  0
  149.6429  139.8039  156.0599 C   0  0  1  0  0  0  0  0  0  0  0  0
  148.5649  139.5535  155.1463 N   0  0  0  0  0  0  0  0  0  0  0  0
  147.8472  138.2858  155.1229 C   0  0  0  0  0  0  0  0  0  0  0  0
  146.8275  138.4043  153.9763 C   0  0  2  0  0  0  0  0  0  0  0  0
  146.8541  137.2133  153.1314 N   0  0  0  0  0  0  0  0  0  0  0  0
  145.8056  136.4086  152.9096 C   0  0  0  0  0  0  0  0  0  0  0  0
  144.6943  136.5925  153.4056 O   0  0  0  0  0  0  0  0  0  0  0  0
  146.1299  135.4096  152.0710 N   0  0  0  0  0  0  0  0  0  0  0  0
  145.3057  134.3583  151.5857 C   0  0  0  0  0  0  0  0  0  0  0  0
  145.7215  133.3891  150.6407 C   0  0  0  0  0  0  0  0  0  0  0  0
  144.8024  132.4057  150.2269 C   0  0  0  0  0  0  0  0  0  0  0  0
  143.5013  132.4315  150.7652 C   0  0  0  0  0  0  0  0  0  0  0  0
  143.0872  133.3573  151.6559 N   0  0  0  0  0  0  0  0  0  0  0  0
  143.9739  134.2968  152.0479 C   0  0  0  0  0  0  0  0  0  0  0  0
  147.2131  139.6800  153.2112 C   0  0  0  0  0  0  0  0  0  0  0  0
  148.2888  140.3103  154.0780 C   0  0  0  0  0  0  0  0  0  0  0  0
  148.8248  141.3806  153.7932 O   0  0  0  0  0  0  0  0  0  0  0  0
  150.8273  139.1102  153.5651 H   0  0  0  0  0  0  0  0  0  0  0  0
  151.0870  137.6021  154.4553 H   0  0  0  0  0  0  0  0  0  0  0  0
  152.4336  138.7203  154.1906 H   0  0  0  0  0  0  0  0  0  0  0  0
  151.6329  138.9723  156.5413 H   0  0  0  0  0  0  0  0  0  0  0  0
  151.1204  141.4023  156.5682 H   0  0  0  0  0  0  0  0  0  0  0  0
  150.6923  141.3492  154.7871 H   0  0  0  0  0  0  0  0  0  0  0  0
  149.3778  139.7365  157.1141 H   0  0  0  0  0  0  0  0  0  0  0  0
  148.5601  137.4760  154.9579 H   0  0  0  0  0  0  0  0  0  0  0  0
  147.3372  138.0990  156.0682 H   0  0  0  0  0  0  0  0  0  0  0  0
  145.8301  138.5289  154.4033 H   0  0  0  0  0  0  0  0  0  0  0  0
  147.7302  136.9916  152.6815 H   0  0  0  0  0  0  0  0  0  0  0  0
  147.0628  135.4389  151.6864 H   0  0  0  0  0  0  0  0  0  0  0  0
  146.7135  133.3866  150.2169 H   0  0  0  0  0  0  0  0  0  0  0  0
  145.0872  131.6510  149.5088 H   0  0  0  0  0  0  0  0  0  0  0  0
  142.7720  131.6925  150.4676 H   0  0  0  0  0  0  0  0  0  0  0  0
  143.6075  135.0222  152.7600 H   0  0  0  0  0  0  0  0  0  0  0  0
  147.6262  139.4670  152.2243 H   0  0  0  0  0  0  0  0  0  0  0  0
  146.3641  140.3539  153.0921 H   0  0  0  0  0  0  0  0  0  0  0  0
  1  2  1  0  0  0  0
  1 21  1  0  0  0  0
  1 22  1  0  0  0  0
  1 23  1  0  0  0  0
  2  4  1  0  0  0  0
  2  3  1  0  0  0  0
  2 24  1  0  0  0  0
  3  4  1  0  0  0  0
  3 25  1  0  0  0  0
  3 26  1  0  0  0  0
  4  5  1  0  0  0  0
  4 27  1  0  0  0  0
  5 19  1  0  0  0  0
  5  6  1  0  0  0  0
  6  7  1  0  0  0  0
  6 28  1  0  0  0  0
  6 29  1  0  0  0  0
  7  8  1  0  0  0  0
  7 18  1  0  0  0  0
  7 30  1  0  0  0  0
  8  9  1  0  0  0  0
  8 31  1  0  0  0  0
  9 10  2  0  0  0  0
  9 11  1  0  0  0  0
 11 12  1  0  0  0  0
 11 32  1  0  0  0  0
 12 17  1  0  0  0  0
 12 13  2  0  0  0  0
 13 14  1  0  0  0  0
 13 33  1  0  0  0  0
 14 15  2  0  0  0  0
 14 34  1  0  0  0  0
 15 16  1  0  0  0  0
 15 35  1  0  0  0  0
 16 17  2  0  0  0  0
 17 36  1  0  0  0  0
 18 19  1  0  0  0  0
 18 37  1  0  0  0  0
 18 38  1  0  0  0  0
 19 20  2  0  0  0  0
M  END
> <s_m_source_file>
AV-unprocessed.smi

> <i_m_source_file_index>
3354

> <i_lp_mmshare_version>
43012

> <i_f3d_flags>
0

> <s_epik_input>
W0NIM11bQ0BASF0xW0NIMl1bQ0BIXTFOMltDSDJdW0NASF0oW0NIMl1DMj1PKVtOSF1DKD1PKVtOSF1jM1tjSF1bY0hdW2NIXW5bY0hdMw==

> <s_epik_cmdline>
J2VwaWtfcHl0aG9uJywgJy1waCcsICc3LjAnLCAnLXRuJywgJzgnLCAnLW1hJywgJzIwMCcsICctbWV0YWxfYmluZGluZycsICctaW1hZScsICc8aW5maWxlLm1hZT4nLCAnLW9tYWUnLCAnPG91dGZpbGUubWFlPic=

> <r_epik_Ionization_Penalty>
0.00456191

> <r_epik_Ionization_Penalty_Charging>
0

> <r_epik_Ionization_Penalty_Neutral>
0.00456191

> <r_epik_State_Penalty>
0.00327094

> <r_epik_Charging_Adjusted_Penalty>
0.00327094

> <i_epik_Tot_Q>
0

> <i_epik_Tot_abs_Q>
0

> <r_epik_Metal_State_Penalty>
-0

> <b_epik_Metal_Only>
0

> <s_lp_Force_Field>
OPLS_2005

> <r_lp_Energy>
41.3781

> <b_lp_Chiralities_Consistent>
1

> <s_lp_Variant>
AV-unprocessed.smi:3354-6

> <Gold.Version>
5.8.1

> <Gold.Id.Protein>
6NUR|6NUR_protein|mol2

> <Gold.PLP.Fitness>
41.8524

> <Gold.PLP.PLP>
-31.4929

> <Gold.PLP.part.hbond>
-3.0000

> <Gold.PLP.part.metal>
0.0000

> <Gold.PLP.part.buried>
-5.8631

> <Gold.PLP.part.nonpolar>
-23.8013

> <Gold.PLP.part.repulsive>
1.0887

> <Gold.PLP.ligand.clash>
0.0000

> <Gold.PLP.ligand.torsion>
0.5600

> <Gold.PLP.Chemscore.Hbond>
2.7371

> <Gold.PLP.Chemscore.CHOScore>
0.9968

> <Gold.PLP.Chemscore.Metal>
0.0000

> <Gold.Chemscore.Hbonds>
donor molecule, donor type, donor heavy atom, donor atom, acceptor molecule, acceptor atom, score
      L1  H     8    31       P1  7948  1.00
      L1  H    11    32       P1  7948  0.96
      P1  H  8011  8017       L1    20  0.78
      L1  C    15    35       P1 10952  1.00

> <Gold.PLP.Chemscore.Internal.Correction>
0.2776

> <Gold.Rescore>
     Score         DG    S(hbond)    S(metal)    S(lipo)     H(rot)  DE(clash)    DE(int)     intcor
     16.29     -19.84       2.67        0.00      73.54       1.24       0.14       3.41       ----

> <Gold.Chemscore.Fitness>
16.2941

> <Gold.Chemscore.DG>
-19.8425

> <Gold.Chemscore.ZeroCoef>
-5.4800

> <Gold.Chemscore.Hbond>
2.6714

> <Gold.Chemscore.Metal>
0.0000

> <Gold.Chemscore.Lipo>
73.5419

> <Gold.Chemscore.Internal_Hbond>
0.0000

> <Gold.Chemscore.DEClash>
0.1392

> <Gold.Chemscore.DEInternal>
3.4092

> <Gold.Chemscore.Rot>
1.2361

> <Gold.Chemscore.Internal.Correction>
   9.000000E+99

> <Gold.Chemscore.Hbonds>
donor molecule, donor type, donor heavy atom, donor atom, acceptor molecule, acceptor atom, score
      L1  H     8    31       P1  7948  1.00
      L1  H    11    32       P1  7948  0.86
      P1  H  8011  8017       L1    20  0.72

> <Gold.Chemscore.Hbond.Weighted>
-8.9224

> <Gold.Chemscore.Metal.Weighted>
-0.0000

> <Gold.Chemscore.Lipo.Weighted>
-8.6044

> <Gold.Chemscore.Internal_Hbond.Weighted>
0.0000

> <Gold.Chemscore.DEClash.Weighted>
0.1392

> <Gold.Chemscore.DEInternal.Weighted>
3.4092

> <Gold.Chemscore.Rot.Weighted>
3.1643

> <Gold.Chemscore.Internal.Correction.Weighted>
   9.000000E+99

> <Gold.Protein.RotatedTorsions>
[ 6907 6896 6895 6894 ] final   38.34 input  -60.11 | X-H torsion
[ 7974 7965 7964 7962 ] final   32.51 input  175.53 | X-H torsion
[ 8008 7997 7996 7995 ] final  -24.45 input   59.86 | X-H torsion
[ 10167 10162 10161 10158 ] final   38.87 input  -65.29 | X-H torsion
[ 10718 10713 10712 10709 ] final -178.47 input   66.30 | X-H torsion
[ 10763 10752 10751 10750 ] final -105.90 input  -60.55 | X-H torsion
[ 11005 11000 10999 10996 ] final -171.70 input  -57.11 | X-H torsion

> <Gold.Protein.ActiveResidues>
 VAL166  LYS551  ARG553  GLY616  TRP617  ASP618  TYR619  PRO620  LYS621  CYS622 
 ASP623  PHE694  ASN695  SER759  ASP760  ASP761  ALA762  ILE779  LEU786  VAL792 
 PHE793  MET794  SER795  GLU796  ALA797  LYS798  CYS799  TRP800  GLU811  SER814 

> <Gold.Protein.RotatedAtoms>
  152.1552  134.8957  160.0545 H   0  0  0  0  0  0  0  0  0  0  0  0  # atno 6907 bound_to 6896
  151.9973  133.3808  159.4176 H   0  0  0  0  0  0  0  0  0  0  0  0  # atno 6908 bound_to 6896
  150.6880  134.3794  159.5071 H   0  0  0  0  0  0  0  0  0  0  0  0  # atno 6909 bound_to 6896
  146.1481  139.6516  142.9117 H   0  0  0  0  0  0  0  0  0  0  0  0  # atno 7974 bound_to 7965
  154.4529  140.1953  156.0466 H   0  0  0  0  0  0  0  0  0  0  0  0  # atno 8008 bound_to 7997
  156.0685  140.3287  155.7520 H   0  0  0  0  0  0  0  0  0  0  0  0  # atno 8009 bound_to 7997
  155.5300  140.0577  157.2881 H   0  0  0  0  0  0  0  0  0  0  0  0  # atno 8010 bound_to 7997
  140.3895  144.1872  150.6130 H   0  0  0  0  0  0  0  0  0  0  0  0  # atno 10167 bound_to 10162
  156.8448  130.9699  151.3097 H   0  0  0  0  0  0  0  0  0  0  0  0  # atno 10718 bound_to 10713
  154.7977  135.4732  154.0201 H   0  0  0  0  0  0  0  0  0  0  0  0  # atno 10763 bound_to 10752
  153.1730  135.6828  153.8588 H   0  0  0  0  0  0  0  0  0  0  0  0  # atno 10764 bound_to 10752
  153.8164  135.3210  155.3383 H   0  0  0  0  0  0  0  0  0  0  0  0  # atno 10765 bound_to 10752
  140.5053  134.5854  157.5001 H   0  0  0  0  0  0  0  0  0  0  0  0  # atno 11005 bound_to 11000
  145.4888  141.0438  143.2605 LP  0  0  0  0  0  0  0  0  0  0  0  0  # atno 17320 bound_to 7965
  144.7871  139.6404  143.7129 LP  0  0  0  0  0  0  0  0  0  0  0  0  # atno 17321 bound_to 7965
  140.4855  143.2365  151.8894 LP  0  0  0  0  0  0  0  0  0  0  0  0  # atno 17342 bound_to 10162
  139.4790  144.5223  151.8783 LP  0  0  0  0  0  0  0  0  0  0  0  0  # atno 17343 bound_to 10162
  157.6336  130.8748  149.9318 LP  0  0  0  0  0  0  0  0  0  0  0  0  # atno 17370 bound_to 10713
  156.0860  130.3668  150.0486 LP  0  0  0  0  0  0  0  0  0  0  0  0  # atno 17371 bound_to 10713
  139.9690  134.7325  156.0080 LP  0  0  0  0  0  0  0  0  0  0  0  0  # atno 17394 bound_to 11000
  141.1414  133.6564  156.3741 LP  0  0  0  0  0  0  0  0  0  0  0  0  # atno 17395 bound_to 11000

$$$$
