AV-unprocessed.smi:1610|AV-procd|sdf|6470|dock4
  -GOLD-   22720 7123D 1   1.00000     0.00000
 Structure written by MMmdl.
 44 45  0  0  0  0  0  0  0  0  1 V2000
  150.0758  132.6530  154.9965 C   0  0  0  0  0  0  0  0  0  0  0  0
  150.1967  133.0858  156.7802 S   0  0  0  0  0  0  0  0  0  0  0  0
  149.0464  132.5035  157.4884 O   0  0  0  0  0  0  0  0  0  0  0  0
  151.5678  132.8052  157.2316 O   0  0  0  0  0  0  0  0  0  0  0  0
  149.9995  134.7996  156.7727 N   0  0  0  0  0  0  0  0  0  0  0  0
  150.9789  135.6714  156.1216 C   0  0  0  0  0  0  0  0  0  0  0  0
  151.6138  136.6259  157.1536 C   0  0  0  0  0  0  0  0  0  0  0  0
  152.5170  137.6614  156.4589 C   0  0  0  0  0  0  0  0  0  0  0  0
  151.7253  138.3844  155.4475 N   0  0  0  0  0  0  0  0  0  0  0  0
  151.2698  139.6594  155.5445 C   0  0  0  0  0  0  0  0  0  0  0  0
  150.5488  140.1845  154.6946 O   0  0  0  0  0  0  0  0  0  0  0  0
  151.6919  140.3282  156.6312 N   0  0  0  0  0  0  0  0  0  0  0  0
  151.3526  141.7095  156.9519 C   0  0  0  0  0  0  0  0  0  0  0  0
  150.7768  141.8338  158.3717 C   0  0  0  0  0  0  0  0  0  0  0  0
  151.1498  143.1494  159.0252 C   0  0  0  0  0  0  0  0  0  0  0  0
  152.1676  143.2088  159.9993 C   0  0  0  0  0  0  0  0  0  0  0  0
  152.4782  144.4533  160.5804 C   0  0  0  0  0  0  0  0  0  0  0  0
  151.7549  145.5878  160.1618 C   0  0  0  0  0  0  0  0  0  0  0  0
  150.7773  145.5425  159.2311 N   0  0  0  0  0  0  0  0  0  0  0  0
  150.4857  144.3452  158.6786 C   0  0  0  0  0  0  0  0  0  0  0  0
  151.2816  137.4835  154.3754 C   0  0  0  0  0  0  0  0  0  0  0  0
  150.3132  136.4422  154.9646 C   0  0  0  0  0  0  0  0  0  0  0  0
  150.2124  131.5784  154.8762 H   0  0  0  0  0  0  0  0  0  0  0  0
  150.8497  133.1802  154.4391 H   0  0  0  0  0  0  0  0  0  0  0  0
  149.0950  132.9350  154.6144 H   0  0  0  0  0  0  0  0  0  0  0  0
  149.5463  135.1822  157.6023 H   0  0  0  0  0  0  0  0  0  0  0  0
  151.7713  135.0533  155.6976 H   0  0  0  0  0  0  0  0  0  0  0  0
  150.8328  137.1469  157.7095 H   0  0  0  0  0  0  0  0  0  0  0  0
  152.1908  136.0591  157.8851 H   0  0  0  0  0  0  0  0  0  0  0  0
  152.9775  138.3066  157.2069 H   0  0  0  0  0  0  0  0  0  0  0  0
  153.3479  137.1555  155.9653 H   0  0  0  0  0  0  0  0  0  0  0  0
  152.2919  139.8426  157.2819 H   0  0  0  0  0  0  0  0  0  0  0  0
  152.2587  142.3095  156.8637 H   0  0  0  0  0  0  0  0  0  0  0  0
  150.6479  142.1011  156.2163 H   0  0  0  0  0  0  0  0  0  0  0  0
  149.6893  141.7505  158.3492 H   0  0  0  0  0  0  0  0  0  0  0  0
  151.1349  141.0128  158.9943 H   0  0  0  0  0  0  0  0  0  0  0  0
  152.7005  142.3177  160.2974 H   0  0  0  0  0  0  0  0  0  0  0  0
  153.2516  144.5364  161.3295 H   0  0  0  0  0  0  0  0  0  0  0  0
  151.9670  146.5576  160.5869 H   0  0  0  0  0  0  0  0  0  0  0  0
  149.6980  144.3416  157.9397 H   0  0  0  0  0  0  0  0  0  0  0  0
  150.8033  138.0124  153.5499 H   0  0  0  0  0  0  0  0  0  0  0  0
  152.1484  136.9841  153.9404 H   0  0  0  0  0  0  0  0  0  0  0  0
  149.9923  135.7480  154.1870 H   0  0  0  0  0  0  0  0  0  0  0  0
  149.4139  136.9475  155.3207 H   0  0  0  0  0  0  0  0  0  0  0  0
  1  2  1  0  0  0  0
  1 23  1  0  0  0  0
  1 24  1  0  0  0  0
  1 25  1  0  0  0  0
  2  3  2  0  0  0  0
  2  4  2  0  0  0  0
  2  5  1  0  0  0  0
  5  6  1  0  0  0  0
  5 26  1  0  0  0  0
  6 22  1  0  0  0  0
  6  7  1  0  0  0  0
  6 27  1  0  0  0  0
  7  8  1  0  0  0  0
  7 28  1  0  0  0  0
  7 29  1  0  0  0  0
  8  9  1  0  0  0  0
  8 30  1  0  0  0  0
  8 31  1  0  0  0  0
  9 10  1  0  0  0  0
  9 21  1  0  0  0  0
 10 11  2  0  0  0  0
 10 12  1  0  0  0  0
 12 13  1  0  0  0  0
 12 32  1  0  0  0  0
 13 14  1  0  0  0  0
 13 33  1  0  0  0  0
 13 34  1  0  0  0  0
 14 15  1  0  0  0  0
 14 35  1  0  0  0  0
 14 36  1  0  0  0  0
 15 20  1  0  0  0  0
 15 16  2  0  0  0  0
 16 17  1  0  0  0  0
 16 37  1  0  0  0  0
 17 18  2  0  0  0  0
 17 38  1  0  0  0  0
 18 19  1  0  0  0  0
 18 39  1  0  0  0  0
 19 20  2  0  0  0  0
 20 40  1  0  0  0  0
 21 22  1  0  0  0  0
 21 41  1  0  0  0  0
 21 42  1  0  0  0  0
 22 43  1  0  0  0  0
 22 44  1  0  0  0  0
M  END
> <s_m_source_file>
AV-unprocessed.smi

> <i_m_source_file_index>
1610

> <i_lp_mmshare_version>
43012

> <i_f3d_flags>
0

> <s_epik_input>
W0NIM11TKD1PKSg9TylbTkhdW0NIXTFbQ0gyXVtDSDJdTihbQ0gyXVtDSDJdMSlDKD1PKVtOSF1bQ0gyXVtDSDJdYzJbY0hdW2NIXVtjSF1uW2NIXTI=

> <s_epik_cmdline>
J2VwaWtfcHl0aG9uJywgJy1waCcsICc3LjAnLCAnLXRuJywgJzgnLCAnLW1hJywgJzIwMCcsICctbWV0YWxfYmluZGluZycsICctaW1hZScsICc8aW5maWxlLm1hZT4nLCAnLW9tYWUnLCAnPG91dGZpbGUubWFlPic=

> <r_epik_Ionization_Penalty>
0.0145188

> <r_epik_Ionization_Penalty_Charging>
0

> <r_epik_Ionization_Penalty_Neutral>
0.0145188

> <r_epik_State_Penalty>
0.0113046

> <r_epik_Charging_Adjusted_Penalty>
0.0113046

> <i_epik_Tot_Q>
0

> <i_epik_Tot_abs_Q>
0

> <r_epik_Metal_State_Penalty>
0.0179141

> <b_epik_Metal_Only>
0

> <s_lp_Force_Field>
OPLS_2005

> <r_lp_Energy>
22.3117

> <b_lp_Chiralities_Consistent>
1

> <s_lp_Variant>
AV-unprocessed.smi:1610-1

> <Gold.Version>
5.8.1

> <Gold.Id.Protein>
6NUR|6NUR_protein|mol2

> <Gold.PLP.Fitness>
45.4641

> <Gold.PLP.PLP>
-37.2537

> <Gold.PLP.part.hbond>
-3.3297

> <Gold.PLP.part.metal>
0.0000

> <Gold.PLP.part.buried>
-6.4005

> <Gold.PLP.part.nonpolar>
-28.9086

> <Gold.PLP.part.repulsive>
0.4977

> <Gold.PLP.ligand.clash>
0.0000

> <Gold.PLP.ligand.torsion>
1.0096

> <Gold.PLP.Chemscore.Hbond>
1.9357

> <Gold.PLP.Chemscore.CHOScore>
1.1098

> <Gold.PLP.Chemscore.Metal>
0.0000

> <Gold.Chemscore.Hbonds>
donor molecule, donor type, donor heavy atom, donor atom, acceptor molecule, acceptor atom, score
      P1  H  6896  6908       L1     4  0.89
      P1  H  7989  7998       L1    11  1.00
      L1  C    20    40       P1  8028  0.66
      L1  C    20    40       P1  8029  0.48

> <Gold.PLP.Chemscore.Internal.Correction>
1.0928

> <Gold.Rescore>
     Score         DG    S(hbond)    S(metal)    S(lipo)     H(rot)  DE(clash)    DE(int)     intcor
     17.87     -19.05       1.94        0.00      98.35       1.73       0.04       1.14       ----

> <Gold.Chemscore.Fitness>
17.8670

> <Gold.Chemscore.DG>
-19.0537

> <Gold.Chemscore.ZeroCoef>
-5.4800

> <Gold.Chemscore.Hbond>
1.9428

> <Gold.Chemscore.Metal>
0.0000

> <Gold.Chemscore.Lipo>
98.3546

> <Gold.Chemscore.Internal_Hbond>
0.0000

> <Gold.Chemscore.DEClash>
0.0419

> <Gold.Chemscore.DEInternal>
1.1449

> <Gold.Chemscore.Rot>
1.7276

> <Gold.Chemscore.Internal.Correction>
   9.000000E+99

> <Gold.Chemscore.Hbonds>
donor molecule, donor type, donor heavy atom, donor atom, acceptor molecule, acceptor atom, score
      P1  H  6896  6908       L1     4  0.25
      P1  H  7989  7998       L1    11  0.55

> <Gold.Chemscore.Hbond.Weighted>
-6.4889

> <Gold.Chemscore.Metal.Weighted>
-0.0000

> <Gold.Chemscore.Lipo.Weighted>
-11.5075

> <Gold.Chemscore.Internal_Hbond.Weighted>
0.0000

> <Gold.Chemscore.DEClash.Weighted>
0.0419

> <Gold.Chemscore.DEInternal.Weighted>
1.1449

> <Gold.Chemscore.Rot.Weighted>
4.4226

> <Gold.Chemscore.Internal.Correction.Weighted>
   9.000000E+99

> <Gold.Protein.RotatedTorsions>
[ 6907 6896 6895 6894 ] final   73.72 input  -60.11 | X-H torsion
[ 7974 7965 7964 7962 ] final   45.48 input  175.53 | X-H torsion
[ 8008 7997 7996 7995 ] final  157.66 input   59.86 | X-H torsion
[ 10167 10162 10161 10158 ] final  179.91 input  -65.29 | X-H torsion
[ 10718 10713 10712 10709 ] final  114.26 input   66.30 | X-H torsion
[ 10763 10752 10751 10750 ] final  -22.37 input  -60.55 | X-H torsion
[ 11005 11000 10999 10996 ] final   96.41 input  -57.11 | X-H torsion

> <Gold.Protein.ActiveResidues>
 VAL166  LYS551  ARG553  GLY616  TRP617  ASP618  TYR619  PRO620  LYS621  CYS622 
 ASP623  PHE694  ASN695  SER759  ASP760  ASP761  ALA762  ILE779  LEU786  VAL792 
 PHE793  MET794  SER795  GLU796  ALA797  LYS798  CYS799  TRP800  GLU811  SER814 

> <Gold.Protein.RotatedAtoms>
  152.4938  134.4379  159.9533 H   0  0  0  0  0  0  0  0  0  0  0  0  # atno 6907 bound_to 6896
  151.4361  133.3650  159.2783 H   0  0  0  0  0  0  0  0  0  0  0  0  # atno 6908 bound_to 6896
  150.9120  134.8560  159.7492 H   0  0  0  0  0  0  0  0  0  0  0  0  # atno 6909 bound_to 6896
  146.0476  139.4959  142.9739 H   0  0  0  0  0  0  0  0  0  0  0  0  # atno 7974 bound_to 7965
  156.2350  140.1879  156.7143 H   0  0  0  0  0  0  0  0  0  0  0  0  # atno 8008 bound_to 7997
  154.6090  140.0625  156.9496 H   0  0  0  0  0  0  0  0  0  0  0  0  # atno 8009 bound_to 7997
  155.2047  140.3295  155.4340 H   0  0  0  0  0  0  0  0  0  0  0  0  # atno 8010 bound_to 7997
  139.5357  144.2505  152.0788 H   0  0  0  0  0  0  0  0  0  0  0  0  # atno 10167 bound_to 10162
  157.6291  131.0996  150.7160 H   0  0  0  0  0  0  0  0  0  0  0  0  # atno 10718 bound_to 10713
  153.6509  135.6981  153.5209 H   0  0  0  0  0  0  0  0  0  0  0  0  # atno 10763 bound_to 10752
  153.2707  135.4216  155.0984 H   0  0  0  0  0  0  0  0  0  0  0  0  # atno 10764 bound_to 10752
  154.8476  135.3578  154.6053 H   0  0  0  0  0  0  0  0  0  0  0  0  # atno 10765 bound_to 10752
  139.8782  134.8949  156.4155 H   0  0  0  0  0  0  0  0  0  0  0  0  # atno 11005 bound_to 11000
  145.6779  141.0199  143.1622 LP  0  0  0  0  0  0  0  0  0  0  0  0  # atno 17320 bound_to 7965
  144.7106  139.8387  143.7416 LP  0  0  0  0  0  0  0  0  0  0  0  0  # atno 17321 bound_to 7965
  140.1975  144.4691  150.6448 LP  0  0  0  0  0  0  0  0  0  0  0  0  # atno 17342 bound_to 10162
  140.6562  143.2238  151.5964 LP  0  0  0  0  0  0  0  0  0  0  0  0  # atno 17343 bound_to 10162
  156.7503  130.4766  149.5458 LP  0  0  0  0  0  0  0  0  0  0  0  0  # atno 17370 bound_to 10713
  156.1483  130.6292  151.0561 LP  0  0  0  0  0  0  0  0  0  0  0  0  # atno 17371 bound_to 10713
  140.9170  133.7671  155.9860 LP  0  0  0  0  0  0  0  0  0  0  0  0  # atno 17394 bound_to 11000
  140.8482  134.2985  157.5286 LP  0  0  0  0  0  0  0  0  0  0  0  0  # atno 17395 bound_to 11000

$$$$
