AV-unprocessed.smi:1699|AV-procd|sdf|6818|dock1
  -GOLD-   22720 7593D 1   1.00000     0.00000
 Structure written by MMmdl.
 37 38  0  0  0  0  0  0  0  0  1 V2000
  147.7434  133.0073  152.4368 C   0  0  0  0  0  0  0  0  0  0  0  0
  146.3854  132.9565  151.7553 C   0  0  0  0  0  0  0  0  0  0  0  0
  145.8595  131.7092  151.3568 C   0  0  0  0  0  0  0  0  0  0  0  0
  144.6043  131.6635  150.7267 C   0  0  0  0  0  0  0  0  0  0  0  0
  143.9226  132.8753  150.5220 C   0  0  0  0  0  0  0  0  0  0  0  0
  144.4175  134.0714  150.8998 N   0  0  0  0  0  0  0  0  0  0  0  0
  145.6285  134.1334  151.5086 C   0  0  0  0  0  0  0  0  0  0  0  0
  146.2135  135.3604  151.9319 N   0  0  0  0  0  0  0  0  0  0  0  0
  145.6000  136.4711  152.3769 C   0  0  0  0  0  0  0  0  0  0  0  0
  144.3837  136.6086  152.5102 O   0  0  0  0  0  0  0  0  0  0  0  0
  146.4910  137.4334  152.6601 N   0  0  0  0  0  0  0  0  0  0  0  0
  146.1786  138.7692  153.1668 C   0  0  1  0  0  0  0  0  0  0  0  0
  145.6166  138.6366  154.5899 C   0  0  0  0  0  0  0  0  0  0  0  0
  147.4296  139.6720  153.1264 C   0  0  1  0  0  0  0  0  0  0  0  0
  147.2412  141.0708  153.7190 C   0  0  0  0  0  0  0  0  0  0  0  0
  148.6594  141.4438  154.0819 C   0  0  0  0  0  0  0  0  0  0  0  0
  149.2078  140.1141  154.5893 C   0  0  0  0  0  0  0  0  0  0  0  0
  148.4859  139.0994  153.8951 O   0  0  0  0  0  0  0  0  0  0  0  0
  148.1734  132.0105  152.5401 H   0  0  0  0  0  0  0  0  0  0  0  0
  147.6537  133.4387  153.4342 H   0  0  0  0  0  0  0  0  0  0  0  0
  148.4400  133.6137  151.8572 H   0  0  0  0  0  0  0  0  0  0  0  0
  146.4095  130.7961  151.5304 H   0  0  0  0  0  0  0  0  0  0  0  0
  144.1749  130.7247  150.4093 H   0  0  0  0  0  0  0  0  0  0  0  0
  142.9548  132.8855  150.0431 H   0  0  0  0  0  0  0  0  0  0  0  0
  147.2207  135.3967  151.8839 H   0  0  0  0  0  0  0  0  0  0  0  0
  147.4684  137.2272  152.5157 H   0  0  0  0  0  0  0  0  0  0  0  0
  145.4029  139.2268  152.5501 H   0  0  0  0  0  0  0  0  0  0  0  0
  145.3349  139.6090  154.9945 H   0  0  0  0  0  0  0  0  0  0  0  0
  146.3478  138.1941  155.2671 H   0  0  0  0  0  0  0  0  0  0  0  0
  144.7260  138.0074  154.6031 H   0  0  0  0  0  0  0  0  0  0  0  0
  147.7866  139.7709  152.0998 H   0  0  0  0  0  0  0  0  0  0  0  0
  146.7804  141.7715  153.0222 H   0  0  0  0  0  0  0  0  0  0  0  0
  146.6268  141.0287  154.6196 H   0  0  0  0  0  0  0  0  0  0  0  0
  149.2027  141.7611  153.1909 H   0  0  0  0  0  0  0  0  0  0  0  0
  148.7190  142.2411  154.8233 H   0  0  0  0  0  0  0  0  0  0  0  0
  150.2819  140.0203  154.4284 H   0  0  0  0  0  0  0  0  0  0  0  0
  149.0147  140.0049  155.6570 H   0  0  0  0  0  0  0  0  0  0  0  0
  1  2  1  0  0  0  0
  1 19  1  0  0  0  0
  1 20  1  0  0  0  0
  1 21  1  0  0  0  0
  2  7  1  0  0  0  0
  2  3  2  0  0  0  0
  3  4  1  0  0  0  0
  3 22  1  0  0  0  0
  4  5  2  0  0  0  0
  4 23  1  0  0  0  0
  5  6  1  0  0  0  0
  5 24  1  0  0  0  0
  6  7  2  0  0  0  0
  7  8  1  0  0  0  0
  8  9  1  0  0  0  0
  8 25  1  0  0  0  0
  9 10  2  0  0  0  0
  9 11  1  0  0  0  0
 11 12  1  0  0  0  0
 11 26  1  0  0  0  0
 12 13  1  0  0  0  0
 12 14  1  0  0  0  0
 12 27  1  0  0  0  0
 13 28  1  0  0  0  0
 13 29  1  0  0  0  0
 13 30  1  0  0  0  0
 14 18  1  0  0  0  0
 14 15  1  0  0  0  0
 14 31  1  0  0  0  0
 15 16  1  0  0  0  0
 15 32  1  0  0  0  0
 15 33  1  0  0  0  0
 16 17  1  0  0  0  0
 16 34  1  0  0  0  0
 16 35  1  0  0  0  0
 17 18  1  0  0  0  0
 17 36  1  0  0  0  0
 17 37  1  0  0  0  0
M  END
> <s_m_source_file>
AV-unprocessed.smi

> <i_m_source_file_index>
1699

> <i_lp_mmshare_version>
43012

> <i_f3d_flags>
0

> <s_epik_input>
W0NIM11jMVtjSF1bY0hdW2NIXW5jMVtOSF1DKD1PKVtOSF1bQ0BIXShbQ0gzXSlbQ0BASF0yW0NIMl1bQ0gyXVtDSDJdTzI=

> <s_epik_cmdline>
J2VwaWtfcHl0aG9uJywgJy1waCcsICc3LjAnLCAnLXRuJywgJzgnLCAnLW1hJywgJzIwMCcsICctbWV0YWxfYmluZGluZycsICctaW1hZScsICc8aW5maWxlLm1hZT4nLCAnLW9tYWUnLCAnPG91dGZpbGUubWFlPic=

> <r_lp_tautomer_probability>
1

> <r_epik_Ionization_Penalty>
5.52788e-05

> <r_epik_Ionization_Penalty_Charging>
0

> <r_epik_Ionization_Penalty_Neutral>
5.52788e-05

> <r_epik_State_Penalty>
-0

> <r_epik_Charging_Adjusted_Penalty>
0

> <i_epik_Tot_Q>
0

> <i_epik_Tot_abs_Q>
0

> <r_epik_Metal_State_Penalty>
-0

> <b_epik_Metal_Only>
0

> <s_lp_Force_Field>
OPLS_2005

> <r_lp_Energy>
20.3495

> <b_lp_Chiralities_Consistent>
1

> <s_lp_Variant>
AV-unprocessed.smi:1699-4

> <Gold.Version>
5.8.1

> <Gold.Id.Protein>
6NUR|6NUR_protein|mol2

> <Gold.PLP.Fitness>
38.7653

> <Gold.PLP.PLP>
-30.3525

> <Gold.PLP.part.hbond>
-2.0000

> <Gold.PLP.part.metal>
0.0000

> <Gold.PLP.part.buried>
-2.3283

> <Gold.PLP.part.nonpolar>
-27.2707

> <Gold.PLP.part.repulsive>
0.6866

> <Gold.PLP.ligand.clash>
0.0000

> <Gold.PLP.ligand.torsion>
0.3005

> <Gold.PLP.Chemscore.Hbond>
2.0000

> <Gold.PLP.Chemscore.CHOScore>
1.0000

> <Gold.PLP.Chemscore.Metal>
0.0000

> <Gold.Chemscore.Hbonds>
donor molecule, donor type, donor heavy atom, donor atom, acceptor molecule, acceptor atom, score
      L1  H     8    25       P1  7948  1.00
      L1  H    11    26       P1  7948  1.00
      L1  C     5    24       P1 10186  1.00

> <Gold.PLP.Chemscore.Internal.Correction>
0.0139

> <Gold.Rescore>
     Score         DG    S(hbond)    S(metal)    S(lipo)     H(rot)  DE(clash)    DE(int)     intcor
     17.23     -17.71       1.96        0.00      75.22       1.22       0.03       0.46       ----

> <Gold.Chemscore.Fitness>
17.2257

> <Gold.Chemscore.DG>
-17.7089

> <Gold.Chemscore.ZeroCoef>
-5.4800

> <Gold.Chemscore.Hbond>
1.9614

> <Gold.Chemscore.Metal>
0.0000

> <Gold.Chemscore.Lipo>
75.2226

> <Gold.Chemscore.Internal_Hbond>
0.0000

> <Gold.Chemscore.DEClash>
0.0258

> <Gold.Chemscore.DEInternal>
0.4574

> <Gold.Chemscore.Rot>
1.2200

> <Gold.Chemscore.Internal.Correction>
   9.000000E+99

> <Gold.Chemscore.Hbonds>
donor molecule, donor type, donor heavy atom, donor atom, acceptor molecule, acceptor atom, score
      L1  H     8    25       P1  7948  0.98
      L1  H    11    26       P1  7948  0.98

> <Gold.Chemscore.Hbond.Weighted>
-6.5510

> <Gold.Chemscore.Metal.Weighted>
-0.0000

> <Gold.Chemscore.Lipo.Weighted>
-8.8010

> <Gold.Chemscore.Internal_Hbond.Weighted>
0.0000

> <Gold.Chemscore.DEClash.Weighted>
0.0258

> <Gold.Chemscore.DEInternal.Weighted>
0.4574

> <Gold.Chemscore.Rot.Weighted>
3.1232

> <Gold.Chemscore.Internal.Correction.Weighted>
   9.000000E+99

> <Gold.Protein.RotatedTorsions>
[ 6907 6896 6895 6894 ] final -166.03 input  -60.11 | X-H torsion
[ 7974 7965 7964 7962 ] final -149.35 input  175.53 | X-H torsion
[ 8008 7997 7996 7995 ] final   30.88 input   59.86 | X-H torsion
[ 10167 10162 10161 10158 ] final -156.07 input  -65.29 | X-H torsion
[ 10718 10713 10712 10709 ] final -150.24 input   66.30 | X-H torsion
[ 10763 10752 10751 10750 ] final -106.06 input  -60.55 | X-H torsion
[ 11005 11000 10999 10996 ] final  -63.76 input  -57.11 | X-H torsion

> <Gold.Protein.ActiveResidues>
 VAL166  LYS551  ARG553  GLY616  TRP617  ASP618  TYR619  PRO620  LYS621  CYS622 
 ASP623  PHE694  ASN695  SER759  ASP760  ASP761  ALA762  ILE779  LEU786  VAL792 
 PHE793  MET794  SER795  GLU796  ALA797  LYS798  CYS799  TRP800  GLU811  SER814 

> <Gold.Protein.RotatedAtoms>
  151.4371  133.3654  159.2776 H   0  0  0  0  0  0  0  0  0  0  0  0  # atno 6907 bound_to 6896
  150.9184  134.8603  159.7483 H   0  0  0  0  0  0  0  0  0  0  0  0  # atno 6908 bound_to 6896
  152.4969  134.4307  159.9563 H   0  0  0  0  0  0  0  0  0  0  0  0  # atno 6909 bound_to 6896
  144.7973  140.5076  143.5731 H   0  0  0  0  0  0  0  0  0  0  0  0  # atno 7974 bound_to 7965
  155.0974  140.3226  155.4556 H   0  0  0  0  0  0  0  0  0  0  0  0  # atno 8008 bound_to 7997
  156.2726  140.2067  156.6047 H   0  0  0  0  0  0  0  0  0  0  0  0  # atno 8009 bound_to 7997
  154.6855  140.0522  157.0298 H   0  0  0  0  0  0  0  0  0  0  0  0  # atno 8010 bound_to 7997
  139.6880  143.9469  152.2370 H   0  0  0  0  0  0  0  0  0  0  0  0  # atno 10167 bound_to 10162
  156.4436  130.8134  151.2364 H   0  0  0  0  0  0  0  0  0  0  0  0  # atno 10718 bound_to 10713
  154.7987  135.4726  154.0224 H   0  0  0  0  0  0  0  0  0  0  0  0  # atno 10763 bound_to 10752
  153.1746  135.6831  153.8567 H   0  0  0  0  0  0  0  0  0  0  0  0  # atno 10764 bound_to 10752
  153.8138  135.3213  155.3381 H   0  0  0  0  0  0  0  0  0  0  0  0  # atno 10765 bound_to 10752
  141.1403  133.6656  156.5730 H   0  0  0  0  0  0  0  0  0  0  0  0  # atno 11005 bound_to 11000
  145.5642  139.1480  143.3324 LP  0  0  0  0  0  0  0  0  0  0  0  0  # atno 17320 bound_to 7965
  146.2244  140.5777  142.9003 LP  0  0  0  0  0  0  0  0  0  0  0  0  # atno 17321 bound_to 7965
  139.9277  144.6760  150.8395 LP  0  0  0  0  0  0  0  0  0  0  0  0  # atno 17342 bound_to 10162
  140.7673  143.3330  151.2369 LP  0  0  0  0  0  0  0  0  0  0  0  0  # atno 17343 bound_to 10162
  157.7505  131.0160  150.3528 LP  0  0  0  0  0  0  0  0  0  0  0  0  # atno 17370 bound_to 10713
  156.3891  130.3894  149.7043 LP  0  0  0  0  0  0  0  0  0  0  0  0  # atno 17371 bound_to 10713
  140.3898  134.7450  157.4714 LP  0  0  0  0  0  0  0  0  0  0  0  0  # atno 17394 bound_to 11000
  140.0575  134.6043  155.8788 LP  0  0  0  0  0  0  0  0  0  0  0  0  # atno 17395 bound_to 11000

$$$$
