AV-unprocessed.smi:942|AV-procd|sdf|4227|dock6
  -GOLD-   22720 2133D 1   1.00000     0.00000
 Structure written by MMmdl.
 42 44  0  0  0  0  0  0  0  0  1 V2000
  152.6741  139.8686  159.2849 O   0  0  0  0  0  0  0  0  0  0  0  0
  151.9304  140.6076  158.6392 C   0  0  0  0  0  0  0  0  0  0  0  0
  151.2901  140.2178  157.5275 N   0  0  0  0  0  0  0  0  0  0  0  0
  151.3183  138.8694  156.9600 C   0  0  2  0  0  0  0  0  0  0  0  0
  152.7702  138.3580  156.8391 C   0  0  0  0  0  0  0  0  0  0  0  0
  153.0615  138.2030  155.3397 C   0  0  0  0  0  0  0  0  0  0  0  0
  151.9882  139.0277  154.6318 C   0  0  0  0  0  0  0  0  0  0  0  0
  150.7553  138.8422  155.5219 C   0  0  2  0  0  0  0  0  0  0  0  0
  149.6573  139.7734  155.2758 N   0  0  0  0  0  0  0  0  0  0  0  0
  149.7022  141.1600  155.1627 C   0  0  0  0  0  0  0  0  0  0  0  0
  148.4137  141.5800  154.9224 C   0  0  0  0  0  0  0  0  0  0  0  0
  147.5644  140.4787  154.8659 N   0  0  0  0  0  0  0  0  0  0  0  0
  148.3718  139.4475  155.0741 C   0  0  0  0  0  0  0  0  0  0  0  0
  151.6809  142.0509  159.0952 C   0  0  0  0  0  0  0  0  0  0  0  0
  151.2769  142.9514  157.9086 C   0  0  0  0  0  0  0  0  0  0  0  0
  151.0404  144.4009  158.3641 C   0  0  0  0  0  0  0  0  0  0  0  0
  152.2743  144.9678  159.0842 C   0  0  0  0  0  0  0  0  0  0  0  0
  152.6911  144.0731  160.2621 C   0  0  0  0  0  0  0  0  0  0  0  0
  152.9261  142.6244  159.8043 C   0  0  0  0  0  0  0  0  0  0  0  0
  150.7025  140.8934  157.0604 H   0  0  0  0  0  0  0  0  0  0  0  0
  150.7264  138.2013  157.5886 H   0  0  0  0  0  0  0  0  0  0  0  0
  153.4773  139.0568  157.2888 H   0  0  0  0  0  0  0  0  0  0  0  0
  152.8975  137.4059  157.3551 H   0  0  0  0  0  0  0  0  0  0  0  0
  154.0710  138.5198  155.0761 H   0  0  0  0  0  0  0  0  0  0  0  0
  152.9607  137.1547  155.0554 H   0  0  0  0  0  0  0  0  0  0  0  0
  152.2967  140.0738  154.6123 H   0  0  0  0  0  0  0  0  0  0  0  0
  151.8214  138.7034  153.6042 H   0  0  0  0  0  0  0  0  0  0  0  0
  150.3653  137.8402  155.3340 H   0  0  0  0  0  0  0  0  0  0  0  0
  150.6157  141.7270  155.2620 H   0  0  0  0  0  0  0  0  0  0  0  0
  148.0365  142.5821  154.7809 H   0  0  0  0  0  0  0  0  0  0  0  0
  148.0177  138.4271  155.0904 H   0  0  0  0  0  0  0  0  0  0  0  0
  150.8566  142.0459  159.8111 H   0  0  0  0  0  0  0  0  0  0  0  0
  152.0548  142.9386  157.1435 H   0  0  0  0  0  0  0  0  0  0  0  0
  150.3725  142.5664  157.4355 H   0  0  0  0  0  0  0  0  0  0  0  0
  150.7919  145.0249  157.5052 H   0  0  0  0  0  0  0  0  0  0  0  0
  150.1793  144.4376  159.0324 H   0  0  0  0  0  0  0  0  0  0  0  0
  153.1024  145.0513  158.3791 H   0  0  0  0  0  0  0  0  0  0  0  0
  152.0668  145.9777  159.4391 H   0  0  0  0  0  0  0  0  0  0  0  0
  153.5957  144.4675  160.7260 H   0  0  0  0  0  0  0  0  0  0  0  0
  151.9168  144.0930  161.0299 H   0  0  0  0  0  0  0  0  0  0  0  0
  153.1853  142.0077  160.6661 H   0  0  0  0  0  0  0  0  0  0  0  0
  153.7871  142.5957  159.1345 H   0  0  0  0  0  0  0  0  0  0  0  0
  1  2  2  0  0  0  0
  2  3  1  0  0  0  0
  2 14  1  0  0  0  0
  3  4  1  0  0  0  0
  3 20  1  0  0  0  0
  4  8  1  0  0  0  0
  4  5  1  0  0  0  0
  4 21  1  0  0  0  0
  5  6  1  0  0  0  0
  5 22  1  0  0  0  0
  5 23  1  0  0  0  0
  6  7  1  0  0  0  0
  6 24  1  0  0  0  0
  6 25  1  0  0  0  0
  7  8  1  0  0  0  0
  7 26  1  0  0  0  0
  7 27  1  0  0  0  0
  8  9  1  0  0  0  0
  8 28  1  0  0  0  0
  9 13  1  0  0  0  0
  9 10  1  0  0  0  0
 10 11  2  0  0  0  0
 10 29  1  0  0  0  0
 11 12  1  0  0  0  0
 11 30  1  0  0  0  0
 12 13  2  0  0  0  0
 13 31  1  0  0  0  0
 14 19  1  0  0  0  0
 14 15  1  0  0  0  0
 14 32  1  0  0  0  0
 15 16  1  0  0  0  0
 15 33  1  0  0  0  0
 15 34  1  0  0  0  0
 16 17  1  0  0  0  0
 16 35  1  0  0  0  0
 16 36  1  0  0  0  0
 17 18  1  0  0  0  0
 17 37  1  0  0  0  0
 17 38  1  0  0  0  0
 18 19  1  0  0  0  0
 18 39  1  0  0  0  0
 18 40  1  0  0  0  0
 19 41  1  0  0  0  0
 19 42  1  0  0  0  0
M  END
> <s_m_source_file>
AV-unprocessed.smi

> <i_m_source_file_index>
942

> <i_lp_mmshare_version>
43012

> <i_f3d_flags>
0

> <s_epik_input>
W0NIMl0xW0NIMl1bQ0gyXVtDSDJdW0NIMl1bQ0hdMUMoPU8pW05IXVtDQEBIXTJbQ0gyXVtDSDJdW0NIMl1bQ0BIXTJuM1tjSF1bY0hdbltjSF0z

> <s_epik_cmdline>
J2VwaWtfcHl0aG9uJywgJy1waCcsICc3LjAnLCAnLXRuJywgJzgnLCAnLW1hJywgJzIwMCcsICctbWV0YWxfYmluZGluZycsICctaW1hZScsICc8aW5maWxlLm1hZT4nLCAnLW9tYWUnLCAnPG91dGZpbGUubWFlPic=

> <r_lp_tautomer_probability>
1

> <r_epik_Ionization_Penalty>
0.778458

> <r_epik_Ionization_Penalty_Charging>
0.778458

> <r_epik_Ionization_Penalty_Neutral>
2.79355e-08

> <r_epik_State_Penalty>
0.807804

> <r_epik_Charging_Adjusted_Penalty>
1.58626

> <i_epik_Tot_Q>
0

> <i_epik_Tot_abs_Q>
0

> <r_epik_Metal_State_Penalty>
0.343007

> <b_epik_Metal_Only>
0

> <s_lp_Force_Field>
OPLS_2005

> <r_lp_Energy>
33.2669

> <b_lp_Chiralities_Consistent>
1

> <s_lp_Variant>
AV-unprocessed.smi:942-7

> <Gold.Version>
5.8.1

> <Gold.Id.Protein>
6NUR|6NUR_protein|mol2

> <Gold.PLP.Fitness>
38.6637

> <Gold.PLP.PLP>
-37.7698

> <Gold.PLP.part.hbond>
0.0000

> <Gold.PLP.part.metal>
0.0000

> <Gold.PLP.part.buried>
-1.8514

> <Gold.PLP.part.nonpolar>
-35.5482

> <Gold.PLP.part.repulsive>
0.1549

> <Gold.PLP.ligand.clash>
0.0000

> <Gold.PLP.ligand.torsion>
1.0639

> <Gold.PLP.Chemscore.Hbond>
0.0000

> <Gold.PLP.Chemscore.CHOScore>
1.0000

> <Gold.PLP.Chemscore.Metal>
0.0000

> <Gold.Chemscore.Hbonds>
donor molecule, donor type, donor heavy atom, donor atom, acceptor molecule, acceptor atom, score
      L1  C    11    30       P1  8028  1.00

> <Gold.PLP.Chemscore.Internal.Correction>
0.0216

> <Gold.Rescore>
     Score         DG    S(hbond)    S(metal)    S(lipo)     H(rot)  DE(clash)    DE(int)     intcor
     13.96     -15.21       0.00        0.00     114.68       1.44       0.01       1.24       ----

> <Gold.Chemscore.Fitness>
13.9618

> <Gold.Chemscore.DG>
-15.2123

> <Gold.Chemscore.ZeroCoef>
-5.4800

> <Gold.Chemscore.Hbond>
0.0000

> <Gold.Chemscore.Metal>
0.0000

> <Gold.Chemscore.Lipo>
114.6798

> <Gold.Chemscore.Internal_Hbond>
0.0000

> <Gold.Chemscore.DEClash>
0.0149

> <Gold.Chemscore.DEInternal>
1.2356

> <Gold.Chemscore.Rot>
1.4395

> <Gold.Chemscore.Internal.Correction>
   9.000000E+99

> <Gold.Chemscore.Hbond.Weighted>
-0.0000

> <Gold.Chemscore.Metal.Weighted>
-0.0000

> <Gold.Chemscore.Lipo.Weighted>
-13.4175

> <Gold.Chemscore.Internal_Hbond.Weighted>
0.0000

> <Gold.Chemscore.DEClash.Weighted>
0.0149

> <Gold.Chemscore.DEInternal.Weighted>
1.2356

> <Gold.Chemscore.Rot.Weighted>
3.6852

> <Gold.Chemscore.Internal.Correction.Weighted>
   9.000000E+99

> <Gold.Protein.RotatedTorsions>
[ 6907 6896 6895 6894 ] final -140.52 input  -60.11 | X-H torsion
[ 7974 7965 7964 7962 ] final  126.23 input  175.53 | X-H torsion
[ 8008 7997 7996 7995 ] final  -89.60 input   59.86 | X-H torsion
[ 10167 10162 10161 10158 ] final  110.81 input  -65.29 | X-H torsion
[ 10718 10713 10712 10709 ] final  102.05 input   66.30 | X-H torsion
[ 10763 10752 10751 10750 ] final -137.02 input  -60.55 | X-H torsion
[ 11005 11000 10999 10996 ] final  161.90 input  -57.11 | X-H torsion

> <Gold.Protein.ActiveResidues>
 VAL166  LYS551  ARG553  GLY616  TRP617  ASP618  TYR619  PRO620  LYS621  CYS622 
 ASP623  PHE694  ASN695  SER759  ASP760  ASP761  ALA762  ILE779  LEU786  VAL792 
 PHE793  MET794  SER795  GLU796  ALA797  LYS798  CYS799  TRP800  GLU811  SER814 

> <Gold.Protein.RotatedAtoms>
  151.0618  133.5538  159.2633 H   0  0  0  0  0  0  0  0  0  0  0  0  # atno 6907 bound_to 6896
  151.2510  135.0621  159.9071 H   0  0  0  0  0  0  0  0  0  0  0  0  # atno 6908 bound_to 6896
  152.5399  134.0379  159.8108 H   0  0  0  0  0  0  0  0  0  0  0  0  # atno 6909 bound_to 6896
  145.0641  139.3782  143.4991 H   0  0  0  0  0  0  0  0  0  0  0  0  # atno 7974 bound_to 7965
  154.6885  140.0540  157.0339 H   0  0  0  0  0  0  0  0  0  0  0  0  # atno 8008 bound_to 7997
  155.0850  140.3213  155.4571 H   0  0  0  0  0  0  0  0  0  0  0  0  # atno 8009 bound_to 7997
  156.2720  140.2058  156.5978 H   0  0  0  0  0  0  0  0  0  0  0  0  # atno 8010 bound_to 7997
  139.6659  144.7127  151.1778 H   0  0  0  0  0  0  0  0  0  0  0  0  # atno 10167 bound_to 10162
  157.6813  131.0743  150.5346 H   0  0  0  0  0  0  0  0  0  0  0  0  # atno 10718 bound_to 10713
  154.8671  135.3655  154.5156 H   0  0  0  0  0  0  0  0  0  0  0  0  # atno 10763 bound_to 10752
  153.5788  135.7019  153.5477 H   0  0  0  0  0  0  0  0  0  0  0  0  # atno 10764 bound_to 10752
  153.3475  135.4081  155.1583 H   0  0  0  0  0  0  0  0  0  0  0  0  # atno 10765 bound_to 10752
  140.2204  134.8200  157.3214 H   0  0  0  0  0  0  0  0  0  0  0  0  # atno 11005 bound_to 11000
  146.3526  140.0354  142.8647 LP  0  0  0  0  0  0  0  0  0  0  0  0  # atno 17320 bound_to 7965
  145.1372  140.9551  143.4509 LP  0  0  0  0  0  0  0  0  0  0  0  0  # atno 17321 bound_to 7965
  140.7599  143.5920  150.8786 LP  0  0  0  0  0  0  0  0  0  0  0  0  # atno 17342 bound_to 10162
  139.9582  143.6194  152.3010 LP  0  0  0  0  0  0  0  0  0  0  0  0  # atno 17343 bound_to 10162
  156.5655  130.4266  149.6043 LP  0  0  0  0  0  0  0  0  0  0  0  0  # atno 17370 bound_to 10713
  156.2785  130.7057  151.1875 LP  0  0  0  0  0  0  0  0  0  0  0  0  # atno 17371 bound_to 10713
  140.1855  134.4436  155.7746 LP  0  0  0  0  0  0  0  0  0  0  0  0  # atno 17394 bound_to 11000
  141.2223  133.7003  156.7941 LP  0  0  0  0  0  0  0  0  0  0  0  0  # atno 17395 bound_to 11000

$$$$
