AV-unprocessed.smi:1984|AV-procd|sdf|8041|dock5
  -GOLD-   2272010233D 1   1.00000     0.00000
 Structure written by MMmdl.
 38 39  0  0  0  0  0  0  0  0  1 V2000
  150.9024  142.0312  157.1042 C   0  0  0  0  0  0  0  0  0  0  0  0
  151.5268  142.3755  158.4241 C   0  0  0  0  0  0  0  0  0  0  0  0
  151.2202  143.4639  159.2880 C   0  0  0  0  0  0  0  0  0  0  0  0
  152.0768  143.3109  160.3415 C   0  0  0  0  0  0  0  0  0  0  0  0
  152.2441  144.1376  161.5743 C   0  0  0  0  0  0  0  0  0  0  0  0
  152.8364  142.1837  160.0806 N   0  0  0  0  0  0  0  0  0  0  0  0
  153.8936  141.5825  160.8802 C   0  0  0  0  0  0  0  0  0  0  0  0
  154.2416  140.1739  160.3905 C   0  0  0  0  0  0  0  0  0  0  0  0
  154.4080  139.9559  159.1904 O   0  0  0  0  0  0  0  0  0  0  0  0
  154.3525  139.2249  161.3313 N   0  0  0  0  0  0  0  0  0  0  0  0
  154.6882  137.8329  161.0605 C   0  0  0  0  0  0  0  0  0  0  0  0
  155.0465  137.0801  162.3537 C   0  0  1  0  0  0  0  0  0  0  0  0
  153.8673  136.9617  163.3427 C   0  0  0  0  0  0  0  0  0  0  0  0
  154.2434  135.9583  164.4376 C   0  0  0  0  0  0  0  0  0  0  0  0
  155.2969  134.7043  163.6185 S   0  0  0  0  0  0  0  0  0  0  0  0
  156.5639  134.5884  164.3559 O   0  0  0  0  0  0  0  0  0  0  0  0
  154.4908  133.5147  163.3058 O   0  0  0  0  0  0  0  0  0  0  0  0
  155.5685  135.6610  162.0780 C   0  0  0  0  0  0  0  0  0  0  0  0
  152.4927  141.6113  158.9060 N   0  0  0  0  0  0  0  0  0  0  0  0
  150.1415  142.7604  156.8258 H   0  0  0  0  0  0  0  0  0  0  0  0
  150.4259  141.0512  157.1389 H   0  0  0  0  0  0  0  0  0  0  0  0
  151.6493  142.0120  156.3101 H   0  0  0  0  0  0  0  0  0  0  0  0
  150.4823  144.2409  159.1536 H   0  0  0  0  0  0  0  0  0  0  0  0
  151.5006  144.9339  161.6127 H   0  0  0  0  0  0  0  0  0  0  0  0
  153.2308  144.6000  161.6013 H   0  0  0  0  0  0  0  0  0  0  0  0
  152.1282  143.5291  162.4710 H   0  0  0  0  0  0  0  0  0  0  0  0
  154.7688  142.2327  160.8484 H   0  0  0  0  0  0  0  0  0  0  0  0
  153.5764  141.5300  161.9230 H   0  0  0  0  0  0  0  0  0  0  0  0
  154.2015  139.4850  162.2952 H   0  0  0  0  0  0  0  0  0  0  0  0
  153.8494  137.3429  160.5631 H   0  0  0  0  0  0  0  0  0  0  0  0
  155.5310  137.8039  160.3681 H   0  0  0  0  0  0  0  0  0  0  0  0
  155.8441  137.6247  162.8615 H   0  0  0  0  0  0  0  0  0  0  0  0
  153.5941  137.9264  163.7711 H   0  0  0  0  0  0  0  0  0  0  0  0
  152.9903  136.5904  162.8110 H   0  0  0  0  0  0  0  0  0  0  0  0
  154.8348  136.4394  165.2169 H   0  0  0  0  0  0  0  0  0  0  0  0
  153.3775  135.4826  164.8985 H   0  0  0  0  0  0  0  0  0  0  0  0
  154.9971  135.1787  161.2842 H   0  0  0  0  0  0  0  0  0  0  0  0
  156.6235  135.6423  161.8043 H   0  0  0  0  0  0  0  0  0  0  0  0
  1  2  1  0  0  0  0
  1 20  1  0  0  0  0
  1 21  1  0  0  0  0
  1 22  1  0  0  0  0
  2 19  2  0  0  0  0
  2  3  1  0  0  0  0
  3  4  2  0  0  0  0
  3 23  1  0  0  0  0
  4  5  1  0  0  0  0
  4  6  1  0  0  0  0
  5 24  1  0  0  0  0
  5 25  1  0  0  0  0
  5 26  1  0  0  0  0
  6  7  1  0  0  0  0
  6 19  1  0  0  0  0
  7  8  1  0  0  0  0
  7 27  1  0  0  0  0
  7 28  1  0  0  0  0
  8  9  2  0  0  0  0
  8 10  1  0  0  0  0
 10 11  1  0  0  0  0
 10 29  1  0  0  0  0
 11 12  1  0  0  0  0
 11 30  1  0  0  0  0
 11 31  1  0  0  0  0
 12 18  1  0  0  0  0
 12 13  1  0  0  0  0
 12 32  1  0  0  0  0
 13 14  1  0  0  0  0
 13 33  1  0  0  0  0
 13 34  1  0  0  0  0
 14 15  1  0  0  0  0
 14 35  1  0  0  0  0
 14 36  1  0  0  0  0
 15 16  2  0  0  0  0
 15 17  2  0  0  0  0
 15 18  1  0  0  0  0
 18 37  1  0  0  0  0
 18 38  1  0  0  0  0
M  END
> <s_m_source_file>
AV-unprocessed.smi

> <i_m_source_file_index>
1984

> <i_lp_mmshare_version>
43012

> <i_f3d_flags>
0

> <s_epik_input>
W0NIM11jMVtjSF1jKFtDSDNdKW4objEpW0NIMl1DKD1PKVtOSF1bQ0gyXVtDQEBIXShbQ0gyXTIpW0NIMl1bQ0gyXVMyKD1PKT1P

> <s_epik_cmdline>
J2VwaWtfcHl0aG9uJywgJy1waCcsICc3LjAnLCAnLXRuJywgJzgnLCAnLW1hJywgJzIwMCcsICctbWV0YWxfYmluZGluZycsICctaW1hZScsICc8aW5maWxlLm1hZT4nLCAnLW9tYWUnLCAnPG91dGZpbGUubWFlPic=

> <r_lp_tautomer_probability>
1

> <r_epik_Ionization_Penalty>
0.000335865

> <r_epik_Ionization_Penalty_Charging>
0

> <r_epik_Ionization_Penalty_Neutral>
0.000335865

> <r_epik_State_Penalty>
-0

> <r_epik_Charging_Adjusted_Penalty>
0

> <i_epik_Tot_Q>
0

> <i_epik_Tot_abs_Q>
0

> <r_epik_Metal_State_Penalty>
-0

> <b_epik_Metal_Only>
0

> <s_lp_Force_Field>
OPLS_2005

> <r_lp_Energy>
4.96267

> <b_lp_Chiralities_Consistent>
1

> <s_lp_Variant>
AV-unprocessed.smi:1984-2

> <Gold.Version>
5.8.1

> <Gold.Id.Protein>
6NUR|6NUR_protein|mol2

> <Gold.PLP.Fitness>
42.2130

> <Gold.PLP.PLP>
-40.0065

> <Gold.PLP.part.hbond>
-1.0000

> <Gold.PLP.part.metal>
0.0000

> <Gold.PLP.part.buried>
-4.9593

> <Gold.PLP.part.nonpolar>
-34.1379

> <Gold.PLP.part.repulsive>
0.0536

> <Gold.PLP.ligand.clash>
0.0000

> <Gold.PLP.ligand.torsion>
0.4000

> <Gold.PLP.Chemscore.Hbond>
1.0000

> <Gold.PLP.Chemscore.CHOScore>
0.0000

> <Gold.PLP.Chemscore.Metal>
0.0000

> <Gold.Chemscore.Hbonds>
donor molecule, donor type, donor heavy atom, donor atom, acceptor molecule, acceptor atom, score
      P1  H  7997  8008       L1     9  1.00

> <Gold.PLP.Chemscore.Internal.Correction>
0.0065

> <Gold.Rescore>
     Score         DG    S(hbond)    S(metal)    S(lipo)     H(rot)  DE(clash)    DE(int)     intcor
     13.80     -15.83       0.98        0.00      97.10       1.68       0.06       1.96       ----

> <Gold.Chemscore.Fitness>
13.8016

> <Gold.Chemscore.DG>
-15.8253

> <Gold.Chemscore.ZeroCoef>
-5.4800

> <Gold.Chemscore.Hbond>
0.9833

> <Gold.Chemscore.Metal>
0.0000

> <Gold.Chemscore.Lipo>
97.0991

> <Gold.Chemscore.Internal_Hbond>
0.0000

> <Gold.Chemscore.DEClash>
0.0648

> <Gold.Chemscore.DEInternal>
1.9590

> <Gold.Chemscore.Rot>
1.6795

> <Gold.Chemscore.Internal.Correction>
   9.000000E+99

> <Gold.Chemscore.Hbonds>
donor molecule, donor type, donor heavy atom, donor atom, acceptor molecule, acceptor atom, score
      P1  H  7997  8008       L1     9  0.93

> <Gold.Chemscore.Hbond.Weighted>
-3.2842

> <Gold.Chemscore.Metal.Weighted>
-0.0000

> <Gold.Chemscore.Lipo.Weighted>
-11.3606

> <Gold.Chemscore.Internal_Hbond.Weighted>
0.0000

> <Gold.Chemscore.DEClash.Weighted>
0.0648

> <Gold.Chemscore.DEInternal.Weighted>
1.9590

> <Gold.Chemscore.Rot.Weighted>
4.2995

> <Gold.Chemscore.Internal.Correction.Weighted>
   9.000000E+99

> <Gold.Protein.RotatedTorsions>
[ 6907 6896 6895 6894 ] final -120.07 input  -60.11 | X-H torsion
[ 7974 7965 7964 7962 ] final   22.48 input  175.53 | X-H torsion
[ 8008 7997 7996 7995 ] final -123.93 input   59.86 | X-H torsion
[ 10167 10162 10161 10158 ] final   93.11 input  -65.29 | X-H torsion
[ 10718 10713 10712 10709 ] final  159.96 input   66.30 | X-H torsion
[ 10763 10752 10751 10750 ] final  131.25 input  -60.55 | X-H torsion
[ 11005 11000 10999 10996 ] final   97.80 input  -57.11 | X-H torsion

> <Gold.Protein.ActiveResidues>
 VAL166  LYS551  ARG553  GLY616  TRP617  ASP618  TYR619  PRO620  LYS621  CYS622 
 ASP623  PHE694  ASN695  SER759  ASP760  ASP761  ALA762  ILE779  LEU786  VAL792 
 PHE793  MET794  SER795  GLU796  ALA797  LYS798  CYS799  TRP800  GLU811  SER814 

> <Gold.Protein.RotatedAtoms>
  150.8361  133.8011  159.3078 H   0  0  0  0  0  0  0  0  0  0  0  0  # atno 6907 bound_to 6896
  151.5727  135.1060  160.0008 H   0  0  0  0  0  0  0  0  0  0  0  0  # atno 6908 bound_to 6896
  152.4433  133.7447  159.6716 H   0  0  0  0  0  0  0  0  0  0  0  0  # atno 6909 bound_to 6896
  146.2027  139.7879  142.8749 H   0  0  0  0  0  0  0  0  0  0  0  0  # atno 7974 bound_to 7965
  155.1885  140.0412  157.2896 H   0  0  0  0  0  0  0  0  0  0  0  0  # atno 8008 bound_to 7997
  154.6155  140.2487  155.7587 H   0  0  0  0  0  0  0  0  0  0  0  0  # atno 8009 bound_to 7997
  156.2404  140.2906  156.0437 H   0  0  0  0  0  0  0  0  0  0  0  0  # atno 8010 bound_to 7997
  139.8212  144.6730  150.9517 H   0  0  0  0  0  0  0  0  0  0  0  0  # atno 10167 bound_to 10162
  157.1569  131.0578  151.2252 H   0  0  0  0  0  0  0  0  0  0  0  0  # atno 10718 bound_to 10713
  153.7712  135.3182  155.3352 H   0  0  0  0  0  0  0  0  0  0  0  0  # atno 10763 bound_to 10752
  154.8195  135.4613  154.0742 H   0  0  0  0  0  0  0  0  0  0  0  0  # atno 10764 bound_to 10752
  153.2002  135.6921  153.8325 H   0  0  0  0  0  0  0  0  0  0  0  0  # atno 10765 bound_to 10752
  139.8774  134.9018  156.4361 H   0  0  0  0  0  0  0  0  0  0  0  0  # atno 11005 bound_to 11000
  145.3428  141.0291  143.3382 LP  0  0  0  0  0  0  0  0  0  0  0  0  # atno 17320 bound_to 7965
  144.8720  139.5025  143.6763 LP  0  0  0  0  0  0  0  0  0  0  0  0  # atno 17321 bound_to 7965
  140.7813  143.4090  151.1024 LP  0  0  0  0  0  0  0  0  0  0  0  0  # atno 17342 bound_to 10162
  139.7750  143.8438  152.3127 LP  0  0  0  0  0  0  0  0  0  0  0  0  # atno 17343 bound_to 10162
  157.4168  130.7415  149.6882 LP  0  0  0  0  0  0  0  0  0  0  0  0  # atno 17370 bound_to 10713
  155.9760  130.4081  150.3807 LP  0  0  0  0  0  0  0  0  0  0  0  0  # atno 17371 bound_to 10713
  140.9032  133.7764  155.9705 LP  0  0  0  0  0  0  0  0  0  0  0  0  # atno 17394 bound_to 11000
  140.8628  134.2820  157.5227 LP  0  0  0  0  0  0  0  0  0  0  0  0  # atno 17395 bound_to 11000

$$$$
