AV-unprocessed.smi:3267|AV-procd|sdf|12507|dock5
  -GOLD-   2272018413D 1   1.00000     0.00000
 Structure written by MMmdl.
 38 39  0  0  0  0  0  0  0  0  1 V2000
  148.1791  137.9658  155.9234 C   0  0  0  0  0  0  0  0  0  0  0  0
  147.7743  138.7063  154.6385 C   0  0  1  0  0  0  0  0  0  0  0  0
  148.8611  139.6784  154.1209 C   0  0  0  0  0  0  0  0  0  0  0  0
  150.2191  139.2480  154.4119 N   0  0  0  0  0  0  0  0  0  0  0  0
  150.7732  137.9945  154.2557 C   0  0  0  0  0  0  0  0  0  0  0  0
  152.0753  138.0717  154.6591 C   0  0  0  0  0  0  0  0  0  0  0  0
  152.2257  139.4297  155.0565 C   0  0  0  0  0  0  0  0  0  0  0  0
  151.1133  140.1304  154.9091 N   0  0  0  0  0  0  0  0  0  0  0  0
  147.4081  137.7304  153.6148 N   0  0  0  0  0  0  0  0  0  0  0  0
  146.1587  137.3493  153.3157 C   0  0  0  0  0  0  0  0  0  0  0  0
  145.1518  137.7674  153.8882 O   0  0  0  0  0  0  0  0  0  0  0  0
  146.1396  136.4570  152.3169 N   0  0  0  0  0  0  0  0  0  0  0  0
  144.9379  135.8338  151.7756 C   0  0  0  0  0  0  0  0  0  0  0  0
  145.0105  134.3007  151.8663 C   0  0  1  0  0  0  0  0  0  0  0  0
  143.9150  133.5793  151.0818 C   0  0  0  0  0  0  0  0  0  0  0  0
  144.5483  132.2442  150.7151 C   0  0  0  0  0  0  0  0  0  0  0  0
  146.0256  132.4161  151.0777 C   0  0  0  0  0  0  0  0  0  0  0  0
  146.1948  133.8142  151.2546 O   0  0  0  0  0  0  0  0  0  0  0  0
  148.4655  138.6689  156.7060 H   0  0  0  0  0  0  0  0  0  0  0  0
  149.0196  137.2918  155.7554 H   0  0  0  0  0  0  0  0  0  0  0  0
  147.3514  137.3681  156.3063 H   0  0  0  0  0  0  0  0  0  0  0  0
  146.8882  139.2983  154.8749 H   0  0  0  0  0  0  0  0  0  0  0  0
  148.7636  139.8328  153.0449 H   0  0  0  0  0  0  0  0  0  0  0  0
  148.7169  140.6576  154.5787 H   0  0  0  0  0  0  0  0  0  0  0  0
  150.2017  137.1625  153.8709 H   0  0  0  0  0  0  0  0  0  0  0  0
  152.8084  137.2789  154.6697 H   0  0  0  0  0  0  0  0  0  0  0  0
  153.1039  139.9237  155.4454 H   0  0  0  0  0  0  0  0  0  0  0  0
  148.1650  137.3299  153.0800 H   0  0  0  0  0  0  0  0  0  0  0  0
  147.0201  136.1757  151.9112 H   0  0  0  0  0  0  0  0  0  0  0  0
  144.0584  136.2032  152.3056 H   0  0  0  0  0  0  0  0  0  0  0  0
  144.8277  136.1455  150.7365 H   0  0  0  0  0  0  0  0  0  0  0  0
  144.9881  133.9738  152.9078 H   0  0  0  0  0  0  0  0  0  0  0  0
  142.9964  133.4682  151.6587 H   0  0  0  0  0  0  0  0  0  0  0  0
  143.6739  134.1293  150.1713 H   0  0  0  0  0  0  0  0  0  0  0  0
  144.1047  131.4168  151.2701 H   0  0  0  0  0  0  0  0  0  0  0  0
  144.4219  132.0409  149.6511 H   0  0  0  0  0  0  0  0  0  0  0  0
  146.2519  131.9076  152.0161 H   0  0  0  0  0  0  0  0  0  0  0  0
  146.6960  132.0287  150.3100 H   0  0  0  0  0  0  0  0  0  0  0  0
  1  2  1  0  0  0  0
  1 19  1  0  0  0  0
  1 20  1  0  0  0  0
  1 21  1  0  0  0  0
  2  3  1  0  0  0  0
  2  9  1  0  0  0  0
  2 22  1  0  0  0  0
  3  4  1  0  0  0  0
  3 23  1  0  0  0  0
  3 24  1  0  0  0  0
  4  8  1  0  0  0  0
  4  5  1  0  0  0  0
  5  6  2  0  0  0  0
  5 25  1  0  0  0  0
  6  7  1  0  0  0  0
  6 26  1  0  0  0  0
  7  8  2  0  0  0  0
  7 27  1  0  0  0  0
  9 10  1  0  0  0  0
  9 28  1  0  0  0  0
 10 11  2  0  0  0  0
 10 12  1  0  0  0  0
 12 13  1  0  0  0  0
 12 29  1  0  0  0  0
 13 14  1  0  0  0  0
 13 30  1  0  0  0  0
 13 31  1  0  0  0  0
 14 18  1  0  0  0  0
 14 15  1  0  0  0  0
 14 32  1  0  0  0  0
 15 16  1  0  0  0  0
 15 33  1  0  0  0  0
 15 34  1  0  0  0  0
 16 17  1  0  0  0  0
 16 35  1  0  0  0  0
 16 36  1  0  0  0  0
 17 18  1  0  0  0  0
 17 37  1  0  0  0  0
 17 38  1  0  0  0  0
M  END
> <s_m_source_file>
AV-unprocessed.smi

> <i_m_source_file_index>
3267

> <i_lp_mmshare_version>
43012

> <i_f3d_flags>
0

> <s_epik_input>
bjFbY0hdW2NIXVtjSF1uMVtDSDJdW0NAQEhdKFtDSDNdKVtOSF1DKD1PKVtOSF1bQ0gyXVtDQEBIXTJbQ0gyXVtDSDJdW0NIMl1PMg==

> <s_epik_cmdline>
J2VwaWtfcHl0aG9uJywgJy1waCcsICc3LjAnLCAnLXRuJywgJzgnLCAnLW1hJywgJzIwMCcsICctbWV0YWxfYmluZGluZycsICctaW1hZScsICc8aW5maWxlLm1hZT4nLCAnLW9tYWUnLCAnPG91dGZpbGUubWFlPic=

> <r_lp_tautomer_probability>
1

> <r_epik_Ionization_Penalty>
6.24796e-05

> <r_epik_Ionization_Penalty_Charging>
0

> <r_epik_Ionization_Penalty_Neutral>
6.24796e-05

> <r_epik_State_Penalty>
-0

> <r_epik_Charging_Adjusted_Penalty>
0

> <i_epik_Tot_Q>
0

> <i_epik_Tot_abs_Q>
0

> <r_epik_Metal_State_Penalty>
-0

> <b_epik_Metal_Only>
0

> <s_lp_Force_Field>
OPLS_2005

> <r_lp_Energy>
14.3103

> <b_lp_Chiralities_Consistent>
1

> <s_lp_Variant>
AV-unprocessed.smi:3267-4

> <Gold.Version>
5.8.1

> <Gold.Id.Protein>
6NUR|6NUR_protein|mol2

> <Gold.PLP.Fitness>
41.4418

> <Gold.PLP.PLP>
-31.3506

> <Gold.PLP.part.hbond>
-3.0000

> <Gold.PLP.part.metal>
0.0000

> <Gold.PLP.part.buried>
-3.6974

> <Gold.PLP.part.nonpolar>
-26.0977

> <Gold.PLP.part.repulsive>
0.4480

> <Gold.PLP.ligand.clash>
0.0000

> <Gold.PLP.ligand.torsion>
0.8617

> <Gold.PLP.Chemscore.Hbond>
2.8500

> <Gold.PLP.Chemscore.CHOScore>
1.0747

> <Gold.PLP.Chemscore.Metal>
0.0000

> <Gold.Chemscore.Hbonds>
donor molecule, donor type, donor heavy atom, donor atom, acceptor molecule, acceptor atom, score
      L1  H     9    28       P1  7948  1.00
      L1  H    12    29       P1  7948  1.00
      P1  H  7989  7998       L1     8  0.70
      L1  C     5    25       P1  7948  1.00
      L1  C     5    25       P1  7949  0.06

> <Gold.PLP.Chemscore.Internal.Correction>
0.0406

> <Gold.Rescore>
     Score         DG    S(hbond)    S(metal)    S(lipo)     H(rot)  DE(clash)    DE(int)     intcor
     14.90     -15.54       1.95        0.00      71.27       1.87       0.08       0.56       ----

> <Gold.Chemscore.Fitness>
14.8998

> <Gold.Chemscore.DG>
-15.5375

> <Gold.Chemscore.ZeroCoef>
-5.4800

> <Gold.Chemscore.Hbond>
1.9497

> <Gold.Chemscore.Metal>
0.0000

> <Gold.Chemscore.Lipo>
71.2702

> <Gold.Chemscore.Internal_Hbond>
0.0000

> <Gold.Chemscore.DEClash>
0.0807

> <Gold.Chemscore.DEInternal>
0.5570

> <Gold.Chemscore.Rot>
1.8724

> <Gold.Chemscore.Internal.Correction>
   9.000000E+99

> <Gold.Chemscore.Hbonds>
donor molecule, donor type, donor heavy atom, donor atom, acceptor molecule, acceptor atom, score
      L1  H     9    28       P1  7948  0.99
      L1  H    12    29       P1  7948  0.96
      P1  H  7989  7998       L1     8  0.02

> <Gold.Chemscore.Hbond.Weighted>
-6.5122

> <Gold.Chemscore.Metal.Weighted>
-0.0000

> <Gold.Chemscore.Lipo.Weighted>
-8.3386

> <Gold.Chemscore.Internal_Hbond.Weighted>
0.0000

> <Gold.Chemscore.DEClash.Weighted>
0.0807

> <Gold.Chemscore.DEInternal.Weighted>
0.5570

> <Gold.Chemscore.Rot.Weighted>
4.7933

> <Gold.Chemscore.Internal.Correction.Weighted>
   9.000000E+99

> <Gold.Protein.RotatedTorsions>
[ 6907 6896 6895 6894 ] final  103.30 input  -60.11 | X-H torsion
[ 7974 7965 7964 7962 ] final  -60.43 input  175.53 | X-H torsion
[ 8008 7997 7996 7995 ] final   16.97 input   59.86 | X-H torsion
[ 10167 10162 10161 10158 ] final  -99.07 input  -65.29 | X-H torsion
[ 10718 10713 10712 10709 ] final   71.07 input   66.30 | X-H torsion
[ 10763 10752 10751 10750 ] final  -62.61 input  -60.55 | X-H torsion
[ 11005 11000 10999 10996 ] final  -32.47 input  -57.11 | X-H torsion

> <Gold.Protein.ActiveResidues>
 VAL166  LYS551  ARG553  GLY616  TRP617  ASP618  TYR619  PRO620  LYS621  CYS622 
 ASP623  PHE694  ASN695  SER759  ASP760  ASP761  ALA762  ILE779  LEU786  VAL792 
 PHE793  MET794  SER795  GLU796  ALA797  LYS798  CYS799  TRP800  GLU811  SER814 

> <Gold.Protein.RotatedAtoms>
  152.5299  133.9846  159.7822 H   0  0  0  0  0  0  0  0  0  0  0  0  # atno 6907 bound_to 6896
  151.0093  133.5972  159.2692 H   0  0  0  0  0  0  0  0  0  0  0  0  # atno 6908 bound_to 6896
  151.3052  135.0786  159.9306 H   0  0  0  0  0  0  0  0  0  0  0  0  # atno 6909 bound_to 6896
  145.8155  140.8572  143.0159 H   0  0  0  0  0  0  0  0  0  0  0  0  # atno 7974 bound_to 7965
  154.8847  140.2978  155.5405 H   0  0  0  0  0  0  0  0  0  0  0  0  # atno 8008 bound_to 7997
  156.3021  140.2436  156.3788 H   0  0  0  0  0  0  0  0  0  0  0  0  # atno 8009 bound_to 7997
  154.8681  140.0402  157.1696 H   0  0  0  0  0  0  0  0  0  0  0  0  # atno 8010 bound_to 7997
  140.2664  143.3373  152.0577 H   0  0  0  0  0  0  0  0  0  0  0  0  # atno 10167 bound_to 10162
  157.6433  130.9509  150.0738 H   0  0  0  0  0  0  0  0  0  0  0  0  # atno 10718 bound_to 10713
  154.3026  135.6231  153.5431 H   0  0  0  0  0  0  0  0  0  0  0  0  # atno 10763 bound_to 10752
  152.9839  135.5682  154.5267 H   0  0  0  0  0  0  0  0  0  0  0  0  # atno 10764 bound_to 10752
  154.4901  135.2867  155.1480 H   0  0  0  0  0  0  0  0  0  0  0  0  # atno 10765 bound_to 10752
  140.9555  133.7195  156.1286 H   0  0  0  0  0  0  0  0  0  0  0  0  # atno 11005 bound_to 11000
  144.6753  140.0458  143.7480 LP  0  0  0  0  0  0  0  0  0  0  0  0  # atno 17320 bound_to 7965
  145.9731  139.2884  143.1087 LP  0  0  0  0  0  0  0  0  0  0  0  0  # atno 17321 bound_to 7965
  139.5002  144.6685  151.6298 LP  0  0  0  0  0  0  0  0  0  0  0  0  # atno 17342 bound_to 10162
  140.5925  143.9754  150.6334 LP  0  0  0  0  0  0  0  0  0  0  0  0  # atno 17343 bound_to 10162
  156.1734  130.3647  149.9133 LP  0  0  0  0  0  0  0  0  0  0  0  0  # atno 17370 bound_to 10713
  156.7103  130.8967  151.3608 LP  0  0  0  0  0  0  0  0  0  0  0  0  # atno 17371 bound_to 10713
  140.7543  134.4010  157.5536 LP  0  0  0  0  0  0  0  0  0  0  0  0  # atno 17394 bound_to 11000
  139.8861  134.8920  156.2606 LP  0  0  0  0  0  0  0  0  0  0  0  0  # atno 17395 bound_to 11000

$$$$
