AV-unprocessed.smi:2760|AV-procd|sdf|10628|dock5
  -GOLD-   2272015 73D 1   1.00000     0.00000
 Structure written by MMmdl.
 32 33  0  0  0  0  0  0  0  0  1 V2000
  154.1598  140.0329  160.9905 O   0  0  0  0  0  0  0  0  0  0  0  0
  153.4228  140.6927  160.2611 C   0  0  0  0  0  0  0  0  0  0  0  0
  153.4293  142.1537  160.1952 C   0  0  0  0  0  0  0  0  0  0  0  0
  152.5832  142.8107  159.3615 C   0  0  0  0  0  0  0  0  0  0  0  0
  152.5333  144.2986  159.2437 C   0  0  0  0  0  0  0  0  0  0  0  0
  151.3655  145.1116  159.7591 C   0  0  0  0  0  0  0  0  0  0  0  0
  151.6020  144.9916  158.2731 C   0  0  0  0  0  0  0  0  0  0  0  0
  151.6896  142.0971  158.5504 N   0  0  0  0  0  0  0  0  0  0  0  0
  151.6630  140.8012  158.5923 C   0  0  0  0  0  0  0  0  0  0  0  0
  150.6131  139.6437  157.6664 S   0  0  0  0  0  0  0  0  0  0  0  0
  151.8597  138.6172  156.8358 C   0  0  0  0  0  0  0  0  0  0  0  0
  152.2272  139.1737  155.4562 C   0  0  0  0  0  0  0  0  0  0  0  0
  151.1453  139.9401  154.9525 O   0  0  0  0  0  0  0  0  0  0  0  0
  150.1182  139.1386  154.3901 C   0  0  0  0  0  0  0  0  0  0  0  0
  148.8178  139.9482  154.3155 C   0  0  0  0  0  0  0  0  0  0  0  0
  147.9581  139.3263  153.5094 F   0  0  0  0  0  0  0  0  0  0  0  0
  148.2702  140.0527  155.5260 F   0  0  0  0  0  0  0  0  0  0  0  0
  149.0592  141.1644  153.8266 F   0  0  0  0  0  0  0  0  0  0  0  0
  152.5250  140.0995  159.4416 N   0  0  0  0  0  0  0  0  0  0  0  0
  152.4798  139.0909  159.4480 H   0  0  0  0  0  0  0  0  0  0  0  0
  154.1175  142.7000  160.8228 H   0  0  0  0  0  0  0  0  0  0  0  0
  153.5150  144.7538  159.3662 H   0  0  0  0  0  0  0  0  0  0  0  0
  150.5109  144.5834  160.1767 H   0  0  0  0  0  0  0  0  0  0  0  0
  151.5901  146.0683  160.2262 H   0  0  0  0  0  0  0  0  0  0  0  0
  151.9843  145.8675  157.7534 H   0  0  0  0  0  0  0  0  0  0  0  0
  150.9069  144.3805  157.7010 H   0  0  0  0  0  0  0  0  0  0  0  0
  151.4839  137.5978  156.7435 H   0  0  0  0  0  0  0  0  0  0  0  0
  152.7513  138.5762  157.4619 H   0  0  0  0  0  0  0  0  0  0  0  0
  153.1277  139.7857  155.5268 H   0  0  0  0  0  0  0  0  0  0  0  0
  152.4442  138.3500  154.7744 H   0  0  0  0  0  0  0  0  0  0  0  0
  150.4068  138.8081  153.3908 H   0  0  0  0  0  0  0  0  0  0  0  0
  149.9660  138.2457  154.9984 H   0  0  0  0  0  0  0  0  0  0  0  0
  1  2  2  0  0  0  0
  2 19  1  0  0  0  0
  2  3  1  0  0  0  0
  3 21  1  0  0  0  0
  3  4  2  0  0  0  0
  4  5  1  0  0  0  0
  4  8  1  0  0  0  0
  5  7  1  0  0  0  0
  5  6  1  0  0  0  0
  5 22  1  0  0  0  0
  6  7  1  0  0  0  0
  6 23  1  0  0  0  0
  6 24  1  0  0  0  0
  7 25  1  0  0  0  0
  7 26  1  0  0  0  0
  8  9  2  0  0  0  0
  9 10  1  0  0  0  0
  9 19  1  0  0  0  0
 10 11  1  0  0  0  0
 11 12  1  0  0  0  0
 11 27  1  0  0  0  0
 11 28  1  0  0  0  0
 12 13  1  0  0  0  0
 12 29  1  0  0  0  0
 12 30  1  0  0  0  0
 13 14  1  0  0  0  0
 14 15  1  0  0  0  0
 14 31  1  0  0  0  0
 14 32  1  0  0  0  0
 15 16  1  0  0  0  0
 15 17  1  0  0  0  0
 15 18  1  0  0  0  0
 19 20  1  0  0  0  0
M  END
> <s_m_source_file>
AV-unprocessed.smi

> <i_m_source_file_index>
2760

> <i_lp_mmshare_version>
43012

> <i_f3d_flags>
0

> <s_epik_input>
W09IXWMxW2NIXWMoW0NIXTJbQ0gyXVtDSDJdMiluYyhuMSlTW0NIMl1bQ0gyXU9bQ0gyXUMoRikoRilG

> <s_epik_cmdline>
J2VwaWtfcHl0aG9uJywgJy1waCcsICc3LjAnLCAnLXRuJywgJzgnLCAnLW1hJywgJzIwMCcsICctbWV0YWxfYmluZGluZycsICctaW1hZScsICc8aW5maWxlLm1hZT4nLCAnLW9tYWUnLCAnPG91dGZpbGUubWFlPic=

> <r_lp_tautomer_probability>
0.660323

> <r_epik_Ionization_Penalty>
0.00540315

> <r_epik_Ionization_Penalty_Charging>
0.00540219

> <r_epik_Ionization_Penalty_Neutral>
9.53041e-07

> <r_epik_State_Penalty>
0.139188

> <r_epik_Charging_Adjusted_Penalty>
0.14459

> <i_epik_Tot_Q>
0

> <i_epik_Tot_abs_Q>
0

> <r_epik_Metal_State_Penalty>
0.790013

> <b_epik_Metal_Only>
0

> <s_lp_Force_Field>
OPLS_2005

> <r_lp_Energy>
15.5574

> <b_lp_Chiralities_Consistent>
1

> <s_lp_Variant>
AV-unprocessed.smi:2760-1

> <Gold.Version>
5.8.1

> <Gold.Id.Protein>
6NUR|6NUR_protein|mol2

> <Gold.PLP.Fitness>
44.2133

> <Gold.PLP.PLP>
-42.7816

> <Gold.PLP.part.hbond>
-1.0000

> <Gold.PLP.part.metal>
0.0000

> <Gold.PLP.part.buried>
-5.1364

> <Gold.PLP.part.nonpolar>
-36.6025

> <Gold.PLP.part.repulsive>
0.1626

> <Gold.PLP.ligand.clash>
0.0000

> <Gold.PLP.ligand.torsion>
0.8837

> <Gold.PLP.Chemscore.Hbond>
1.0000

> <Gold.PLP.Chemscore.CHOScore>
0.0000

> <Gold.PLP.Chemscore.Metal>
0.0000

> <Gold.Chemscore.Hbonds>
donor molecule, donor type, donor heavy atom, donor atom, acceptor molecule, acceptor atom, score
      P1  H  7989  7998       L1    13  1.00

> <Gold.PLP.Chemscore.Internal.Correction>
0.1992

> <Gold.Rescore>
     Score         DG    S(hbond)    S(metal)    S(lipo)     H(rot)  DE(clash)    DE(int)     intcor
     10.75     -12.15       0.79        0.00      90.55       2.57       0.21       1.20       ----

> <Gold.Chemscore.Fitness>
10.7467

> <Gold.Chemscore.DG>
-12.1505

> <Gold.Chemscore.ZeroCoef>
-5.4800

> <Gold.Chemscore.Hbond>
0.7935

> <Gold.Chemscore.Metal>
0.0000

> <Gold.Chemscore.Lipo>
90.5506

> <Gold.Chemscore.Internal_Hbond>
0.0000

> <Gold.Chemscore.DEClash>
0.2056

> <Gold.Chemscore.DEInternal>
1.1981

> <Gold.Chemscore.Rot>
2.5680

> <Gold.Chemscore.Internal.Correction>
   9.000000E+99

> <Gold.Chemscore.Hbonds>
donor molecule, donor type, donor heavy atom, donor atom, acceptor molecule, acceptor atom, score
      P1  H  7989  7998       L1    13  0.20

> <Gold.Chemscore.Hbond.Weighted>
-2.6502

> <Gold.Chemscore.Metal.Weighted>
-0.0000

> <Gold.Chemscore.Lipo.Weighted>
-10.5944

> <Gold.Chemscore.Internal_Hbond.Weighted>
0.0000

> <Gold.Chemscore.DEClash.Weighted>
0.2056

> <Gold.Chemscore.DEInternal.Weighted>
1.1981

> <Gold.Chemscore.Rot.Weighted>
6.5741

> <Gold.Chemscore.Internal.Correction.Weighted>
   9.000000E+99

> <Gold.Protein.RotatedTorsions>
[ 6907 6896 6895 6894 ] final  -63.60 input  -60.11 | X-H torsion
[ 7974 7965 7964 7962 ] final  138.74 input  175.53 | X-H torsion
[ 8008 7997 7996 7995 ] final    0.17 input   59.86 | X-H torsion
[ 10167 10162 10161 10158 ] final   -2.35 input  -65.29 | X-H torsion
[ 10718 10713 10712 10709 ] final   35.85 input   66.30 | X-H torsion
[ 10763 10752 10751 10750 ] final   21.36 input  -60.55 | X-H torsion
[ 11005 11000 10999 10996 ] final -143.82 input  -57.11 | X-H torsion

> <Gold.Protein.ActiveResidues>
 VAL166  LYS551  ARG553  GLY616  TRP617  ASP618  TYR619  PRO620  LYS621  CYS622 
 ASP623  PHE694  ASN695  SER759  ASP760  ASP761  ALA762  ILE779  LEU786  VAL792 
 PHE793  MET794  SER795  GLU796  ALA797  LYS798  CYS799  TRP800  GLU811  SER814 

> <Gold.Protein.RotatedAtoms>
  150.7639  134.6413  159.6238 H   0  0  0  0  0  0  0  0  0  0  0  0  # atno 6907 bound_to 6896
  152.3660  134.6800  160.0201 H   0  0  0  0  0  0  0  0  0  0  0  0  # atno 6908 bound_to 6896
  151.7175  133.3277  159.3343 H   0  0  0  0  0  0  0  0  0  0  0  0  # atno 6909 bound_to 6896
  144.9344  139.5007  143.5602 H   0  0  0  0  0  0  0  0  0  0  0  0  # atno 7974 bound_to 7965
  154.6650  140.2599  155.7068 H   0  0  0  0  0  0  0  0  0  0  0  0  # atno 8008 bound_to 7997
  156.2634  140.2841  156.1058 H   0  0  0  0  0  0  0  0  0  0  0  0  # atno 8009 bound_to 7997
  155.1253  140.0377  157.2751 H   0  0  0  0  0  0  0  0  0  0  0  0  # atno 8010 bound_to 7997
  140.6847  143.6667  150.8219 H   0  0  0  0  0  0  0  0  0  0  0  0  # atno 10167 bound_to 10162
  157.3277  130.7481  149.6826 H   0  0  0  0  0  0  0  0  0  0  0  0  # atno 10718 bound_to 10713
  153.1001  135.6670  153.9688 H   0  0  0  0  0  0  0  0  0  0  0  0  # atno 10763 bound_to 10752
  153.9261  135.3009  155.3448 H   0  0  0  0  0  0  0  0  0  0  0  0  # atno 10764 bound_to 10752
  154.7422  135.5074  153.9217 H   0  0  0  0  0  0  0  0  0  0  0  0  # atno 10765 bound_to 10752
  140.8087  134.2770  157.4950 H   0  0  0  0  0  0  0  0  0  0  0  0  # atno 11005 bound_to 11000
  146.3260  139.8318  142.8907 LP  0  0  0  0  0  0  0  0  0  0  0  0  # atno 17320 bound_to 7965
  145.3090  141.0215  143.3565 LP  0  0  0  0  0  0  0  0  0  0  0  0  # atno 17321 bound_to 7965
  140.0373  143.5382  152.2734 LP  0  0  0  0  0  0  0  0  0  0  0  0  # atno 17342 bound_to 10162
  139.6196  144.7626  151.2769 LP  0  0  0  0  0  0  0  0  0  0  0  0  # atno 17343 bound_to 10162
  155.9692  130.4204  150.4422 LP  0  0  0  0  0  0  0  0  0  0  0  0  # atno 17370 bound_to 10713
  157.2449  131.0533  151.2414 LP  0  0  0  0  0  0  0  0  0  0  0  0  # atno 17371 bound_to 10713
  139.8716  134.9471  156.3956 LP  0  0  0  0  0  0  0  0  0  0  0  0  # atno 17394 bound_to 11000
  140.9220  133.7638  155.9918 LP  0  0  0  0  0  0  0  0  0  0  0  0  # atno 17395 bound_to 11000

$$$$
