AV-unprocessed.smi:2538|AV-procd|sdf|9984|dock1
  -GOLD-   2272014 33D 1   1.00000     0.00000
 Structure written by MMmdl.
 49 50  0  0  0  0  0  0  0  0  2 V2000
  151.7362  144.0269  161.1223 C   0  0  0  0  0  0  0  0  0  0  0  0
  151.6481  143.1193  159.9074 C   0  0  0  0  0  0  0  0  0  0  0  0
  150.9209  143.5683  158.7816 C   0  0  0  0  0  0  0  0  0  0  0  0
  150.8580  142.7159  157.6858 C   0  0  0  0  0  0  0  0  0  0  0  0
  150.2306  142.8609  156.4462 N   0  3  0  0  0  0  0  0  0  0  0  0
  150.4488  141.7472  155.6932 C   0  0  0  0  0  0  0  0  0  0  0  0
  151.2062  140.8938  156.4345 N   0  0  0  0  0  0  0  0  0  0  0  0
  151.7178  139.5555  156.1114 C   0  0  0  0  0  0  0  0  0  0  0  0
  150.7254  138.7272  155.2709 C   0  0  1  0  0  0  0  0  0  0  0  0
  150.7563  139.2203  153.9460 O   0  0  0  0  0  0  0  0  0  0  0  0
  151.0936  137.2276  155.2561 C   0  0  0  0  0  0  0  0  0  0  0  0
  150.6220  136.5002  156.4501 N   0  0  0  0  0  0  0  0  0  0  0  0
  150.9503  137.1067  157.7475 C   0  0  0  0  0  0  0  0  0  0  0  0
  149.2432  135.4474  156.3490 S   0  0  0  0  0  0  0  0  0  0  0  0
  148.9219  135.0063  157.7156 O   0  0  0  0  0  0  0  0  0  0  0  0
  148.2260  136.1524  155.5533 O   0  0  0  0  0  0  0  0  0  0  0  0
  149.8662  133.9968  155.3659 C   0  0  0  0  0  0  0  0  0  0  0  0
  149.1154  133.8805  154.0317 C   0  0  0  0  0  0  0  0  0  0  0  0
  149.7597  132.7031  156.1862 C   0  0  0  0  0  0  0  0  0  0  0  0
  151.4874  141.4564  157.6836 C   0  0  0  0  0  0  0  0  0  0  0  0
  152.2087  140.9983  158.7832 C   0  0  0  0  0  0  0  0  0  0  0  0
  152.2836  141.8505  159.9080 C   0  0  0  0  0  0  0  0  0  0  0  0
  153.0616  141.3772  161.1242 C   0  0  0  0  0  0  0  0  0  0  0  0
  151.1854  144.9552  160.9681 H   0  0  0  0  0  0  0  0  0  0  0  0
  152.7741  144.2862  161.3318 H   0  0  0  0  0  0  0  0  0  0  0  0
  151.3177  143.5340  162.0000 H   0  0  0  0  0  0  0  0  0  0  0  0
  150.4342  144.5327  158.7742 H   0  0  0  0  0  0  0  0  0  0  0  0
  150.0824  141.5708  154.6919 H   0  0  0  0  0  0  0  0  0  0  0  0
  152.6612  139.6808  155.5776 H   0  0  0  0  0  0  0  0  0  0  0  0
  151.9556  139.0485  157.0476 H   0  0  0  0  0  0  0  0  0  0  0  0
  149.7253  138.8785  155.6737 H   0  0  0  0  0  0  0  0  0  0  0  0
  150.3568  138.5799  153.3773 H   0  0  0  0  0  0  0  0  0  0  0  0
  150.7395  136.7375  154.3486 H   0  0  0  0  0  0  0  0  0  0  0  0
  152.1787  137.1218  155.2242 H   0  0  0  0  0  0  0  0  0  0  0  0
  151.9316  137.5811  157.7193 H   0  0  0  0  0  0  0  0  0  0  0  0
  150.9676  136.3449  158.5267 H   0  0  0  0  0  0  0  0  0  0  0  0
  150.2074  137.8563  158.0195 H   0  0  0  0  0  0  0  0  0  0  0  0
  150.9175  134.1705  155.1489 H   0  0  0  0  0  0  0  0  0  0  0  0
  149.5070  133.0584  153.4321 H   0  0  0  0  0  0  0  0  0  0  0  0
  149.2168  134.7932  153.4438 H   0  0  0  0  0  0  0  0  0  0  0  0
  148.0517  133.6988  154.1889 H   0  0  0  0  0  0  0  0  0  0  0  0
  150.1274  131.8477  155.6188 H   0  0  0  0  0  0  0  0  0  0  0  0
  148.7259  132.4981  156.4664 H   0  0  0  0  0  0  0  0  0  0  0  0
  150.3478  132.7638  157.1020 H   0  0  0  0  0  0  0  0  0  0  0  0
  152.6908  140.0317  158.7824 H   0  0  0  0  0  0  0  0  0  0  0  0
  153.5009  140.3929  160.9588 H   0  0  0  0  0  0  0  0  0  0  0  0
  152.4072  141.3081  161.9933 H   0  0  0  0  0  0  0  0  0  0  0  0
  153.8724  142.0686  161.3541 H   0  0  0  0  0  0  0  0  0  0  0  0
  149.6913  143.6588  156.1352 H   0  0  0  0  0  0  0  0  0  0  0  0
  1  2  1  0  0  0  0
  1 24  1  0  0  0  0
  1 25  1  0  0  0  0
  1 26  1  0  0  0  0
  2 22  1  0  0  0  0
  2  3  2  0  0  0  0
  3  4  1  0  0  0  0
  3 27  1  0  0  0  0
  4 20  2  0  0  0  0
  4  5  1  0  0  0  0
  5  6  2  0  0  0  0
  5 49  1  0  0  0  0
  6  7  1  0  0  0  0
  6 28  1  0  0  0  0
  7  8  1  0  0  0  0
  7 20  1  0  0  0  0
  8  9  1  0  0  0  0
  8 29  1  0  0  0  0
  8 30  1  0  0  0  0
  9 10  1  0  0  0  0
  9 11  1  0  0  0  0
  9 31  1  0  0  0  0
 10 32  1  0  0  0  0
 11 12  1  0  0  0  0
 11 33  1  0  0  0  0
 11 34  1  0  0  0  0
 12 13  1  0  0  0  0
 12 14  1  0  0  0  0
 13 35  1  0  0  0  0
 13 36  1  0  0  0  0
 13 37  1  0  0  0  0
 14 15  2  0  0  0  0
 14 16  2  0  0  0  0
 14 17  1  0  0  0  0
 17 18  1  0  0  0  0
 17 19  1  0  0  0  0
 17 38  1  0  0  0  0
 18 39  1  0  0  0  0
 18 40  1  0  0  0  0
 18 41  1  0  0  0  0
 19 42  1  0  0  0  0
 19 43  1  0  0  0  0
 19 44  1  0  0  0  0
 20 21  1  0  0  0  0
 21 22  2  0  0  0  0
 21 45  1  0  0  0  0
 22 23  1  0  0  0  0
 23 46  1  0  0  0  0
 23 47  1  0  0  0  0
 23 48  1  0  0  0  0
M  CHG  1   5   1
M  END
> <s_m_source_file>
AV-unprocessed.smi

> <i_m_source_file_index>
2538

> <i_lp_mmshare_version>
43012

> <i_f3d_flags>
0

> <s_epik_input>
W0NIM11jKFtjSF0xKWMoW0NIM10pW2NIXWMoYzEyKW4oW2NIXW4yKVtDSDJdW0NASF0oW09IXSlbQ0gyXU4oW0NIM10pUyg9TykoPU8pW0NIXShbQ0gzXSlbQ0gzXQ==

> <s_epik_cmdline>
J2VwaWtfcHl0aG9uJywgJy1waCcsICc3LjAnLCAnLXRuJywgJzgnLCAnLW1hJywgJzIwMCcsICctbWV0YWxfYmluZGluZycsICctaW1hZScsICc8aW5maWxlLm1hZT4nLCAnLW9tYWUnLCAnPG91dGZpbGUubWFlPic=

> <r_epik_Ionization_Penalty>
1.07686

> <r_epik_Ionization_Penalty_Charging>
1.07685

> <r_epik_Ionization_Penalty_Neutral>
1.40866e-06

> <r_epik_State_Penalty>
1.13193

> <r_epik_Charging_Adjusted_Penalty>
2.20879

> <i_epik_Tot_Q>
1

> <i_epik_Tot_abs_Q>
1

> <r_epik_Metal_State_Penalty>
5.12988

> <b_epik_Metal_Only>
0

> <s_lp_Force_Field>
OPLS_2005

> <r_lp_Energy>
10.053

> <b_lp_Chiralities_Consistent>
1

> <s_lp_Variant>
AV-unprocessed.smi:2538-4

> <Gold.Version>
5.8.1

> <Gold.Id.Protein>
6NUR|6NUR_protein|mol2

> <Gold.PLP.Fitness>
57.3735

> <Gold.PLP.PLP>
-46.7462

> <Gold.PLP.part.hbond>
-3.7705

> <Gold.PLP.part.metal>
0.0000

> <Gold.PLP.part.buried>
-5.7077

> <Gold.PLP.part.nonpolar>
-37.7651

> <Gold.PLP.part.repulsive>
0.1058

> <Gold.PLP.ligand.clash>
0.0000

> <Gold.PLP.ligand.torsion>
1.9732

> <Gold.PLP.Chemscore.Hbond>
4.0000

> <Gold.PLP.Chemscore.CHOScore>
0.0000

> <Gold.PLP.Chemscore.Metal>
0.0000

> <Gold.Chemscore.Hbonds>
donor molecule, donor type, donor heavy atom, donor atom, acceptor molecule, acceptor atom, score
      L1  H     5    49       P1  8028  1.40
      P1  H  7989  7998       L1    10  1.00

> <Gold.PLP.Chemscore.Internal.Correction>
2.5738

> <Gold.Rescore>
     Score         DG    S(hbond)    S(metal)    S(lipo)     H(rot)  DE(clash)    DE(int)     intcor
     21.06     -23.17       2.96        0.00     118.29       2.36       0.04       2.07       ----

> <Gold.Chemscore.Fitness>
21.0623

> <Gold.Chemscore.DG>
-23.1718

> <Gold.Chemscore.ZeroCoef>
-5.4800

> <Gold.Chemscore.Hbond>
2.9618

> <Gold.Chemscore.Metal>
0.0000

> <Gold.Chemscore.Lipo>
118.2895

> <Gold.Chemscore.Internal_Hbond>
0.0000

> <Gold.Chemscore.DEClash>
0.0391

> <Gold.Chemscore.DEInternal>
2.0704

> <Gold.Chemscore.Rot>
2.3595

> <Gold.Chemscore.Internal.Correction>
   9.000000E+99

> <Gold.Chemscore.Hbonds>
donor molecule, donor type, donor heavy atom, donor atom, acceptor molecule, acceptor atom, score
      L1  H     5    49       P1  8028  0.71
      P1  H  6896  6909       L1    15  0.01
      P1  H  7989  7998       L1    10  0.97

> <Gold.Chemscore.Hbond.Weighted>
-9.8923

> <Gold.Chemscore.Metal.Weighted>
-0.0000

> <Gold.Chemscore.Lipo.Weighted>
-13.8399

> <Gold.Chemscore.Internal_Hbond.Weighted>
0.0000

> <Gold.Chemscore.DEClash.Weighted>
0.0391

> <Gold.Chemscore.DEInternal.Weighted>
2.0704

> <Gold.Chemscore.Rot.Weighted>
6.0403

> <Gold.Chemscore.Internal.Correction.Weighted>
   9.000000E+99

> <Gold.Protein.RotatedTorsions>
[ 6907 6896 6895 6894 ] final   29.38 input  -60.11 | X-H torsion
[ 7974 7965 7964 7962 ] final  148.86 input  175.53 | X-H torsion
[ 8008 7997 7996 7995 ] final  106.25 input   59.86 | X-H torsion
[ 10167 10162 10161 10158 ] final  113.89 input  -65.29 | X-H torsion
[ 10718 10713 10712 10709 ] final  120.65 input   66.30 | X-H torsion
[ 10763 10752 10751 10750 ] final  -59.67 input  -60.55 | X-H torsion
[ 11005 11000 10999 10996 ] final -105.63 input  -57.11 | X-H torsion

> <Gold.Protein.ActiveResidues>
 VAL166  LYS551  ARG553  GLY616  TRP617  ASP618  TYR619  PRO620  LYS621  CYS622 
 ASP623  PHE694  ASN695  SER759  ASP760  ASP761  ALA762  ILE779  LEU786  VAL792 
 PHE793  MET794  SER795  GLU796  ALA797  LYS798  CYS799  TRP800  GLU811  SER814 

> <Gold.Protein.RotatedAtoms>
  152.0306  134.9770  160.0572 H   0  0  0  0  0  0  0  0  0  0  0  0  # atno 6907 bound_to 6896
  152.1248  133.4369  159.4701 H   0  0  0  0  0  0  0  0  0  0  0  0  # atno 6908 bound_to 6896
  150.6851  134.2410  159.4516 H   0  0  0  0  0  0  0  0  0  0  0  0  # atno 6909 bound_to 6896
  144.8482  139.6207  143.5986 H   0  0  0  0  0  0  0  0  0  0  0  0  # atno 7974 bound_to 7965
  156.1727  140.3116  155.9003 H   0  0  0  0  0  0  0  0  0  0  0  0  # atno 8008 bound_to 7997
  155.3552  140.0473  157.3063 H   0  0  0  0  0  0  0  0  0  0  0  0  # atno 8009 bound_to 7997
  154.5258  140.2214  155.8903 H   0  0  0  0  0  0  0  0  0  0  0  0  # atno 8010 bound_to 7997
  139.6429  144.7125  151.2201 H   0  0  0  0  0  0  0  0  0  0  0  0  # atno 10167 bound_to 10162
  157.5875  131.1068  150.8065 H   0  0  0  0  0  0  0  0  0  0  0  0  # atno 10718 bound_to 10713
  154.2573  135.6315  153.5262 H   0  0  0  0  0  0  0  0  0  0  0  0  # atno 10763 bound_to 10752
  152.9902  135.5579  154.5742 H   0  0  0  0  0  0  0  0  0  0  0  0  # atno 10764 bound_to 10752
  154.5283  135.2887  155.1177 H   0  0  0  0  0  0  0  0  0  0  0  0  # atno 10765 bound_to 10752
  141.1044  133.8824  157.1757 H   0  0  0  0  0  0  0  0  0  0  0  0  # atno 11005 bound_to 11000
  146.2762  139.6759  142.9261 LP  0  0  0  0  0  0  0  0  0  0  0  0  # atno 17320 bound_to 7965
  145.4554  141.0430  143.2781 LP  0  0  0  0  0  0  0  0  0  0  0  0  # atno 17321 bound_to 7965
  140.7500  143.6281  150.8449 LP  0  0  0  0  0  0  0  0  0  0  0  0  # atno 17342 bound_to 10162
  139.9921  143.5836  152.2906 LP  0  0  0  0  0  0  0  0  0  0  0  0  # atno 17343 bound_to 10162
  156.8495  130.5075  149.5313 LP  0  0  0  0  0  0  0  0  0  0  0  0  # atno 17370 bound_to 10713
  156.0926  130.5907  150.9759 LP  0  0  0  0  0  0  0  0  0  0  0  0  # atno 17371 bound_to 10713
  139.9908  135.0065  156.9970 LP  0  0  0  0  0  0  0  0  0  0  0  0  # atno 17394 bound_to 11000
  140.4940  134.1164  155.7238 LP  0  0  0  0  0  0  0  0  0  0  0  0  # atno 17395 bound_to 11000

$$$$
