AV-unprocessed.smi:2311|AV-procd|sdf|9261|dock2
  -GOLD-   2272012483D 1   1.00000     0.00000
 Structure written by MMmdl.
 40 41  0  0  0  0  0  0  0  0  1 V2000
  145.4001  131.5603  150.4978 C   0  0  0  0  0  0  0  0  0  0  0  0
  144.8859  132.8411  151.1207 C   0  0  0  0  0  0  0  0  0  0  0  0
  143.5315  132.9783  151.4829 C   0  0  0  0  0  0  0  0  0  0  0  0
  143.1183  134.1952  152.0543 C   0  0  0  0  0  0  0  0  0  0  0  0
  144.0693  135.2175  152.2377 C   0  0  0  0  0  0  0  0  0  0  0  0
  145.4094  134.9991  151.8461 C   0  0  0  0  0  0  0  0  0  0  0  0
  146.2890  136.0911  152.0728 N   0  0  0  0  0  0  0  0  0  0  0  0
  146.1351  137.1195  152.9260 C   0  0  0  0  0  0  0  0  0  0  0  0
  145.1718  137.2867  153.6747 O   0  0  0  0  0  0  0  0  0  0  0  0
  147.1789  137.9596  152.8665 N   0  0  0  0  0  0  0  0  0  0  0  0
  147.3276  139.1737  153.6643 C   0  0  2  0  0  0  0  0  0  0  0  0
  147.0898  140.4057  152.7831 C   0  0  0  0  0  0  0  0  0  0  0  0
  147.3574  141.6942  153.5728 C   0  0  0  0  0  0  0  0  0  0  0  0
  148.6797  141.6862  154.1075 O   0  0  0  0  0  0  0  0  0  0  0  0
  148.9994  140.6056  154.9906 C   0  0  0  0  0  0  0  0  0  0  0  0
  150.5016  140.7544  155.2828 C   0  0  0  0  0  0  0  0  0  0  0  0
  148.2183  140.7305  156.3166 C   0  0  0  0  0  0  0  0  0  0  0  0
  148.7377  139.2570  154.2772 C   0  0  0  0  0  0  0  0  0  0  0  0
  145.7980  133.8214  151.2963 N   0  0  0  0  0  0  0  0  0  0  0  0
  144.6450  130.7744  150.5300 H   0  0  0  0  0  0  0  0  0  0  0  0
  146.2828  131.2044  151.0297 H   0  0  0  0  0  0  0  0  0  0  0  0
  145.6719  131.7303  149.4558 H   0  0  0  0  0  0  0  0  0  0  0  0
  142.8258  132.1753  151.3275 H   0  0  0  0  0  0  0  0  0  0  0  0
  142.0892  134.3432  152.3470 H   0  0  0  0  0  0  0  0  0  0  0  0
  143.7677  136.1583  152.6749 H   0  0  0  0  0  0  0  0  0  0  0  0
  147.1349  136.0874  151.5227 H   0  0  0  0  0  0  0  0  0  0  0  0
  147.9267  137.7447  152.2235 H   0  0  0  0  0  0  0  0  0  0  0  0
  146.5804  139.1677  154.4594 H   0  0  0  0  0  0  0  0  0  0  0  0
  147.7491  140.3751  151.9142 H   0  0  0  0  0  0  0  0  0  0  0  0
  146.0682  140.4080  152.4012 H   0  0  0  0  0  0  0  0  0  0  0  0
  147.2593  142.5568  152.9136 H   0  0  0  0  0  0  0  0  0  0  0  0
  146.6190  141.8288  154.3628 H   0  0  0  0  0  0  0  0  0  0  0  0
  150.8585  139.9611  155.9406 H   0  0  0  0  0  0  0  0  0  0  0  0
  150.7175  141.7079  155.7661 H   0  0  0  0  0  0  0  0  0  0  0  0
  151.0902  140.7131  154.3657 H   0  0  0  0  0  0  0  0  0  0  0  0
  148.5356  139.9678  157.0284 H   0  0  0  0  0  0  0  0  0  0  0  0
  147.1433  140.6143  156.1866 H   0  0  0  0  0  0  0  0  0  0  0  0
  148.3879  141.7026  156.7804 H   0  0  0  0  0  0  0  0  0  0  0  0
  148.9007  138.4306  154.9705 H   0  0  0  0  0  0  0  0  0  0  0  0
  149.4699  139.1292  153.4781 H   0  0  0  0  0  0  0  0  0  0  0  0
  1  2  1  0  0  0  0
  1 20  1  0  0  0  0
  1 21  1  0  0  0  0
  1 22  1  0  0  0  0
  2 19  1  0  0  0  0
  2  3  2  0  0  0  0
  3  4  1  0  0  0  0
  3 23  1  0  0  0  0
  4  5  2  0  0  0  0
  4 24  1  0  0  0  0
  5  6  1  0  0  0  0
  5 25  1  0  0  0  0
  6  7  1  0  0  0  0
  6 19  2  0  0  0  0
  7  8  1  0  0  0  0
  7 26  1  0  0  0  0
  8  9  2  0  0  0  0
  8 10  1  0  0  0  0
 10 11  1  0  0  0  0
 10 27  1  0  0  0  0
 11 18  1  0  0  0  0
 11 12  1  0  0  0  0
 11 28  1  0  0  0  0
 12 13  1  0  0  0  0
 12 29  1  0  0  0  0
 12 30  1  0  0  0  0
 13 14  1  0  0  0  0
 13 31  1  0  0  0  0
 13 32  1  0  0  0  0
 14 15  1  0  0  0  0
 15 16  1  0  0  0  0
 15 17  1  0  0  0  0
 15 18  1  0  0  0  0
 16 33  1  0  0  0  0
 16 34  1  0  0  0  0
 16 35  1  0  0  0  0
 17 36  1  0  0  0  0
 17 37  1  0  0  0  0
 17 38  1  0  0  0  0
 18 39  1  0  0  0  0
 18 40  1  0  0  0  0
M  END
> <s_m_source_file>
AV-unprocessed.smi

> <i_m_source_file_index>
2311

> <i_lp_mmshare_version>
43012

> <i_f3d_flags>
0

> <s_epik_input>
W0NIM11jMVtjSF1bY0hdW2NIXWMobjEpW05IXUMoPU8pW05IXVtDQEBIXShbQ0gyXTIpW0NIMl1bQ0gyXU9DMihbQ0gzXSlbQ0gzXQ==

> <s_epik_cmdline>
J2VwaWtfcHl0aG9uJywgJy1waCcsICc3LjAnLCAnLXRuJywgJzgnLCAnLW1hJywgJzIwMCcsICctbWV0YWxfYmluZGluZycsICctaW1hZScsICc8aW5maWxlLm1hZT4nLCAnLW9tYWUnLCAnPG91dGZpbGUubWFlPic=

> <r_lp_tautomer_probability>
1

> <r_epik_Ionization_Penalty>
8.54628e-05

> <r_epik_Ionization_Penalty_Charging>
0

> <r_epik_Ionization_Penalty_Neutral>
8.54628e-05

> <r_epik_State_Penalty>
-0

> <r_epik_Charging_Adjusted_Penalty>
0

> <i_epik_Tot_Q>
0

> <i_epik_Tot_abs_Q>
0

> <r_epik_Metal_State_Penalty>
-0

> <b_epik_Metal_Only>
0

> <s_lp_Force_Field>
OPLS_2005

> <r_lp_Energy>
12.4956

> <b_lp_Chiralities_Consistent>
1

> <s_lp_Variant>
AV-unprocessed.smi:2311-1

> <Gold.Version>
5.8.1

> <Gold.Id.Protein>
6NUR|6NUR_protein|mol2

> <Gold.PLP.Fitness>
34.9993

> <Gold.PLP.PLP>
-30.1220

> <Gold.PLP.part.hbond>
-3.0000

> <Gold.PLP.part.metal>
0.0000

> <Gold.PLP.part.buried>
-2.5281

> <Gold.PLP.part.nonpolar>
-24.5442

> <Gold.PLP.part.repulsive>
0.5465

> <Gold.PLP.ligand.clash>
0.0024

> <Gold.PLP.ligand.torsion>
0.2572

> <Gold.PLP.Chemscore.Hbond>
1.7979

> <Gold.PLP.Chemscore.CHOScore>
0.0000

> <Gold.PLP.Chemscore.Metal>
0.0000

> <Gold.Chemscore.Hbonds>
donor molecule, donor type, donor heavy atom, donor atom, acceptor molecule, acceptor atom, score
      L1  H     7    26       P1  7948  0.77
      L1  H    10    27       P1  7948  0.72
      P1  H  8011  8017       L1    14  0.29

> <Gold.PLP.Chemscore.Internal.Correction>
0.0002

> <Gold.Rescore>
     Score         DG    S(hbond)    S(metal)    S(lipo)     H(rot)  DE(clash)    DE(int)     intcor
     15.66     -17.46       1.77        0.00      73.74       1.00       0.08       1.72       ----

> <Gold.Chemscore.Fitness>
15.6614

> <Gold.Chemscore.DG>
-17.4627

> <Gold.Chemscore.ZeroCoef>
-5.4800

> <Gold.Chemscore.Hbond>
1.7711

> <Gold.Chemscore.Metal>
0.0000

> <Gold.Chemscore.Lipo>
73.7374

> <Gold.Chemscore.Internal_Hbond>
0.0000

> <Gold.Chemscore.DEClash>
0.0764

> <Gold.Chemscore.DEInternal>
1.7249

> <Gold.Chemscore.Rot>
1.0000

> <Gold.Chemscore.Internal.Correction>
   9.000000E+99

> <Gold.Chemscore.Hbonds>
donor molecule, donor type, donor heavy atom, donor atom, acceptor molecule, acceptor atom, score
      L1  H     7    26       P1  7948  0.76
      L1  H    10    27       P1  7948  0.72
      P1  H  8011  8017       L1    14  0.07

> <Gold.Chemscore.Hbond.Weighted>
-5.9154

> <Gold.Chemscore.Metal.Weighted>
-0.0000

> <Gold.Chemscore.Lipo.Weighted>
-8.6273

> <Gold.Chemscore.Internal_Hbond.Weighted>
0.0000

> <Gold.Chemscore.DEClash.Weighted>
0.0764

> <Gold.Chemscore.DEInternal.Weighted>
1.7249

> <Gold.Chemscore.Rot.Weighted>
2.5600

> <Gold.Chemscore.Internal.Correction.Weighted>
   9.000000E+99

> <Gold.Protein.RotatedTorsions>
[ 6907 6896 6895 6894 ] final -132.72 input  -60.11 | X-H torsion
[ 7974 7965 7964 7962 ] final  -33.38 input  175.53 | X-H torsion
[ 8008 7997 7996 7995 ] final  -85.05 input   59.86 | X-H torsion
[ 10167 10162 10161 10158 ] final  -63.77 input  -65.29 | X-H torsion
[ 10718 10713 10712 10709 ] final    9.36 input   66.30 | X-H torsion
[ 10763 10752 10751 10750 ] final -152.15 input  -60.55 | X-H torsion
[ 11005 11000 10999 10996 ] final  -21.81 input  -57.11 | X-H torsion

> <Gold.Protein.ActiveResidues>
 VAL166  LYS551  ARG553  GLY616  TRP617  ASP618  TYR619  PRO620  LYS621  CYS622 
 ASP623  PHE694  ASN695  SER759  ASP760  ASP761  ALA762  ILE779  LEU786  VAL792 
 PHE793  MET794  SER795  GLU796  ALA797  LYS798  CYS799  TRP800  GLU811  SER814 

> <Gold.Protein.RotatedAtoms>
  150.9657  133.6398  159.2746 H   0  0  0  0  0  0  0  0  0  0  0  0  # atno 6907 bound_to 6896
  151.3704  135.0920  159.9473 H   0  0  0  0  0  0  0  0  0  0  0  0  # atno 6908 bound_to 6896
  152.5164  133.9212  159.7590 H   0  0  0  0  0  0  0  0  0  0  0  0  # atno 6909 bound_to 6896
  146.0915  140.5909  142.8862 H   0  0  0  0  0  0  0  0  0  0  0  0  # atno 7974 bound_to 7965
  154.6365  140.0596  156.9795 H   0  0  0  0  0  0  0  0  0  0  0  0  # atno 8008 bound_to 7997
  155.1583  140.3280  155.4398 H   0  0  0  0  0  0  0  0  0  0  0  0  # atno 8009 bound_to 7997
  156.2509  140.1935  156.6692 H   0  0  0  0  0  0  0  0  0  0  0  0  # atno 8010 bound_to 7997
  140.5847  143.2332  151.6267 H   0  0  0  0  0  0  0  0  0  0  0  0  # atno 10167 bound_to 10162
  156.9652  130.5948  149.5665 H   0  0  0  0  0  0  0  0  0  0  0  0  # atno 10718 bound_to 10713
  154.8012  135.3243  154.7544 H   0  0  0  0  0  0  0  0  0  0  0  0  # atno 10763 bound_to 10752
  153.8212  135.6887  153.4831 H   0  0  0  0  0  0  0  0  0  0  0  0  # atno 10764 bound_to 10752
  153.1730  135.4616  154.9871 H   0  0  0  0  0  0  0  0  0  0  0  0  # atno 10765 bound_to 10752
  140.8597  133.7797  156.0060 H   0  0  0  0  0  0  0  0  0  0  0  0  # atno 11005 bound_to 11000
  144.7364  140.4819  143.6901 LP  0  0  0  0  0  0  0  0  0  0  0  0  # atno 17320 bound_to 7965
  145.6030  139.1505  143.3119 LP  0  0  0  0  0  0  0  0  0  0  0  0  # atno 17321 bound_to 7965
  139.5191  144.3265  152.0865 LP  0  0  0  0  0  0  0  0  0  0  0  0  # atno 17342 bound_to 10162
  140.2420  144.4259  150.6256 LP  0  0  0  0  0  0  0  0  0  0  0  0  # atno 17343 bound_to 10162
  156.0306  130.5397  150.8523 LP  0  0  0  0  0  0  0  0  0  0  0  0  # atno 17370 bound_to 10713
  157.5631  131.0946  150.9530 LP  0  0  0  0  0  0  0  0  0  0  0  0  # atno 17371 bound_to 10713
  140.8697  134.2741  157.5196 LP  0  0  0  0  0  0  0  0  0  0  0  0  # atno 17394 bound_to 11000
  139.8706  134.9561  156.4226 LP  0  0  0  0  0  0  0  0  0  0  0  0  # atno 17395 bound_to 11000

$$$$
