AV-unprocessed.smi:265|AV-procd|sdf|2030|dock10
  -GOLD-   2262021233D 1   1.00000     0.00000
 Structure written by MMmdl.
 52 56  0  0  0  0  0  0  0  0  1 V2000
  149.8543  132.5410  154.0420 C   0  0  0  0  0  0  0  0  0  0  0  0
  148.7529  133.3982  154.6846 C   0  0  1  0  0  0  0  0  0  0  0  0
  148.0082  132.5570  155.5621 O   0  0  0  0  0  0  0  0  0  0  0  0
  147.5145  133.3358  156.6373 C   0  0  0  0  0  0  0  0  0  0  0  0
  148.6870  134.2560  156.9386 C   0  0  0  0  0  0  0  0  0  0  0  0
  149.2173  134.6038  155.5502 C   0  0  2  0  0  0  0  0  0  0  0  0
  148.5203  135.7518  155.0962 O   0  0  0  0  0  0  0  0  0  0  0  0
  150.7355  134.9237  155.5297 C   0  0  0  0  0  0  0  0  0  0  0  0
  151.0938  136.0828  156.3330 N   0  0  0  0  0  0  0  0  0  0  0  0
  150.8688  136.2536  157.6803 C   0  0  0  0  0  0  0  0  0  0  0  0
  151.2824  137.3883  158.1739 N   0  0  0  0  0  0  0  0  0  0  0  0
  151.8499  138.0454  157.0880 C   0  0  0  0  0  0  0  0  0  0  0  0
  152.4852  139.3079  156.9144 C   0  0  0  0  0  0  0  0  0  0  0  0
  152.6831  140.1777  157.9377 N   0  0  0  0  0  0  0  0  0  0  0  0
  153.1025  139.6251  159.2307 C   0  0  0  0  0  0  0  0  0  0  0  0
  153.6139  140.7300  160.1753 C   0  0  0  0  0  0  0  0  0  0  0  0
  152.5635  141.8414  160.2988 C   0  0  1  0  0  0  0  0  0  0  0  0
  153.0294  142.9324  161.0785 O   0  0  0  0  0  0  0  0  0  0  0  0
  152.0191  143.9121  161.3430 C   0  0  0  0  0  0  0  0  0  0  0  0
  151.2240  144.3075  160.0803 C   0  0  0  0  0  0  0  0  0  0  0  0
  150.5032  145.3025  160.0970 O   0  0  0  0  0  0  0  0  0  0  0  0
  151.3148  143.5148  158.9999 N   0  0  0  0  0  0  0  0  0  0  0  0
  152.2477  142.4004  158.9031 C   0  0  2  0  0  0  0  0  0  0  0  0
  151.7175  141.2780  157.9984 C   0  0  0  0  0  0  0  0  0  0  0  0
  152.9057  139.6279  155.6611 N   0  0  0  0  0  0  0  0  0  0  0  0
  152.7328  138.7705  154.6507 C   0  0  0  0  0  0  0  0  0  0  0  0
  152.1724  137.5601  154.6704 N   0  0  0  0  0  0  0  0  0  0  0  0
  151.7352  137.2380  155.9211 C   0  0  0  0  0  0  0  0  0  0  0  0
  151.6649  141.4251  160.7596 H   0  0  0  0  0  0  0  0  0  0  0  0
  153.1639  142.7972  158.4620 H   0  0  0  0  0  0  0  0  0  0  0  0
  150.4563  133.1226  153.3436 H   0  0  0  0  0  0  0  0  0  0  0  0
  149.4179  131.7130  153.4829 H   0  0  0  0  0  0  0  0  0  0  0  0
  150.5177  132.1124  154.7932 H   0  0  0  0  0  0  0  0  0  0  0  0
  148.0763  133.7338  153.8962 H   0  0  0  0  0  0  0  0  0  0  0  0
  146.6398  133.9024  156.3146 H   0  0  0  0  0  0  0  0  0  0  0  0
  147.2333  132.7161  157.4888 H   0  0  0  0  0  0  0  0  0  0  0  0
  148.4103  135.1248  157.5377 H   0  0  0  0  0  0  0  0  0  0  0  0
  149.4372  133.6934  157.4961 H   0  0  0  0  0  0  0  0  0  0  0  0
  148.4003  135.6800  154.1617 H   0  0  0  0  0  0  0  0  0  0  0  0
  151.3089  134.0764  155.9062 H   0  0  0  0  0  0  0  0  0  0  0  0
  151.0762  135.0980  154.5084 H   0  0  0  0  0  0  0  0  0  0  0  0
  150.3800  135.5072  158.2892 H   0  0  0  0  0  0  0  0  0  0  0  0
  152.2586  139.1083  159.6901 H   0  0  0  0  0  0  0  0  0  0  0  0
  153.8903  138.8853  159.0818 H   0  0  0  0  0  0  0  0  0  0  0  0
  153.8387  140.3110  161.1562 H   0  0  0  0  0  0  0  0  0  0  0  0
  154.5472  141.1422  159.7890 H   0  0  0  0  0  0  0  0  0  0  0  0
  151.3229  143.5179  162.0843 H   0  0  0  0  0  0  0  0  0  0  0  0
  152.4860  144.7964  161.7772 H   0  0  0  0  0  0  0  0  0  0  0  0
  150.7718  143.7459  158.1807 H   0  0  0  0  0  0  0  0  0  0  0  0
  151.5073  141.6814  157.0087 H   0  0  0  0  0  0  0  0  0  0  0  0
  150.7727  140.8956  158.3870 H   0  0  0  0  0  0  0  0  0  0  0  0
  153.0965  139.1005  153.6889 H   0  0  0  0  0  0  0  0  0  0  0  0
  1  2  1  0  0  0  0
  1 31  1  0  0  0  0
  1 32  1  0  0  0  0
  1 33  1  0  0  0  0
  2  6  1  0  0  0  0
  2  3  1  0  0  0  0
  2 34  1  0  0  0  0
  3  4  1  0  0  0  0
  4  5  1  0  0  0  0
  4 35  1  0  0  0  0
  4 36  1  0  0  0  0
  5  6  1  0  0  0  0
  5 37  1  0  0  0  0
  5 38  1  0  0  0  0
  6  7  1  0  0  0  0
  6  8  1  0  0  0  0
  7 39  1  0  0  0  0
  8  9  1  0  0  0  0
  8 40  1  0  0  0  0
  8 41  1  0  0  0  0
  9 28  1  0  0  0  0
  9 10  1  0  0  0  0
 10 11  2  0  0  0  0
 10 42  1  0  0  0  0
 11 12  1  0  0  0  0
 12 28  2  0  0  0  0
 12 13  1  0  0  0  0
 13 14  1  0  0  0  0
 13 25  2  0  0  0  0
 14 24  1  0  0  0  0
 14 15  1  0  0  0  0
 15 16  1  0  0  0  0
 15 43  1  0  0  0  0
 15 44  1  0  0  0  0
 16 17  1  0  0  0  0
 16 45  1  0  0  0  0
 16 46  1  0  0  0  0
 17 29  1  0  0  0  0
 17 23  1  0  0  0  0
 17 18  1  0  0  0  0
 18 19  1  0  0  0  0
 19 20  1  0  0  0  0
 19 47  1  0  0  0  0
 19 48  1  0  0  0  0
 20 21  2  0  0  0  0
 20 22  1  0  0  0  0
 22 23  1  0  0  0  0
 22 49  1  0  0  0  0
 23 30  1  0  0  0  0
 23 24  1  0  0  0  0
 24 50  1  0  0  0  0
 24 51  1  0  0  0  0
 25 26  1  0  0  0  0
 26 27  2  0  0  0  0
 26 52  1  0  0  0  0
 27 28  1  0  0  0  0
M  END
> <s_m_source_file>
AV-unprocessed.smi

> <i_m_source_file_index>
265

> <i_lp_mmshare_version>
43012

> <i_f3d_flags>
0

> <s_epik_input>
W0NIMl0xW0NIMl1PW0NAQEhdKFtDSDNdKVtDQEBdMShbT0hdKVtDSDJdbihbY0hdbjIpYyhjMjMpbltjSF1uYzNOKFtDSDJdW0NIMl00KVtDSDJdW0NAQEhdKFtDQEhdNDUpW05IXUMoPU8pW0NIMl1PNQ==

> <s_epik_cmdline>
J2VwaWtfcHl0aG9uJywgJy1waCcsICc3LjAnLCAnLXRuJywgJzgnLCAnLW1hJywgJzIwMCcsICctbWV0YWxfYmluZGluZycsICctaW1hZScsICc8aW5maWxlLm1hZT4nLCAnLW9tYWUnLCAnPG91dGZpbGUubWFlPic=

> <r_lp_tautomer_probability>
1

> <r_epik_Ionization_Penalty>
0.00221504

> <r_epik_Ionization_Penalty_Charging>
0

> <r_epik_Ionization_Penalty_Neutral>
0.00221504

> <r_epik_State_Penalty>
-0

> <r_epik_Charging_Adjusted_Penalty>
0

> <i_epik_Tot_Q>
0

> <i_epik_Tot_abs_Q>
0

> <r_epik_Metal_State_Penalty>
-0

> <b_epik_Metal_Only>
0

> <s_lp_Force_Field>
OPLS_2005

> <r_lp_Energy>
44.2788

> <b_lp_Chiralities_Consistent>
1

> <s_lp_Variant>
AV-unprocessed.smi:265-16

> <Gold.Version>
5.8.1

> <Gold.Id.Protein>
6NUR|6NUR_protein|mol2

> <Gold.PLP.Fitness>
50.2302

> <Gold.PLP.PLP>
-42.6005

> <Gold.PLP.part.hbond>
-5.0725

> <Gold.PLP.part.metal>
0.0000

> <Gold.PLP.part.buried>
-7.0727

> <Gold.PLP.part.nonpolar>
-31.2454

> <Gold.PLP.part.repulsive>
0.3773

> <Gold.PLP.ligand.clash>
0.0000

> <Gold.PLP.ligand.torsion>
0.5473

> <Gold.PLP.Chemscore.Hbond>
2.7680

> <Gold.PLP.Chemscore.CHOScore>
0.0000

> <Gold.PLP.Chemscore.Metal>
0.0000

> <Gold.Chemscore.Hbonds>
donor molecule, donor type, donor heavy atom, donor atom, acceptor molecule, acceptor atom, score
      L1  H     7    39       P1  7948  0.03
      P1  H  7997  8010       L1    25  1.00
      P1  H 10752 10765       L1    27  0.42

> <Gold.PLP.Chemscore.Internal.Correction>
0.4203

> <Gold.Rescore>
     Score         DG    S(hbond)    S(metal)    S(lipo)     H(rot)  DE(clash)    DE(int)     intcor
     16.56     -16.95       2.42        0.00      77.91       2.25       0.07       0.32       ----

> <Gold.Chemscore.Fitness>
16.5571

> <Gold.Chemscore.DG>
-16.9452

> <Gold.Chemscore.ZeroCoef>
-5.4800

> <Gold.Chemscore.Hbond>
2.4244

> <Gold.Chemscore.Metal>
0.0000

> <Gold.Chemscore.Lipo>
77.9124

> <Gold.Chemscore.Internal_Hbond>
0.0000

> <Gold.Chemscore.DEClash>
0.0713

> <Gold.Chemscore.DEInternal>
0.3168

> <Gold.Chemscore.Rot>
2.2453

> <Gold.Chemscore.Internal.Correction>
   9.000000E+99

> <Gold.Chemscore.Hbonds>
donor molecule, donor type, donor heavy atom, donor atom, acceptor molecule, acceptor atom, score
      L1  H     7    39       P1  7948  0.08
      P1  H  7997  8010       L1    25  0.42
      P1  H 10752 10765       L1    27  0.03

> <Gold.Chemscore.Hbond.Weighted>
-8.0974

> <Gold.Chemscore.Metal.Weighted>
-0.0000

> <Gold.Chemscore.Lipo.Weighted>
-9.1158

> <Gold.Chemscore.Internal_Hbond.Weighted>
0.0000

> <Gold.Chemscore.DEClash.Weighted>
0.0713

> <Gold.Chemscore.DEInternal.Weighted>
0.3168

> <Gold.Chemscore.Rot.Weighted>
5.7479

> <Gold.Chemscore.Internal.Correction.Weighted>
   9.000000E+99

> <Gold.Protein.RotatedTorsions>
[ 6907 6896 6895 6894 ] final   68.06 input  -60.11 | X-H torsion
[ 7974 7965 7964 7962 ] final    0.59 input  175.53 | X-H torsion
[ 8008 7997 7996 7995 ] final  105.01 input   59.86 | X-H torsion
[ 10167 10162 10161 10158 ] final -147.97 input  -65.29 | X-H torsion
[ 10718 10713 10712 10709 ] final -121.30 input   66.30 | X-H torsion
[ 10763 10752 10751 10750 ] final  166.57 input  -60.55 | X-H torsion
[ 11005 11000 10999 10996 ] final  170.57 input  -57.11 | X-H torsion

> <Gold.Protein.ActiveResidues>
 VAL166  LYS551  ARG553  GLY616  TRP617  ASP618  TYR619  PRO620  LYS621  CYS622 
 ASP623  PHE694  ASN695  SER759  ASP760  ASP761  ALA762  ILE779  LEU786  VAL792 
 PHE793  MET794  SER795  GLU796  ALA797  LYS798  CYS799  TRP800  GLU811  SER814 

> <Gold.Protein.RotatedAtoms>
  152.4595  134.5217  159.9784 H   0  0  0  0  0  0  0  0  0  0  0  0  # atno 6907 bound_to 6896
  151.5269  133.3450  159.2919 H   0  0  0  0  0  0  0  0  0  0  0  0  # atno 6908 bound_to 6896
  150.8552  134.7918  159.7102 H   0  0  0  0  0  0  0  0  0  0  0  0  # atno 6909 bound_to 6896
  146.2435  140.1114  142.8344 H   0  0  0  0  0  0  0  0  0  0  0  0  # atno 7974 bound_to 7965
  156.1622  140.3138  155.8827 H   0  0  0  0  0  0  0  0  0  0  0  0  # atno 8008 bound_to 7997
  155.3758  140.0485  157.3061 H   0  0  0  0  0  0  0  0  0  0  0  0  # atno 8009 bound_to 7997
  154.5158  140.2181  155.9080 H   0  0  0  0  0  0  0  0  0  0  0  0  # atno 8010 bound_to 7997
  139.7573  143.8428  152.2600 H   0  0  0  0  0  0  0  0  0  0  0  0  # atno 10167 bound_to 10162
  156.1326  130.6406  150.9645 H   0  0  0  0  0  0  0  0  0  0  0  0  # atno 10718 bound_to 10713
  154.3410  135.2754  155.2423 H   0  0  0  0  0  0  0  0  0  0  0  0  # atno 10763 bound_to 10752
  154.4693  135.5887  153.6314 H   0  0  0  0  0  0  0  0  0  0  0  0  # atno 10764 bound_to 10752
  152.9857  135.6084  154.3611 H   0  0  0  0  0  0  0  0  0  0  0  0  # atno 10765 bound_to 10752
  140.3097  134.7527  157.3982 H   0  0  0  0  0  0  0  0  0  0  0  0  # atno 11005 bound_to 11000
  145.0484  140.8999  143.5010 LP  0  0  0  0  0  0  0  0  0  0  0  0  # atno 17320 bound_to 7965
  145.1207  139.2695  143.5590 LP  0  0  0  0  0  0  0  0  0  0  0  0  # atno 17321 bound_to 7965
  139.8424  144.7203  150.9314 LP  0  0  0  0  0  0  0  0  0  0  0  0  # atno 17342 bound_to 10162
  140.7804  143.3971  151.1211 LP  0  0  0  0  0  0  0  0  0  0  0  0  # atno 17343 bound_to 10162
  157.6502  131.0898  150.8067 LP  0  0  0  0  0  0  0  0  0  0  0  0  # atno 17370 bound_to 10713
  156.8150  130.4965  149.5350 LP  0  0  0  0  0  0  0  0  0  0  0  0  # atno 17371 bound_to 10713
  140.1035  134.5440  155.8330 LP  0  0  0  0  0  0  0  0  0  0  0  0  # atno 17394 bound_to 11000
  141.2111  133.6702  156.6555 LP  0  0  0  0  0  0  0  0  0  0  0  0  # atno 17395 bound_to 11000

$$$$
