AV-unprocessed.smi:702|AV-procd|sdf|3421|dock1
  -GOLD-   22720 0403D 1   1.00000     0.00000
 Structure written by MMmdl.
 51 53  0  0  0  0  0  0  0  0  3 V2000
  145.3669  138.9124  153.6556 C   0  0  0  0  0  0  0  0  0  0  0  0
  146.5455  138.0527  154.1521 C   0  0  1  0  0  0  0  0  0  0  0  0
  146.7243  136.9299  153.2232 N   0  0  0  0  0  0  0  0  0  0  0  0
  145.7718  136.0935  152.7828 C   0  0  0  0  0  0  0  0  0  0  0  0
  144.5868  136.1798  153.1027 O   0  0  0  0  0  0  0  0  0  0  0  0
  146.2872  135.1707  151.9519 N   0  0  0  0  0  0  0  0  0  0  0  0
  145.6268  134.0998  151.2885 C   0  0  0  0  0  0  0  0  0  0  0  0
  146.4256  133.2113  150.5344 C   0  0  0  0  0  0  0  0  0  0  0  0
  145.8213  132.1255  149.8683 C   0  0  0  0  0  0  0  0  0  0  0  0
  144.4877  131.9370  149.9624 N   0  3  0  0  0  0  0  0  0  0  0  0
  143.6851  132.7499  150.6820 C   0  0  0  0  0  0  0  0  0  0  0  0
  144.2322  133.8521  151.3703 C   0  0  0  0  0  0  0  0  0  0  0  0
  147.8739  138.8693  154.3615 C   0  0  0  0  0  0  0  0  0  0  0  0
  149.0749  137.9485  154.3215 N   0  3  0  0  0  0  0  0  0  0  0  0
  150.4028  138.6191  154.4449 C   0  0  0  0  0  0  0  0  0  0  0  0
  151.5488  137.6156  154.2310 C   0  0  0  0  0  0  0  0  0  0  0  0
  151.4367  136.5476  155.1588 O   0  0  0  0  0  0  0  0  0  0  0  0
  150.2237  135.8325  154.9821 C   0  0  0  0  0  0  0  0  0  0  0  0
  149.0325  136.7692  155.2394 C   0  0  0  0  0  0  0  0  0  0  0  0
  147.9965  139.9950  153.2887 C   0  0  0  0  0  0  0  0  0  0  0  0
  147.6985  141.3191  153.9941 C   0  0  0  0  0  0  0  0  0  0  0  0
  148.1866  141.0955  155.4197 C   0  0  0  0  0  0  0  0  0  0  0  0
  147.7951  139.6469  155.7157 C   0  0  0  0  0  0  0  0  0  0  0  0
  145.1331  139.7178  154.3515 H   0  0  0  0  0  0  0  0  0  0  0  0
  144.4640  138.3098  153.5515 H   0  0  0  0  0  0  0  0  0  0  0  0
  145.5728  139.3629  152.6845 H   0  0  0  0  0  0  0  0  0  0  0  0
  146.2410  137.6245  155.1048 H   0  0  0  0  0  0  0  0  0  0  0  0
  147.6667  136.7734  152.8961 H   0  0  0  0  0  0  0  0  0  0  0  0
  147.2661  135.2764  151.7286 H   0  0  0  0  0  0  0  0  0  0  0  0
  147.4932  133.3602  150.4596 H   0  0  0  0  0  0  0  0  0  0  0  0
  146.3613  131.4070  149.2690 H   0  0  0  0  0  0  0  0  0  0  0  0
  142.6357  132.4929  150.6906 H   0  0  0  0  0  0  0  0  0  0  0  0
  143.5718  134.4743  151.9541 H   0  0  0  0  0  0  0  0  0  0  0  0
  150.5322  139.4057  153.7061 H   0  0  0  0  0  0  0  0  0  0  0  0
  150.5020  139.0843  155.4261 H   0  0  0  0  0  0  0  0  0  0  0  0
  151.5431  137.2300  153.2103 H   0  0  0  0  0  0  0  0  0  0  0  0
  152.5101  138.1084  154.3777 H   0  0  0  0  0  0  0  0  0  0  0  0
  150.1771  135.4048  153.9792 H   0  0  0  0  0  0  0  0  0  0  0  0
  150.2026  134.9986  155.6842 H   0  0  0  0  0  0  0  0  0  0  0  0
  149.0545  137.0890  156.2806 H   0  0  0  0  0  0  0  0  0  0  0  0
  148.1271  136.1801  155.1162 H   0  0  0  0  0  0  0  0  0  0  0  0
  149.0008  140.0584  152.8741 H   0  0  0  0  0  0  0  0  0  0  0  0
  147.3400  139.8402  152.4321 H   0  0  0  0  0  0  0  0  0  0  0  0
  148.1851  142.1683  153.5132 H   0  0  0  0  0  0  0  0  0  0  0  0
  146.6244  141.5090  153.9953 H   0  0  0  0  0  0  0  0  0  0  0  0
  149.2700  141.2113  155.4629 H   0  0  0  0  0  0  0  0  0  0  0  0
  147.7483  141.8002  156.1269 H   0  0  0  0  0  0  0  0  0  0  0  0
  146.7795  139.6701  156.1087 H   0  0  0  0  0  0  0  0  0  0  0  0
  148.3772  139.2037  156.5226 H   0  0  0  0  0  0  0  0  0  0  0  0
  149.0616  137.5550  153.3912 H   0  0  0  0  0  0  0  0  0  0  0  0
  144.0697  131.1447  149.4735 H   0  0  0  0  0  0  0  0  0  0  0  0
  1  2  1  0  0  0  0
  1 24  1  0  0  0  0
  1 25  1  0  0  0  0
  1 26  1  0  0  0  0
  2  3  1  0  0  0  0
  2 13  1  0  0  0  0
  2 27  1  0  0  0  0
  3  4  1  0  0  0  0
  3 28  1  0  0  0  0
  4  5  2  0  0  0  0
  4  6  1  0  0  0  0
  6  7  1  0  0  0  0
  6 29  1  0  0  0  0
  7 12  1  0  0  0  0
  7  8  2  0  0  0  0
  8  9  1  0  0  0  0
  8 30  1  0  0  0  0
  9 10  2  0  0  0  0
  9 31  1  0  0  0  0
 10 11  1  0  0  0  0
 10 51  1  0  0  0  0
 11 12  2  0  0  0  0
 11 32  1  0  0  0  0
 12 33  1  0  0  0  0
 13 23  1  0  0  0  0
 13 14  1  0  0  0  0
 13 20  1  0  0  0  0
 14 19  1  0  0  0  0
 14 15  1  0  0  0  0
 14 50  1  0  0  0  0
 15 16  1  0  0  0  0
 15 34  1  0  0  0  0
 15 35  1  0  0  0  0
 16 17  1  0  0  0  0
 16 36  1  0  0  0  0
 16 37  1  0  0  0  0
 17 18  1  0  0  0  0
 18 19  1  0  0  0  0
 18 38  1  0  0  0  0
 18 39  1  0  0  0  0
 19 40  1  0  0  0  0
 19 41  1  0  0  0  0
 20 21  1  0  0  0  0
 20 42  1  0  0  0  0
 20 43  1  0  0  0  0
 21 22  1  0  0  0  0
 21 44  1  0  0  0  0
 21 45  1  0  0  0  0
 22 23  1  0  0  0  0
 22 46  1  0  0  0  0
 22 47  1  0  0  0  0
 23 48  1  0  0  0  0
 23 49  1  0  0  0  0
M  CHG  1  10   1
M  CHG  1  14   1
M  END
> <s_m_source_file>
AV-unprocessed.smi

> <i_m_source_file_index>
702

> <i_lp_mmshare_version>
43012

> <i_f3d_flags>
0

> <s_epik_input>
W0NIMl0xW0NIMl1PW0NIMl1bQ0gyXU4xQzIoW0NIMl1bQ0gyXVtDSDJdW0NIMl0yKVtDQEhdKFtDSDNdKVtOSF1DKD1PKVtOSF1jM1tjSF1bY0hdbltjSF1bY0hdMw==

> <s_epik_cmdline>
J2VwaWtfcHl0aG9uJywgJy1waCcsICc3LjAnLCAnLXRuJywgJzgnLCAnLW1hJywgJzIwMCcsICctbWV0YWxfYmluZGluZycsICctaW1hZScsICc8aW5maWxlLm1hZT4nLCAnLW9tYWUnLCAnPG91dGZpbGUubWFlPic=

> <r_epik_Ionization_Penalty>
1.42147

> <r_epik_Ionization_Penalty_Charging>
1.42145

> <r_epik_Ionization_Penalty_Neutral>
1.94713e-05

> <r_epik_State_Penalty>
1.44789

> <r_epik_Charging_Adjusted_Penalty>
2.86934

> <i_epik_Tot_Q>
2

> <i_epik_Tot_abs_Q>
2

> <r_epik_Metal_State_Penalty>
1.5401

> <b_epik_Metal_Only>
0

> <s_lp_Force_Field>
OPLS_2005

> <r_lp_Energy>
62.23

> <b_lp_Chiralities_Consistent>
1

> <s_lp_Variant>
AV-unprocessed.smi:702-6

> <Gold.Version>
5.8.1

> <Gold.Id.Protein>
6NUR|6NUR_protein|mol2

> <Gold.PLP.Fitness>
44.5249

> <Gold.PLP.PLP>
-31.0943

> <Gold.PLP.part.hbond>
-4.0000

> <Gold.PLP.part.metal>
0.0000

> <Gold.PLP.part.buried>
1.0011

> <Gold.PLP.part.nonpolar>
-28.8709

> <Gold.PLP.part.repulsive>
0.3852

> <Gold.PLP.ligand.clash>
0.0000

> <Gold.PLP.ligand.torsion>
0.8580

> <Gold.PLP.Chemscore.Hbond>
5.0000

> <Gold.PLP.Chemscore.CHOScore>
0.0000

> <Gold.PLP.Chemscore.Metal>
0.0000

> <Gold.Chemscore.Hbonds>
donor molecule, donor type, donor heavy atom, donor atom, acceptor molecule, acceptor atom, score
      L1  H     3    28       P1  7948  1.00
      L1  H     6    29       P1  7948  1.00
      L1  H    14    50       P1  7948  2.00
      P1  H 10752 10763       L1    17  1.00

> <Gold.PLP.Chemscore.Internal.Correction>
0.1465

> <Gold.Rescore>
     Score         DG    S(hbond)    S(metal)    S(lipo)     H(rot)  DE(clash)    DE(int)     intcor
     19.36     -23.68       3.37        0.00      91.64       1.48       2.65       1.67       ----

> <Gold.Chemscore.Fitness>
19.3643

> <Gold.Chemscore.DG>
-23.6797

> <Gold.Chemscore.ZeroCoef>
-5.4800

> <Gold.Chemscore.Hbond>
3.3723

> <Gold.Chemscore.Metal>
0.0000

> <Gold.Chemscore.Lipo>
91.6368

> <Gold.Chemscore.Internal_Hbond>
0.0000

> <Gold.Chemscore.DEClash>
2.6468

> <Gold.Chemscore.DEInternal>
1.6687

> <Gold.Chemscore.Rot>
1.4787

> <Gold.Chemscore.Internal.Correction>
   9.000000E+99

> <Gold.Chemscore.Hbonds>
donor molecule, donor type, donor heavy atom, donor atom, acceptor molecule, acceptor atom, score
      L1  H     3    28       P1  7948  0.99
      L1  H     6    29       P1  7948  0.94
      L1  H    14    50       P1  7948  0.96
      P1  H 10752 10763       L1    17  0.35

> <Gold.Chemscore.Hbond.Weighted>
-11.2636

> <Gold.Chemscore.Metal.Weighted>
-0.0000

> <Gold.Chemscore.Lipo.Weighted>
-10.7215

> <Gold.Chemscore.Internal_Hbond.Weighted>
0.0000

> <Gold.Chemscore.DEClash.Weighted>
2.6468

> <Gold.Chemscore.DEInternal.Weighted>
1.6687

> <Gold.Chemscore.Rot.Weighted>
3.7854

> <Gold.Chemscore.Internal.Correction.Weighted>
   9.000000E+99

> <Gold.Protein.RotatedTorsions>
[ 6907 6896 6895 6894 ] final  171.77 input  -60.11 | X-H torsion
[ 7974 7965 7964 7962 ] final -175.72 input  175.53 | X-H torsion
[ 8008 7997 7996 7995 ] final  119.23 input   59.86 | X-H torsion
[ 10167 10162 10161 10158 ] final   96.20 input  -65.29 | X-H torsion
[ 10718 10713 10712 10709 ] final   99.99 input   66.30 | X-H torsion
[ 10763 10752 10751 10750 ] final   76.98 input  -60.55 | X-H torsion
[ 11005 11000 10999 10996 ] final -168.68 input  -57.11 | X-H torsion

> <Gold.Protein.ActiveResidues>
 VAL166  LYS551  ARG553  GLY616  TRP617  ASP618  TYR619  PRO620  LYS621  CYS622 
 ASP623  PHE694  ASN695  SER759  ASP760  ASP761  ALA762  ILE779  LEU786  VAL792 
 PHE793  MET794  SER795  GLU796  ALA797  LYS798  CYS799  TRP800  GLU811  SER814 

> <Gold.Protein.RotatedAtoms>
  151.7950  133.3363  159.3509 H   0  0  0  0  0  0  0  0  0  0  0  0  # atno 6907 bound_to 6896
  150.7378  134.5807  159.5947 H   0  0  0  0  0  0  0  0  0  0  0  0  # atno 6908 bound_to 6896
  152.3183  134.7413  160.0371 H   0  0  0  0  0  0  0  0  0  0  0  0  # atno 6909 bound_to 6896
  144.7127  140.1279  143.6401 H   0  0  0  0  0  0  0  0  0  0  0  0  # atno 7974 bound_to 7965
  156.2586  140.2857  156.0959 H   0  0  0  0  0  0  0  0  0  0  0  0  # atno 8008 bound_to 7997
  155.1412  140.0395  157.2816 H   0  0  0  0  0  0  0  0  0  0  0  0  # atno 8009 bound_to 7997
  154.6528  140.2548  155.7201 H   0  0  0  0  0  0  0  0  0  0  0  0  # atno 8010 bound_to 7997
  139.7917  144.6849  150.9883 H   0  0  0  0  0  0  0  0  0  0  0  0  # atno 10167 bound_to 10162
  157.6864  131.0686  150.5033 H   0  0  0  0  0  0  0  0  0  0  0  0  # atno 10718 bound_to 10713
  153.0765  135.4931  154.8415 H   0  0  0  0  0  0  0  0  0  0  0  0  # atno 10763 bound_to 10752
  154.7094  135.3017  154.9223 H   0  0  0  0  0  0  0  0  0  0  0  0  # atno 10764 bound_to 10752
  153.9921  135.6777  153.4807 H   0  0  0  0  0  0  0  0  0  0  0  0  # atno 10765 bound_to 10752
  140.5393  134.5539  157.5095 H   0  0  0  0  0  0  0  0  0  0  0  0  # atno 11005 bound_to 11000
  145.9313  139.2608  143.1323 LP  0  0  0  0  0  0  0  0  0  0  0  0  # atno 17320 bound_to 7965
  145.9520  140.8901  143.0254 LP  0  0  0  0  0  0  0  0  0  0  0  0  # atno 17321 bound_to 7965
  140.7820  143.4374  151.0603 LP  0  0  0  0  0  0  0  0  0  0  0  0  # atno 17342 bound_to 10162
  139.8050  143.8030  152.3166 LP  0  0  0  0  0  0  0  0  0  0  0  0  # atno 17343 bound_to 10162
  156.5353  130.4195  149.6181 LP  0  0  0  0  0  0  0  0  0  0  0  0  # atno 17370 bound_to 10713
  156.3033  130.7188  151.2065 LP  0  0  0  0  0  0  0  0  0  0  0  0  # atno 17371 bound_to 10713
  139.9513  134.7613  156.0443 LP  0  0  0  0  0  0  0  0  0  0  0  0  # atno 17394 bound_to 11000
  141.1237  133.6605  156.3280 LP  0  0  0  0  0  0  0  0  0  0  0  0  # atno 17395 bound_to 11000

$$$$
