AV-unprocessed.smi:856|AV-procd|sdf|3960|dock7
  -GOLD-   22720 1433D 1   1.00000     0.00000
 Structure written by MMmdl.
 42 44  0  0  0  0  0  0  0  0  1 V2000
  152.3555  144.7636  161.7875 C   0  0  0  0  0  0  0  0  0  0  0  0
  152.5626  143.5083  161.0408 N   0  0  0  0  0  0  0  0  0  0  0  0
  152.0145  143.4012  159.7894 C   0  0  0  0  0  0  0  0  0  0  0  0
  151.3410  144.2731  159.2389 O   0  0  0  0  0  0  0  0  0  0  0  0
  152.2947  142.1230  159.1267 C   0  0  0  0  0  0  0  0  0  0  0  0
  153.0100  141.1317  159.7110 C   0  0  0  0  0  0  0  0  0  0  0  0
  153.1207  140.0260  158.8756 N   0  0  0  0  0  0  0  0  0  0  0  0
  152.4456  140.4245  157.7966 C   0  0  0  0  0  0  0  0  0  0  0  0
  151.9213  141.6652  157.8633 N   0  0  0  0  0  0  0  0  0  0  0  0
  151.1491  142.3281  156.8234 C   0  0  0  0  0  0  0  0  0  0  0  0
  150.0607  141.4170  156.2182 C   0  0  1  0  0  0  0  0  0  0  0  0
  150.5920  140.4965  155.2859 O   0  0  0  0  0  0  0  0  0  0  0  0
  149.2571  140.6408  157.2731 C   0  0  0  0  0  0  0  0  0  0  0  0
  148.6457  141.5549  158.1681 O   0  0  0  0  0  0  0  0  0  0  0  0
  147.2501  141.6939  157.9592 C   0  0  0  0  0  0  0  0  0  0  0  0
  146.7820  142.8623  158.7682 C   0  0  0  0  0  0  0  0  0  0  0  0
  145.9998  143.9445  158.4725 C   0  0  0  0  0  0  0  0  0  0  0  0
  145.9037  144.7123  159.6661 C   0  0  0  0  0  0  0  0  0  0  0  0
  146.6345  144.0420  160.6048 C   0  0  0  0  0  0  0  0  0  0  0  0
  147.1761  142.9124  160.0747 O   0  0  0  0  0  0  0  0  0  0  0  0
  153.5203  141.3395  161.0166 N   0  0  0  0  0  0  0  0  0  0  0  0
  154.2848  140.2427  161.6185 C   0  0  0  0  0  0  0  0  0  0  0  0
  153.3020  142.5248  161.6767 C   0  0  0  0  0  0  0  0  0  0  0  0
  153.7547  142.7069  162.8102 O   0  0  0  0  0  0  0  0  0  0  0  0
  151.7910  145.5285  161.2532 H   0  0  0  0  0  0  0  0  0  0  0  0
  153.3145  145.2154  162.0467 H   0  0  0  0  0  0  0  0  0  0  0  0
  151.8149  144.5695  162.7151 H   0  0  0  0  0  0  0  0  0  0  0  0
  152.3288  139.7926  156.9281 H   0  0  0  0  0  0  0  0  0  0  0  0
  150.7231  143.2457  157.2264 H   0  0  0  0  0  0  0  0  0  0  0  0
  151.8379  142.6436  156.0388 H   0  0  0  0  0  0  0  0  0  0  0  0
  149.3640  142.0421  155.6581 H   0  0  0  0  0  0  0  0  0  0  0  0
  151.2405  139.9680  155.7269 H   0  0  0  0  0  0  0  0  0  0  0  0
  148.4813  140.0534  156.7795 H   0  0  0  0  0  0  0  0  0  0  0  0
  149.8995  139.9410  157.8105 H   0  0  0  0  0  0  0  0  0  0  0  0
  147.0380  141.8585  156.9018 H   0  0  0  0  0  0  0  0  0  0  0  0
  146.7257  140.7901  158.2724 H   0  0  0  0  0  0  0  0  0  0  0  0
  145.5505  144.1568  157.5136 H   0  0  0  0  0  0  0  0  0  0  0  0
  145.3675  145.6371  159.8191 H   0  0  0  0  0  0  0  0  0  0  0  0
  146.8626  144.2178  161.6457 H   0  0  0  0  0  0  0  0  0  0  0  0
  154.6693  140.4543  162.6166 H   0  0  0  0  0  0  0  0  0  0  0  0
  155.1401  139.9959  160.9886 H   0  0  0  0  0  0  0  0  0  0  0  0
  153.6587  139.3530  161.6949 H   0  0  0  0  0  0  0  0  0  0  0  0
  1  2  1  0  0  0  0
  1 25  1  0  0  0  0
  1 26  1  0  0  0  0
  1 27  1  0  0  0  0
  2 23  1  0  0  0  0
  2  3  1  0  0  0  0
  3  4  2  0  0  0  0
  3  5  1  0  0  0  0
  5  9  1  0  0  0  0
  5  6  2  0  0  0  0
  6  7  1  0  0  0  0
  6 21  1  0  0  0  0
  7  8  2  0  0  0  0
  8  9  1  0  0  0  0
  8 28  1  0  0  0  0
  9 10  1  0  0  0  0
 10 11  1  0  0  0  0
 10 29  1  0  0  0  0
 10 30  1  0  0  0  0
 11 12  1  0  0  0  0
 11 13  1  0  0  0  0
 11 31  1  0  0  0  0
 12 32  1  0  0  0  0
 13 14  1  0  0  0  0
 13 33  1  0  0  0  0
 13 34  1  0  0  0  0
 14 15  1  0  0  0  0
 15 16  1  0  0  0  0
 15 35  1  0  0  0  0
 15 36  1  0  0  0  0
 16 20  1  0  0  0  0
 16 17  2  0  0  0  0
 17 18  1  0  0  0  0
 17 37  1  0  0  0  0
 18 19  2  0  0  0  0
 18 38  1  0  0  0  0
 19 20  1  0  0  0  0
 19 39  1  0  0  0  0
 21 22  1  0  0  0  0
 21 23  1  0  0  0  0
 22 40  1  0  0  0  0
 22 41  1  0  0  0  0
 22 42  1  0  0  0  0
 23 24  2  0  0  0  0
M  END
> <s_m_source_file>
AV-unprocessed.smi

> <i_m_source_file_index>
856

> <i_lp_mmshare_version>
43012

> <i_f3d_flags>
0

> <s_epik_input>
Tz1jMW4oW0NIM10pYyg9TyluKFtDSDNdKWMoYzEyKW5bY0hdbjJbQ0gyXVtDQEhdKFtPSF0pW0NIMl1PW0NIMl1jM1tjSF1bY0hdW2NIXW8z

> <s_epik_cmdline>
J2VwaWtfcHl0aG9uJywgJy1waCcsICc3LjAnLCAnLXRuJywgJzgnLCAnLW1hJywgJzIwMCcsICctbWV0YWxfYmluZGluZycsICctaW1hZScsICc8aW5maWxlLm1hZT4nLCAnLW9tYWUnLCAnPG91dGZpbGUubWFlPic=

> <r_lp_tautomer_probability>
1

> <r_epik_Ionization_Penalty>
1.33189e-06

> <r_epik_Ionization_Penalty_Charging>
3.64616e-09

> <r_epik_Ionization_Penalty_Neutral>
1.32824e-06

> <r_epik_State_Penalty>
-0

> <r_epik_Charging_Adjusted_Penalty>
3.64616e-09

> <i_epik_Tot_Q>
0

> <i_epik_Tot_abs_Q>
0

> <r_epik_Metal_State_Penalty>
-0

> <b_epik_Metal_Only>
0

> <s_lp_Force_Field>
OPLS_2005

> <r_lp_Energy>
33.5774

> <b_lp_Chiralities_Consistent>
1

> <s_lp_Variant>
AV-unprocessed.smi:856-2

> <Gold.Version>
5.8.1

> <Gold.Id.Protein>
6NUR|6NUR_protein|mol2

> <Gold.PLP.Fitness>
46.6236

> <Gold.PLP.PLP>
-40.1982

> <Gold.PLP.part.hbond>
-3.4296

> <Gold.PLP.part.metal>
0.0000

> <Gold.PLP.part.buried>
-2.1756

> <Gold.PLP.part.nonpolar>
-32.5845

> <Gold.PLP.part.repulsive>
0.2490

> <Gold.PLP.ligand.clash>
0.0000

> <Gold.PLP.ligand.torsion>
0.7770

> <Gold.PLP.Chemscore.Hbond>
2.6240

> <Gold.PLP.Chemscore.CHOScore>
0.0000

> <Gold.PLP.Chemscore.Metal>
0.0000

> <Gold.Chemscore.Hbonds>
donor molecule, donor type, donor heavy atom, donor atom, acceptor molecule, acceptor atom, score
      P1  H  6933  6944       L1    20  0.90
      P1  H  6934  6946       L1    20  0.54
      P1  H  7989  7998       L1    12  0.78

> <Gold.PLP.Chemscore.Internal.Correction>
0.1074

> <Gold.Rescore>
     Score         DG    S(hbond)    S(metal)    S(lipo)     H(rot)  DE(clash)    DE(int)     intcor
      8.06     -10.32       1.87        0.00      57.01       3.16       1.55       0.71       ----

> <Gold.Chemscore.Fitness>
8.0627

> <Gold.Chemscore.DG>
-10.3215

> <Gold.Chemscore.ZeroCoef>
-5.4800

> <Gold.Chemscore.Hbond>
1.8746

> <Gold.Chemscore.Metal>
0.0000

> <Gold.Chemscore.Lipo>
57.0059

> <Gold.Chemscore.Internal_Hbond>
0.0000

> <Gold.Chemscore.DEClash>
1.5510

> <Gold.Chemscore.DEInternal>
0.7078

> <Gold.Chemscore.Rot>
3.1599

> <Gold.Chemscore.Internal.Correction>
   9.000000E+99

> <Gold.Chemscore.Hbonds>
donor molecule, donor type, donor heavy atom, donor atom, acceptor molecule, acceptor atom, score
      P1  H  6933  6944       L1    20  0.39
      P1  H  6934  6946       L1    20  0.21
      P1  H  7989  7998       L1    12  0.17

> <Gold.Chemscore.Hbond.Weighted>
-6.2611

> <Gold.Chemscore.Metal.Weighted>
-0.0000

> <Gold.Chemscore.Lipo.Weighted>
-6.6697

> <Gold.Chemscore.Internal_Hbond.Weighted>
0.0000

> <Gold.Chemscore.DEClash.Weighted>
1.5510

> <Gold.Chemscore.DEInternal.Weighted>
0.7078

> <Gold.Chemscore.Rot.Weighted>
8.0893

> <Gold.Chemscore.Internal.Correction.Weighted>
   9.000000E+99

> <Gold.Protein.RotatedTorsions>
[ 6907 6896 6895 6894 ] final  147.40 input  -60.11 | X-H torsion
[ 7974 7965 7964 7962 ] final  118.06 input  175.53 | X-H torsion
[ 8008 7997 7996 7995 ] final   60.50 input   59.86 | X-H torsion
[ 10167 10162 10161 10158 ] final -159.15 input  -65.29 | X-H torsion
[ 10718 10713 10712 10709 ] final  156.38 input   66.30 | X-H torsion
[ 10763 10752 10751 10750 ] final  -93.10 input  -60.55 | X-H torsion
[ 11005 11000 10999 10996 ] final    8.95 input  -57.11 | X-H torsion

> <Gold.Protein.ActiveResidues>
 VAL166  LYS551  ARG553  GLY616  TRP617  ASP618  TYR619  PRO620  LYS621  CYS622 
 ASP623  PHE694  ASN695  SER759  ASP760  ASP761  ALA762  ILE779  LEU786  VAL792 
 PHE793  MET794  SER795  GLU796  ALA797  LYS798  CYS799  TRP800  GLU811  SER814 

> <Gold.Protein.RotatedAtoms>
  152.1552  133.4547  159.4833 H   0  0  0  0  0  0  0  0  0  0  0  0  # atno 6907 bound_to 6896
  150.6900  134.2139  159.4379 H   0  0  0  0  0  0  0  0  0  0  0  0  # atno 6908 bound_to 6896
  152.0039  134.9913  160.0616 H   0  0  0  0  0  0  0  0  0  0  0  0  # atno 6909 bound_to 6896
  145.1598  139.3162  143.4523 H   0  0  0  0  0  0  0  0  0  0  0  0  # atno 7974 bound_to 7965
  155.5834  140.3492  155.4546 H   0  0  0  0  0  0  0  0  0  0  0  0  # atno 8008 bound_to 7997
  156.0356  140.1284  157.0236 H   0  0  0  0  0  0  0  0  0  0  0  0  # atno 8009 bound_to 7997
  154.4370  140.1034  156.6148 H   0  0  0  0  0  0  0  0  0  0  0  0  # atno 8010 bound_to 7997
  139.6637  143.9867  152.2241 H   0  0  0  0  0  0  0  0  0  0  0  0  # atno 10167 bound_to 10162
  157.2057  131.0686  151.1999 H   0  0  0  0  0  0  0  0  0  0  0  0  # atno 10718 bound_to 10713
  154.6926  135.5207  153.8413 H   0  0  0  0  0  0  0  0  0  0  0  0  # atno 10763 bound_to 10752
  153.0643  135.6579  154.0400 H   0  0  0  0  0  0  0  0  0  0  0  0  # atno 10764 bound_to 10752
  154.0271  135.2988  155.3353 H   0  0  0  0  0  0  0  0  0  0  0  0  # atno 10765 bound_to 10752
  140.5312  134.0465  155.7874 H   0  0  0  0  0  0  0  0  0  0  0  0  # atno 11005 bound_to 11000
  146.3484  140.1704  142.8589 LP  0  0  0  0  0  0  0  0  0  0  0  0  # atno 17320 bound_to 7965
  145.0343  140.8895  143.5090 LP  0  0  0  0  0  0  0  0  0  0  0  0  # atno 17321 bound_to 7965
  139.9613  144.6556  150.8077 LP  0  0  0  0  0  0  0  0  0  0  0  0  # atno 17342 bound_to 10162
  140.7591  143.3121  151.2821 LP  0  0  0  0  0  0  0  0  0  0  0  0  # atno 17343 bound_to 10162
  157.3722  130.7187  149.6573 LP  0  0  0  0  0  0  0  0  0  0  0  0  # atno 17370 bound_to 10713
  155.9696  130.4195  150.4380 LP  0  0  0  0  0  0  0  0  0  0  0  0  # atno 17371 bound_to 10713
  141.1280  133.9350  157.2595 LP  0  0  0  0  0  0  0  0  0  0  0  0  # atno 17394 bound_to 11000
  139.9553  135.0167  156.9111 LP  0  0  0  0  0  0  0  0  0  0  0  0  # atno 17395 bound_to 11000

$$$$
