AV-unprocessed.smi:2390|AV-procd|sdf|9475|dock6
  -GOLD-   2272013103D 1   1.00000     0.00000
 Structure written by MMmdl.
 45 46  0  0  0  0  0  0  0  0  1 V2000
  141.5723  134.8502  153.1205 C   0  0  0  0  0  0  0  0  0  0  0  0
  142.9519  134.6517  152.5288 C   0  0  0  0  0  0  0  0  0  0  0  0
  143.2006  133.6226  151.5996 C   0  0  0  0  0  0  0  0  0  0  0  0
  144.5028  133.4948  151.0848 C   0  0  0  0  0  0  0  0  0  0  0  0
  145.4955  134.3960  151.5156 C   0  0  0  0  0  0  0  0  0  0  0  0
  145.1626  135.4018  152.4507 C   0  0  0  0  0  0  0  0  0  0  0  0
  146.2310  136.2643  152.8132 N   0  0  0  0  0  0  0  0  0  0  0  0
  146.1999  137.3248  153.6393 C   0  0  0  0  0  0  0  0  0  0  0  0
  145.2173  137.7034  154.2778 O   0  0  0  0  0  0  0  0  0  0  0  0
  147.3953  137.9306  153.6920 N   0  0  0  0  0  0  0  0  0  0  0  0
  147.7158  139.1122  154.4921 C   0  0  2  0  0  0  0  0  0  0  0  0
  146.7283  140.2366  154.1328 C   0  0  0  0  0  0  0  0  0  0  0  0
  149.2151  139.5305  154.3410 C   0  0  1  0  0  0  0  0  0  0  0  0
  149.3567  141.0656  154.5156 C   0  0  0  0  0  0  0  0  0  0  0  0
  150.1425  138.7617  155.2054 N   0  0  0  0  0  0  0  0  0  0  0  0
  150.0087  137.3100  155.0365 C   0  0  0  0  0  0  0  0  0  0  0  0
  150.9866  136.5146  155.9190 C   0  0  0  0  0  0  0  0  0  0  0  0
  152.3210  136.9205  155.6470 O   0  0  0  0  0  0  0  0  0  0  0  0
  152.5124  138.3102  155.8720 C   0  0  0  0  0  0  0  0  0  0  0  0
  151.5489  139.1146  154.9826 C   0  0  0  0  0  0  0  0  0  0  0  0
  143.9036  135.5161  152.9421 N   0  0  0  0  0  0  0  0  0  0  0  0
  140.9260  133.9976  152.9103 H   0  0  0  0  0  0  0  0  0  0  0  0
  141.1076  135.7429  152.7015 H   0  0  0  0  0  0  0  0  0  0  0  0
  141.6333  134.9699  154.2027 H   0  0  0  0  0  0  0  0  0  0  0  0
  142.4163  132.9485  151.2874 H   0  0  0  0  0  0  0  0  0  0  0  0
  144.7373  132.7198  150.3701 H   0  0  0  0  0  0  0  0  0  0  0  0
  146.5008  134.3126  151.1283 H   0  0  0  0  0  0  0  0  0  0  0  0
  147.1191  136.0601  152.3795 H   0  0  0  0  0  0  0  0  0  0  0  0
  148.1453  137.5470  153.1359 H   0  0  0  0  0  0  0  0  0  0  0  0
  147.5143  138.8270  155.5238 H   0  0  0  0  0  0  0  0  0  0  0  0
  146.8999  141.1252  154.7403 H   0  0  0  0  0  0  0  0  0  0  0  0
  145.6994  139.9207  154.3069 H   0  0  0  0  0  0  0  0  0  0  0  0
  146.8084  140.5280  153.0853 H   0  0  0  0  0  0  0  0  0  0  0  0
  149.4903  139.3189  153.3064 H   0  0  0  0  0  0  0  0  0  0  0  0
  148.6108  141.6229  153.9504 H   0  0  0  0  0  0  0  0  0  0  0  0
  150.3182  141.4279  154.1536 H   0  0  0  0  0  0  0  0  0  0  0  0
  149.2625  141.3593  155.5612 H   0  0  0  0  0  0  0  0  0  0  0  0
  149.0065  136.9802  155.3021 H   0  0  0  0  0  0  0  0  0  0  0  0
  150.1645  137.0430  153.9901 H   0  0  0  0  0  0  0  0  0  0  0  0
  150.7606  136.6642  156.9760 H   0  0  0  0  0  0  0  0  0  0  0  0
  150.8927  135.4470  155.7198 H   0  0  0  0  0  0  0  0  0  0  0  0
  152.3516  138.5426  156.9262 H   0  0  0  0  0  0  0  0  0  0  0  0
  153.5461  138.5686  155.6418 H   0  0  0  0  0  0  0  0  0  0  0  0
  151.8080  138.9578  153.9344 H   0  0  0  0  0  0  0  0  0  0  0  0
  151.7191  140.1682  155.1977 H   0  0  0  0  0  0  0  0  0  0  0  0
  1  2  1  0  0  0  0
  1 22  1  0  0  0  0
  1 23  1  0  0  0  0
  1 24  1  0  0  0  0
  2 21  1  0  0  0  0
  2  3  2  0  0  0  0
  3  4  1  0  0  0  0
  3 25  1  0  0  0  0
  4  5  2  0  0  0  0
  4 26  1  0  0  0  0
  5  6  1  0  0  0  0
  5 27  1  0  0  0  0
  6  7  1  0  0  0  0
  6 21  2  0  0  0  0
  7  8  1  0  0  0  0
  7 28  1  0  0  0  0
  8  9  2  0  0  0  0
  8 10  1  0  0  0  0
 10 11  1  0  0  0  0
 10 29  1  0  0  0  0
 11 12  1  0  0  0  0
 11 13  1  0  0  0  0
 11 30  1  0  0  0  0
 12 31  1  0  0  0  0
 12 32  1  0  0  0  0
 12 33  1  0  0  0  0
 13 14  1  0  0  0  0
 13 15  1  0  0  0  0
 13 34  1  0  0  0  0
 14 35  1  0  0  0  0
 14 36  1  0  0  0  0
 14 37  1  0  0  0  0
 15 20  1  0  0  0  0
 15 16  1  0  0  0  0
 16 17  1  0  0  0  0
 16 38  1  0  0  0  0
 16 39  1  0  0  0  0
 17 18  1  0  0  0  0
 17 40  1  0  0  0  0
 17 41  1  0  0  0  0
 18 19  1  0  0  0  0
 19 20  1  0  0  0  0
 19 42  1  0  0  0  0
 19 43  1  0  0  0  0
 20 44  1  0  0  0  0
 20 45  1  0  0  0  0
M  END
> <s_m_source_file>
AV-unprocessed.smi

> <i_m_source_file_index>
2390

> <i_lp_mmshare_version>
43012

> <i_f3d_flags>
0

> <s_epik_input>
W0NIM11jMVtjSF1bY0hdW2NIXWMobjEpW05IXUMoPU8pW05IXVtDQEhdKFtDSDNdKVtDQEhdKFtDSDNdKU4yW0NIMl1bQ0gyXU9bQ0gyXVtDSDJdMg==

> <s_epik_cmdline>
J2VwaWtfcHl0aG9uJywgJy1waCcsICc3LjAnLCAnLXRuJywgJzgnLCAnLW1hJywgJzIwMCcsICctbWV0YWxfYmluZGluZycsICctaW1hZScsICc8aW5maWxlLm1hZT4nLCAnLW9tYWUnLCAnPG91dGZpbGUubWFlPic=

> <r_epik_Ionization_Penalty>
0.266074

> <r_epik_Ionization_Penalty_Charging>
0

> <r_epik_Ionization_Penalty_Neutral>
0.266074

> <r_epik_State_Penalty>
0.257924

> <r_epik_Charging_Adjusted_Penalty>
0.257924

> <i_epik_Tot_Q>
0

> <i_epik_Tot_abs_Q>
0

> <r_epik_Metal_State_Penalty>
0.257919

> <b_epik_Metal_Only>
0

> <s_lp_Force_Field>
OPLS_2005

> <r_lp_Energy>
33.31

> <b_lp_Chiralities_Consistent>
1

> <s_lp_Variant>
AV-unprocessed.smi:2390-3

> <Gold.Version>
5.8.1

> <Gold.Id.Protein>
6NUR|6NUR_protein|mol2

> <Gold.PLP.Fitness>
38.9883

> <Gold.PLP.PLP>
-31.7163

> <Gold.PLP.part.hbond>
-3.0000

> <Gold.PLP.part.metal>
0.0000

> <Gold.PLP.part.buried>
-4.1727

> <Gold.PLP.part.nonpolar>
-25.7510

> <Gold.PLP.part.repulsive>
0.2945

> <Gold.PLP.ligand.clash>
0.0000

> <Gold.PLP.ligand.torsion>
0.7047

> <Gold.PLP.Chemscore.Hbond>
2.8640

> <Gold.PLP.Chemscore.CHOScore>
0.0000

> <Gold.PLP.Chemscore.Metal>
0.0000

> <Gold.Chemscore.Hbonds>
donor molecule, donor type, donor heavy atom, donor atom, acceptor molecule, acceptor atom, score
      L1  H     7    28       P1  7948  1.00
      L1  H    10    29       P1  7948  1.00
      P1  H 10752 10765       L1    18  0.90

> <Gold.PLP.Chemscore.Internal.Correction>
0.0895

> <Gold.Rescore>
     Score         DG    S(hbond)    S(metal)    S(lipo)     H(rot)  DE(clash)    DE(int)     intcor
     16.94     -19.86       2.85        0.00      73.09       1.44       0.06       2.87       ----

> <Gold.Chemscore.Fitness>
16.9364

> <Gold.Chemscore.DG>
-19.8644

> <Gold.Chemscore.ZeroCoef>
-5.4800

> <Gold.Chemscore.Hbond>
2.8499

> <Gold.Chemscore.Metal>
0.0000

> <Gold.Chemscore.Lipo>
73.0860

> <Gold.Chemscore.Internal_Hbond>
0.0000

> <Gold.Chemscore.DEClash>
0.0580

> <Gold.Chemscore.DEInternal>
2.8699

> <Gold.Chemscore.Rot>
1.4396

> <Gold.Chemscore.Internal.Correction>
   9.000000E+99

> <Gold.Chemscore.Hbonds>
donor molecule, donor type, donor heavy atom, donor atom, acceptor molecule, acceptor atom, score
      L1  H     7    28       P1  7948  1.00
      L1  H    10    29       P1  7948  0.95
      P1  H 10752 10765       L1    18  0.44

> <Gold.Chemscore.Hbond.Weighted>
-9.5187

> <Gold.Chemscore.Metal.Weighted>
-0.0000

> <Gold.Chemscore.Lipo.Weighted>
-8.5511

> <Gold.Chemscore.Internal_Hbond.Weighted>
0.0000

> <Gold.Chemscore.DEClash.Weighted>
0.0580

> <Gold.Chemscore.DEInternal.Weighted>
2.8699

> <Gold.Chemscore.Rot.Weighted>
3.6855

> <Gold.Chemscore.Internal.Correction.Weighted>
   9.000000E+99

> <Gold.Protein.RotatedTorsions>
[ 6907 6896 6895 6894 ] final  -47.43 input  -60.11 | X-H torsion
[ 7974 7965 7964 7962 ] final -123.45 input  175.53 | X-H torsion
[ 8008 7997 7996 7995 ] final -162.43 input   59.86 | X-H torsion
[ 10167 10162 10161 10158 ] final  122.11 input  -65.29 | X-H torsion
[ 10718 10713 10712 10709 ] final  151.17 input   66.30 | X-H torsion
[ 10763 10752 10751 10750 ] final -158.11 input  -60.55 | X-H torsion
[ 11005 11000 10999 10996 ] final  -28.66 input  -57.11 | X-H torsion

> <Gold.Protein.ActiveResidues>
 VAL166  LYS551  ARG553  GLY616  TRP617  ASP618  TYR619  PRO620  LYS621  CYS622 
 ASP623  PHE694  ASN695  SER759  ASP760  ASP761  ALA762  ILE779  LEU786  VAL792 
 PHE793  MET794  SER795  GLU796  ALA797  LYS798  CYS799  TRP800  GLU811  SER814 

> <Gold.Protein.RotatedAtoms>
  150.9008  134.8420  159.7358 H   0  0  0  0  0  0  0  0  0  0  0  0  # atno 6907 bound_to 6896
  152.4891  134.4505  159.9583 H   0  0  0  0  0  0  0  0  0  0  0  0  # atno 6908 bound_to 6896
  151.4557  133.3566  159.2837 H   0  0  0  0  0  0  0  0  0  0  0  0  # atno 6909 bound_to 6896
  145.0186  140.7968  143.4395 H   0  0  0  0  0  0  0  0  0  0  0  0  # atno 7974 bound_to 7965
  155.8066  140.0899  157.1927 H   0  0  0  0  0  0  0  0  0  0  0  0  # atno 8008 bound_to 7997
  154.3980  140.1462  156.3397 H   0  0  0  0  0  0  0  0  0  0  0  0  # atno 8009 bound_to 7997
  155.8408  140.3439  155.5633 H   0  0  0  0  0  0  0  0  0  0  0  0  # atno 8010 bound_to 7997
  139.5878  144.7013  151.3364 H   0  0  0  0  0  0  0  0  0  0  0  0  # atno 10167 bound_to 10162
  157.2741  131.0823  151.1578 H   0  0  0  0  0  0  0  0  0  0  0  0  # atno 10718 bound_to 10713
  154.7583  135.3110  154.8428 H   0  0  0  0  0  0  0  0  0  0  0  0  # atno 10763 bound_to 10752
  153.9196  135.6797  153.4752 H   0  0  0  0  0  0  0  0  0  0  0  0  # atno 10764 bound_to 10752
  153.1181  135.4835  154.9081 H   0  0  0  0  0  0  0  0  0  0  0  0  # atno 10765 bound_to 10752
  140.9228  133.7388  156.0826 H   0  0  0  0  0  0  0  0  0  0  0  0  # atno 11005 bound_to 11000
  145.1926  139.2293  143.5235 LP  0  0  0  0  0  0  0  0  0  0  0  0  # atno 17320 bound_to 7965
  146.3482  140.1725  142.8589 LP  0  0  0  0  0  0  0  0  0  0  0  0  # atno 17321 bound_to 7965
  140.7147  143.7298  150.7632 LP  0  0  0  0  0  0  0  0  0  0  0  0  # atno 17342 bound_to 10162
  140.0847  143.4935  152.2511 LP  0  0  0  0  0  0  0  0  0  0  0  0  # atno 17343 bound_to 10162
  157.3038  130.6856  149.6178 LP  0  0  0  0  0  0  0  0  0  0  0  0  # atno 17370 bound_to 10713
  155.9663  130.4384  150.5215 LP  0  0  0  0  0  0  0  0  0  0  0  0  # atno 17371 bound_to 10713
  140.7965  134.3558  157.5451 LP  0  0  0  0  0  0  0  0  0  0  0  0  # atno 17394 bound_to 11000
  139.8779  134.9172  156.3172 LP  0  0  0  0  0  0  0  0  0  0  0  0  # atno 17395 bound_to 11000

$$$$
