AV-unprocessed.smi:1430|AV-procd|sdf|5823|dock4
  -GOLD-   22720 5483D 1   1.00000     0.00000
 Structure written by MMmdl.
 46 47  0  0  0  0  0  0  0  0  1 V2000
  147.2560  130.5514  160.3610 C   0  0  0  0  0  0  0  0  0  0  0  0
  147.1751  131.5599  161.3622 O   0  0  0  0  0  0  0  0  0  0  0  0
  147.6282  132.8264  161.0549 C   0  0  0  0  0  0  0  0  0  0  0  0
  147.5968  133.8154  162.0578 C   0  0  0  0  0  0  0  0  0  0  0  0
  148.0591  135.1103  161.7536 C   0  0  0  0  0  0  0  0  0  0  0  0
  148.5471  135.3741  160.4513 C   0  0  0  0  0  0  0  0  0  0  0  0
  149.0245  136.6388  160.0122 N   0  0  0  0  0  0  0  0  0  0  0  0
  149.9419  136.9097  159.0679 C   0  0  0  0  0  0  0  0  0  0  0  0
  150.5285  136.0732  158.3813 O   0  0  0  0  0  0  0  0  0  0  0  0
  150.1326  138.2308  158.9444 N   0  0  0  0  0  0  0  0  0  0  0  0
  151.0446  138.8586  157.9958 C   0  0  0  0  0  0  0  0  0  0  0  0
  150.7351  140.3584  157.8340 C   0  0  0  0  0  0  0  0  0  0  0  0
  151.4646  141.2405  158.7426 N   0  0  0  0  0  0  0  0  0  0  0  0
  151.2215  142.6395  158.4142 C   0  0  0  0  0  0  0  0  0  0  0  0
  151.9475  143.5944  159.3786 C   0  0  2  0  0  0  0  0  0  0  0  0
  151.7620  145.0629  158.9826 C   0  0  0  0  0  0  0  0  0  0  0  0
  153.3443  143.3061  159.3675 O   0  0  0  0  0  0  0  0  0  0  0  0
  153.6875  141.9483  159.6492 C   0  0  1  0  0  0  0  0  0  0  0  0
  153.5263  141.6184  161.1428 C   0  0  0  0  0  0  0  0  0  0  0  0
  152.9052  140.9935  158.7245 C   0  0  0  0  0  0  0  0  0  0  0  0
  148.5228  134.3185  159.5165 C   0  0  0  0  0  0  0  0  0  0  0  0
  148.0820  133.0751  159.8016 N   0  0  0  0  0  0  0  0  0  0  0  0
  146.8603  129.6166  160.7580 H   0  0  0  0  0  0  0  0  0  0  0  0
  148.2887  130.3715  160.0587 H   0  0  0  0  0  0  0  0  0  0  0  0
  146.6657  130.8132  159.4817 H   0  0  0  0  0  0  0  0  0  0  0  0
  147.2208  133.5858  163.0439 H   0  0  0  0  0  0  0  0  0  0  0  0
  148.0162  135.8702  162.5177 H   0  0  0  0  0  0  0  0  0  0  0  0
  148.5755  137.4384  160.4344 H   0  0  0  0  0  0  0  0  0  0  0  0
  149.6054  138.8476  159.5450 H   0  0  0  0  0  0  0  0  0  0  0  0
  152.0614  138.7280  158.3670 H   0  0  0  0  0  0  0  0  0  0  0  0
  150.9903  138.3323  157.0421 H   0  0  0  0  0  0  0  0  0  0  0  0
  150.9179  140.6643  156.8026 H   0  0  0  0  0  0  0  0  0  0  0  0
  149.6650  140.4925  158.0001 H   0  0  0  0  0  0  0  0  0  0  0  0
  151.5443  142.8396  157.3908 H   0  0  0  0  0  0  0  0  0  0  0  0
  150.1508  142.8448  158.4479 H   0  0  0  0  0  0  0  0  0  0  0  0
  151.5573  143.4596  160.3877 H   0  0  0  0  0  0  0  0  0  0  0  0
  150.7077  145.3402  158.9845 H   0  0  0  0  0  0  0  0  0  0  0  0
  152.1580  145.2552  157.9851 H   0  0  0  0  0  0  0  0  0  0  0  0
  152.2807  145.7219  159.6793 H   0  0  0  0  0  0  0  0  0  0  0  0
  154.7475  141.8462  159.4152 H   0  0  0  0  0  0  0  0  0  0  0  0
  153.8960  140.6162  161.3605 H   0  0  0  0  0  0  0  0  0  0  0  0
  152.4847  141.6565  161.4608 H   0  0  0  0  0  0  0  0  0  0  0  0
  154.0901  142.3196  161.7584 H   0  0  0  0  0  0  0  0  0  0  0  0
  153.1227  139.9664  159.0160 H   0  0  0  0  0  0  0  0  0  0  0  0
  153.2779  141.1089  157.7054 H   0  0  0  0  0  0  0  0  0  0  0  0
  148.8728  134.4735  158.5062 H   0  0  0  0  0  0  0  0  0  0  0  0
  1  2  1  0  0  0  0
  1 23  1  0  0  0  0
  1 24  1  0  0  0  0
  1 25  1  0  0  0  0
  2  3  1  0  0  0  0
  3 22  1  0  0  0  0
  3  4  2  0  0  0  0
  4  5  1  0  0  0  0
  4 26  1  0  0  0  0
  5  6  2  0  0  0  0
  5 27  1  0  0  0  0
  6  7  1  0  0  0  0
  6 21  1  0  0  0  0
  7  8  1  0  0  0  0
  7 28  1  0  0  0  0
  8  9  2  0  0  0  0
  8 10  1  0  0  0  0
 10 11  1  0  0  0  0
 10 29  1  0  0  0  0
 11 12  1  0  0  0  0
 11 30  1  0  0  0  0
 11 31  1  0  0  0  0
 12 13  1  0  0  0  0
 12 32  1  0  0  0  0
 12 33  1  0  0  0  0
 13 20  1  0  0  0  0
 13 14  1  0  0  0  0
 14 15  1  0  0  0  0
 14 34  1  0  0  0  0
 14 35  1  0  0  0  0
 15 16  1  0  0  0  0
 15 17  1  0  0  0  0
 15 36  1  0  0  0  0
 16 37  1  0  0  0  0
 16 38  1  0  0  0  0
 16 39  1  0  0  0  0
 17 18  1  0  0  0  0
 18 19  1  0  0  0  0
 18 20  1  0  0  0  0
 18 40  1  0  0  0  0
 19 41  1  0  0  0  0
 19 42  1  0  0  0  0
 19 43  1  0  0  0  0
 20 44  1  0  0  0  0
 20 45  1  0  0  0  0
 21 22  2  0  0  0  0
 21 46  1  0  0  0  0
M  END
> <s_m_source_file>
AV-unprocessed.smi

> <i_m_source_file_index>
1430

> <i_lp_mmshare_version>
43012

> <i_f3d_flags>
0

> <s_epik_input>
W0NIM11PYzFbY0hdW2NIXWMoW2NIXW4xKVtOSF1DKD1PKVtOSF1bQ0gyXVtDSDJdTjJbQ0gyXVtDQEBIXShbQ0gzXSlPW0NAQEhdKFtDSDNdKVtDSDJdMg==

> <s_epik_cmdline>
J2VwaWtfcHl0aG9uJywgJy1waCcsICc3LjAnLCAnLXRuJywgJzgnLCAnLW1hJywgJzIwMCcsICctbWV0YWxfYmluZGluZycsICctaW1hZScsICc8aW5maWxlLm1hZT4nLCAnLW9tYWUnLCAnPG91dGZpbGUubWFlPic=

> <r_lp_tautomer_probability>
1

> <r_epik_Ionization_Penalty>
0.266083

> <r_epik_Ionization_Penalty_Charging>
0

> <r_epik_Ionization_Penalty_Neutral>
0.266083

> <r_epik_State_Penalty>
0.257924

> <r_epik_Charging_Adjusted_Penalty>
0.257924

> <i_epik_Tot_Q>
0

> <i_epik_Tot_abs_Q>
0

> <r_epik_Metal_State_Penalty>
0.257922

> <b_epik_Metal_Only>
0

> <s_lp_Force_Field>
OPLS_2005

> <r_lp_Energy>
25.3264

> <b_lp_Chiralities_Consistent>
1

> <s_lp_Variant>
AV-unprocessed.smi:1430-2

> <Gold.Version>
5.8.1

> <Gold.Id.Protein>
6NUR|6NUR_protein|mol2

> <Gold.PLP.Fitness>
41.0622

> <Gold.PLP.PLP>
-39.1081

> <Gold.PLP.part.hbond>
-1.0000

> <Gold.PLP.part.metal>
0.0000

> <Gold.PLP.part.buried>
-6.9612

> <Gold.PLP.part.nonpolar>
-33.0298

> <Gold.PLP.part.repulsive>
1.1356

> <Gold.PLP.ligand.clash>
0.0000

> <Gold.PLP.ligand.torsion>
0.5178

> <Gold.PLP.Chemscore.Hbond>
0.9920

> <Gold.PLP.Chemscore.CHOScore>
0.0000

> <Gold.PLP.Chemscore.Metal>
0.0000

> <Gold.Chemscore.Hbonds>
donor molecule, donor type, donor heavy atom, donor atom, acceptor molecule, acceptor atom, score
      P1  H  6896  6908       L1     9  0.74

> <Gold.PLP.Chemscore.Internal.Correction>
0.0139

> <Gold.Rescore>
     Score         DG    S(hbond)    S(metal)    S(lipo)     H(rot)  DE(clash)    DE(int)     intcor
     14.50     -16.24       0.96        0.00     101.92       1.71       0.02       1.71       ----

> <Gold.Chemscore.Fitness>
14.5012

> <Gold.Chemscore.DG>
-16.2364

> <Gold.Chemscore.ZeroCoef>
-5.4800

> <Gold.Chemscore.Hbond>
0.9614

> <Gold.Chemscore.Metal>
0.0000

> <Gold.Chemscore.Lipo>
101.9210

> <Gold.Chemscore.Internal_Hbond>
0.0000

> <Gold.Chemscore.DEClash>
0.0202

> <Gold.Chemscore.DEInternal>
1.7150

> <Gold.Chemscore.Rot>
1.7107

> <Gold.Chemscore.Internal.Correction>
   9.000000E+99

> <Gold.Chemscore.Hbonds>
donor molecule, donor type, donor heavy atom, donor atom, acceptor molecule, acceptor atom, score
      P1  H  6896  6908       L1     9  0.22

> <Gold.Chemscore.Hbond.Weighted>
-3.2111

> <Gold.Chemscore.Metal.Weighted>
-0.0000

> <Gold.Chemscore.Lipo.Weighted>
-11.9248

> <Gold.Chemscore.Internal_Hbond.Weighted>
0.0000

> <Gold.Chemscore.DEClash.Weighted>
0.0202

> <Gold.Chemscore.DEInternal.Weighted>
1.7150

> <Gold.Chemscore.Rot.Weighted>
4.3794

> <Gold.Chemscore.Internal.Correction.Weighted>
   9.000000E+99

> <Gold.Protein.RotatedTorsions>
[ 6907 6896 6895 6894 ] final  178.39 input  -60.11 | X-H torsion
[ 7974 7965 7964 7962 ] final  -51.35 input  175.53 | X-H torsion
[ 8008 7997 7996 7995 ] final  -29.66 input   59.86 | X-H torsion
[ 10167 10162 10161 10158 ] final  -26.17 input  -65.29 | X-H torsion
[ 10718 10713 10712 10709 ] final  -46.56 input   66.30 | X-H torsion
[ 10763 10752 10751 10750 ] final   52.98 input  -60.55 | X-H torsion
[ 11005 11000 10999 10996 ] final   50.37 input  -57.11 | X-H torsion

> <Gold.Protein.ActiveResidues>
 VAL166  LYS551  ARG553  GLY616  TRP617  ASP618  TYR619  PRO620  LYS621  CYS622 
 ASP623  PHE694  ASN695  SER759  ASP760  ASP761  ALA762  ILE779  LEU786  VAL792 
 PHE793  MET794  SER795  GLU796  ALA797  LYS798  CYS799  TRP800  GLU811  SER814 

> <Gold.Protein.RotatedAtoms>
  151.6885  133.3311  159.3236 H   0  0  0  0  0  0  0  0  0  0  0  0  # atno 6907 bound_to 6896
  150.7790  134.6719  159.6405 H   0  0  0  0  0  0  0  0  0  0  0  0  # atno 6908 bound_to 6896
  152.3841  134.6548  160.0184 H   0  0  0  0  0  0  0  0  0  0  0  0  # atno 6909 bound_to 6896
  145.9199  140.7843  142.9653 H   0  0  0  0  0  0  0  0  0  0  0  0  # atno 7974 bound_to 7965
  154.4281  140.1812  156.1284 H   0  0  0  0  0  0  0  0  0  0  0  0  # atno 8008 bound_to 7997
  156.0087  140.3353  155.6894 H   0  0  0  0  0  0  0  0  0  0  0  0  # atno 8009 bound_to 7997
  155.6141  140.0653  157.2688 H   0  0  0  0  0  0  0  0  0  0  0  0  # atno 8010 bound_to 7997
  140.7284  143.4201  151.0965 H   0  0  0  0  0  0  0  0  0  0  0  0  # atno 10167 bound_to 10162
  156.2171  130.4164  149.9040 H   0  0  0  0  0  0  0  0  0  0  0  0  # atno 10718 bound_to 10713
  152.9792  135.5794  154.4667 H   0  0  0  0  0  0  0  0  0  0  0  0  # atno 10763 bound_to 10752
  154.4235  135.2772  155.1962 H   0  0  0  0  0  0  0  0  0  0  0  0  # atno 10764 bound_to 10752
  154.3700  135.6170  153.5789 H   0  0  0  0  0  0  0  0  0  0  0  0  # atno 10765 bound_to 10752
  140.1023  134.5065  155.8751 H   0  0  0  0  0  0  0  0  0  0  0  0  # atno 11005 bound_to 11000
  144.6752  140.1959  143.7392 LP  0  0  0  0  0  0  0  0  0  0  0  0  # atno 17320 bound_to 7965
  145.8564  139.2201  143.1742 LP  0  0  0  0  0  0  0  0  0  0  0  0  # atno 17321 bound_to 7965
  139.7846  143.8306  152.3143 LP  0  0  0  0  0  0  0  0  0  0  0  0  # atno 17342 bound_to 10162
  139.8269  144.7271  150.9500 LP  0  0  0  0  0  0  0  0  0  0  0  0  # atno 17343 bound_to 10162
  156.6699  130.8816  151.3560 LP  0  0  0  0  0  0  0  0  0  0  0  0  # atno 17370 bound_to 10713
  157.7069  130.9395  150.0959 LP  0  0  0  0  0  0  0  0  0  0  0  0  # atno 17371 bound_to 10713
  141.2109  133.6700  156.6542 LP  0  0  0  0  0  0  0  0  0  0  0  0  # atno 17394 bound_to 11000
  140.3203  134.8013  157.4247 LP  0  0  0  0  0  0  0  0  0  0  0  0  # atno 17395 bound_to 11000

$$$$
