AV-unprocessed.smi:774|AV-procd|sdf|3691|dock2
  -GOLD-   22720 1113D 1   1.00000     0.00000
 Structure written by MMmdl.
 37 38  0  0  0  0  0  0  0  0  1 V2000
  143.6484  132.9158  148.3017 C   0  0  0  0  0  0  0  0  0  0  0  0
  144.0734  132.1668  149.5674 C   0  0  0  0  0  0  0  0  0  0  0  0
  145.8749  131.9812  149.6528 S   0  0  0  0  0  0  0  0  0  0  0  0
  146.2556  133.1238  151.0118 C   0  0  2  0  0  0  0  0  0  0  0  0
  145.6052  132.7011  152.3263 C   0  0  0  0  0  0  0  0  0  0  0  0
  145.6065  133.9736  153.1743 C   0  0  0  0  0  0  0  0  0  0  0  0
  145.4981  135.1446  152.1795 C   0  0  1  0  0  0  0  0  0  0  0  0
  146.4963  136.1719  152.4727 N   0  0  0  0  0  0  0  0  0  0  0  0
  146.2482  137.3719  153.0169 C   0  0  0  0  0  0  0  0  0  0  0  0
  145.1242  137.7537  153.3411 O   0  0  0  0  0  0  0  0  0  0  0  0
  147.3834  138.0761  153.1698 N   0  0  0  0  0  0  0  0  0  0  0  0
  147.5586  139.3738  153.7239 C   0  0  0  0  0  0  0  0  0  0  0  0
  148.8761  139.8572  153.8633 C   0  0  0  0  0  0  0  0  0  0  0  0
  149.0843  141.1418  154.3998 C   0  0  0  0  0  0  0  0  0  0  0  0
  147.9590  141.9025  154.7710 C   0  0  0  0  0  0  0  0  0  0  0  0
  146.6908  141.4634  154.6297 N   0  0  0  0  0  0  0  0  0  0  0  0
  146.4982  140.2294  154.1157 C   0  0  0  0  0  0  0  0  0  0  0  0
  145.7242  134.5422  150.7797 C   0  0  0  0  0  0  0  0  0  0  0  0
  142.5647  133.0268  148.2612 H   0  0  0  0  0  0  0  0  0  0  0  0
  143.9625  132.3817  147.4046 H   0  0  0  0  0  0  0  0  0  0  0  0
  144.0873  133.9135  148.2686 H   0  0  0  0  0  0  0  0  0  0  0  0
  143.7309  132.7053  150.4512 H   0  0  0  0  0  0  0  0  0  0  0  0
  143.6103  131.1803  149.5902 H   0  0  0  0  0  0  0  0  0  0  0  0
  147.3369  133.1599  151.1518 H   0  0  0  0  0  0  0  0  0  0  0  0
  144.5768  132.3830  152.1493 H   0  0  0  0  0  0  0  0  0  0  0  0
  146.1305  131.8760  152.8083 H   0  0  0  0  0  0  0  0  0  0  0  0
  144.7963  133.9772  153.9041 H   0  0  0  0  0  0  0  0  0  0  0  0
  146.5425  134.0269  153.7329 H   0  0  0  0  0  0  0  0  0  0  0  0
  144.4882  135.5563  152.2252 H   0  0  0  0  0  0  0  0  0  0  0  0
  147.4534  135.9477  152.2434 H   0  0  0  0  0  0  0  0  0  0  0  0
  148.2355  137.5996  152.9131 H   0  0  0  0  0  0  0  0  0  0  0  0
  149.7202  139.2512  153.5678 H   0  0  0  0  0  0  0  0  0  0  0  0
  150.0825  141.5346  154.5242 H   0  0  0  0  0  0  0  0  0  0  0  0
  148.0806  142.8914  155.1876 H   0  0  0  0  0  0  0  0  0  0  0  0
  145.4629  139.9486  154.0065 H   0  0  0  0  0  0  0  0  0  0  0  0
  146.3977  135.1358  150.1601 H   0  0  0  0  0  0  0  0  0  0  0  0
  144.7683  134.4960  150.2560 H   0  0  0  0  0  0  0  0  0  0  0  0
  1  2  1  0  0  0  0
  1 19  1  0  0  0  0
  1 20  1  0  0  0  0
  1 21  1  0  0  0  0
  2  3  1  0  0  0  0
  2 22  1  0  0  0  0
  2 23  1  0  0  0  0
  3  4  1  0  0  0  0
  4 18  1  0  0  0  0
  4  5  1  0  0  0  0
  4 24  1  0  0  0  0
  5  6  1  0  0  0  0
  5 25  1  0  0  0  0
  5 26  1  0  0  0  0
  6  7  1  0  0  0  0
  6 27  1  0  0  0  0
  6 28  1  0  0  0  0
  7  8  1  0  0  0  0
  7 18  1  0  0  0  0
  7 29  1  0  0  0  0
  8  9  1  0  0  0  0
  8 30  1  0  0  0  0
  9 10  2  0  0  0  0
  9 11  1  0  0  0  0
 11 12  1  0  0  0  0
 11 31  1  0  0  0  0
 12 17  1  0  0  0  0
 12 13  2  0  0  0  0
 13 14  1  0  0  0  0
 13 32  1  0  0  0  0
 14 15  2  0  0  0  0
 14 33  1  0  0  0  0
 15 16  1  0  0  0  0
 15 34  1  0  0  0  0
 16 17  2  0  0  0  0
 17 35  1  0  0  0  0
 18 36  1  0  0  0  0
 18 37  1  0  0  0  0
M  END
> <s_m_source_file>
AV-unprocessed.smi

> <i_m_source_file_index>
774

> <i_lp_mmshare_version>
43012

> <i_f3d_flags>
0

> <s_epik_input>
W0NIM11bQ0gyXVNbQ0BASF0xW0NIMl1bQ0gyXVtDQEhdKFtDSDJdMSlbTkhdQyg9TylbTkhdYzJbY0hdW2NIXVtjSF1uW2NIXTI=

> <s_epik_cmdline>
J2VwaWtfcHl0aG9uJywgJy1waCcsICc3LjAnLCAnLXRuJywgJzgnLCAnLW1hJywgJzIwMCcsICctbWV0YWxfYmluZGluZycsICctaW1hZScsICc8aW5maWxlLm1hZT4nLCAnLW9tYWUnLCAnPG91dGZpbGUubWFlPic=

> <r_epik_Ionization_Penalty>
0.00485718

> <r_epik_Ionization_Penalty_Charging>
0

> <r_epik_Ionization_Penalty_Neutral>
0.00485718

> <r_epik_State_Penalty>
0.00349461

> <r_epik_Charging_Adjusted_Penalty>
0.00349461

> <i_epik_Tot_Q>
0

> <i_epik_Tot_abs_Q>
0

> <r_epik_Metal_State_Penalty>
-0

> <b_epik_Metal_Only>
0

> <s_lp_Force_Field>
OPLS_2005

> <r_lp_Energy>
20.878

> <b_lp_Chiralities_Consistent>
1

> <s_lp_Variant>
AV-unprocessed.smi:774-1

> <Gold.Version>
5.8.1

> <Gold.Id.Protein>
6NUR|6NUR_protein|mol2

> <Gold.PLP.Fitness>
41.5107

> <Gold.PLP.PLP>
-30.8265

> <Gold.PLP.part.hbond>
-1.9982

> <Gold.PLP.part.metal>
0.0000

> <Gold.PLP.part.buried>
1.7076

> <Gold.PLP.part.nonpolar>
-31.4195

> <Gold.PLP.part.repulsive>
0.3728

> <Gold.PLP.ligand.clash>
0.0000

> <Gold.PLP.ligand.torsion>
0.5289

> <Gold.PLP.Chemscore.Hbond>
1.9120

> <Gold.PLP.Chemscore.CHOScore>
2.0000

> <Gold.PLP.Chemscore.Metal>
0.0000

> <Gold.Chemscore.Hbonds>
donor molecule, donor type, donor heavy atom, donor atom, acceptor molecule, acceptor atom, score
      L1  H     8    30       P1  7948  1.00
      L1  H    11    31       P1  7948  0.90
      L1  C    15    34       P1  8028  0.99
      L1  C    17    35       P1 10175  1.00

> <Gold.PLP.Chemscore.Internal.Correction>
0.0060

> <Gold.Rescore>
     Score         DG    S(hbond)    S(metal)    S(lipo)     H(rot)  DE(clash)    DE(int)     intcor
     16.92     -18.76       1.88        0.00      88.38       1.30       0.08       1.76       ----

> <Gold.Chemscore.Fitness>
16.9192

> <Gold.Chemscore.DG>
-18.7622

> <Gold.Chemscore.ZeroCoef>
-5.4800

> <Gold.Chemscore.Hbond>
1.8803

> <Gold.Chemscore.Metal>
0.0000

> <Gold.Chemscore.Lipo>
88.3789

> <Gold.Chemscore.Internal_Hbond>
0.0000

> <Gold.Chemscore.DEClash>
0.0827

> <Gold.Chemscore.DEInternal>
1.7603

> <Gold.Chemscore.Rot>
1.3041

> <Gold.Chemscore.Internal.Correction>
   9.000000E+99

> <Gold.Chemscore.Hbonds>
donor molecule, donor type, donor heavy atom, donor atom, acceptor molecule, acceptor atom, score
      L1  H     8    30       P1  7948  0.95
      L1  H    11    31       P1  7948  0.88

> <Gold.Chemscore.Hbond.Weighted>
-6.2803

> <Gold.Chemscore.Metal.Weighted>
-0.0000

> <Gold.Chemscore.Lipo.Weighted>
-10.3403

> <Gold.Chemscore.Internal_Hbond.Weighted>
0.0000

> <Gold.Chemscore.DEClash.Weighted>
0.0827

> <Gold.Chemscore.DEInternal.Weighted>
1.7603

> <Gold.Chemscore.Rot.Weighted>
3.3384

> <Gold.Chemscore.Internal.Correction.Weighted>
   9.000000E+99

> <Gold.Protein.RotatedTorsions>
[ 6907 6896 6895 6894 ] final  142.77 input  -60.11 | X-H torsion
[ 7974 7965 7964 7962 ] final   63.81 input  175.53 | X-H torsion
[ 8008 7997 7996 7995 ] final   65.60 input   59.86 | X-H torsion
[ 10167 10162 10161 10158 ] final  -17.90 input  -65.29 | X-H torsion
[ 10718 10713 10712 10709 ] final   93.73 input   66.30 | X-H torsion
[ 10763 10752 10751 10750 ] final -115.57 input  -60.55 | X-H torsion
[ 11005 11000 10999 10996 ] final  161.28 input  -57.11 | X-H torsion

> <Gold.Protein.ActiveResidues>
 VAL166  LYS551  ARG553  GLY616  TRP617  ASP618  TYR619  PRO620  LYS621  CYS622 
 ASP623  PHE694  ASN695  SER759  ASP760  ASP761  ALA762  ILE779  LEU786  VAL792 
 PHE793  MET794  SER795  GLU796  ALA797  LYS798  CYS799  TRP800  GLU811  SER814 

> <Gold.Protein.RotatedAtoms>
  152.2146  133.4937  159.5128 H   0  0  0  0  0  0  0  0  0  0  0  0  # atno 6907 bound_to 6896
  150.6998  134.1422  159.4118 H   0  0  0  0  0  0  0  0  0  0  0  0  # atno 6908 bound_to 6896
  151.9342  135.0243  160.0582 H   0  0  0  0  0  0  0  0  0  0  0  0  # atno 6909 bound_to 6896
  145.8575  139.3293  143.0838 H   0  0  0  0  0  0  0  0  0  0  0  0  # atno 7974 bound_to 7965
  155.6643  140.3497  155.4794 H   0  0  0  0  0  0  0  0  0  0  0  0  # atno 8008 bound_to 7997
  155.9742  140.1162  157.0808 H   0  0  0  0  0  0  0  0  0  0  0  0  # atno 8009 bound_to 7997
  154.4174  140.1151  156.5334 H   0  0  0  0  0  0  0  0  0  0  0  0  # atno 8010 bound_to 7997
  140.7253  143.4969  150.9919 H   0  0  0  0  0  0  0  0  0  0  0  0  # atno 10167 bound_to 10162
  157.6953  131.0488  150.4078 H   0  0  0  0  0  0  0  0  0  0  0  0  # atno 10718 bound_to 10713
  154.8486  135.4377  154.1684 H   0  0  0  0  0  0  0  0  0  0  0  0  # atno 10763 bound_to 10752
  153.2803  135.6953  153.7398 H   0  0  0  0  0  0  0  0  0  0  0  0  # atno 10764 bound_to 10752
  153.6604  135.3436  155.3100 H   0  0  0  0  0  0  0  0  0  0  0  0  # atno 10765 bound_to 10752
  140.2143  134.8244  157.3153 H   0  0  0  0  0  0  0  0  0  0  0  0  # atno 11005 bound_to 11000
  145.9286  140.9064  143.0368 LP  0  0  0  0  0  0  0  0  0  0  0  0  # atno 17320 bound_to 7965
  144.6727  140.1387  143.7438 LP  0  0  0  0  0  0  0  0  0  0  0  0  # atno 17321 bound_to 7965
  139.8676  143.7233  152.3169 LP  0  0  0  0  0  0  0  0  0  0  0  0  # atno 17342 bound_to 10162
  139.7471  144.7544  151.0563 LP  0  0  0  0  0  0  0  0  0  0  0  0  # atno 17343 bound_to 10162
  156.4465  130.4002  149.6663 LP  0  0  0  0  0  0  0  0  0  0  0  0  # atno 17370 bound_to 10713
  156.3828  130.7587  151.2582 LP  0  0  0  0  0  0  0  0  0  0  0  0  # atno 17371 bound_to 10713
  140.1917  134.4363  155.7712 LP  0  0  0  0  0  0  0  0  0  0  0  0  # atno 17394 bound_to 11000
  141.2225  133.7030  156.8039 LP  0  0  0  0  0  0  0  0  0  0  0  0  # atno 17395 bound_to 11000

$$$$
