AV-unprocessed.smi:1116|AV-procd|sdf|4812|dock4
  -GOLD-   22720 3363D 1   1.00000     0.00000
 Structure written by MMmdl.
 35 36  0  0  0  0  0  0  0  0  2 V2000
  153.3402  142.3246  161.3546 C   0  0  0  0  0  0  0  0  0  0  0  0
  152.6379  142.4562  160.0469 C   0  0  0  0  0  0  0  0  0  0  0  0
  152.2573  141.4134  159.3042 N   0  0  0  0  0  0  0  0  0  0  0  0
  151.6221  141.7994  158.1195 C   0  0  0  0  0  0  0  0  0  0  0  0
  151.1359  140.7590  157.1568 C   0  0  0  0  0  0  0  0  0  0  0  0
  151.3077  139.3339  157.7086 C   0  0  0  0  0  0  0  0  0  0  0  0
  150.0587  138.8108  158.2508 N   0  0  0  0  0  0  0  0  0  0  0  0
  149.9038  137.5908  158.7877 C   0  0  0  0  0  0  0  0  0  0  0  0
  150.8170  136.7687  158.8663 O   0  0  0  0  0  0  0  0  0  0  0  0
  148.5036  137.2472  159.3040 C   0  0  0  0  0  0  0  0  0  0  0  0
  148.4611  135.9078  160.0644 C   0  0  0  0  0  0  0  0  0  0  0  0
  147.2171  135.7664  160.9635 C   0  0  1  0  0  0  0  0  0  0  0  0
  146.5522  134.5009  160.7389 N   0  0  0  0  0  0  0  0  0  0  0  0
  146.4764  133.7864  161.8599 C   0  0  0  0  0  0  0  0  0  0  0  0
  145.9319  132.6850  161.8884 O   0  0  0  0  0  0  0  0  0  0  0  0
  147.0677  134.4482  162.8735 N   0  5  0  0  0  0  0  0  0  0  0  0
  147.5503  135.6363  162.4498 C   0  0  0  0  0  0  0  0  0  0  0  0
  148.1479  136.5174  163.0657 O   0  0  0  0  0  0  0  0  0  0  0  0
  151.5226  143.1612  157.9779 C   0  0  0  0  0  0  0  0  0  0  0  0
  152.2264  144.0084  159.3278 S   0  0  0  0  0  0  0  0  0  0  0  0
  153.6737  141.2981  161.5100 H   0  0  0  0  0  0  0  0  0  0  0  0
  152.6689  142.6023  162.1672 H   0  0  0  0  0  0  0  0  0  0  0  0
  154.2105  142.9806  161.3783 H   0  0  0  0  0  0  0  0  0  0  0  0
  150.0853  140.9348  156.9214 H   0  0  0  0  0  0  0  0  0  0  0  0
  151.6728  140.8537  156.2121 H   0  0  0  0  0  0  0  0  0  0  0  0
  151.6873  138.6673  156.9324 H   0  0  0  0  0  0  0  0  0  0  0  0
  152.0496  139.3316  158.5077 H   0  0  0  0  0  0  0  0  0  0  0  0
  149.2561  139.4227  158.2223 H   0  0  0  0  0  0  0  0  0  0  0  0
  148.1485  138.0472  159.9557 H   0  0  0  0  0  0  0  0  0  0  0  0
  147.8266  137.2168  158.4497 H   0  0  0  0  0  0  0  0  0  0  0  0
  148.5038  135.0732  159.3620 H   0  0  0  0  0  0  0  0  0  0  0  0
  149.3561  135.8281  160.6839 H   0  0  0  0  0  0  0  0  0  0  0  0
  146.5193  136.5916  160.8140 H   0  0  0  0  0  0  0  0  0  0  0  0
  146.1805  134.2156  159.8451 H   0  0  0  0  0  0  0  0  0  0  0  0
  151.0811  143.7156  157.1627 H   0  0  0  0  0  0  0  0  0  0  0  0
  1  2  1  0  0  0  0
  1 21  1  0  0  0  0
  1 22  1  0  0  0  0
  1 23  1  0  0  0  0
  2 20  1  0  0  0  0
  2  3  2  0  0  0  0
  3  4  1  0  0  0  0
  4  5  1  0  0  0  0
  4 19  2  0  0  0  0
  5  6  1  0  0  0  0
  5 24  1  0  0  0  0
  5 25  1  0  0  0  0
  6  7  1  0  0  0  0
  6 26  1  0  0  0  0
  6 27  1  0  0  0  0
  7  8  1  0  0  0  0
  7 28  1  0  0  0  0
  8  9  2  0  0  0  0
  8 10  1  0  0  0  0
 10 11  1  0  0  0  0
 10 29  1  0  0  0  0
 10 30  1  0  0  0  0
 11 12  1  0  0  0  0
 11 31  1  0  0  0  0
 11 32  1  0  0  0  0
 12 17  1  0  0  0  0
 12 13  1  0  0  0  0
 12 33  1  0  0  0  0
 13 14  1  0  0  0  0
 13 34  1  0  0  0  0
 14 15  2  0  0  0  0
 14 16  1  0  0  0  0
 16 17  1  0  0  0  0
 17 18  2  0  0  0  0
 19 20  1  0  0  0  0
 19 35  1  0  0  0  0
M  CHG  1  16  -1
M  END
> <s_m_source_file>
AV-unprocessed.smi

> <i_m_source_file_index>
1116

> <i_lp_mmshare_version>
43012

> <i_f3d_flags>
0

> <s_epik_input>
W0NIM11jMW5jKFtjSF1zMSlbQ0gyXVtDSDJdW05IXUMoPU8pW0NIMl1bQ0gyXVtDQEBIXTJbTkhdQyg9TylbTkhdQzI9Tw==

> <s_epik_cmdline>
J2VwaWtfcHl0aG9uJywgJy1waCcsICc3LjAnLCAnLXRuJywgJzgnLCAnLW1hJywgJzIwMCcsICctbWV0YWxfYmluZGluZycsICctaW1hZScsICc8aW5maWxlLm1hZT4nLCAnLW9tYWUnLCAnPG91dGZpbGUubWFlPic=

> <r_lp_tautomer_probability>
1

> <r_epik_Ionization_Penalty>
2.5713

> <r_epik_Ionization_Penalty_Charging>
2.57023

> <r_epik_Ionization_Penalty_Neutral>
0.00106405

> <r_epik_State_Penalty>
2.56828

> <r_epik_Charging_Adjusted_Penalty>
5.13851

> <i_epik_Tot_Q>
-1

> <i_epik_Tot_abs_Q>
1

> <r_epik_Metal_State_Penalty>
0.44525

> <b_epik_Metal_Only>
1

> <s_lp_Force_Field>
OPLS_2005

> <r_lp_Energy>
2.19092

> <b_lp_Chiralities_Consistent>
1

> <s_lp_Variant>
AV-unprocessed.smi:1116-6

> <Gold.Version>
5.8.1

> <Gold.Id.Protein>
6NUR|6NUR_protein|mol2

> <Gold.PLP.Fitness>
46.7037

> <Gold.PLP.PLP>
-40.6655

> <Gold.PLP.part.hbond>
-2.1827

> <Gold.PLP.part.metal>
0.0000

> <Gold.PLP.part.buried>
-7.7684

> <Gold.PLP.part.nonpolar>
-31.6212

> <Gold.PLP.part.repulsive>
0.1951

> <Gold.PLP.ligand.clash>
0.0000

> <Gold.PLP.ligand.torsion>
1.1714

> <Gold.PLP.Chemscore.Hbond>
1.7680

> <Gold.PLP.Chemscore.CHOScore>
1.0000

> <Gold.PLP.Chemscore.Metal>
0.0000

> <Gold.Chemscore.Hbonds>
donor molecule, donor type, donor heavy atom, donor atom, acceptor molecule, acceptor atom, score
      P1  H  6896  6908       L1     9  1.00
      P1  H  6931  6943       L1    18  0.42
      L1  C    19    35       P1  8028  0.27

> <Gold.PLP.Chemscore.Internal.Correction>
0.0770

> <Gold.Rescore>
     Score         DG    S(hbond)    S(metal)    S(lipo)     H(rot)  DE(clash)    DE(int)     intcor
     14.77     -15.86       2.41        0.00      80.51       2.77       0.04       1.05       ----

> <Gold.Chemscore.Fitness>
14.7688

> <Gold.Chemscore.DG>
-15.8559

> <Gold.Chemscore.ZeroCoef>
-5.4800

> <Gold.Chemscore.Hbond>
2.4088

> <Gold.Chemscore.Metal>
0.0000

> <Gold.Chemscore.Lipo>
80.5065

> <Gold.Chemscore.Internal_Hbond>
0.0000

> <Gold.Chemscore.DEClash>
0.0407

> <Gold.Chemscore.DEInternal>
1.0463

> <Gold.Chemscore.Rot>
2.7691

> <Gold.Chemscore.Internal.Correction>
   9.000000E+99

> <Gold.Chemscore.Hbonds>
donor molecule, donor type, donor heavy atom, donor atom, acceptor molecule, acceptor atom, score
      P1  H  6896  6908       L1     9  0.93
      P1  H  6931  6943       L1    18  0.41

> <Gold.Chemscore.Hbond.Weighted>
-8.0455

> <Gold.Chemscore.Metal.Weighted>
-0.0000

> <Gold.Chemscore.Lipo.Weighted>
-9.4193

> <Gold.Chemscore.Internal_Hbond.Weighted>
0.0000

> <Gold.Chemscore.DEClash.Weighted>
0.0407

> <Gold.Chemscore.DEInternal.Weighted>
1.0463

> <Gold.Chemscore.Rot.Weighted>
7.0889

> <Gold.Chemscore.Internal.Correction.Weighted>
   9.000000E+99

> <Gold.Protein.RotatedTorsions>
[ 6907 6896 6895 6894 ] final -154.80 input  -60.11 | X-H torsion
[ 7974 7965 7964 7962 ] final -101.83 input  175.53 | X-H torsion
[ 8008 7997 7996 7995 ] final  141.40 input   59.86 | X-H torsion
[ 10167 10162 10161 10158 ] final  153.86 input  -65.29 | X-H torsion
[ 10718 10713 10712 10709 ] final -121.54 input   66.30 | X-H torsion
[ 10763 10752 10751 10750 ] final   70.95 input  -60.55 | X-H torsion
[ 11005 11000 10999 10996 ] final  -25.75 input  -57.11 | X-H torsion

> <Gold.Protein.ActiveResidues>
 VAL166  LYS551  ARG553  GLY616  TRP617  ASP618  TYR619  PRO620  LYS621  CYS622 
 ASP623  PHE694  ASN695  SER759  ASP760  ASP761  ALA762  ILE779  LEU786  VAL792 
 PHE793  MET794  SER795  GLU796  ALA797  LYS798  CYS799  TRP800  GLU811  SER814 

> <Gold.Protein.RotatedAtoms>
  151.2628  133.4293  159.2616 H   0  0  0  0  0  0  0  0  0  0  0  0  # atno 6907 bound_to 6896
  151.0515  134.9676  159.8224 H   0  0  0  0  0  0  0  0  0  0  0  0  # atno 6908 bound_to 6896
  152.5383  134.2583  159.8978 H   0  0  0  0  0  0  0  0  0  0  0  0  # atno 6909 bound_to 6896
  145.2766  140.9314  143.2956 H   0  0  0  0  0  0  0  0  0  0  0  0  # atno 7974 bound_to 7965
  156.2966  140.2316  156.4558 H   0  0  0  0  0  0  0  0  0  0  0  0  # atno 8008 bound_to 7997
  154.8061  140.0445  157.1329 H   0  0  0  0  0  0  0  0  0  0  0  0  # atno 8009 bound_to 7997
  154.9477  140.3038  155.5093 H   0  0  0  0  0  0  0  0  0  0  0  0  # atno 8010 bound_to 7997
  139.4825  144.5237  151.7836 H   0  0  0  0  0  0  0  0  0  0  0  0  # atno 10167 bound_to 10162
  156.1345  130.6420  150.9674 H   0  0  0  0  0  0  0  0  0  0  0  0  # atno 10718 bound_to 10713
  153.0371  135.5155  154.7519 H   0  0  0  0  0  0  0  0  0  0  0  0  # atno 10763 bound_to 10752
  154.6487  135.2922  155.0016 H   0  0  0  0  0  0  0  0  0  0  0  0  # atno 10764 bound_to 10752
  154.0908  135.6650  153.4905 H   0  0  0  0  0  0  0  0  0  0  0  0  # atno 10765 bound_to 10752
  140.8966  133.7552  156.0490 H   0  0  0  0  0  0  0  0  0  0  0  0  # atno 11005 bound_to 11000
  144.9289  139.4322  143.6505 LP  0  0  0  0  0  0  0  0  0  0  0  0  # atno 17320 bound_to 7965
  146.3230  139.8189  142.8931 LP  0  0  0  0  0  0  0  0  0  0  0  0  # atno 17321 bound_to 7965
  140.4754  144.1527  150.5924 LP  0  0  0  0  0  0  0  0  0  0  0  0  # atno 17342 bound_to 10162
  140.4337  143.2557  151.9563 LP  0  0  0  0  0  0  0  0  0  0  0  0  # atno 17343 bound_to 10162
  157.6519  131.0895  150.8031 LP  0  0  0  0  0  0  0  0  0  0  0  0  # atno 17370 bound_to 10713
  156.8113  130.4953  149.5355 LP  0  0  0  0  0  0  0  0  0  0  0  0  # atno 17371 bound_to 10713
  140.8281  134.3210  157.5358 LP  0  0  0  0  0  0  0  0  0  0  0  0  # atno 17394 bound_to 11000
  139.8736  134.9348  156.3616 LP  0  0  0  0  0  0  0  0  0  0  0  0  # atno 17395 bound_to 11000

$$$$
