AV-unprocessed.smi:2078|AV-procd|sdf|8465|dock7
  -GOLD-   2272011163D 1   1.00000     0.00000
 Structure written by MMmdl.
 42 43  0  0  0  0  0  0  0  0  2 V2000
  137.2055  137.3256  154.2579 C   0  0  0  0  0  0  0  0  0  0  0  0
  138.5274  137.9377  153.9442 C   0  0  0  0  0  0  0  0  0  0  0  0
  139.7285  137.4130  153.5569 C   0  0  0  0  0  0  0  0  0  0  0  0
  140.5522  138.5628  153.4276 C   0  0  0  0  0  0  0  0  0  0  0  0
  141.9072  138.4484  153.0239 N   0  0  0  0  0  0  0  0  0  0  0  0
  142.6298  137.3215  152.9044 C   0  0  0  0  0  0  0  0  0  0  0  0
  142.2045  136.1813  153.0934 O   0  0  0  0  0  0  0  0  0  0  0  0
  143.8967  137.5840  152.5516 N   0  0  0  0  0  0  0  0  0  0  0  0
  144.9245  136.5698  152.3462 C   0  0  0  0  0  0  0  0  0  0  0  0
  145.2031  136.3393  150.8476 C   0  0  0  0  0  0  0  0  0  0  0  0
  145.1906  134.8996  150.4875 N   0  3  1  0  0  0  0  0  0  0  0  0
  146.3107  134.1520  151.1148 C   0  0  0  0  0  0  0  0  0  0  0  0
  146.3649  132.7034  150.6041 C   0  0  0  0  0  0  0  0  0  0  0  0
  145.0260  131.9866  150.8311 C   0  0  0  0  0  0  0  0  0  0  0  0
  143.8532  132.7904  150.2394 C   0  0  2  0  0  0  0  0  0  0  0  0
  143.7939  132.7193  148.7033 C   0  0  0  0  0  0  0  0  0  0  0  0
  143.8809  134.2441  150.7544 C   0  0  0  0  0  0  0  0  0  0  0  0
  139.9128  139.6867  153.7129 N   0  0  0  0  0  0  0  0  0  0  0  0
  138.6119  139.2918  154.0460 O   0  0  0  0  0  0  0  0  0  0  0  0
  137.2426  136.2412  154.1528 H   0  0  0  0  0  0  0  0  0  0  0  0
  136.4360  137.7040  153.5848 H   0  0  0  0  0  0  0  0  0  0  0  0
  136.9050  137.5567  155.2799 H   0  0  0  0  0  0  0  0  0  0  0  0
  139.9734  136.3745  153.3908 H   0  0  0  0  0  0  0  0  0  0  0  0
  142.3800  139.3179  152.8258 H   0  0  0  0  0  0  0  0  0  0  0  0
  144.1655  138.5471  152.4101 H   0  0  0  0  0  0  0  0  0  0  0  0
  145.8260  136.8667  152.8829 H   0  0  0  0  0  0  0  0  0  0  0  0
  144.5828  135.6423  152.8062 H   0  0  0  0  0  0  0  0  0  0  0  0
  144.4319  136.8623  150.2802 H   0  0  0  0  0  0  0  0  0  0  0  0
  146.1549  136.7793  150.5462 H   0  0  0  0  0  0  0  0  0  0  0  0
  147.2578  134.6433  150.8884 H   0  0  0  0  0  0  0  0  0  0  0  0
  146.1971  134.1667  152.2000 H   0  0  0  0  0  0  0  0  0  0  0  0
  146.6165  132.6966  149.5432 H   0  0  0  0  0  0  0  0  0  0  0  0
  147.1643  132.1620  151.1107 H   0  0  0  0  0  0  0  0  0  0  0  0
  145.0555  130.9823  150.4070 H   0  0  0  0  0  0  0  0  0  0  0  0
  144.8682  131.8602  151.9030 H   0  0  0  0  0  0  0  0  0  0  0  0
  142.9317  132.3332  150.6023 H   0  0  0  0  0  0  0  0  0  0  0  0
  144.6695  133.1736  148.2397 H   0  0  0  0  0  0  0  0  0  0  0  0
  142.9141  133.2389  148.3225 H   0  0  0  0  0  0  0  0  0  0  0  0
  143.7358  131.6856  148.3611 H   0  0  0  0  0  0  0  0  0  0  0  0
  143.6908  134.2563  151.8290 H   0  0  0  0  0  0  0  0  0  0  0  0
  143.0674  134.8039  150.2943 H   0  0  0  0  0  0  0  0  0  0  0  0
  145.3462  134.8532  149.4906 H   0  0  0  0  0  0  0  0  0  0  0  0
  1  2  1  0  0  0  0
  1 20  1  0  0  0  0
  1 21  1  0  0  0  0
  1 22  1  0  0  0  0
  2 19  1  0  0  0  0
  2  3  2  0  0  0  0
  3  4  1  0  0  0  0
  3 23  1  0  0  0  0
  4  5  1  0  0  0  0
  4 18  2  0  0  0  0
  5  6  1  0  0  0  0
  5 24  1  0  0  0  0
  6  7  2  0  0  0  0
  6  8  1  0  0  0  0
  8  9  1  0  0  0  0
  8 25  1  0  0  0  0
  9 10  1  0  0  0  0
  9 26  1  0  0  0  0
  9 27  1  0  0  0  0
 10 11  1  0  0  0  0
 10 28  1  0  0  0  0
 10 29  1  0  0  0  0
 11 17  1  0  0  0  0
 11 12  1  0  0  0  0
 11 42  1  0  0  0  0
 12 13  1  0  0  0  0
 12 30  1  0  0  0  0
 12 31  1  0  0  0  0
 13 14  1  0  0  0  0
 13 32  1  0  0  0  0
 13 33  1  0  0  0  0
 14 15  1  0  0  0  0
 14 34  1  0  0  0  0
 14 35  1  0  0  0  0
 15 16  1  0  0  0  0
 15 17  1  0  0  0  0
 15 36  1  0  0  0  0
 16 37  1  0  0  0  0
 16 38  1  0  0  0  0
 16 39  1  0  0  0  0
 17 40  1  0  0  0  0
 17 41  1  0  0  0  0
 18 19  1  0  0  0  0
M  CHG  1  11   1
M  END
> <s_m_source_file>
AV-unprocessed.smi

> <i_m_source_file_index>
2078

> <i_lp_mmshare_version>
43012

> <i_f3d_flags>
0

> <s_epik_input>
W0NIM11jMVtjSF1jKG5vMSlbTkhdQyg9TylbTkhdW0NIMl1bQ0gyXU4yW0NIMl1bQ0gyXVtDSDJdW0NAQEhdKFtDSDNdKVtDSDJdMg==

> <s_epik_cmdline>
J2VwaWtfcHl0aG9uJywgJy1waCcsICc3LjAnLCAnLXRuJywgJzgnLCAnLW1hJywgJzIwMCcsICctbWV0YWxfYmluZGluZycsICctaW1hZScsICc8aW5maWxlLm1hZT4nLCAnLW9tYWUnLCAnPG91dGZpbGUubWFlPic=

> <r_epik_Ionization_Penalty>
0.00216453

> <r_epik_Ionization_Penalty_Charging>
0.00212879

> <r_epik_Ionization_Penalty_Neutral>
3.57418e-05

> <r_epik_State_Penalty>
0.00146033

> <r_epik_Charging_Adjusted_Penalty>
0.00358912

> <i_epik_Tot_Q>
1

> <i_epik_Tot_abs_Q>
1

> <r_epik_Metal_State_Penalty>
0.0215827

> <b_epik_Metal_Only>
0

> <s_lp_Force_Field>
OPLS_2005

> <r_lp_Energy>
15.3695

> <b_lp_Chiralities_Consistent>
1

> <s_lp_Variant>
AV-unprocessed.smi:2078-3

> <Gold.Version>
5.8.1

> <Gold.Id.Protein>
6NUR|6NUR_protein|mol2

> <Gold.PLP.Fitness>
44.9522

> <Gold.PLP.PLP>
-37.0143

> <Gold.PLP.part.hbond>
-4.0000

> <Gold.PLP.part.metal>
0.0000

> <Gold.PLP.part.buried>
-3.9549

> <Gold.PLP.part.nonpolar>
-30.3451

> <Gold.PLP.part.repulsive>
0.6616

> <Gold.PLP.ligand.clash>
0.0000

> <Gold.PLP.ligand.torsion>
0.4791

> <Gold.PLP.Chemscore.Hbond>
2.9600

> <Gold.PLP.Chemscore.CHOScore>
0.0000

> <Gold.PLP.Chemscore.Metal>
0.0000

> <Gold.Chemscore.Hbonds>
donor molecule, donor type, donor heavy atom, donor atom, acceptor molecule, acceptor atom, score
      L1  H     5    24       P1 10175  1.00
      L1  H     8    25       P1 10175  0.96
      L1  H    11    42       P1  7921  1.00

> <Gold.PLP.Chemscore.Internal.Correction>
0.0162

> <Gold.Rescore>
     Score         DG    S(hbond)    S(metal)    S(lipo)     H(rot)  DE(clash)    DE(int)     intcor
     18.35     -21.92       2.92        0.00      91.57       1.57       1.69       1.88       ----

> <Gold.Chemscore.Fitness>
18.3480

> <Gold.Chemscore.DG>
-21.9165

> <Gold.Chemscore.ZeroCoef>
-5.4800

> <Gold.Chemscore.Hbond>
2.9167

> <Gold.Chemscore.Metal>
0.0000

> <Gold.Chemscore.Lipo>
91.5664

> <Gold.Chemscore.Internal_Hbond>
0.0000

> <Gold.Chemscore.DEClash>
1.6911

> <Gold.Chemscore.DEInternal>
1.8774

> <Gold.Chemscore.Rot>
1.5697

> <Gold.Chemscore.Internal.Correction>
   9.000000E+99

> <Gold.Chemscore.Hbonds>
donor molecule, donor type, donor heavy atom, donor atom, acceptor molecule, acceptor atom, score
      L1  H     5    24       P1 10175  0.97
      L1  H     8    25       P1 10175  0.91
      L1  H    11    42       P1  7921  0.94

> <Gold.Chemscore.Hbond.Weighted>
-9.7418

> <Gold.Chemscore.Metal.Weighted>
-0.0000

> <Gold.Chemscore.Lipo.Weighted>
-10.7133

> <Gold.Chemscore.Internal_Hbond.Weighted>
0.0000

> <Gold.Chemscore.DEClash.Weighted>
1.6911

> <Gold.Chemscore.DEInternal.Weighted>
1.8774

> <Gold.Chemscore.Rot.Weighted>
4.0185

> <Gold.Chemscore.Internal.Correction.Weighted>
   9.000000E+99

> <Gold.Protein.RotatedTorsions>
[ 6907 6896 6895 6894 ] final    0.03 input  -60.11 | X-H torsion
[ 7974 7965 7964 7962 ] final  143.50 input  175.53 | X-H torsion
[ 8008 7997 7996 7995 ] final  -71.95 input   59.86 | X-H torsion
[ 10167 10162 10161 10158 ] final   32.70 input  -65.29 | X-H torsion
[ 10718 10713 10712 10709 ] final   24.87 input   66.30 | X-H torsion
[ 10763 10752 10751 10750 ] final  123.86 input  -60.55 | X-H torsion
[ 11005 11000 10999 10996 ] final  140.03 input  -57.11 | X-H torsion

> <Gold.Protein.ActiveResidues>
 VAL166  LYS551  ARG553  GLY616  TRP617  ASP618  TYR619  PRO620  LYS621  CYS622 
 ASP623  PHE694  ASN695  SER759  ASP760  ASP761  ALA762  ILE779  LEU786  VAL792 
 PHE793  MET794  SER795  GLU796  ALA797  LYS798  CYS799  TRP800  GLU811  SER814 

> <Gold.Protein.RotatedAtoms>
  151.5698  135.1063  159.9992 H   0  0  0  0  0  0  0  0  0  0  0  0  # atno 6907 bound_to 6896
  152.4406  133.7437  159.6666 H   0  0  0  0  0  0  0  0  0  0  0  0  # atno 6908 bound_to 6896
  150.8311  133.8020  159.3121 H   0  0  0  0  0  0  0  0  0  0  0  0  # atno 6909 bound_to 6896
  144.8915  139.5551  143.5796 H   0  0  0  0  0  0  0  0  0  0  0  0  # atno 7974 bound_to 7965
  154.5128  140.0806  156.8023 H   0  0  0  0  0  0  0  0  0  0  0  0  # atno 8008 bound_to 7997
  155.3747  140.3425  155.4226 H   0  0  0  0  0  0  0  0  0  0  0  0  # atno 8009 bound_to 7997
  156.1593  140.1583  156.8627 H   0  0  0  0  0  0  0  0  0  0  0  0  # atno 8010 bound_to 7997
  140.4474  144.1098  150.6185 H   0  0  0  0  0  0  0  0  0  0  0  0  # atno 10167 bound_to 10162
  157.1857  130.6823  149.6130 H   0  0  0  0  0  0  0  0  0  0  0  0  # atno 10718 bound_to 10713
  153.6522  135.3361  155.3103 H   0  0  0  0  0  0  0  0  0  0  0  0  # atno 10763 bound_to 10752
  154.8535  135.4344  154.1892 H   0  0  0  0  0  0  0  0  0  0  0  0  # atno 10764 bound_to 10752
  153.2837  135.7011  153.7435 H   0  0  0  0  0  0  0  0  0  0  0  0  # atno 10765 bound_to 10752
  140.0297  134.9358  157.0638 H   0  0  0  0  0  0  0  0  0  0  0  0  # atno 11005 bound_to 11000
  146.3057  139.7571  142.9058 LP  0  0  0  0  0  0  0  0  0  0  0  0  # atno 17320 bound_to 7965
  145.3774  141.0353  143.3197 LP  0  0  0  0  0  0  0  0  0  0  0  0  # atno 17321 bound_to 7965
  140.4247  143.2595  151.9671 LP  0  0  0  0  0  0  0  0  0  0  0  0  # atno 17342 bound_to 10162
  139.4794  144.5799  151.7950 LP  0  0  0  0  0  0  0  0  0  0  0  0  # atno 17343 bound_to 10162
  155.9718  130.4632  150.6172 LP  0  0  0  0  0  0  0  0  0  0  0  0  # atno 17370 bound_to 10713
  157.3910  131.0795  151.1394 LP  0  0  0  0  0  0  0  0  0  0  0  0  # atno 17371 bound_to 10713
  140.4246  134.1844  155.7165 LP  0  0  0  0  0  0  0  0  0  0  0  0  # atno 17394 bound_to 11000
  141.1824  133.8386  157.1211 LP  0  0  0  0  0  0  0  0  0  0  0  0  # atno 17395 bound_to 11000

$$$$
