AV-unprocessed.smi:556|AV-procd|sdf|2913|dock3
  -GOLD-   2262023403D 1   1.00000     0.00000
 Structure written by MMmdl.
 38 39  0  0  0  0  0  0  0  0  1 V2000
  151.9776  145.6571  160.0588 C   0  0  0  0  0  0  0  0  0  0  0  0
  151.2838  144.3288  160.4062 C   0  0  1  0  0  0  0  0  0  0  0  0
  149.9251  144.1463  159.6972 C   0  0  0  0  0  0  0  0  0  0  0  0
  150.0985  143.8422  158.3219 O   0  0  0  0  0  0  0  0  0  0  0  0
  150.8162  142.6319  158.1422 C   0  0  0  0  0  0  0  0  0  0  0  0
  152.2286  142.7928  158.7205 C   0  0  0  0  0  0  0  0  0  0  0  0
  152.1781  143.1778  160.1414 N   0  0  0  0  0  0  0  0  0  0  0  0
  152.9465  142.5417  161.0653 C   0  0  0  0  0  0  0  0  0  0  0  0
  153.5283  141.4781  160.8455 O   0  0  0  0  0  0  0  0  0  0  0  0
  153.0533  143.1736  162.2474 N   0  0  0  0  0  0  0  0  0  0  0  0
  153.8308  142.7045  163.3881 C   0  0  0  0  0  0  0  0  0  0  0  0
  154.3200  143.8717  164.2609 C   0  0  0  0  0  0  0  0  0  0  0  0
  154.9861  143.3773  165.5141 C   0  0  0  0  0  0  0  0  0  0  0  0
  155.4845  144.1483  166.6027 C   0  0  0  0  0  0  0  0  0  0  0  0
  156.0247  143.4053  167.5549 N   0  0  0  0  0  0  0  0  0  0  0  0
  155.8878  142.1389  167.1109 N   0  0  0  0  0  0  0  0  0  0  0  0
  156.3830  141.0428  167.9159 C   0  0  0  0  0  0  0  0  0  0  0  0
  155.2641  142.0911  165.8829 C   0  0  0  0  0  0  0  0  0  0  0  0
  151.3468  146.5065  160.3214 H   0  0  0  0  0  0  0  0  0  0  0  0
  152.1981  145.7302  158.9937 H   0  0  0  0  0  0  0  0  0  0  0  0
  152.9164  145.7649  160.6027 H   0  0  0  0  0  0  0  0  0  0  0  0
  151.0266  144.3874  161.4638 H   0  0  0  0  0  0  0  0  0  0  0  0
  149.3541  143.3480  160.1743 H   0  0  0  0  0  0  0  0  0  0  0  0
  149.3241  145.0512  159.7873 H   0  0  0  0  0  0  0  0  0  0  0  0
  150.2895  141.8005  158.6139 H   0  0  0  0  0  0  0  0  0  0  0  0
  150.8710  142.4109  157.0762 H   0  0  0  0  0  0  0  0  0  0  0  0
  152.7740  141.8636  158.5506 H   0  0  0  0  0  0  0  0  0  0  0  0
  152.7702  143.5608  158.1678 H   0  0  0  0  0  0  0  0  0  0  0  0
  152.5614  144.0480  162.3607 H   0  0  0  0  0  0  0  0  0  0  0  0
  153.2396  142.0033  163.9797 H   0  0  0  0  0  0  0  0  0  0  0  0
  154.6846  142.1448  163.0050 H   0  0  0  0  0  0  0  0  0  0  0  0
  155.0068  144.4905  163.6822 H   0  0  0  0  0  0  0  0  0  0  0  0
  153.4788  144.5189  164.5117 H   0  0  0  0  0  0  0  0  0  0  0  0
  155.4722  145.2211  166.7266 H   0  0  0  0  0  0  0  0  0  0  0  0
  156.0174  140.0944  167.5211 H   0  0  0  0  0  0  0  0  0  0  0  0
  156.0403  141.1521  168.9454 H   0  0  0  0  0  0  0  0  0  0  0  0
  157.4732  141.0380  167.8990 H   0  0  0  0  0  0  0  0  0  0  0  0
  155.0738  141.1569  165.3752 H   0  0  0  0  0  0  0  0  0  0  0  0
  1  2  1  0  0  0  0
  1 19  1  0  0  0  0
  1 20  1  0  0  0  0
  1 21  1  0  0  0  0
  2  7  1  0  0  0  0
  2  3  1  0  0  0  0
  2 22  1  0  0  0  0
  3  4  1  0  0  0  0
  3 23  1  0  0  0  0
  3 24  1  0  0  0  0
  4  5  1  0  0  0  0
  5  6  1  0  0  0  0
  5 25  1  0  0  0  0
  5 26  1  0  0  0  0
  6  7  1  0  0  0  0
  6 27  1  0  0  0  0
  6 28  1  0  0  0  0
  7  8  1  0  0  0  0
  8  9  2  0  0  0  0
  8 10  1  0  0  0  0
 10 11  1  0  0  0  0
 10 29  1  0  0  0  0
 11 12  1  0  0  0  0
 11 30  1  0  0  0  0
 11 31  1  0  0  0  0
 12 13  1  0  0  0  0
 12 32  1  0  0  0  0
 12 33  1  0  0  0  0
 13 18  2  0  0  0  0
 13 14  1  0  0  0  0
 14 15  2  0  0  0  0
 14 34  1  0  0  0  0
 15 16  1  0  0  0  0
 16 17  1  0  0  0  0
 16 18  1  0  0  0  0
 17 35  1  0  0  0  0
 17 36  1  0  0  0  0
 17 37  1  0  0  0  0
 18 38  1  0  0  0  0
M  END
> <s_m_source_file>
AV-unprocessed.smi

> <i_m_source_file_index>
556

> <i_lp_mmshare_version>
43012

> <i_f3d_flags>
0

> <s_epik_input>
W0NIM11bQ0BASF0xW0NIMl1PW0NIMl1bQ0gyXU4xQyg9TylbTkhdW0NIMl1bQ0gyXWMyW2NIXW5uKFtDSDNdKVtjSF0y

> <s_epik_cmdline>
J2VwaWtfcHl0aG9uJywgJy1waCcsICc3LjAnLCAnLXRuJywgJzgnLCAnLW1hJywgJzIwMCcsICctbWV0YWxfYmluZGluZycsICctaW1hZScsICc8aW5maWxlLm1hZT4nLCAnLW9tYWUnLCAnPG91dGZpbGUubWFlPic=

> <r_lp_tautomer_probability>
1

> <r_epik_Ionization_Penalty>
0.000536334

> <r_epik_Ionization_Penalty_Charging>
0

> <r_epik_Ionization_Penalty_Neutral>
0.000536334

> <r_epik_State_Penalty>
-0

> <r_epik_Charging_Adjusted_Penalty>
0

> <i_epik_Tot_Q>
0

> <i_epik_Tot_abs_Q>
0

> <r_epik_Metal_State_Penalty>
-0

> <b_epik_Metal_Only>
0

> <s_lp_Force_Field>
OPLS_2005

> <r_lp_Energy>
28.9332

> <b_lp_Chiralities_Consistent>
1

> <s_lp_Variant>
AV-unprocessed.smi:556-2

> <Gold.Version>
5.8.1

> <Gold.Id.Protein>
6NUR|6NUR_protein|mol2

> <Gold.PLP.Fitness>
41.1251

> <Gold.PLP.PLP>
-41.6896

> <Gold.PLP.part.hbond>
0.0000

> <Gold.PLP.part.metal>
0.0000

> <Gold.PLP.part.buried>
-6.7634

> <Gold.PLP.part.nonpolar>
-35.5367

> <Gold.PLP.part.repulsive>
0.9731

> <Gold.PLP.ligand.clash>
0.0000

> <Gold.PLP.ligand.torsion>
0.2925

> <Gold.PLP.Chemscore.Hbond>
0.0000

> <Gold.PLP.Chemscore.CHOScore>
0.0000

> <Gold.PLP.Chemscore.Metal>
0.0000

> <Gold.PLP.Chemscore.Internal.Correction>
0.0205

> <Gold.Rescore>
     Score         DG    S(hbond)    S(metal)    S(lipo)     H(rot)  DE(clash)    DE(int)     intcor
     13.30     -13.59       0.00        0.00      99.98       1.40       0.11       0.18       ----

> <Gold.Chemscore.Fitness>
13.3021

> <Gold.Chemscore.DG>
-13.5939

> <Gold.Chemscore.ZeroCoef>
-5.4800

> <Gold.Chemscore.Hbond>
0.0000

> <Gold.Chemscore.Metal>
0.0000

> <Gold.Chemscore.Lipo>
99.9840

> <Gold.Chemscore.Internal_Hbond>
0.0000

> <Gold.Chemscore.DEClash>
0.1139

> <Gold.Chemscore.DEInternal>
0.1779

> <Gold.Chemscore.Rot>
1.4001

> <Gold.Chemscore.Internal.Correction>
   9.000000E+99

> <Gold.Chemscore.Hbond.Weighted>
-0.0000

> <Gold.Chemscore.Metal.Weighted>
-0.0000

> <Gold.Chemscore.Lipo.Weighted>
-11.6981

> <Gold.Chemscore.Internal_Hbond.Weighted>
0.0000

> <Gold.Chemscore.DEClash.Weighted>
0.1139

> <Gold.Chemscore.DEInternal.Weighted>
0.1779

> <Gold.Chemscore.Rot.Weighted>
3.5842

> <Gold.Chemscore.Internal.Correction.Weighted>
   9.000000E+99

> <Gold.Protein.RotatedTorsions>
[ 6907 6896 6895 6894 ] final  -54.35 input  -60.11 | X-H torsion
[ 7974 7965 7964 7962 ] final  -63.16 input  175.53 | X-H torsion
[ 8008 7997 7996 7995 ] final -105.29 input   59.86 | X-H torsion
[ 10167 10162 10161 10158 ] final  -56.91 input  -65.29 | X-H torsion
[ 10718 10713 10712 10709 ] final   19.33 input   66.30 | X-H torsion
[ 10763 10752 10751 10750 ] final   -4.19 input  -60.55 | X-H torsion
[ 11005 11000 10999 10996 ] final  -39.68 input  -57.11 | X-H torsion

> <Gold.Protein.ActiveResidues>
 VAL166  LYS551  ARG553  GLY616  TRP617  ASP618  TYR619  PRO620  LYS621  CYS622 
 ASP623  PHE694  ASN695  SER759  ASP760  ASP761  ALA762  ILE779  LEU786  VAL792 
 PHE793  MET794  SER795  GLU796  ALA797  LYS798  CYS799  TRP800  GLU811  SER814 

> <Gold.Protein.RotatedAtoms>
  150.8345  134.7613  159.6881 H   0  0  0  0  0  0  0  0  0  0  0  0  # atno 6907 bound_to 6896
  152.4444  134.5521  159.9879 H   0  0  0  0  0  0  0  0  0  0  0  0  # atno 6908 bound_to 6896
  151.5674  133.3357  159.3019 H   0  0  0  0  0  0  0  0  0  0  0  0  # atno 6909 bound_to 6896
  145.7824  140.8754  143.0323 H   0  0  0  0  0  0  0  0  0  0  0  0  # atno 7974 bound_to 7965
  154.8977  140.0414  157.1875 H   0  0  0  0  0  0  0  0  0  0  0  0  # atno 8008 bound_to 7997
  154.8476  140.2924  155.5598 H   0  0  0  0  0  0  0  0  0  0  0  0  # atno 8009 bound_to 7997
  156.2995  140.2471  156.3429 H   0  0  0  0  0  0  0  0  0  0  0  0  # atno 8010 bound_to 7997
  140.6289  143.2450  151.5291 H   0  0  0  0  0  0  0  0  0  0  0  0  # atno 10167 bound_to 10162
  157.1089  130.6500  149.5892 H   0  0  0  0  0  0  0  0  0  0  0  0  # atno 10718 bound_to 10713
  153.3815  135.6998  153.6561 H   0  0  0  0  0  0  0  0  0  0  0  0  # atno 10763 bound_to 10752
  153.5171  135.3620  155.2615 H   0  0  0  0  0  0  0  0  0  0  0  0  # atno 10764 bound_to 10752
  154.8693  135.4149  154.3114 H   0  0  0  0  0  0  0  0  0  0  0  0  # atno 10765 bound_to 10752
  141.0120  133.6903  156.2220 H   0  0  0  0  0  0  0  0  0  0  0  0  # atno 11005 bound_to 11000
  144.6794  140.0008  143.7484 LP  0  0  0  0  0  0  0  0  0  0  0  0  # atno 17320 bound_to 7965
  146.0060  139.3130  143.0899 LP  0  0  0  0  0  0  0  0  0  0  0  0  # atno 17321 bound_to 7965
  139.5506  144.2406  152.1523 LP  0  0  0  0  0  0  0  0  0  0  0  0  # atno 17342 bound_to 10162
  140.1644  144.4995  150.6614 LP  0  0  0  0  0  0  0  0  0  0  0  0  # atno 17343 bound_to 10162
  155.9855  130.4885  150.7035 LP  0  0  0  0  0  0  0  0  0  0  0  0  # atno 17370 bound_to 10713
  157.4576  131.0879  151.0780 LP  0  0  0  0  0  0  0  0  0  0  0  0  # atno 17371 bound_to 10713
  140.6718  134.4860  157.5587 LP  0  0  0  0  0  0  0  0  0  0  0  0  # atno 17394 bound_to 11000
  139.9095  134.8376  156.1580 LP  0  0  0  0  0  0  0  0  0  0  0  0  # atno 17395 bound_to 11000

$$$$
