AV-unprocessed.smi:2025|AV-procd|sdf|8198|dock2
  -GOLD-   2272010453D 1   1.00000     0.00000
 Structure written by MMmdl.
 39 40  0  0  0  0  0  0  0  0  1 V2000
  151.9011  138.6485  155.0179 C   0  0  0  0  0  0  0  0  0  0  0  0
  151.2799  139.4587  156.1649 C   0  0  1  0  0  0  0  0  0  0  0  0
  152.3469  139.8921  157.0654 N   0  0  0  0  0  0  0  0  0  0  0  0
  152.3981  139.6785  158.3893 C   0  0  0  0  0  0  0  0  0  0  0  0
  151.5149  139.0936  159.0176 O   0  0  0  0  0  0  0  0  0  0  0  0
  153.6286  140.2417  159.1127 C   0  0  0  0  0  0  0  0  0  0  0  0
  153.3042  141.3594  160.0082 N   0  0  0  0  0  0  0  0  0  0  0  0
  153.7143  141.3219  161.3284 C   0  0  0  0  0  0  0  0  0  0  0  0
  153.4738  142.3156  162.2112 C   0  0  0  0  0  0  0  0  0  0  0  0
  152.7451  143.5131  161.8108 C   0  0  0  0  0  0  0  0  0  0  0  0
  152.5225  144.4507  162.5774 O   0  0  0  0  0  0  0  0  0  0  0  0
  152.3229  143.5184  160.4597 N   0  0  0  0  0  0  0  0  0  0  0  0
  151.6061  144.6756  159.9647 C   0  0  0  0  0  0  0  0  0  0  0  0
  152.5939  142.4841  159.5364 C   0  0  0  0  0  0  0  0  0  0  0  0
  152.2356  142.5510  158.3579 O   0  0  0  0  0  0  0  0  0  0  0  0
  150.4857  140.6751  155.6468 C   0  0  2  0  0  0  0  0  0  0  0  0
  149.1772  140.9552  156.3886 C   0  0  0  0  0  0  0  0  0  0  0  0
  148.4057  141.7459  155.3577 C   0  0  0  0  0  0  0  0  0  0  0  0
  148.7979  141.0402  154.0628 C   0  0  0  0  0  0  0  0  0  0  0  0
  150.0860  140.4738  154.2931 O   0  0  0  0  0  0  0  0  0  0  0  0
  151.1337  138.2695  154.3424 H   0  0  0  0  0  0  0  0  0  0  0  0
  152.4528  137.7888  155.3998 H   0  0  0  0  0  0  0  0  0  0  0  0
  152.5918  139.2539  154.4302 H   0  0  0  0  0  0  0  0  0  0  0  0
  150.5903  138.7998  156.6950 H   0  0  0  0  0  0  0  0  0  0  0  0
  153.1166  140.3903  156.6424 H   0  0  0  0  0  0  0  0  0  0  0  0
  154.1287  139.4482  159.6708 H   0  0  0  0  0  0  0  0  0  0  0  0
  154.3456  140.5663  158.3577 H   0  0  0  0  0  0  0  0  0  0  0  0
  154.2626  140.4572  161.6729 H   0  0  0  0  0  0  0  0  0  0  0  0
  153.8284  142.2251  163.2275 H   0  0  0  0  0  0  0  0  0  0  0  0
  150.8160  144.3363  159.2929 H   0  0  0  0  0  0  0  0  0  0  0  0
  152.3337  145.2995  159.4439 H   0  0  0  0  0  0  0  0  0  0  0  0
  151.1401  145.2159  160.7890 H   0  0  0  0  0  0  0  0  0  0  0  0
  151.1084  141.5708  155.6784 H   0  0  0  0  0  0  0  0  0  0  0  0
  148.6545  140.0240  156.6124 H   0  0  0  0  0  0  0  0  0  0  0  0
  149.3230  141.4996  157.3221 H   0  0  0  0  0  0  0  0  0  0  0  0
  147.3297  141.7485  155.5334 H   0  0  0  0  0  0  0  0  0  0  0  0
  148.7533  142.7796  155.3438 H   0  0  0  0  0  0  0  0  0  0  0  0
  148.1006  140.2315  153.8413 H   0  0  0  0  0  0  0  0  0  0  0  0
  148.8099  141.7198  153.2107 H   0  0  0  0  0  0  0  0  0  0  0  0
  1  2  1  0  0  0  0
  1 21  1  0  0  0  0
  1 22  1  0  0  0  0
  1 23  1  0  0  0  0
  2  3  1  0  0  0  0
  2 16  1  0  0  0  0
  2 24  1  0  0  0  0
  3  4  1  0  0  0  0
  3 25  1  0  0  0  0
  4  5  2  0  0  0  0
  4  6  1  0  0  0  0
  6  7  1  0  0  0  0
  6 26  1  0  0  0  0
  6 27  1  0  0  0  0
  7 14  1  0  0  0  0
  7  8  1  0  0  0  0
  8  9  2  0  0  0  0
  8 28  1  0  0  0  0
  9 10  1  0  0  0  0
  9 29  1  0  0  0  0
 10 11  2  0  0  0  0
 10 12  1  0  0  0  0
 12 13  1  0  0  0  0
 12 14  1  0  0  0  0
 13 30  1  0  0  0  0
 13 31  1  0  0  0  0
 13 32  1  0  0  0  0
 14 15  2  0  0  0  0
 16 20  1  0  0  0  0
 16 17  1  0  0  0  0
 16 33  1  0  0  0  0
 17 18  1  0  0  0  0
 17 34  1  0  0  0  0
 17 35  1  0  0  0  0
 18 19  1  0  0  0  0
 18 36  1  0  0  0  0
 18 37  1  0  0  0  0
 19 20  1  0  0  0  0
 19 38  1  0  0  0  0
 19 39  1  0  0  0  0
M  END
> <s_m_source_file>
AV-unprocessed.smi

> <i_m_source_file_index>
2025

> <i_lp_mmshare_version>
43012

> <i_f3d_flags>
0

> <s_epik_input>
TzFbQ0gyXVtDSDJdW0NIMl1bQ0BIXTFbQ0BIXShbQ0gzXSlbTkhdQyg9TylbQ0gyXW4yW2NIXVtjSF1jKD1PKW4oW0NIM10pYzI9Tw==

> <s_epik_cmdline>
J2VwaWtfcHl0aG9uJywgJy1waCcsICc3LjAnLCAnLXRuJywgJzgnLCAnLW1hJywgJzIwMCcsICctbWV0YWxfYmluZGluZycsICctaW1hZScsICc8aW5maWxlLm1hZT4nLCAnLW9tYWUnLCAnPG91dGZpbGUubWFlPic=

> <r_lp_tautomer_probability>
1

> <r_epik_Ionization_Penalty>
3.54787e-08

> <r_epik_Ionization_Penalty_Charging>
1.24654e-08

> <r_epik_Ionization_Penalty_Neutral>
2.30132e-08

> <r_epik_State_Penalty>
-0

> <r_epik_Charging_Adjusted_Penalty>
1.24654e-08

> <i_epik_Tot_Q>
0

> <i_epik_Tot_abs_Q>
0

> <r_epik_Metal_State_Penalty>
-0

> <b_epik_Metal_Only>
0

> <s_lp_Force_Field>
OPLS_2005

> <r_lp_Energy>
25.7305

> <b_lp_Chiralities_Consistent>
1

> <s_lp_Variant>
AV-unprocessed.smi:2025-2

> <Gold.Version>
5.8.1

> <Gold.Id.Protein>
6NUR|6NUR_protein|mol2

> <Gold.PLP.Fitness>
41.5100

> <Gold.PLP.PLP>
-41.3333

> <Gold.PLP.part.hbond>
-1.0000

> <Gold.PLP.part.metal>
0.0000

> <Gold.PLP.part.buried>
-3.5906

> <Gold.PLP.part.nonpolar>
-38.9360

> <Gold.PLP.part.repulsive>
2.3976

> <Gold.PLP.ligand.clash>
0.0000

> <Gold.PLP.ligand.torsion>
1.2169

> <Gold.PLP.Chemscore.Hbond>
0.8640

> <Gold.PLP.Chemscore.CHOScore>
0.0000

> <Gold.PLP.Chemscore.Metal>
0.0000

> <Gold.Chemscore.Hbonds>
donor molecule, donor type, donor heavy atom, donor atom, acceptor molecule, acceptor atom, score
      P1  H  7989  7998       L1    20  0.81

> <Gold.PLP.Chemscore.Internal.Correction>
0.0185

> <Gold.Rescore>
     Score         DG    S(hbond)    S(metal)    S(lipo)     H(rot)  DE(clash)    DE(int)     intcor
      7.50     -12.17       0.75        0.00      75.70       1.82       0.69       3.98       ----

> <Gold.Chemscore.Fitness>
7.4990

> <Gold.Chemscore.DG>
-12.1723

> <Gold.Chemscore.ZeroCoef>
-5.4800

> <Gold.Chemscore.Hbond>
0.7489

> <Gold.Chemscore.Metal>
0.0000

> <Gold.Chemscore.Lipo>
75.7041

> <Gold.Chemscore.Internal_Hbond>
0.0000

> <Gold.Chemscore.DEClash>
0.6907

> <Gold.Chemscore.DEInternal>
3.9827

> <Gold.Chemscore.Rot>
1.8228

> <Gold.Chemscore.Internal.Correction>
   9.000000E+99

> <Gold.Chemscore.Hbonds>
donor molecule, donor type, donor heavy atom, donor atom, acceptor molecule, acceptor atom, score
      P1  H  7989  7998       L1    20  0.18

> <Gold.Chemscore.Hbond.Weighted>
-2.5014

> <Gold.Chemscore.Metal.Weighted>
-0.0000

> <Gold.Chemscore.Lipo.Weighted>
-8.8574

> <Gold.Chemscore.Internal_Hbond.Weighted>
0.0000

> <Gold.Chemscore.DEClash.Weighted>
0.6907

> <Gold.Chemscore.DEInternal.Weighted>
3.9827

> <Gold.Chemscore.Rot.Weighted>
4.6665

> <Gold.Chemscore.Internal.Correction.Weighted>
   9.000000E+99

> <Gold.Protein.RotatedTorsions>
[ 6907 6896 6895 6894 ] final   84.61 input  -60.11 | X-H torsion
[ 7974 7965 7964 7962 ] final   68.43 input  175.53 | X-H torsion
[ 8008 7997 7996 7995 ] final -145.40 input   59.86 | X-H torsion
[ 10167 10162 10161 10158 ] final   51.35 input  -65.29 | X-H torsion
[ 10718 10713 10712 10709 ] final   77.58 input   66.30 | X-H torsion
[ 10763 10752 10751 10750 ] final   50.78 input  -60.55 | X-H torsion
[ 11005 11000 10999 10996 ] final -161.56 input  -57.11 | X-H torsion

> <Gold.Protein.ActiveResidues>
 VAL166  LYS551  ARG553  GLY616  TRP617  ASP618  TYR619  PRO620  LYS621  CYS622 
 ASP623  PHE694  ASN695  SER759  ASP760  ASP761  ALA762  ILE779  LEU786  VAL792 
 PHE793  MET794  SER795  GLU796  ALA797  LYS798  CYS799  TRP800  GLU811  SER814 

> <Gold.Protein.RotatedAtoms>
  152.5356  134.2714  159.8972 H   0  0  0  0  0  0  0  0  0  0  0  0  # atno 6907 bound_to 6896
  151.2671  133.4267  159.2627 H   0  0  0  0  0  0  0  0  0  0  0  0  # atno 6908 bound_to 6896
  151.0401  134.9615  159.8213 H   0  0  0  0  0  0  0  0  0  0  0  0  # atno 6909 bound_to 6896
  145.8027  139.2991  143.1145 H   0  0  0  0  0  0  0  0  0  0  0  0  # atno 7974 bound_to 7965
  155.5426  140.0609  157.2867 H   0  0  0  0  0  0  0  0  0  0  0  0  # atno 8008 bound_to 7997
  154.4447  140.1916  156.0650 H   0  0  0  0  0  0  0  0  0  0  0  0  # atno 8009 bound_to 7997
  156.0574  140.3277  155.7425 H   0  0  0  0  0  0  0  0  0  0  0  0  # atno 8010 bound_to 7997
  140.2629  144.3353  150.6313 H   0  0  0  0  0  0  0  0  0  0  0  0  # atno 10167 bound_to 10162
  157.6715  130.9828  150.1662 H   0  0  0  0  0  0  0  0  0  0  0  0  # atno 10718 bound_to 10713
  152.9784  135.5868  154.4307 H   0  0  0  0  0  0  0  0  0  0  0  0  # atno 10763 bound_to 10752
  154.3921  135.2768  155.2150 H   0  0  0  0  0  0  0  0  0  0  0  0  # atno 10764 bound_to 10752
  154.4018  135.6102  153.5956 H   0  0  0  0  0  0  0  0  0  0  0  0  # atno 10765 bound_to 10752
  140.6190  134.4770  157.5222 H   0  0  0  0  0  0  0  0  0  0  0  0  # atno 11005 bound_to 11000
  145.9860  140.8642  143.0090 LP  0  0  0  0  0  0  0  0  0  0  0  0  # atno 17320 bound_to 7965
  144.6767  140.2148  143.7373 LP  0  0  0  0  0  0  0  0  0  0  0  0  # atno 17321 bound_to 7965
  140.5952  143.2167  151.7178 LP  0  0  0  0  0  0  0  0  0  0  0  0  # atno 17342 bound_to 10162
  139.5011  144.3879  152.0310 LP  0  0  0  0  0  0  0  0  0  0  0  0  # atno 17343 bound_to 10162
  156.2427  130.3692  149.8319 LP  0  0  0  0  0  0  0  0  0  0  0  0  # atno 17370 bound_to 10713
  156.6115  130.8588  151.3455 LP  0  0  0  0  0  0  0  0  0  0  0  0  # atno 17371 bound_to 10713
  139.9161  134.8244  156.1362 LP  0  0  0  0  0  0  0  0  0  0  0  0  # atno 17394 bound_to 11000
  141.0755  133.6777  156.2228 LP  0  0  0  0  0  0  0  0  0  0  0  0  # atno 17395 bound_to 11000

$$$$
