AV-unprocessed.smi:3315|AV-procd|sdf|12750|dock4
  -GOLD-   2272019 83D 1   1.00000     0.00000
 Structure written by MMmdl.
 37 38  0  0  0  0  0  0  0  0  1 V2000
  146.0209  138.0895  153.9518 C   0  0  0  0  0  0  0  0  0  0  0  0
  147.2969  138.6742  154.1822 O   0  0  0  0  0  0  0  0  0  0  0  0
  147.4774  140.0405  153.7842 C   0  0  2  0  0  0  0  0  0  0  0  0
  146.8979  140.2733  152.3833 C   0  0  0  0  0  0  0  0  0  0  0  0
  148.9149  140.5013  154.0955 C   0  0  0  0  0  0  0  0  0  0  0  0
  148.4403  140.7622  155.5237 C   0  0  1  0  0  0  0  0  0  0  0  0
  149.0439  141.9532  156.1119 N   0  0  0  0  0  0  0  0  0  0  0  0
  149.8163  141.9446  157.2069 C   0  0  0  0  0  0  0  0  0  0  0  0
  150.0916  140.9208  157.8324 O   0  0  0  0  0  0  0  0  0  0  0  0
  150.2312  143.1839  157.5193 N   0  0  0  0  0  0  0  0  0  0  0  0
  151.0724  143.5885  158.5878 C   0  0  0  0  0  0  0  0  0  0  0  0
  151.7924  144.8156  158.6777 C   0  0  0  0  0  0  0  0  0  0  0  0
  152.4239  144.7070  159.8836 C   0  0  0  0  0  0  0  0  0  0  0  0
  152.1204  143.5242  160.4804 O   0  0  0  0  0  0  0  0  0  0  0  0
  151.2521  142.8139  159.6428 N   0  0  0  0  0  0  0  0  0  0  0  0
  147.0106  140.9622  154.9584 C   0  0  0  0  0  0  0  0  0  0  0  0
  146.6140  142.3999  154.5715 C   0  0  0  0  0  0  0  0  0  0  0  0
  145.8644  140.4344  155.8282 C   0  0  0  0  0  0  0  0  0  0  0  0
  146.0804  137.0192  154.1482 H   0  0  0  0  0  0  0  0  0  0  0  0
  145.6834  138.2177  152.9240 H   0  0  0  0  0  0  0  0  0  0  0  0
  145.2654  138.4973  154.6229 H   0  0  0  0  0  0  0  0  0  0  0  0
  146.9334  141.3245  152.0998 H   0  0  0  0  0  0  0  0  0  0  0  0
  145.8567  139.9549  152.3287 H   0  0  0  0  0  0  0  0  0  0  0  0
  147.4539  139.7350  151.6161 H   0  0  0  0  0  0  0  0  0  0  0  0
  149.6920  139.7422  154.0150 H   0  0  0  0  0  0  0  0  0  0  0  0
  149.1962  141.4069  153.5553 H   0  0  0  0  0  0  0  0  0  0  0  0
  148.5308  139.8685  156.1457 H   0  0  0  0  0  0  0  0  0  0  0  0
  148.8636  142.8349  155.6548 H   0  0  0  0  0  0  0  0  0  0  0  0
  149.9082  143.9289  156.9198 H   0  0  0  0  0  0  0  0  0  0  0  0
  151.8464  145.6445  157.9886 H   0  0  0  0  0  0  0  0  0  0  0  0
  153.0902  145.3564  160.4319 H   0  0  0  0  0  0  0  0  0  0  0  0
  146.4706  143.0290  155.4507 H   0  0  0  0  0  0  0  0  0  0  0  0
  145.6807  142.4188  154.0077 H   0  0  0  0  0  0  0  0  0  0  0  0
  147.3709  142.8850  153.9552 H   0  0  0  0  0  0  0  0  0  0  0  0
  145.6425  141.1101  156.6550 H   0  0  0  0  0  0  0  0  0  0  0  0
  146.1012  139.4676  156.2723 H   0  0  0  0  0  0  0  0  0  0  0  0
  144.9497  140.3099  155.2480 H   0  0  0  0  0  0  0  0  0  0  0  0
  1  2  1  0  0  0  0
  1 19  1  0  0  0  0
  1 20  1  0  0  0  0
  1 21  1  0  0  0  0
  2  3  1  0  0  0  0
  3 16  1  0  0  0  0
  3  4  1  0  0  0  0
  3  5  1  0  0  0  0
  4 22  1  0  0  0  0
  4 23  1  0  0  0  0
  4 24  1  0  0  0  0
  5  6  1  0  0  0  0
  5 25  1  0  0  0  0
  5 26  1  0  0  0  0
  6  7  1  0  0  0  0
  6 16  1  0  0  0  0
  6 27  1  0  0  0  0
  7  8  1  0  0  0  0
  7 28  1  0  0  0  0
  8  9  2  0  0  0  0
  8 10  1  0  0  0  0
 10 11  1  0  0  0  0
 10 29  1  0  0  0  0
 11 15  2  0  0  0  0
 11 12  1  0  0  0  0
 12 13  2  0  0  0  0
 12 30  1  0  0  0  0
 13 14  1  0  0  0  0
 13 31  1  0  0  0  0
 14 15  1  0  0  0  0
 16 17  1  0  0  0  0
 16 18  1  0  0  0  0
 17 32  1  0  0  0  0
 17 33  1  0  0  0  0
 17 34  1  0  0  0  0
 18 35  1  0  0  0  0
 18 36  1  0  0  0  0
 18 37  1  0  0  0  0
M  END
> <s_m_source_file>
AV-unprocessed.smi

> <i_m_source_file_index>
3315

> <i_lp_mmshare_version>
43012

> <i_f3d_flags>
0

> <s_epik_input>
W0NIM11PW0NAQF0xKFtDSDNdKVtDSDJdW0NASF0oQzEoW0NIM10pW0NIM10pW05IXUMoPU8pW05IXWMyW2NIXVtjSF1vbjI=

> <s_epik_cmdline>
J2VwaWtfcHl0aG9uJywgJy1waCcsICc3LjAnLCAnLXRuJywgJzgnLCAnLW1hJywgJzIwMCcsICctbWV0YWxfYmluZGluZycsICctaW1hZScsICc8aW5maWxlLm1hZT4nLCAnLW9tYWUnLCAnPG91dGZpbGUubWFlPic=

> <r_lp_tautomer_probability>
1

> <r_epik_Ionization_Penalty>
2.28875e-05

> <r_epik_Ionization_Penalty_Charging>
0

> <r_epik_Ionization_Penalty_Neutral>
2.28875e-05

> <r_epik_State_Penalty>
-0

> <r_epik_Charging_Adjusted_Penalty>
0

> <i_epik_Tot_Q>
0

> <i_epik_Tot_abs_Q>
0

> <r_epik_Metal_State_Penalty>
-0

> <b_epik_Metal_Only>
0

> <s_lp_Force_Field>
OPLS_2005

> <r_lp_Energy>
24.1983

> <b_lp_Chiralities_Consistent>
1

> <s_lp_Variant>
AV-unprocessed.smi:3315-2

> <Gold.Version>
5.8.1

> <Gold.Id.Protein>
6NUR|6NUR_protein|mol2

> <Gold.PLP.Fitness>
33.8281

> <Gold.PLP.PLP>
-28.4229

> <Gold.PLP.part.hbond>
-3.0000

> <Gold.PLP.part.metal>
0.0000

> <Gold.PLP.part.buried>
-1.0991

> <Gold.PLP.part.nonpolar>
-24.2280

> <Gold.PLP.part.repulsive>
0.3677

> <Gold.PLP.ligand.clash>
0.0000

> <Gold.PLP.ligand.torsion>
0.4506

> <Gold.PLP.Chemscore.Hbond>
1.9760

> <Gold.PLP.Chemscore.CHOScore>
0.0000

> <Gold.PLP.Chemscore.Metal>
0.0000

> <Gold.Chemscore.Hbonds>
donor molecule, donor type, donor heavy atom, donor atom, acceptor molecule, acceptor atom, score
      L1  H     7    28       P1  8028  1.00
      L1  H    10    29       P1  8028  1.00

> <Gold.PLP.Chemscore.Internal.Correction>
0.3784

> <Gold.Rescore>
     Score         DG    S(hbond)    S(metal)    S(lipo)     H(rot)  DE(clash)    DE(int)     intcor
     14.27     -16.71       1.93        0.00      69.36       1.30       0.52       1.92       ----

> <Gold.Chemscore.Fitness>
14.2687

> <Gold.Chemscore.DG>
-16.7103

> <Gold.Chemscore.ZeroCoef>
-5.4800

> <Gold.Chemscore.Hbond>
1.9321

> <Gold.Chemscore.Metal>
0.0000

> <Gold.Chemscore.Lipo>
69.3589

> <Gold.Chemscore.Internal_Hbond>
0.0000

> <Gold.Chemscore.DEClash>
0.5238

> <Gold.Chemscore.DEInternal>
1.9178

> <Gold.Chemscore.Rot>
1.3038

> <Gold.Chemscore.Internal.Correction>
   9.000000E+99

> <Gold.Chemscore.Hbonds>
donor molecule, donor type, donor heavy atom, donor atom, acceptor molecule, acceptor atom, score
      L1  H     7    28       P1  8028  0.95
      L1  H    10    29       P1  8028  0.95

> <Gold.Chemscore.Hbond.Weighted>
-6.4531

> <Gold.Chemscore.Metal.Weighted>
-0.0000

> <Gold.Chemscore.Lipo.Weighted>
-8.1150

> <Gold.Chemscore.Internal_Hbond.Weighted>
0.0000

> <Gold.Chemscore.DEClash.Weighted>
0.5238

> <Gold.Chemscore.DEInternal.Weighted>
1.9178

> <Gold.Chemscore.Rot.Weighted>
3.3377

> <Gold.Chemscore.Internal.Correction.Weighted>
   9.000000E+99

> <Gold.Protein.RotatedTorsions>
[ 6907 6896 6895 6894 ] final  -16.41 input  -60.11 | X-H torsion
[ 7974 7965 7964 7962 ] final   93.45 input  175.53 | X-H torsion
[ 8008 7997 7996 7995 ] final  109.19 input   59.86 | X-H torsion
[ 10167 10162 10161 10158 ] final  -31.40 input  -65.29 | X-H torsion
[ 10718 10713 10712 10709 ] final  -10.85 input   66.30 | X-H torsion
[ 10763 10752 10751 10750 ] final  -64.89 input  -60.55 | X-H torsion
[ 11005 11000 10999 10996 ] final    1.90 input  -57.11 | X-H torsion

> <Gold.Protein.ActiveResidues>
 VAL166  LYS551  ARG553  GLY616  TRP617  ASP618  TYR619  PRO620  LYS621  CYS622 
 ASP623  PHE694  ASN695  SER759  ASP760  ASP761  ALA762  ILE779  LEU786  VAL792 
 PHE793  MET794  SER795  GLU796  ALA797  LYS798  CYS799  TRP800  GLU811  SER814 

> <Gold.Protein.RotatedAtoms>
  151.3090  135.0789  159.9265 H   0  0  0  0  0  0  0  0  0  0  0  0  # atno 6907 bound_to 6896
  152.5282  133.9755  159.7792 H   0  0  0  0  0  0  0  0  0  0  0  0  # atno 6908 bound_to 6896
  151.0055  133.5963  159.2719 H   0  0  0  0  0  0  0  0  0  0  0  0  # atno 6909 bound_to 6896
  145.4788  139.2279  143.2894 H   0  0  0  0  0  0  0  0  0  0  0  0  # atno 7974 bound_to 7965
  156.1960  140.3062  155.9428 H   0  0  0  0  0  0  0  0  0  0  0  0  # atno 8008 bound_to 7997
  155.3064  140.0449  157.3049 H   0  0  0  0  0  0  0  0  0  0  0  0  # atno 8009 bound_to 7997
  154.5510  140.2291  155.8494 H   0  0  0  0  0  0  0  0  0  0  0  0  # atno 8010 bound_to 7997
  140.7237  143.3774  151.1664 H   0  0  0  0  0  0  0  0  0  0  0  0  # atno 10167 bound_to 10162
  156.6675  130.4999  149.6011 H   0  0  0  0  0  0  0  0  0  0  0  0  # atno 10718 bound_to 10713
  154.3368  135.6165  153.5577 H   0  0  0  0  0  0  0  0  0  0  0  0  # atno 10763 bound_to 10752
  152.9807  135.5760  154.4898 H   0  0  0  0  0  0  0  0  0  0  0  0  # atno 10764 bound_to 10752
  154.4595  135.2855  155.1700 H   0  0  0  0  0  0  0  0  0  0  0  0  # atno 10765 bound_to 10752
  140.6103  133.9754  155.8174 H   0  0  0  0  0  0  0  0  0  0  0  0  # atno 11005 bound_to 11000
  146.2353  140.5572  142.8957 LP  0  0  0  0  0  0  0  0  0  0  0  0  # atno 17320 bound_to 7965
  144.7901  140.6015  143.6547 LP  0  0  0  0  0  0  0  0  0  0  0  0  # atno 17321 bound_to 7965
  139.7357  143.9003  152.3034 LP  0  0  0  0  0  0  0  0  0  0  0  0  # atno 17342 bound_to 10162
  139.8807  144.7019  150.8881 LP  0  0  0  0  0  0  0  0  0  0  0  0  # atno 17343 bound_to 10162
  156.1964  130.6592  151.1119 LP  0  0  0  0  0  0  0  0  0  0  0  0  # atno 17370 bound_to 10713
  157.7089  131.0744  150.6572 LP  0  0  0  0  0  0  0  0  0  0  0  0  # atno 17371 bound_to 10713
  141.0812  134.0059  157.3382 LP  0  0  0  0  0  0  0  0  0  0  0  0  # atno 17394 bound_to 11000
  139.9195  135.0199  156.8010 LP  0  0  0  0  0  0  0  0  0  0  0  0  # atno 17395 bound_to 11000

$$$$
