AV-unprocessed.smi:1055|AV-procd|sdf|4624|dock7
  -GOLD-   22720 3123D 1   1.00000     0.00000
 Structure written by MMmdl.
 52 53  0  0  0  0  0  0  0  0  3 V2000
  145.6339  131.6011  150.0812 C   0  0  0  0  0  0  0  0  0  0  0  0
  144.5075  132.3271  149.9867 C   0  0  0  0  0  0  0  0  0  0  0  0
  143.8670  132.6459  148.6487 C   0  0  0  0  0  0  0  0  0  0  0  0
  143.8005  132.8842  151.2124 C   0  0  0  0  0  0  0  0  0  0  0  0
  144.2907  134.2410  151.5610 N   0  3  2  0  0  0  0  0  0  0  0  0
  143.3597  134.9605  152.4661 C   0  0  0  0  0  0  0  0  0  0  0  0
  143.9652  136.2932  152.9374 C   0  0  0  0  0  0  0  0  0  0  0  0
  144.3527  137.1843  151.7420 C   0  0  1  0  0  0  0  0  0  0  0  0
  145.0262  138.3993  152.1927 N   0  0  0  0  0  0  0  0  0  0  0  0
  146.0851  138.4360  153.0145 C   0  0  0  0  0  0  0  0  0  0  0  0
  146.6151  137.4275  153.4792 O   0  0  0  0  0  0  0  0  0  0  0  0
  146.4830  139.7009  153.2379 N   0  0  0  0  0  0  0  0  0  0  0  0
  147.5576  140.1722  154.0416 C   0  0  0  0  0  0  0  0  0  0  0  0
  148.6221  139.2823  154.2965 C   0  0  0  0  0  0  0  0  0  0  0  0
  149.7182  139.7012  155.0781 C   0  0  0  0  0  0  0  0  0  0  0  0
  149.7489  141.0171  155.6011 C   0  0  0  0  0  0  0  0  0  0  0  0
  150.8100  141.5110  156.3904 N   0  0  0  0  0  0  0  0  0  0  0  0
  151.8303  140.5948  156.8878 C   0  0  0  0  0  0  0  0  0  0  0  0
  150.9466  142.9462  156.6034 C   0  0  0  0  0  0  0  0  0  0  0  0
  148.7076  141.8388  155.3221 N   0  3  0  0  0  0  0  0  0  0  0  0
  147.6388  141.4793  154.5789 C   0  0  0  0  0  0  0  0  0  0  0  0
  145.2752  136.4005  150.7937 C   0  0  0  0  0  0  0  0  0  0  0  0
  144.6422  135.0634  150.3730 C   0  0  0  0  0  0  0  0  0  0  0  0
  146.1268  131.2137  149.2012 H   0  0  0  0  0  0  0  0  0  0  0  0
  146.0820  131.3819  151.0394 H   0  0  0  0  0  0  0  0  0  0  0  0
  143.7930  133.7250  148.5119 H   0  0  0  0  0  0  0  0  0  0  0  0
  142.8639  132.2226  148.5920 H   0  0  0  0  0  0  0  0  0  0  0  0
  144.4507  132.2400  147.8215 H   0  0  0  0  0  0  0  0  0  0  0  0
  142.7201  132.9091  151.0597 H   0  0  0  0  0  0  0  0  0  0  0  0
  143.9845  132.1964  152.0391 H   0  0  0  0  0  0  0  0  0  0  0  0
  142.4128  135.1365  151.9529 H   0  0  0  0  0  0  0  0  0  0  0  0
  143.1388  134.3408  153.3360 H   0  0  0  0  0  0  0  0  0  0  0  0
  143.2511  136.8099  153.5796 H   0  0  0  0  0  0  0  0  0  0  0  0
  144.8444  136.0937  153.5520 H   0  0  0  0  0  0  0  0  0  0  0  0
  143.4498  137.4601  151.1934 H   0  0  0  0  0  0  0  0  0  0  0  0
  144.6552  139.2760  151.8564 H   0  0  0  0  0  0  0  0  0  0  0  0
  145.9725  140.4165  152.7415 H   0  0  0  0  0  0  0  0  0  0  0  0
  148.6025  138.2783  153.8982 H   0  0  0  0  0  0  0  0  0  0  0  0
  150.5208  139.0028  155.2619 H   0  0  0  0  0  0  0  0  0  0  0  0
  151.3772  139.7900  157.4675 H   0  0  0  0  0  0  0  0  0  0  0  0
  152.5416  141.1077  157.5353 H   0  0  0  0  0  0  0  0  0  0  0  0
  152.3862  140.1559  156.0588 H   0  0  0  0  0  0  0  0  0  0  0  0
  150.0880  143.3351  157.1515 H   0  0  0  0  0  0  0  0  0  0  0  0
  151.0205  143.4714  155.6506 H   0  0  0  0  0  0  0  0  0  0  0  0
  151.8424  143.1771  157.1803 H   0  0  0  0  0  0  0  0  0  0  0  0
  146.9059  142.2596  154.4430 H   0  0  0  0  0  0  0  0  0  0  0  0
  145.4949  136.9974  149.9075 H   0  0  0  0  0  0  0  0  0  0  0  0
  146.2320  136.2073  151.2813 H   0  0  0  0  0  0  0  0  0  0  0  0
  145.3447  134.5256  149.7359 H   0  0  0  0  0  0  0  0  0  0  0  0
  143.7476  135.2424  149.7746 H   0  0  0  0  0  0  0  0  0  0  0  0
  145.1434  134.1046  152.0850 H   0  0  0  0  0  0  0  0  0  0  0  0
  148.7322  142.7886  155.6937 H   0  0  0  0  0  0  0  0  0  0  0  0
  1  2  2  0  0  0  0
  1 24  1  0  0  0  0
  1 25  1  0  0  0  0
  2  3  1  0  0  0  0
  2  4  1  0  0  0  0
  3 26  1  0  0  0  0
  3 27  1  0  0  0  0
  3 28  1  0  0  0  0
  4  5  1  0  0  0  0
  4 29  1  0  0  0  0
  4 30  1  0  0  0  0
  5 23  1  0  0  0  0
  5  6  1  0  0  0  0
  5 51  1  0  0  0  0
  6  7  1  0  0  0  0
  6 31  1  0  0  0  0
  6 32  1  0  0  0  0
  7  8  1  0  0  0  0
  7 33  1  0  0  0  0
  7 34  1  0  0  0  0
  8  9  1  0  0  0  0
  8 22  1  0  0  0  0
  8 35  1  0  0  0  0
  9 10  1  0  0  0  0
  9 36  1  0  0  0  0
 10 11  2  0  0  0  0
 10 12  1  0  0  0  0
 12 13  1  0  0  0  0
 12 37  1  0  0  0  0
 13 21  1  0  0  0  0
 13 14  2  0  0  0  0
 14 15  1  0  0  0  0
 14 38  1  0  0  0  0
 15 16  2  0  0  0  0
 15 39  1  0  0  0  0
 16 17  1  0  0  0  0
 16 20  1  0  0  0  0
 17 18  1  0  0  0  0
 17 19  1  0  0  0  0
 18 40  1  0  0  0  0
 18 41  1  0  0  0  0
 18 42  1  0  0  0  0
 19 43  1  0  0  0  0
 19 44  1  0  0  0  0
 19 45  1  0  0  0  0
 20 21  2  0  0  0  0
 20 52  1  0  0  0  0
 21 46  1  0  0  0  0
 22 23  1  0  0  0  0
 22 47  1  0  0  0  0
 22 48  1  0  0  0  0
 23 49  1  0  0  0  0
 23 50  1  0  0  0  0
M  CHG  1   5   1
M  CHG  1  20   1
M  END
> <s_m_source_file>
AV-unprocessed.smi

> <i_m_source_file_index>
1055

> <i_lp_mmshare_version>
43012

> <i_f3d_flags>
0

> <s_epik_input>
W0NIMl09QyhbQ0gzXSlbQ0gyXU4xW0NIMl1bQ0gyXVtDSF0oW0NIMl1bQ0gyXTEpW05IXUMoPU8pW05IXWMyW2NIXVtjSF1jKE4oW0NIM10pW0NIM10pbltjSF0y

> <s_epik_cmdline>
J2VwaWtfcHl0aG9uJywgJy1waCcsICc3LjAnLCAnLXRuJywgJzgnLCAnLW1hJywgJzIwMCcsICctbWV0YWxfYmluZGluZycsICctaW1hZScsICc8aW5maWxlLm1hZT4nLCAnLW9tYWUnLCAnPG91dGZpbGUubWFlPic=

> <r_lp_tautomer_probability>
0.999994

> <r_epik_Ionization_Penalty>
0.344238

> <r_epik_Ionization_Penalty_Charging>
0.344219

> <r_epik_Ionization_Penalty_Neutral>
1.87459e-05

> <r_epik_State_Penalty>
0.320654

> <r_epik_Charging_Adjusted_Penalty>
0.664873

> <i_epik_Tot_Q>
2

> <i_epik_Tot_abs_Q>
2

> <r_epik_Metal_State_Penalty>
0.58246

> <b_epik_Metal_Only>
0

> <s_lp_Force_Field>
OPLS_2005

> <r_lp_Energy>
26.1172

> <b_lp_Chiralities_Consistent>
1

> <s_lp_Variant>
AV-unprocessed.smi:1055-1

> <Gold.Version>
5.8.1

> <Gold.Id.Protein>
6NUR|6NUR_protein|mol2

> <Gold.PLP.Fitness>
47.6732

> <Gold.PLP.PLP>
-39.2504

> <Gold.PLP.part.hbond>
-3.7870

> <Gold.PLP.part.metal>
0.0000

> <Gold.PLP.part.buried>
1.8035

> <Gold.PLP.part.nonpolar>
-38.3213

> <Gold.PLP.part.repulsive>
0.8388

> <Gold.PLP.ligand.clash>
0.0000

> <Gold.PLP.ligand.torsion>
0.8439

> <Gold.PLP.Chemscore.Hbond>
3.3411

> <Gold.PLP.Chemscore.CHOScore>
0.0000

> <Gold.PLP.Chemscore.Metal>
0.0000

> <Gold.Chemscore.Hbonds>
donor molecule, donor type, donor heavy atom, donor atom, acceptor molecule, acceptor atom, score
      L1  H     9    36       P1 10175  0.74
      L1  H    12    37       P1 10175  0.17
      L1  H    20    52       P1  8028  2.00

> <Gold.PLP.Chemscore.Internal.Correction>
0.0873

> <Gold.Rescore>
     Score         DG    S(hbond)    S(metal)    S(lipo)     H(rot)  DE(clash)    DE(int)     intcor
     16.22     -19.84       1.94        0.00      96.88       1.35       0.22       3.41       ----

> <Gold.Chemscore.Fitness>
16.2165

> <Gold.Chemscore.DG>
-19.8435

> <Gold.Chemscore.ZeroCoef>
-5.4800

> <Gold.Chemscore.Hbond>
1.9387

> <Gold.Chemscore.Metal>
0.0000

> <Gold.Chemscore.Lipo>
96.8835

> <Gold.Chemscore.Internal_Hbond>
0.0000

> <Gold.Chemscore.DEClash>
0.2213

> <Gold.Chemscore.DEInternal>
3.4058

> <Gold.Chemscore.Rot>
1.3465

> <Gold.Chemscore.Internal.Correction>
   9.000000E+99

> <Gold.Chemscore.Hbonds>
donor molecule, donor type, donor heavy atom, donor atom, acceptor molecule, acceptor atom, score
      L1  H     9    36       P1 10175  0.72
      L1  H    12    37       P1 10175  0.13
      L1  H    20    52       P1  8028  0.98

> <Gold.Chemscore.Hbond.Weighted>
-6.4752

> <Gold.Chemscore.Metal.Weighted>
-0.0000

> <Gold.Chemscore.Lipo.Weighted>
-11.3354

> <Gold.Chemscore.Internal_Hbond.Weighted>
0.0000

> <Gold.Chemscore.DEClash.Weighted>
0.2213

> <Gold.Chemscore.DEInternal.Weighted>
3.4058

> <Gold.Chemscore.Rot.Weighted>
3.4470

> <Gold.Chemscore.Internal.Correction.Weighted>
   9.000000E+99

> <Gold.Protein.RotatedTorsions>
[ 6907 6896 6895 6894 ] final -146.47 input  -60.11 | X-H torsion
[ 7974 7965 7964 7962 ] final  -60.74 input  175.53 | X-H torsion
[ 8008 7997 7996 7995 ] final  140.75 input   59.86 | X-H torsion
[ 10167 10162 10161 10158 ] final  158.63 input  -65.29 | X-H torsion
[ 10718 10713 10712 10709 ] final   14.41 input   66.30 | X-H torsion
[ 10763 10752 10751 10750 ] final   69.49 input  -60.55 | X-H torsion
[ 11005 11000 10999 10996 ] final -160.92 input  -57.11 | X-H torsion

> <Gold.Protein.ActiveResidues>
 VAL166  LYS551  ARG553  GLY616  TRP617  ASP618  TYR619  PRO620  LYS621  CYS622 
 ASP623  PHE694  ASN695  SER759  ASP760  ASP761  ALA762  ILE779  LEU786  VAL792 
 PHE793  MET794  SER795  GLU796  ALA797  LYS798  CYS799  TRP800  GLU811  SER814 

> <Gold.Protein.RotatedAtoms>
  151.1421  133.4964  159.2596 H   0  0  0  0  0  0  0  0  0  0  0  0  # atno 6907 bound_to 6896
  151.1644  135.0288  159.8734 H   0  0  0  0  0  0  0  0  0  0  0  0  # atno 6908 bound_to 6896
  152.5462  134.1291  159.8485 H   0  0  0  0  0  0  0  0  0  0  0  0  # atno 6909 bound_to 6896
  145.8119  140.8594  143.0178 H   0  0  0  0  0  0  0  0  0  0  0  0  # atno 7974 bound_to 7965
  156.2975  140.2333  156.4453 H   0  0  0  0  0  0  0  0  0  0  0  0  # atno 8008 bound_to 7997
  154.8150  140.0441  157.1390 H   0  0  0  0  0  0  0  0  0  0  0  0  # atno 8009 bound_to 7997
  154.9380  140.3025  155.5138 H   0  0  0  0  0  0  0  0  0  0  0  0  # atno 8010 bound_to 7997
  139.4828  144.4806  151.8449 H   0  0  0  0  0  0  0  0  0  0  0  0  # atno 10167 bound_to 10162
  157.0388  130.6222  149.5747 H   0  0  0  0  0  0  0  0  0  0  0  0  # atno 10718 bound_to 10713
  153.0290  135.5208  154.7297 H   0  0  0  0  0  0  0  0  0  0  0  0  # atno 10763 bound_to 10752
  154.6328  135.2902  155.0198 H   0  0  0  0  0  0  0  0  0  0  0  0  # atno 10764 bound_to 10752
  154.1144  135.6617  153.4943 H   0  0  0  0  0  0  0  0  0  0  0  0  # atno 10765 bound_to 10752
  140.6261  134.4700  157.5227 H   0  0  0  0  0  0  0  0  0  0  0  0  # atno 11005 bound_to 11000
  144.6756  140.0407  143.7481 LP  0  0  0  0  0  0  0  0  0  0  0  0  # atno 17320 bound_to 7965
  145.9768  139.2911  143.1065 LP  0  0  0  0  0  0  0  0  0  0  0  0  # atno 17321 bound_to 7965
  140.4282  144.2152  150.5887 LP  0  0  0  0  0  0  0  0  0  0  0  0  # atno 17342 bound_to 10162
  140.4806  143.2380  151.8960 LP  0  0  0  0  0  0  0  0  0  0  0  0  # atno 17343 bound_to 10162
  156.0045  130.5129  150.7781 LP  0  0  0  0  0  0  0  0  0  0  0  0  # atno 17370 bound_to 10713
  157.5121  131.0926  151.0185 LP  0  0  0  0  0  0  0  0  0  0  0  0  # atno 17371 bound_to 10713
  139.9134  134.8297  156.1449 LP  0  0  0  0  0  0  0  0  0  0  0  0  # atno 17394 bound_to 11000
  141.0708  133.6797  156.2137 LP  0  0  0  0  0  0  0  0  0  0  0  0  # atno 17395 bound_to 11000

$$$$
