AV-unprocessed.smi:1797|AV-procd|sdf|7257|dock5
  -GOLD-   22720 8513D 1   1.00000     0.00000
 Structure written by MMmdl.
 29 30  0  0  0  0  0  0  0  0  2 V2000
  148.1139  140.8582  153.9943 C   0  0  0  0  0  0  0  0  0  0  0  0
  149.4136  140.5351  154.6482 C   0  0  0  0  0  0  0  0  0  0  0  0
  150.2454  139.6012  154.1807 N   0  0  0  0  0  0  0  0  0  0  0  0
  151.3887  139.4832  154.9576 N   0  0  0  0  0  0  0  0  0  0  0  0
  151.3993  140.3174  156.0073 C   0  0  0  0  0  0  0  0  0  0  0  0
  152.4145  140.3591  156.8900 N   0  5  0  0  0  0  0  0  0  0  0  0
  152.2592  140.8020  158.1654 C   0  0  0  0  0  0  0  0  0  0  0  0
  151.2473  141.3809  158.5591 O   0  0  0  0  0  0  0  0  0  0  0  0
  153.2697  140.5929  159.0319 N   0  0  0  0  0  0  0  0  0  0  0  0
  153.2974  140.9765  160.4400 C   0  0  2  0  0  0  0  0  0  0  0  0
  152.7841  142.4120  160.6298 C   0  0  0  0  0  0  0  0  0  0  0  0
  152.8113  142.8165  162.1124 C   0  0  0  0  0  0  0  0  0  0  0  0
  154.1171  142.4385  162.8279 C   0  0  0  0  0  0  0  0  0  0  0  0
  154.3947  142.9717  163.9000 O   0  0  0  0  0  0  0  0  0  0  0  0
  154.9136  141.5026  162.2821 N   0  0  0  0  0  0  0  0  0  0  0  0
  154.7355  140.8664  160.9772 C   0  0  0  0  0  0  0  0  0  0  0  0
  149.9722  141.3487  156.0999 S   0  0  0  0  0  0  0  0  0  0  0  0
  147.3613  140.1230  154.2790 H   0  0  0  0  0  0  0  0  0  0  0  0
  148.2233  140.8484  152.9095 H   0  0  0  0  0  0  0  0  0  0  0  0
  147.7721  141.8470  154.3004 H   0  0  0  0  0  0  0  0  0  0  0  0
  154.0902  140.1242  158.6766 H   0  0  0  0  0  0  0  0  0  0  0  0
  152.6643  140.2940  161.0108 H   0  0  0  0  0  0  0  0  0  0  0  0
  153.3945  143.1049  160.0485 H   0  0  0  0  0  0  0  0  0  0  0  0
  151.7665  142.5052  160.2487 H   0  0  0  0  0  0  0  0  0  0  0  0
  152.6392  143.8888  162.2100 H   0  0  0  0  0  0  0  0  0  0  0  0
  151.9941  142.3207  162.6376 H   0  0  0  0  0  0  0  0  0  0  0  0
  155.7475  141.2507  162.7925 H   0  0  0  0  0  0  0  0  0  0  0  0
  155.0342  139.8200  161.0464 H   0  0  0  0  0  0  0  0  0  0  0  0
  155.4308  141.3448  160.2857 H   0  0  0  0  0  0  0  0  0  0  0  0
  1  2  1  0  0  0  0
  1 18  1  0  0  0  0
  1 19  1  0  0  0  0
  1 20  1  0  0  0  0
  2 17  1  0  0  0  0
  2  3  2  0  0  0  0
  3  4  1  0  0  0  0
  4  5  2  0  0  0  0
  5  6  1  0  0  0  0
  5 17  1  0  0  0  0
  6  7  1  0  0  0  0
  7  8  2  0  0  0  0
  7  9  1  0  0  0  0
  9 10  1  0  0  0  0
  9 21  1  0  0  0  0
 10 16  1  0  0  0  0
 10 11  1  0  0  0  0
 10 22  1  0  0  0  0
 11 12  1  0  0  0  0
 11 23  1  0  0  0  0
 11 24  1  0  0  0  0
 12 13  1  0  0  0  0
 12 25  1  0  0  0  0
 12 26  1  0  0  0  0
 13 14  2  0  0  0  0
 13 15  1  0  0  0  0
 15 16  1  0  0  0  0
 15 27  1  0  0  0  0
 16 28  1  0  0  0  0
 16 29  1  0  0  0  0
M  CHG  1   6  -1
M  END
> <s_m_source_file>
AV-unprocessed.smi

> <i_m_source_file_index>
1797

> <i_lp_mmshare_version>
43012

> <i_f3d_flags>
0

> <s_epik_input>
W0NIM11jMW5uYyhzMSlbTkhdQyg9TylbTkhdW0NAQEhdMltDSDJdW0NIMl1DKD1PKVtOSF1bQ0gyXTI=

> <s_epik_cmdline>
J2VwaWtfcHl0aG9uJywgJy1waCcsICc3LjAnLCAnLXRuJywgJzgnLCAnLW1hJywgJzIwMCcsICctbWV0YWxfYmluZGluZycsICctaW1hZScsICc8aW5maWxlLm1hZT4nLCAnLW9tYWUnLCAnPG91dGZpbGUubWFlPic=

> <r_lp_tautomer_probability>
1

> <r_epik_Ionization_Penalty>
3.31792

> <r_epik_Ionization_Penalty_Charging>
3.17379

> <r_epik_Ionization_Penalty_Neutral>
0.144127

> <r_epik_State_Penalty>
3.17099

> <r_epik_Charging_Adjusted_Penalty>
6.34478

> <i_epik_Tot_Q>
-1

> <i_epik_Tot_abs_Q>
1

> <r_epik_Metal_State_Penalty>
0.468583

> <b_epik_Metal_Only>
1

> <s_lp_Force_Field>
OPLS_2005

> <r_lp_Energy>
8.3623

> <b_lp_Chiralities_Consistent>
1

> <s_lp_Variant>
AV-unprocessed.smi:1797-3

> <Gold.Version>
5.8.1

> <Gold.Id.Protein>
6NUR|6NUR_protein|mol2

> <Gold.PLP.Fitness>
41.2706

> <Gold.PLP.PLP>
-36.0682

> <Gold.PLP.part.hbond>
-4.6255

> <Gold.PLP.part.metal>
0.0000

> <Gold.PLP.part.buried>
-0.0620

> <Gold.PLP.part.nonpolar>
-29.5387

> <Gold.PLP.part.repulsive>
1.0677

> <Gold.PLP.ligand.clash>
0.0000

> <Gold.PLP.ligand.torsion>
0.3290

> <Gold.PLP.Chemscore.Hbond>
1.9520

> <Gold.PLP.Chemscore.CHOScore>
0.0000

> <Gold.PLP.Chemscore.Metal>
0.0000

> <Gold.Chemscore.Hbonds>
donor molecule, donor type, donor heavy atom, donor atom, acceptor molecule, acceptor atom, score
      P1  H  7997  8009       L1     6  1.95

> <Gold.PLP.Chemscore.Internal.Correction>
0.0044

> <Gold.Rescore>
     Score         DG    S(hbond)    S(metal)    S(lipo)     H(rot)  DE(clash)    DE(int)     intcor
      9.47     -12.79       0.82        0.00      61.02       1.00       0.20       3.12       ----

> <Gold.Chemscore.Fitness>
9.4692

> <Gold.Chemscore.DG>
-12.7948

> <Gold.Chemscore.ZeroCoef>
-5.4800

> <Gold.Chemscore.Hbond>
0.8189

> <Gold.Chemscore.Metal>
0.0000

> <Gold.Chemscore.Lipo>
61.0218

> <Gold.Chemscore.Internal_Hbond>
0.0000

> <Gold.Chemscore.DEClash>
0.2016

> <Gold.Chemscore.DEInternal>
3.1239

> <Gold.Chemscore.Rot>
1.0000

> <Gold.Chemscore.Internal.Correction>
   9.000000E+99

> <Gold.Chemscore.Hbonds>
donor molecule, donor type, donor heavy atom, donor atom, acceptor molecule, acceptor atom, score
      P1  H  7997  8009       L1     6  0.64

> <Gold.Chemscore.Hbond.Weighted>
-2.7352

> <Gold.Chemscore.Metal.Weighted>
-0.0000

> <Gold.Chemscore.Lipo.Weighted>
-7.1395

> <Gold.Chemscore.Internal_Hbond.Weighted>
0.0000

> <Gold.Chemscore.DEClash.Weighted>
0.2016

> <Gold.Chemscore.DEInternal.Weighted>
3.1239

> <Gold.Chemscore.Rot.Weighted>
2.5600

> <Gold.Chemscore.Internal.Correction.Weighted>
   9.000000E+99

> <Gold.Protein.RotatedTorsions>
[ 6907 6896 6895 6894 ] final  165.49 input  -60.11 | X-H torsion
[ 7974 7965 7964 7962 ] final -155.02 input  175.53 | X-H torsion
[ 8008 7997 7996 7995 ] final -171.53 input   59.86 | X-H torsion
[ 10167 10162 10161 10158 ] final  -64.15 input  -65.29 | X-H torsion
[ 10718 10713 10712 10709 ] final  116.59 input   66.30 | X-H torsion
[ 10763 10752 10751 10750 ] final -169.74 input  -60.55 | X-H torsion
[ 11005 11000 10999 10996 ] final  173.17 input  -57.11 | X-H torsion

> <Gold.Protein.ActiveResidues>
 VAL166  LYS551  ARG553  GLY616  TRP617  ASP618  TYR619  PRO620  LYS621  CYS622 
 ASP623  PHE694  ASN695  SER759  ASP760  ASP761  ALA762  ILE779  LEU786  VAL792 
 PHE793  MET794  SER795  GLU796  ALA797  LYS798  CYS799  TRP800  GLU811  SER814 

> <Gold.Protein.RotatedAtoms>
  151.8937  133.3522  159.3806 H   0  0  0  0  0  0  0  0  0  0  0  0  # atno 6907 bound_to 6896
  150.7097  134.4898  159.5519 H   0  0  0  0  0  0  0  0  0  0  0  0  # atno 6908 bound_to 6896
  152.2473  134.8168  160.0502 H   0  0  0  0  0  0  0  0  0  0  0  0  # atno 6909 bound_to 6896
  144.7660  140.4308  143.5941 H   0  0  0  0  0  0  0  0  0  0  0  0  # atno 7974 bound_to 7965
  155.9327  140.1094  157.1119 H   0  0  0  0  0  0  0  0  0  0  0  0  # atno 8008 bound_to 7997
  154.4074  140.1234  156.4890 H   0  0  0  0  0  0  0  0  0  0  0  0  # atno 8009 bound_to 7997
  155.7059  140.3471  155.4955 H   0  0  0  0  0  0  0  0  0  0  0  0  # atno 8010 bound_to 7997
  140.5821  143.2328  151.6321 H   0  0  0  0  0  0  0  0  0  0  0  0  # atno 10167 bound_to 10162
  157.6151  131.1027  150.7494 H   0  0  0  0  0  0  0  0  0  0  0  0  # atno 10718 bound_to 10713
  154.6490  135.2909  155.0010 H   0  0  0  0  0  0  0  0  0  0  0  0  # atno 10763 bound_to 10752
  154.1110  135.6562  153.4889 H   0  0  0  0  0  0  0  0  0  0  0  0  # atno 10764 bound_to 10752
  153.0366  135.5265  154.7390 H   0  0  0  0  0  0  0  0  0  0  0  0  # atno 10765 bound_to 10752
  140.3375  134.7304  157.4179 H   0  0  0  0  0  0  0  0  0  0  0  0  # atno 11005 bound_to 11000
  145.6467  139.1558  143.2885 LP  0  0  0  0  0  0  0  0  0  0  0  0  # atno 17320 bound_to 7965
  146.1768  140.6559  142.9207 LP  0  0  0  0  0  0  0  0  0  0  0  0  # atno 17321 bound_to 7965
  139.5176  144.3311  152.0825 LP  0  0  0  0  0  0  0  0  0  0  0  0  # atno 17342 bound_to 10162
  140.2463  144.4216  150.6240 LP  0  0  0  0  0  0  0  0  0  0  0  0  # atno 17343 bound_to 10162
  156.7863  130.4875  149.5392 LP  0  0  0  0  0  0  0  0  0  0  0  0  # atno 17370 bound_to 10713
  156.1269  130.6150  151.0277 LP  0  0  0  0  0  0  0  0  0  0  0  0  # atno 17371 bound_to 10713
  140.0808  134.5733  155.8542 LP  0  0  0  0  0  0  0  0  0  0  0  0  # atno 17394 bound_to 11000
  141.2047  133.6641  156.6137 LP  0  0  0  0  0  0  0  0  0  0  0  0  # atno 17395 bound_to 11000

$$$$
