AV-unprocessed.smi:92|AV-procd|sdf|841|dock4
  -GOLD-   2262017273D 1   1.00000     0.00000
 Structure written by MMmdl.
 61 64  0  0  0  0  0  0  0  0  2 V2000
  147.9971  127.3174  151.3219 C   0  0  0  0  0  0  0  0  0  0  0  0
  147.8686  128.2165  152.5600 C   0  0  0  0  0  0  0  0  0  0  0  0
  147.4007  129.5851  152.2249 N   0  3  2  0  0  0  0  0  0  0  0  0
  147.5599  130.5500  153.3426 C   0  0  0  0  0  0  0  0  0  0  0  0
  147.1757  131.9747  152.9128 C   0  0  0  0  0  0  0  0  0  0  0  0
  145.7320  132.0306  152.3505 C   0  0  1  0  0  0  0  0  0  0  0  0
  145.3014  133.3774  151.9394 N   0  0  0  0  0  0  0  0  0  0  0  0
  144.0133  133.4875  151.2588 C   0  0  0  0  0  0  0  0  0  0  0  0
  145.4369  134.3299  152.8898 C   0  0  0  0  0  0  0  0  0  0  0  0
  145.4074  133.9842  154.2037 N   0  0  0  0  0  0  0  0  0  0  0  0
  145.5751  134.9223  155.1408 C   0  0  0  0  0  0  0  0  0  0  0  0
  145.7889  136.2311  154.9836 N   0  0  0  0  0  0  0  0  0  0  0  0
  145.8202  136.5766  153.6636 C   0  0  0  0  0  0  0  0  0  0  0  0
  145.6521  135.6934  152.5619 C   0  0  0  0  0  0  0  0  0  0  0  0
  145.7586  136.3904  151.3662 N   0  0  0  0  0  0  0  0  0  0  0  0
  145.9836  137.6206  151.7400 C   0  0  0  0  0  0  0  0  0  0  0  0
  146.0304  137.8248  153.1023 N   0  0  0  0  0  0  0  0  0  0  0  0
  146.2929  139.0623  153.7801 C   0  0  0  0  0  0  0  0  0  0  0  0
  147.0193  140.2210  153.0922 C   0  0  0  0  0  0  0  0  0  0  0  0
  147.6537  140.6126  154.4473 C   0  0  0  0  0  0  0  0  0  0  0  0
  149.1320  141.0312  154.3603 C   0  0  0  0  0  0  0  0  0  0  0  0
  149.9617  139.9599  153.9608 O   0  0  0  0  0  0  0  0  0  0  0  0
  146.8630  141.6912  155.2178 C   0  0  0  0  0  0  0  0  0  0  0  0
  146.7930  142.9123  154.5104 O   0  0  0  0  0  0  0  0  0  0  0  0
  147.3818  139.1443  154.8489 C   0  0  0  0  0  0  0  0  0  0  0  0
  145.5934  130.9905  151.2059 C   0  0  1  0  0  0  0  0  0  0  0  0
  146.3455  131.3730  149.9133 C   0  0  0  0  0  0  0  0  0  0  0  0
  146.0112  129.5907  151.6997 C   0  0  0  0  0  0  0  0  0  0  0  0
  148.2492  126.2981  151.6151 H   0  0  0  0  0  0  0  0  0  0  0  0
  148.7792  127.6591  150.6445 H   0  0  0  0  0  0  0  0  0  0  0  0
  147.0609  127.2779  150.7644 H   0  0  0  0  0  0  0  0  0  0  0  0
  147.1506  127.7475  153.2342 H   0  0  0  0  0  0  0  0  0  0  0  0
  148.8140  128.2649  153.1024 H   0  0  0  0  0  0  0  0  0  0  0  0
  146.9425  130.2362  154.1859 H   0  0  0  0  0  0  0  0  0  0  0  0
  148.5910  130.5577  153.6939 H   0  0  0  0  0  0  0  0  0  0  0  0
  147.2811  132.6225  153.7836 H   0  0  0  0  0  0  0  0  0  0  0  0
  147.8870  132.3436  152.1732 H   0  0  0  0  0  0  0  0  0  0  0  0
  145.0597  131.7243  153.1540 H   0  0  0  0  0  0  0  0  0  0  0  0
  143.6862  134.5258  151.1819 H   0  0  0  0  0  0  0  0  0  0  0  0
  143.2439  132.9261  151.7904 H   0  0  0  0  0  0  0  0  0  0  0  0
  144.0818  133.0965  150.2440 H   0  0  0  0  0  0  0  0  0  0  0  0
  145.5363  134.5743  156.1626 H   0  0  0  0  0  0  0  0  0  0  0  0
  146.1315  138.4158  151.0237 H   0  0  0  0  0  0  0  0  0  0  0  0
  145.3405  139.4094  154.1843 H   0  0  0  0  0  0  0  0  0  0  0  0
  147.7529  139.8878  152.3565 H   0  0  0  0  0  0  0  0  0  0  0  0
  146.3573  140.9731  152.6618 H   0  0  0  0  0  0  0  0  0  0  0  0
  149.2657  141.8320  153.6324 H   0  0  0  0  0  0  0  0  0  0  0  0
  149.4914  141.4212  155.3130 H   0  0  0  0  0  0  0  0  0  0  0  0
  149.7547  139.7357  153.0665 H   0  0  0  0  0  0  0  0  0  0  0  0
  145.8488  141.3547  155.4349 H   0  0  0  0  0  0  0  0  0  0  0  0
  147.3232  141.9009  156.1837 H   0  0  0  0  0  0  0  0  0  0  0  0
  147.6036  143.3811  154.6369 H   0  0  0  0  0  0  0  0  0  0  0  0
  147.0220  139.0013  155.8682 H   0  0  0  0  0  0  0  0  0  0  0  0
  148.2260  138.4849  154.6391 H   0  0  0  0  0  0  0  0  0  0  0  0
  144.5379  130.9161  150.9427 H   0  0  0  0  0  0  0  0  0  0  0  0
  147.4228  131.4318  150.0668 H   0  0  0  0  0  0  0  0  0  0  0  0
  146.0161  132.3368  149.5251 H   0  0  0  0  0  0  0  0  0  0  0  0
  146.1688  130.6360  149.1295 H   0  0  0  0  0  0  0  0  0  0  0  0
  145.9195  128.8760  150.8806 H   0  0  0  0  0  0  0  0  0  0  0  0
  145.3308  129.2533  152.4835 H   0  0  0  0  0  0  0  0  0  0  0  0
  147.9866  129.9096  151.4686 H   0  0  0  0  0  0  0  0  0  0  0  0
  1  2  1  0  0  0  0
  1 29  1  0  0  0  0
  1 30  1  0  0  0  0
  1 31  1  0  0  0  0
  2  3  1  0  0  0  0
  2 32  1  0  0  0  0
  2 33  1  0  0  0  0
  3 28  1  0  0  0  0
  3  4  1  0  0  0  0
  3 61  1  0  0  0  0
  4  5  1  0  0  0  0
  4 34  1  0  0  0  0
  4 35  1  0  0  0  0
  5  6  1  0  0  0  0
  5 36  1  0  0  0  0
  5 37  1  0  0  0  0
  6  7  1  0  0  0  0
  6 26  1  0  0  0  0
  6 38  1  0  0  0  0
  7  8  1  0  0  0  0
  7  9  1  0  0  0  0
  8 39  1  0  0  0  0
  8 40  1  0  0  0  0
  8 41  1  0  0  0  0
  9 14  1  0  0  0  0
  9 10  2  0  0  0  0
 10 11  1  0  0  0  0
 11 12  2  0  0  0  0
 11 42  1  0  0  0  0
 12 13  1  0  0  0  0
 13 17  1  0  0  0  0
 13 14  2  0  0  0  0
 14 15  1  0  0  0  0
 15 16  2  0  0  0  0
 16 17  1  0  0  0  0
 16 43  1  0  0  0  0
 17 18  1  0  0  0  0
 18 25  1  0  0  0  0
 18 19  1  0  0  0  0
 18 44  1  0  0  0  0
 19 20  1  0  0  0  0
 19 45  1  0  0  0  0
 19 46  1  0  0  0  0
 20 21  1  0  0  0  0
 20 23  1  0  0  0  0
 20 25  1  0  0  0  0
 21 22  1  0  0  0  0
 21 47  1  0  0  0  0
 21 48  1  0  0  0  0
 22 49  1  0  0  0  0
 23 24  1  0  0  0  0
 23 50  1  0  0  0  0
 23 51  1  0  0  0  0
 24 52  1  0  0  0  0
 25 53  1  0  0  0  0
 25 54  1  0  0  0  0
 26 27  1  0  0  0  0
 26 28  1  0  0  0  0
 26 55  1  0  0  0  0
 27 56  1  0  0  0  0
 27 57  1  0  0  0  0
 27 58  1  0  0  0  0
 28 59  1  0  0  0  0
 28 60  1  0  0  0  0
M  CHG  1   3   1
M  END
> <s_m_source_file>
AV-unprocessed.smi

> <i_m_source_file_index>
92

> <i_lp_mmshare_version>
43012

> <i_f3d_flags>
0

> <s_epik_input>
W0NIM11bQ0gyXU4xW0NIMl1bQ0gyXVtDQEhdKFtDQEBIXShbQ0gzXSlbQ0gyXTEpTihbQ0gzXSljKG5bY0hdbjIpYyhjMjMpbltjSF1uM1tDSF0oW0NIMl00KVtDSDJdQzQoW0NIMl1bT0hdKVtDSDJdW09IXQ==

> <s_epik_cmdline>
J2VwaWtfcHl0aG9uJywgJy1waCcsICc3LjAnLCAnLXRuJywgJzgnLCAnLW1hJywgJzIwMCcsICctbWV0YWxfYmluZGluZycsICctaW1hZScsICc8aW5maWxlLm1hZT4nLCAnLW9tYWUnLCAnPG91dGZpbGUubWFlPic=

> <r_lp_tautomer_probability>
1

> <r_epik_Ionization_Penalty>
0.00235514

> <r_epik_Ionization_Penalty_Charging>
0.00137877

> <r_epik_Ionization_Penalty_Neutral>
0.000976366

> <r_epik_State_Penalty>
-0

> <r_epik_Charging_Adjusted_Penalty>
0.00137877

> <i_epik_Tot_Q>
1

> <i_epik_Tot_abs_Q>
1

> <r_epik_Metal_State_Penalty>
-0

> <b_epik_Metal_Only>
0

> <s_lp_Force_Field>
OPLS_2005

> <r_lp_Energy>
54.7459

> <b_lp_Chiralities_Consistent>
1

> <s_lp_Variant>
AV-unprocessed.smi:92-1

> <Gold.Version>
5.8.1

> <Gold.Id.Protein>
6NUR|6NUR_protein|mol2

> <Gold.PLP.Fitness>
53.0936

> <Gold.PLP.PLP>
-41.5190

> <Gold.PLP.part.hbond>
-4.0000

> <Gold.PLP.part.metal>
0.0000

> <Gold.PLP.part.buried>
-2.9621

> <Gold.PLP.part.nonpolar>
-35.9528

> <Gold.PLP.part.repulsive>
0.4632

> <Gold.PLP.ligand.clash>
0.0000

> <Gold.PLP.ligand.torsion>
1.3359

> <Gold.PLP.Chemscore.Hbond>
3.8480

> <Gold.PLP.Chemscore.CHOScore>
0.5983

> <Gold.PLP.Chemscore.Metal>
0.0000

> <Gold.Chemscore.Hbonds>
donor molecule, donor type, donor heavy atom, donor atom, acceptor molecule, acceptor atom, score
      L1  H     3    61       P1 10747  1.00
      L1  H    22    49       P1  7957  1.00
      L1  H    24    52       P1  8028  0.91
      P1  H  7989  7998       L1    22  0.58
      L1  C    16    43       P1 10171  0.47

> <Gold.PLP.Chemscore.Internal.Correction>
0.9074

> <Gold.Rescore>
     Score         DG    S(hbond)    S(metal)    S(lipo)     H(rot)  DE(clash)    DE(int)     intcor
     15.11     -18.84       2.80        0.00     111.05       3.51       1.06       2.67       ----

> <Gold.Chemscore.Fitness>
15.1096

> <Gold.Chemscore.DG>
-18.8423

> <Gold.Chemscore.ZeroCoef>
-5.4800

> <Gold.Chemscore.Hbond>
2.8045

> <Gold.Chemscore.Metal>
0.0000

> <Gold.Chemscore.Lipo>
111.0498

> <Gold.Chemscore.Internal_Hbond>
0.0000

> <Gold.Chemscore.DEClash>
1.0618

> <Gold.Chemscore.DEInternal>
2.6708

> <Gold.Chemscore.Rot>
3.5147

> <Gold.Chemscore.Internal.Correction>
   9.000000E+99

> <Gold.Chemscore.Hbonds>
donor molecule, donor type, donor heavy atom, donor atom, acceptor molecule, acceptor atom, score
      L1  H     3    61       P1 10747  0.96
      L1  H    22    49       P1  7957  0.98
      L1  H    24    52       P1  8028  0.33
      P1  H  7989  7998       L1    22  0.02

> <Gold.Chemscore.Hbond.Weighted>
-9.3672

> <Gold.Chemscore.Metal.Weighted>
-0.0000

> <Gold.Chemscore.Lipo.Weighted>
-12.9928

> <Gold.Chemscore.Internal_Hbond.Weighted>
0.0000

> <Gold.Chemscore.DEClash.Weighted>
1.0618

> <Gold.Chemscore.DEInternal.Weighted>
2.6708

> <Gold.Chemscore.Rot.Weighted>
8.9977

> <Gold.Chemscore.Internal.Correction.Weighted>
   9.000000E+99

> <Gold.Protein.RotatedTorsions>
[ 6907 6896 6895 6894 ] final  -54.68 input  -60.11 | X-H torsion
[ 7974 7965 7964 7962 ] final  -36.44 input  175.53 | X-H torsion
[ 8008 7997 7996 7995 ] final -113.34 input   59.86 | X-H torsion
[ 10167 10162 10161 10158 ] final  130.88 input  -65.29 | X-H torsion
[ 10718 10713 10712 10709 ] final   41.94 input   66.30 | X-H torsion
[ 10763 10752 10751 10750 ] final   98.21 input  -60.55 | X-H torsion
[ 11005 11000 10999 10996 ] final  -19.66 input  -57.11 | X-H torsion

> <Gold.Protein.ActiveResidues>
 VAL166  LYS551  ARG553  GLY616  TRP617  ASP618  TYR619  PRO620  LYS621  CYS622 
 ASP623  PHE694  ASN695  SER759  ASP760  ASP761  ALA762  ILE779  LEU786  VAL792 
 PHE793  MET794  SER795  GLU796  ALA797  LYS798  CYS799  TRP800  GLU811  SER814 

> <Gold.Protein.RotatedAtoms>
  150.8316  134.7572  159.6858 H   0  0  0  0  0  0  0  0  0  0  0  0  # atno 6907 bound_to 6896
  152.4420  134.5568  159.9892 H   0  0  0  0  0  0  0  0  0  0  0  0  # atno 6908 bound_to 6896
  151.5728  133.3350  159.3029 H   0  0  0  0  0  0  0  0  0  0  0  0  # atno 6909 bound_to 6896
  146.0661  140.6278  142.8974 H   0  0  0  0  0  0  0  0  0  0  0  0  # atno 7974 bound_to 7965
  155.0192  140.0393  157.2430 H   0  0  0  0  0  0  0  0  0  0  0  0  # atno 8008 bound_to 7997
  154.7393  140.2746  155.6364 H   0  0  0  0  0  0  0  0  0  0  0  0  # atno 8009 bound_to 7997
  156.2860  140.2668  156.2116 H   0  0  0  0  0  0  0  0  0  0  0  0  # atno 8010 bound_to 7997
  139.5409  144.6730  151.4627 H   0  0  0  0  0  0  0  0  0  0  0  0  # atno 10167 bound_to 10162
  157.3993  130.7850  149.7334 H   0  0  0  0  0  0  0  0  0  0  0  0  # atno 10718 bound_to 10713
  153.2863  135.4156  155.1125 H   0  0  0  0  0  0  0  0  0  0  0  0  # atno 10763 bound_to 10752
  154.8506  135.3507  154.6043 H   0  0  0  0  0  0  0  0  0  0  0  0  # atno 10764 bound_to 10752
  153.6465  135.7054  153.5281 H   0  0  0  0  0  0  0  0  0  0  0  0  # atno 10765 bound_to 10752
  140.8388  133.7942  155.9838 H   0  0  0  0  0  0  0  0  0  0  0  0  # atno 11005 bound_to 11000
  144.7203  140.4352  143.7013 LP  0  0  0  0  0  0  0  0  0  0  0  0  # atno 17320 bound_to 7965
  145.6474  139.1559  143.2881 LP  0  0  0  0  0  0  0  0  0  0  0  0  # atno 17321 bound_to 7965
  140.6639  143.8440  150.6919 LP  0  0  0  0  0  0  0  0  0  0  0  0  # atno 17342 bound_to 10162
  140.1843  143.4089  152.1910 LP  0  0  0  0  0  0  0  0  0  0  0  0  # atno 17343 bound_to 10162
  155.9819  130.4015  150.3448 LP  0  0  0  0  0  0  0  0  0  0  0  0  # atno 17370 bound_to 10713
  157.1573  131.0336  151.2857 LP  0  0  0  0  0  0  0  0  0  0  0  0  # atno 17371 bound_to 10713
  140.8918  134.2486  157.5090 LP  0  0  0  0  0  0  0  0  0  0  0  0  # atno 17394 bound_to 11000
  139.8703  134.9665  156.4564 LP  0  0  0  0  0  0  0  0  0  0  0  0  # atno 17395 bound_to 11000

$$$$
