AV-unprocessed.smi:182|AV-procd|sdf|1455|dock7
  -GOLD-   2262019253D 1   1.00000     0.00000
 Structure written by MMmdl.
 56 59  0  0  0  0  0  0  0  0  1 V2000
  151.5376  144.5032  157.8382 N   0  0  0  0  0  0  0  0  0  0  0  0
  152.1214  144.7956  159.0026 C   0  0  0  0  0  0  0  0  0  0  0  0
  152.0921  145.9281  159.4810 O   0  0  0  0  0  0  0  0  0  0  0  0
  152.8427  143.6491  159.7181 C   0  0  0  0  0  0  0  0  0  0  0  0
  152.6573  142.2856  159.0221 C   0  0  0  0  0  0  0  0  0  0  0  0
  153.5056  141.1524  159.6328 C   0  0  2  0  0  0  0  0  0  0  0  0
  152.7994  139.7914  159.4745 C   0  0  0  0  0  0  0  0  0  0  0  0
  153.6316  138.6674  160.1088 C   0  0  0  0  0  0  0  0  0  0  0  0
  153.9440  138.9812  161.5790 C   0  0  0  0  0  0  0  0  0  0  0  0
  154.5836  140.2899  161.7041 N   0  0  0  0  0  0  0  0  0  0  0  0
  155.2079  140.5038  162.8911 C   0  0  0  0  0  0  0  0  0  0  0  0
  156.0504  139.5617  163.3946 N   0  0  0  0  0  0  0  0  0  0  0  0
  156.6742  139.7638  164.5584 C   0  0  0  0  0  0  0  0  0  0  0  0
  156.6045  140.8205  165.3693 N   0  0  0  0  0  0  0  0  0  0  0  0
  155.7600  141.7698  164.8736 C   0  0  0  0  0  0  0  0  0  0  0  0
  155.0224  141.6895  163.6581 C   0  0  0  0  0  0  0  0  0  0  0  0
  154.2438  142.8307  163.5037 N   0  0  0  0  0  0  0  0  0  0  0  0
  154.5123  143.5467  164.5611 C   0  0  0  0  0  0  0  0  0  0  0  0
  155.4373  142.9993  165.4211 N   0  0  0  0  0  0  0  0  0  0  0  0
  155.8829  143.5516  166.6666 C   0  0  0  0  0  0  0  0  0  0  0  0
  156.6369  142.6958  167.6874 C   0  0  0  0  0  0  0  0  0  0  0  0
  155.9927  143.5079  168.8342 C   0  0  0  0  0  0  0  0  0  0  0  0
  155.5172  142.6860  170.0437 C   0  0  0  0  0  0  0  0  0  0  0  0
  154.6175  141.6699  169.6502 O   0  0  0  0  0  0  0  0  0  0  0  0
  156.8166  144.7123  169.3321 C   0  0  0  0  0  0  0  0  0  0  0  0
  157.8159  144.3110  170.2474 O   0  0  0  0  0  0  0  0  0  0  0  0
  154.8971  143.8458  167.7995 C   0  0  0  0  0  0  0  0  0  0  0  0
  153.8331  141.4047  161.1211 C   0  0  0  0  0  0  0  0  0  0  0  0
  151.0519  145.2264  157.3276 H   0  0  0  0  0  0  0  0  0  0  0  0
  151.5845  143.5641  157.4701 H   0  0  0  0  0  0  0  0  0  0  0  0
  153.9063  143.8841  159.7798 H   0  0  0  0  0  0  0  0  0  0  0  0
  152.4691  143.6084  160.7412 H   0  0  0  0  0  0  0  0  0  0  0  0
  151.6047  141.9983  159.0414 H   0  0  0  0  0  0  0  0  0  0  0  0
  152.9218  142.3930  157.9688 H   0  0  0  0  0  0  0  0  0  0  0  0
  154.4465  141.1012  159.0827 H   0  0  0  0  0  0  0  0  0  0  0  0
  151.8159  139.8273  159.9456 H   0  0  0  0  0  0  0  0  0  0  0  0
  152.6314  139.5724  158.4195 H   0  0  0  0  0  0  0  0  0  0  0  0
  153.0984  137.7194  160.0361 H   0  0  0  0  0  0  0  0  0  0  0  0
  154.5636  138.5430  159.5561 H   0  0  0  0  0  0  0  0  0  0  0  0
  153.0214  138.9870  162.1610 H   0  0  0  0  0  0  0  0  0  0  0  0
  154.5660  138.1875  161.9908 H   0  0  0  0  0  0  0  0  0  0  0  0
  157.3243  138.9657  164.8852 H   0  0  0  0  0  0  0  0  0  0  0  0
  154.0425  144.5033  164.7398 H   0  0  0  0  0  0  0  0  0  0  0  0
  156.4563  144.4445  166.4121 H   0  0  0  0  0  0  0  0  0  0  0  0
  156.3164  141.6522  167.6737 H   0  0  0  0  0  0  0  0  0  0  0  0
  157.7225  142.7687  167.6185 H   0  0  0  0  0  0  0  0  0  0  0  0
  156.3606  142.2063  170.5413 H   0  0  0  0  0  0  0  0  0  0  0  0
  155.0373  143.3141  170.7944 H   0  0  0  0  0  0  0  0  0  0  0  0
  155.1147  140.8960  169.4339 H   0  0  0  0  0  0  0  0  0  0  0  0
  157.3104  145.2219  168.5044 H   0  0  0  0  0  0  0  0  0  0  0  0
  156.1828  145.4595  169.8104 H   0  0  0  0  0  0  0  0  0  0  0  0
  158.0220  143.4027  170.0876 H   0  0  0  0  0  0  0  0  0  0  0  0
  154.5395  144.8757  167.8308 H   0  0  0  0  0  0  0  0  0  0  0  0
  154.0618  143.1429  167.8180 H   0  0  0  0  0  0  0  0  0  0  0  0
  154.4195  142.3190  161.2166 H   0  0  0  0  0  0  0  0  0  0  0  0
  152.9121  141.5507  161.6876 H   0  0  0  0  0  0  0  0  0  0  0  0
  1  2  1  0  0  0  0
  1 29  1  0  0  0  0
  1 30  1  0  0  0  0
  2  3  2  0  0  0  0
  2  4  1  0  0  0  0
  4  5  1  0  0  0  0
  4 31  1  0  0  0  0
  4 32  1  0  0  0  0
  5  6  1  0  0  0  0
  5 33  1  0  0  0  0
  5 34  1  0  0  0  0
  6 28  1  0  0  0  0
  6  7  1  0  0  0  0
  6 35  1  0  0  0  0
  7  8  1  0  0  0  0
  7 36  1  0  0  0  0
  7 37  1  0  0  0  0
  8  9  1  0  0  0  0
  8 38  1  0  0  0  0
  8 39  1  0  0  0  0
  9 10  1  0  0  0  0
  9 40  1  0  0  0  0
  9 41  1  0  0  0  0
 10 11  1  0  0  0  0
 10 28  1  0  0  0  0
 11 16  1  0  0  0  0
 11 12  2  0  0  0  0
 12 13  1  0  0  0  0
 13 14  2  0  0  0  0
 13 42  1  0  0  0  0
 14 15  1  0  0  0  0
 15 19  1  0  0  0  0
 15 16  2  0  0  0  0
 16 17  1  0  0  0  0
 17 18  2  0  0  0  0
 18 19  1  0  0  0  0
 18 43  1  0  0  0  0
 19 20  1  0  0  0  0
 20 27  1  0  0  0  0
 20 21  1  0  0  0  0
 20 44  1  0  0  0  0
 21 22  1  0  0  0  0
 21 45  1  0  0  0  0
 21 46  1  0  0  0  0
 22 23  1  0  0  0  0
 22 25  1  0  0  0  0
 22 27  1  0  0  0  0
 23 24  1  0  0  0  0
 23 47  1  0  0  0  0
 23 48  1  0  0  0  0
 24 49  1  0  0  0  0
 25 26  1  0  0  0  0
 25 50  1  0  0  0  0
 25 51  1  0  0  0  0
 26 52  1  0  0  0  0
 27 53  1  0  0  0  0
 27 54  1  0  0  0  0
 28 55  1  0  0  0  0
 28 56  1  0  0  0  0
M  END
> <s_m_source_file>
AV-unprocessed.smi

> <i_m_source_file_index>
182

> <i_lp_mmshare_version>
43012

> <i_f3d_flags>
0

> <s_epik_input>
W05IMl1DKD1PKVtDSDJdW0NIMl1bQ0BASF0xW0NIMl1bQ0gyXVtDSDJdTihbQ0gyXTEpYyhuW2NIXW4yKWMoYzIzKW5bY0hdbjNbQ0hdKFtDSDJdNClbQ0gyXUM0KFtDSDJdW09IXSlbQ0gyXVtPSF0=

> <s_epik_cmdline>
J2VwaWtfcHl0aG9uJywgJy1waCcsICc3LjAnLCAnLXRuJywgJzgnLCAnLW1hJywgJzIwMCcsICctbWV0YWxfYmluZGluZycsICctaW1hZScsICc8aW5maWxlLm1hZT4nLCAnLW9tYWUnLCAnPG91dGZpbGUubWFlPic=

> <r_lp_tautomer_probability>
1

> <r_epik_Ionization_Penalty>
0.00186057

> <r_epik_Ionization_Penalty_Charging>
0

> <r_epik_Ionization_Penalty_Neutral>
0.00186057

> <r_epik_State_Penalty>
0.00110736

> <r_epik_Charging_Adjusted_Penalty>
0.00110736

> <i_epik_Tot_Q>
0

> <i_epik_Tot_abs_Q>
0

> <r_epik_Metal_State_Penalty>
-0

> <b_epik_Metal_Only>
0

> <s_lp_Force_Field>
OPLS_2005

> <r_lp_Energy>
36.2346

> <b_lp_Chiralities_Consistent>
1

> <s_lp_Variant>
AV-unprocessed.smi:182-1

> <Gold.Version>
5.8.1

> <Gold.Id.Protein>
6NUR|6NUR_protein|mol2

> <Gold.PLP.Fitness>
51.5293

> <Gold.PLP.PLP>
-52.6236

> <Gold.PLP.part.hbond>
-5.2197

> <Gold.PLP.part.metal>
0.0000

> <Gold.PLP.part.buried>
-2.7755

> <Gold.PLP.part.nonpolar>
-44.4058

> <Gold.PLP.part.repulsive>
0.2495

> <Gold.PLP.ligand.clash>
0.0000

> <Gold.PLP.ligand.torsion>
1.0364

> <Gold.PLP.Chemscore.Hbond>
0.0000

> <Gold.PLP.Chemscore.CHOScore>
0.0000

> <Gold.PLP.Chemscore.Metal>
0.0000

> <Gold.PLP.Chemscore.Internal.Correction>
0.9785

> <Gold.Rescore>
     Score         DG    S(hbond)    S(metal)    S(lipo)     H(rot)  DE(clash)    DE(int)     intcor
      1.14      -5.59       0.02        0.00     105.15       4.79       0.92       3.53       ----

> <Gold.Chemscore.Fitness>
1.1414

> <Gold.Chemscore.DG>
-5.5916

> <Gold.Chemscore.ZeroCoef>
-5.4800

> <Gold.Chemscore.Hbond>
0.0229

> <Gold.Chemscore.Metal>
0.0000

> <Gold.Chemscore.Lipo>
105.1545

> <Gold.Chemscore.Internal_Hbond>
0.0000

> <Gold.Chemscore.DEClash>
0.9248

> <Gold.Chemscore.DEInternal>
3.5254

> <Gold.Chemscore.Rot>
4.7922

> <Gold.Chemscore.Internal.Correction>
   9.000000E+99

> <Gold.Chemscore.Hbond.Weighted>
-0.0765

> <Gold.Chemscore.Metal.Weighted>
-0.0000

> <Gold.Chemscore.Lipo.Weighted>
-12.3031

> <Gold.Chemscore.Internal_Hbond.Weighted>
0.0000

> <Gold.Chemscore.DEClash.Weighted>
0.9248

> <Gold.Chemscore.DEInternal.Weighted>
3.5254

> <Gold.Chemscore.Rot.Weighted>
12.2680

> <Gold.Chemscore.Internal.Correction.Weighted>
   9.000000E+99

> <Gold.Protein.RotatedTorsions>
[ 6907 6896 6895 6894 ] final -145.34 input  -60.11 | X-H torsion
[ 7974 7965 7964 7962 ] final  -96.09 input  175.53 | X-H torsion
[ 8008 7997 7996 7995 ] final   -7.69 input   59.86 | X-H torsion
[ 10167 10162 10161 10158 ] final -139.50 input  -65.29 | X-H torsion
[ 10718 10713 10712 10709 ] final   38.29 input   66.30 | X-H torsion
[ 10763 10752 10751 10750 ] final  -93.01 input  -60.55 | X-H torsion
[ 11005 11000 10999 10996 ] final  158.93 input  -57.11 | X-H torsion

> <Gold.Protein.ActiveResidues>
 VAL166  LYS551  ARG553  GLY616  TRP617  ASP618  TYR619  PRO620  LYS621  CYS622 
 ASP623  PHE694  ASN695  SER759  ASP760  ASP761  ALA762  ILE779  LEU786  VAL792 
 PHE793  MET794  SER795  GLU796  ALA797  LYS798  CYS799  TRP800  GLU811  SER814 

> <Gold.Protein.RotatedAtoms>
  151.1265  133.5067  159.2600 H   0  0  0  0  0  0  0  0  0  0  0  0  # atno 6907 bound_to 6896
  151.1804  135.0358  159.8800 H   0  0  0  0  0  0  0  0  0  0  0  0  # atno 6908 bound_to 6896
  152.5458  134.1117  159.8415 H   0  0  0  0  0  0  0  0  0  0  0  0  # atno 6909 bound_to 6896
  145.3515  140.9477  143.2551 H   0  0  0  0  0  0  0  0  0  0  0  0  # atno 7974 bound_to 7965
  154.5814  140.2400  155.8049 H   0  0  0  0  0  0  0  0  0  0  0  0  # atno 8008 bound_to 7997
  156.2182  140.3006  155.9844 H   0  0  0  0  0  0  0  0  0  0  0  0  # atno 8009 bound_to 7997
  155.2535  140.0411  157.2980 H   0  0  0  0  0  0  0  0  0  0  0  0  # atno 8010 bound_to 7997
  139.8373  143.7367  152.2664 H   0  0  0  0  0  0  0  0  0  0  0  0  # atno 10167 bound_to 10162
  157.3571  130.7629  149.7020 H   0  0  0  0  0  0  0  0  0  0  0  0  # atno 10718 bound_to 10713
  154.6917  135.5210  153.8402 H   0  0  0  0  0  0  0  0  0  0  0  0  # atno 10763 bound_to 10752
  153.0637  135.6577  154.0412 H   0  0  0  0  0  0  0  0  0  0  0  0  # atno 10764 bound_to 10752
  154.0285  135.2987  155.3351 H   0  0  0  0  0  0  0  0  0  0  0  0  # atno 10765 bound_to 10752
  140.1913  134.8405  157.2915 H   0  0  0  0  0  0  0  0  0  0  0  0  # atno 11005 bound_to 11000
  144.8714  139.5033  143.6766 LP  0  0  0  0  0  0  0  0  0  0  0  0  # atno 17320 bound_to 7965
  146.2966  139.7296  142.9122 LP  0  0  0  0  0  0  0  0  0  0  0  0  # atno 17321 bound_to 7965
  139.7594  144.7511  151.0387 LP  0  0  0  0  0  0  0  0  0  0  0  0  # atno 17342 bound_to 10162
  140.7801  143.4768  151.0071 LP  0  0  0  0  0  0  0  0  0  0  0  0  # atno 17343 bound_to 10162
  155.9731  130.4124  150.4031 LP  0  0  0  0  0  0  0  0  0  0  0  0  # atno 17370 bound_to 10713
  157.2103  131.0459  151.2603 LP  0  0  0  0  0  0  0  0  0  0  0  0  # atno 17371 bound_to 10713
  140.2156  134.4085  155.7590 LP  0  0  0  0  0  0  0  0  0  0  0  0  # atno 17394 bound_to 11000
  141.2226  133.7140  156.8409 LP  0  0  0  0  0  0  0  0  0  0  0  0  # atno 17395 bound_to 11000

$$$$
