AV-unprocessed.smi:2421|AV-procd|sdf|9556|dock6
  -GOLD-   2272013183D 1   1.00000     0.00000
 Structure written by MMmdl.
 44 46  0  0  0  0  0  0  0  0  1 V2000
  147.3179  133.0984  152.0998 C   0  0  0  0  0  0  0  0  0  0  0  0
  148.1843  132.4597  153.1464 C   0  0  0  0  0  0  0  0  0  0  0  0
  147.9084  131.2422  153.5892 N   0  0  0  0  0  0  0  0  0  0  0  0
  148.8832  130.9388  154.5554 O   0  0  0  0  0  0  0  0  0  0  0  0
  149.7333  131.9943  154.6739 C   0  0  0  0  0  0  0  0  0  0  0  0
  150.8433  131.8730  155.6618 C   0  0  0  0  0  0  0  0  0  0  0  0
  149.3371  132.9633  153.8018 C   0  0  0  0  0  0  0  0  0  0  0  0
  149.9267  134.2313  153.6221 N   0  0  0  0  0  0  0  0  0  0  0  0
  149.8642  135.2228  154.5261 C   0  0  0  0  0  0  0  0  0  0  0  0
  149.2156  135.1504  155.5686 O   0  0  0  0  0  0  0  0  0  0  0  0
  150.5635  136.3250  154.2007 N   0  0  0  0  0  0  0  0  0  0  0  0
  150.6995  137.5681  154.9629 C   0  0  1  0  0  0  0  0  0  0  0  0
  152.1611  138.0320  154.9425 C   0  0  0  0  0  0  0  0  0  0  0  0
  152.3074  139.3800  155.6624 C   0  0  0  0  0  0  0  0  0  0  0  0
  151.4386  140.3547  155.0881 O   0  0  0  0  0  0  0  0  0  0  0  0
  150.0431  140.0304  155.0831 C   0  0  0  0  0  0  0  0  0  0  0  0
  149.4333  140.1110  156.4942 C   0  0  0  0  0  0  0  0  0  0  0  0
  149.2976  141.6080  156.7872 C   0  0  0  0  0  0  0  0  0  0  0  0
  149.1991  142.2987  155.4198 C   0  0  0  0  0  0  0  0  0  0  0  0
  149.3361  141.1893  154.3698 C   0  0  0  0  0  0  0  0  0  0  0  0
  149.8186  138.6806  154.3679 C   0  0  0  0  0  0  0  0  0  0  0  0
  147.6949  134.0815  151.8174 H   0  0  0  0  0  0  0  0  0  0  0  0
  146.2973  133.2266  152.4608 H   0  0  0  0  0  0  0  0  0  0  0  0
  147.2797  132.4880  151.1974 H   0  0  0  0  0  0  0  0  0  0  0  0
  151.4923  132.7485  155.6302 H   0  0  0  0  0  0  0  0  0  0  0  0
  151.4526  130.9942  155.4510 H   0  0  0  0  0  0  0  0  0  0  0  0
  150.4504  131.7789  156.6740 H   0  0  0  0  0  0  0  0  0  0  0  0
  150.4673  134.3767  152.7819 H   0  0  0  0  0  0  0  0  0  0  0  0
  151.0340  136.3074  153.3072 H   0  0  0  0  0  0  0  0  0  0  0  0
  150.4165  137.3914  156.0020 H   0  0  0  0  0  0  0  0  0  0  0  0
  152.8033  137.2873  155.4142 H   0  0  0  0  0  0  0  0  0  0  0  0
  152.5058  138.1354  153.9124 H   0  0  0  0  0  0  0  0  0  0  0  0
  152.1181  139.2713  156.7298 H   0  0  0  0  0  0  0  0  0  0  0  0
  153.3327  139.7384  155.5702 H   0  0  0  0  0  0  0  0  0  0  0  0
  148.4375  139.6655  156.4823 H   0  0  0  0  0  0  0  0  0  0  0  0
  149.9995  139.5857  157.2619 H   0  0  0  0  0  0  0  0  0  0  0  0
  148.4328  141.8171  157.4177 H   0  0  0  0  0  0  0  0  0  0  0  0
  150.1821  141.9652  157.3160 H   0  0  0  0  0  0  0  0  0  0  0  0
  148.2596  142.8400  155.3031 H   0  0  0  0  0  0  0  0  0  0  0  0
  150.0084  143.0222  155.3121 H   0  0  0  0  0  0  0  0  0  0  0  0
  149.8663  141.5222  153.4767 H   0  0  0  0  0  0  0  0  0  0  0  0
  148.3396  140.8744  154.0558 H   0  0  0  0  0  0  0  0  0  0  0  0
  150.0573  138.7962  153.3093 H   0  0  0  0  0  0  0  0  0  0  0  0
  148.7648  138.4029  154.4118 H   0  0  0  0  0  0  0  0  0  0  0  0
  1  2  1  0  0  0  0
  1 22  1  0  0  0  0
  1 23  1  0  0  0  0
  1 24  1  0  0  0  0
  2  7  1  0  0  0  0
  2  3  2  0  0  0  0
  3  4  1  0  0  0  0
  4  5  1  0  0  0  0
  5  6  1  0  0  0  0
  5  7  2  0  0  0  0
  6 25  1  0  0  0  0
  6 26  1  0  0  0  0
  6 27  1  0  0  0  0
  7  8  1  0  0  0  0
  8  9  1  0  0  0  0
  8 28  1  0  0  0  0
  9 10  2  0  0  0  0
  9 11  1  0  0  0  0
 11 12  1  0  0  0  0
 11 29  1  0  0  0  0
 12 21  1  0  0  0  0
 12 13  1  0  0  0  0
 12 30  1  0  0  0  0
 13 14  1  0  0  0  0
 13 31  1  0  0  0  0
 13 32  1  0  0  0  0
 14 15  1  0  0  0  0
 14 33  1  0  0  0  0
 14 34  1  0  0  0  0
 15 16  1  0  0  0  0
 16 20  1  0  0  0  0
 16 17  1  0  0  0  0
 16 21  1  0  0  0  0
 17 18  1  0  0  0  0
 17 35  1  0  0  0  0
 17 36  1  0  0  0  0
 18 19  1  0  0  0  0
 18 37  1  0  0  0  0
 18 38  1  0  0  0  0
 19 20  1  0  0  0  0
 19 39  1  0  0  0  0
 19 40  1  0  0  0  0
 20 41  1  0  0  0  0
 20 42  1  0  0  0  0
 21 43  1  0  0  0  0
 21 44  1  0  0  0  0
M  END
> <s_m_source_file>
AV-unprocessed.smi

> <i_m_source_file_index>
2421

> <i_lp_mmshare_version>
43012

> <i_f3d_flags>
0

> <s_epik_input>
W0NIM11jMW5vYyhbQ0gzXSljMVtOSF1DKD1PKVtOSF1bQ0BASF0oW0NIMl0yKVtDSDJdW0NIMl1PQzIzW0NIMl1bQ0gyXVtDSDJdW0NIMl0z

> <s_epik_cmdline>
J2VwaWtfcHl0aG9uJywgJy1waCcsICc3LjAnLCAnLXRuJywgJzgnLCAnLW1hJywgJzIwMCcsICctbWV0YWxfYmluZGluZycsICctaW1hZScsICc8aW5maWxlLm1hZT4nLCAnLW9tYWUnLCAnPG91dGZpbGUubWFlPic=

> <r_lp_tautomer_probability>
1

> <r_epik_Ionization_Penalty>
3.59808e-05

> <r_epik_Ionization_Penalty_Charging>
0

> <r_epik_Ionization_Penalty_Neutral>
3.59808e-05

> <r_epik_State_Penalty>
-0

> <r_epik_Charging_Adjusted_Penalty>
0

> <i_epik_Tot_Q>
0

> <i_epik_Tot_abs_Q>
0

> <r_epik_Metal_State_Penalty>
-0

> <b_epik_Metal_Only>
0

> <s_lp_Force_Field>
OPLS_2005

> <r_lp_Energy>
43.4187

> <b_lp_Chiralities_Consistent>
1

> <s_lp_Variant>
AV-unprocessed.smi:2421-2

> <Gold.Version>
5.8.1

> <Gold.Id.Protein>
6NUR|6NUR_protein|mol2

> <Gold.PLP.Fitness>
37.0921

> <Gold.PLP.PLP>
-32.3827

> <Gold.PLP.part.hbond>
-4.5165

> <Gold.PLP.part.metal>
0.0000

> <Gold.PLP.part.buried>
5.2368

> <Gold.PLP.part.nonpolar>
-33.3381

> <Gold.PLP.part.repulsive>
0.3245

> <Gold.PLP.ligand.clash>
0.0000

> <Gold.PLP.ligand.torsion>
0.8929

> <Gold.PLP.Chemscore.Hbond>
2.0000

> <Gold.PLP.Chemscore.CHOScore>
0.0000

> <Gold.PLP.Chemscore.Metal>
0.0000

> <Gold.Chemscore.Hbonds>
donor molecule, donor type, donor heavy atom, donor atom, acceptor molecule, acceptor atom, score
      L1  H    11    29       P1  7949  1.00
      P1  H  7989  7998       L1    15  0.98

> <Gold.PLP.Chemscore.Internal.Correction>
0.4952

> <Gold.Rescore>
     Score         DG    S(hbond)    S(metal)    S(lipo)     H(rot)  DE(clash)    DE(int)     intcor
     13.40     -16.10       0.94        0.00      85.78       1.00       1.65       1.05       ----

> <Gold.Chemscore.Fitness>
13.4021

> <Gold.Chemscore.DG>
-16.1017

> <Gold.Chemscore.ZeroCoef>
-5.4800

> <Gold.Chemscore.Hbond>
0.9417

> <Gold.Chemscore.Metal>
0.0000

> <Gold.Chemscore.Lipo>
85.7805

> <Gold.Chemscore.Internal_Hbond>
0.0000

> <Gold.Chemscore.DEClash>
1.6490

> <Gold.Chemscore.DEInternal>
1.0506

> <Gold.Chemscore.Rot>
1.0000

> <Gold.Chemscore.Internal.Correction>
   9.000000E+99

> <Gold.Chemscore.Hbonds>
donor molecule, donor type, donor heavy atom, donor atom, acceptor molecule, acceptor atom, score
      L1  H    11    29       P1  7949  0.25
      P1  H  7989  7998       L1    15  0.28

> <Gold.Chemscore.Hbond.Weighted>
-3.1453

> <Gold.Chemscore.Metal.Weighted>
-0.0000

> <Gold.Chemscore.Lipo.Weighted>
-10.0363

> <Gold.Chemscore.Internal_Hbond.Weighted>
0.0000

> <Gold.Chemscore.DEClash.Weighted>
1.6490

> <Gold.Chemscore.DEInternal.Weighted>
1.0506

> <Gold.Chemscore.Rot.Weighted>
2.5600

> <Gold.Chemscore.Internal.Correction.Weighted>
   9.000000E+99

> <Gold.Protein.RotatedTorsions>
[ 6907 6896 6895 6894 ] final   33.31 input  -60.11 | X-H torsion
[ 7974 7965 7964 7962 ] final  110.50 input  175.53 | X-H torsion
[ 8008 7997 7996 7995 ] final -121.93 input   59.86 | X-H torsion
[ 10167 10162 10161 10158 ] final  -81.56 input  -65.29 | X-H torsion
[ 10718 10713 10712 10709 ] final   45.05 input   66.30 | X-H torsion
[ 10763 10752 10751 10750 ] final -156.98 input  -60.55 | X-H torsion
[ 11005 11000 10999 10996 ] final    4.68 input  -57.11 | X-H torsion

> <Gold.Protein.ActiveResidues>
 VAL166  LYS551  ARG553  GLY616  TRP617  ASP618  TYR619  PRO620  LYS621  CYS622 
 ASP623  PHE694  ASN695  SER759  ASP760  ASP761  ALA762  ILE779  LEU786  VAL792 
 PHE793  MET794  SER795  GLU796  ALA797  LYS798  CYS799  TRP800  GLU811  SER814 

> <Gold.Protein.RotatedAtoms>
  152.0868  134.9434  160.0572 H   0  0  0  0  0  0  0  0  0  0  0  0  # atno 6907 bound_to 6896
  152.0701  133.4098  159.4464 H   0  0  0  0  0  0  0  0  0  0  0  0  # atno 6908 bound_to 6896
  150.6836  134.3021  159.4754 H   0  0  0  0  0  0  0  0  0  0  0  0  # atno 6909 bound_to 6896
  145.2542  139.2728  143.4051 H   0  0  0  0  0  0  0  0  0  0  0  0  # atno 7974 bound_to 7965
  155.1560  140.0405  157.2832 H   0  0  0  0  0  0  0  0  0  0  0  0  # atno 8008 bound_to 7997
  154.6370  140.2538  155.7339 H   0  0  0  0  0  0  0  0  0  0  0  0  # atno 8009 bound_to 7997
  156.2513  140.2863  156.0747 H   0  0  0  0  0  0  0  0  0  0  0  0  # atno 8010 bound_to 7997
  140.4400  143.2518  151.8638 H   0  0  0  0  0  0  0  0  0  0  0  0  # atno 10167 bound_to 10162
  157.4334  130.8038  149.7624 H   0  0  0  0  0  0  0  0  0  0  0  0  # atno 10718 bound_to 10713
  154.7671  135.3134  154.8264 H   0  0  0  0  0  0  0  0  0  0  0  0  # atno 10763 bound_to 10752
  153.9009  135.6816  153.4759 H   0  0  0  0  0  0  0  0  0  0  0  0  # atno 10764 bound_to 10752
  153.1279  135.4793  154.9235 H   0  0  0  0  0  0  0  0  0  0  0  0  # atno 10765 bound_to 10752
  140.5792  134.0029  155.8040 H   0  0  0  0  0  0  0  0  0  0  0  0  # atno 11005 bound_to 11000
  146.3294  140.2941  142.8617 LP  0  0  0  0  0  0  0  0  0  0  0  0  # atno 17320 bound_to 7965
  144.9476  140.8144  143.5592 LP  0  0  0  0  0  0  0  0  0  0  0  0  # atno 17321 bound_to 7965
  139.4789  144.5239  151.8762 LP  0  0  0  0  0  0  0  0  0  0  0  0  # atno 17342 bound_to 10162
  140.4329  144.2091  150.5888 LP  0  0  0  0  0  0  0  0  0  0  0  0  # atno 17343 bound_to 10162
  155.9921  130.3933  150.2955 LP  0  0  0  0  0  0  0  0  0  0  0  0  # atno 17370 bound_to 10713
  157.1114  131.0222  151.3046 LP  0  0  0  0  0  0  0  0  0  0  0  0  # atno 17371 bound_to 10713
  141.1007  133.9773  157.3084 LP  0  0  0  0  0  0  0  0  0  0  0  0  # atno 17394 bound_to 11000
  139.9325  135.0199  156.8447 LP  0  0  0  0  0  0  0  0  0  0  0  0  # atno 17395 bound_to 11000

$$$$
