AV-unprocessed.smi:540|AV-procd|sdf|2869|dock5
  -GOLD-   2262023363D 1   1.00000     0.00000
 Structure written by MMmdl.
 49 51  0  0  0  0  0  0  0  0  1 V2000
  152.1406  137.9691  160.0256 C   0  0  0  0  0  0  0  0  0  0  0  0
  153.1474  137.3824  159.0337 C   0  0  0  0  0  0  0  0  0  0  0  0
  153.3347  138.3028  157.9721 O   0  0  0  0  0  0  0  0  0  0  0  0
  152.1327  138.5898  157.2786 C   0  0  0  0  0  0  0  0  0  0  0  0
  152.4157  139.6694  156.2275 C   0  0  0  0  0  0  0  0  0  0  0  0
  151.2021  140.3994  155.8708 N   0  0  0  0  0  0  0  0  0  0  0  0
  150.8155  141.6452  156.2641 C   0  0  0  0  0  0  0  0  0  0  0  0
  151.5758  142.4247  157.1389 N   0  0  0  0  0  0  0  0  0  0  0  0
  152.0303  143.7971  156.9158 C   0  0  0  0  0  0  0  0  0  0  0  0
  151.6490  144.7168  158.0898 C   0  0  0  0  0  0  0  0  0  0  0  0
  152.2412  144.1916  159.4093 C   0  0  0  0  0  0  0  0  0  0  0  0
  151.7929  145.0355  160.6106 C   0  0  0  0  0  0  0  0  0  0  0  0
  151.8726  142.7073  159.5821 C   0  0  0  0  0  0  0  0  0  0  0  0
  152.2397  141.8939  158.3277 C   0  0  0  0  0  0  0  0  0  0  0  0
  149.6820  142.0769  155.7044 N   0  0  0  0  0  0  0  0  0  0  0  0
  149.2982  141.0114  154.9057 C   0  0  0  0  0  0  0  0  0  0  0  0
  150.2025  140.0014  154.9795 C   0  0  0  0  0  0  0  0  0  0  0  0
  150.0662  138.7676  154.1912 C   0  0  0  0  0  0  0  0  0  0  0  0
  150.8830  137.8498  154.2147 O   0  0  0  0  0  0  0  0  0  0  0  0
  148.9493  138.7462  153.4242 N   0  0  0  0  0  0  0  0  0  0  0  0
  147.9978  139.7222  153.3125 C   0  0  0  0  0  0  0  0  0  0  0  0
  147.0347  139.5596  152.5633 O   0  0  0  0  0  0  0  0  0  0  0  0
  148.1666  140.8635  154.0536 N   0  0  0  0  0  0  0  0  0  0  0  0
  147.1850  141.9463  153.9650 C   0  0  0  0  0  0  0  0  0  0  0  0
  148.8066  137.9175  152.8657 H   0  0  0  0  0  0  0  0  0  0  0  0
  151.9719  137.2869  160.8590 H   0  0  0  0  0  0  0  0  0  0  0  0
  151.1797  138.1541  159.5447 H   0  0  0  0  0  0  0  0  0  0  0  0
  152.4996  138.9141  160.4338 H   0  0  0  0  0  0  0  0  0  0  0  0
  154.0958  137.1912  159.5383 H   0  0  0  0  0  0  0  0  0  0  0  0
  152.7799  136.4309  158.6462 H   0  0  0  0  0  0  0  0  0  0  0  0
  151.7607  137.6852  156.7956 H   0  0  0  0  0  0  0  0  0  0  0  0
  151.3653  138.9315  157.9750 H   0  0  0  0  0  0  0  0  0  0  0  0
  153.1761  140.3595  156.5862 H   0  0  0  0  0  0  0  0  0  0  0  0
  152.8523  139.2230  155.3397 H   0  0  0  0  0  0  0  0  0  0  0  0
  153.1143  143.7902  156.7942 H   0  0  0  0  0  0  0  0  0  0  0  0
  151.6369  144.1815  155.9756 H   0  0  0  0  0  0  0  0  0  0  0  0
  152.0070  145.7283  157.8956 H   0  0  0  0  0  0  0  0  0  0  0  0
  150.5639  144.7842  158.1719 H   0  0  0  0  0  0  0  0  0  0  0  0
  153.3279  144.2603  159.3402 H   0  0  0  0  0  0  0  0  0  0  0  0
  150.7096  145.0075  160.7325 H   0  0  0  0  0  0  0  0  0  0  0  0
  152.0879  146.0780  160.4887 H   0  0  0  0  0  0  0  0  0  0  0  0
  152.2425  144.6715  161.5347 H   0  0  0  0  0  0  0  0  0  0  0  0
  152.3840  142.2940  160.4519 H   0  0  0  0  0  0  0  0  0  0  0  0
  150.8037  142.6103  159.7769 H   0  0  0  0  0  0  0  0  0  0  0  0
  151.9514  140.8524  158.4738 H   0  0  0  0  0  0  0  0  0  0  0  0
  153.3195  141.8976  158.1733 H   0  0  0  0  0  0  0  0  0  0  0  0
  146.1757  141.5713  154.1418 H   0  0  0  0  0  0  0  0  0  0  0  0
  147.2109  142.4005  152.9738 H   0  0  0  0  0  0  0  0  0  0  0  0
  147.3655  142.7357  154.6947 H   0  0  0  0  0  0  0  0  0  0  0  0
  1  2  1  0  0  0  0
  1 26  1  0  0  0  0
  1 27  1  0  0  0  0
  1 28  1  0  0  0  0
  2  3  1  0  0  0  0
  2 29  1  0  0  0  0
  2 30  1  0  0  0  0
  3  4  1  0  0  0  0
  4  5  1  0  0  0  0
  4 31  1  0  0  0  0
  4 32  1  0  0  0  0
  5  6  1  0  0  0  0
  5 33  1  0  0  0  0
  5 34  1  0  0  0  0
  6 17  1  0  0  0  0
  6  7  1  0  0  0  0
  7  8  1  0  0  0  0
  7 15  2  0  0  0  0
  8 14  1  0  0  0  0
  8  9  1  0  0  0  0
  9 10  1  0  0  0  0
  9 35  1  0  0  0  0
  9 36  1  0  0  0  0
 10 11  1  0  0  0  0
 10 37  1  0  0  0  0
 10 38  1  0  0  0  0
 11 12  1  0  0  0  0
 11 13  1  0  0  0  0
 11 39  1  0  0  0  0
 12 40  1  0  0  0  0
 12 41  1  0  0  0  0
 12 42  1  0  0  0  0
 13 14  1  0  0  0  0
 13 43  1  0  0  0  0
 13 44  1  0  0  0  0
 14 45  1  0  0  0  0
 14 46  1  0  0  0  0
 15 16  1  0  0  0  0
 16 23  1  0  0  0  0
 16 17  2  0  0  0  0
 17 18  1  0  0  0  0
 18 19  2  0  0  0  0
 18 20  1  0  0  0  0
 20 25  1  0  0  0  0
 20 21  1  0  0  0  0
 21 22  2  0  0  0  0
 21 23  1  0  0  0  0
 23 24  1  0  0  0  0
 24 47  1  0  0  0  0
 24 48  1  0  0  0  0
 24 49  1  0  0  0  0
M  END
> <s_m_source_file>
AV-unprocessed.smi

> <i_m_source_file_index>
540

> <i_lp_mmshare_version>
43012

> <i_f3d_flags>
0

> <s_epik_input>
W0NIM11uMWMoPU8pW25IXWMoPU8pYyhjMTIpbihbQ0gyXVtDSDJdT1tDSDJdW0NIM10pYyhuMilOM1tDSDJdW0NIMl1bQ0hdKFtDSDNdKVtDSDJdW0NIMl0z

> <s_epik_cmdline>
J2VwaWtfcHl0aG9uJywgJy1waCcsICc3LjAnLCAnLXRuJywgJzgnLCAnLW1hJywgJzIwMCcsICctbWV0YWxfYmluZGluZycsICctaW1hZScsICc8aW5maWxlLm1hZT4nLCAnLW9tYWUnLCAnPG91dGZpbGUubWFlPic=

> <r_lp_tautomer_probability>
1

> <r_epik_Ionization_Penalty>
0.000763957

> <r_epik_Ionization_Penalty_Charging>
0.000121351

> <r_epik_Ionization_Penalty_Neutral>
0.000642606

> <r_epik_State_Penalty>
-0

> <r_epik_Charging_Adjusted_Penalty>
0.000121351

> <i_epik_Tot_Q>
0

> <i_epik_Tot_abs_Q>
0

> <r_epik_Metal_State_Penalty>
0.0930422

> <b_epik_Metal_Only>
0

> <s_lp_Force_Field>
OPLS_2005

> <r_lp_Energy>
38.5385

> <b_lp_Chiralities_Consistent>
1

> <s_lp_Variant>
AV-unprocessed.smi:540-1

> <Gold.Version>
5.8.1

> <Gold.Id.Protein>
6NUR|6NUR_protein|mol2

> <Gold.PLP.Fitness>
48.6793

> <Gold.PLP.PLP>
-44.5406

> <Gold.PLP.part.hbond>
-3.0000

> <Gold.PLP.part.metal>
0.0000

> <Gold.PLP.part.buried>
-3.3078

> <Gold.PLP.part.nonpolar>
-40.0022

> <Gold.PLP.part.repulsive>
2.5699

> <Gold.PLP.ligand.clash>
0.0000

> <Gold.PLP.ligand.torsion>
1.1677

> <Gold.PLP.Chemscore.Hbond>
2.0000

> <Gold.PLP.Chemscore.CHOScore>
0.0000

> <Gold.PLP.Chemscore.Metal>
0.0000

> <Gold.Chemscore.Hbonds>
donor molecule, donor type, donor heavy atom, donor atom, acceptor molecule, acceptor atom, score
      L1  H    20    25       P1  7948  1.00
      P1  H  7997  8010       L1     3  0.21

> <Gold.PLP.Chemscore.Internal.Correction>
0.4741

> <Gold.Rescore>
     Score         DG    S(hbond)    S(metal)    S(lipo)     H(rot)  DE(clash)    DE(int)     intcor
     15.98     -18.95       1.75        0.00      99.66       1.58       1.68       1.29       ----

> <Gold.Chemscore.Fitness>
15.9846

> <Gold.Chemscore.DG>
-18.9537

> <Gold.Chemscore.ZeroCoef>
-5.4800

> <Gold.Chemscore.Hbond>
1.7543

> <Gold.Chemscore.Metal>
0.0000

> <Gold.Chemscore.Lipo>
99.6632

> <Gold.Chemscore.Internal_Hbond>
0.0000

> <Gold.Chemscore.DEClash>
1.6825

> <Gold.Chemscore.DEInternal>
1.2866

> <Gold.Chemscore.Rot>
1.5806

> <Gold.Chemscore.Internal.Correction>
   9.000000E+99

> <Gold.Chemscore.Hbonds>
donor molecule, donor type, donor heavy atom, donor atom, acceptor molecule, acceptor atom, score
      L1  H    20    25       P1  7948  0.99
      P1  H  7997  8010       L1     3  0.06

> <Gold.Chemscore.Hbond.Weighted>
-5.8594

> <Gold.Chemscore.Metal.Weighted>
-0.0000

> <Gold.Chemscore.Lipo.Weighted>
-11.6606

> <Gold.Chemscore.Internal_Hbond.Weighted>
0.0000

> <Gold.Chemscore.DEClash.Weighted>
1.6825

> <Gold.Chemscore.DEInternal.Weighted>
1.2866

> <Gold.Chemscore.Rot.Weighted>
4.0463

> <Gold.Chemscore.Internal.Correction.Weighted>
   9.000000E+99

> <Gold.Protein.RotatedTorsions>
[ 6907 6896 6895 6894 ] final  -31.19 input  -60.11 | X-H torsion
[ 7974 7965 7964 7962 ] final  117.17 input  175.53 | X-H torsion
[ 8008 7997 7996 7995 ] final   25.44 input   59.86 | X-H torsion
[ 10167 10162 10161 10158 ] final   62.76 input  -65.29 | X-H torsion
[ 10718 10713 10712 10709 ] final -145.25 input   66.30 | X-H torsion
[ 10763 10752 10751 10750 ] final  179.54 input  -60.55 | X-H torsion
[ 11005 11000 10999 10996 ] final  145.03 input  -57.11 | X-H torsion

> <Gold.Protein.ActiveResidues>
 VAL166  LYS551  ARG553  GLY616  TRP617  ASP618  TYR619  PRO620  LYS621  CYS622 
 ASP623  PHE694  ASN695  SER759  ASP760  ASP761  ALA762  ILE779  LEU786  VAL792 
 PHE793  MET794  SER795  GLU796  ALA797  LYS798  CYS799  TRP800  GLU811  SER814 

> <Gold.Protein.RotatedAtoms>
  151.0954  134.9941  159.8422 H   0  0  0  0  0  0  0  0  0  0  0  0  # atno 6907 bound_to 6896
  152.5432  134.2014  159.8724 H   0  0  0  0  0  0  0  0  0  0  0  0  # atno 6908 bound_to 6896
  151.2053  133.4543  159.2630 H   0  0  0  0  0  0  0  0  0  0  0  0  # atno 6909 bound_to 6896
  145.1706  139.3104  143.4470 H   0  0  0  0  0  0  0  0  0  0  0  0  # atno 7974 bound_to 7965
  155.0118  140.3137  155.4827 H   0  0  0  0  0  0  0  0  0  0  0  0  # atno 8008 bound_to 7997
  156.2908  140.2213  156.5174 H   0  0  0  0  0  0  0  0  0  0  0  0  # atno 8009 bound_to 7997
  154.7528  140.0465  157.0896 H   0  0  0  0  0  0  0  0  0  0  0  0  # atno 8010 bound_to 7997
  140.1404  144.4559  150.6814 H   0  0  0  0  0  0  0  0  0  0  0  0  # atno 10167 bound_to 10162
  156.3802  130.7833  151.2024 H   0  0  0  0  0  0  0  0  0  0  0  0  # atno 10718 bound_to 10713
  154.5219  135.2794  155.1255 H   0  0  0  0  0  0  0  0  0  0  0  0  # atno 10763 bound_to 10752
  154.2809  135.6285  153.5350 H   0  0  0  0  0  0  0  0  0  0  0  0  # atno 10764 bound_to 10752
  152.9938  135.5651  154.5710 H   0  0  0  0  0  0  0  0  0  0  0  0  # atno 10765 bound_to 10752
  140.0679  134.9168  157.1296 H   0  0  0  0  0  0  0  0  0  0  0  0  # atno 11005 bound_to 11000
  146.3469  140.1850  142.8589 LP  0  0  0  0  0  0  0  0  0  0  0  0  # atno 17320 bound_to 7965
  145.0237  140.8814  143.5151 LP  0  0  0  0  0  0  0  0  0  0  0  0  # atno 17321 bound_to 7965
  140.6764  143.2307  151.5497 LP  0  0  0  0  0  0  0  0  0  0  0  0  # atno 17342 bound_to 10162
  139.5475  144.2483  152.1469 LP  0  0  0  0  0  0  0  0  0  0  0  0  # atno 17343 bound_to 10162
  157.7491  131.0346  150.4326 LP  0  0  0  0  0  0  0  0  0  0  0  0  # atno 17370 bound_to 10713
  156.4569  130.4023  149.6601 LP  0  0  0  0  0  0  0  0  0  0  0  0  # atno 17371 bound_to 10713
  140.3670  134.2431  155.7181 LP  0  0  0  0  0  0  0  0  0  0  0  0  # atno 17394 bound_to 11000
  141.2000  133.7997  157.0508 LP  0  0  0  0  0  0  0  0  0  0  0  0  # atno 17395 bound_to 11000

$$$$
