AV-unprocessed.smi:901|AV-procd|sdf|4091|dock10
  -GOLD-   22720 1583D 1   1.00000     0.00000
 Structure written by MMmdl.
 43 44  0  0  0  0  0  0  0  0  1 V2000
  143.2833  135.9813  153.0060 C   0  0  0  0  0  0  0  0  0  0  0  0
  144.3324  135.5472  152.0019 C   0  0  0  0  0  0  0  0  0  0  0  0
  145.3642  136.6087  151.6629 C   0  0  0  0  0  0  0  0  0  0  0  0
  144.3309  134.3108  151.4677 C   0  0  0  0  0  0  0  0  0  0  0  0
  145.3025  133.7716  150.4712 C   0  0  1  0  0  0  0  0  0  0  0  0
  146.7172  133.3114  150.8112 C   0  0  1  0  0  0  0  0  0  0  0  0
  147.1996  133.3721  152.2263 C   0  0  0  0  0  0  0  0  0  0  0  0
  146.5816  133.9771  153.1013 O   0  0  0  0  0  0  0  0  0  0  0  0
  148.3974  132.7866  152.4060 N   0  0  0  0  0  0  0  0  0  0  0  0
  149.1369  132.6305  153.6066 C   0  0  0  0  0  0  0  0  0  0  0  0
  149.4430  133.6594  154.5474 C   0  0  0  0  0  0  0  0  0  0  0  0
  150.1576  133.0021  155.5076 C   0  0  0  0  0  0  0  0  0  0  0  0
  150.2410  131.6762  155.1309 N   0  0  0  0  0  0  0  0  0  0  0  0
  150.9009  130.5805  155.8231 C   0  0  0  0  0  0  0  0  0  0  0  0
  151.7993  129.7525  154.8960 C   0  0  0  0  0  0  0  0  0  0  0  0
  151.1812  128.9825  153.9973 N   0  0  0  0  0  0  0  0  0  0  0  0
  153.0255  129.7953  154.9841 O   0  0  0  0  0  0  0  0  0  0  0  0
  149.6141  131.4481  153.9557 N   0  0  0  0  0  0  0  0  0  0  0  0
  145.6544  132.2953  150.4064 C   0  0  0  0  0  0  0  0  0  0  0  0
  145.0526  131.3015  151.3977 C   0  0  0  0  0  0  0  0  0  0  0  0
  145.7843  131.6311  149.0473 C   0  0  0  0  0  0  0  0  0  0  0  0
  142.7304  136.8414  152.6275 H   0  0  0  0  0  0  0  0  0  0  0  0
  143.7561  136.2638  153.9468 H   0  0  0  0  0  0  0  0  0  0  0  0
  142.5699  135.1828  153.2125 H   0  0  0  0  0  0  0  0  0  0  0  0
  145.8854  136.9246  152.5668 H   0  0  0  0  0  0  0  0  0  0  0  0
  144.8760  137.4810  151.2283 H   0  0  0  0  0  0  0  0  0  0  0  0
  146.1124  136.2539  150.9546 H   0  0  0  0  0  0  0  0  0  0  0  0
  143.5503  133.6305  151.7739 H   0  0  0  0  0  0  0  0  0  0  0  0
  145.1941  134.2834  149.5168 H   0  0  0  0  0  0  0  0  0  0  0  0
  147.4705  133.5796  150.0729 H   0  0  0  0  0  0  0  0  0  0  0  0
  148.8173  132.3748  151.5855 H   0  0  0  0  0  0  0  0  0  0  0  0
  149.1891  134.7085  154.5374 H   0  0  0  0  0  0  0  0  0  0  0  0
  150.6062  133.3621  156.4217 H   0  0  0  0  0  0  0  0  0  0  0  0
  151.5007  130.9766  156.6440 H   0  0  0  0  0  0  0  0  0  0  0  0
  150.1324  129.9437  156.2635 H   0  0  0  0  0  0  0  0  0  0  0  0
  151.7217  128.4180  153.3581 H   0  0  0  0  0  0  0  0  0  0  0  0
  150.1722  128.9704  153.9580 H   0  0  0  0  0  0  0  0  0  0  0  0
  145.6870  130.4185  151.4790 H   0  0  0  0  0  0  0  0  0  0  0  0
  144.0644  130.9854  151.0620 H   0  0  0  0  0  0  0  0  0  0  0  0
  144.9471  131.7304  152.3939 H   0  0  0  0  0  0  0  0  0  0  0  0
  146.4419  130.7637  149.1096 H   0  0  0  0  0  0  0  0  0  0  0  0
  146.2014  132.3240  148.3158 H   0  0  0  0  0  0  0  0  0  0  0  0
  144.8076  131.3047  148.6885 H   0  0  0  0  0  0  0  0  0  0  0  0
  1  2  1  0  0  0  0
  1 22  1  0  0  0  0
  1 23  1  0  0  0  0
  1 24  1  0  0  0  0
  2  3  1  0  0  0  0
  2  4  2  0  0  0  0
  3 25  1  0  0  0  0
  3 26  1  0  0  0  0
  3 27  1  0  0  0  0
  4  5  1  0  0  0  0
  4 28  1  0  0  0  0
  5 19  1  0  0  0  0
  5  6  1  0  0  0  0
  5 29  1  0  0  0  0
  6  7  1  0  0  0  0
  6 19  1  0  0  0  0
  6 30  1  0  0  0  0
  7  8  2  0  0  0  0
  7  9  1  0  0  0  0
  9 10  1  0  0  0  0
  9 31  1  0  0  0  0
 10 18  2  0  0  0  0
 10 11  1  0  0  0  0
 11 12  2  0  0  0  0
 11 32  1  0  0  0  0
 12 13  1  0  0  0  0
 12 33  1  0  0  0  0
 13 14  1  0  0  0  0
 13 18  1  0  0  0  0
 14 15  1  0  0  0  0
 14 34  1  0  0  0  0
 14 35  1  0  0  0  0
 15 16  1  0  0  0  0
 15 17  2  0  0  0  0
 16 36  1  0  0  0  0
 16 37  1  0  0  0  0
 19 20  1  0  0  0  0
 19 21  1  0  0  0  0
 20 38  1  0  0  0  0
 20 39  1  0  0  0  0
 20 40  1  0  0  0  0
 21 41  1  0  0  0  0
 21 42  1  0  0  0  0
 21 43  1  0  0  0  0
M  END
> <s_m_source_file>
AV-unprocessed.smi

> <i_m_source_file_index>
901

> <i_lp_mmshare_version>
43012

> <i_f3d_flags>
0

> <s_epik_input>
W0NIM11DKFtDSDNdKT1bQ0hdW0NAQEhdKEMxKFtDSDNdKVtDSDNdKVtDQEhdMUMoPU8pW05IXWMyW2NIXVtjSF1uKG4yKVtDSDJdQyg9TylbTkgyXQ==

> <s_epik_cmdline>
J2VwaWtfcHl0aG9uJywgJy1waCcsICc3LjAnLCAnLXRuJywgJzgnLCAnLW1hJywgJzIwMCcsICctbWV0YWxfYmluZGluZycsICctaW1hZScsICc8aW5maWxlLm1hZT4nLCAnLW9tYWUnLCAnPG91dGZpbGUubWFlPic=

> <r_lp_tautomer_probability>
1

> <r_epik_Ionization_Penalty>
1.01454e-05

> <r_epik_Ionization_Penalty_Charging>
0

> <r_epik_Ionization_Penalty_Neutral>
1.01454e-05

> <r_epik_State_Penalty>
-0

> <r_epik_Charging_Adjusted_Penalty>
0

> <i_epik_Tot_Q>
0

> <i_epik_Tot_abs_Q>
0

> <r_epik_Metal_State_Penalty>
-0

> <b_epik_Metal_Only>
0

> <s_lp_Force_Field>
OPLS_2005

> <r_lp_Energy>
23.331

> <b_lp_Chiralities_Consistent>
1

> <s_lp_Variant>
AV-unprocessed.smi:901-2

> <Gold.Version>
5.8.1

> <Gold.Id.Protein>
6NUR|6NUR_protein|mol2

> <Gold.PLP.Fitness>
43.3603

> <Gold.PLP.PLP>
-39.8543

> <Gold.PLP.part.hbond>
-2.0000

> <Gold.PLP.part.metal>
0.0000

> <Gold.PLP.part.buried>
-6.9611

> <Gold.PLP.part.nonpolar>
-32.6415

> <Gold.PLP.part.repulsive>
0.2804

> <Gold.PLP.ligand.clash>
0.0000

> <Gold.PLP.ligand.torsion>
1.3562

> <Gold.PLP.Chemscore.Hbond>
2.0000

> <Gold.PLP.Chemscore.CHOScore>
0.0000

> <Gold.PLP.Chemscore.Metal>
0.0000

> <Gold.Chemscore.Hbonds>
donor molecule, donor type, donor heavy atom, donor atom, acceptor molecule, acceptor atom, score
      L1  H     9    31       P1 10747  1.00
      L1  H    16    36       P1 10737  1.00

> <Gold.PLP.Chemscore.Internal.Correction>
0.2185

> <Gold.Rescore>
     Score         DG    S(hbond)    S(metal)    S(lipo)     H(rot)  DE(clash)    DE(int)     intcor
     11.29     -15.47       1.95        0.00      76.24       2.13       0.12       4.06       ----

> <Gold.Chemscore.Fitness>
11.2880

> <Gold.Chemscore.DG>
-15.4688

> <Gold.Chemscore.ZeroCoef>
-5.4800

> <Gold.Chemscore.Hbond>
1.9534

> <Gold.Chemscore.Metal>
0.0000

> <Gold.Chemscore.Lipo>
76.2364

> <Gold.Chemscore.Internal_Hbond>
0.0000

> <Gold.Chemscore.DEClash>
0.1222

> <Gold.Chemscore.DEInternal>
4.0586

> <Gold.Chemscore.Rot>
2.1309

> <Gold.Chemscore.Internal.Correction>
   9.000000E+99

> <Gold.Chemscore.Hbonds>
donor molecule, donor type, donor heavy atom, donor atom, acceptor molecule, acceptor atom, score
      L1  H     9    31       P1 10747  0.91
      L1  H    16    36       P1 10737  0.90

> <Gold.Chemscore.Hbond.Weighted>
-6.5243

> <Gold.Chemscore.Metal.Weighted>
-0.0000

> <Gold.Chemscore.Lipo.Weighted>
-8.9197

> <Gold.Chemscore.Internal_Hbond.Weighted>
0.0000

> <Gold.Chemscore.DEClash.Weighted>
0.1222

> <Gold.Chemscore.DEInternal.Weighted>
4.0586

> <Gold.Chemscore.Rot.Weighted>
5.4552

> <Gold.Chemscore.Internal.Correction.Weighted>
   9.000000E+99

> <Gold.Protein.RotatedTorsions>
[ 6907 6896 6895 6894 ] final  111.64 input  -60.11 | X-H torsion
[ 7974 7965 7964 7962 ] final  146.86 input  175.53 | X-H torsion
[ 8008 7997 7996 7995 ] final   71.95 input   59.86 | X-H torsion
[ 10167 10162 10161 10158 ] final   30.33 input  -65.29 | X-H torsion
[ 10718 10713 10712 10709 ] final -120.04 input   66.30 | X-H torsion
[ 10763 10752 10751 10750 ] final -116.67 input  -60.55 | X-H torsion
[ 11005 11000 10999 10996 ] final   30.11 input  -57.11 | X-H torsion

> <Gold.Protein.ActiveResidues>
 VAL166  LYS551  ARG553  GLY616  TRP617  ASP618  TYR619  PRO620  LYS621  CYS622 
 ASP623  PHE694  ASN695  SER759  ASP760  ASP761  ALA762  ILE779  LEU786  VAL792 
 PHE793  MET794  SER795  GLU796  ALA797  LYS798  CYS799  TRP800  GLU811  SER814 

> <Gold.Protein.RotatedAtoms>
  152.4959  133.8629  159.7259 H   0  0  0  0  0  0  0  0  0  0  0  0  # atno 6907 bound_to 6896
  150.9136  133.6958  159.2855 H   0  0  0  0  0  0  0  0  0  0  0  0  # atno 6908 bound_to 6896
  151.4359  135.1019  159.9708 H   0  0  0  0  0  0  0  0  0  0  0  0  # atno 6909 bound_to 6896
  144.8637  139.5958  143.5919 H   0  0  0  0  0  0  0  0  0  0  0  0  # atno 7974 bound_to 7965
  155.7615  140.3486  155.5200 H   0  0  0  0  0  0  0  0  0  0  0  0  # atno 8008 bound_to 7997
  155.8909  140.1017  157.1440 H   0  0  0  0  0  0  0  0  0  0  0  0  # atno 8009 bound_to 7997
  154.4033  140.1304  156.4301 H   0  0  0  0  0  0  0  0  0  0  0  0  # atno 8010 bound_to 7997
  140.4688  144.0795  150.6231 H   0  0  0  0  0  0  0  0  0  0  0  0  # atno 10167 bound_to 10162
  156.1227  130.6335  150.9491 H   0  0  0  0  0  0  0  0  0  0  0  0  # atno 10718 bound_to 10713
  154.8527  135.4337  154.1857 H   0  0  0  0  0  0  0  0  0  0  0  0  # atno 10763 bound_to 10752
  153.2937  135.6963  153.7274 H   0  0  0  0  0  0  0  0  0  0  0  0  # atno 10764 bound_to 10752
  153.6431  135.3464  155.3052 H   0  0  0  0  0  0  0  0  0  0  0  0  # atno 10765 bound_to 10752
  140.2979  134.2790  155.7760 H   0  0  0  0  0  0  0  0  0  0  0  0  # atno 11005 bound_to 11000
  146.2880  139.7057  142.9182 LP  0  0  0  0  0  0  0  0  0  0  0  0  # atno 17320 bound_to 7965
  145.4263  141.0411  143.2936 LP  0  0  0  0  0  0  0  0  0  0  0  0  # atno 17321 bound_to 7965
  140.4003  143.2707  151.9955 LP  0  0  0  0  0  0  0  0  0  0  0  0  # atno 17342 bound_to 10162
  139.4815  144.6003  151.7618 LP  0  0  0  0  0  0  0  0  0  0  0  0  # atno 17343 bound_to 10162
  157.6410  131.0910  150.8251 LP  0  0  0  0  0  0  0  0  0  0  0  0  # atno 17370 bound_to 10713
  156.8346  130.5027  149.5328 LP  0  0  0  0  0  0  0  0  0  0  0  0  # atno 17371 bound_to 10713
  141.2134  133.7627  156.9722 LP  0  0  0  0  0  0  0  0  0  0  0  0  # atno 17394 bound_to 11000
  140.1136  134.9461  157.2102 LP  0  0  0  0  0  0  0  0  0  0  0  0  # atno 17395 bound_to 11000

$$$$
