AV-unprocessed.smi:2124|AV-procd|sdf|8657|dock10
  -GOLD-   2272011403D 1   1.00000     0.00000
 Structure written by MMmdl.
 47 49  0  0  0  0  0  0  0  0  1 V2000
  146.5666  138.1690  152.5873 C   0  0  0  0  0  0  0  0  0  0  0  0
  147.3848  139.1684  153.3777 C   0  0  0  0  0  0  0  0  0  0  0  0
  146.8906  140.2234  153.9375 N   0  0  0  0  0  0  0  0  0  0  0  0
  147.7502  141.0775  154.6424 C   0  0  0  0  0  0  0  0  0  0  0  0
  147.0960  142.2984  155.2666 C   0  0  0  0  0  0  0  0  0  0  0  0
  149.0866  140.8190  154.7499 C   0  0  0  0  0  0  0  0  0  0  0  0
  150.0478  141.7360  155.5049 C   0  0  0  0  0  0  0  0  0  0  0  0
  150.2464  141.4067  156.9864 C   0  0  0  0  0  0  0  0  0  0  0  0
  149.3576  140.8331  157.6163 O   0  0  0  0  0  0  0  0  0  0  0  0
  151.4223  141.7699  157.5231 N   0  0  0  0  0  0  0  0  0  0  0  0
  151.8565  141.5244  158.8979 C   0  0  1  0  0  0  0  0  0  0  0  0
  152.9214  140.4168  158.8832 C   0  0  0  0  0  0  0  0  0  0  0  0
  152.3783  142.8386  159.5291 C   0  0  1  0  0  0  0  0  0  0  0  0
  152.9139  143.8820  158.5208 C   0  0  0  0  0  0  0  0  0  0  0  0
  152.1999  145.1776  158.9476 C   0  0  1  0  0  0  0  0  0  0  0  0
  150.7239  145.1012  158.5162 C   0  0  0  0  0  0  0  0  0  0  0  0
  150.1358  144.0803  159.5068 C   0  0  0  0  0  0  0  0  0  0  0  0
  151.3628  143.6738  160.3492 C   0  0  2  0  0  0  0  0  0  0  0  0
  152.0972  145.0064  160.4585 C   0  0  0  0  0  0  0  0  0  0  0  0
  149.6398  139.6106  154.1081 C   0  0  0  0  0  0  0  0  0  0  0  0
  150.8251  139.2839  154.1382 O   0  0  0  0  0  0  0  0  0  0  0  0
  148.7390  138.8464  153.4509 N   0  0  0  0  0  0  0  0  0  0  0  0
  149.0684  138.0089  152.9936 H   0  0  0  0  0  0  0  0  0  0  0  0
  146.1088  138.6563  151.7264 H   0  0  0  0  0  0  0  0  0  0  0  0
  145.7728  137.7570  153.2108 H   0  0  0  0  0  0  0  0  0  0  0  0
  147.1797  137.3425  152.2255 H   0  0  0  0  0  0  0  0  0  0  0  0
  147.2075  142.2811  156.3508 H   0  0  0  0  0  0  0  0  0  0  0  0
  146.0292  142.3348  155.0416 H   0  0  0  0  0  0  0  0  0  0  0  0
  147.5475  143.2141  154.8847 H   0  0  0  0  0  0  0  0  0  0  0  0
  151.0148  141.7080  155.0012 H   0  0  0  0  0  0  0  0  0  0  0  0
  149.7275  142.7755  155.4302 H   0  0  0  0  0  0  0  0  0  0  0  0
  152.0824  142.2425  156.9228 H   0  0  0  0  0  0  0  0  0  0  0  0
  151.0107  141.1579  159.4798 H   0  0  0  0  0  0  0  0  0  0  0  0
  153.2269  140.1454  159.8937 H   0  0  0  0  0  0  0  0  0  0  0  0
  153.8126  140.7289  158.3381 H   0  0  0  0  0  0  0  0  0  0  0  0
  152.5392  139.5126  158.4079 H   0  0  0  0  0  0  0  0  0  0  0  0
  153.1963  142.5756  160.2028 H   0  0  0  0  0  0  0  0  0  0  0  0
  153.9962  143.9807  158.6127 H   0  0  0  0  0  0  0  0  0  0  0  0
  152.6935  143.6304  157.4830 H   0  0  0  0  0  0  0  0  0  0  0  0
  152.7051  146.0853  158.6165 H   0  0  0  0  0  0  0  0  0  0  0  0
  150.2329  146.0690  158.6253 H   0  0  0  0  0  0  0  0  0  0  0  0
  150.6126  144.7849  157.4783 H   0  0  0  0  0  0  0  0  0  0  0  0
  149.3857  144.5588  160.1381 H   0  0  0  0  0  0  0  0  0  0  0  0
  149.6495  143.2412  159.0114 H   0  0  0  0  0  0  0  0  0  0  0  0
  151.1034  143.2262  161.3092 H   0  0  0  0  0  0  0  0  0  0  0  0
  153.0679  144.9305  160.9521 H   0  0  0  0  0  0  0  0  0  0  0  0
  151.5098  145.7881  160.9437 H   0  0  0  0  0  0  0  0  0  0  0  0
  1  2  1  0  0  0  0
  1 24  1  0  0  0  0
  1 25  1  0  0  0  0
  1 26  1  0  0  0  0
  2 22  1  0  0  0  0
  2  3  2  0  0  0  0
  3  4  1  0  0  0  0
  4  5  1  0  0  0  0
  4  6  2  0  0  0  0
  5 27  1  0  0  0  0
  5 28  1  0  0  0  0
  5 29  1  0  0  0  0
  6  7  1  0  0  0  0
  6 20  1  0  0  0  0
  7  8  1  0  0  0  0
  7 30  1  0  0  0  0
  7 31  1  0  0  0  0
  8  9  2  0  0  0  0
  8 10  1  0  0  0  0
 10 11  1  0  0  0  0
 10 32  1  0  0  0  0
 11 12  1  0  0  0  0
 11 13  1  0  0  0  0
 11 33  1  0  0  0  0
 12 34  1  0  0  0  0
 12 35  1  0  0  0  0
 12 36  1  0  0  0  0
 13 18  1  0  0  0  0
 13 14  1  0  0  0  0
 13 37  1  0  0  0  0
 14 15  1  0  0  0  0
 14 38  1  0  0  0  0
 14 39  1  0  0  0  0
 15 19  1  0  0  0  0
 15 16  1  0  0  0  0
 15 40  1  0  0  0  0
 16 17  1  0  0  0  0
 16 41  1  0  0  0  0
 16 42  1  0  0  0  0
 17 18  1  0  0  0  0
 17 43  1  0  0  0  0
 17 44  1  0  0  0  0
 18 19  1  0  0  0  0
 18 45  1  0  0  0  0
 19 46  1  0  0  0  0
 19 47  1  0  0  0  0
 20 21  2  0  0  0  0
 20 22  1  0  0  0  0
 22 23  1  0  0  0  0
M  END
> <s_m_source_file>
AV-unprocessed.smi

> <i_m_source_file_index>
2124

> <i_lp_mmshare_version>
43012

> <i_f3d_flags>
0

> <s_epik_input>
W0NIM11jMW5jKFtDSDNdKWMoYyg9TylbbkhdMSlbQ0gyXUMoPU8pW05IXVtDQEhdKFtDSDNdKVtDQEhdKFtDSDJdW0NASF0yMylbQ0BIXShbQ0gyXTMpW0NIMl1bQ0gyXTI=

> <s_epik_cmdline>
J2VwaWtfcHl0aG9uJywgJy1waCcsICc3LjAnLCAnLXRuJywgJzgnLCAnLW1hJywgJzIwMCcsICctbWV0YWxfYmluZGluZycsICctaW1hZScsICc8aW5maWxlLm1hZT4nLCAnLW9tYWUnLCAnPG91dGZpbGUubWFlPic=

> <r_lp_tautomer_probability>
0.839158

> <r_epik_Ionization_Penalty>
0.000383628

> <r_epik_Ionization_Penalty_Charging>
0.00035045

> <r_epik_Ionization_Penalty_Neutral>
3.31781e-05

> <r_epik_State_Penalty>
0.09125

> <r_epik_Charging_Adjusted_Penalty>
0.0916005

> <i_epik_Tot_Q>
0

> <i_epik_Tot_abs_Q>
0

> <r_epik_Metal_State_Penalty>
0.255229

> <b_epik_Metal_Only>
0

> <s_lp_Force_Field>
OPLS_2005

> <r_lp_Energy>
52.5586

> <b_lp_Chiralities_Consistent>
1

> <s_lp_Variant>
AV-unprocessed.smi:2124-8

> <Gold.Version>
5.8.1

> <Gold.Id.Protein>
6NUR|6NUR_protein|mol2

> <Gold.PLP.Fitness>
45.4413

> <Gold.PLP.PLP>
-43.2749

> <Gold.PLP.part.hbond>
-2.9896

> <Gold.PLP.part.metal>
0.0000

> <Gold.PLP.part.buried>
-0.2442

> <Gold.PLP.part.nonpolar>
-40.6664

> <Gold.PLP.part.repulsive>
0.4776

> <Gold.PLP.ligand.clash>
0.0000

> <Gold.PLP.ligand.torsion>
1.7908

> <Gold.PLP.Chemscore.Hbond>
1.9100

> <Gold.PLP.Chemscore.CHOScore>
0.0000

> <Gold.PLP.Chemscore.Metal>
0.0000

> <Gold.Chemscore.Hbonds>
donor molecule, donor type, donor heavy atom, donor atom, acceptor molecule, acceptor atom, score
      L1  H    22    23       P1  7948  0.88
      P1  H  7989  7998       L1    21  1.00

> <Gold.PLP.Chemscore.Internal.Correction>
0.0182

> <Gold.Rescore>
     Score         DG    S(hbond)    S(metal)    S(lipo)     H(rot)  DE(clash)    DE(int)     intcor
     17.83     -20.70       1.46        0.00     124.50       1.65       0.89       1.98       ----

> <Gold.Chemscore.Fitness>
17.8280

> <Gold.Chemscore.DG>
-20.7041

> <Gold.Chemscore.ZeroCoef>
-5.4800

> <Gold.Chemscore.Hbond>
1.4641

> <Gold.Chemscore.Metal>
0.0000

> <Gold.Chemscore.Lipo>
124.5015

> <Gold.Chemscore.Internal_Hbond>
0.0000

> <Gold.Chemscore.DEClash>
0.8931

> <Gold.Chemscore.DEInternal>
1.9831

> <Gold.Chemscore.Rot>
1.6534

> <Gold.Chemscore.Internal.Correction>
   9.000000E+99

> <Gold.Chemscore.Hbonds>
donor molecule, donor type, donor heavy atom, donor atom, acceptor molecule, acceptor atom, score
      L1  H    22    23       P1  7948  0.84
      P1  H  7989  7998       L1    21  0.30

> <Gold.Chemscore.Hbond.Weighted>
-4.8901

> <Gold.Chemscore.Metal.Weighted>
-0.0000

> <Gold.Chemscore.Lipo.Weighted>
-14.5667

> <Gold.Chemscore.Internal_Hbond.Weighted>
0.0000

> <Gold.Chemscore.DEClash.Weighted>
0.8931

> <Gold.Chemscore.DEInternal.Weighted>
1.9831

> <Gold.Chemscore.Rot.Weighted>
4.2326

> <Gold.Chemscore.Internal.Correction.Weighted>
   9.000000E+99

> <Gold.Protein.RotatedTorsions>
[ 6907 6896 6895 6894 ] final   76.41 input  -60.11 | X-H torsion
[ 7974 7965 7964 7962 ] final   26.58 input  175.53 | X-H torsion
[ 8008 7997 7996 7995 ] final -172.16 input   59.86 | X-H torsion
[ 10167 10162 10161 10158 ] final   50.22 input  -65.29 | X-H torsion
[ 10718 10713 10712 10709 ] final  118.35 input   66.30 | X-H torsion
[ 10763 10752 10751 10750 ] final -131.40 input  -60.55 | X-H torsion
[ 11005 11000 10999 10996 ] final   72.08 input  -57.11 | X-H torsion

> <Gold.Protein.ActiveResidues>
 VAL166  LYS551  ARG553  GLY616  TRP617  ASP618  TYR619  PRO620  LYS621  CYS622 
 ASP623  PHE694  ASN695  SER759  ASP760  ASP761  ALA762  ILE779  LEU786  VAL792 
 PHE793  MET794  SER795  GLU796  ALA797  LYS798  CYS799  TRP800  GLU811  SER814 

> <Gold.Protein.RotatedAtoms>
  152.5071  134.3973  159.9404 H   0  0  0  0  0  0  0  0  0  0  0  0  # atno 6907 bound_to 6896
  151.3936  133.3774  159.2731 H   0  0  0  0  0  0  0  0  0  0  0  0  # atno 6908 bound_to 6896
  150.9414  134.8844  159.7673 H   0  0  0  0  0  0  0  0  0  0  0  0  # atno 6909 bound_to 6896
  146.1830  139.7308  142.8887 H   0  0  0  0  0  0  0  0  0  0  0  0  # atno 7974 bound_to 7965
  155.9410  140.1108  157.1055 H   0  0  0  0  0  0  0  0  0  0  0  0  # atno 8008 bound_to 7997
  154.4089  140.1219  156.4993 H   0  0  0  0  0  0  0  0  0  0  0  0  # atno 8009 bound_to 7997
  155.6961  140.3472  155.4916 H   0  0  0  0  0  0  0  0  0  0  0  0  # atno 8010 bound_to 7997
  140.2747  144.3225  150.6280 H   0  0  0  0  0  0  0  0  0  0  0  0  # atno 10167 bound_to 10162
  157.6036  131.1047  150.7743 H   0  0  0  0  0  0  0  0  0  0  0  0  # atno 10718 bound_to 10713
  154.8751  135.3831  154.4239 H   0  0  0  0  0  0  0  0  0  0  0  0  # atno 10763 bound_to 10752
  153.4940  135.7030  153.5873 H   0  0  0  0  0  0  0  0  0  0  0  0  # atno 10764 bound_to 10752
  153.4234  135.3896  155.2092 H   0  0  0  0  0  0  0  0  0  0  0  0  # atno 10765 bound_to 10752
  139.9509  134.7228  156.0865 H   0  0  0  0  0  0  0  0  0  0  0  0  # atno 11005 bound_to 11000
  145.4022  141.0386  143.3064 LP  0  0  0  0  0  0  0  0  0  0  0  0  # atno 17320 bound_to 7965
  144.8347  139.5569  143.6927 LP  0  0  0  0  0  0  0  0  0  0  0  0  # atno 17321 bound_to 7965
  140.5861  143.2170  151.7340 LP  0  0  0  0  0  0  0  0  0  0  0  0  # atno 17342 bound_to 10162
  139.4979  144.4009  152.0182 LP  0  0  0  0  0  0  0  0  0  0  0  0  # atno 17343 bound_to 10162
  156.8137  130.4961  149.5352 LP  0  0  0  0  0  0  0  0  0  0  0  0  # atno 17370 bound_to 10713
  156.1116  130.6044  151.0056 LP  0  0  0  0  0  0  0  0  0  0  0  0  # atno 17371 bound_to 10713
  141.1172  133.6624  156.3122 LP  0  0  0  0  0  0  0  0  0  0  0  0  # atno 17394 bound_to 11000
  140.5721  134.5830  157.5460 LP  0  0  0  0  0  0  0  0  0  0  0  0  # atno 17395 bound_to 11000

$$$$
