AV-unprocessed.smi:2310|AV-procd|sdf|9259|dock6
  -GOLD-   2272012483D 1   1.00000     0.00000
 Structure written by MMmdl.
 45 46  0  0  0  0  0  0  0  0  3 V2000
  147.8252  134.4879  154.7641 C   0  0  0  0  0  0  0  0  0  0  0  0
  148.6997  135.7322  155.0164 C   0  0  0  0  0  0  0  0  0  0  0  0
  150.2082  135.5438  154.7375 C   0  0  2  0  0  0  0  0  0  0  0  0
  150.8858  134.7744  155.8856 C   0  0  0  0  0  0  0  0  0  0  0  0
  150.1620  134.8400  157.1679 C   0  0  0  0  0  0  0  0  0  0  0  0
  149.5972  134.8919  158.1783 N   0  0  0  0  0  0  0  0  0  0  0  0
  150.8505  136.8570  154.6009 N   0  5  0  0  0  0  0  0  0  0  0  0
  151.0455  137.7417  155.6152 C   0  0  0  0  0  0  0  0  0  0  0  0
  151.4320  137.5009  156.7647 O   0  0  0  0  0  0  0  0  0  0  0  0
  150.7442  139.0005  155.2529 N   0  0  0  0  0  0  0  0  0  0  0  0
  150.8406  140.1915  156.0222 C   0  0  0  0  0  0  0  0  0  0  0  0
  151.6591  140.2923  157.1738 C   0  0  0  0  0  0  0  0  0  0  0  0
  151.7298  141.5132  157.8734 C   0  0  0  0  0  0  0  0  0  0  0  0
  150.9904  142.6238  157.4066 C   0  0  0  0  0  0  0  0  0  0  0  0
  150.9967  143.8817  158.0258 N   0  0  0  0  0  0  0  0  0  0  0  0
  152.3137  144.4783  158.1722 C   0  0  0  0  0  0  0  0  0  0  0  0
  152.1495  145.5881  159.2133 C   0  0  0  0  0  0  0  0  0  0  0  0
  150.8848  145.2120  159.9946 C   0  0  0  0  0  0  0  0  0  0  0  0
  150.3904  143.9159  159.3464 C   0  0  0  0  0  0  0  0  0  0  0  0
  150.2359  142.4911  156.2946 N   0  3  0  0  0  0  0  0  0  0  0  0
  150.1368  141.3409  155.5911 C   0  0  0  0  0  0  0  0  0  0  0  0
  149.2506  141.3465  154.3593 C   0  0  0  0  0  0  0  0  0  0  0  0
  146.7878  134.6978  155.0245 H   0  0  0  0  0  0  0  0  0  0  0  0
  148.1416  133.6344  155.3663 H   0  0  0  0  0  0  0  0  0  0  0  0
  147.8341  134.1828  153.7163 H   0  0  0  0  0  0  0  0  0  0  0  0
  148.3167  136.5691  154.4307 H   0  0  0  0  0  0  0  0  0  0  0  0
  148.5729  136.0206  156.0603 H   0  0  0  0  0  0  0  0  0  0  0  0
  150.3072  134.9343  153.8378 H   0  0  0  0  0  0  0  0  0  0  0  0
  151.0140  133.7236  155.6237 H   0  0  0  0  0  0  0  0  0  0  0  0
  151.8819  135.1783  156.0679 H   0  0  0  0  0  0  0  0  0  0  0  0
  150.3239  139.0997  154.3404 H   0  0  0  0  0  0  0  0  0  0  0  0
  152.2449  139.4547  157.5215 H   0  0  0  0  0  0  0  0  0  0  0  0
  152.3524  141.5903  158.7525 H   0  0  0  0  0  0  0  0  0  0  0  0
  153.0348  143.7390  158.5233 H   0  0  0  0  0  0  0  0  0  0  0  0
  152.6730  144.8723  157.2209 H   0  0  0  0  0  0  0  0  0  0  0  0
  153.0266  145.6681  159.8562 H   0  0  0  0  0  0  0  0  0  0  0  0
  152.0092  146.5517  158.7218 H   0  0  0  0  0  0  0  0  0  0  0  0
  151.0798  145.0775  161.0591 H   0  0  0  0  0  0  0  0  0  0  0  0
  150.1372  145.9993  159.8913 H   0  0  0  0  0  0  0  0  0  0  0  0
  149.3023  143.8942  159.2770 H   0  0  0  0  0  0  0  0  0  0  0  0
  150.7058  143.0563  159.9391 H   0  0  0  0  0  0  0  0  0  0  0  0
  149.8360  141.1087  153.4704 H   0  0  0  0  0  0  0  0  0  0  0  0
  148.7839  142.3205  154.2082 H   0  0  0  0  0  0  0  0  0  0  0  0
  148.4589  140.6033  154.4593 H   0  0  0  0  0  0  0  0  0  0  0  0
  149.7125  143.3026  155.9662 H   0  0  0  0  0  0  0  0  0  0  0  0
  1  2  1  0  0  0  0
  1 23  1  0  0  0  0
  1 24  1  0  0  0  0
  1 25  1  0  0  0  0
  2  3  1  0  0  0  0
  2 26  1  0  0  0  0
  2 27  1  0  0  0  0
  3  4  1  0  0  0  0
  3  7  1  0  0  0  0
  3 28  1  0  0  0  0
  4  5  1  0  0  0  0
  4 29  1  0  0  0  0
  4 30  1  0  0  0  0
  5  6  3  0  0  0  0
  7  8  1  0  0  0  0
  8  9  2  0  0  0  0
  8 10  1  0  0  0  0
 10 11  1  0  0  0  0
 10 31  1  0  0  0  0
 11 21  1  0  0  0  0
 11 12  2  0  0  0  0
 12 13  1  0  0  0  0
 12 32  1  0  0  0  0
 13 14  2  0  0  0  0
 13 33  1  0  0  0  0
 14 15  1  0  0  0  0
 14 20  1  0  0  0  0
 15 19  1  0  0  0  0
 15 16  1  0  0  0  0
 16 17  1  0  0  0  0
 16 34  1  0  0  0  0
 16 35  1  0  0  0  0
 17 18  1  0  0  0  0
 17 36  1  0  0  0  0
 17 37  1  0  0  0  0
 18 19  1  0  0  0  0
 18 38  1  0  0  0  0
 18 39  1  0  0  0  0
 19 40  1  0  0  0  0
 19 41  1  0  0  0  0
 20 21  2  0  0  0  0
 20 45  1  0  0  0  0
 21 22  1  0  0  0  0
 22 42  1  0  0  0  0
 22 43  1  0  0  0  0
 22 44  1  0  0  0  0
M  CHG  1   7  -1
M  CHG  1  20   1
M  END
> <s_m_source_file>
AV-unprocessed.smi

> <i_m_source_file_index>
2310

> <i_lp_mmshare_version>
43012

> <i_f3d_flags>
0

> <s_epik_input>
TiNDW0NIMl1bQ0BASF0oW0NIMl1bQ0gzXSlbTkhdQyg9TylbTkhdYzFbY0hdW2NIXWMobmMxW0NIM10pTjJbQ0gyXVtDSDJdW0NIMl1bQ0gyXTI=

> <s_epik_cmdline>
J2VwaWtfcHl0aG9uJywgJy1waCcsICc3LjAnLCAnLXRuJywgJzgnLCAnLW1hJywgJzIwMCcsICctbWV0YWxfYmluZGluZycsICctaW1hZScsICc8aW5maWxlLm1hZT4nLCAnLW9tYWUnLCAnPG91dGZpbGUubWFlPic=

> <r_lp_tautomer_probability>
0.999994

> <r_epik_Ionization_Penalty>
7.34515

> <r_epik_Ionization_Penalty_Charging>
7.34514

> <r_epik_Ionization_Penalty_Neutral>
2.56118e-06

> <r_epik_State_Penalty>
6.99243

> <r_epik_Charging_Adjusted_Penalty>
14.3376

> <i_epik_Tot_Q>
0

> <i_epik_Tot_abs_Q>
2

> <r_epik_Metal_State_Penalty>
3.10684

> <b_epik_Metal_Only>
1

> <s_lp_Force_Field>
OPLS_2005

> <r_lp_Energy>
38.8935

> <b_lp_Chiralities_Consistent>
1

> <s_lp_Variant>
AV-unprocessed.smi:2310-5

> <Gold.Version>
5.8.1

> <Gold.Id.Protein>
6NUR|6NUR_protein|mol2

> <Gold.PLP.Fitness>
44.0699

> <Gold.PLP.PLP>
-37.4374

> <Gold.PLP.part.hbond>
-2.0000

> <Gold.PLP.part.metal>
0.0000

> <Gold.PLP.part.buried>
-2.8597

> <Gold.PLP.part.nonpolar>
-31.9564

> <Gold.PLP.part.repulsive>
0.5125

> <Gold.PLP.ligand.clash>
0.0000

> <Gold.PLP.ligand.torsion>
1.2343

> <Gold.PLP.Chemscore.Hbond>
3.0000

> <Gold.PLP.Chemscore.CHOScore>
0.0000

> <Gold.PLP.Chemscore.Metal>
0.0000

> <Gold.Chemscore.Hbonds>
donor molecule, donor type, donor heavy atom, donor atom, acceptor molecule, acceptor atom, score
      L1  H    20    45       P1  8028  2.00
      P1  H  6896  6907       L1     6  0.94

> <Gold.PLP.Chemscore.Internal.Correction>
0.1012

> <Gold.Rescore>
     Score         DG    S(hbond)    S(metal)    S(lipo)     H(rot)  DE(clash)    DE(int)     intcor
     15.16     -18.82       1.98        0.00      93.63       1.65       0.06       3.61       ----

> <Gold.Chemscore.Fitness>
15.1560

> <Gold.Chemscore.DG>
-18.8210

> <Gold.Chemscore.ZeroCoef>
-5.4800

> <Gold.Chemscore.Hbond>
1.9803

> <Gold.Chemscore.Metal>
0.0000

> <Gold.Chemscore.Lipo>
93.6256

> <Gold.Chemscore.Internal_Hbond>
0.0000

> <Gold.Chemscore.DEClash>
0.0564

> <Gold.Chemscore.DEInternal>
3.6086

> <Gold.Chemscore.Rot>
1.6514

> <Gold.Chemscore.Internal.Correction>
   9.000000E+99

> <Gold.Chemscore.Hbonds>
donor molecule, donor type, donor heavy atom, donor atom, acceptor molecule, acceptor atom, score
      L1  H    20    45       P1  8028  1.00
      P1  H  6896  6907       L1     6  0.41

> <Gold.Chemscore.Hbond.Weighted>
-6.6144

> <Gold.Chemscore.Metal.Weighted>
-0.0000

> <Gold.Chemscore.Lipo.Weighted>
-10.9542

> <Gold.Chemscore.Internal_Hbond.Weighted>
0.0000

> <Gold.Chemscore.DEClash.Weighted>
0.0564

> <Gold.Chemscore.DEInternal.Weighted>
3.6086

> <Gold.Chemscore.Rot.Weighted>
4.2276

> <Gold.Chemscore.Internal.Correction.Weighted>
   9.000000E+99

> <Gold.Protein.RotatedTorsions>
[ 6907 6896 6895 6894 ] final -103.85 input  -60.11 | X-H torsion
[ 7974 7965 7964 7962 ] final  -72.16 input  175.53 | X-H torsion
[ 8008 7997 7996 7995 ] final -126.86 input   59.86 | X-H torsion
[ 10167 10162 10161 10158 ] final -128.05 input  -65.29 | X-H torsion
[ 10718 10713 10712 10709 ] final   15.45 input   66.30 | X-H torsion
[ 10763 10752 10751 10750 ] final   29.70 input  -60.55 | X-H torsion
[ 11005 11000 10999 10996 ] final  -75.48 input  -57.11 | X-H torsion

> <Gold.Protein.ActiveResidues>
 VAL166  LYS551  ARG553  GLY616  TRP617  ASP618  TYR619  PRO620  LYS621  CYS622 
 ASP623  PHE694  ASN695  SER759  ASP760  ASP761  ALA762  ILE779  LEU786  VAL792 
 PHE793  MET794  SER795  GLU796  ALA797  LYS798  CYS799  TRP800  GLU811  SER814 

> <Gold.Protein.RotatedAtoms>
  150.7259  134.0366  159.3751 H   0  0  0  0  0  0  0  0  0  0  0  0  # atno 6907 bound_to 6896
  151.8338  135.0610  160.0449 H   0  0  0  0  0  0  0  0  0  0  0  0  # atno 6908 bound_to 6896
  152.2914  133.5529  159.5596 H   0  0  0  0  0  0  0  0  0  0  0  0  # atno 6909 bound_to 6896
  145.6688  140.9228  143.0894 H   0  0  0  0  0  0  0  0  0  0  0  0  # atno 7974 bound_to 7965
  155.2366  140.0427  157.2969 H   0  0  0  0  0  0  0  0  0  0  0  0  # atno 8008 bound_to 7997
  154.5854  140.2412  155.7964 H   0  0  0  0  0  0  0  0  0  0  0  0  # atno 8009 bound_to 7997
  156.2223  140.2966  155.9990 H   0  0  0  0  0  0  0  0  0  0  0  0  # atno 8010 bound_to 7997
  139.9544  143.6019  152.2465 H   0  0  0  0  0  0  0  0  0  0  0  0  # atno 10167 bound_to 10162
  157.0537  130.6280  149.5772 H   0  0  0  0  0  0  0  0  0  0  0  0  # atno 10718 bound_to 10713
  153.0414  135.6482  154.0931 H   0  0  0  0  0  0  0  0  0  0  0  0  # atno 10763 bound_to 10752
  154.0637  135.2886  155.3322 H   0  0  0  0  0  0  0  0  0  0  0  0  # atno 10764 bound_to 10752
  154.6640  135.5381  153.8119 H   0  0  0  0  0  0  0  0  0  0  0  0  # atno 10765 bound_to 10752
  141.1646  133.6948  156.7523 H   0  0  0  0  0  0  0  0  0  0  0  0  # atno 11005 bound_to 11000
  144.7064  139.8545  143.7428 LP  0  0  0  0  0  0  0  0  0  0  0  0  # atno 17320 bound_to 7965
  146.1063  139.4063  143.0315 LP  0  0  0  0  0  0  0  0  0  0  0  0  # atno 17321 bound_to 7965
  139.6603  144.7662  151.1976 LP  0  0  0  0  0  0  0  0  0  0  0  0  # atno 17342 bound_to 10162
  140.7573  143.6021  150.8689 LP  0  0  0  0  0  0  0  0  0  0  0  0  # atno 17343 bound_to 10162
  156.0000  130.5077  150.7626 LP  0  0  0  0  0  0  0  0  0  0  0  0  # atno 17370 bound_to 10713
  157.5010  131.0918  151.0314 LP  0  0  0  0  0  0  0  0  0  0  0  0  # atno 17371 bound_to 10713
  140.2595  134.8478  157.3745 LP  0  0  0  0  0  0  0  0  0  0  0  0  # atno 17394 bound_to 11000
  140.1625  134.4711  155.7885 LP  0  0  0  0  0  0  0  0  0  0  0  0  # atno 17395 bound_to 11000

$$$$
