AV-unprocessed.smi:3045|AV-procd|sdf|11612|dock3
  -GOLD-   2272016593D 1   1.00000     0.00000
 Structure written by MMmdl.
 36 37  0  0  0  0  0  0  0  0  2 V2000
  151.5079  145.2643  160.2926 C   0  0  0  0  0  0  0  0  0  0  0  0
  152.2465  144.0732  159.8963 N   0  0  0  0  0  0  0  0  0  0  0  0
  152.6618  143.8689  158.5187 C   0  0  0  0  0  0  0  0  0  0  0  0
  153.2249  142.4312  158.4678 C   0  0  2  0  0  0  0  0  0  0  0  0
  152.3030  141.4577  157.7178 C   0  0  0  0  0  0  0  0  0  0  0  0
  151.9500  140.4043  158.2499 O   0  0  0  0  0  0  0  0  0  0  0  0
  151.9430  141.8110  156.4735 N   0  0  0  0  0  0  0  0  0  0  0  0
  151.1292  141.0065  155.5647 C   0  0  0  0  0  0  0  0  0  0  0  0
  149.6216  141.1123  155.8734 C   0  0  0  0  0  0  0  0  0  0  0  0
  148.7324  140.5112  154.7976 C   0  0  0  0  0  0  0  0  0  0  0  0
  147.5629  141.1791  154.3700 C   0  0  0  0  0  0  0  0  0  0  0  0
  146.7792  140.6129  153.3432 C   0  0  0  0  0  0  0  0  0  0  0  0
  147.1814  139.3907  152.7671 C   0  0  0  0  0  0  0  0  0  0  0  0
  148.3028  138.7779  153.2055 N   0  3  0  0  0  0  0  0  0  0  0  0
  149.0790  139.2858  154.1878 C   0  0  0  0  0  0  0  0  0  0  0  0
  153.3833  142.0120  159.9433 C   0  0  0  0  0  0  0  0  0  0  0  0
  152.6467  143.0951  160.7133 C   0  0  0  0  0  0  0  0  0  0  0  0
  152.4525  143.0365  161.9264 O   0  0  0  0  0  0  0  0  0  0  0  0
  152.1131  145.8852  160.9539 H   0  0  0  0  0  0  0  0  0  0  0  0
  150.5921  144.9915  160.8187 H   0  0  0  0  0  0  0  0  0  0  0  0
  151.2318  145.8632  159.4242 H   0  0  0  0  0  0  0  0  0  0  0  0
  151.8253  144.0270  157.8356 H   0  0  0  0  0  0  0  0  0  0  0  0
  153.4345  144.5959  158.2650 H   0  0  0  0  0  0  0  0  0  0  0  0
  154.2007  142.4428  157.9787 H   0  0  0  0  0  0  0  0  0  0  0  0
  152.2744  142.6975  156.1210 H   0  0  0  0  0  0  0  0  0  0  0  0
  151.3233  141.2870  154.5281 H   0  0  0  0  0  0  0  0  0  0  0  0
  151.4459  139.9677  155.6593 H   0  0  0  0  0  0  0  0  0  0  0  0
  149.4076  140.6120  156.8185 H   0  0  0  0  0  0  0  0  0  0  0  0
  149.3509  142.1590  156.0184 H   0  0  0  0  0  0  0  0  0  0  0  0
  147.2743  142.1213  154.8127 H   0  0  0  0  0  0  0  0  0  0  0  0
  145.8855  141.1125  152.9987 H   0  0  0  0  0  0  0  0  0  0  0  0
  146.6453  138.8897  151.9743 H   0  0  0  0  0  0  0  0  0  0  0  0
  149.9568  138.7095  154.4418 H   0  0  0  0  0  0  0  0  0  0  0  0
  152.9631  141.0309  160.1701 H   0  0  0  0  0  0  0  0  0  0  0  0
  154.4325  142.0061  160.2399 H   0  0  0  0  0  0  0  0  0  0  0  0
  148.5779  137.8956  152.7732 H   0  0  0  0  0  0  0  0  0  0  0  0
  1  2  1  0  0  0  0
  1 19  1  0  0  0  0
  1 20  1  0  0  0  0
  1 21  1  0  0  0  0
  2 17  1  0  0  0  0
  2  3  1  0  0  0  0
  3  4  1  0  0  0  0
  3 22  1  0  0  0  0
  3 23  1  0  0  0  0
  4  5  1  0  0  0  0
  4 16  1  0  0  0  0
  4 24  1  0  0  0  0
  5  6  2  0  0  0  0
  5  7  1  0  0  0  0
  7  8  1  0  0  0  0
  7 25  1  0  0  0  0
  8  9  1  0  0  0  0
  8 26  1  0  0  0  0
  8 27  1  0  0  0  0
  9 10  1  0  0  0  0
  9 28  1  0  0  0  0
  9 29  1  0  0  0  0
 10 15  1  0  0  0  0
 10 11  2  0  0  0  0
 11 12  1  0  0  0  0
 11 30  1  0  0  0  0
 12 13  2  0  0  0  0
 12 31  1  0  0  0  0
 13 14  1  0  0  0  0
 13 32  1  0  0  0  0
 14 15  2  0  0  0  0
 14 36  1  0  0  0  0
 15 33  1  0  0  0  0
 16 17  1  0  0  0  0
 16 34  1  0  0  0  0
 16 35  1  0  0  0  0
 17 18  2  0  0  0  0
M  CHG  1  14   1
M  END
> <s_m_source_file>
AV-unprocessed.smi

> <i_m_source_file_index>
3045

> <i_lp_mmshare_version>
43012

> <i_f3d_flags>
0

> <s_epik_input>
W0NIM11OMVtDSDJdW0NASF0oW0NIMl1DMT1PKUMoPU8pW05IXVtDSDJdW0NIMl1jMltjSF1bY0hdW2NIXW5bY0hdMg==

> <s_epik_cmdline>
J2VwaWtfcHl0aG9uJywgJy1waCcsICc3LjAnLCAnLXRuJywgJzgnLCAnLW1hJywgJzIwMCcsICctbWV0YWxfYmluZGluZycsICctaW1hZScsICc8aW5maWxlLm1hZT4nLCAnLW9tYWUnLCAnPG91dGZpbGUubWFlPic=

> <r_epik_Ionization_Penalty>
2.26523

> <r_epik_Ionization_Penalty_Charging>
2.26523

> <r_epik_Ionization_Penalty_Neutral>
2.92809e-08

> <r_epik_State_Penalty>
2.41338

> <r_epik_Charging_Adjusted_Penalty>
4.67861

> <i_epik_Tot_Q>
1

> <i_epik_Tot_abs_Q>
1

> <r_epik_Metal_State_Penalty>
2.42626

> <b_epik_Metal_Only>
0

> <s_lp_Force_Field>
OPLS_2005

> <r_lp_Energy>
17.4324

> <b_lp_Chiralities_Consistent>
1

> <s_lp_Variant>
AV-unprocessed.smi:3045-4

> <Gold.Version>
5.8.1

> <Gold.Id.Protein>
6NUR|6NUR_protein|mol2

> <Gold.PLP.Fitness>
43.7397

> <Gold.PLP.PLP>
-37.8535

> <Gold.PLP.part.hbond>
-2.6521

> <Gold.PLP.part.metal>
0.0000

> <Gold.PLP.part.buried>
0.5258

> <Gold.PLP.part.nonpolar>
-37.7572

> <Gold.PLP.part.repulsive>
2.1314

> <Gold.PLP.ligand.clash>
0.0000

> <Gold.PLP.ligand.torsion>
0.5357

> <Gold.PLP.Chemscore.Hbond>
2.3110

> <Gold.PLP.Chemscore.CHOScore>
0.0000

> <Gold.PLP.Chemscore.Metal>
0.0000

> <Gold.Chemscore.Hbonds>
donor molecule, donor type, donor heavy atom, donor atom, acceptor molecule, acceptor atom, score
      L1  H    14    36       P1  7948  2.00

> <Gold.PLP.Chemscore.Internal.Correction>
0.0247

> <Gold.Rescore>
     Score         DG    S(hbond)    S(metal)    S(lipo)     H(rot)  DE(clash)    DE(int)     intcor
     13.80     -15.57       1.44        0.00      82.69       1.71       1.34       0.43       ----

> <Gold.Chemscore.Fitness>
13.8030

> <Gold.Chemscore.DG>
-15.5747

> <Gold.Chemscore.ZeroCoef>
-5.4800

> <Gold.Chemscore.Hbond>
1.4369

> <Gold.Chemscore.Metal>
0.0000

> <Gold.Chemscore.Lipo>
82.6881

> <Gold.Chemscore.Internal_Hbond>
0.0000

> <Gold.Chemscore.DEClash>
1.3386

> <Gold.Chemscore.DEInternal>
0.4332

> <Gold.Chemscore.Rot>
1.7105

> <Gold.Chemscore.Internal.Correction>
   9.000000E+99

> <Gold.Chemscore.Hbonds>
donor molecule, donor type, donor heavy atom, donor atom, acceptor molecule, acceptor atom, score
      L1  H    14    36       P1  7948  1.00

> <Gold.Chemscore.Hbond.Weighted>
-4.7991

> <Gold.Chemscore.Metal.Weighted>
-0.0000

> <Gold.Chemscore.Lipo.Weighted>
-9.6745

> <Gold.Chemscore.Internal_Hbond.Weighted>
0.0000

> <Gold.Chemscore.DEClash.Weighted>
1.3386

> <Gold.Chemscore.DEInternal.Weighted>
0.4332

> <Gold.Chemscore.Rot.Weighted>
4.3789

> <Gold.Chemscore.Internal.Correction.Weighted>
   9.000000E+99

> <Gold.Protein.RotatedTorsions>
[ 6907 6896 6895 6894 ] final   22.64 input  -60.11 | X-H torsion
[ 7974 7965 7964 7962 ] final   52.81 input  175.53 | X-H torsion
[ 8008 7997 7996 7995 ] final   88.80 input   59.86 | X-H torsion
[ 10167 10162 10161 10158 ] final  -44.64 input  -65.29 | X-H torsion
[ 10718 10713 10712 10709 ] final  -54.45 input   66.30 | X-H torsion
[ 10763 10752 10751 10750 ] final -104.26 input  -60.55 | X-H torsion
[ 11005 11000 10999 10996 ] final -151.58 input  -57.11 | X-H torsion

> <Gold.Protein.ActiveResidues>
 VAL166  LYS551  ARG553  GLY616  TRP617  ASP618  TYR619  PRO620  LYS621  CYS622 
 ASP623  PHE694  ASN695  SER759  ASP760  ASP761  ALA762  ILE779  LEU786  VAL792 
 PHE793  MET794  SER795  GLU796  ALA797  LYS798  CYS799  TRP800  GLU811  SER814 

> <Gold.Protein.RotatedAtoms>
  151.9302  135.0260  160.0528 H   0  0  0  0  0  0  0  0  0  0  0  0  # atno 6907 bound_to 6896
  152.2125  133.4917  159.5126 H   0  0  0  0  0  0  0  0  0  0  0  0  # atno 6908 bound_to 6896
  150.6979  134.1366  159.4132 H   0  0  0  0  0  0  0  0  0  0  0  0  # atno 6909 bound_to 6896
  145.9776  139.4210  143.0152 H   0  0  0  0  0  0  0  0  0  0  0  0  # atno 7974 bound_to 7965
  155.9922  140.3367  155.6764 H   0  0  0  0  0  0  0  0  0  0  0  0  # atno 8008 bound_to 7997
  155.6404  140.0694  157.2638 H   0  0  0  0  0  0  0  0  0  0  0  0  # atno 8009 bound_to 7997
  154.4223  140.1743  156.1555 H   0  0  0  0  0  0  0  0  0  0  0  0  # atno 8010 bound_to 7997
  140.6889  143.2920  151.3524 H   0  0  0  0  0  0  0  0  0  0  0  0  # atno 10167 bound_to 10162
  156.1450  130.4153  150.0040 H   0  0  0  0  0  0  0  0  0  0  0  0  # atno 10718 bound_to 10713
  154.7866  135.4793  153.9959 H   0  0  0  0  0  0  0  0  0  0  0  0  # atno 10763 bound_to 10752
  153.1569  135.6801  153.8807 H   0  0  0  0  0  0  0  0  0  0  0  0  # atno 10764 bound_to 10752
  153.8433  135.3176  155.3406 H   0  0  0  0  0  0  0  0  0  0  0  0  # atno 10765 bound_to 10752
  140.7281  134.3652  157.5171 H   0  0  0  0  0  0  0  0  0  0  0  0  # atno 11005 bound_to 11000
  145.7817  140.9853  143.1096 LP  0  0  0  0  0  0  0  0  0  0  0  0  # atno 17320 bound_to 7965
  144.6853  139.9572  143.7479 LP  0  0  0  0  0  0  0  0  0  0  0  0  # atno 17321 bound_to 7965
  139.6273  144.0790  152.2445 LP  0  0  0  0  0  0  0  0  0  0  0  0  # atno 17342 bound_to 10162
  140.0253  144.6122  150.7532 LP  0  0  0  0  0  0  0  0  0  0  0  0  # atno 17343 bound_to 10162
  156.7914  130.9257  151.3646 LP  0  0  0  0  0  0  0  0  0  0  0  0  # atno 17370 bound_to 10713
  157.6608  130.8964  149.9826 LP  0  0  0  0  0  0  0  0  0  0  0  0  # atno 17371 bound_to 10713
  139.8832  134.9000  156.2779 LP  0  0  0  0  0  0  0  0  0  0  0  0  # atno 17394 bound_to 11000
  140.9945  133.7188  156.0864 LP  0  0  0  0  0  0  0  0  0  0  0  0  # atno 17395 bound_to 11000

$$$$
