AV-unprocessed.smi:819|AV-procd|sdf|3834|dock8
  -GOLD-   22720 1273D 1   1.00000     0.00000
 Structure written by MMmdl.
 40 41  0  0  0  0  0  0  0  0  1 V2000
  148.0152  141.0221  153.8553 C   0  0  0  0  0  0  0  0  0  0  0  0
  148.6386  140.6082  155.1991 C   0  0  2  0  0  0  0  0  0  0  0  0
  149.0656  141.8194  155.8979 N   0  0  0  0  0  0  0  0  0  0  0  0
  149.7932  141.8414  157.0251 C   0  0  0  0  0  0  0  0  0  0  0  0
  150.1589  140.8244  157.6144 O   0  0  0  0  0  0  0  0  0  0  0  0
  150.0799  143.1011  157.3954 N   0  0  0  0  0  0  0  0  0  0  0  0
  150.8376  143.5407  158.5145 C   0  0  0  0  0  0  0  0  0  0  0  0
  151.8550  142.6928  158.9984 C   0  0  0  0  0  0  0  0  0  0  0  0
  152.6311  143.1094  160.0967 C   0  0  0  0  0  0  0  0  0  0  0  0
  152.3640  144.3695  160.6657 C   0  0  0  0  0  0  0  0  0  0  0  0
  151.4053  145.2006  160.2060 N   0  0  0  0  0  0  0  0  0  0  0  0
  150.6634  144.7939  159.1532 C   0  0  0  0  0  0  0  0  0  0  0  0
  149.8512  139.7060  154.9218 C   0  0  0  0  0  0  0  0  0  0  0  0
  150.9582  140.1978  154.6962 O   0  0  0  0  0  0  0  0  0  0  0  0
  149.6243  138.3843  154.9485 N   0  0  0  0  0  0  0  0  0  0  0  0
  150.6394  137.3533  154.7532 C   0  0  0  0  0  0  0  0  0  0  0  0
  150.0633  135.9555  155.0509 C   0  0  0  0  0  0  0  0  0  0  0  0
  151.0777  135.2647  155.9641 C   0  0  0  0  0  0  0  0  0  0  0  0
  151.7258  136.4069  156.7395 C   0  0  0  0  0  0  0  0  0  0  0  0
  151.8289  137.5399  155.7183 C   0  0  0  0  0  0  0  0  0  0  0  0
  147.6878  140.1508  153.2864 H   0  0  0  0  0  0  0  0  0  0  0  0
  148.7169  141.5808  153.2339 H   0  0  0  0  0  0  0  0  0  0  0  0
  147.1401  141.6536  154.0113 H   0  0  0  0  0  0  0  0  0  0  0  0
  147.8950  140.0764  155.7962 H   0  0  0  0  0  0  0  0  0  0  0  0
  148.8157  142.7005  155.4736 H   0  0  0  0  0  0  0  0  0  0  0  0
  149.7780  143.8285  156.7638 H   0  0  0  0  0  0  0  0  0  0  0  0
  152.0374  141.7322  158.5390 H   0  0  0  0  0  0  0  0  0  0  0  0
  153.4130  142.4787  160.4931 H   0  0  0  0  0  0  0  0  0  0  0  0
  152.9397  144.7219  161.5088 H   0  0  0  0  0  0  0  0  0  0  0  0
  149.9317  145.5114  158.8163 H   0  0  0  0  0  0  0  0  0  0  0  0
  148.6854  138.0691  155.1448 H   0  0  0  0  0  0  0  0  0  0  0  0
  150.9973  137.3873  153.7224 H   0  0  0  0  0  0  0  0  0  0  0  0
  149.1118  136.0357  155.5791 H   0  0  0  0  0  0  0  0  0  0  0  0
  149.8781  135.3834  154.1411 H   0  0  0  0  0  0  0  0  0  0  0  0
  150.6182  134.5213  156.6161 H   0  0  0  0  0  0  0  0  0  0  0  0
  151.8318  134.7587  155.3600 H   0  0  0  0  0  0  0  0  0  0  0  0
  151.0748  136.7100  157.5607 H   0  0  0  0  0  0  0  0  0  0  0  0
  152.6927  136.1340  157.1630 H   0  0  0  0  0  0  0  0  0  0  0  0
  152.7610  137.4377  155.1614 H   0  0  0  0  0  0  0  0  0  0  0  0
  151.8523  138.5184  156.2001 H   0  0  0  0  0  0  0  0  0  0  0  0
  1  2  1  0  0  0  0
  1 21  1  0  0  0  0
  1 22  1  0  0  0  0
  1 23  1  0  0  0  0
  2  3  1  0  0  0  0
  2 13  1  0  0  0  0
  2 24  1  0  0  0  0
  3  4  1  0  0  0  0
  3 25  1  0  0  0  0
  4  5  2  0  0  0  0
  4  6  1  0  0  0  0
  6  7  1  0  0  0  0
  6 26  1  0  0  0  0
  7 12  1  0  0  0  0
  7  8  2  0  0  0  0
  8  9  1  0  0  0  0
  8 27  1  0  0  0  0
  9 10  2  0  0  0  0
  9 28  1  0  0  0  0
 10 11  1  0  0  0  0
 10 29  1  0  0  0  0
 11 12  2  0  0  0  0
 12 30  1  0  0  0  0
 13 14  2  0  0  0  0
 13 15  1  0  0  0  0
 15 16  1  0  0  0  0
 15 31  1  0  0  0  0
 16 20  1  0  0  0  0
 16 17  1  0  0  0  0
 16 32  1  0  0  0  0
 17 18  1  0  0  0  0
 17 33  1  0  0  0  0
 17 34  1  0  0  0  0
 18 19  1  0  0  0  0
 18 35  1  0  0  0  0
 18 36  1  0  0  0  0
 19 20  1  0  0  0  0
 19 37  1  0  0  0  0
 19 38  1  0  0  0  0
 20 39  1  0  0  0  0
 20 40  1  0  0  0  0
M  END
> <s_m_source_file>
AV-unprocessed.smi

> <i_m_source_file_index>
819

> <i_lp_mmshare_version>
43012

> <i_f3d_flags>
0

> <s_epik_input>
W0NIMl0xW0NIMl1bQ0gyXVtDSDJdW0NIXTFbTkhdQyg9TylbQ0BIXShbQ0gzXSlbTkhdQyg9TylbTkhdYzJbY0hdW2NIXVtjSF1uW2NIXTI=

> <s_epik_cmdline>
J2VwaWtfcHl0aG9uJywgJy1waCcsICc3LjAnLCAnLXRuJywgJzgnLCAnLW1hJywgJzIwMCcsICctbWV0YWxfYmluZGluZycsICctaW1hZScsICc8aW5maWxlLm1hZT4nLCAnLW9tYWUnLCAnPG91dGZpbGUubWFlPic=

> <r_epik_Ionization_Penalty>
0.00416979

> <r_epik_Ionization_Penalty_Charging>
0

> <r_epik_Ionization_Penalty_Neutral>
0.00416979

> <r_epik_State_Penalty>
0.00297037

> <r_epik_Charging_Adjusted_Penalty>
0.00297037

> <i_epik_Tot_Q>
0

> <i_epik_Tot_abs_Q>
0

> <r_epik_Metal_State_Penalty>
-0

> <b_epik_Metal_Only>
0

> <s_lp_Force_Field>
OPLS_2005

> <r_lp_Energy>
20.2836

> <b_lp_Chiralities_Consistent>
1

> <s_lp_Variant>
AV-unprocessed.smi:819-1

> <Gold.Version>
5.8.1

> <Gold.Id.Protein>
6NUR|6NUR_protein|mol2

> <Gold.PLP.Fitness>
44.5063

> <Gold.PLP.PLP>
-34.7279

> <Gold.PLP.part.hbond>
-2.9548

> <Gold.PLP.part.metal>
0.0000

> <Gold.PLP.part.buried>
-5.9691

> <Gold.PLP.part.nonpolar>
-26.5762

> <Gold.PLP.part.repulsive>
0.4189

> <Gold.PLP.ligand.clash>
0.0000

> <Gold.PLP.ligand.torsion>
0.9904

> <Gold.PLP.Chemscore.Hbond>
2.9280

> <Gold.PLP.Chemscore.CHOScore>
0.9875

> <Gold.PLP.Chemscore.Metal>
0.0000

> <Gold.Chemscore.Hbonds>
donor molecule, donor type, donor heavy atom, donor atom, acceptor molecule, acceptor atom, score
      L1  H     3    25       P1  8028  0.93
      L1  H     6    26       P1  8028  1.00
      P1  H  7989  7998       L1    14  0.99
      L1  C    12    30       P1  8029  0.89

> <Gold.PLP.Chemscore.Internal.Correction>
0.0127

> <Gold.Rescore>
     Score         DG    S(hbond)    S(metal)    S(lipo)     H(rot)  DE(clash)    DE(int)     intcor
     18.44     -21.70       2.87        0.00      89.94       1.52       0.03       3.24       ----

> <Gold.Chemscore.Fitness>
18.4398

> <Gold.Chemscore.DG>
-21.7047

> <Gold.Chemscore.ZeroCoef>
-5.4800

> <Gold.Chemscore.Hbond>
2.8741

> <Gold.Chemscore.Metal>
0.0000

> <Gold.Chemscore.Lipo>
89.9404

> <Gold.Chemscore.Internal_Hbond>
0.0000

> <Gold.Chemscore.DEClash>
0.0255

> <Gold.Chemscore.DEInternal>
3.2394

> <Gold.Chemscore.Rot>
1.5225

> <Gold.Chemscore.Internal.Correction>
   9.000000E+99

> <Gold.Chemscore.Hbonds>
donor molecule, donor type, donor heavy atom, donor atom, acceptor molecule, acceptor atom, score
      L1  H     3    25       P1  8028  0.85
      L1  H     6    26       P1  8028  0.99
      P1  H  7989  7998       L1    14  0.92

> <Gold.Chemscore.Hbond.Weighted>
-9.5994

> <Gold.Chemscore.Metal.Weighted>
-0.0000

> <Gold.Chemscore.Lipo.Weighted>
-10.5230

> <Gold.Chemscore.Internal_Hbond.Weighted>
0.0000

> <Gold.Chemscore.DEClash.Weighted>
0.0255

> <Gold.Chemscore.DEInternal.Weighted>
3.2394

> <Gold.Chemscore.Rot.Weighted>
3.8977

> <Gold.Chemscore.Internal.Correction.Weighted>
   9.000000E+99

> <Gold.Protein.RotatedTorsions>
[ 6907 6896 6895 6894 ] final   79.92 input  -60.11 | X-H torsion
[ 7974 7965 7964 7962 ] final  -34.39 input  175.53 | X-H torsion
[ 8008 7997 7996 7995 ] final  -50.76 input   59.86 | X-H torsion
[ 10167 10162 10161 10158 ] final  -87.71 input  -65.29 | X-H torsion
[ 10718 10713 10712 10709 ] final  125.47 input   66.30 | X-H torsion
[ 10763 10752 10751 10750 ] final   20.65 input  -60.55 | X-H torsion
[ 11005 11000 10999 10996 ] final -104.01 input  -57.11 | X-H torsion

> <Gold.Protein.ActiveResidues>
 VAL166  LYS551  ARG553  GLY616  TRP617  ASP618  TYR619  PRO620  LYS621  CYS622 
 ASP623  PHE694  ASN695  SER759  ASP760  ASP761  ALA762  ILE779  LEU786  VAL792 
 PHE793  MET794  SER795  GLU796  ALA797  LYS798  CYS799  TRP800  GLU811  SER814 

> <Gold.Protein.RotatedAtoms>
  152.5216  134.3437  159.9226 H   0  0  0  0  0  0  0  0  0  0  0  0  # atno 6907 bound_to 6896
  151.3387  133.3965  159.2677 H   0  0  0  0  0  0  0  0  0  0  0  0  # atno 6908 bound_to 6896
  150.9821  134.9192  159.7908 H   0  0  0  0  0  0  0  0  0  0  0  0  # atno 6909 bound_to 6896
  146.0833  140.6033  142.8898 H   0  0  0  0  0  0  0  0  0  0  0  0  # atno 7974 bound_to 7965
  154.4068  140.1264  156.4718 H   0  0  0  0  0  0  0  0  0  0  0  0  # atno 8008 bound_to 7997
  155.7171  140.3493  155.4980 H   0  0  0  0  0  0  0  0  0  0  0  0  # atno 8009 bound_to 7997
  155.9248  140.1059  157.1169 H   0  0  0  0  0  0  0  0  0  0  0  0  # atno 8010 bound_to 7997
  140.3818  143.2745  151.9374 H   0  0  0  0  0  0  0  0  0  0  0  0  # atno 10167 bound_to 10162
  157.5500  131.1094  150.8717 H   0  0  0  0  0  0  0  0  0  0  0  0  # atno 10718 bound_to 10713
  153.1059  135.6684  153.9587 H   0  0  0  0  0  0  0  0  0  0  0  0  # atno 10763 bound_to 10752
  153.9144  135.3021  155.3449 H   0  0  0  0  0  0  0  0  0  0  0  0  # atno 10764 bound_to 10752
  154.7480  135.5048  153.9315 H   0  0  0  0  0  0  0  0  0  0  0  0  # atno 10765 bound_to 10752
  141.1120  133.8687  157.1557 H   0  0  0  0  0  0  0  0  0  0  0  0  # atno 11005 bound_to 11000
  144.7308  140.4665  143.6939 LP  0  0  0  0  0  0  0  0  0  0  0  0  # atno 17320 bound_to 7965
  145.6177  139.1520  143.3040 LP  0  0  0  0  0  0  0  0  0  0  0  0  # atno 17321 bound_to 7965
  139.4795  144.5811  151.7930 LP  0  0  0  0  0  0  0  0  0  0  0  0  # atno 17342 bound_to 10162
  140.4930  144.1283  150.5954 LP  0  0  0  0  0  0  0  0  0  0  0  0  # atno 17343 bound_to 10162
  156.9245  130.5327  149.5279 LP  0  0  0  0  0  0  0  0  0  0  0  0  # atno 17370 bound_to 10713
  156.0569  130.5628  150.9110 LP  0  0  0  0  0  0  0  0  0  0  0  0  # atno 17371 bound_to 10713
  140.0019  135.0024  157.0209 LP  0  0  0  0  0  0  0  0  0  0  0  0  # atno 17394 bound_to 11000
  140.4749  134.1348  155.7208 LP  0  0  0  0  0  0  0  0  0  0  0  0  # atno 17395 bound_to 11000

$$$$
