AV-unprocessed.smi:2167|AV-procd|sdf|8817|dock4
  -GOLD-   2272012 03D 1   1.00000     0.00000
 Structure written by MMmdl.
 41 42  0  0  0  0  0  0  0  0  1 V2000
  150.6569  144.7084  160.1721 C   0  0  0  0  0  0  0  0  0  0  0  0
  152.0887  144.3798  159.7247 C   0  0  0  0  0  0  0  0  0  0  0  0
  152.4427  144.9757  158.3545 C   0  0  0  0  0  0  0  0  0  0  0  0
  152.3771  142.9129  159.7911 C   0  0  0  0  0  0  0  0  0  0  0  0
  151.9290  142.0275  158.8959 N   0  0  0  0  0  0  0  0  0  0  0  0
  152.3454  140.7205  159.1704 C   0  0  0  0  0  0  0  0  0  0  0  0
  151.9489  139.5938  158.2576 C   0  0  0  0  0  0  0  0  0  0  0  0
  151.1010  140.0981  157.0850 C   0  0  0  0  0  0  0  0  0  0  0  0
  151.5633  140.9353  156.3104 O   0  0  0  0  0  0  0  0  0  0  0  0
  149.8586  139.5977  156.9727 N   0  0  0  0  0  0  0  0  0  0  0  0
  148.8862  139.9541  155.9382 C   0  0  1  0  0  0  0  0  0  0  0  0
  148.5448  141.4511  156.1188 C   0  0  0  0  0  0  0  0  0  0  0  0
  147.1962  141.8589  155.5008 C   0  0  0  0  0  0  0  0  0  0  0  0
  147.1205  141.7421  153.9707 C   0  0  0  0  0  0  0  0  0  0  0  0
  147.2989  140.3055  153.4507 C   0  0  0  0  0  0  0  0  0  0  0  0
  148.6957  139.8906  153.4560 N   0  0  0  0  0  0  0  0  0  0  0  0
  149.4861  139.7367  154.5292 C   0  0  0  0  0  0  0  0  0  0  0  0
  150.6709  139.4330  154.3894 O   0  0  0  0  0  0  0  0  0  0  0  0
  153.1094  140.6262  160.3074 C   0  0  0  0  0  0  0  0  0  0  0  0
  153.3480  142.1778  161.0619 S   0  0  0  0  0  0  0  0  0  0  0  0
  150.4682  144.3427  161.1818 H   0  0  0  0  0  0  0  0  0  0  0  0
  149.9203  144.2536  159.5091 H   0  0  0  0  0  0  0  0  0  0  0  0
  150.4833  145.7848  160.1730 H   0  0  0  0  0  0  0  0  0  0  0  0
  152.7527  144.8559  160.4473 H   0  0  0  0  0  0  0  0  0  0  0  0
  153.4888  144.7935  158.1060 H   0  0  0  0  0  0  0  0  0  0  0  0
  152.2833  146.0541  158.3421 H   0  0  0  0  0  0  0  0  0  0  0  0
  151.8316  144.5405  157.5630 H   0  0  0  0  0  0  0  0  0  0  0  0
  152.8306  139.0928  157.8565 H   0  0  0  0  0  0  0  0  0  0  0  0
  151.3890  138.8372  158.8089 H   0  0  0  0  0  0  0  0  0  0  0  0
  149.5599  138.9213  157.6600 H   0  0  0  0  0  0  0  0  0  0  0  0
  147.9888  139.3455  156.0636 H   0  0  0  0  0  0  0  0  0  0  0  0
  148.4857  141.6755  157.1853 H   0  0  0  0  0  0  0  0  0  0  0  0
  149.3451  142.0851  155.7325 H   0  0  0  0  0  0  0  0  0  0  0  0
  146.3990  141.2646  155.9491 H   0  0  0  0  0  0  0  0  0  0  0  0
  146.9862  142.8923  155.7786 H   0  0  0  0  0  0  0  0  0  0  0  0
  146.1425  142.1051  153.6530 H   0  0  0  0  0  0  0  0  0  0  0  0
  147.8506  142.4050  153.5043 H   0  0  0  0  0  0  0  0  0  0  0  0
  146.6873  139.6014  154.0165 H   0  0  0  0  0  0  0  0  0  0  0  0
  146.9525  140.2523  152.4185 H   0  0  0  0  0  0  0  0  0  0  0  0
  149.1165  139.7329  152.5518 H   0  0  0  0  0  0  0  0  0  0  0  0
  153.5497  139.7409  160.7422 H   0  0  0  0  0  0  0  0  0  0  0  0
  1  2  1  0  0  0  0
  1 21  1  0  0  0  0
  1 22  1  0  0  0  0
  1 23  1  0  0  0  0
  2  3  1  0  0  0  0
  2  4  1  0  0  0  0
  2 24  1  0  0  0  0
  3 25  1  0  0  0  0
  3 26  1  0  0  0  0
  3 27  1  0  0  0  0
  4 20  1  0  0  0  0
  4  5  2  0  0  0  0
  5  6  1  0  0  0  0
  6  7  1  0  0  0  0
  6 19  2  0  0  0  0
  7  8  1  0  0  0  0
  7 28  1  0  0  0  0
  7 29  1  0  0  0  0
  8  9  2  0  0  0  0
  8 10  1  0  0  0  0
 10 11  1  0  0  0  0
 10 30  1  0  0  0  0
 11 17  1  0  0  0  0
 11 12  1  0  0  0  0
 11 31  1  0  0  0  0
 12 13  1  0  0  0  0
 12 32  1  0  0  0  0
 12 33  1  0  0  0  0
 13 14  1  0  0  0  0
 13 34  1  0  0  0  0
 13 35  1  0  0  0  0
 14 15  1  0  0  0  0
 14 36  1  0  0  0  0
 14 37  1  0  0  0  0
 15 16  1  0  0  0  0
 15 38  1  0  0  0  0
 15 39  1  0  0  0  0
 16 17  1  0  0  0  0
 16 40  1  0  0  0  0
 17 18  2  0  0  0  0
 19 20  1  0  0  0  0
 19 41  1  0  0  0  0
M  END
> <s_m_source_file>
AV-unprocessed.smi

> <i_m_source_file_index>
2167

> <i_lp_mmshare_version>
43012

> <i_f3d_flags>
0

> <s_epik_input>
W0NIM11bQ0hdKFtDSDNdKWMxbmMoW2NIXXMxKVtDSDJdQyg9TylbTkhdW0NAQEhdMltDSDJdW0NIMl1bQ0gyXVtDSDJdW05IXUMyPU8=

> <s_epik_cmdline>
J2VwaWtfcHl0aG9uJywgJy1waCcsICc3LjAnLCAnLXRuJywgJzgnLCAnLW1hJywgJzIwMCcsICctbWV0YWxfYmluZGluZycsICctaW1hZScsICc8aW5maWxlLm1hZT4nLCAnLW9tYWUnLCAnPG91dGZpbGUubWFlPic=

> <r_lp_tautomer_probability>
1

> <r_epik_Ionization_Penalty>
3.1619e-05

> <r_epik_Ionization_Penalty_Charging>
0

> <r_epik_Ionization_Penalty_Neutral>
3.1619e-05

> <r_epik_State_Penalty>
-0

> <r_epik_Charging_Adjusted_Penalty>
0

> <i_epik_Tot_Q>
0

> <i_epik_Tot_abs_Q>
0

> <r_epik_Metal_State_Penalty>
-0

> <b_epik_Metal_Only>
0

> <s_lp_Force_Field>
OPLS_2005

> <r_lp_Energy>
3.21442

> <b_lp_Chiralities_Consistent>
1

> <s_lp_Variant>
AV-unprocessed.smi:2167-2

> <Gold.Version>
5.8.1

> <Gold.Id.Protein>
6NUR|6NUR_protein|mol2

> <Gold.PLP.Fitness>
46.8592

> <Gold.PLP.PLP>
-41.3866

> <Gold.PLP.part.hbond>
-1.8896

> <Gold.PLP.part.metal>
0.0000

> <Gold.PLP.part.buried>
-6.4152

> <Gold.PLP.part.nonpolar>
-34.0246

> <Gold.PLP.part.repulsive>
0.2971

> <Gold.PLP.ligand.clash>
0.0000

> <Gold.PLP.ligand.torsion>
0.2870

> <Gold.PLP.Chemscore.Hbond>
1.9913

> <Gold.PLP.Chemscore.CHOScore>
0.0000

> <Gold.PLP.Chemscore.Metal>
0.0000

> <Gold.Chemscore.Hbonds>
donor molecule, donor type, donor heavy atom, donor atom, acceptor molecule, acceptor atom, score
      L1  H    16    40       P1  7957  0.94
      P1  H  7989  7998       L1    18  1.00

> <Gold.PLP.Chemscore.Internal.Correction>
0.0729

> <Gold.Rescore>
     Score         DG    S(hbond)    S(metal)    S(lipo)     H(rot)  DE(clash)    DE(int)     intcor
     13.81     -19.90       1.93        0.00     102.43       1.57       0.30       5.79       ----

> <Gold.Chemscore.Fitness>
13.8088

> <Gold.Chemscore.DG>
-19.8970

> <Gold.Chemscore.ZeroCoef>
-5.4800

> <Gold.Chemscore.Hbond>
1.9341

> <Gold.Chemscore.Metal>
0.0000

> <Gold.Chemscore.Lipo>
102.4340

> <Gold.Chemscore.Internal_Hbond>
0.0000

> <Gold.Chemscore.DEClash>
0.2984

> <Gold.Chemscore.DEInternal>
5.7898

> <Gold.Chemscore.Rot>
1.5733

> <Gold.Chemscore.Internal.Correction>
   9.000000E+99

> <Gold.Chemscore.Hbonds>
donor molecule, donor type, donor heavy atom, donor atom, acceptor molecule, acceptor atom, score
      L1  H    16    40       P1  7957  0.89
      P1  H  7989  7998       L1    18  0.74

> <Gold.Chemscore.Hbond.Weighted>
-6.4598

> <Gold.Chemscore.Metal.Weighted>
-0.0000

> <Gold.Chemscore.Lipo.Weighted>
-11.9848

> <Gold.Chemscore.Internal_Hbond.Weighted>
0.0000

> <Gold.Chemscore.DEClash.Weighted>
0.2984

> <Gold.Chemscore.DEInternal.Weighted>
5.7898

> <Gold.Chemscore.Rot.Weighted>
4.0276

> <Gold.Chemscore.Internal.Correction.Weighted>
   9.000000E+99

> <Gold.Protein.RotatedTorsions>
[ 6907 6896 6895 6894 ] final -174.89 input  -60.11 | X-H torsion
[ 7974 7965 7964 7962 ] final   40.92 input  175.53 | X-H torsion
[ 8008 7997 7996 7995 ] final -171.12 input   59.86 | X-H torsion
[ 10167 10162 10161 10158 ] final  -16.70 input  -65.29 | X-H torsion
[ 10718 10713 10712 10709 ] final  112.98 input   66.30 | X-H torsion
[ 10763 10752 10751 10750 ] final  155.04 input  -60.55 | X-H torsion
[ 11005 11000 10999 10996 ] final   68.09 input  -57.11 | X-H torsion

> <Gold.Protein.ActiveResidues>
 VAL166  LYS551  ARG553  GLY616  TRP617  ASP618  TYR619  PRO620  LYS621  CYS622 
 ASP623  PHE694  ASN695  SER759  ASP760  ASP761  ALA762  ILE779  LEU786  VAL792 
 PHE793  MET794  SER795  GLU796  ALA797  LYS798  CYS799  TRP800  GLU811  SER814 

> <Gold.Protein.RotatedAtoms>
  151.5797  133.3379  159.3005 H   0  0  0  0  0  0  0  0  0  0  0  0  # atno 6907 bound_to 6896
  150.8320  134.7580  159.6873 H   0  0  0  0  0  0  0  0  0  0  0  0  # atno 6908 bound_to 6896
  152.4402  134.5612  159.9946 H   0  0  0  0  0  0  0  0  0  0  0  0  # atno 6909 bound_to 6896
  146.0866  139.5476  142.9503 H   0  0  0  0  0  0  0  0  0  0  0  0  # atno 7974 bound_to 7965
  155.9274  140.1085  157.1160 H   0  0  0  0  0  0  0  0  0  0  0  0  # atno 8008 bound_to 7997
  154.4064  140.1244  156.4823 H   0  0  0  0  0  0  0  0  0  0  0  0  # atno 8009 bound_to 7997
  155.7122  140.3471  155.4981 H   0  0  0  0  0  0  0  0  0  0  0  0  # atno 8010 bound_to 7997
  140.7237  143.5090  150.9773 H   0  0  0  0  0  0  0  0  0  0  0  0  # atno 10167 bound_to 10162
  157.6363  131.0976  150.6974 H   0  0  0  0  0  0  0  0  0  0  0  0  # atno 10718 bound_to 10713
  154.1619  135.2809  155.3106 H   0  0  0  0  0  0  0  0  0  0  0  0  # atno 10763 bound_to 10752
  154.6140  135.5489  153.7507 H   0  0  0  0  0  0  0  0  0  0  0  0  # atno 10764 bound_to 10752
  153.0190  135.6422  154.1761 H   0  0  0  0  0  0  0  0  0  0  0  0  # atno 10765 bound_to 10752
  139.9732  134.6866  156.0406 H   0  0  0  0  0  0  0  0  0  0  0  0  # atno 11005 bound_to 11000
  145.6119  141.0338  143.1962 LP  0  0  0  0  0  0  0  0  0  0  0  0  # atno 17320 bound_to 7965
  144.7330  139.7669  143.7340 LP  0  0  0  0  0  0  0  0  0  0  0  0  # atno 17321 bound_to 7965
  139.8803  143.7081  152.3157 LP  0  0  0  0  0  0  0  0  0  0  0  0  # atno 17342 bound_to 10162
  139.7360  144.7571  151.0726 LP  0  0  0  0  0  0  0  0  0  0  0  0  # atno 17343 bound_to 10162
  156.7305  130.4708  149.5501 LP  0  0  0  0  0  0  0  0  0  0  0  0  # atno 17370 bound_to 10713
  156.1605  130.6371  151.0713 LP  0  0  0  0  0  0  0  0  0  0  0  0  # atno 17371 bound_to 10713
  141.1410  133.6565  156.3730 LP  0  0  0  0  0  0  0  0  0  0  0  0  # atno 17394 bound_to 11000
  140.5250  134.6267  157.5331 LP  0  0  0  0  0  0  0  0  0  0  0  0  # atno 17395 bound_to 11000

$$$$
