AV-unprocessed.smi:3257|AV-procd|sdf|12467|dock3
  -GOLD-   2272018363D 1   1.00000     0.00000
 Structure written by MMmdl.
 38 39  0  0  0  0  0  0  0  0  1 V2000
  151.7185  144.9913  159.0013 C   0  0  0  0  0  0  0  0  0  0  0  0
  152.2834  143.8334  159.6607 N   0  0  0  0  0  0  0  0  0  0  0  0
  152.7862  142.6819  159.0946 C   0  0  0  0  0  0  0  0  0  0  0  0
  153.2071  141.8738  160.1132 C   0  0  0  0  0  0  0  0  0  0  0  0
  153.8351  140.5108  160.0339 C   0  0  0  0  0  0  0  0  0  0  0  0
  152.8413  139.4613  159.5105 C   0  0  0  0  0  0  0  0  0  0  0  0
  152.5291  139.6744  158.1025 N   0  0  0  0  0  0  0  0  0  0  0  0
  151.4008  140.2320  157.6308 C   0  0  0  0  0  0  0  0  0  0  0  0
  150.5060  140.6276  158.3794 O   0  0  0  0  0  0  0  0  0  0  0  0
  151.3390  140.3346  156.2784 N   0  0  0  0  0  0  0  0  0  0  0  0
  152.0348  139.4742  155.3040 C   0  0  0  0  0  0  0  0  0  0  0  0
  151.0042  138.5466  154.6344 C   0  0  0  0  0  0  0  0  0  0  0  0
  149.8809  139.3694  153.9726 C   0  0  0  0  0  0  0  0  0  0  0  0
  148.8670  138.5065  153.5028 O   0  0  0  0  0  0  0  0  0  0  0  0
  149.2810  140.3980  154.9518 C   0  0  0  0  0  0  0  0  0  0  0  0
  150.3918  141.2375  155.6099 C   0  0  0  0  0  0  0  0  0  0  0  0
  152.9088  142.6323  161.2811 C   0  0  0  0  0  0  0  0  0  0  0  0
  152.3563  143.8031  161.0073 N   0  0  0  0  0  0  0  0  0  0  0  0
  151.9251  144.9489  157.9315 H   0  0  0  0  0  0  0  0  0  0  0  0
  152.1561  145.9033  159.4095 H   0  0  0  0  0  0  0  0  0  0  0  0
  150.6394  145.0106  159.1545 H   0  0  0  0  0  0  0  0  0  0  0  0
  152.8051  142.5341  158.0248 H   0  0  0  0  0  0  0  0  0  0  0  0
  154.7130  140.5347  159.3872 H   0  0  0  0  0  0  0  0  0  0  0  0
  154.1994  140.2037  161.0150 H   0  0  0  0  0  0  0  0  0  0  0  0
  153.2679  138.4627  159.6094 H   0  0  0  0  0  0  0  0  0  0  0  0
  151.9259  139.4682  160.1053 H   0  0  0  0  0  0  0  0  0  0  0  0
  153.2226  139.3760  157.4324 H   0  0  0  0  0  0  0  0  0  0  0  0
  152.5113  140.1031  154.5508 H   0  0  0  0  0  0  0  0  0  0  0  0
  152.8419  138.8801  155.7321 H   0  0  0  0  0  0  0  0  0  0  0  0
  151.4948  137.9153  153.8928 H   0  0  0  0  0  0  0  0  0  0  0  0
  150.5828  137.8758  155.3849 H   0  0  0  0  0  0  0  0  0  0  0  0
  150.2921  139.9005  153.1133 H   0  0  0  0  0  0  0  0  0  0  0  0
  149.2726  137.7878  153.0421 H   0  0  0  0  0  0  0  0  0  0  0  0
  148.5790  141.0490  154.4300 H   0  0  0  0  0  0  0  0  0  0  0  0
  148.7108  139.8848  155.7280 H   0  0  0  0  0  0  0  0  0  0  0  0
  149.9512  141.9675  156.2902 H   0  0  0  0  0  0  0  0  0  0  0  0
  150.9193  141.8209  154.8540 H   0  0  0  0  0  0  0  0  0  0  0  0
  153.0771  142.3672  162.3144 H   0  0  0  0  0  0  0  0  0  0  0  0
  1  2  1  0  0  0  0
  1 19  1  0  0  0  0
  1 20  1  0  0  0  0
  1 21  1  0  0  0  0
  2 18  1  0  0  0  0
  2  3  1  0  0  0  0
  3  4  2  0  0  0  0
  3 22  1  0  0  0  0
  4  5  1  0  0  0  0
  4 17  1  0  0  0  0
  5  6  1  0  0  0  0
  5 23  1  0  0  0  0
  5 24  1  0  0  0  0
  6  7  1  0  0  0  0
  6 25  1  0  0  0  0
  6 26  1  0  0  0  0
  7  8  1  0  0  0  0
  7 27  1  0  0  0  0
  8  9  2  0  0  0  0
  8 10  1  0  0  0  0
 10 16  1  0  0  0  0
 10 11  1  0  0  0  0
 11 12  1  0  0  0  0
 11 28  1  0  0  0  0
 11 29  1  0  0  0  0
 12 13  1  0  0  0  0
 12 30  1  0  0  0  0
 12 31  1  0  0  0  0
 13 14  1  0  0  0  0
 13 15  1  0  0  0  0
 13 32  1  0  0  0  0
 14 33  1  0  0  0  0
 15 16  1  0  0  0  0
 15 34  1  0  0  0  0
 15 35  1  0  0  0  0
 16 36  1  0  0  0  0
 16 37  1  0  0  0  0
 17 18  2  0  0  0  0
 17 38  1  0  0  0  0
M  END
> <s_m_source_file>
AV-unprocessed.smi

> <i_m_source_file_index>
3257

> <i_lp_mmshare_version>
43012

> <i_f3d_flags>
0

> <s_epik_input>
W0NIM11uMVtjSF1jKFtjSF1uMSlbQ0gyXVtDSDJdW05IXUMoPU8pTjJbQ0gyXVtDSDJdW0NIXShbT0hdKVtDSDJdW0NIMl0y

> <s_epik_cmdline>
J2VwaWtfcHl0aG9uJywgJy1waCcsICc3LjAnLCAnLXRuJywgJzgnLCAnLW1hJywgJzIwMCcsICctbWV0YWxfYmluZGluZycsICctaW1hZScsICc8aW5maWxlLm1hZT4nLCAnLW9tYWUnLCAnPG91dGZpbGUubWFlPic=

> <r_lp_tautomer_probability>
1

> <r_epik_Ionization_Penalty>
0.000563034

> <r_epik_Ionization_Penalty_Charging>
0

> <r_epik_Ionization_Penalty_Neutral>
0.000563034

> <r_epik_State_Penalty>
-0

> <r_epik_Charging_Adjusted_Penalty>
0

> <i_epik_Tot_Q>
0

> <i_epik_Tot_abs_Q>
0

> <r_epik_Metal_State_Penalty>
-0

> <b_epik_Metal_Only>
0

> <s_lp_Force_Field>
OPLS_2005

> <r_lp_Energy>
25.1646

> <b_lp_Chiralities_Consistent>
1

> <s_lp_Variant>
AV-unprocessed.smi:3257-1

> <Gold.Version>
5.8.1

> <Gold.Id.Protein>
6NUR|6NUR_protein|mol2

> <Gold.PLP.Fitness>
46.9157

> <Gold.PLP.PLP>
-44.6818

> <Gold.PLP.part.hbond>
-2.0000

> <Gold.PLP.part.metal>
0.0000

> <Gold.PLP.part.buried>
-1.5982

> <Gold.PLP.part.nonpolar>
-40.4284

> <Gold.PLP.part.repulsive>
0.1883

> <Gold.PLP.ligand.clash>
0.0000

> <Gold.PLP.ligand.torsion>
0.4028

> <Gold.PLP.Chemscore.Hbond>
1.0000

> <Gold.PLP.Chemscore.CHOScore>
0.0000

> <Gold.PLP.Chemscore.Metal>
0.0000

> <Gold.Chemscore.Hbonds>
donor molecule, donor type, donor heavy atom, donor atom, acceptor molecule, acceptor atom, score
      L1  H    14    33       P1  7948  0.93

> <Gold.PLP.Chemscore.Internal.Correction>
0.0395

> <Gold.Rescore>
     Score         DG    S(hbond)    S(metal)    S(lipo)     H(rot)  DE(clash)    DE(int)     intcor
     14.80     -15.26       0.98        0.00      98.15       1.95       0.10       0.36       ----

> <Gold.Chemscore.Fitness>
14.7959

> <Gold.Chemscore.DG>
-15.2578

> <Gold.Chemscore.ZeroCoef>
-5.4800

> <Gold.Chemscore.Hbond>
0.9804

> <Gold.Chemscore.Metal>
0.0000

> <Gold.Chemscore.Lipo>
98.1494

> <Gold.Chemscore.Internal_Hbond>
0.0000

> <Gold.Chemscore.DEClash>
0.1012

> <Gold.Chemscore.DEInternal>
0.3606

> <Gold.Chemscore.Rot>
1.9454

> <Gold.Chemscore.Internal.Correction>
   9.000000E+99

> <Gold.Chemscore.Hbonds>
donor molecule, donor type, donor heavy atom, donor atom, acceptor molecule, acceptor atom, score
      L1  H    14    33       P1  7948  0.87

> <Gold.Chemscore.Hbond.Weighted>
-3.2745

> <Gold.Chemscore.Metal.Weighted>
-0.0000

> <Gold.Chemscore.Lipo.Weighted>
-11.4835

> <Gold.Chemscore.Internal_Hbond.Weighted>
0.0000

> <Gold.Chemscore.DEClash.Weighted>
0.1012

> <Gold.Chemscore.DEInternal.Weighted>
0.3606

> <Gold.Chemscore.Rot.Weighted>
4.9802

> <Gold.Chemscore.Internal.Correction.Weighted>
   9.000000E+99

> <Gold.Protein.RotatedTorsions>
[ 6907 6896 6895 6894 ] final   -0.63 input  -60.11 | X-H torsion
[ 7974 7965 7964 7962 ] final -152.24 input  175.53 | X-H torsion
[ 8008 7997 7996 7995 ] final -102.98 input   59.86 | X-H torsion
[ 10167 10162 10161 10158 ] final -144.91 input  -65.29 | X-H torsion
[ 10718 10713 10712 10709 ] final    0.71 input   66.30 | X-H torsion
[ 10763 10752 10751 10750 ] final  123.42 input  -60.55 | X-H torsion
[ 11005 11000 10999 10996 ] final   63.37 input  -57.11 | X-H torsion

> <Gold.Protein.ActiveResidues>
 VAL166  LYS551  ARG553  GLY616  TRP617  ASP618  TYR619  PRO620  LYS621  CYS622 
 ASP623  PHE694  ASN695  SER759  ASP760  ASP761  ALA762  ILE779  LEU786  VAL792 
 PHE793  MET794  SER795  GLU796  ALA797  LYS798  CYS799  TRP800  GLU811  SER814 

> <Gold.Protein.RotatedAtoms>
  151.5591  135.1066  159.9968 H   0  0  0  0  0  0  0  0  0  0  0  0  # atno 6907 bound_to 6896
  152.4455  133.7524  159.6712 H   0  0  0  0  0  0  0  0  0  0  0  0  # atno 6908 bound_to 6896
  150.8370  133.7930  159.3100 H   0  0  0  0  0  0  0  0  0  0  0  0  # atno 6909 bound_to 6896
  144.7805  140.4689  143.5843 H   0  0  0  0  0  0  0  0  0  0  0  0  # atno 7974 bound_to 7965
  154.8643  140.0425  157.1685 H   0  0  0  0  0  0  0  0  0  0  0  0  # atno 8008 bound_to 7997
  154.8806  140.2972  155.5406 H   0  0  0  0  0  0  0  0  0  0  0  0  # atno 8009 bound_to 7997
  156.2999  140.2412  156.3808 H   0  0  0  0  0  0  0  0  0  0  0  0  # atno 8010 bound_to 7997
  139.7855  143.8040  152.2644 H   0  0  0  0  0  0  0  0  0  0  0  0  # atno 10167 bound_to 10162
  156.8375  130.5509  149.5681 H   0  0  0  0  0  0  0  0  0  0  0  0  # atno 10718 bound_to 10713
  153.6452  135.3372  155.3083 H   0  0  0  0  0  0  0  0  0  0  0  0  # atno 10763 bound_to 10752
  154.8550  135.4328  154.1962 H   0  0  0  0  0  0  0  0  0  0  0  0  # atno 10764 bound_to 10752
  153.2891  135.7015  153.7385 H   0  0  0  0  0  0  0  0  0  0  0  0  # atno 10765 bound_to 10752
  140.0029  134.6414  155.9902 H   0  0  0  0  0  0  0  0  0  0  0  0  # atno 11005 bound_to 11000
  145.6064  139.1509  143.3100 LP  0  0  0  0  0  0  0  0  0  0  0  0  # atno 17320 bound_to 7965
  146.2010  140.6182  142.9102 LP  0  0  0  0  0  0  0  0  0  0  0  0  # atno 17321 bound_to 7965
  139.8116  144.7333  150.9690 LP  0  0  0  0  0  0  0  0  0  0  0  0  # atno 17342 bound_to 10162
  140.7819  143.4245  151.0789 LP  0  0  0  0  0  0  0  0  0  0  0  0  # atno 17343 bound_to 10162
  156.0899  130.5888  150.9715 LP  0  0  0  0  0  0  0  0  0  0  0  0  # atno 17370 bound_to 10713
  157.6374  131.0914  150.8321 LP  0  0  0  0  0  0  0  0  0  0  0  0  # atno 17371 bound_to 10713
  141.1655  133.6537  156.4466 LP  0  0  0  0  0  0  0  0  0  0  0  0  # atno 17394 bound_to 11000
  140.4695  134.6767  157.5122 LP  0  0  0  0  0  0  0  0  0  0  0  0  # atno 17395 bound_to 11000

$$$$
