AV-unprocessed.smi:243|AV-procd|sdf|1858|dock7
  -GOLD-   2262020493D 1   1.00000     0.00000
 Structure written by MMmdl.
 58 61  0  0  0  0  0  0  0  0  2 V2000
  147.8503  127.3899  151.2520 C   0  0  0  0  0  0  0  0  0  0  0  0
  146.8270  128.5086  151.4970 C   0  0  0  0  0  0  0  0  0  0  0  0
  147.4433  129.7293  152.0761 N   0  3  2  0  0  0  0  0  0  0  0  0
  148.2475  129.4266  153.2877 C   0  0  0  0  0  0  0  0  0  0  0  0
  148.9769  130.6743  153.8224 C   0  0  0  0  0  0  0  0  0  0  0  0
  148.0791  131.9185  153.9894 C   0  0  2  0  0  0  0  0  0  0  0  0
  147.3823  131.9767  155.2874 N   0  0  0  0  0  0  0  0  0  0  0  0
  145.9386  131.8114  155.4450 C   0  0  0  0  0  0  0  0  0  0  0  0
  148.0407  132.5648  156.3199 C   0  0  0  0  0  0  0  0  0  0  0  0
  149.2648  133.1125  156.0962 N   0  0  0  0  0  0  0  0  0  0  0  0
  149.9444  133.6785  157.0975 C   0  0  0  0  0  0  0  0  0  0  0  0
  149.5907  133.8077  158.3773 N   0  0  0  0  0  0  0  0  0  0  0  0
  148.3560  133.2761  158.6063 C   0  0  0  0  0  0  0  0  0  0  0  0
  147.5205  132.6417  157.6437 C   0  0  0  0  0  0  0  0  0  0  0  0
  146.3349  132.2335  158.2438 N   0  0  0  0  0  0  0  0  0  0  0  0
  146.4681  132.5934  159.4911 C   0  0  0  0  0  0  0  0  0  0  0  0
  147.6491  133.2322  159.7957 N   0  0  0  0  0  0  0  0  0  0  0  0
  148.0582  133.7319  161.1000 C   0  0  0  0  0  0  0  0  0  0  0  0
  147.2067  134.9202  161.6067 C   0  0  1  0  0  0  0  0  0  0  0  0
  145.8899  134.4661  161.8707 O   0  0  0  0  0  0  0  0  0  0  0  0
  147.7613  135.5416  162.8833 C   0  0  0  0  0  0  0  0  0  0  0  0
  147.3193  136.9944  162.7721 C   0  0  0  0  0  0  0  0  0  0  0  0
  147.4997  137.2723  161.3942 O   0  0  0  0  0  0  0  0  0  0  0  0
  147.1263  136.1220  160.6414 C   0  0  0  0  0  0  0  0  0  0  0  0
  147.1780  132.1194  152.7458 C   0  0  2  0  0  0  0  0  0  0  0  0
  146.2181  133.3159  152.8621 C   0  0  0  0  0  0  0  0  0  0  0  0
  146.4644  130.8218  152.3189 C   0  0  0  0  0  0  0  0  0  0  0  0
  147.3490  126.4800  150.9210 H   0  0  0  0  0  0  0  0  0  0  0  0
  148.3984  127.1503  152.1639 H   0  0  0  0  0  0  0  0  0  0  0  0
  148.5744  127.6552  150.4824 H   0  0  0  0  0  0  0  0  0  0  0  0
  146.2972  128.7567  150.5760 H   0  0  0  0  0  0  0  0  0  0  0  0
  146.0770  128.1225  152.1888 H   0  0  0  0  0  0  0  0  0  0  0  0
  147.6152  128.9749  154.0489 H   0  0  0  0  0  0  0  0  0  0  0  0
  148.9957  128.6723  153.0404 H   0  0  0  0  0  0  0  0  0  0  0  0
  149.4896  130.4453  154.7575 H   0  0  0  0  0  0  0  0  0  0  0  0
  149.7643  130.9249  153.1104 H   0  0  0  0  0  0  0  0  0  0  0  0
  148.7610  132.7680  153.9638 H   0  0  0  0  0  0  0  0  0  0  0  0
  145.6924  131.5498  156.4752 H   0  0  0  0  0  0  0  0  0  0  0  0
  145.5447  131.0175  154.8191 H   0  0  0  0  0  0  0  0  0  0  0  0
  145.4127  132.7339  155.1992 H   0  0  0  0  0  0  0  0  0  0  0  0
  150.9104  134.0849  156.8361 H   0  0  0  0  0  0  0  0  0  0  0  0
  145.7011  132.4052  160.2284 H   0  0  0  0  0  0  0  0  0  0  0  0
  148.0131  132.9054  161.8105 H   0  0  0  0  0  0  0  0  0  0  0  0
  149.1076  134.0231  161.0396 H   0  0  0  0  0  0  0  0  0  0  0  0
  145.3255  135.2195  161.9566 H   0  0  0  0  0  0  0  0  0  0  0  0
  147.4156  135.0556  163.7968 H   0  0  0  0  0  0  0  0  0  0  0  0
  148.8516  135.5032  162.8808 H   0  0  0  0  0  0  0  0  0  0  0  0
  146.2662  137.1067  163.0352 H   0  0  0  0  0  0  0  0  0  0  0  0
  147.9070  137.6653  163.3989 H   0  0  0  0  0  0  0  0  0  0  0  0
  147.8130  136.0297  159.8010 H   0  0  0  0  0  0  0  0  0  0  0  0
  146.1242  136.2552  160.2305 H   0  0  0  0  0  0  0  0  0  0  0  0
  147.8547  132.3671  151.9261 H   0  0  0  0  0  0  0  0  0  0  0  0
  145.4397  133.1431  153.6048 H   0  0  0  0  0  0  0  0  0  0  0  0
  145.7232  133.5125  151.9107 H   0  0  0  0  0  0  0  0  0  0  0  0
  146.7539  134.2222  153.1462 H   0  0  0  0  0  0  0  0  0  0  0  0
  145.9051  131.0220  151.4058 H   0  0  0  0  0  0  0  0  0  0  0  0
  145.7321  130.5073  153.0617 H   0  0  0  0  0  0  0  0  0  0  0  0
  148.0970  130.0720  151.3865 H   0  0  0  0  0  0  0  0  0  0  0  0
  1  2  1  0  0  0  0
  1 28  1  0  0  0  0
  1 29  1  0  0  0  0
  1 30  1  0  0  0  0
  2  3  1  0  0  0  0
  2 31  1  0  0  0  0
  2 32  1  0  0  0  0
  3 27  1  0  0  0  0
  3  4  1  0  0  0  0
  3 58  1  0  0  0  0
  4  5  1  0  0  0  0
  4 33  1  0  0  0  0
  4 34  1  0  0  0  0
  5  6  1  0  0  0  0
  5 35  1  0  0  0  0
  5 36  1  0  0  0  0
  6  7  1  0  0  0  0
  6 25  1  0  0  0  0
  6 37  1  0  0  0  0
  7  8  1  0  0  0  0
  7  9  1  0  0  0  0
  8 38  1  0  0  0  0
  8 39  1  0  0  0  0
  8 40  1  0  0  0  0
  9 14  1  0  0  0  0
  9 10  2  0  0  0  0
 10 11  1  0  0  0  0
 11 12  2  0  0  0  0
 11 41  1  0  0  0  0
 12 13  1  0  0  0  0
 13 17  1  0  0  0  0
 13 14  2  0  0  0  0
 14 15  1  0  0  0  0
 15 16  2  0  0  0  0
 16 17  1  0  0  0  0
 16 42  1  0  0  0  0
 17 18  1  0  0  0  0
 18 19  1  0  0  0  0
 18 43  1  0  0  0  0
 18 44  1  0  0  0  0
 19 24  1  0  0  0  0
 19 20  1  0  0  0  0
 19 21  1  0  0  0  0
 20 45  1  0  0  0  0
 21 22  1  0  0  0  0
 21 46  1  0  0  0  0
 21 47  1  0  0  0  0
 22 23  1  0  0  0  0
 22 48  1  0  0  0  0
 22 49  1  0  0  0  0
 23 24  1  0  0  0  0
 24 50  1  0  0  0  0
 24 51  1  0  0  0  0
 25 26  1  0  0  0  0
 25 27  1  0  0  0  0
 25 52  1  0  0  0  0
 26 53  1  0  0  0  0
 26 54  1  0  0  0  0
 26 55  1  0  0  0  0
 27 56  1  0  0  0  0
 27 57  1  0  0  0  0
M  CHG  1   3   1
M  END
> <s_m_source_file>
AV-unprocessed.smi

> <i_m_source_file_index>
243

> <i_lp_mmshare_version>
43012

> <i_f3d_flags>
0

> <s_epik_input>
W0NIM11bQ0gyXU4xW0NIMl1bQ0gyXVtDQEhdKFtDQEBIXShbQ0gzXSlbQ0gyXTEpTihbQ0gzXSljKG5bY0hdbjIpYyhjMjMpbltjSF1uM1tDSDJdW0NAQF00KFtPSF0pW0NIMl1bQ0gyXU9bQ0gyXTQ=

> <s_epik_cmdline>
J2VwaWtfcHl0aG9uJywgJy1waCcsICc3LjAnLCAnLXRuJywgJzgnLCAnLW1hJywgJzIwMCcsICctbWV0YWxfYmluZGluZycsICctaW1hZScsICc8aW5maWxlLm1hZT4nLCAnLW9tYWUnLCAnPG91dGZpbGUubWFlPic=

> <r_lp_tautomer_probability>
1

> <r_epik_Ionization_Penalty>
0.00253099

> <r_epik_Ionization_Penalty_Charging>
0.00137877

> <r_epik_Ionization_Penalty_Neutral>
0.00115221

> <r_epik_State_Penalty>
-0

> <r_epik_Charging_Adjusted_Penalty>
0.00137877

> <i_epik_Tot_Q>
1

> <i_epik_Tot_abs_Q>
1

> <r_epik_Metal_State_Penalty>
-0

> <b_epik_Metal_Only>
0

> <s_lp_Force_Field>
OPLS_2005

> <r_lp_Energy>
51.0856

> <b_lp_Chiralities_Consistent>
1

> <s_lp_Variant>
AV-unprocessed.smi:243-11

> <Gold.Version>
5.8.1

> <Gold.Id.Protein>
6NUR|6NUR_protein|mol2

> <Gold.PLP.Fitness>
48.9269

> <Gold.PLP.PLP>
-39.8109

> <Gold.PLP.part.hbond>
-4.0000

> <Gold.PLP.part.metal>
0.0000

> <Gold.PLP.part.buried>
-4.2158

> <Gold.PLP.part.nonpolar>
-31.6858

> <Gold.PLP.part.repulsive>
0.0318

> <Gold.PLP.ligand.clash>
0.0000

> <Gold.PLP.ligand.torsion>
0.6998

> <Gold.PLP.Chemscore.Hbond>
3.3309

> <Gold.PLP.Chemscore.CHOScore>
0.0000

> <Gold.PLP.Chemscore.Metal>
0.0000

> <Gold.Chemscore.Hbonds>
donor molecule, donor type, donor heavy atom, donor atom, acceptor molecule, acceptor atom, score
      L1  H     3    58       P1 10747  1.00
      P1  H  6896  6908       L1    12  0.84
      P1  H  6931  6943       L1    23  0.31
      P1  H  6934  6947       L1    23  0.88

> <Gold.PLP.Chemscore.Internal.Correction>
0.5229

> <Gold.Rescore>
     Score         DG    S(hbond)    S(metal)    S(lipo)     H(rot)  DE(clash)    DE(int)     intcor
     17.22     -20.41       2.82        0.00      96.00       2.24       0.12       3.08       ----

> <Gold.Chemscore.Fitness>
17.2154

> <Gold.Chemscore.DG>
-20.4107

> <Gold.Chemscore.ZeroCoef>
-5.4800

> <Gold.Chemscore.Hbond>
2.8229

> <Gold.Chemscore.Metal>
0.0000

> <Gold.Chemscore.Lipo>
95.9954

> <Gold.Chemscore.Internal_Hbond>
0.0000

> <Gold.Chemscore.DEClash>
0.1158

> <Gold.Chemscore.DEInternal>
3.0795

> <Gold.Chemscore.Rot>
2.2379

> <Gold.Chemscore.Internal.Correction>
   9.000000E+99

> <Gold.Chemscore.Hbonds>
donor molecule, donor type, donor heavy atom, donor atom, acceptor molecule, acceptor atom, score
      L1  H     3    58       P1 10747  0.95
      P1  H  6896  6908       L1    12  0.69
      P1  H  6931  6943       L1    23  0.01
      P1  H  6934  6947       L1    23  0.76

> <Gold.Chemscore.Hbond.Weighted>
-9.4283

> <Gold.Chemscore.Metal.Weighted>
-0.0000

> <Gold.Chemscore.Lipo.Weighted>
-11.2315

> <Gold.Chemscore.Internal_Hbond.Weighted>
0.0000

> <Gold.Chemscore.DEClash.Weighted>
0.1158

> <Gold.Chemscore.DEInternal.Weighted>
3.0795

> <Gold.Chemscore.Rot.Weighted>
5.7291

> <Gold.Chemscore.Internal.Correction.Weighted>
   9.000000E+99

> <Gold.Protein.RotatedTorsions>
[ 6907 6896 6895 6894 ] final  122.68 input  -60.11 | X-H torsion
[ 7974 7965 7964 7962 ] final   47.85 input  175.53 | X-H torsion
[ 8008 7997 7996 7995 ] final -120.16 input   59.86 | X-H torsion
[ 10167 10162 10161 10158 ] final   62.61 input  -65.29 | X-H torsion
[ 10718 10713 10712 10709 ] final  -63.35 input   66.30 | X-H torsion
[ 10763 10752 10751 10750 ] final  -80.98 input  -60.55 | X-H torsion
[ 11005 11000 10999 10996 ] final   78.79 input  -57.11 | X-H torsion

> <Gold.Protein.ActiveResidues>
 VAL166  LYS551  ARG553  GLY616  TRP617  ASP618  TYR619  PRO620  LYS621  CYS622 
 ASP623  PHE694  ASN695  SER759  ASP760  ASP761  ALA762  ILE779  LEU786  VAL792 
 PHE793  MET794  SER795  GLU796  ALA797  LYS798  CYS799  TRP800  GLU811  SER814 

> <Gold.Protein.RotatedAtoms>
  152.4224  133.7138  159.6493 H   0  0  0  0  0  0  0  0  0  0  0  0  # atno 6907 bound_to 6896
  150.8099  133.8429  159.3193 H   0  0  0  0  0  0  0  0  0  0  0  0  # atno 6908 bound_to 6896
  151.6142  135.1039  160.0139 H   0  0  0  0  0  0  0  0  0  0  0  0  # atno 6909 bound_to 6896
  146.0259  139.4705  142.9868 H   0  0  0  0  0  0  0  0  0  0  0  0  # atno 7974 bound_to 7965
  155.1273  140.0399  157.2765 H   0  0  0  0  0  0  0  0  0  0  0  0  # atno 8008 bound_to 7997
  154.6569  140.2582  155.7126 H   0  0  0  0  0  0  0  0  0  0  0  0  # atno 8009 bound_to 7997
  156.2602  140.2825  156.1025 H   0  0  0  0  0  0  0  0  0  0  0  0  # atno 8010 bound_to 7997
  140.1420  144.4544  150.6806 H   0  0  0  0  0  0  0  0  0  0  0  0  # atno 10167 bound_to 10162
  156.0796  130.4220  150.1265 H   0  0  0  0  0  0  0  0  0  0  0  0  # atno 10718 bound_to 10713
  154.5579  135.5642  153.6980 H   0  0  0  0  0  0  0  0  0  0  0  0  # atno 10763 bound_to 10752
  153.0009  135.6266  154.2285 H   0  0  0  0  0  0  0  0  0  0  0  0  # atno 10764 bound_to 10752
  154.2222  135.2869  155.2900 H   0  0  0  0  0  0  0  0  0  0  0  0  # atno 10765 bound_to 10752
  139.9198  134.7791  156.1695 H   0  0  0  0  0  0  0  0  0  0  0  0  # atno 11005 bound_to 11000
  145.7119  141.0103  143.1449 LP  0  0  0  0  0  0  0  0  0  0  0  0  # atno 17320 bound_to 7965
  144.7009  139.8767  143.7444 LP  0  0  0  0  0  0  0  0  0  0  0  0  # atno 17321 bound_to 7965
  140.6754  143.2303  151.5519 LP  0  0  0  0  0  0  0  0  0  0  0  0  # atno 17342 bound_to 10162
  139.5467  144.2502  152.1456 LP  0  0  0  0  0  0  0  0  0  0  0  0  # atno 17343 bound_to 10162
  156.9299  130.9710  151.3534 LP  0  0  0  0  0  0  0  0  0  0  0  0  # atno 17370 bound_to 10713
  157.5907  130.8442  149.8655 LP  0  0  0  0  0  0  0  0  0  0  0  0  # atno 17371 bound_to 10713
  141.0709  133.6797  156.2139 LP  0  0  0  0  0  0  0  0  0  0  0  0  # atno 17394 bound_to 11000
  140.6508  134.5069  157.5577 LP  0  0  0  0  0  0  0  0  0  0  0  0  # atno 17395 bound_to 11000

$$$$
