AV-unprocessed.smi:30|AV-procd|sdf|193|dock9
  -GOLD-   2262015463D 1   1.00000     0.00000
 Structure written by MMmdl.
 54 57  0  0  0  0  0  0  0  0  1 V2000
  148.4984  133.6868  155.8327 O   0  0  0  0  0  0  0  0  0  0  0  0
  149.3633  133.6353  154.9571 C   0  0  0  0  0  0  0  0  0  0  0  0
  149.6004  132.3365  154.1701 C   0  0  0  0  0  0  0  0  0  0  0  0
  148.3866  131.8197  153.4998 N   0  0  0  0  0  0  0  0  0  0  0  0
  148.0902  130.4390  153.6122 C   0  0  0  0  0  0  0  0  0  0  0  0
  148.8023  129.6846  154.2769 O   0  0  0  0  0  0  0  0  0  0  0  0
  146.9142  129.9877  152.8789 C   0  0  0  0  0  0  0  0  0  0  0  0
  146.5851  128.6847  152.8864 F   0  0  0  0  0  0  0  0  0  0  0  0
  146.1590  130.8557  152.1752 C   0  0  0  0  0  0  0  0  0  0  0  0
  146.4249  132.2128  152.1178 N   0  0  0  0  0  0  0  0  0  0  0  0
  145.6178  133.1454  151.2375 C   0  0  2  0  0  0  0  0  0  0  0  0
  144.1702  133.3643  151.7113 C   0  0  0  0  0  0  0  0  0  0  0  0
  143.3766  132.5328  150.7226 C   0  0  0  0  0  0  0  0  0  0  0  0
  144.2390  132.6391  149.4711 C   0  0  0  0  0  0  0  0  0  0  0  0
  145.5723  132.5821  149.9606 O   0  0  0  0  0  0  0  0  0  0  0  0
  147.5933  132.7116  152.7384 C   0  0  0  0  0  0  0  0  0  0  0  0
  147.9162  133.8956  152.6191 O   0  0  0  0  0  0  0  0  0  0  0  0
  150.1796  134.6549  154.6339 N   0  0  0  0  0  0  0  0  0  0  0  0
  150.1927  135.9781  155.1519 C   0  0  0  0  0  0  0  0  0  0  0  0
  149.4513  136.2227  156.3246 C   0  0  0  0  0  0  0  0  0  0  0  0
  149.4380  137.5046  156.9062 C   0  0  0  0  0  0  0  0  0  0  0  0
  150.1736  138.5635  156.3379 C   0  0  0  0  0  0  0  0  0  0  0  0
  150.1069  139.7847  156.9740 O   0  0  0  0  0  0  0  0  0  0  0  0
  150.8439  140.8703  156.4276 C   0  0  0  0  0  0  0  0  0  0  0  0
  151.5076  141.6880  157.5175 C   0  0  0  0  0  0  0  0  0  0  0  0
  151.3482  143.0893  157.5393 C   0  0  0  0  0  0  0  0  0  0  0  0
  151.9666  143.8569  158.5455 C   0  0  0  0  0  0  0  0  0  0  0  0
  152.7478  143.2257  159.5328 C   0  0  0  0  0  0  0  0  0  0  0  0
  152.9106  141.8269  159.5133 C   0  0  0  0  0  0  0  0  0  0  0  0
  152.2929  141.0589  158.5068 C   0  0  0  0  0  0  0  0  0  0  0  0
  150.9321  138.3135  155.1673 C   0  0  0  0  0  0  0  0  0  0  0  0
  150.9455  137.0321  154.5829 C   0  0  0  0  0  0  0  0  0  0  0  0
  150.3946  132.5080  153.4413 H   0  0  0  0  0  0  0  0  0  0  0  0
  150.0240  131.5963  154.8505 H   0  0  0  0  0  0  0  0  0  0  0  0
  145.3197  130.4499  151.6338 H   0  0  0  0  0  0  0  0  0  0  0  0
  146.1564  134.0941  151.2248 H   0  0  0  0  0  0  0  0  0  0  0  0
  144.0117  133.1112  152.7594 H   0  0  0  0  0  0  0  0  0  0  0  0
  143.9281  134.4200  151.5823 H   0  0  0  0  0  0  0  0  0  0  0  0
  143.3176  131.4943  151.0485 H   0  0  0  0  0  0  0  0  0  0  0  0
  142.3616  132.9007  150.5726 H   0  0  0  0  0  0  0  0  0  0  0  0
  144.0409  131.8440  148.7522 H   0  0  0  0  0  0  0  0  0  0  0  0
  144.0796  133.5982  148.9756 H   0  0  0  0  0  0  0  0  0  0  0  0
  150.9129  134.4411  153.9735 H   0  0  0  0  0  0  0  0  0  0  0  0
  148.8826  135.4267  156.7830 H   0  0  0  0  0  0  0  0  0  0  0  0
  148.8588  137.6759  157.8018 H   0  0  0  0  0  0  0  0  0  0  0  0
  151.6046  140.4977  155.7393 H   0  0  0  0  0  0  0  0  0  0  0  0
  150.1808  141.5302  155.8662 H   0  0  0  0  0  0  0  0  0  0  0  0
  150.7502  143.5777  156.7836 H   0  0  0  0  0  0  0  0  0  0  0  0
  151.8417  144.9296  158.5599 H   0  0  0  0  0  0  0  0  0  0  0  0
  153.2220  143.8142  160.3044 H   0  0  0  0  0  0  0  0  0  0  0  0
  153.5092  141.3424  160.2704 H   0  0  0  0  0  0  0  0  0  0  0  0
  152.4236  139.9866  158.4995 H   0  0  0  0  0  0  0  0  0  0  0  0
  151.5195  139.0883  154.6990 H   0  0  0  0  0  0  0  0  0  0  0  0
  151.5551  136.8776  153.7059 H   0  0  0  0  0  0  0  0  0  0  0  0
  1  2  2  0  0  0  0
  2  3  1  0  0  0  0
  2 18  1  0  0  0  0
  3  4  1  0  0  0  0
  3 33  1  0  0  0  0
  3 34  1  0  0  0  0
  4 16  1  0  0  0  0
  4  5  1  0  0  0  0
  5  6  2  0  0  0  0
  5  7  1  0  0  0  0
  7  8  1  0  0  0  0
  7  9  2  0  0  0  0
  9 10  1  0  0  0  0
  9 35  1  0  0  0  0
 10 11  1  0  0  0  0
 10 16  1  0  0  0  0
 11 15  1  0  0  0  0
 11 12  1  0  0  0  0
 11 36  1  0  0  0  0
 12 13  1  0  0  0  0
 12 37  1  0  0  0  0
 12 38  1  0  0  0  0
 13 14  1  0  0  0  0
 13 39  1  0  0  0  0
 13 40  1  0  0  0  0
 14 15  1  0  0  0  0
 14 41  1  0  0  0  0
 14 42  1  0  0  0  0
 16 17  2  0  0  0  0
 18 19  1  0  0  0  0
 18 43  1  0  0  0  0
 19 32  1  0  0  0  0
 19 20  2  0  0  0  0
 20 21  1  0  0  0  0
 20 44  1  0  0  0  0
 21 22  2  0  0  0  0
 21 45  1  0  0  0  0
 22 23  1  0  0  0  0
 22 31  1  0  0  0  0
 23 24  1  0  0  0  0
 24 25  1  0  0  0  0
 24 46  1  0  0  0  0
 24 47  1  0  0  0  0
 25 30  1  0  0  0  0
 25 26  2  0  0  0  0
 26 27  1  0  0  0  0
 26 48  1  0  0  0  0
 27 28  2  0  0  0  0
 27 49  1  0  0  0  0
 28 29  1  0  0  0  0
 28 50  1  0  0  0  0
 29 30  2  0  0  0  0
 29 51  1  0  0  0  0
 30 52  1  0  0  0  0
 31 32  2  0  0  0  0
 31 53  1  0  0  0  0
 32 54  1  0  0  0  0
M  END
> <s_m_source_file>
AV-unprocessed.smi

> <i_m_source_file_index>
30

> <i_lp_mmshare_version>
43012

> <i_f3d_flags>
0

> <s_epik_input>
TzFbQ0gyXVtDSDJdW0NIMl1bQ0BIXTFuKGMyPU8pW2NIXWMoRiljKD1PKW4yW0NIMl1DKD1PKVtOSF1jM1tjSF1bY0hdYyhbY0hdW2NIXTMpT1tDSDJdYzRbY0hdW2NIXVtjSF1bY0hdW2NIXTQ=

> <s_epik_cmdline>
J2VwaWtfcHl0aG9uJywgJy1waCcsICc3LjAnLCAnLXRuJywgJzgnLCAnLW1hJywgJzIwMCcsICctbWV0YWxfYmluZGluZycsICctaW1hZScsICc8aW5maWxlLm1hZT4nLCAnLW9tYWUnLCAnPG91dGZpbGUubWFlPic=

> <r_lp_tautomer_probability>
1

> <r_epik_Ionization_Penalty>
1.04818e-05

> <r_epik_Ionization_Penalty_Charging>
3.88729e-08

> <r_epik_Ionization_Penalty_Neutral>
1.04429e-05

> <r_epik_State_Penalty>
-0

> <r_epik_Charging_Adjusted_Penalty>
3.88729e-08

> <i_epik_Tot_Q>
0

> <i_epik_Tot_abs_Q>
0

> <r_epik_Metal_State_Penalty>
-0

> <b_epik_Metal_Only>
0

> <s_epik_Chemistry_Notes>
This compound contains an acetal/aminal-like group ( X-CH(R)-Y where X, Y are N, S, or O) that may be acid/base labile, releasing an aldehyde.

> <s_lp_Force_Field>
OPLS_2005

> <r_lp_Energy>
43.3432

> <b_lp_Chiralities_Consistent>
1

> <s_lp_Variant>
AV-unprocessed.smi:30-1

> <Gold.Version>
5.8.1

> <Gold.Id.Protein>
6NUR|6NUR_protein|mol2

> <Gold.PLP.Fitness>
54.5750

> <Gold.PLP.PLP>
-55.7361

> <Gold.PLP.part.hbond>
0.0000

> <Gold.PLP.part.metal>
0.0000

> <Gold.PLP.part.buried>
-8.5310

> <Gold.PLP.part.nonpolar>
-50.7860

> <Gold.PLP.part.repulsive>
2.9400

> <Gold.PLP.ligand.clash>
0.0000

> <Gold.PLP.ligand.torsion>
0.6723

> <Gold.PLP.Chemscore.Hbond>
0.0000

> <Gold.PLP.Chemscore.CHOScore>
0.0000

> <Gold.PLP.Chemscore.Metal>
0.0000

> <Gold.PLP.Chemscore.Internal.Correction>
0.1836

> <Gold.Rescore>
     Score         DG    S(hbond)    S(metal)    S(lipo)     H(rot)  DE(clash)    DE(int)     intcor
     11.38     -16.00       0.00        0.00     137.95       2.20       0.91       3.72       ----

> <Gold.Chemscore.Fitness>
11.3776

> <Gold.Chemscore.DG>
-16.0004

> <Gold.Chemscore.ZeroCoef>
-5.4800

> <Gold.Chemscore.Hbond>
0.0000

> <Gold.Chemscore.Metal>
0.0000

> <Gold.Chemscore.Lipo>
137.9487

> <Gold.Chemscore.Internal_Hbond>
0.0000

> <Gold.Chemscore.DEClash>
0.9062

> <Gold.Chemscore.DEInternal>
3.7166

> <Gold.Chemscore.Rot>
2.1952

> <Gold.Chemscore.Internal.Correction>
   9.000000E+99

> <Gold.Chemscore.Hbond.Weighted>
-0.0000

> <Gold.Chemscore.Metal.Weighted>
-0.0000

> <Gold.Chemscore.Lipo.Weighted>
-16.1400

> <Gold.Chemscore.Internal_Hbond.Weighted>
0.0000

> <Gold.Chemscore.DEClash.Weighted>
0.9062

> <Gold.Chemscore.DEInternal.Weighted>
3.7166

> <Gold.Chemscore.Rot.Weighted>
5.6196

> <Gold.Chemscore.Internal.Correction.Weighted>
   9.000000E+99

> <Gold.Protein.RotatedTorsions>
[ 6907 6896 6895 6894 ] final -173.59 input  -60.11 | X-H torsion
[ 7974 7965 7964 7962 ] final  179.85 input  175.53 | X-H torsion
[ 8008 7997 7996 7995 ] final  158.16 input   59.86 | X-H torsion
[ 10167 10162 10161 10158 ] final   77.47 input  -65.29 | X-H torsion
[ 10718 10713 10712 10709 ] final   23.89 input   66.30 | X-H torsion
[ 10763 10752 10751 10750 ] final  -51.03 input  -60.55 | X-H torsion
[ 11005 11000 10999 10996 ] final -149.57 input  -57.11 | X-H torsion

> <Gold.Protein.ActiveResidues>
 VAL166  LYS551  ARG553  GLY616  TRP617  ASP618  TYR619  PRO620  LYS621  CYS622 
 ASP623  PHE694  ASN695  SER759  ASP760  ASP761  ALA762  ILE779  LEU786  VAL792 
 PHE793  MET794  SER795  GLU796  ALA797  LYS798  CYS799  TRP800  GLU811  SER814 

> <Gold.Protein.RotatedAtoms>
  151.5586  133.3406  159.2966 H   0  0  0  0  0  0  0  0  0  0  0  0  # atno 6907 bound_to 6896
  150.8436  134.7739  159.6963 H   0  0  0  0  0  0  0  0  0  0  0  0  # atno 6908 bound_to 6896
  152.4498  134.5425  159.9895 H   0  0  0  0  0  0  0  0  0  0  0  0  # atno 6909 bound_to 6896
  144.7142  140.0610  143.6432 H   0  0  0  0  0  0  0  0  0  0  0  0  # atno 7974 bound_to 7965
  156.2320  140.1866  156.7218 H   0  0  0  0  0  0  0  0  0  0  0  0  # atno 8008 bound_to 7997
  154.6039  140.0632  156.9432 H   0  0  0  0  0  0  0  0  0  0  0  0  # atno 8009 bound_to 7997
  155.2128  140.3301  155.4329 H   0  0  0  0  0  0  0  0  0  0  0  0  # atno 8010 bound_to 7997
  139.9812  144.5825  150.7899 H   0  0  0  0  0  0  0  0  0  0  0  0  # atno 10167 bound_to 10162
  157.1723  130.6765  149.6082 H   0  0  0  0  0  0  0  0  0  0  0  0  # atno 10718 bound_to 10713
  154.1200  135.6536  153.4901 H   0  0  0  0  0  0  0  0  0  0  0  0  # atno 10763 bound_to 10752
  153.0228  135.5268  154.7106 H   0  0  0  0  0  0  0  0  0  0  0  0  # atno 10764 bound_to 10752
  154.6311  135.2976  155.0185 H   0  0  0  0  0  0  0  0  0  0  0  0  # atno 10765 bound_to 10752
  140.7494  134.3424  157.5129 H   0  0  0  0  0  0  0  0  0  0  0  0  # atno 11005 bound_to 11000
  145.9864  139.2981  143.1011 LP  0  0  0  0  0  0  0  0  0  0  0  0  # atno 17320 bound_to 7965
  145.8952  140.9278  143.0531 LP  0  0  0  0  0  0  0  0  0  0  0  0  # atno 17321 bound_to 7965
  140.7488  143.2928  151.3284 LP  0  0  0  0  0  0  0  0  0  0  0  0  # atno 17342 bound_to 10162
  139.6408  144.0543  152.2553 LP  0  0  0  0  0  0  0  0  0  0  0  0  # atno 17343 bound_to 10162
  155.9736  130.4675  150.6326 LP  0  0  0  0  0  0  0  0  0  0  0  0  # atno 17370 bound_to 10713
  157.4032  131.0813  151.1289 LP  0  0  0  0  0  0  0  0  0  0  0  0  # atno 17371 bound_to 10713
  139.8790  134.9132  156.3078 LP  0  0  0  0  0  0  0  0  0  0  0  0  # atno 17394 bound_to 11000
  140.9765  133.7294  156.0609 LP  0  0  0  0  0  0  0  0  0  0  0  0  # atno 17395 bound_to 11000

$$$$
