AV-unprocessed.smi:2583|AV-procd|sdf|10142|dock6
  -GOLD-   2272014153D 1   1.00000     0.00000
 Structure written by MMmdl.
 54 56  0  0  0  0  0  0  0  0  2 V2000
  153.5413  142.6870  161.5238 C   0  0  0  0  0  0  0  0  0  0  0  0
  152.7224  143.0533  160.3039 C   0  0  0  0  0  0  0  0  0  0  0  0
  152.3497  144.3897  160.0510 C   0  0  0  0  0  0  0  0  0  0  0  0
  151.6111  144.7628  158.9850 N   0  0  0  0  0  0  0  0  0  0  0  0
  151.2187  143.8029  158.1209 C   0  0  0  0  0  0  0  0  0  0  0  0
  151.5453  142.4381  158.2658 C   0  0  0  0  0  0  0  0  0  0  0  0
  151.0505  141.5264  157.2950 N   0  0  0  0  0  0  0  0  0  0  0  0
  149.8426  141.5089  156.7063 C   0  0  0  0  0  0  0  0  0  0  0  0
  148.9164  142.2777  156.9617 O   0  0  0  0  0  0  0  0  0  0  0  0
  149.7608  140.5202  155.8045 N   0  0  0  0  0  0  0  0  0  0  0  0
  148.5954  140.2090  154.9812 C   0  0  2  0  0  0  0  0  0  0  0  0
  148.3684  141.3273  153.9467 C   0  0  0  0  0  0  0  0  0  0  0  0
  147.0446  141.1214  153.1851 C   0  0  0  0  0  0  0  0  0  0  0  0
  145.8799  141.0318  154.1120 N   0  3  2  0  0  0  0  0  0  0  0  0
  145.4869  142.3223  154.7737 C   0  0  0  0  0  0  0  0  0  0  0  0
  144.1578  142.1996  155.5571 C   0  0  0  0  0  0  0  0  0  0  0  0
  143.6927  143.5488  156.1307 C   0  0  0  0  0  0  0  0  0  0  0  0
  143.5200  144.5185  155.0532 N   0  0  0  0  0  0  0  0  0  0  0  0
  143.0062  145.7652  155.6030 C   0  0  0  0  0  0  0  0  0  0  0  0
  144.8077  144.7658  154.4113 C   0  0  0  0  0  0  0  0  0  0  0  0
  145.3265  143.4756  153.7544 C   0  0  0  0  0  0  0  0  0  0  0  0
  146.0777  139.8768  155.0339 C   0  0  0  0  0  0  0  0  0  0  0  0
  147.3563  140.0338  155.8784 C   0  0  0  0  0  0  0  0  0  0  0  0
  152.3092  142.0581  159.3955 C   0  0  0  0  0  0  0  0  0  0  0  0
  153.8084  143.5715  162.1031 H   0  0  0  0  0  0  0  0  0  0  0  0
  154.4615  142.1849  161.2239 H   0  0  0  0  0  0  0  0  0  0  0  0
  152.9765  142.0132  162.1685 H   0  0  0  0  0  0  0  0  0  0  0  0
  152.6450  145.1817  160.7236 H   0  0  0  0  0  0  0  0  0  0  0  0
  150.6263  144.1381  157.2820 H   0  0  0  0  0  0  0  0  0  0  0  0
  151.6763  140.7723  157.0527 H   0  0  0  0  0  0  0  0  0  0  0  0
  150.5745  139.9371  155.6734 H   0  0  0  0  0  0  0  0  0  0  0  0
  148.7475  139.2740  154.4388 H   0  0  0  0  0  0  0  0  0  0  0  0
  148.3681  142.3021  154.4358 H   0  0  0  0  0  0  0  0  0  0  0  0
  149.1974  141.3463  153.2384 H   0  0  0  0  0  0  0  0  0  0  0  0
  146.9084  141.8883  152.4256 H   0  0  0  0  0  0  0  0  0  0  0  0
  147.1034  140.1877  152.6239 H   0  0  0  0  0  0  0  0  0  0  0  0
  146.2637  142.6094  155.4823 H   0  0  0  0  0  0  0  0  0  0  0  0
  143.3790  141.7899  154.9119 H   0  0  0  0  0  0  0  0  0  0  0  0
  144.2627  141.5163  156.3983 H   0  0  0  0  0  0  0  0  0  0  0  0
  142.7446  143.4122  156.6525 H   0  0  0  0  0  0  0  0  0  0  0  0
  144.4113  143.9185  156.8644 H   0  0  0  0  0  0  0  0  0  0  0  0
  142.8633  146.5019  154.8114 H   0  0  0  0  0  0  0  0  0  0  0  0
  143.6870  146.1871  156.3439 H   0  0  0  0  0  0  0  0  0  0  0  0
  142.0393  145.6027  156.0805 H   0  0  0  0  0  0  0  0  0  0  0  0
  144.6918  145.5380  153.6496 H   0  0  0  0  0  0  0  0  0  0  0  0
  145.5302  145.1402  155.1386 H   0  0  0  0  0  0  0  0  0  0  0  0
  146.2793  143.7180  153.2860 H   0  0  0  0  0  0  0  0  0  0  0  0
  144.6485  143.1759  152.9536 H   0  0  0  0  0  0  0  0  0  0  0  0
  145.2102  139.7010  155.6665 H   0  0  0  0  0  0  0  0  0  0  0  0
  146.1636  138.9721  154.4304 H   0  0  0  0  0  0  0  0  0  0  0  0
  147.4843  139.1566  156.5138 H   0  0  0  0  0  0  0  0  0  0  0  0
  147.2535  140.8838  156.5540 H   0  0  0  0  0  0  0  0  0  0  0  0
  152.5695  141.0289  159.5893 H   0  0  0  0  0  0  0  0  0  0  0  0
  145.0889  140.7859  153.5338 H   0  0  0  0  0  0  0  0  0  0  0  0
  1  2  1  0  0  0  0
  1 25  1  0  0  0  0
  1 26  1  0  0  0  0
  1 27  1  0  0  0  0
  2 24  1  0  0  0  0
  2  3  2  0  0  0  0
  3  4  1  0  0  0  0
  3 28  1  0  0  0  0
  4  5  2  0  0  0  0
  5  6  1  0  0  0  0
  5 29  1  0  0  0  0
  6  7  1  0  0  0  0
  6 24  2  0  0  0  0
  7  8  1  0  0  0  0
  7 30  1  0  0  0  0
  8  9  2  0  0  0  0
  8 10  1  0  0  0  0
 10 11  1  0  0  0  0
 10 31  1  0  0  0  0
 11 23  1  0  0  0  0
 11 12  1  0  0  0  0
 11 32  1  0  0  0  0
 12 13  1  0  0  0  0
 12 33  1  0  0  0  0
 12 34  1  0  0  0  0
 13 14  1  0  0  0  0
 13 35  1  0  0  0  0
 13 36  1  0  0  0  0
 14 15  1  0  0  0  0
 14 22  1  0  0  0  0
 14 54  1  0  0  0  0
 15 21  1  0  0  0  0
 15 16  1  0  0  0  0
 15 37  1  0  0  0  0
 16 17  1  0  0  0  0
 16 38  1  0  0  0  0
 16 39  1  0  0  0  0
 17 18  1  0  0  0  0
 17 40  1  0  0  0  0
 17 41  1  0  0  0  0
 18 19  1  0  0  0  0
 18 20  1  0  0  0  0
 19 42  1  0  0  0  0
 19 43  1  0  0  0  0
 19 44  1  0  0  0  0
 20 21  1  0  0  0  0
 20 45  1  0  0  0  0
 20 46  1  0  0  0  0
 21 47  1  0  0  0  0
 21 48  1  0  0  0  0
 22 23  1  0  0  0  0
 22 49  1  0  0  0  0
 22 50  1  0  0  0  0
 23 51  1  0  0  0  0
 23 52  1  0  0  0  0
 24 53  1  0  0  0  0
M  CHG  1  14   1
M  END
> <s_m_source_file>
AV-unprocessed.smi

> <i_m_source_file_index>
2583

> <i_lp_mmshare_version>
43012

> <i_f3d_flags>
0

> <s_epik_input>
W0NIM11jMVtjSF1uW2NIXWMoW2NIXTEpW05IXUMoPU8pW05IXVtDSF0yW0NIMl1bQ0gyXU4oW0NIMl1bQ0gyXTIpW0NIXTNbQ0gyXVtDSDJdTihbQ0gzXSlbQ0gyXVtDSDJdMw==

> <s_epik_cmdline>
J2VwaWtfcHl0aG9uJywgJy1waCcsICc3LjAnLCAnLXRuJywgJzgnLCAnLW1hJywgJzIwMCcsICctbWV0YWxfYmluZGluZycsICctaW1hZScsICc8aW5maWxlLm1hZT4nLCAnLW9tYWUnLCAnPG91dGZpbGUubWFlPic=

> <r_epik_Ionization_Penalty>
1.38006

> <r_epik_Ionization_Penalty_Charging>
0.00081195

> <r_epik_Ionization_Penalty_Neutral>
1.37925

> <r_epik_State_Penalty>
1.55585

> <r_epik_Charging_Adjusted_Penalty>
1.55666

> <i_epik_Tot_Q>
1

> <i_epik_Tot_abs_Q>
1

> <r_epik_Metal_State_Penalty>
1.55173

> <b_epik_Metal_Only>
0

> <s_lp_Force_Field>
OPLS_2005

> <r_lp_Energy>
35.4229

> <b_lp_Chiralities_Consistent>
1

> <s_lp_Variant>
AV-unprocessed.smi:2583-8

> <Gold.Version>
5.8.1

> <Gold.Id.Protein>
6NUR|6NUR_protein|mol2

> <Gold.PLP.Fitness>
46.9010

> <Gold.PLP.PLP>
-38.8613

> <Gold.PLP.part.hbond>
-1.0000

> <Gold.PLP.part.metal>
0.0000

> <Gold.PLP.part.buried>
-9.1497

> <Gold.PLP.part.nonpolar>
-31.7109

> <Gold.PLP.part.repulsive>
2.3898

> <Gold.PLP.ligand.clash>
0.0000

> <Gold.PLP.ligand.torsion>
0.4215

> <Gold.PLP.Chemscore.Hbond>
2.0000

> <Gold.PLP.Chemscore.CHOScore>
0.9469

> <Gold.PLP.Chemscore.Metal>
0.0000

> <Gold.Chemscore.Hbonds>
donor molecule, donor type, donor heavy atom, donor atom, acceptor molecule, acceptor atom, score
      L1  H    14    54       P1 10175  2.00
      L1  C     5    29       P1  8028  1.00

> <Gold.PLP.Chemscore.Internal.Correction>
0.0421

> <Gold.Rescore>
     Score         DG    S(hbond)    S(metal)    S(lipo)     H(rot)  DE(clash)    DE(int)     intcor
     15.82     -18.66       0.99        0.00     110.38       1.19       0.37       2.46       ----

> <Gold.Chemscore.Fitness>
15.8245

> <Gold.Chemscore.DG>
-18.6554

> <Gold.Chemscore.ZeroCoef>
-5.4800

> <Gold.Chemscore.Hbond>
0.9909

> <Gold.Chemscore.Metal>
0.0000

> <Gold.Chemscore.Lipo>
110.3814

> <Gold.Chemscore.Internal_Hbond>
0.0000

> <Gold.Chemscore.DEClash>
0.3700

> <Gold.Chemscore.DEInternal>
2.4609

> <Gold.Chemscore.Rot>
1.1910

> <Gold.Chemscore.Internal.Correction>
   9.000000E+99

> <Gold.Chemscore.Hbonds>
donor molecule, donor type, donor heavy atom, donor atom, acceptor molecule, acceptor atom, score
      L1  H    14    54       P1 10175  0.88

> <Gold.Chemscore.Hbond.Weighted>
-3.3097

> <Gold.Chemscore.Metal.Weighted>
-0.0000

> <Gold.Chemscore.Lipo.Weighted>
-12.9146

> <Gold.Chemscore.Internal_Hbond.Weighted>
0.0000

> <Gold.Chemscore.DEClash.Weighted>
0.3700

> <Gold.Chemscore.DEInternal.Weighted>
2.4609

> <Gold.Chemscore.Rot.Weighted>
3.0489

> <Gold.Chemscore.Internal.Correction.Weighted>
   9.000000E+99

> <Gold.Protein.RotatedTorsions>
[ 6907 6896 6895 6894 ] final  -92.83 input  -60.11 | X-H torsion
[ 7974 7965 7964 7962 ] final -101.25 input  175.53 | X-H torsion
[ 8008 7997 7996 7995 ] final   57.40 input   59.86 | X-H torsion
[ 10167 10162 10161 10158 ] final -163.35 input  -65.29 | X-H torsion
[ 10718 10713 10712 10709 ] final    1.18 input   66.30 | X-H torsion
[ 10763 10752 10751 10750 ] final   23.42 input  -60.55 | X-H torsion
[ 11005 11000 10999 10996 ] final -126.09 input  -57.11 | X-H torsion

> <Gold.Protein.ActiveResidues>
 VAL166  LYS551  ARG553  GLY616  TRP617  ASP618  TYR619  PRO620  LYS621  CYS622 
 ASP623  PHE694  ASN695  SER759  ASP760  ASP761  ALA762  ILE779  LEU786  VAL792 
 PHE793  MET794  SER795  GLU796  ALA797  LYS798  CYS799  TRP800  GLU811  SER814 

> <Gold.Protein.RotatedAtoms>
  150.6912  134.2062  159.4341 H   0  0  0  0  0  0  0  0  0  0  0  0  # atno 6907 bound_to 6896
  152.0026  134.9918  160.0575 H   0  0  0  0  0  0  0  0  0  0  0  0  # atno 6908 bound_to 6896
  152.1564  133.4519  159.4876 H   0  0  0  0  0  0  0  0  0  0  0  0  # atno 6909 bound_to 6896
  145.2841  140.9334  143.2915 H   0  0  0  0  0  0  0  0  0  0  0  0  # atno 7974 bound_to 7965
  155.5331  140.3482  155.4430 H   0  0  0  0  0  0  0  0  0  0  0  0  # atno 8008 bound_to 7997
  156.0704  140.1361  156.9862 H   0  0  0  0  0  0  0  0  0  0  0  0  # atno 8009 bound_to 7997
  154.4525  140.0967  156.6635 H   0  0  0  0  0  0  0  0  0  0  0  0  # atno 8010 bound_to 7997
  139.6327  144.0409  152.2029 H   0  0  0  0  0  0  0  0  0  0  0  0  # atno 10167 bound_to 10162
  156.8444  130.5532  149.5675 H   0  0  0  0  0  0  0  0  0  0  0  0  # atno 10718 bound_to 10713
  153.0840  135.6627  153.9987 H   0  0  0  0  0  0  0  0  0  0  0  0  # atno 10763 bound_to 10752
  153.9602  135.2975  155.3435 H   0  0  0  0  0  0  0  0  0  0  0  0  # atno 10764 bound_to 10752
  154.7244  135.5150  153.8935 H   0  0  0  0  0  0  0  0  0  0  0  0  # atno 10765 bound_to 10752
  140.9710  134.0806  157.3870 H   0  0  0  0  0  0  0  0  0  0  0  0  # atno 11005 bound_to 11000
  144.9228  139.4391  143.6533 LP  0  0  0  0  0  0  0  0  0  0  0  0  # atno 17320 bound_to 7965
  146.3207  139.8098  142.8948 LP  0  0  0  0  0  0  0  0  0  0  0  0  # atno 17321 bound_to 7965
  140.0078  144.6246  150.7673 LP  0  0  0  0  0  0  0  0  0  0  0  0  # atno 17342 bound_to 10162
  140.7448  143.2866  151.3447 LP  0  0  0  0  0  0  0  0  0  0  0  0  # atno 17343 bound_to 10162
  156.0863  130.5860  150.9653 LP  0  0  0  0  0  0  0  0  0  0  0  0  # atno 17370 bound_to 10713
  157.6338  131.0918  150.8389 LP  0  0  0  0  0  0  0  0  0  0  0  0  # atno 17371 bound_to 10713
  139.8912  135.0117  156.6779 LP  0  0  0  0  0  0  0  0  0  0  0  0  # atno 17394 bound_to 11000
  140.7329  133.9043  155.8224 LP  0  0  0  0  0  0  0  0  0  0  0  0  # atno 17395 bound_to 11000

$$$$
