AV-unprocessed.smi:106|AV-procd|sdf|1011|dock4
  -GOLD-   2262018 13D 1   1.00000     0.00000
 Structure written by MMmdl.
 51 54  0  0  0  0  0  0  0  0  1 V2000
  156.0597  140.2676  159.0537 O   0  0  0  0  0  0  0  0  0  0  0  0
  156.2639  140.0394  160.2482 C   0  0  0  0  0  0  0  0  0  0  0  0
  155.0629  139.7188  161.1651 C   0  0  0  0  0  0  0  0  0  0  0  0
  154.2323  140.9009  161.4898 N   0  0  0  0  0  0  0  0  0  0  0  0
  154.3712  141.4929  162.7696 C   0  0  0  0  0  0  0  0  0  0  0  0
  155.1584  141.0389  163.6014 O   0  0  0  0  0  0  0  0  0  0  0  0
  153.5264  142.6542  163.0208 C   0  0  0  0  0  0  0  0  0  0  0  0
  153.6117  143.2981  164.1973 F   0  0  0  0  0  0  0  0  0  0  0  0
  152.6604  143.0974  162.0867 C   0  0  0  0  0  0  0  0  0  0  0  0
  152.5048  142.4894  160.8564 N   0  0  0  0  0  0  0  0  0  0  0  0
  151.5273  143.0842  159.8660 C   0  0  2  0  0  0  0  0  0  0  0  0
  152.1885  143.6169  158.5859 C   0  0  0  0  0  0  0  0  0  0  0  0
  151.3141  144.8137  158.2806 C   0  0  0  0  0  0  0  0  0  0  0  0
  150.9675  145.3179  159.6773 C   0  0  0  0  0  0  0  0  0  0  0  0
  150.8433  144.1421  160.4736 O   0  0  0  0  0  0  0  0  0  0  0  0
  153.3156  141.3791  160.5217 C   0  0  0  0  0  0  0  0  0  0  0  0
  153.2296  140.8373  159.4190 O   0  0  0  0  0  0  0  0  0  0  0  0
  157.5104  140.0632  160.7812 N   0  0  0  0  0  0  0  0  0  0  0  0
  157.7890  139.8506  162.2096 C   0  0  0  0  0  0  0  0  0  0  0  0
  159.0911  140.5363  162.6675 C   0  0  0  0  0  0  0  0  0  0  0  0
  160.2620  140.1383  161.8725 N   0  0  0  0  0  0  0  0  0  0  0  0
  161.5116  140.3058  162.3761 C   0  0  0  0  0  0  0  0  0  0  0  0
  161.7127  140.9096  163.4317 O   0  0  0  0  0  0  0  0  0  0  0  0
  162.6734  139.7321  161.6513 C   0  0  0  0  0  0  0  0  0  0  0  0
  162.7951  138.6967  160.7558 C   0  0  0  0  0  0  0  0  0  0  0  0
  164.1410  138.4589  160.3496 C   0  0  0  0  0  0  0  0  0  0  0  0
  165.0365  139.2961  160.9594 C   0  0  0  0  0  0  0  0  0  0  0  0
  164.2427  140.3898  162.0584 S   0  0  0  0  0  0  0  0  0  0  0  0
  159.9719  139.6827  160.5041 C   0  0  0  0  0  0  0  0  0  0  0  0
  158.6858  140.3098  159.9328 C   0  0  0  0  0  0  0  0  0  0  0  0
  154.4503  138.9464  160.6973 H   0  0  0  0  0  0  0  0  0  0  0  0
  155.4356  139.2516  162.0772 H   0  0  0  0  0  0  0  0  0  0  0  0
  152.0609  143.9643  162.3235 H   0  0  0  0  0  0  0  0  0  0  0  0
  150.8028  142.2986  159.6481 H   0  0  0  0  0  0  0  0  0  0  0  0
  153.2168  143.9288  158.7633 H   0  0  0  0  0  0  0  0  0  0  0  0
  152.1836  142.8610  157.8003 H   0  0  0  0  0  0  0  0  0  0  0  0
  151.8133  145.5643  157.6672 H   0  0  0  0  0  0  0  0  0  0  0  0
  150.4087  144.4936  157.7632 H   0  0  0  0  0  0  0  0  0  0  0  0
  151.7726  145.9391  160.0704 H   0  0  0  0  0  0  0  0  0  0  0  0
  150.0505  145.9072  159.6933 H   0  0  0  0  0  0  0  0  0  0  0  0
  156.9858  140.2337  162.8383 H   0  0  0  0  0  0  0  0  0  0  0  0
  157.8484  138.7774  162.3959 H   0  0  0  0  0  0  0  0  0  0  0  0
  158.9796  141.6201  162.6030 H   0  0  0  0  0  0  0  0  0  0  0  0
  159.2448  140.3010  163.7222 H   0  0  0  0  0  0  0  0  0  0  0  0
  161.9757  138.1027  160.3799 H   0  0  0  0  0  0  0  0  0  0  0  0
  164.4025  137.6871  159.6408 H   0  0  0  0  0  0  0  0  0  0  0  0
  166.1094  139.3298  160.8414 H   0  0  0  0  0  0  0  0  0  0  0  0
  160.7855  139.9350  159.8233 H   0  0  0  0  0  0  0  0  0  0  0  0
  159.8810  138.5960  160.5070 H   0  0  0  0  0  0  0  0  0  0  0  0
  158.5366  139.9094  158.9286 H   0  0  0  0  0  0  0  0  0  0  0  0
  158.8146  141.3874  159.8215 H   0  0  0  0  0  0  0  0  0  0  0  0
  1  2  2  0  0  0  0
  2  3  1  0  0  0  0
  2 18  1  0  0  0  0
  3  4  1  0  0  0  0
  3 31  1  0  0  0  0
  3 32  1  0  0  0  0
  4 16  1  0  0  0  0
  4  5  1  0  0  0  0
  5  6  2  0  0  0  0
  5  7  1  0  0  0  0
  7  8  1  0  0  0  0
  7  9  2  0  0  0  0
  9 10  1  0  0  0  0
  9 33  1  0  0  0  0
 10 11  1  0  0  0  0
 10 16  1  0  0  0  0
 11 15  1  0  0  0  0
 11 12  1  0  0  0  0
 11 34  1  0  0  0  0
 12 13  1  0  0  0  0
 12 35  1  0  0  0  0
 12 36  1  0  0  0  0
 13 14  1  0  0  0  0
 13 37  1  0  0  0  0
 13 38  1  0  0  0  0
 14 15  1  0  0  0  0
 14 39  1  0  0  0  0
 14 40  1  0  0  0  0
 16 17  2  0  0  0  0
 18 30  1  0  0  0  0
 18 19  1  0  0  0  0
 19 20  1  0  0  0  0
 19 41  1  0  0  0  0
 19 42  1  0  0  0  0
 20 21  1  0  0  0  0
 20 43  1  0  0  0  0
 20 44  1  0  0  0  0
 21 22  1  0  0  0  0
 21 29  1  0  0  0  0
 22 23  2  0  0  0  0
 22 24  1  0  0  0  0
 24 28  1  0  0  0  0
 24 25  2  0  0  0  0
 25 26  1  0  0  0  0
 25 45  1  0  0  0  0
 26 27  2  0  0  0  0
 26 46  1  0  0  0  0
 27 28  1  0  0  0  0
 27 47  1  0  0  0  0
 29 30  1  0  0  0  0
 29 48  1  0  0  0  0
 29 49  1  0  0  0  0
 30 50  1  0  0  0  0
 30 51  1  0  0  0  0
M  END
> <s_m_source_file>
AV-unprocessed.smi

> <i_m_source_file_index>
106

> <i_lp_mmshare_version>
43012

> <i_f3d_flags>
0

> <s_epik_input>
czFbY0hdW2NIXVtjSF1jMUMoPU8pTihbQ0gyXVtDSDJdMilbQ0gyXVtDSDJdTjJDKD1PKVtDSDJdbjNjKD1PKWMoRilbY0hdbihjMz1PKVtDQEBIXTRbQ0gyXVtDSDJdW0NIMl1PNA==

> <s_epik_cmdline>
J2VwaWtfcHl0aG9uJywgJy1waCcsICc3LjAnLCAnLXRuJywgJzgnLCAnLW1hJywgJzIwMCcsICctbWV0YWxfYmluZGluZycsICctaW1hZScsICc8aW5maWxlLm1hZT4nLCAnLW9tYWUnLCAnPG91dGZpbGUubWFlPic=

> <r_lp_tautomer_probability>
1

> <r_epik_Ionization_Penalty>
4.82844e-09

> <r_epik_Ionization_Penalty_Charging>
4.20153e-09

> <r_epik_Ionization_Penalty_Neutral>
6.26919e-10

> <r_epik_State_Penalty>
-0

> <r_epik_Charging_Adjusted_Penalty>
4.20153e-09

> <i_epik_Tot_Q>
0

> <i_epik_Tot_abs_Q>
0

> <r_epik_Metal_State_Penalty>
-0

> <b_epik_Metal_Only>
0

> <s_epik_Chemistry_Notes>
This compound contains an acetal/aminal-like group ( X-CH(R)-Y where X, Y are N, S, or O) that may be acid/base labile, releasing an aldehyde.

> <s_lp_Force_Field>
OPLS_2005

> <r_lp_Energy>
67.8789

> <b_lp_Chiralities_Consistent>
1

> <s_lp_Variant>
AV-unprocessed.smi:106-1

> <Gold.Version>
5.8.1

> <Gold.Id.Protein>
6NUR|6NUR_protein|mol2

> <Gold.PLP.Fitness>
50.0761

> <Gold.PLP.PLP>
-47.8845

> <Gold.PLP.part.hbond>
-2.0000

> <Gold.PLP.part.metal>
0.0000

> <Gold.PLP.part.buried>
-2.7638

> <Gold.PLP.part.nonpolar>
-41.0633

> <Gold.PLP.part.repulsive>
0.1287

> <Gold.PLP.ligand.clash>
0.0000

> <Gold.PLP.ligand.torsion>
0.6871

> <Gold.PLP.Chemscore.Hbond>
1.0000

> <Gold.PLP.Chemscore.CHOScore>
0.0000

> <Gold.PLP.Chemscore.Metal>
0.0000

> <Gold.Chemscore.Hbonds>
donor molecule, donor type, donor heavy atom, donor atom, acceptor molecule, acceptor atom, score
      P1  H  7997  8010       L1     1  0.86

> <Gold.PLP.Chemscore.Internal.Correction>
0.5659

> <Gold.Rescore>
     Score         DG    S(hbond)    S(metal)    S(lipo)     H(rot)  DE(clash)    DE(int)     intcor
     10.53     -14.08       0.96        0.00      81.62       1.63       0.32       3.23       ----

> <Gold.Chemscore.Fitness>
10.5291

> <Gold.Chemscore.DG>
-14.0829

> <Gold.Chemscore.ZeroCoef>
-5.4800

> <Gold.Chemscore.Hbond>
0.9621

> <Gold.Chemscore.Metal>
0.0000

> <Gold.Chemscore.Lipo>
81.6247

> <Gold.Chemscore.Internal_Hbond>
0.0000

> <Gold.Chemscore.DEClash>
0.3227

> <Gold.Chemscore.DEInternal>
3.2311

> <Gold.Chemscore.Rot>
1.6252

> <Gold.Chemscore.Internal.Correction>
   9.000000E+99

> <Gold.Chemscore.Hbonds>
donor molecule, donor type, donor heavy atom, donor atom, acceptor molecule, acceptor atom, score
      P1  H  7997  8010       L1     1  0.85

> <Gold.Chemscore.Hbond.Weighted>
-3.2133

> <Gold.Chemscore.Metal.Weighted>
-0.0000

> <Gold.Chemscore.Lipo.Weighted>
-9.5501

> <Gold.Chemscore.Internal_Hbond.Weighted>
0.0000

> <Gold.Chemscore.DEClash.Weighted>
0.3227

> <Gold.Chemscore.DEInternal.Weighted>
3.2311

> <Gold.Chemscore.Rot.Weighted>
4.1605

> <Gold.Chemscore.Internal.Correction.Weighted>
   9.000000E+99

> <Gold.Protein.RotatedTorsions>
[ 6907 6896 6895 6894 ] final  -90.64 input  -60.11 | X-H torsion
[ 7974 7965 7964 7962 ] final  -29.70 input  175.53 | X-H torsion
[ 8008 7997 7996 7995 ] final  -39.61 input   59.86 | X-H torsion
[ 10167 10162 10161 10158 ] final  108.91 input  -65.29 | X-H torsion
[ 10718 10713 10712 10709 ] final -102.80 input   66.30 | X-H torsion
[ 10763 10752 10751 10750 ] final   78.50 input  -60.55 | X-H torsion
[ 11005 11000 10999 10996 ] final   44.49 input  -57.11 | X-H torsion

> <Gold.Protein.ActiveResidues>
 VAL166  LYS551  ARG553  GLY616  TRP617  ASP618  TYR619  PRO620  LYS621  CYS622 
 ASP623  PHE694  ASN695  SER759  ASP760  ASP761  ALA762  ILE779  LEU786  VAL792 
 PHE793  MET794  SER795  GLU796  ALA797  LYS798  CYS799  TRP800  GLU811  SER814 

> <Gold.Protein.RotatedAtoms>
  150.6884  134.2400  159.4468 H   0  0  0  0  0  0  0  0  0  0  0  0  # atno 6907 bound_to 6896
  152.0345  134.9745  160.0582 H   0  0  0  0  0  0  0  0  0  0  0  0  # atno 6908 bound_to 6896
  152.1272  133.4352  159.4740 H   0  0  0  0  0  0  0  0  0  0  0  0  # atno 6909 bound_to 6896
  146.1197  140.5446  142.8741 H   0  0  0  0  0  0  0  0  0  0  0  0  # atno 7974 bound_to 7965
  154.4021  140.1547  156.2892 H   0  0  0  0  0  0  0  0  0  0  0  0  # atno 8008 bound_to 7997
  155.8800  140.3444  155.5859 H   0  0  0  0  0  0  0  0  0  0  0  0  # atno 8009 bound_to 7997
  155.7677  140.0826  157.2114 H   0  0  0  0  0  0  0  0  0  0  0  0  # atno 8010 bound_to 7997
  139.6808  144.7118  151.1518 H   0  0  0  0  0  0  0  0  0  0  0  0  # atno 10167 bound_to 10162
  156.0242  130.5437  150.7160 H   0  0  0  0  0  0  0  0  0  0  0  0  # atno 10718 bound_to 10713
  153.0879  135.4875  154.8633 H   0  0  0  0  0  0  0  0  0  0  0  0  # atno 10763 bound_to 10752
  154.7233  135.3044  154.9014 H   0  0  0  0  0  0  0  0  0  0  0  0  # atno 10764 bound_to 10752
  153.9672  135.6805  153.4799 H   0  0  0  0  0  0  0  0  0  0  0  0  # atno 10765 bound_to 10752
  140.1547  134.4417  155.8358 H   0  0  0  0  0  0  0  0  0  0  0  0  # atno 11005 bound_to 11000
  144.7586  140.5366  143.6752 LP  0  0  0  0  0  0  0  0  0  0  0  0  # atno 17320 bound_to 7965
  145.5492  139.1476  143.3403 LP  0  0  0  0  0  0  0  0  0  0  0  0  # atno 17321 bound_to 7965
  140.7651  143.5702  150.9004 LP  0  0  0  0  0  0  0  0  0  0  0  0  # atno 17342 bound_to 10162
  139.9373  143.6422  152.3062 LP  0  0  0  0  0  0  0  0  0  0  0  0  # atno 17343 bound_to 10162
  157.4787  131.0900  151.0560 LP  0  0  0  0  0  0  0  0  0  0  0  0  # atno 17370 bound_to 10713
  157.1000  130.5978  149.5458 LP  0  0  0  0  0  0  0  0  0  0  0  0  # atno 17371 bound_to 10713
  141.2203  133.6887  156.7485 LP  0  0  0  0  0  0  0  0  0  0  0  0  # atno 17394 bound_to 11000
  140.2562  134.8502  157.3715 LP  0  0  0  0  0  0  0  0  0  0  0  0  # atno 17395 bound_to 11000

$$$$
