AV-unprocessed.smi:261|AV-procd|sdf|1989|dock8
  -GOLD-   2262021173D 1   1.00000     0.00000
 Structure written by MMmdl.
 51 54  0  0  0  0  0  0  0  0  1 V2000
  148.9630  131.9301  153.4945 C   0  0  0  0  0  0  0  0  0  0  0  0
  149.8884  132.2310  154.5261 O   0  0  0  0  0  0  0  0  0  0  0  0
  149.4762  133.3022  155.3627 C   0  0  1  0  0  0  0  0  0  0  0  0
  150.2868  133.4080  156.6578 C   0  0  0  0  0  0  0  0  0  0  0  0
  150.1621  134.8855  157.0681 C   0  0  2  0  0  0  0  0  0  0  0  0
  148.9507  135.1157  157.9901 C   0  0  0  0  0  0  0  0  0  0  0  0
  148.0111  135.9540  157.5465 N   0  0  0  0  0  0  0  0  0  0  0  0
  148.8649  134.5603  159.0847 O   0  0  0  0  0  0  0  0  0  0  0  0
  150.0181  135.5778  155.7870 N   0  0  0  0  0  0  0  0  0  0  0  0
  150.2962  136.8937  155.5696 C   0  0  0  0  0  0  0  0  0  0  0  0
  150.1508  137.3694  154.3040 N   0  0  0  0  0  0  0  0  0  0  0  0
  150.4056  138.6484  154.0184 C   0  0  0  0  0  0  0  0  0  0  0  0
  150.8129  139.6187  154.8359 N   0  0  0  0  0  0  0  0  0  0  0  0
  150.9632  139.1577  156.1098 C   0  0  0  0  0  0  0  0  0  0  0  0
  150.7302  137.8252  156.5631 C   0  0  0  0  0  0  0  0  0  0  0  0
  150.9947  137.7540  157.9279 N   0  0  0  0  0  0  0  0  0  0  0  0
  151.3564  138.9624  158.2581 C   0  0  0  0  0  0  0  0  0  0  0  0
  151.3700  139.8685  157.2251 N   0  0  0  0  0  0  0  0  0  0  0  0
  151.7347  141.2722  157.3090 C   0  0  0  0  0  0  0  0  0  0  0  0
  152.0726  141.7093  158.7481 C   0  0  1  0  0  0  0  0  0  0  0  0
  153.2737  141.0855  159.1637 O   0  0  0  0  0  0  0  0  0  0  0  0
  152.1987  143.2417  158.8724 C   0  0  2  0  0  0  0  0  0  0  0  0
  152.8190  143.7836  160.1737 C   0  0  0  0  0  0  0  0  0  0  0  0
  151.7459  144.7046  160.7274 C   0  0  0  0  0  0  0  0  0  0  0  0
  150.9353  145.0612  159.4881 C   0  0  0  0  0  0  0  0  0  0  0  0
  150.9128  143.8431  158.7625 O   0  0  0  0  0  0  0  0  0  0  0  0
  149.7510  134.6486  154.6932 C   0  0  0  0  0  0  0  0  0  0  0  0
  148.4110  133.2292  155.5912 H   0  0  0  0  0  0  0  0  0  0  0  0
  151.0796  135.1870  157.5744 H   0  0  0  0  0  0  0  0  0  0  0  0
  149.3532  131.1172  152.8826 H   0  0  0  0  0  0  0  0  0  0  0  0
  148.8029  132.7912  152.8447 H   0  0  0  0  0  0  0  0  0  0  0  0
  148.0014  131.6110  153.8973 H   0  0  0  0  0  0  0  0  0  0  0  0
  149.9449  132.7131  157.4262 H   0  0  0  0  0  0  0  0  0  0  0  0
  151.3337  133.1775  156.4546 H   0  0  0  0  0  0  0  0  0  0  0  0
  147.1988  136.1468  158.1141 H   0  0  0  0  0  0  0  0  0  0  0  0
  148.1214  136.3978  156.6464 H   0  0  0  0  0  0  0  0  0  0  0  0
  150.2625  138.9348  152.9869 H   0  0  0  0  0  0  0  0  0  0  0  0
  151.6294  139.2269  159.2695 H   0  0  0  0  0  0  0  0  0  0  0  0
  152.5795  141.4571  156.6444 H   0  0  0  0  0  0  0  0  0  0  0  0
  150.9022  141.8606  156.9220 H   0  0  0  0  0  0  0  0  0  0  0  0
  151.2741  141.3698  159.4091 H   0  0  0  0  0  0  0  0  0  0  0  0
  153.7034  140.7302  158.4005 H   0  0  0  0  0  0  0  0  0  0  0  0
  152.7811  143.6172  158.0292 H   0  0  0  0  0  0  0  0  0  0  0  0
  153.0937  143.0085  160.8899 H   0  0  0  0  0  0  0  0  0  0  0  0
  153.7231  144.3492  159.9448 H   0  0  0  0  0  0  0  0  0  0  0  0
  151.1174  144.1588  161.4325 H   0  0  0  0  0  0  0  0  0  0  0  0
  152.1517  145.5783  161.2383 H   0  0  0  0  0  0  0  0  0  0  0  0
  149.9295  145.4080  159.7259 H   0  0  0  0  0  0  0  0  0  0  0  0
  151.4381  145.8302  158.8993 H   0  0  0  0  0  0  0  0  0  0  0  0
  150.6348  134.5895  154.0558 H   0  0  0  0  0  0  0  0  0  0  0  0
  148.9054  134.9643  154.0811 H   0  0  0  0  0  0  0  0  0  0  0  0
  1  2  1  0  0  0  0
  1 30  1  0  0  0  0
  1 31  1  0  0  0  0
  1 32  1  0  0  0  0
  2  3  1  0  0  0  0
  3 28  1  0  0  0  0
  3 27  1  0  0  0  0
  3  4  1  0  0  0  0
  4  5  1  0  0  0  0
  4 33  1  0  0  0  0
  4 34  1  0  0  0  0
  5 29  1  0  0  0  0
  5  6  1  0  0  0  0
  5  9  1  0  0  0  0
  6  7  1  0  0  0  0
  6  8  2  0  0  0  0
  7 35  1  0  0  0  0
  7 36  1  0  0  0  0
  9 10  1  0  0  0  0
  9 27  1  0  0  0  0
 10 15  1  0  0  0  0
 10 11  2  0  0  0  0
 11 12  1  0  0  0  0
 12 13  2  0  0  0  0
 12 37  1  0  0  0  0
 13 14  1  0  0  0  0
 14 18  1  0  0  0  0
 14 15  2  0  0  0  0
 15 16  1  0  0  0  0
 16 17  2  0  0  0  0
 17 18  1  0  0  0  0
 17 38  1  0  0  0  0
 18 19  1  0  0  0  0
 19 20  1  0  0  0  0
 19 39  1  0  0  0  0
 19 40  1  0  0  0  0
 20 21  1  0  0  0  0
 20 22  1  0  0  0  0
 20 41  1  0  0  0  0
 21 42  1  0  0  0  0
 22 26  1  0  0  0  0
 22 23  1  0  0  0  0
 22 43  1  0  0  0  0
 23 24  1  0  0  0  0
 23 44  1  0  0  0  0
 23 45  1  0  0  0  0
 24 25  1  0  0  0  0
 24 46  1  0  0  0  0
 24 47  1  0  0  0  0
 25 26  1  0  0  0  0
 25 48  1  0  0  0  0
 25 49  1  0  0  0  0
 27 50  1  0  0  0  0
 27 51  1  0  0  0  0
M  END
> <s_m_source_file>
AV-unprocessed.smi

> <i_m_source_file_index>
261

> <i_lp_mmshare_version>
43012

> <i_f3d_flags>
0

> <s_epik_input>
W0NIM11PW0NASF0xW0NIMl1bQ0BASF0oQyg9TylbTkgyXSlOKFtDSDJdMSljKG5bY0hdbjIpYyhjMjMpbltjSF1uM1tDSDJdW0NASF0oW09IXSlbQ0BASF00W0NIMl1bQ0gyXVtDSDJdTzQ=

> <s_epik_cmdline>
J2VwaWtfcHl0aG9uJywgJy1waCcsICc3LjAnLCAnLXRuJywgJzgnLCAnLW1hJywgJzIwMCcsICctbWV0YWxfYmluZGluZycsICctaW1hZScsICc8aW5maWxlLm1hZT4nLCAnLW9tYWUnLCAnPG91dGZpbGUubWFlPic=

> <r_lp_tautomer_probability>
1

> <r_epik_Ionization_Penalty>
0.000713824

> <r_epik_Ionization_Penalty_Charging>
0

> <r_epik_Ionization_Penalty_Neutral>
0.000713824

> <r_epik_State_Penalty>
0.000402132

> <r_epik_Charging_Adjusted_Penalty>
0.000402132

> <i_epik_Tot_Q>
0

> <i_epik_Tot_abs_Q>
0

> <r_epik_Metal_State_Penalty>
-0

> <b_epik_Metal_Only>
0

> <s_lp_Force_Field>
OPLS_2005

> <r_lp_Energy>
44.9421

> <b_lp_Chiralities_Consistent>
1

> <s_lp_Variant>
AV-unprocessed.smi:261-7

> <Gold.Version>
5.8.1

> <Gold.Id.Protein>
6NUR|6NUR_protein|mol2

> <Gold.PLP.Fitness>
45.3510

> <Gold.PLP.PLP>
-37.3573

> <Gold.PLP.part.hbond>
-2.0000

> <Gold.PLP.part.metal>
0.0000

> <Gold.PLP.part.buried>
-7.3811

> <Gold.PLP.part.nonpolar>
-31.1776

> <Gold.PLP.part.repulsive>
1.8467

> <Gold.PLP.ligand.clash>
0.0000

> <Gold.PLP.ligand.torsion>
0.3914

> <Gold.PLP.Chemscore.Hbond>
1.8800

> <Gold.PLP.Chemscore.CHOScore>
1.0000

> <Gold.PLP.Chemscore.Metal>
0.0000

> <Gold.Chemscore.Hbonds>
donor molecule, donor type, donor heavy atom, donor atom, acceptor molecule, acceptor atom, score
      P1  H  6896  6909       L1     8  0.88
      P1  H  7989  7998       L1    13  1.00
      L1  C    12    37       P1  7957  1.00

> <Gold.PLP.Chemscore.Internal.Correction>
0.1366

> <Gold.Rescore>
     Score         DG    S(hbond)    S(metal)    S(lipo)     H(rot)  DE(clash)    DE(int)     intcor
      8.57      -9.24       0.51        0.00      87.33       3.18       0.29       0.38       ----

> <Gold.Chemscore.Fitness>
8.5682

> <Gold.Chemscore.DG>
-9.2428

> <Gold.Chemscore.ZeroCoef>
-5.4800

> <Gold.Chemscore.Hbond>
0.5070

> <Gold.Chemscore.Metal>
0.0000

> <Gold.Chemscore.Lipo>
87.3350

> <Gold.Chemscore.Internal_Hbond>
0.0000

> <Gold.Chemscore.DEClash>
0.2946

> <Gold.Chemscore.DEInternal>
0.3800

> <Gold.Chemscore.Rot>
3.1831

> <Gold.Chemscore.Internal.Correction>
   9.000000E+99

> <Gold.Chemscore.Hbonds>
donor molecule, donor type, donor heavy atom, donor atom, acceptor molecule, acceptor atom, score
      P1  H  6896  6909       L1     8  0.26
      P1  H  7989  7998       L1    13  0.25

> <Gold.Chemscore.Hbond.Weighted>
-1.6932

> <Gold.Chemscore.Metal.Weighted>
-0.0000

> <Gold.Chemscore.Lipo.Weighted>
-10.2182

> <Gold.Chemscore.Internal_Hbond.Weighted>
0.0000

> <Gold.Chemscore.DEClash.Weighted>
0.2946

> <Gold.Chemscore.DEInternal.Weighted>
0.3800

> <Gold.Chemscore.Rot.Weighted>
8.1486

> <Gold.Chemscore.Internal.Correction.Weighted>
   9.000000E+99

> <Gold.Protein.RotatedTorsions>
[ 6907 6896 6895 6894 ] final   13.34 input  -60.11 | X-H torsion
[ 7974 7965 7964 7962 ] final  -42.70 input  175.53 | X-H torsion
[ 8008 7997 7996 7995 ] final   67.03 input   59.86 | X-H torsion
[ 10167 10162 10161 10158 ] final  -26.08 input  -65.29 | X-H torsion
[ 10718 10713 10712 10709 ] final -160.77 input   66.30 | X-H torsion
[ 10763 10752 10751 10750 ] final   19.35 input  -60.55 | X-H torsion
[ 11005 11000 10999 10996 ] final   72.79 input  -57.11 | X-H torsion

> <Gold.Protein.ActiveResidues>
 VAL166  LYS551  ARG553  GLY616  TRP617  ASP618  TYR619  PRO620  LYS621  CYS622 
 ASP623  PHE694  ASN695  SER759  ASP760  ASP761  ALA762  ILE779  LEU786  VAL792 
 PHE793  MET794  SER795  GLU796  ALA797  LYS798  CYS799  TRP800  GLU811  SER814 

> <Gold.Protein.RotatedAtoms>
  151.7848  135.0752  160.0378 H   0  0  0  0  0  0  0  0  0  0  0  0  # atno 6907 bound_to 6896
  152.3198  133.5836  159.5745 H   0  0  0  0  0  0  0  0  0  0  0  0  # atno 6908 bound_to 6896
  150.7363  133.9945  159.3660 H   0  0  0  0  0  0  0  0  0  0  0  0  # atno 6909 bound_to 6896
  146.0090  140.6986  142.9233 H   0  0  0  0  0  0  0  0  0  0  0  0  # atno 7974 bound_to 7965
  155.6865  140.3496  155.4876 H   0  0  0  0  0  0  0  0  0  0  0  0  # atno 8008 bound_to 7997
  155.9561  140.1128  157.0958 H   0  0  0  0  0  0  0  0  0  0  0  0  # atno 8009 bound_to 7997
  154.4132  140.1184  156.5103 H   0  0  0  0  0  0  0  0  0  0  0  0  # atno 8010 bound_to 7997
  140.7284  143.4209  151.0952 H   0  0  0  0  0  0  0  0  0  0  0  0  # atno 10167 bound_to 10162
  156.5869  130.8753  151.2879 H   0  0  0  0  0  0  0  0  0  0  0  0  # atno 10718 bound_to 10713
  153.1170  135.6710  153.9402 H   0  0  0  0  0  0  0  0  0  0  0  0  # atno 10763 bound_to 10752
  153.8928  135.3045  155.3449 H   0  0  0  0  0  0  0  0  0  0  0  0  # atno 10764 bound_to 10752
  154.7585  135.5000  153.9498 H   0  0  0  0  0  0  0  0  0  0  0  0  # atno 10765 bound_to 10752
  139.9473  134.7290  156.0948 H   0  0  0  0  0  0  0  0  0  0  0  0  # atno 11005 bound_to 11000
  144.6946  140.3366  143.7206 LP  0  0  0  0  0  0  0  0  0  0  0  0  # atno 17320 bound_to 7965
  145.7370  139.1753  143.2397 LP  0  0  0  0  0  0  0  0  0  0  0  0  # atno 17321 bound_to 7965
  139.7855  143.8294  152.3144 LP  0  0  0  0  0  0  0  0  0  0  0  0  # atno 17342 bound_to 10162
  139.8259  144.7275  150.9512 LP  0  0  0  0  0  0  0  0  0  0  0  0  # atno 17343 bound_to 10162
  157.7313  130.9698  150.1874 LP  0  0  0  0  0  0  0  0  0  0  0  0  # atno 17370 bound_to 10713
  156.2583  130.3708  149.8157 LP  0  0  0  0  0  0  0  0  0  0  0  0  # atno 17371 bound_to 10713
  141.1127  133.6638  156.3017 LP  0  0  0  0  0  0  0  0  0  0  0  0  # atno 17394 bound_to 11000
  140.5804  134.5751  157.5478 LP  0  0  0  0  0  0  0  0  0  0  0  0  # atno 17395 bound_to 11000

$$$$
