AV-unprocessed.smi:99|AV-procd|sdf|888|dock9
  -GOLD-   2262017373D 1   1.00000     0.00000
 Structure written by MMmdl.
 52 55  0  0  0  0  0  0  0  0  2 V2000
  148.1974  137.2588  160.9408 O   0  0  0  0  0  0  0  0  0  0  0  0
  148.2370  136.2095  160.2952 C   0  0  0  0  0  0  0  0  0  0  0  0
  148.8501  136.0883  159.1006 O   0  0  0  0  0  0  0  0  0  0  0  0
  149.7313  137.1037  158.6450 C   0  0  0  0  0  0  0  0  0  0  0  0
  150.1877  136.7997  157.2043 C   0  0  1  0  0  0  0  0  0  0  0  0
  149.0555  136.3490  156.4702 O   0  0  0  0  0  0  0  0  0  0  0  0
  148.5212  137.4256  155.7656 C   0  0  2  0  0  0  0  0  0  0  0  0
  147.5092  136.9254  154.7445 N   0  0  0  0  0  0  0  0  0  0  0  0
  147.2770  135.5717  154.5471 C   0  0  0  0  0  0  0  0  0  0  0  0
  146.4105  135.1288  153.6131 C   0  0  0  0  0  0  0  0  0  0  0  0
  145.7126  136.0930  152.7699 C   0  0  0  0  0  0  0  0  0  0  0  0
  144.8871  135.6858  151.9550 O   0  0  0  0  0  0  0  0  0  0  0  0
  146.0189  137.4129  152.9206 N   0  5  0  0  0  0  0  0  0  0  0  0
  146.9126  137.8610  153.8502 C   0  0  0  0  0  0  0  0  0  0  0  0
  147.2363  139.0454  153.9418 O   0  0  0  0  0  0  0  0  0  0  0  0
  149.7768  138.1219  155.2120 C   0  0  2  0  0  0  0  0  0  0  0  0
  150.3511  137.4794  154.0872 O   0  0  0  0  0  0  0  0  0  0  0  0
  150.7425  137.9908  156.3849 C   0  0  1  0  0  0  0  0  0  0  0  0
  150.7508  139.2112  157.1229 O   0  0  0  0  0  0  0  0  0  0  0  0
  151.0624  140.3890  156.5342 C   0  0  0  0  0  0  0  0  0  0  0  0
  151.0425  140.5781  155.3166 O   0  0  0  0  0  0  0  0  0  0  0  0
  151.4828  141.4292  157.5161 C   0  0  0  0  0  0  0  0  0  0  0  0
  151.3566  142.7957  157.1734 C   0  0  0  0  0  0  0  0  0  0  0  0
  151.7834  143.8007  158.0627 C   0  0  0  0  0  0  0  0  0  0  0  0
  152.3401  143.4516  159.3067 C   0  0  0  0  0  0  0  0  0  0  0  0
  152.4668  142.0958  159.6615 C   0  0  0  0  0  0  0  0  0  0  0  0
  152.0398  141.0893  158.7739 C   0  0  0  0  0  0  0  0  0  0  0  0
  147.6542  134.9248  160.7778 C   0  0  0  0  0  0  0  0  0  0  0  0
  147.8563  133.7462  160.0226 C   0  0  0  0  0  0  0  0  0  0  0  0
  147.2862  132.5256  160.4323 C   0  0  0  0  0  0  0  0  0  0  0  0
  146.5090  132.4683  161.6038 C   0  0  0  0  0  0  0  0  0  0  0  0
  146.3040  133.6329  162.3661 C   0  0  0  0  0  0  0  0  0  0  0  0
  146.8731  134.8546  161.9577 C   0  0  0  0  0  0  0  0  0  0  0  0
  149.2138  138.0627  158.6812 H   0  0  0  0  0  0  0  0  0  0  0  0
  150.6020  137.1826  159.2978 H   0  0  0  0  0  0  0  0  0  0  0  0
  150.9170  135.9892  157.2245 H   0  0  0  0  0  0  0  0  0  0  0  0
  147.9453  138.0711  156.4320 H   0  0  0  0  0  0  0  0  0  0  0  0
  147.8077  134.8331  155.1268 H   0  0  0  0  0  0  0  0  0  0  0  0
  146.2504  134.0695  153.4753 H   0  0  0  0  0  0  0  0  0  0  0  0
  149.5527  139.1585  154.9566 H   0  0  0  0  0  0  0  0  0  0  0  0
  149.6513  137.1996  153.5168 H   0  0  0  0  0  0  0  0  0  0  0  0
  151.7396  137.7476  156.0149 H   0  0  0  0  0  0  0  0  0  0  0  0
  150.9427  143.0883  156.2193 H   0  0  0  0  0  0  0  0  0  0  0  0
  151.6874  144.8406  157.7872 H   0  0  0  0  0  0  0  0  0  0  0  0
  152.6708  144.2224  159.9870 H   0  0  0  0  0  0  0  0  0  0  0  0
  152.8965  141.8262  160.6151 H   0  0  0  0  0  0  0  0  0  0  0  0
  152.1606  140.0586  159.0735 H   0  0  0  0  0  0  0  0  0  0  0  0
  148.4411  133.7681  159.1143 H   0  0  0  0  0  0  0  0  0  0  0  0
  147.4428  131.6331  159.8447 H   0  0  0  0  0  0  0  0  0  0  0  0
  146.0698  131.5325  161.9167 H   0  0  0  0  0  0  0  0  0  0  0  0
  145.7060  133.5909  163.2643 H   0  0  0  0  0  0  0  0  0  0  0  0
  146.6891  135.7315  162.5609 H   0  0  0  0  0  0  0  0  0  0  0  0
  1  2  2  0  0  0  0
  2  3  1  0  0  0  0
  2 28  1  0  0  0  0
  3  4  1  0  0  0  0
  4  5  1  0  0  0  0
  4 34  1  0  0  0  0
  4 35  1  0  0  0  0
  5 18  1  0  0  0  0
  5  6  1  0  0  0  0
  5 36  1  0  0  0  0
  6  7  1  0  0  0  0
  7  8  1  0  0  0  0
  7 16  1  0  0  0  0
  7 37  1  0  0  0  0
  8 14  1  0  0  0  0
  8  9  1  0  0  0  0
  9 10  2  0  0  0  0
  9 38  1  0  0  0  0
 10 11  1  0  0  0  0
 10 39  1  0  0  0  0
 11 12  2  0  0  0  0
 11 13  1  0  0  0  0
 13 14  1  0  0  0  0
 14 15  2  0  0  0  0
 16 17  1  0  0  0  0
 16 18  1  0  0  0  0
 16 40  1  0  0  0  0
 17 41  1  0  0  0  0
 18 19  1  0  0  0  0
 18 42  1  0  0  0  0
 19 20  1  0  0  0  0
 20 21  2  0  0  0  0
 20 22  1  0  0  0  0
 22 27  1  0  0  0  0
 22 23  2  0  0  0  0
 23 24  1  0  0  0  0
 23 43  1  0  0  0  0
 24 25  2  0  0  0  0
 24 44  1  0  0  0  0
 25 26  1  0  0  0  0
 25 45  1  0  0  0  0
 26 27  2  0  0  0  0
 26 46  1  0  0  0  0
 27 47  1  0  0  0  0
 28 33  1  0  0  0  0
 28 29  2  0  0  0  0
 29 30  1  0  0  0  0
 29 48  1  0  0  0  0
 30 31  2  0  0  0  0
 30 49  1  0  0  0  0
 31 32  1  0  0  0  0
 31 50  1  0  0  0  0
 32 33  2  0  0  0  0
 32 51  1  0  0  0  0
 33 52  1  0  0  0  0
M  CHG  1  13  -1
M  END
> <s_m_source_file>
AV-unprocessed.smi

> <i_m_source_file_index>
99

> <i_lp_mmshare_version>
43012

> <i_f3d_flags>
0

> <s_epik_input>
W2NIXTFbY0hdW2NIXVtjSF1bY0hdYzFDKD1PKU9bQ0gyXVtDQEBIXTJPW0NAQEhdKG4zW2NIXVtjSF1jKD1PKVtuSF1jMz1PKVtDQEBIXShbT0hdKVtDQEhdMk9DKD1PKWM0W2NIXVtjSF1bY0hdW2NIXVtjSF00

> <s_epik_cmdline>
J2VwaWtfcHl0aG9uJywgJy1waCcsICc3LjAnLCAnLXRuJywgJzgnLCAnLW1hJywgJzIwMCcsICctbWV0YWxfYmluZGluZycsICctaW1hZScsICc8aW5maWxlLm1hZT4nLCAnLW9tYWUnLCAnPG91dGZpbGUubWFlPic=

> <r_lp_tautomer_probability>
1

> <r_epik_Ionization_Penalty>
2.89159

> <r_epik_Ionization_Penalty_Charging>
2.1077e-08

> <r_epik_Ionization_Penalty_Neutral>
2.89159

> <r_epik_State_Penalty>
2.88671

> <r_epik_Charging_Adjusted_Penalty>
2.88671

> <i_epik_Tot_Q>
-1

> <i_epik_Tot_abs_Q>
1

> <r_epik_Metal_State_Penalty>
0.0727308

> <b_epik_Metal_Only>
1

> <s_epik_Chemistry_Notes>
This compound has an ester and may undergo hydrolysis at high or low pH. This compound contains an acetal/aminal-like group ( X-CH(R)-Y where X, Y are N, S, or O) that may be acid/base labile, releasing an aldehyde.

> <s_lp_Force_Field>
OPLS_2005

> <r_lp_Energy>
52.0393

> <b_lp_Chiralities_Consistent>
1

> <s_lp_Variant>
AV-unprocessed.smi:99-24

> <Gold.Version>
5.8.1

> <Gold.Id.Protein>
6NUR|6NUR_protein|mol2

> <Gold.PLP.Fitness>
54.3950

> <Gold.PLP.PLP>
-45.6753

> <Gold.PLP.part.hbond>
-4.6067

> <Gold.PLP.part.metal>
0.0000

> <Gold.PLP.part.buried>
-5.5983

> <Gold.PLP.part.nonpolar>
-36.7906

> <Gold.PLP.part.repulsive>
0.5606

> <Gold.PLP.ligand.clash>
0.0000

> <Gold.PLP.ligand.torsion>
0.9727

> <Gold.PLP.Chemscore.Hbond>
3.4154

> <Gold.PLP.Chemscore.CHOScore>
0.0000

> <Gold.PLP.Chemscore.Metal>
0.0000

> <Gold.Chemscore.Hbonds>
donor molecule, donor type, donor heavy atom, donor atom, acceptor molecule, acceptor atom, score
      L1  H    17    41       P1  7948  1.00
      P1  H  6931  6943       L1     1  0.91
      P1  H  6934  6947       L1     1  0.62
      P1  H  7989  7998       L1    21  0.91

> <Gold.PLP.Chemscore.Internal.Correction>
0.4189

> <Gold.Rescore>
     Score         DG    S(hbond)    S(metal)    S(lipo)     H(rot)  DE(clash)    DE(int)     intcor
     19.17     -21.97       3.29        0.00     115.69       3.13       0.12       2.68       ----

> <Gold.Chemscore.Fitness>
19.1650

> <Gold.Chemscore.DG>
-21.9697

> <Gold.Chemscore.ZeroCoef>
-5.4800

> <Gold.Chemscore.Hbond>
3.2870

> <Gold.Chemscore.Metal>
0.0000

> <Gold.Chemscore.Lipo>
115.6899

> <Gold.Chemscore.Internal_Hbond>
0.0000

> <Gold.Chemscore.DEClash>
0.1206

> <Gold.Chemscore.DEInternal>
2.6842

> <Gold.Chemscore.Rot>
3.1346

> <Gold.Chemscore.Internal.Correction>
   9.000000E+99

> <Gold.Chemscore.Hbonds>
donor molecule, donor type, donor heavy atom, donor atom, acceptor molecule, acceptor atom, score
      L1  H    17    41       P1  7948  0.71
      P1  H  6931  6943       L1     1  0.87
      P1  H  6934  6947       L1     1  0.58
      P1  H  7989  7998       L1    21  0.89

> <Gold.Chemscore.Hbond.Weighted>
-10.9786

> <Gold.Chemscore.Metal.Weighted>
-0.0000

> <Gold.Chemscore.Lipo.Weighted>
-13.5357

> <Gold.Chemscore.Internal_Hbond.Weighted>
0.0000

> <Gold.Chemscore.DEClash.Weighted>
0.1206

> <Gold.Chemscore.DEInternal.Weighted>
2.6842

> <Gold.Chemscore.Rot.Weighted>
8.0246

> <Gold.Chemscore.Internal.Correction.Weighted>
   9.000000E+99

> <Gold.Protein.RotatedTorsions>
[ 6907 6896 6895 6894 ] final  -53.49 input  -60.11 | X-H torsion
[ 7974 7965 7964 7962 ] final   95.05 input  175.53 | X-H torsion
[ 8008 7997 7996 7995 ] final  -98.72 input   59.86 | X-H torsion
[ 10167 10162 10161 10158 ] final  -82.72 input  -65.29 | X-H torsion
[ 10718 10713 10712 10709 ] final  -50.11 input   66.30 | X-H torsion
[ 10763 10752 10751 10750 ] final -157.28 input  -60.55 | X-H torsion
[ 11005 11000 10999 10996 ] final  -25.51 input  -57.11 | X-H torsion

> <Gold.Protein.ActiveResidues>
 VAL166  LYS551  ARG553  GLY616  TRP617  ASP618  TYR619  PRO620  LYS621  CYS622 
 ASP623  PHE694  ASN695  SER759  ASP760  ASP761  ALA762  ILE779  LEU786  VAL792 
 PHE793  MET794  SER795  GLU796  ALA797  LYS798  CYS799  TRP800  GLU811  SER814 

> <Gold.Protein.RotatedAtoms>
  150.8422  134.7718  159.6941 H   0  0  0  0  0  0  0  0  0  0  0  0  # atno 6907 bound_to 6896
  152.4507  134.5397  159.9845 H   0  0  0  0  0  0  0  0  0  0  0  0  # atno 6908 bound_to 6896
  151.5534  133.3376  159.2993 H   0  0  0  0  0  0  0  0  0  0  0  0  # atno 6909 bound_to 6896
  145.4574  139.2289  143.3006 H   0  0  0  0  0  0  0  0  0  0  0  0  # atno 7974 bound_to 7965
  154.8050  140.0453  157.1301 H   0  0  0  0  0  0  0  0  0  0  0  0  # atno 8008 bound_to 7997
  154.9435  140.3055  155.5089 H   0  0  0  0  0  0  0  0  0  0  0  0  # atno 8009 bound_to 7997
  156.2966  140.2301  156.4506 H   0  0  0  0  0  0  0  0  0  0  0  0  # atno 8010 bound_to 7997
  140.4293  143.2554  151.8782 H   0  0  0  0  0  0  0  0  0  0  0  0  # atno 10167 bound_to 10162
  156.1831  130.4151  149.9478 H   0  0  0  0  0  0  0  0  0  0  0  0  # atno 10718 bound_to 10713
  154.7648  135.3128  154.8308 H   0  0  0  0  0  0  0  0  0  0  0  0  # atno 10763 bound_to 10752
  153.9059  135.6811  153.4757 H   0  0  0  0  0  0  0  0  0  0  0  0  # atno 10764 bound_to 10752
  153.1252  135.4804  154.9194 H   0  0  0  0  0  0  0  0  0  0  0  0  # atno 10765 bound_to 10752
  140.8944  133.7566  156.0462 H   0  0  0  0  0  0  0  0  0  0  0  0  # atno 11005 bound_to 11000
  146.2470  140.5339  142.8909 LP  0  0  0  0  0  0  0  0  0  0  0  0  # atno 17320 bound_to 7965
  144.8024  140.6237  143.6469 LP  0  0  0  0  0  0  0  0  0  0  0  0  # atno 17321 bound_to 7965
  139.4784  144.5352  151.8609 LP  0  0  0  0  0  0  0  0  0  0  0  0  # atno 17342 bound_to 10162
  140.4445  144.1940  150.5893 LP  0  0  0  0  0  0  0  0  0  0  0  0  # atno 17343 bound_to 10162
  156.7242  130.9018  151.3620 LP  0  0  0  0  0  0  0  0  0  0  0  0  # atno 17370 bound_to 10713
  157.6881  130.9206  150.0440 LP  0  0  0  0  0  0  0  0  0  0  0  0  # atno 17371 bound_to 10713
  140.8307  134.3181  157.5349 LP  0  0  0  0  0  0  0  0  0  0  0  0  # atno 17394 bound_to 11000
  139.8733  134.9362  156.3653 LP  0  0  0  0  0  0  0  0  0  0  0  0  # atno 17395 bound_to 11000

$$$$
