AV-unprocessed.smi:807|AV-procd|sdf|3803|dock2
  -GOLD-   22720 1243D 1   1.00000     0.00000
 Structure written by MMmdl.
 35 37  0  0  0  0  0  0  0  0  1 V2000
  153.2864  137.8274  158.1848 C   0  0  0  0  0  0  0  0  0  0  0  0
  152.3340  138.8133  157.7001 N   0  0  0  0  0  0  0  0  0  0  0  0
  151.7975  138.7138  156.4084 C   0  0  0  0  0  0  0  0  0  0  0  0
  152.1342  137.6711  155.6144 N   0  0  0  0  0  0  0  0  0  0  0  0
  151.5949  137.6178  154.3893 C   0  0  0  0  0  0  0  0  0  0  0  0
  150.7395  138.4703  153.8034 N   0  0  0  0  0  0  0  0  0  0  0  0
  150.4013  139.5077  154.5816 C   0  0  0  0  0  0  0  0  0  0  0  0
  149.5420  140.5371  154.2371 N   0  0  0  0  0  0  0  0  0  0  0  0
  149.5585  141.2833  155.3393 C   0  0  0  0  0  0  0  0  0  0  0  0
  150.3266  140.8622  156.3633 N   0  0  0  0  0  0  0  0  0  0  0  0
  150.4972  141.5176  157.6481 C   0  0  0  0  0  0  0  0  0  0  0  0
  151.3746  142.7829  157.5503 C   0  0  1  0  0  0  0  0  0  0  0  0
  150.8220  143.7080  156.6337 O   0  0  0  0  0  0  0  0  0  0  0  0
  151.6613  143.3937  158.9200 C   0  0  0  0  0  0  0  0  0  0  0  0
  151.2589  144.7284  159.1523 C   0  0  0  0  0  0  0  0  0  0  0  0
  151.4994  145.3483  160.3927 C   0  0  0  0  0  0  0  0  0  0  0  0
  152.1503  144.6389  161.4173 C   0  0  0  0  0  0  0  0  0  0  0  0
  152.5612  143.3117  161.1971 C   0  0  0  0  0  0  0  0  0  0  0  0
  152.3239  142.6840  159.9574 C   0  0  0  0  0  0  0  0  0  0  0  0
  152.8689  141.0544  159.7587 Cl  0  0  0  0  0  0  0  0  0  0  0  0
  150.9056  139.6815  155.9052 C   0  0  0  0  0  0  0  0  0  0  0  0
  153.5852  138.0688  159.2047 H   0  0  0  0  0  0  0  0  0  0  0  0
  154.1809  137.8147  157.5610 H   0  0  0  0  0  0  0  0  0  0  0  0
  152.8450  136.8302  158.1853 H   0  0  0  0  0  0  0  0  0  0  0  0
  152.0685  139.5798  158.3014 H   0  0  0  0  0  0  0  0  0  0  0  0
  151.8898  136.7697  153.7892 H   0  0  0  0  0  0  0  0  0  0  0  0
  148.9802  142.1933  155.4057 H   0  0  0  0  0  0  0  0  0  0  0  0
  149.5118  141.7538  158.0494 H   0  0  0  0  0  0  0  0  0  0  0  0
  150.9423  140.8007  158.3386 H   0  0  0  0  0  0  0  0  0  0  0  0
  152.3307  142.4921  157.1142 H   0  0  0  0  0  0  0  0  0  0  0  0
  150.7617  143.2921  155.7872 H   0  0  0  0  0  0  0  0  0  0  0  0
  150.7604  145.2892  158.3751 H   0  0  0  0  0  0  0  0  0  0  0  0
  151.1850  146.3684  160.5573 H   0  0  0  0  0  0  0  0  0  0  0  0
  152.3363  145.1124  162.3701 H   0  0  0  0  0  0  0  0  0  0  0  0
  153.0639  142.7715  161.9859 H   0  0  0  0  0  0  0  0  0  0  0  0
  1  2  1  0  0  0  0
  1 22  1  0  0  0  0
  1 23  1  0  0  0  0
  1 24  1  0  0  0  0
  2  3  1  0  0  0  0
  2 25  1  0  0  0  0
  3 21  1  0  0  0  0
  3  4  2  0  0  0  0
  4  5  1  0  0  0  0
  5  6  2  0  0  0  0
  5 26  1  0  0  0  0
  6  7  1  0  0  0  0
  7 21  2  0  0  0  0
  7  8  1  0  0  0  0
  8  9  2  0  0  0  0
  9 10  1  0  0  0  0
  9 27  1  0  0  0  0
 10 11  1  0  0  0  0
 10 21  1  0  0  0  0
 11 12  1  0  0  0  0
 11 28  1  0  0  0  0
 11 29  1  0  0  0  0
 12 13  1  0  0  0  0
 12 14  1  0  0  0  0
 12 30  1  0  0  0  0
 13 31  1  0  0  0  0
 14 19  1  0  0  0  0
 14 15  2  0  0  0  0
 15 16  1  0  0  0  0
 15 32  1  0  0  0  0
 16 17  2  0  0  0  0
 16 33  1  0  0  0  0
 17 18  1  0  0  0  0
 17 34  1  0  0  0  0
 18 19  2  0  0  0  0
 18 35  1  0  0  0  0
 19 20  1  0  0  0  0
M  END
> <s_m_source_file>
AV-unprocessed.smi

> <i_m_source_file_index>
807

> <i_lp_mmshare_version>
43012

> <i_f3d_flags>
0

> <s_epik_input>
bjFbY0hdbmMoW05IXVtDSDNdKWMoYzEyKW4oW2NIXW4yKVtDSDJdW0NASF0oW09IXSljM1tjSF1bY0hdW2NIXVtjSF1jM0Ns

> <s_epik_cmdline>
J2VwaWtfcHl0aG9uJywgJy1waCcsICc3LjAnLCAnLXRuJywgJzgnLCAnLW1hJywgJzIwMCcsICctbWV0YWxfYmluZGluZycsICctaW1hZScsICc8aW5maWxlLm1hZT4nLCAnLW9tYWUnLCAnPG91dGZpbGUubWFlPic=

> <r_lp_tautomer_probability>
1

> <r_epik_Ionization_Penalty>
0.00695285

> <r_epik_Ionization_Penalty_Charging>
0

> <r_epik_Ionization_Penalty_Neutral>
0.00695285

> <r_epik_State_Penalty>
-0

> <r_epik_Charging_Adjusted_Penalty>
0

> <i_epik_Tot_Q>
0

> <i_epik_Tot_abs_Q>
0

> <r_epik_Metal_State_Penalty>
-0

> <b_epik_Metal_Only>
0

> <s_lp_Force_Field>
OPLS_2005

> <r_lp_Energy>
12.6911

> <b_lp_Chiralities_Consistent>
1

> <s_lp_Variant>
AV-unprocessed.smi:807-2

> <Gold.Version>
5.8.1

> <Gold.Id.Protein>
6NUR|6NUR_protein|mol2

> <Gold.PLP.Fitness>
49.2355

> <Gold.PLP.PLP>
-43.5705

> <Gold.PLP.part.hbond>
-2.0853

> <Gold.PLP.part.metal>
0.0000

> <Gold.PLP.part.buried>
-4.7799

> <Gold.PLP.part.nonpolar>
-38.6016

> <Gold.PLP.part.repulsive>
0.8439

> <Gold.PLP.ligand.clash>
0.0000

> <Gold.PLP.ligand.torsion>
0.2028

> <Gold.PLP.Chemscore.Hbond>
0.0000

> <Gold.PLP.Chemscore.CHOScore>
2.0000

> <Gold.PLP.Chemscore.Metal>
0.0000

> <Gold.Chemscore.Hbonds>
donor molecule, donor type, donor heavy atom, donor atom, acceptor molecule, acceptor atom, score
      L1  C     5    26       P1  7949  1.00
      L1  C     9    27       P1  8028  0.99

> <Gold.PLP.Chemscore.Internal.Correction>
0.0706

> <Gold.Rescore>
     Score         DG    S(hbond)    S(metal)    S(lipo)     H(rot)  DE(clash)    DE(int)     intcor
      9.90     -11.86       0.01        0.00     104.82       2.31       0.64       1.33       ----

> <Gold.Chemscore.Fitness>
9.8991

> <Gold.Chemscore.DG>
-11.8629

> <Gold.Chemscore.ZeroCoef>
-5.4800

> <Gold.Chemscore.Hbond>
0.0108

> <Gold.Chemscore.Metal>
0.0000

> <Gold.Chemscore.Lipo>
104.8234

> <Gold.Chemscore.Internal_Hbond>
0.0000

> <Gold.Chemscore.DEClash>
0.6359

> <Gold.Chemscore.DEInternal>
1.3279

> <Gold.Chemscore.Rot>
2.3115

> <Gold.Chemscore.Internal.Correction>
   9.000000E+99

> <Gold.Chemscore.Hbond.Weighted>
-0.0359

> <Gold.Chemscore.Metal.Weighted>
-0.0000

> <Gold.Chemscore.Lipo.Weighted>
-12.2643

> <Gold.Chemscore.Internal_Hbond.Weighted>
0.0000

> <Gold.Chemscore.DEClash.Weighted>
0.6359

> <Gold.Chemscore.DEInternal.Weighted>
1.3279

> <Gold.Chemscore.Rot.Weighted>
5.9174

> <Gold.Chemscore.Internal.Correction.Weighted>
   9.000000E+99

> <Gold.Protein.RotatedTorsions>
[ 6907 6896 6895 6894 ] final  -91.34 input  -60.11 | X-H torsion
[ 7974 7965 7964 7962 ] final -160.76 input  175.53 | X-H torsion
[ 8008 7997 7996 7995 ] final -101.50 input   59.86 | X-H torsion
[ 10167 10162 10161 10158 ] final  154.32 input  -65.29 | X-H torsion
[ 10718 10713 10712 10709 ] final  -60.92 input   66.30 | X-H torsion
[ 10763 10752 10751 10750 ] final   55.41 input  -60.55 | X-H torsion
[ 11005 11000 10999 10996 ] final  178.59 input  -57.11 | X-H torsion

> <Gold.Protein.ActiveResidues>
 VAL166  LYS551  ARG553  GLY616  TRP617  ASP618  TYR619  PRO620  LYS621  CYS622 
 ASP623  PHE694  ASN695  SER759  ASP760  ASP761  ALA762  ILE779  LEU786  VAL792 
 PHE793  MET794  SER795  GLU796  ALA797  LYS798  CYS799  TRP800  GLU811  SER814 

> <Gold.Protein.RotatedAtoms>
  150.6891  134.2292  159.4427 H   0  0  0  0  0  0  0  0  0  0  0  0  # atno 6907 bound_to 6896
  152.0243  134.9802  160.0580 H   0  0  0  0  0  0  0  0  0  0  0  0  # atno 6908 bound_to 6896
  152.1366  133.4404  159.4783 H   0  0  0  0  0  0  0  0  0  0  0  0  # atno 6909 bound_to 6896
  144.7415  140.3495  143.6118 H   0  0  0  0  0  0  0  0  0  0  0  0  # atno 7974 bound_to 7965
  154.8434  140.0434  157.1557 H   0  0  0  0  0  0  0  0  0  0  0  0  # atno 8008 bound_to 7997
  154.9021  140.3001  155.5291 H   0  0  0  0  0  0  0  0  0  0  0  0  # atno 8009 bound_to 7997
  156.2993  140.2374  156.4050 H   0  0  0  0  0  0  0  0  0  0  0  0  # atno 8010 bound_to 7997
  139.4824  144.5197  151.7896 H   0  0  0  0  0  0  0  0  0  0  0  0  # atno 10167 bound_to 10162
  156.0957  130.4193  150.0921 H   0  0  0  0  0  0  0  0  0  0  0  0  # atno 10718 bound_to 10713
  152.9816  135.5711  154.5062 H   0  0  0  0  0  0  0  0  0  0  0  0  # atno 10763 bound_to 10752
  154.4573  135.2780  155.1740 H   0  0  0  0  0  0  0  0  0  0  0  0  # atno 10764 bound_to 10752
  154.3342  135.6243  153.5619 H   0  0  0  0  0  0  0  0  0  0  0  0  # atno 10765 bound_to 10752
  140.3968  134.6813  157.4539 H   0  0  0  0  0  0  0  0  0  0  0  0  # atno 11005 bound_to 11000
  145.7291  139.1731  143.2440 LP  0  0  0  0  0  0  0  0  0  0  0  0  # atno 17320 bound_to 7965
  146.1219  140.7297  142.9453 LP  0  0  0  0  0  0  0  0  0  0  0  0  # atno 17321 bound_to 7965
  140.4709  144.1588  150.5918 LP  0  0  0  0  0  0  0  0  0  0  0  0  # atno 17342 bound_to 10162
  140.4383  143.2538  151.9506 LP  0  0  0  0  0  0  0  0  0  0  0  0  # atno 17343 bound_to 10162
  156.8921  130.9592  151.3587 LP  0  0  0  0  0  0  0  0  0  0  0  0  # atno 17370 bound_to 10713
  157.6117  130.8588  149.8963 LP  0  0  0  0  0  0  0  0  0  0  0  0  # atno 17371 bound_to 10713
  140.0366  134.6329  155.9036 LP  0  0  0  0  0  0  0  0  0  0  0  0  # atno 17394 bound_to 11000
  141.1871  133.6559  156.5268 LP  0  0  0  0  0  0  0  0  0  0  0  0  # atno 17395 bound_to 11000

$$$$
