AV-unprocessed.smi:2528|AV-procd|sdf|9948|dock9
  -GOLD-   2272013593D 1   1.00000     0.00000
 Structure written by MMmdl.
 44 46  0  0  0  0  0  0  0  0  2 V2000
  149.7821  135.8433  156.3970 O   0  0  0  0  0  0  0  0  0  0  0  0
  149.6085  135.9774  155.1856 C   0  0  0  0  0  0  0  0  0  0  0  0
  149.3230  134.9569  154.3639 N   0  0  0  0  0  0  0  0  0  0  0  0
  149.1740  133.5629  154.7746 C   0  0  0  0  0  0  0  0  0  0  0  0
  148.5346  132.6729  153.6884 C   0  0  2  0  0  0  0  0  0  0  0  0
  147.8492  133.4667  152.5569 C   0  0  0  0  0  0  0  0  0  0  0  0
  147.2420  132.5450  151.5693 N   0  3  2  0  0  0  0  0  0  0  0  0
  146.6024  133.2682  150.4412 C   0  0  0  0  0  0  0  0  0  0  0  0
  146.0636  132.2859  149.3894 C   0  0  0  0  0  0  0  0  0  0  0  0
  145.0849  131.2911  150.0257 C   0  0  0  0  0  0  0  0  0  0  0  0
  145.7579  130.5753  151.2044 C   0  0  0  0  0  0  0  0  0  0  0  0
  146.3181  131.5822  152.2292 C   0  0  1  0  0  0  0  0  0  0  0  0
  147.0480  130.8583  153.3775 C   0  0  0  0  0  0  0  0  0  0  0  0
  147.5810  131.8063  154.2924 O   0  0  0  0  0  0  0  0  0  0  0  0
  149.6764  137.1401  154.5138 N   0  0  0  0  0  0  0  0  0  0  0  0
  149.9257  138.4388  155.0326 C   0  0  0  0  0  0  0  0  0  0  0  0
  149.1700  139.4759  154.4399 C   0  0  0  0  0  0  0  0  0  0  0  0
  149.3430  140.8007  154.8857 C   0  0  0  0  0  0  0  0  0  0  0  0
  150.2678  141.0546  155.9144 C   0  0  0  0  0  0  0  0  0  0  0  0
  150.9778  139.9652  156.4515 C   0  0  0  0  0  0  0  0  0  0  0  0
  150.8134  138.6947  156.0262 N   0  0  0  0  0  0  0  0  0  0  0  0
  149.2038  135.1569  153.3816 H   0  0  0  0  0  0  0  0  0  0  0  0
  150.1700  133.1854  155.0072 H   0  0  0  0  0  0  0  0  0  0  0  0
  148.6028  133.4985  155.7024 H   0  0  0  0  0  0  0  0  0  0  0  0
  149.3293  132.0591  153.2604 H   0  0  0  0  0  0  0  0  0  0  0  0
  147.0711  134.1176  152.9587 H   0  0  0  0  0  0  0  0  0  0  0  0
  148.5783  134.1070  152.0589 H   0  0  0  0  0  0  0  0  0  0  0  0
  145.7918  133.8931  150.8196 H   0  0  0  0  0  0  0  0  0  0  0  0
  147.3290  133.9368  149.9779 H   0  0  0  0  0  0  0  0  0  0  0  0
  145.5699  132.8327  148.5855 H   0  0  0  0  0  0  0  0  0  0  0  0
  146.8933  131.7450  148.9324 H   0  0  0  0  0  0  0  0  0  0  0  0
  144.1950  131.8181  150.3722 H   0  0  0  0  0  0  0  0  0  0  0  0
  144.7501  130.5646  149.2846 H   0  0  0  0  0  0  0  0  0  0  0  0
  145.0408  129.9103  151.6872 H   0  0  0  0  0  0  0  0  0  0  0  0
  146.5629  129.9410  150.8302 H   0  0  0  0  0  0  0  0  0  0  0  0
  145.4863  132.1482  152.6534 H   0  0  0  0  0  0  0  0  0  0  0  0
  146.3551  130.2104  153.9148 H   0  0  0  0  0  0  0  0  0  0  0  0
  147.8470  130.2204  152.9959 H   0  0  0  0  0  0  0  0  0  0  0  0
  149.5308  137.0929  153.5166 H   0  0  0  0  0  0  0  0  0  0  0  0
  148.4644  139.2644  153.6497 H   0  0  0  0  0  0  0  0  0  0  0  0
  148.7760  141.6072  154.4448 H   0  0  0  0  0  0  0  0  0  0  0  0
  150.4284  142.0571  156.2825 H   0  0  0  0  0  0  0  0  0  0  0  0
  151.6967  140.1168  157.2430 H   0  0  0  0  0  0  0  0  0  0  0  0
  147.9964  132.0003  151.1766 H   0  0  0  0  0  0  0  0  0  0  0  0
  1  2  2  0  0  0  0
  2  3  1  0  0  0  0
  2 15  1  0  0  0  0
  3  4  1  0  0  0  0
  3 22  1  0  0  0  0
  4  5  1  0  0  0  0
  4 23  1  0  0  0  0
  4 24  1  0  0  0  0
  5 14  1  0  0  0  0
  5  6  1  0  0  0  0
  5 25  1  0  0  0  0
  6  7  1  0  0  0  0
  6 26  1  0  0  0  0
  6 27  1  0  0  0  0
  7 12  1  0  0  0  0
  7  8  1  0  0  0  0
  7 44  1  0  0  0  0
  8  9  1  0  0  0  0
  8 28  1  0  0  0  0
  8 29  1  0  0  0  0
  9 10  1  0  0  0  0
  9 30  1  0  0  0  0
  9 31  1  0  0  0  0
 10 11  1  0  0  0  0
 10 32  1  0  0  0  0
 10 33  1  0  0  0  0
 11 12  1  0  0  0  0
 11 34  1  0  0  0  0
 11 35  1  0  0  0  0
 12 13  1  0  0  0  0
 12 36  1  0  0  0  0
 13 14  1  0  0  0  0
 13 37  1  0  0  0  0
 13 38  1  0  0  0  0
 15 16  1  0  0  0  0
 15 39  1  0  0  0  0
 16 21  1  0  0  0  0
 16 17  2  0  0  0  0
 17 18  1  0  0  0  0
 17 40  1  0  0  0  0
 18 19  2  0  0  0  0
 18 41  1  0  0  0  0
 19 20  1  0  0  0  0
 19 42  1  0  0  0  0
 20 21  2  0  0  0  0
 20 43  1  0  0  0  0
M  CHG  1   7   1
M  END
> <s_m_source_file>
AV-unprocessed.smi

> <i_m_source_file_index>
2528

> <i_lp_mmshare_version>
43012

> <i_f3d_flags>
0

> <s_epik_input>
bjFbY0hdW2NIXVtjSF1bY0hdYzFbTkhdQyg9TylbTkhdW0NIMl1bQ0BIXShbQ0gyXTIpT1tDSDJdW0NAQEhdKE4yMylbQ0gyXVtDSDJdW0NIMl1bQ0gyXTM=

> <s_epik_cmdline>
J2VwaWtfcHl0aG9uJywgJy1waCcsICc3LjAnLCAnLXRuJywgJzgnLCAnLW1hJywgJzIwMCcsICctbWV0YWxfYmluZGluZycsICctaW1hZScsICc8aW5maWxlLm1hZT4nLCAnLW9tYWUnLCAnPG91dGZpbGUubWFlPic=

> <r_epik_Ionization_Penalty>
0.0932337

> <r_epik_Ionization_Penalty_Charging>
0.0931942

> <r_epik_Ionization_Penalty_Neutral>
3.9565e-05

> <r_epik_State_Penalty>
0.0834605

> <r_epik_Charging_Adjusted_Penalty>
0.176655

> <i_epik_Tot_Q>
1

> <i_epik_Tot_abs_Q>
1

> <r_epik_Metal_State_Penalty>
0.0834607

> <b_epik_Metal_Only>
0

> <s_lp_Force_Field>
OPLS_2005

> <r_lp_Energy>
24.6959

> <b_lp_Chiralities_Consistent>
1

> <s_lp_Variant>
AV-unprocessed.smi:2528-1

> <Gold.Version>
5.8.1

> <Gold.Id.Protein>
6NUR|6NUR_protein|mol2

> <Gold.PLP.Fitness>
46.6532

> <Gold.PLP.PLP>
-40.9823

> <Gold.PLP.part.hbond>
-3.5672

> <Gold.PLP.part.metal>
0.0000

> <Gold.PLP.part.buried>
-4.2573

> <Gold.PLP.part.nonpolar>
-32.6603

> <Gold.PLP.part.repulsive>
0.1673

> <Gold.PLP.ligand.clash>
0.0000

> <Gold.PLP.ligand.torsion>
0.9905

> <Gold.PLP.Chemscore.Hbond>
2.5500

> <Gold.PLP.Chemscore.CHOScore>
0.0000

> <Gold.PLP.Chemscore.Metal>
0.0000

> <Gold.Chemscore.Hbonds>
donor molecule, donor type, donor heavy atom, donor atom, acceptor molecule, acceptor atom, score
      L1  H     3    22       P1  7948  0.90
      L1  H     7    44       P1 10747  1.00
      L1  H    15    39       P1  7948  1.00

> <Gold.PLP.Chemscore.Internal.Correction>
0.0020

> <Gold.Rescore>
     Score         DG    S(hbond)    S(metal)    S(lipo)     H(rot)  DE(clash)    DE(int)     intcor
     17.78     -19.57       1.98        0.00      92.03       1.29       0.01       1.77       ----

> <Gold.Chemscore.Fitness>
17.7837

> <Gold.Chemscore.DG>
-19.5700

> <Gold.Chemscore.ZeroCoef>
-5.4800

> <Gold.Chemscore.Hbond>
1.9812

> <Gold.Chemscore.Metal>
0.0000

> <Gold.Chemscore.Lipo>
92.0300

> <Gold.Chemscore.Internal_Hbond>
0.0000

> <Gold.Chemscore.DEClash>
0.0121

> <Gold.Chemscore.DEInternal>
1.7742

> <Gold.Chemscore.Rot>
1.2870

> <Gold.Chemscore.Internal.Correction>
   9.000000E+99

> <Gold.Chemscore.Hbonds>
donor molecule, donor type, donor heavy atom, donor atom, acceptor molecule, acceptor atom, score
      L1  H     3    22       P1  7948  0.18
      L1  H     7    44       P1 10747  1.00
      L1  H    15    39       P1  7948  0.83

> <Gold.Chemscore.Hbond.Weighted>
-6.6173

> <Gold.Chemscore.Metal.Weighted>
-0.0000

> <Gold.Chemscore.Lipo.Weighted>
-10.7675

> <Gold.Chemscore.Internal_Hbond.Weighted>
0.0000

> <Gold.Chemscore.DEClash.Weighted>
0.0121

> <Gold.Chemscore.DEInternal.Weighted>
1.7742

> <Gold.Chemscore.Rot.Weighted>
3.2948

> <Gold.Chemscore.Internal.Correction.Weighted>
   9.000000E+99

> <Gold.Protein.RotatedTorsions>
[ 6907 6896 6895 6894 ] final   -6.01 input  -60.11 | X-H torsion
[ 7974 7965 7964 7962 ] final -164.39 input  175.53 | X-H torsion
[ 8008 7997 7996 7995 ] final -177.61 input   59.86 | X-H torsion
[ 10167 10162 10161 10158 ] final  -23.36 input  -65.29 | X-H torsion
[ 10718 10713 10712 10709 ] final -126.55 input   66.30 | X-H torsion
[ 10763 10752 10751 10750 ] final  166.71 input  -60.55 | X-H torsion
[ 11005 11000 10999 10996 ] final -152.86 input  -57.11 | X-H torsion

> <Gold.Protein.ActiveResidues>
 VAL166  LYS551  ARG553  GLY616  TRP617  ASP618  TYR619  PRO620  LYS621  CYS622 
 ASP623  PHE694  ASN695  SER759  ASP760  ASP761  ALA762  ILE779  LEU786  VAL792 
 PHE793  MET794  SER795  GLU796  ALA797  LYS798  CYS799  TRP800  GLU811  SER814 

> <Gold.Protein.RotatedAtoms>
  151.4724  135.1046  159.9754 H   0  0  0  0  0  0  0  0  0  0  0  0  # atno 6907 bound_to 6896
  152.4811  133.8253  159.7085 H   0  0  0  0  0  0  0  0  0  0  0  0  # atno 6908 bound_to 6896
  150.8884  133.7215  159.2938 H   0  0  0  0  0  0  0  0  0  0  0  0  # atno 6909 bound_to 6896
  144.7298  140.2968  143.6211 H   0  0  0  0  0  0  0  0  0  0  0  0  # atno 7974 bound_to 7965
  156.0090  140.1236  157.0472 H   0  0  0  0  0  0  0  0  0  0  0  0  # atno 8008 bound_to 7997
  154.4269  140.1091  156.5872 H   0  0  0  0  0  0  0  0  0  0  0  0  # atno 8009 bound_to 7997
  155.6106  140.3471  155.4623 H   0  0  0  0  0  0  0  0  0  0  0  0  # atno 8010 bound_to 7997
  140.7288  143.4450  151.0600 H   0  0  0  0  0  0  0  0  0  0  0  0  # atno 10167 bound_to 10162
  156.1775  130.6710  151.0262 H   0  0  0  0  0  0  0  0  0  0  0  0  # atno 10718 bound_to 10713
  154.3431  135.2754  155.2412 H   0  0  0  0  0  0  0  0  0  0  0  0  # atno 10763 bound_to 10752
  154.4674  135.5891  153.6301 H   0  0  0  0  0  0  0  0  0  0  0  0  # atno 10764 bound_to 10752
  152.9856  135.6080  154.3634 H   0  0  0  0  0  0  0  0  0  0  0  0  # atno 10765 bound_to 10752
  140.7143  134.3798  157.5193 H   0  0  0  0  0  0  0  0  0  0  0  0  # atno 11005 bound_to 11000
  145.7800  139.1888  143.2163 LP  0  0  0  0  0  0  0  0  0  0  0  0  # atno 17320 bound_to 7965
  146.0841  140.7730  142.9627 LP  0  0  0  0  0  0  0  0  0  0  0  0  # atno 17321 bound_to 7965
  139.8121  143.7937  152.3172 LP  0  0  0  0  0  0  0  0  0  0  0  0  # atno 17342 bound_to 10162
  139.7990  144.7381  150.9851 LP  0  0  0  0  0  0  0  0  0  0  0  0  # atno 17343 bound_to 10162
  157.6846  131.0828  150.7278 LP  0  0  0  0  0  0  0  0  0  0  0  0  # atno 17370 bound_to 10713
  156.7336  130.4717  149.5494 LP  0  0  0  0  0  0  0  0  0  0  0  0  # atno 17371 bound_to 10713
  139.8864  134.8912  156.2589 LP  0  0  0  0  0  0  0  0  0  0  0  0  # atno 17394 bound_to 11000
  141.0058  133.7125  156.1032 LP  0  0  0  0  0  0  0  0  0  0  0  0  # atno 17395 bound_to 11000

$$$$
