AV-unprocessed.smi:1762|AV-procd|sdf|7103|dock3
  -GOLD-   22720 8323D 1   1.00000     0.00000
 Structure written by MMmdl.
 52 53  0  0  0  0  0  0  0  0  1 V2000
  153.4304  142.0048  161.6885 C   0  0  0  0  0  0  0  0  0  0  0  0
  153.7828  142.0417  160.1908 C   0  0  1  0  0  0  0  0  0  0  0  0
  153.4870  140.7169  159.4596 C   0  0  0  0  0  0  0  0  0  0  0  0
  152.0552  140.4781  159.2386 N   0  0  0  0  0  0  0  0  0  0  0  0
  151.7787  139.1818  158.5571 C   0  0  2  0  0  0  0  0  0  0  0  0
  152.1442  137.9488  159.4185 C   0  0  0  0  0  0  0  0  0  0  0  0
  151.2604  137.2174  159.8665 O   0  0  0  0  0  0  0  0  0  0  0  0
  153.4517  137.7203  159.6200 N   0  0  0  0  0  0  0  0  0  0  0  0
  153.9989  136.5969  160.3739 C   0  0  0  0  0  0  0  0  0  0  0  0
  154.6554  137.0274  161.7006 C   0  0  0  0  0  0  0  0  0  0  0  0
  154.6301  135.9490  162.7715 C   0  0  0  0  0  0  0  0  0  0  0  0
  154.1478  136.2371  164.0660 C   0  0  0  0  0  0  0  0  0  0  0  0
  154.1606  135.2115  165.0312 C   0  0  0  0  0  0  0  0  0  0  0  0
  154.6535  133.9433  164.6676 C   0  0  0  0  0  0  0  0  0  0  0  0
  155.1137  133.7569  163.3493 C   0  0  0  0  0  0  0  0  0  0  0  0
  155.1058  134.7337  162.4172 N   0  0  0  0  0  0  0  0  0  0  0  0
  152.3854  139.0498  157.1194 C   0  0  0  0  0  0  0  0  0  0  0  0
  151.7136  139.9689  156.0789 C   0  0  0  0  0  0  0  0  0  0  0  0
  152.4420  137.6002  156.5981 C   0  0  0  0  0  0  0  0  0  0  0  0
  151.4888  141.6529  158.5566 C   0  0  0  0  0  0  0  0  0  0  0  0
  151.7515  142.9687  159.3106 C   0  0  2  0  0  0  0  0  0  0  0  0
  151.2489  144.1899  158.5322 C   0  0  0  0  0  0  0  0  0  0  0  0
  153.1500  143.1302  159.5225 O   0  0  0  0  0  0  0  0  0  0  0  0
  154.0169  141.2458  162.2066 H   0  0  0  0  0  0  0  0  0  0  0  0
  152.3793  141.7721  161.8581 H   0  0  0  0  0  0  0  0  0  0  0  0
  153.6421  142.9638  162.1614 H   0  0  0  0  0  0  0  0  0  0  0  0
  154.8550  142.2277  160.1236 H   0  0  0  0  0  0  0  0  0  0  0  0
  154.0077  140.7178  158.5006 H   0  0  0  0  0  0  0  0  0  0  0  0
  153.9332  139.9203  160.0514 H   0  0  0  0  0  0  0  0  0  0  0  0
  150.6961  139.1296  158.4227 H   0  0  0  0  0  0  0  0  0  0  0  0
  154.1141  138.3622  159.2095 H   0  0  0  0  0  0  0  0  0  0  0  0
  153.1821  135.9048  160.5804 H   0  0  0  0  0  0  0  0  0  0  0  0
  154.7156  136.0482  159.7610 H   0  0  0  0  0  0  0  0  0  0  0  0
  155.6911  137.3153  161.5171 H   0  0  0  0  0  0  0  0  0  0  0  0
  154.1610  137.9214  162.0841 H   0  0  0  0  0  0  0  0  0  0  0  0
  153.7803  137.2214  164.3160 H   0  0  0  0  0  0  0  0  0  0  0  0
  153.8008  135.3948  166.0328 H   0  0  0  0  0  0  0  0  0  0  0  0
  154.6785  133.1334  165.3816 H   0  0  0  0  0  0  0  0  0  0  0  0
  155.5004  132.7989  163.0349 H   0  0  0  0  0  0  0  0  0  0  0  0
  153.4112  139.4120  157.1586 H   0  0  0  0  0  0  0  0  0  0  0  0
  150.6943  139.6565  155.8505 H   0  0  0  0  0  0  0  0  0  0  0  0
  152.2694  139.9639  155.1409 H   0  0  0  0  0  0  0  0  0  0  0  0
  151.6782  141.0005  156.4299 H   0  0  0  0  0  0  0  0  0  0  0  0
  151.4472  137.1889  156.4293 H   0  0  0  0  0  0  0  0  0  0  0  0
  152.9606  136.9428  157.2961 H   0  0  0  0  0  0  0  0  0  0  0  0
  152.9784  137.5501  155.6502 H   0  0  0  0  0  0  0  0  0  0  0  0
  151.8971  141.7215  157.5469 H   0  0  0  0  0  0  0  0  0  0  0  0
  150.4077  141.5699  158.4529 H   0  0  0  0  0  0  0  0  0  0  0  0
  151.2377  142.9437  160.2718 H   0  0  0  0  0  0  0  0  0  0  0  0
  150.1792  144.1166  158.3346 H   0  0  0  0  0  0  0  0  0  0  0  0
  151.7608  144.2853  157.5745 H   0  0  0  0  0  0  0  0  0  0  0  0
  151.4214  145.1081  159.0941 H   0  0  0  0  0  0  0  0  0  0  0  0
  1  2  1  0  0  0  0
  1 24  1  0  0  0  0
  1 25  1  0  0  0  0
  1 26  1  0  0  0  0
  2 23  1  0  0  0  0
  2  3  1  0  0  0  0
  2 27  1  0  0  0  0
  3  4  1  0  0  0  0
  3 28  1  0  0  0  0
  3 29  1  0  0  0  0
  4  5  1  0  0  0  0
  4 20  1  0  0  0  0
  5  6  1  0  0  0  0
  5 17  1  0  0  0  0
  5 30  1  0  0  0  0
  6  7  2  0  0  0  0
  6  8  1  0  0  0  0
  8  9  1  0  0  0  0
  8 31  1  0  0  0  0
  9 10  1  0  0  0  0
  9 32  1  0  0  0  0
  9 33  1  0  0  0  0
 10 11  1  0  0  0  0
 10 34  1  0  0  0  0
 10 35  1  0  0  0  0
 11 16  1  0  0  0  0
 11 12  2  0  0  0  0
 12 13  1  0  0  0  0
 12 36  1  0  0  0  0
 13 14  2  0  0  0  0
 13 37  1  0  0  0  0
 14 15  1  0  0  0  0
 14 38  1  0  0  0  0
 15 16  2  0  0  0  0
 15 39  1  0  0  0  0
 17 18  1  0  0  0  0
 17 19  1  0  0  0  0
 17 40  1  0  0  0  0
 18 41  1  0  0  0  0
 18 42  1  0  0  0  0
 18 43  1  0  0  0  0
 19 44  1  0  0  0  0
 19 45  1  0  0  0  0
 19 46  1  0  0  0  0
 20 21  1  0  0  0  0
 20 47  1  0  0  0  0
 20 48  1  0  0  0  0
 21 22  1  0  0  0  0
 21 23  1  0  0  0  0
 21 49  1  0  0  0  0
 22 50  1  0  0  0  0
 22 51  1  0  0  0  0
 22 52  1  0  0  0  0
M  END
> <s_m_source_file>
AV-unprocessed.smi

> <i_m_source_file_index>
1762

> <i_lp_mmshare_version>
43012

> <i_f3d_flags>
0

> <s_epik_input>
W0NIM11bQ0BASF0xW0NIMl1OKFtDSDJdW0NASF0oTzEpW0NIM10pW0NAQEhdKFtDSF0oW0NIM10pW0NIM10pQyg9TylbTkhdW0NIMl1bQ0gyXWMyW2NIXVtjSF1bY0hdW2NIXW4y

> <s_epik_cmdline>
J2VwaWtfcHl0aG9uJywgJy1waCcsICc3LjAnLCAnLXRuJywgJzgnLCAnLW1hJywgJzIwMCcsICctbWV0YWxfYmluZGluZycsICctaW1hZScsICc8aW5maWxlLm1hZT4nLCAnLW9tYWUnLCAnPG91dGZpbGUubWFlPic=

> <r_epik_Ionization_Penalty>
0.0399736

> <r_epik_Ionization_Penalty_Charging>
0

> <r_epik_Ionization_Penalty_Neutral>
0.0399736

> <r_epik_State_Penalty>
0.0317634

> <r_epik_Charging_Adjusted_Penalty>
0.0317634

> <i_epik_Tot_Q>
0

> <i_epik_Tot_abs_Q>
0

> <r_epik_Metal_State_Penalty>
0.0307795

> <b_epik_Metal_Only>
0

> <s_lp_Force_Field>
OPLS_2005

> <r_lp_Energy>
29.7417

> <b_lp_Chiralities_Consistent>
1

> <s_lp_Variant>
AV-unprocessed.smi:1762-5

> <Gold.Version>
5.8.1

> <Gold.Id.Protein>
6NUR|6NUR_protein|mol2

> <Gold.PLP.Fitness>
45.0291

> <Gold.PLP.PLP>
-43.2092

> <Gold.PLP.part.hbond>
-0.9342

> <Gold.PLP.part.metal>
0.0000

> <Gold.PLP.part.buried>
-2.3543

> <Gold.PLP.part.nonpolar>
-39.8571

> <Gold.PLP.part.repulsive>
0.0726

> <Gold.PLP.ligand.clash>
0.0000

> <Gold.PLP.ligand.torsion>
0.7268

> <Gold.PLP.Chemscore.Hbond>
0.9750

> <Gold.PLP.Chemscore.CHOScore>
0.0000

> <Gold.PLP.Chemscore.Metal>
0.0000

> <Gold.Chemscore.Hbonds>
donor molecule, donor type, donor heavy atom, donor atom, acceptor molecule, acceptor atom, score
      P1  H  6896  6909       L1     7  0.93

> <Gold.PLP.Chemscore.Internal.Correction>
0.3485

> <Gold.Rescore>
     Score         DG    S(hbond)    S(metal)    S(lipo)     H(rot)  DE(clash)    DE(int)     intcor
     18.49     -19.54       0.99        0.00     127.02       1.60       0.19       0.86       ----

> <Gold.Chemscore.Fitness>
18.4879

> <Gold.Chemscore.DG>
-19.5421

> <Gold.Chemscore.ZeroCoef>
-5.4800

> <Gold.Chemscore.Hbond>
0.9863

> <Gold.Chemscore.Metal>
0.0000

> <Gold.Chemscore.Lipo>
127.0238

> <Gold.Chemscore.Internal_Hbond>
0.0000

> <Gold.Chemscore.DEClash>
0.1906

> <Gold.Chemscore.DEInternal>
0.8636

> <Gold.Chemscore.Rot>
1.5993

> <Gold.Chemscore.Internal.Correction>
   9.000000E+99

> <Gold.Chemscore.Hbonds>
donor molecule, donor type, donor heavy atom, donor atom, acceptor molecule, acceptor atom, score
      P1  H  6896  6909       L1     7  0.88

> <Gold.Chemscore.Hbond.Weighted>
-3.2944

> <Gold.Chemscore.Metal.Weighted>
-0.0000

> <Gold.Chemscore.Lipo.Weighted>
-14.8618

> <Gold.Chemscore.Internal_Hbond.Weighted>
0.0000

> <Gold.Chemscore.DEClash.Weighted>
0.1906

> <Gold.Chemscore.DEInternal.Weighted>
0.8636

> <Gold.Chemscore.Rot.Weighted>
4.0941

> <Gold.Chemscore.Internal.Correction.Weighted>
   9.000000E+99

> <Gold.Protein.RotatedTorsions>
[ 6907 6896 6895 6894 ] final  109.72 input  -60.11 | X-H torsion
[ 7974 7965 7964 7962 ] final  -90.53 input  175.53 | X-H torsion
[ 8008 7997 7996 7995 ] final   57.41 input   59.86 | X-H torsion
[ 10167 10162 10161 10158 ] final  -27.52 input  -65.29 | X-H torsion
[ 10718 10713 10712 10709 ] final  -12.34 input   66.30 | X-H torsion
[ 10763 10752 10751 10750 ] final -127.53 input  -60.55 | X-H torsion
[ 11005 11000 10999 10996 ] final -140.00 input  -57.11 | X-H torsion

> <Gold.Protein.ActiveResidues>
 VAL166  LYS551  ARG553  GLY616  TRP617  ASP618  TYR619  PRO620  LYS621  CYS622 
 ASP623  PHE694  ASN695  SER759  ASP760  ASP761  ALA762  ILE779  LEU786  VAL792 
 PHE793  MET794  SER795  GLU796  ALA797  LYS798  CYS799  TRP800  GLU811  SER814 

> <Gold.Protein.RotatedAtoms>
  152.5054  133.8903  159.7390 H   0  0  0  0  0  0  0  0  0  0  0  0  # atno 6907 bound_to 6896
  150.9344  133.6720  159.2810 H   0  0  0  0  0  0  0  0  0  0  0  0  # atno 6908 bound_to 6896
  151.4054  135.0982  159.9621 H   0  0  0  0  0  0  0  0  0  0  0  0  # atno 6909 bound_to 6896
  145.4252  140.9553  143.2158 H   0  0  0  0  0  0  0  0  0  0  0  0  # atno 7974 bound_to 7965
  155.5334  140.3482  155.4431 H   0  0  0  0  0  0  0  0  0  0  0  0  # atno 8008 bound_to 7997
  156.0702  140.1361  156.9864 H   0  0  0  0  0  0  0  0  0  0  0  0  # atno 8009 bound_to 7997
  154.4524  140.0967  156.6633 H   0  0  0  0  0  0  0  0  0  0  0  0  # atno 8010 bound_to 7997
  140.7276  143.4087  151.1142 H   0  0  0  0  0  0  0  0  0  0  0  0  # atno 10167 bound_to 10162
  156.6460  130.4941  149.6078 H   0  0  0  0  0  0  0  0  0  0  0  0  # atno 10718 bound_to 10713
  154.8753  135.3959  154.3608 H   0  0  0  0  0  0  0  0  0  0  0  0  # atno 10763 bound_to 10752
  153.4381  135.7026  153.6192 H   0  0  0  0  0  0  0  0  0  0  0  0  # atno 10764 bound_to 10752
  153.4785  135.3774  155.2398 H   0  0  0  0  0  0  0  0  0  0  0  0  # atno 10765 bound_to 10752
  140.8465  134.2338  157.4783 H   0  0  0  0  0  0  0  0  0  0  0  0  # atno 11005 bound_to 11000
  144.8219  139.5777  143.6983 LP  0  0  0  0  0  0  0  0  0  0  0  0  # atno 17320 bound_to 7965
  146.2636  139.6466  142.9345 LP  0  0  0  0  0  0  0  0  0  0  0  0  # atno 17321 bound_to 7965
  139.7717  143.8485  152.3121 LP  0  0  0  0  0  0  0  0  0  0  0  0  # atno 17342 bound_to 10162
  139.8405  144.7212  150.9336 LP  0  0  0  0  0  0  0  0  0  0  0  0  # atno 17343 bound_to 10162
  156.2121  130.6685  151.1281 LP  0  0  0  0  0  0  0  0  0  0  0  0  # atno 17370 bound_to 10713
  157.7156  131.0711  150.6339 LP  0  0  0  0  0  0  0  0  0  0  0  0  # atno 17371 bound_to 10713
  139.8703  134.9662  156.4554 LP  0  0  0  0  0  0  0  0  0  0  0  0  # atno 17394 bound_to 11000
  140.8837  133.7899  155.9495 LP  0  0  0  0  0  0  0  0  0  0  0  0  # atno 17395 bound_to 11000

$$$$
