AV-unprocessed.smi:1668|AV-procd|sdf|6682|dock10
  -GOLD-   22720 7403D 1   1.00000     0.00000
 Structure written by MMmdl.
 44 46  0  0  0  0  0  0  0  0  1 V2000
  148.7230  136.9188  159.6124 C   0  0  0  0  0  0  0  0  0  0  0  0
  147.7183  137.8470  159.2306 O   0  0  0  0  0  0  0  0  0  0  0  0
  147.9648  138.6597  158.1449 C   0  0  0  0  0  0  0  0  0  0  0  0
  146.9574  139.2303  157.3323 C   0  0  0  0  0  0  0  0  0  0  0  0
  147.3006  140.0466  156.2388 C   0  0  0  0  0  0  0  0  0  0  0  0
  148.6570  140.3184  155.9314 C   0  0  0  0  0  0  0  0  0  0  0  0
  149.0490  141.1041  154.8665 O   0  0  0  0  0  0  0  0  0  0  0  0
  148.0467  141.7251  154.0757 C   0  0  0  0  0  0  0  0  0  0  0  0
  149.6683  139.7559  156.7484 C   0  0  0  0  0  0  0  0  0  0  0  0
  151.1418  140.0154  156.4415 C   0  0  1  0  0  0  0  0  0  0  0  0
  151.4976  139.5727  155.1453 O   0  0  0  0  0  0  0  0  0  0  0  0
  151.4670  141.5182  156.5560 C   0  0  0  0  0  0  0  0  0  0  0  0
  152.1146  141.8397  157.8264 N   0  0  0  0  0  0  0  0  0  0  0  0
  152.9054  141.0197  158.5585 C   0  0  0  0  0  0  0  0  0  0  0  0
  153.2242  139.8684  158.2624 O   0  0  0  0  0  0  0  0  0  0  0  0
  153.2795  141.6867  159.6757 N   0  0  0  0  0  0  0  0  0  0  0  0
  154.1293  141.1896  160.7512 C   0  0  0  0  0  0  0  0  0  0  0  0
  152.7040  142.9634  159.6638 C   0  0  0  0  0  0  0  0  0  0  0  0
  152.7790  144.0182  160.5894 C   0  0  0  0  0  0  0  0  0  0  0  0
  152.0677  145.2013  160.2791 C   0  0  0  0  0  0  0  0  0  0  0  0
  151.3144  145.3036  159.0805 C   0  0  0  0  0  0  0  0  0  0  0  0
  151.2569  144.2255  158.1666 C   0  0  0  0  0  0  0  0  0  0  0  0
  151.9721  143.0618  158.4995 C   0  0  0  0  0  0  0  0  0  0  0  0
  149.3120  138.9282  157.8372 C   0  0  0  0  0  0  0  0  0  0  0  0
  148.3762  136.3475  160.4733 H   0  0  0  0  0  0  0  0  0  0  0  0
  149.6450  137.4247  159.9021 H   0  0  0  0  0  0  0  0  0  0  0  0
  148.9357  136.2099  158.8111 H   0  0  0  0  0  0  0  0  0  0  0  0
  145.9100  139.0539  157.5240 H   0  0  0  0  0  0  0  0  0  0  0  0
  146.4954  140.4529  155.6463 H   0  0  0  0  0  0  0  0  0  0  0  0
  148.5236  142.3014  153.2829 H   0  0  0  0  0  0  0  0  0  0  0  0
  147.4423  142.4146  154.6665 H   0  0  0  0  0  0  0  0  0  0  0  0
  147.3977  140.9874  153.6023 H   0  0  0  0  0  0  0  0  0  0  0  0
  151.7566  139.4479  157.1406 H   0  0  0  0  0  0  0  0  0  0  0  0
  152.1518  138.8961  155.2294 H   0  0  0  0  0  0  0  0  0  0  0  0
  152.0634  141.8572  155.7072 H   0  0  0  0  0  0  0  0  0  0  0  0
  150.5423  142.0955  156.5141 H   0  0  0  0  0  0  0  0  0  0  0  0
  154.9155  141.9102  160.9773 H   0  0  0  0  0  0  0  0  0  0  0  0
  154.6075  140.2446  160.4908 H   0  0  0  0  0  0  0  0  0  0  0  0
  153.5389  141.0329  161.6541 H   0  0  0  0  0  0  0  0  0  0  0  0
  153.3541  143.9323  161.4996 H   0  0  0  0  0  0  0  0  0  0  0  0
  152.0986  146.0367  160.9627 H   0  0  0  0  0  0  0  0  0  0  0  0
  150.7790  146.2158  158.8625 H   0  0  0  0  0  0  0  0  0  0  0  0
  150.6872  144.2991  157.2527 H   0  0  0  0  0  0  0  0  0  0  0  0
  150.0822  138.4851  158.4514 H   0  0  0  0  0  0  0  0  0  0  0  0
  1  2  1  0  0  0  0
  1 25  1  0  0  0  0
  1 26  1  0  0  0  0
  1 27  1  0  0  0  0
  2  3  1  0  0  0  0
  3 24  1  0  0  0  0
  3  4  2  0  0  0  0
  4  5  1  0  0  0  0
  4 28  1  0  0  0  0
  5  6  2  0  0  0  0
  5 29  1  0  0  0  0
  6  7  1  0  0  0  0
  6  9  1  0  0  0  0
  7  8  1  0  0  0  0
  8 30  1  0  0  0  0
  8 31  1  0  0  0  0
  8 32  1  0  0  0  0
  9 10  1  0  0  0  0
  9 24  2  0  0  0  0
 10 11  1  0  0  0  0
 10 12  1  0  0  0  0
 10 33  1  0  0  0  0
 11 34  1  0  0  0  0
 12 13  1  0  0  0  0
 12 35  1  0  0  0  0
 12 36  1  0  0  0  0
 13 23  1  0  0  0  0
 13 14  1  0  0  0  0
 14 15  2  0  0  0  0
 14 16  1  0  0  0  0
 16 17  1  0  0  0  0
 16 18  1  0  0  0  0
 17 37  1  0  0  0  0
 17 38  1  0  0  0  0
 17 39  1  0  0  0  0
 18 23  2  0  0  0  0
 18 19  1  0  0  0  0
 19 20  2  0  0  0  0
 19 40  1  0  0  0  0
 20 21  1  0  0  0  0
 20 41  1  0  0  0  0
 21 22  2  0  0  0  0
 21 42  1  0  0  0  0
 22 23  1  0  0  0  0
 22 43  1  0  0  0  0
 24 44  1  0  0  0  0
M  END
> <s_m_source_file>
AV-unprocessed.smi

> <i_m_source_file_index>
1668

> <i_lp_mmshare_version>
43012

> <i_f3d_flags>
0

> <s_epik_input>
W0NIM11PYzFbY0hdW2NIXWMoT1tDSDNdKWMoW2NIXTEpW0NASF0oW09IXSlbQ0gyXW4oYyg9TyluMltDSDNdKWMoYzIzKVtjSF1bY0hdW2NIXVtjSF0z

> <s_epik_cmdline>
J2VwaWtfcHl0aG9uJywgJy1waCcsICc3LjAnLCAnLXRuJywgJzgnLCAnLW1hJywgJzIwMCcsICctbWV0YWxfYmluZGluZycsICctaW1hZScsICc8aW5maWxlLm1hZT4nLCAnLW9tYWUnLCAnPG91dGZpbGUubWFlPic=

> <r_lp_tautomer_probability>
1

> <r_epik_Ionization_Penalty>
1.34538e-06

> <r_epik_Ionization_Penalty_Charging>
1.76928e-09

> <r_epik_Ionization_Penalty_Neutral>
1.34362e-06

> <r_epik_State_Penalty>
-0

> <r_epik_Charging_Adjusted_Penalty>
1.76928e-09

> <i_epik_Tot_Q>
0

> <i_epik_Tot_abs_Q>
0

> <r_epik_Metal_State_Penalty>
-0

> <b_epik_Metal_Only>
0

> <s_lp_Force_Field>
OPLS_2005

> <r_lp_Energy>
50.494

> <b_lp_Chiralities_Consistent>
1

> <s_lp_Variant>
AV-unprocessed.smi:1668-2

> <Gold.Version>
5.8.1

> <Gold.Id.Protein>
6NUR|6NUR_protein|mol2

> <Gold.PLP.Fitness>
49.0776

> <Gold.PLP.PLP>
-45.0882

> <Gold.PLP.part.hbond>
-3.0000

> <Gold.PLP.part.metal>
0.0000

> <Gold.PLP.part.buried>
-7.3780

> <Gold.PLP.part.nonpolar>
-34.7604

> <Gold.PLP.part.repulsive>
0.1280

> <Gold.PLP.ligand.clash>
0.1747

> <Gold.PLP.ligand.torsion>
1.3395

> <Gold.PLP.Chemscore.Hbond>
2.2744

> <Gold.PLP.Chemscore.CHOScore>
0.0000

> <Gold.PLP.Chemscore.Metal>
0.0000

> <Gold.Chemscore.Hbonds>
donor molecule, donor type, donor heavy atom, donor atom, acceptor molecule, acceptor atom, score
      P1  H  6934  6947       L1     2  0.39
      P1  H  7989  7998       L1    11  0.84
      P1  H  7997  8010       L1    15  1.00

> <Gold.PLP.Chemscore.Internal.Correction>
0.0200

> <Gold.Rescore>
     Score         DG    S(hbond)    S(metal)    S(lipo)     H(rot)  DE(clash)    DE(int)     intcor
     15.62     -18.65       1.85        0.00     108.86       2.24       0.03       3.00       ----

> <Gold.Chemscore.Fitness>
15.6229

> <Gold.Chemscore.DG>
-18.6529

> <Gold.Chemscore.ZeroCoef>
-5.4800

> <Gold.Chemscore.Hbond>
1.8513

> <Gold.Chemscore.Metal>
0.0000

> <Gold.Chemscore.Lipo>
108.8564

> <Gold.Chemscore.Internal_Hbond>
0.0000

> <Gold.Chemscore.DEClash>
0.0318

> <Gold.Chemscore.DEInternal>
2.9982

> <Gold.Chemscore.Rot>
2.2448

> <Gold.Chemscore.Internal.Correction>
   9.000000E+99

> <Gold.Chemscore.Hbonds>
donor molecule, donor type, donor heavy atom, donor atom, acceptor molecule, acceptor atom, score
      P1  H  6934  6947       L1     2  0.20
      P1  H  7989  7998       L1    11  0.77
      P1  H  7997  8010       L1    15  0.50

> <Gold.Chemscore.Hbond.Weighted>
-6.1835

> <Gold.Chemscore.Metal.Weighted>
-0.0000

> <Gold.Chemscore.Lipo.Weighted>
-12.7362

> <Gold.Chemscore.Internal_Hbond.Weighted>
0.0000

> <Gold.Chemscore.DEClash.Weighted>
0.0318

> <Gold.Chemscore.DEInternal.Weighted>
2.9982

> <Gold.Chemscore.Rot.Weighted>
5.7467

> <Gold.Chemscore.Internal.Correction.Weighted>
   9.000000E+99

> <Gold.Protein.RotatedTorsions>
[ 6907 6896 6895 6894 ] final  -63.23 input  -60.11 | X-H torsion
[ 7974 7965 7964 7962 ] final  -65.46 input  175.53 | X-H torsion
[ 8008 7997 7996 7995 ] final   33.20 input   59.86 | X-H torsion
[ 10167 10162 10161 10158 ] final   -9.77 input  -65.29 | X-H torsion
[ 10718 10713 10712 10709 ] final   88.58 input   66.30 | X-H torsion
[ 10763 10752 10751 10750 ] final   28.56 input  -60.55 | X-H torsion
[ 11005 11000 10999 10996 ] final   94.55 input  -57.11 | X-H torsion

> <Gold.Protein.ActiveResidues>
 VAL166  LYS551  ARG553  GLY616  TRP617  ASP618  TYR619  PRO620  LYS621  CYS622 
 ASP623  PHE694  ASN695  SER759  ASP760  ASP761  ALA762  ILE779  LEU786  VAL792 
 PHE793  MET794  SER795  GLU796  ALA797  LYS798  CYS799  TRP800  GLU811  SER814 

> <Gold.Protein.RotatedAtoms>
  150.7663  134.6463  159.6263 H   0  0  0  0  0  0  0  0  0  0  0  0  # atno 6907 bound_to 6896
  152.3695  134.6751  160.0189 H   0  0  0  0  0  0  0  0  0  0  0  0  # atno 6908 bound_to 6896
  151.7116  133.3276  159.3328 H   0  0  0  0  0  0  0  0  0  0  0  0  # atno 6909 bound_to 6896
  145.7540  140.8894  143.0465 H   0  0  0  0  0  0  0  0  0  0  0  0  # atno 7974 bound_to 7965
  155.1347  140.3260  155.4466 H   0  0  0  0  0  0  0  0  0  0  0  0  # atno 8008 bound_to 7997
  156.2623  140.2004  156.6414 H   0  0  0  0  0  0  0  0  0  0  0  0  # atno 8009 bound_to 7997
  154.6586  140.0550  157.0024 H   0  0  0  0  0  0  0  0  0  0  0  0  # atno 8010 bound_to 7997
  140.7096  143.5821  150.8981 H   0  0  0  0  0  0  0  0  0  0  0  0  # atno 10167 bound_to 10162
  157.6950  131.0300  150.3296 H   0  0  0  0  0  0  0  0  0  0  0  0  # atno 10718 bound_to 10713
  153.0484  135.6510  154.0756 H   0  0  0  0  0  0  0  0  0  0  0  0  # atno 10763 bound_to 10752
  154.0449  135.2900  155.3351 H   0  0  0  0  0  0  0  0  0  0  0  0  # atno 10764 bound_to 10752
  154.6757  135.5339  153.8263 H   0  0  0  0  0  0  0  0  0  0  0  0  # atno 10765 bound_to 10752
  139.8797  134.8851  156.3880 H   0  0  0  0  0  0  0  0  0  0  0  0  # atno 11005 bound_to 11000
  144.6844  139.9631  143.7480 LP  0  0  0  0  0  0  0  0  0  0  0  0  # atno 17320 bound_to 7965
  146.0329  139.3351  143.0744 LP  0  0  0  0  0  0  0  0  0  0  0  0  # atno 17321 bound_to 7965
  139.9547  143.6232  152.3019 LP  0  0  0  0  0  0  0  0  0  0  0  0  # atno 17342 bound_to 10162
  139.6763  144.7658  151.1690 LP  0  0  0  0  0  0  0  0  0  0  0  0  # atno 17343 bound_to 10162
  156.3772  130.3874  149.7130 LP  0  0  0  0  0  0  0  0  0  0  0  0  # atno 17370 bound_to 10713
  156.4524  130.7913  151.2934 LP  0  0  0  0  0  0  0  0  0  0  0  0  # atno 17371 bound_to 10713
  140.9353  133.7551  156.0076 LP  0  0  0  0  0  0  0  0  0  0  0  0  # atno 17394 bound_to 11000
  140.8283  134.3208  157.5358 LP  0  0  0  0  0  0  0  0  0  0  0  0  # atno 17395 bound_to 11000

$$$$
