AV-unprocessed.smi:1459|AV-procd|sdf|5924|dock5
  -GOLD-   22720 6 03D 1   1.00000     0.00000
 Structure written by MMmdl.
 34 35  0  0  0  0  0  0  0  0  1 V2000
  149.1414  130.2526  154.9796 C   0  0  0  0  0  0  0  0  0  0  0  0
  149.4241  131.7115  155.0918 C   0  0  0  0  0  0  0  0  0  0  0  0
  149.3733  132.7407  154.1944 C   0  0  0  0  0  0  0  0  0  0  0  0
  149.7690  133.8623  154.9708 C   0  0  0  0  0  0  0  0  0  0  0  0
  149.8468  135.1560  154.3943 N   0  0  0  0  0  0  0  0  0  0  0  0
  150.6165  136.1845  154.7891 C   0  0  0  0  0  0  0  0  0  0  0  0
  151.3983  136.1596  155.7399 O   0  0  0  0  0  0  0  0  0  0  0  0
  150.4314  137.2570  154.0047 N   0  0  0  0  0  0  0  0  0  0  0  0
  151.1039  138.5482  154.1433 C   0  0  2  0  0  0  0  0  0  0  0  0
  152.5822  138.3014  154.4781 C   0  0  0  0  0  0  0  0  0  0  0  0
  150.4072  139.4072  155.2193 C   0  0  2  0  0  0  0  0  0  0  0  0
  148.9553  139.7803  154.9102 C   0  0  0  0  0  0  0  0  0  0  0  0
  148.7738  141.0247  155.7480 C   0  0  0  0  0  0  0  0  0  0  0  0
  150.1289  141.7057  155.5858 C   0  0  0  0  0  0  0  0  0  0  0  0
  151.0730  140.6595  155.3710 O   0  0  0  0  0  0  0  0  0  0  0  0
  150.0372  133.5461  156.2285 N   0  0  0  0  0  0  0  0  0  0  0  0
  149.8171  132.1662  156.3126 O   0  0  0  0  0  0  0  0  0  0  0  0
  148.7606  130.0042  153.9888 H   0  0  0  0  0  0  0  0  0  0  0  0
  148.3967  129.9452  155.7138 H   0  0  0  0  0  0  0  0  0  0  0  0
  150.0467  129.6697  155.1501 H   0  0  0  0  0  0  0  0  0  0  0  0
  149.0970  132.6949  153.1515 H   0  0  0  0  0  0  0  0  0  0  0  0
  149.2530  135.3153  153.5943 H   0  0  0  0  0  0  0  0  0  0  0  0
  149.7703  137.1764  153.2462 H   0  0  0  0  0  0  0  0  0  0  0  0
  151.0685  139.0886  153.1958 H   0  0  0  0  0  0  0  0  0  0  0  0
  153.1320  139.2399  154.5541 H   0  0  0  0  0  0  0  0  0  0  0  0
  153.0649  137.7030  153.7045 H   0  0  0  0  0  0  0  0  0  0  0  0
  152.6936  137.7740  155.4260 H   0  0  0  0  0  0  0  0  0  0  0  0
  150.4411  138.8984  156.1842 H   0  0  0  0  0  0  0  0  0  0  0  0
  148.8365  140.0237  153.8532 H   0  0  0  0  0  0  0  0  0  0  0  0
  148.2477  138.9894  155.1608 H   0  0  0  0  0  0  0  0  0  0  0  0
  147.9413  141.6473  155.4198 H   0  0  0  0  0  0  0  0  0  0  0  0
  148.6099  140.7535  156.7918 H   0  0  0  0  0  0  0  0  0  0  0  0
  150.1267  142.3530  154.7082 H   0  0  0  0  0  0  0  0  0  0  0  0
  150.3952  142.3110  156.4527 H   0  0  0  0  0  0  0  0  0  0  0  0
  1  2  1  0  0  0  0
  1 18  1  0  0  0  0
  1 19  1  0  0  0  0
  1 20  1  0  0  0  0
  2 17  1  0  0  0  0
  2  3  2  0  0  0  0
  3  4  1  0  0  0  0
  3 21  1  0  0  0  0
  4  5  1  0  0  0  0
  4 16  2  0  0  0  0
  5  6  1  0  0  0  0
  5 22  1  0  0  0  0
  6  7  2  0  0  0  0
  6  8  1  0  0  0  0
  8  9  1  0  0  0  0
  8 23  1  0  0  0  0
  9 10  1  0  0  0  0
  9 11  1  0  0  0  0
  9 24  1  0  0  0  0
 10 25  1  0  0  0  0
 10 26  1  0  0  0  0
 10 27  1  0  0  0  0
 11 15  1  0  0  0  0
 11 12  1  0  0  0  0
 11 28  1  0  0  0  0
 12 13  1  0  0  0  0
 12 29  1  0  0  0  0
 12 30  1  0  0  0  0
 13 14  1  0  0  0  0
 13 31  1  0  0  0  0
 13 32  1  0  0  0  0
 14 15  1  0  0  0  0
 14 33  1  0  0  0  0
 14 34  1  0  0  0  0
 16 17  1  0  0  0  0
M  END
> <s_m_source_file>
AV-unprocessed.smi

> <i_m_source_file_index>
1459

> <i_lp_mmshare_version>
43012

> <i_f3d_flags>
0

> <s_epik_input>
W0NIM11jMVtjSF1jKG5vMSlbTkhdQyg9TylbTkhdW0NASF0oW0NIM10pW0NAQEhdMltDSDJdW0NIMl1bQ0gyXU8y

> <s_epik_cmdline>
J2VwaWtfcHl0aG9uJywgJy1waCcsICc3LjAnLCAnLXRuJywgJzgnLCAnLW1hJywgJzIwMCcsICctbWV0YWxfYmluZGluZycsICctaW1hZScsICc8aW5maWxlLm1hZT4nLCAnLW9tYWUnLCAnPG91dGZpbGUubWFlPic=

> <r_lp_tautomer_probability>
1

> <r_epik_Ionization_Penalty>
2.20869e-05

> <r_epik_Ionization_Penalty_Charging>
0

> <r_epik_Ionization_Penalty_Neutral>
2.20869e-05

> <r_epik_State_Penalty>
-0

> <r_epik_Charging_Adjusted_Penalty>
0

> <i_epik_Tot_Q>
0

> <i_epik_Tot_abs_Q>
0

> <r_epik_Metal_State_Penalty>
-0

> <b_epik_Metal_Only>
0

> <s_lp_Force_Field>
OPLS_2005

> <r_lp_Energy>
15.5661

> <b_lp_Chiralities_Consistent>
1

> <s_lp_Variant>
AV-unprocessed.smi:1459-1

> <Gold.Version>
5.8.1

> <Gold.Id.Protein>
6NUR|6NUR_protein|mol2

> <Gold.PLP.Fitness>
39.5545

> <Gold.PLP.PLP>
-29.2123

> <Gold.PLP.part.hbond>
-5.4302

> <Gold.PLP.part.metal>
0.0000

> <Gold.PLP.part.buried>
-2.8922

> <Gold.PLP.part.nonpolar>
-20.0701

> <Gold.PLP.part.repulsive>
0.2311

> <Gold.PLP.ligand.clash>
0.0000

> <Gold.PLP.ligand.torsion>
0.4394

> <Gold.PLP.Chemscore.Hbond>
3.7376

> <Gold.PLP.Chemscore.CHOScore>
0.0000

> <Gold.PLP.Chemscore.Metal>
0.0000

> <Gold.Chemscore.Hbonds>
donor molecule, donor type, donor heavy atom, donor atom, acceptor molecule, acceptor atom, score
      L1  H     5    22       P1  7948  0.96
      L1  H     8    23       P1  7948  1.00
      P1  H  7989  7998       L1    15  0.78
      P1  H 10752 10765       L1     7  1.00

> <Gold.PLP.Chemscore.Internal.Correction>
0.0082

> <Gold.Rescore>
     Score         DG    S(hbond)    S(metal)    S(lipo)     H(rot)  DE(clash)    DE(int)     intcor
     13.02     -16.06       2.32        0.00      52.23       1.28       0.10       2.94       ----

> <Gold.Chemscore.Fitness>
13.0198

> <Gold.Chemscore.DG>
-16.0607

> <Gold.Chemscore.ZeroCoef>
-5.4800

> <Gold.Chemscore.Hbond>
2.3176

> <Gold.Chemscore.Metal>
0.0000

> <Gold.Chemscore.Lipo>
52.2264

> <Gold.Chemscore.Internal_Hbond>
0.0000

> <Gold.Chemscore.DEClash>
0.1042

> <Gold.Chemscore.DEInternal>
2.9368

> <Gold.Chemscore.Rot>
1.2776

> <Gold.Chemscore.Internal.Correction>
   9.000000E+99

> <Gold.Chemscore.Hbonds>
donor molecule, donor type, donor heavy atom, donor atom, acceptor molecule, acceptor atom, score
      L1  H     5    22       P1  7948  0.27
      L1  H     8    23       P1  7948  0.48
      P1  H  7989  7998       L1    15  0.07
      P1  H 10752 10765       L1     7  0.61

> <Gold.Chemscore.Hbond.Weighted>
-7.7409

> <Gold.Chemscore.Metal.Weighted>
-0.0000

> <Gold.Chemscore.Lipo.Weighted>
-6.1105

> <Gold.Chemscore.Internal_Hbond.Weighted>
0.0000

> <Gold.Chemscore.DEClash.Weighted>
0.1042

> <Gold.Chemscore.DEInternal.Weighted>
2.9368

> <Gold.Chemscore.Rot.Weighted>
3.2707

> <Gold.Chemscore.Internal.Correction.Weighted>
   9.000000E+99

> <Gold.Protein.RotatedTorsions>
[ 6907 6896 6895 6894 ] final   53.04 input  -60.11 | X-H torsion
[ 7974 7965 7964 7962 ] final -172.42 input  175.53 | X-H torsion
[ 8008 7997 7996 7995 ] final  141.65 input   59.86 | X-H torsion
[ 10167 10162 10161 10158 ] final   77.00 input  -65.29 | X-H torsion
[ 10718 10713 10712 10709 ] final  171.08 input   66.30 | X-H torsion
[ 10763 10752 10751 10750 ] final -147.25 input  -60.55 | X-H torsion
[ 11005 11000 10999 10996 ] final -171.84 input  -57.11 | X-H torsion

> <Gold.Protein.ActiveResidues>
 VAL166  LYS551  ARG553  GLY616  TRP617  ASP618  TYR619  PRO620  LYS621  CYS622 
 ASP623  PHE694  ASN695  SER759  ASP760  ASP761  ALA762  ILE779  LEU786  VAL792 
 PHE793  MET794  SER795  GLU796  ALA797  LYS798  CYS799  TRP800  GLU811  SER814 

> <Gold.Protein.RotatedAtoms>
  152.3296  134.7277  160.0292 H   0  0  0  0  0  0  0  0  0  0  0  0  # atno 6907 bound_to 6896
  151.7698  133.3335  159.3449 H   0  0  0  0  0  0  0  0  0  0  0  0  # atno 6908 bound_to 6896
  150.7415  134.5961  159.6057 H   0  0  0  0  0  0  0  0  0  0  0  0  # atno 6909 bound_to 6896
  144.7146  140.1774  143.6361 H   0  0  0  0  0  0  0  0  0  0  0  0  # atno 7974 bound_to 7965
  156.2962  140.2309  156.4599 H   0  0  0  0  0  0  0  0  0  0  0  0  # atno 8008 bound_to 7997
  154.8027  140.0447  157.1306 H   0  0  0  0  0  0  0  0  0  0  0  0  # atno 8009 bound_to 7997
  154.9514  140.3042  155.5076 H   0  0  0  0  0  0  0  0  0  0  0  0  # atno 8010 bound_to 7997
  139.9863  144.5790  150.7857 H   0  0  0  0  0  0  0  0  0  0  0  0  # atno 10167 bound_to 10162
  156.9988  131.0170  151.2836 H   0  0  0  0  0  0  0  0  0  0  0  0  # atno 10718 bound_to 10713
  154.8295  135.3365  154.6788 H   0  0  0  0  0  0  0  0  0  0  0  0  # atno 10763 bound_to 10752
  153.7410  135.6946  153.4971 H   0  0  0  0  0  0  0  0  0  0  0  0  # atno 10764 bound_to 10752
  153.2244  135.4438  155.0477 H   0  0  0  0  0  0  0  0  0  0  0  0  # atno 10765 bound_to 10752
  140.5038  134.5868  157.4996 H   0  0  0  0  0  0  0  0  0  0  0  0  # atno 11005 bound_to 11000
  145.8888  139.2364  143.1562 LP  0  0  0  0  0  0  0  0  0  0  0  0  # atno 17320 bound_to 7965
  145.9924  140.8591  143.0060 LP  0  0  0  0  0  0  0  0  0  0  0  0  # atno 17321 bound_to 7965
  140.7471  143.2901  151.3354 LP  0  0  0  0  0  0  0  0  0  0  0  0  # atno 17342 bound_to 10162
  139.6373  144.0606  152.2526 LP  0  0  0  0  0  0  0  0  0  0  0  0  # atno 17343 bound_to 10162
  157.5405  130.8117  149.8023 LP  0  0  0  0  0  0  0  0  0  0  0  0  # atno 17370 bound_to 10713
  156.0179  130.3806  150.2053 LP  0  0  0  0  0  0  0  0  0  0  0  0  # atno 17371 bound_to 10713
  139.9698  134.7312  156.0064 LP  0  0  0  0  0  0  0  0  0  0  0  0  # atno 17394 bound_to 11000
  141.1422  133.6562  156.3762 LP  0  0  0  0  0  0  0  0  0  0  0  0  # atno 17395 bound_to 11000

$$$$
