AV-unprocessed.smi:2819|AV-procd|sdf|10851|dock3
  -GOLD-   2272015293D 1   1.00000     0.00000
 Structure written by MMmdl.
 51 52  0  0  0  0  0  0  0  0  3 V2000
  145.9462  132.9993  150.7029 C   0  0  0  0  0  0  0  0  0  0  0  0
  144.7773  133.7068  151.2159 N   0  0  0  0  0  0  0  0  0  0  0  0
  143.5349  132.9844  151.4592 C   0  0  0  0  0  0  0  0  0  0  0  0
  144.8345  135.1027  151.4232 C   0  0  0  0  0  0  0  0  0  0  0  0
  145.9297  135.8827  150.9949 C   0  0  0  0  0  0  0  0  0  0  0  0
  145.8786  137.2635  151.2544 C   0  0  0  0  0  0  0  0  0  0  0  0
  144.8133  137.8040  151.8932 N   0  3  0  0  0  0  0  0  0  0  0  0
  143.7958  137.0193  152.2805 C   0  0  0  0  0  0  0  0  0  0  0  0
  142.7498  137.6394  152.9300 N   0  0  0  0  0  0  0  0  0  0  0  0
  141.7128  137.1148  153.6116 C   0  0  0  0  0  0  0  0  0  0  0  0
  141.4926  135.9123  153.7595 O   0  0  0  0  0  0  0  0  0  0  0  0
  140.9277  138.0751  154.1245 N   0  0  0  0  0  0  0  0  0  0  0  0
  139.7022  137.8509  154.8923 C   0  0  0  0  0  0  0  0  0  0  0  0
  138.4058  138.2966  154.1491 C   0  0  0  0  0  0  0  0  0  0  0  0
  138.5100  137.9777  152.6364 C   0  0  0  0  0  0  0  0  0  0  0  0
  137.1971  137.4830  154.6759 C   0  0  0  0  0  0  0  0  0  0  0  0
  138.1467  139.7708  154.3347 N   0  3  0  0  0  0  0  0  0  0  0  0
  139.2666  140.6795  153.9570 C   0  0  0  0  0  0  0  0  0  0  0  0
  138.9503  142.1290  154.3620 C   0  0  0  0  0  0  0  0  0  0  0  0
  137.7391  142.5433  153.7469 O   0  0  0  0  0  0  0  0  0  0  0  0
  136.6399  141.7485  154.1673 C   0  0  0  0  0  0  0  0  0  0  0  0
  136.8720  140.2847  153.7563 C   0  0  0  0  0  0  0  0  0  0  0  0
  143.7964  135.6959  152.0553 N   0  0  0  0  0  0  0  0  0  0  0  0
  146.2080  133.3622  149.7087 H   0  0  0  0  0  0  0  0  0  0  0  0
  145.7622  131.9273  150.6304 H   0  0  0  0  0  0  0  0  0  0  0  0
  146.8031  133.1452  151.3616 H   0  0  0  0  0  0  0  0  0  0  0  0
  142.7280  133.3937  150.8508 H   0  0  0  0  0  0  0  0  0  0  0  0
  143.2503  133.0525  152.5095 H   0  0  0  0  0  0  0  0  0  0  0  0
  143.6347  131.9279  151.2097 H   0  0  0  0  0  0  0  0  0  0  0  0
  146.7829  135.4607  150.4850 H   0  0  0  0  0  0  0  0  0  0  0  0
  146.6583  137.9553  150.9711 H   0  0  0  0  0  0  0  0  0  0  0  0
  142.7708  138.6474  152.8904 H   0  0  0  0  0  0  0  0  0  0  0  0
  141.1835  139.0378  153.9585 H   0  0  0  0  0  0  0  0  0  0  0  0
  139.6703  136.7822  155.1016 H   0  0  0  0  0  0  0  0  0  0  0  0
  139.7845  138.3392  155.8635 H   0  0  0  0  0  0  0  0  0  0  0  0
  138.4843  136.9047  152.4449 H   0  0  0  0  0  0  0  0  0  0  0  0
  139.4399  138.3406  152.1990 H   0  0  0  0  0  0  0  0  0  0  0  0
  137.6819  138.4178  152.0794 H   0  0  0  0  0  0  0  0  0  0  0  0
  137.2567  136.4348  154.3812 H   0  0  0  0  0  0  0  0  0  0  0  0
  136.2557  137.8708  154.2845 H   0  0  0  0  0  0  0  0  0  0  0  0
  137.1355  137.4874  155.7639 H   0  0  0  0  0  0  0  0  0  0  0  0
  140.1965  140.3947  154.4450 H   0  0  0  0  0  0  0  0  0  0  0  0
  139.4408  140.6392  152.8817 H   0  0  0  0  0  0  0  0  0  0  0  0
  138.8760  142.2252  155.4464 H   0  0  0  0  0  0  0  0  0  0  0  0
  139.7530  142.7919  154.0384 H   0  0  0  0  0  0  0  0  0  0  0  0
  136.5022  141.8342  155.2465 H   0  0  0  0  0  0  0  0  0  0  0  0
  135.7317  142.1298  153.7001 H   0  0  0  0  0  0  0  0  0  0  0  0
  136.8951  140.2174  152.6687 H   0  0  0  0  0  0  0  0  0  0  0  0
  136.0145  139.7074  154.0967 H   0  0  0  0  0  0  0  0  0  0  0  0
  144.7986  138.8085  152.0717 H   0  0  0  0  0  0  0  0  0  0  0  0
  138.0435  139.8842  155.3332 H   0  0  0  0  0  0  0  0  0  0  0  0
  1  2  1  0  0  0  0
  1 24  1  0  0  0  0
  1 25  1  0  0  0  0
  1 26  1  0  0  0  0
  2  3  1  0  0  0  0
  2  4  1  0  0  0  0
  3 27  1  0  0  0  0
  3 28  1  0  0  0  0
  3 29  1  0  0  0  0
  4 23  1  0  0  0  0
  4  5  2  0  0  0  0
  5  6  1  0  0  0  0
  5 30  1  0  0  0  0
  6  7  2  0  0  0  0
  6 31  1  0  0  0  0
  7  8  1  0  0  0  0
  7 50  1  0  0  0  0
  8  9  1  0  0  0  0
  8 23  2  0  0  0  0
  9 10  1  0  0  0  0
  9 32  1  0  0  0  0
 10 11  2  0  0  0  0
 10 12  1  0  0  0  0
 12 13  1  0  0  0  0
 12 33  1  0  0  0  0
 13 14  1  0  0  0  0
 13 34  1  0  0  0  0
 13 35  1  0  0  0  0
 14 15  1  0  0  0  0
 14 16  1  0  0  0  0
 14 17  1  0  0  0  0
 15 36  1  0  0  0  0
 15 37  1  0  0  0  0
 15 38  1  0  0  0  0
 16 39  1  0  0  0  0
 16 40  1  0  0  0  0
 16 41  1  0  0  0  0
 17 22  1  0  0  0  0
 17 18  1  0  0  0  0
 17 51  1  0  0  0  0
 18 19  1  0  0  0  0
 18 42  1  0  0  0  0
 18 43  1  0  0  0  0
 19 20  1  0  0  0  0
 19 44  1  0  0  0  0
 19 45  1  0  0  0  0
 20 21  1  0  0  0  0
 21 22  1  0  0  0  0
 21 46  1  0  0  0  0
 21 47  1  0  0  0  0
 22 48  1  0  0  0  0
 22 49  1  0  0  0  0
M  CHG  1   7   1
M  CHG  1  17   1
M  END
> <s_m_source_file>
AV-unprocessed.smi

> <i_m_source_file_index>
2819

> <i_lp_mmshare_version>
43012

> <i_f3d_flags>
0

> <s_epik_input>
W0NIM11OKFtDSDNdKWMxW2NIXVtjSF1uYyhuMSlbTkhdQyg9TylbTkhdW0NIMl1DKFtDSDNdKShbQ0gzXSlOMltDSDJdW0NIMl1PW0NIMl1bQ0gyXTI=

> <s_epik_cmdline>
J2VwaWtfcHl0aG9uJywgJy1waCcsICc3LjAnLCAnLXRuJywgJzgnLCAnLW1hJywgJzIwMCcsICctbWV0YWxfYmluZGluZycsICctaW1hZScsICc8aW5maWxlLm1hZT4nLCAnLW9tYWUnLCAnPG91dGZpbGUubWFlPic=

> <r_lp_tautomer_probability>
0.999336

> <r_epik_Ionization_Penalty>
0.713728

> <r_epik_Ionization_Penalty_Charging>
0.713701

> <r_epik_Ionization_Penalty_Neutral>
2.70516e-05

> <r_epik_State_Penalty>
0.725459

> <r_epik_Charging_Adjusted_Penalty>
1.43916

> <i_epik_Tot_Q>
2

> <i_epik_Tot_abs_Q>
2

> <r_epik_Metal_State_Penalty>
1.06371

> <b_epik_Metal_Only>
0

> <s_lp_Force_Field>
OPLS_2005

> <r_lp_Energy>
33.0145

> <b_lp_Chiralities_Consistent>
1

> <s_lp_Variant>
AV-unprocessed.smi:2819-2

> <Gold.Version>
5.8.1

> <Gold.Id.Protein>
6NUR|6NUR_protein|mol2

> <Gold.PLP.Fitness>
39.9996

> <Gold.PLP.PLP>
-32.3887

> <Gold.PLP.part.hbond>
-2.6180

> <Gold.PLP.part.metal>
0.0000

> <Gold.PLP.part.buried>
-0.9465

> <Gold.PLP.part.nonpolar>
-28.6875

> <Gold.PLP.part.repulsive>
0.3658

> <Gold.PLP.ligand.clash>
0.0000

> <Gold.PLP.ligand.torsion>
0.5443

> <Gold.PLP.Chemscore.Hbond>
2.8560

> <Gold.PLP.Chemscore.CHOScore>
0.0000

> <Gold.PLP.Chemscore.Metal>
0.0000

> <Gold.Chemscore.Hbonds>
donor molecule, donor type, donor heavy atom, donor atom, acceptor molecule, acceptor atom, score
      L1  H     7    50       P1 10175  1.86
      L1  H     9    32       P1 10175  1.00

> <Gold.PLP.Chemscore.Internal.Correction>
0.1314

> <Gold.Rescore>
     Score         DG    S(hbond)    S(metal)    S(lipo)     H(rot)  DE(clash)    DE(int)     intcor
     12.55     -15.52       1.74        0.00      70.56       1.57       1.11       1.86       ----

> <Gold.Chemscore.Fitness>
12.5515

> <Gold.Chemscore.DG>
-15.5238

> <Gold.Chemscore.ZeroCoef>
-5.4800

> <Gold.Chemscore.Hbond>
1.7398

> <Gold.Chemscore.Metal>
0.0000

> <Gold.Chemscore.Lipo>
70.5595

> <Gold.Chemscore.Internal_Hbond>
0.0000

> <Gold.Chemscore.DEClash>
1.1078

> <Gold.Chemscore.DEInternal>
1.8645

> <Gold.Chemscore.Rot>
1.5713

> <Gold.Chemscore.Internal.Correction>
   9.000000E+99

> <Gold.Chemscore.Hbonds>
donor molecule, donor type, donor heavy atom, donor atom, acceptor molecule, acceptor atom, score
      L1  H     7    50       P1 10175  0.85
      L1  H     9    32       P1 10175  0.93

> <Gold.Chemscore.Hbond.Weighted>
-5.8108

> <Gold.Chemscore.Metal.Weighted>
-0.0000

> <Gold.Chemscore.Lipo.Weighted>
-8.2555

> <Gold.Chemscore.Internal_Hbond.Weighted>
0.0000

> <Gold.Chemscore.DEClash.Weighted>
1.1078

> <Gold.Chemscore.DEInternal.Weighted>
1.8645

> <Gold.Chemscore.Rot.Weighted>
4.0225

> <Gold.Chemscore.Internal.Correction.Weighted>
   9.000000E+99

> <Gold.Protein.RotatedTorsions>
[ 6907 6896 6895 6894 ] final  174.28 input  -60.11 | X-H torsion
[ 7974 7965 7964 7962 ] final -133.80 input  175.53 | X-H torsion
[ 8008 7997 7996 7995 ] final   23.18 input   59.86 | X-H torsion
[ 10167 10162 10161 10158 ] final   41.95 input  -65.29 | X-H torsion
[ 10718 10713 10712 10709 ] final   44.44 input   66.30 | X-H torsion
[ 10763 10752 10751 10750 ] final   21.19 input  -60.55 | X-H torsion
[ 11005 11000 10999 10996 ] final  157.31 input  -57.11 | X-H torsion

> <Gold.Protein.ActiveResidues>
 VAL166  LYS551  ARG553  GLY616  TRP617  ASP618  TYR619  PRO620  LYS621  CYS622 
 ASP623  PHE694  ASN695  SER759  ASP760  ASP761  ALA762  ILE779  LEU786  VAL792 
 PHE793  MET794  SER795  GLU796  ALA797  LYS798  CYS799  TRP800  GLU811  SER814 

> <Gold.Protein.RotatedAtoms>
  151.7548  133.3329  159.3401 H   0  0  0  0  0  0  0  0  0  0  0  0  # atno 6907 bound_to 6896
  150.7521  134.6159  159.6120 H   0  0  0  0  0  0  0  0  0  0  0  0  # atno 6908 bound_to 6896
  152.3444  134.7092  160.0306 H   0  0  0  0  0  0  0  0  0  0  0  0  # atno 6909 bound_to 6896
  144.9160  140.6955  143.4995 H   0  0  0  0  0  0  0  0  0  0  0  0  # atno 7974 bound_to 7965
  154.9771  140.3097  155.4962 H   0  0  0  0  0  0  0  0  0  0  0  0  # atno 8008 bound_to 7997
  156.2958  140.2273  156.4806 H   0  0  0  0  0  0  0  0  0  0  0  0  # atno 8009 bound_to 7997
  154.7824  140.0445  157.1125 H   0  0  0  0  0  0  0  0  0  0  0  0  # atno 8010 bound_to 7997
  140.3592  144.2250  150.6139 H   0  0  0  0  0  0  0  0  0  0  0  0  # atno 10167 bound_to 10162
  157.4268  130.8001  149.7566 H   0  0  0  0  0  0  0  0  0  0  0  0  # atno 10718 bound_to 10713
  153.1016  135.6674  153.9663 H   0  0  0  0  0  0  0  0  0  0  0  0  # atno 10763 bound_to 10752
  153.9232  135.3012  155.3448 H   0  0  0  0  0  0  0  0  0  0  0  0  # atno 10764 bound_to 10752
  154.7436  135.5068  153.9241 H   0  0  0  0  0  0  0  0  0  0  0  0  # atno 10765 bound_to 10752
  140.1757  134.8511  157.2744 H   0  0  0  0  0  0  0  0  0  0  0  0  # atno 11005 bound_to 11000
  145.3375  139.1741  143.4503 LP  0  0  0  0  0  0  0  0  0  0  0  0  # atno 17320 bound_to 7965
  146.3182  140.3412  142.8648 LP  0  0  0  0  0  0  0  0  0  0  0  0  # atno 17321 bound_to 7965
  140.5143  143.2282  151.8487 LP  0  0  0  0  0  0  0  0  0  0  0  0  # atno 17342 bound_to 10162
  139.4816  144.4912  151.9182 LP  0  0  0  0  0  0  0  0  0  0  0  0  # atno 17343 bound_to 10162
  155.9899  130.3948  150.3051 LP  0  0  0  0  0  0  0  0  0  0  0  0  # atno 17370 bound_to 10713
  157.1205  131.0245  151.3011 LP  0  0  0  0  0  0  0  0  0  0  0  0  # atno 17371 bound_to 10713
  140.2325  134.3892  155.7515 LP  0  0  0  0  0  0  0  0  0  0  0  0  # atno 17394 bound_to 11000
  141.2220  133.7222  156.8663 LP  0  0  0  0  0  0  0  0  0  0  0  0  # atno 17395 bound_to 11000

$$$$
