AV-unprocessed.smi:826|AV-procd|sdf|3854|dock4
  -GOLD-   22720 1303D 1   1.00000     0.00000
 Structure written by MMmdl.
 38 39  0  0  0  0  0  0  0  0  2 V2000
  152.5709  143.6153  161.4099 C   0  0  0  0  0  0  0  0  0  0  0  0
  152.6795  142.4062  160.5455 C   0  0  0  0  0  0  0  0  0  0  0  0
  151.6420  141.9000  159.8745 N   0  0  0  0  0  0  0  0  0  0  0  0
  151.9916  140.7732  159.1443 N   0  0  0  0  0  0  0  0  0  0  0  0
  153.2817  140.4362  159.2825 C   0  0  0  0  0  0  0  0  0  0  0  0
  153.8206  139.3760  158.6580 N   0  5  0  0  0  0  0  0  0  0  0  0
  153.0492  138.5917  157.8714 C   0  0  0  0  0  0  0  0  0  0  0  0
  152.8461  137.3840  158.0192 O   0  0  0  0  0  0  0  0  0  0  0  0
  152.4788  139.2455  156.8478 N   0  0  0  0  0  0  0  0  0  0  0  0
  151.5959  138.6599  155.8396 C   0  0  2  0  0  0  0  0  0  0  0  0
  152.3446  138.6523  154.4962 C   0  0  0  0  0  0  0  0  0  0  0  0
  150.3254  139.5099  155.6815 C   0  0  0  0  0  0  0  0  0  0  0  0
  150.4006  140.7025  155.3803 O   0  0  0  0  0  0  0  0  0  0  0  0
  149.1607  138.8744  155.8793 N   0  0  0  0  0  0  0  0  0  0  0  0
  147.8428  139.4967  155.7978 C   0  0  0  0  0  0  0  0  0  0  0  0
  147.4029  139.7123  154.3344 C   0  0  0  0  0  0  0  0  0  0  0  0
  146.9242  141.1622  154.2460 C   0  0  0  0  0  0  0  0  0  0  0  0
  147.7529  141.8938  155.2967 C   0  0  0  0  0  0  0  0  0  0  0  0
  147.8611  140.8927  156.4476 C   0  0  0  0  0  0  0  0  0  0  0  0
  154.1842  141.5275  160.3333 S   0  0  0  0  0  0  0  0  0  0  0  0
  152.3166  143.3215  162.4282 H   0  0  0  0  0  0  0  0  0  0  0  0
  151.7971  144.2851  161.0333 H   0  0  0  0  0  0  0  0  0  0  0  0
  153.5191  144.1528  161.4255 H   0  0  0  0  0  0  0  0  0  0  0  0
  152.6652  140.2343  156.7696 H   0  0  0  0  0  0  0  0  0  0  0  0
  151.3393  137.6356  156.1178 H   0  0  0  0  0  0  0  0  0  0  0  0
  151.7286  138.2284  153.7019 H   0  0  0  0  0  0  0  0  0  0  0  0
  153.2508  138.0490  154.5606 H   0  0  0  0  0  0  0  0  0  0  0  0
  152.6407  139.6566  154.1888 H   0  0  0  0  0  0  0  0  0  0  0  0
  149.1915  137.8962  156.1271 H   0  0  0  0  0  0  0  0  0  0  0  0
  147.1165  138.8737  156.3227 H   0  0  0  0  0  0  0  0  0  0  0  0
  148.2469  139.5772  153.6554 H   0  0  0  0  0  0  0  0  0  0  0  0
  146.6302  139.0062  154.0287 H   0  0  0  0  0  0  0  0  0  0  0  0
  147.0429  141.5830  153.2472 H   0  0  0  0  0  0  0  0  0  0  0  0
  145.8670  141.2179  154.5087 H   0  0  0  0  0  0  0  0  0  0  0  0
  148.7461  142.1057  154.8982 H   0  0  0  0  0  0  0  0  0  0  0  0
  147.3059  142.8400  155.6029 H   0  0  0  0  0  0  0  0  0  0  0  0
  146.9895  140.9977  157.0950 H   0  0  0  0  0  0  0  0  0  0  0  0
  148.7412  141.0730  157.0663 H   0  0  0  0  0  0  0  0  0  0  0  0
  1  2  1  0  0  0  0
  1 21  1  0  0  0  0
  1 22  1  0  0  0  0
  1 23  1  0  0  0  0
  2 20  1  0  0  0  0
  2  3  2  0  0  0  0
  3  4  1  0  0  0  0
  4  5  2  0  0  0  0
  5  6  1  0  0  0  0
  5 20  1  0  0  0  0
  6  7  1  0  0  0  0
  7  8  2  0  0  0  0
  7  9  1  0  0  0  0
  9 10  1  0  0  0  0
  9 24  1  0  0  0  0
 10 11  1  0  0  0  0
 10 12  1  0  0  0  0
 10 25  1  0  0  0  0
 11 26  1  0  0  0  0
 11 27  1  0  0  0  0
 11 28  1  0  0  0  0
 12 13  2  0  0  0  0
 12 14  1  0  0  0  0
 14 15  1  0  0  0  0
 14 29  1  0  0  0  0
 15 19  1  0  0  0  0
 15 16  1  0  0  0  0
 15 30  1  0  0  0  0
 16 17  1  0  0  0  0
 16 31  1  0  0  0  0
 16 32  1  0  0  0  0
 17 18  1  0  0  0  0
 17 33  1  0  0  0  0
 17 34  1  0  0  0  0
 18 19  1  0  0  0  0
 18 35  1  0  0  0  0
 18 36  1  0  0  0  0
 19 37  1  0  0  0  0
 19 38  1  0  0  0  0
M  CHG  1   6  -1
M  END
> <s_m_source_file>
AV-unprocessed.smi

> <i_m_source_file_index>
826

> <i_lp_mmshare_version>
43012

> <i_f3d_flags>
0

> <s_epik_input>
W0NIM11jMW5uYyhzMSlbTkhdQyg9TylbTkhdW0NASF0oW0NIM10pQyg9TylbTkhdW0NIXTJbQ0gyXVtDSDJdW0NIMl1bQ0gyXTI=

> <s_epik_cmdline>
J2VwaWtfcHl0aG9uJywgJy1waCcsICc3LjAnLCAnLXRuJywgJzgnLCAnLW1hJywgJzIwMCcsICctbWV0YWxfYmluZGluZycsICctaW1hZScsICc8aW5maWxlLm1hZT4nLCAnLW9tYWUnLCAnPG91dGZpbGUubWFlPic=

> <r_lp_tautomer_probability>
1

> <r_epik_Ionization_Penalty>
3.15008

> <r_epik_Ionization_Penalty_Charging>
3.01509

> <r_epik_Ionization_Penalty_Neutral>
0.134987

> <r_epik_State_Penalty>
3.01143

> <r_epik_Charging_Adjusted_Penalty>
6.02652

> <i_epik_Tot_Q>
-1

> <i_epik_Tot_abs_Q>
1

> <r_epik_Metal_State_Penalty>
0.454645

> <b_epik_Metal_Only>
1

> <s_lp_Force_Field>
OPLS_2005

> <r_lp_Energy>
15.3268

> <b_lp_Chiralities_Consistent>
1

> <s_lp_Variant>
AV-unprocessed.smi:826-3

> <Gold.Version>
5.8.1

> <Gold.Id.Protein>
6NUR|6NUR_protein|mol2

> <Gold.PLP.Fitness>
39.9096

> <Gold.PLP.PLP>
-32.6447

> <Gold.PLP.part.hbond>
-2.3450

> <Gold.PLP.part.metal>
0.0000

> <Gold.PLP.part.buried>
-5.8363

> <Gold.PLP.part.nonpolar>
-25.2370

> <Gold.PLP.part.repulsive>
0.3668

> <Gold.PLP.ligand.clash>
0.0000

> <Gold.PLP.ligand.torsion>
0.9049

> <Gold.PLP.Chemscore.Hbond>
3.0000

> <Gold.PLP.Chemscore.CHOScore>
0.0000

> <Gold.PLP.Chemscore.Metal>
0.0000

> <Gold.Chemscore.Hbonds>
donor molecule, donor type, donor heavy atom, donor atom, acceptor molecule, acceptor atom, score
      P1  H  7989  7998       L1    13  0.40
      P1  H  7997  8008       L1     6  1.80

> <Gold.PLP.Chemscore.Internal.Correction>
0.0748

> <Gold.Rescore>
     Score         DG    S(hbond)    S(metal)    S(lipo)     H(rot)  DE(clash)    DE(int)     intcor
     11.77     -14.11       1.53        0.00      65.50       1.62       0.07       2.28       ----

> <Gold.Chemscore.Fitness>
11.7679

> <Gold.Chemscore.DG>
-14.1082

> <Gold.Chemscore.ZeroCoef>
-5.4800

> <Gold.Chemscore.Hbond>
1.5306

> <Gold.Chemscore.Metal>
0.0000

> <Gold.Chemscore.Lipo>
65.4990

> <Gold.Chemscore.Internal_Hbond>
0.0000

> <Gold.Chemscore.DEClash>
0.0650

> <Gold.Chemscore.DEInternal>
2.2753

> <Gold.Chemscore.Rot>
1.6201

> <Gold.Chemscore.Internal.Correction>
   9.000000E+99

> <Gold.Chemscore.Hbonds>
donor molecule, donor type, donor heavy atom, donor atom, acceptor molecule, acceptor atom, score
      P1  H  7989  7998       L1    13  0.28
      P1  H  7997  8008       L1     6  0.11

> <Gold.Chemscore.Hbond.Weighted>
-5.1123

> <Gold.Chemscore.Metal.Weighted>
-0.0000

> <Gold.Chemscore.Lipo.Weighted>
-7.6634

> <Gold.Chemscore.Internal_Hbond.Weighted>
0.0000

> <Gold.Chemscore.DEClash.Weighted>
0.0650

> <Gold.Chemscore.DEInternal.Weighted>
2.2753

> <Gold.Chemscore.Rot.Weighted>
4.1475

> <Gold.Chemscore.Internal.Correction.Weighted>
   9.000000E+99

> <Gold.Protein.RotatedTorsions>
[ 6907 6896 6895 6894 ] final -176.00 input  -60.11 | X-H torsion
[ 7974 7965 7964 7962 ] final  136.35 input  175.53 | X-H torsion
[ 8008 7997 7996 7995 ] final -116.25 input   59.86 | X-H torsion
[ 10167 10162 10161 10158 ] final -139.29 input  -65.29 | X-H torsion
[ 10718 10713 10712 10709 ] final  -92.60 input   66.30 | X-H torsion
[ 10763 10752 10751 10750 ] final  -22.03 input  -60.55 | X-H torsion
[ 11005 11000 10999 10996 ] final  144.94 input  -57.11 | X-H torsion

> <Gold.Protein.ActiveResidues>
 VAL166  LYS551  ARG553  GLY616  TRP617  ASP618  TYR619  PRO620  LYS621  CYS622 
 ASP623  PHE694  ASN695  SER759  ASP760  ASP761  ALA762  ILE779  LEU786  VAL792 
 PHE793  MET794  SER795  GLU796  ALA797  LYS798  CYS799  TRP800  GLU811  SER814 

> <Gold.Protein.RotatedAtoms>
  151.5978  133.3359  159.3040 H   0  0  0  0  0  0  0  0  0  0  0  0  # atno 6907 bound_to 6896
  150.8225  134.7442  159.6795 H   0  0  0  0  0  0  0  0  0  0  0  0  # atno 6908 bound_to 6896
  152.4317  134.5771  159.9989 H   0  0  0  0  0  0  0  0  0  0  0  0  # atno 6909 bound_to 6896
  144.9574  139.4749  143.5496 H   0  0  0  0  0  0  0  0  0  0  0  0  # atno 7974 bound_to 7965
  155.0649  140.0393  157.2589 H   0  0  0  0  0  0  0  0  0  0  0  0  # atno 8008 bound_to 7997
  154.7029  140.2677  155.6678 H   0  0  0  0  0  0  0  0  0  0  0  0  # atno 8009 bound_to 7997
  156.2766  140.2737  156.1646 H   0  0  0  0  0  0  0  0  0  0  0  0  # atno 8010 bound_to 7997
  139.8394  143.7342  152.2664 H   0  0  0  0  0  0  0  0  0  0  0  0  # atno 10167 bound_to 10162
  156.0004  130.4994  150.5651 H   0  0  0  0  0  0  0  0  0  0  0  0  # atno 10718 bound_to 10713
  153.6455  135.6983  153.5227 H   0  0  0  0  0  0  0  0  0  0  0  0  # atno 10763 bound_to 10752
  153.2748  135.4203  155.1022 H   0  0  0  0  0  0  0  0  0  0  0  0  # atno 10764 bound_to 10752
  154.8489  135.3587  154.5999 H   0  0  0  0  0  0  0  0  0  0  0  0  # atno 10765 bound_to 10752
  140.0672  134.9172  157.1284 H   0  0  0  0  0  0  0  0  0  0  0  0  # atno 11005 bound_to 11000
  146.3342  139.8700  142.8841 LP  0  0  0  0  0  0  0  0  0  0  0  0  # atno 17320 bound_to 7965
  145.2752  141.0121  143.3749 LP  0  0  0  0  0  0  0  0  0  0  0  0  # atno 17321 bound_to 7965
  139.7574  144.7516  151.0414 LP  0  0  0  0  0  0  0  0  0  0  0  0  # atno 17342 bound_to 10162
  140.7799  143.4789  151.0044 LP  0  0  0  0  0  0  0  0  0  0  0  0  # atno 17343 bound_to 10162
  157.3554  131.0741  151.1679 LP  0  0  0  0  0  0  0  0  0  0  0  0  # atno 17370 bound_to 10713
  157.2482  130.6601  149.5919 LP  0  0  0  0  0  0  0  0  0  0  0  0  # atno 17371 bound_to 10713
  140.3681  134.2420  155.7180 LP  0  0  0  0  0  0  0  0  0  0  0  0  # atno 17394 bound_to 11000
  141.1997  133.8004  157.0522 LP  0  0  0  0  0  0  0  0  0  0  0  0  # atno 17395 bound_to 11000

$$$$
