AV-unprocessed.smi:2339|AV-procd|sdf|9338|dock10
  -GOLD-   2272012563D 1   1.00000     0.00000
 Structure written by MMmdl.
 49 52  0  0  0  0  0  0  0  0  1 V2000
  148.4081  131.3510  161.0187 C   0  0  0  0  0  0  0  0  0  0  0  0
  147.6840  132.3631  160.1238 C   0  0  0  0  0  0  0  0  0  0  0  0
  147.7007  133.7007  160.6979 N   0  0  0  0  0  0  0  0  0  0  0  0
  147.1261  133.9661  161.9366 C   0  0  0  0  0  0  0  0  0  0  0  0
  147.0495  135.1939  162.4857 C   0  0  0  0  0  0  0  0  0  0  0  0
  147.5985  136.3510  161.7503 C   0  0  0  0  0  0  0  0  0  0  0  0
  147.5440  137.4878  162.2203 O   0  0  0  0  0  0  0  0  0  0  0  0
  148.2118  136.0670  160.4264 C   0  0  0  0  0  0  0  0  0  0  0  0
  148.7454  137.1705  159.7432 N   0  0  0  0  0  0  0  0  0  0  0  0
  149.9513  137.3191  159.1580 C   0  0  0  0  0  0  0  0  0  0  0  0
  150.8264  136.4585  159.0984 O   0  0  0  0  0  0  0  0  0  0  0  0
  150.1291  138.5260  158.5941 N   0  0  0  0  0  0  0  0  0  0  0  0
  151.3220  139.0093  157.8797 C   0  0  2  0  0  0  0  0  0  0  0  0
  151.4937  140.5328  157.8981 C   0  0  2  0  0  0  0  0  0  0  0  0
  150.9956  141.6494  158.7436 C   0  0  0  0  0  0  0  0  0  0  0  0
  150.6764  142.6409  157.5936 C   0  0  0  0  0  0  0  0  0  0  0  0
  150.8038  141.8809  156.3652 O   0  0  0  0  0  0  0  0  0  0  0  0
  150.5091  140.5512  156.7480 C   0  0  1  0  0  0  0  0  0  0  0  0
  151.1197  139.1936  156.3264 C   0  0  0  0  0  0  0  0  0  0  0  0
  152.3773  139.2410  155.4349 C   0  0  0  0  0  0  0  0  0  0  0  0
  152.2197  138.2003  154.3261 C   0  0  0  0  0  0  0  0  0  0  0  0
  150.7147  138.0298  154.1823 C   0  0  0  0  0  0  0  0  0  0  0  0
  150.1928  138.2055  155.6054 C   0  0  0  0  0  0  0  0  0  0  0  0
  148.2245  134.7813  159.9915 C   0  0  0  0  0  0  0  0  0  0  0  0
  148.3974  130.3588  160.5677 H   0  0  0  0  0  0  0  0  0  0  0  0
  147.9332  131.2784  161.9974 H   0  0  0  0  0  0  0  0  0  0  0  0
  149.4498  131.6349  161.1709 H   0  0  0  0  0  0  0  0  0  0  0  0
  148.1506  132.3867  159.1383 H   0  0  0  0  0  0  0  0  0  0  0  0
  146.6527  132.0460  159.9655 H   0  0  0  0  0  0  0  0  0  0  0  0
  146.7396  133.0941  162.4443 H   0  0  0  0  0  0  0  0  0  0  0  0
  146.5955  135.3520  163.4529 H   0  0  0  0  0  0  0  0  0  0  0  0
  148.1176  137.9582  159.6688 H   0  0  0  0  0  0  0  0  0  0  0  0
  149.3461  139.1627  158.6280 H   0  0  0  0  0  0  0  0  0  0  0  0
  152.2334  138.4622  158.1262 H   0  0  0  0  0  0  0  0  0  0  0  0
  152.5137  140.7627  157.5734 H   0  0  0  0  0  0  0  0  0  0  0  0
  150.1018  141.3769  159.3061 H   0  0  0  0  0  0  0  0  0  0  0  0
  151.7509  142.0295  159.4320 H   0  0  0  0  0  0  0  0  0  0  0  0
  149.6645  143.0360  157.6918 H   0  0  0  0  0  0  0  0  0  0  0  0
  151.3687  143.4831  157.5764 H   0  0  0  0  0  0  0  0  0  0  0  0
  149.4604  140.4658  157.0510 H   0  0  0  0  0  0  0  0  0  0  0  0
  152.4787  140.2284  154.9826 H   0  0  0  0  0  0  0  0  0  0  0  0
  153.2934  139.0622  155.9988 H   0  0  0  0  0  0  0  0  0  0  0  0
  152.7018  138.4987  153.3949 H   0  0  0  0  0  0  0  0  0  0  0  0
  152.6642  137.2563  154.6447 H   0  0  0  0  0  0  0  0  0  0  0  0
  150.3152  138.8187  153.5435 H   0  0  0  0  0  0  0  0  0  0  0  0
  150.4367  137.0702  153.7453 H   0  0  0  0  0  0  0  0  0  0  0  0
  150.2144  137.2389  156.1102 H   0  0  0  0  0  0  0  0  0  0  0  0
  149.1533  138.5351  155.6027 H   0  0  0  0  0  0  0  0  0  0  0  0
  148.6655  134.4817  159.0545 H   0  0  0  0  0  0  0  0  0  0  0  0
  1  2  1  0  0  0  0
  1 25  1  0  0  0  0
  1 26  1  0  0  0  0
  1 27  1  0  0  0  0
  2  3  1  0  0  0  0
  2 28  1  0  0  0  0
  2 29  1  0  0  0  0
  3 24  1  0  0  0  0
  3  4  1  0  0  0  0
  4  5  2  0  0  0  0
  4 30  1  0  0  0  0
  5  6  1  0  0  0  0
  5 31  1  0  0  0  0
  6  7  2  0  0  0  0
  6  8  1  0  0  0  0
  8  9  1  0  0  0  0
  8 24  2  0  0  0  0
  9 10  1  0  0  0  0
  9 32  1  0  0  0  0
 10 11  2  0  0  0  0
 10 12  1  0  0  0  0
 12 13  1  0  0  0  0
 12 33  1  0  0  0  0
 13 19  1  0  0  0  0
 13 14  1  0  0  0  0
 13 34  1  0  0  0  0
 14 18  1  0  0  0  0
 14 15  1  0  0  0  0
 14 35  1  0  0  0  0
 15 16  1  0  0  0  0
 15 36  1  0  0  0  0
 15 37  1  0  0  0  0
 16 17  1  0  0  0  0
 16 38  1  0  0  0  0
 16 39  1  0  0  0  0
 17 18  1  0  0  0  0
 18 19  1  0  0  0  0
 18 40  1  0  0  0  0
 19 23  1  0  0  0  0
 19 20  1  0  0  0  0
 20 21  1  0  0  0  0
 20 41  1  0  0  0  0
 20 42  1  0  0  0  0
 21 22  1  0  0  0  0
 21 43  1  0  0  0  0
 21 44  1  0  0  0  0
 22 23  1  0  0  0  0
 22 45  1  0  0  0  0
 22 46  1  0  0  0  0
 23 47  1  0  0  0  0
 23 48  1  0  0  0  0
 24 49  1  0  0  0  0
M  END
> <s_m_source_file>
AV-unprocessed.smi

> <i_m_source_file_index>
2339

> <i_lp_mmshare_version>
43012

> <i_f3d_flags>
0

> <s_epik_input>
W0NIM11bQ0gyXW4xW2NIXVtjSF1jKD1PKWMoW2NIXTEpW05IXUMoPU8pW05IXVtDQEBIXTJbQ0BASF0oW0NIMl1bQ0gyXU8zKVtDQEBIXTNDMjRbQ0gyXVtDSDJdW0NIMl1bQ0gyXTQ=

> <s_epik_cmdline>
J2VwaWtfcHl0aG9uJywgJy1waCcsICc3LjAnLCAnLXRuJywgJzgnLCAnLW1hJywgJzIwMCcsICctbWV0YWxfYmluZGluZycsICctaW1hZScsICc8aW5maWxlLm1hZT4nLCAnLW9tYWUnLCAnPG91dGZpbGUubWFlPic=

> <r_lp_tautomer_probability>
1

> <r_epik_Ionization_Penalty>
0.00145966

> <r_epik_Ionization_Penalty_Charging>
0.00143969

> <r_epik_Ionization_Penalty_Neutral>
1.99697e-05

> <r_epik_State_Penalty>
0.000961843

> <r_epik_Charging_Adjusted_Penalty>
0.00240153

> <i_epik_Tot_Q>
0

> <i_epik_Tot_abs_Q>
0

> <r_epik_Metal_State_Penalty>
-0

> <b_epik_Metal_Only>
0

> <s_lp_Force_Field>
OPLS_2005

> <r_lp_Energy>
81.9731

> <b_lp_Chiralities_Consistent>
1

> <s_lp_Variant>
AV-unprocessed.smi:2339-3

> <Gold.Version>
5.8.1

> <Gold.Id.Protein>
6NUR|6NUR_protein|mol2

> <Gold.PLP.Fitness>
48.2991

> <Gold.PLP.PLP>
-42.5792

> <Gold.PLP.part.hbond>
-2.9178

> <Gold.PLP.part.metal>
0.0000

> <Gold.PLP.part.buried>
-5.2203

> <Gold.PLP.part.nonpolar>
-36.3482

> <Gold.PLP.part.repulsive>
0.8858

> <Gold.PLP.ligand.clash>
0.0000

> <Gold.PLP.ligand.torsion>
0.6500

> <Gold.PLP.Chemscore.Hbond>
2.2480

> <Gold.PLP.Chemscore.CHOScore>
0.0000

> <Gold.PLP.Chemscore.Metal>
0.0000

> <Gold.Chemscore.Hbonds>
donor molecule, donor type, donor heavy atom, donor atom, acceptor molecule, acceptor atom, score
      P1  H  6896  6908       L1    11  1.00
      P1  H  6931  6943       L1     7  0.75
      P1  H  6934  6947       L1     7  0.51

> <Gold.PLP.Chemscore.Internal.Correction>
0.2759

> <Gold.Rescore>
     Score         DG    S(hbond)    S(metal)    S(lipo)     H(rot)  DE(clash)    DE(int)     intcor
     20.07     -22.09       2.53        0.00      95.29       1.17       1.29       0.74       ----

> <Gold.Chemscore.Fitness>
20.0717

> <Gold.Chemscore.DG>
-22.0932

> <Gold.Chemscore.ZeroCoef>
-5.4800

> <Gold.Chemscore.Hbond>
2.5306

> <Gold.Chemscore.Metal>
0.0000

> <Gold.Chemscore.Lipo>
95.2858

> <Gold.Chemscore.Internal_Hbond>
0.0000

> <Gold.Chemscore.DEClash>
1.2852

> <Gold.Chemscore.DEInternal>
0.7362

> <Gold.Chemscore.Rot>
1.1670

> <Gold.Chemscore.Internal.Correction>
   9.000000E+99

> <Gold.Chemscore.Hbonds>
donor molecule, donor type, donor heavy atom, donor atom, acceptor molecule, acceptor atom, score
      P1  H  6896  6908       L1    11  0.95
      P1  H  6931  6943       L1     7  0.53
      P1  H  6934  6947       L1     7  0.46

> <Gold.Chemscore.Hbond.Weighted>
-8.4522

> <Gold.Chemscore.Metal.Weighted>
-0.0000

> <Gold.Chemscore.Lipo.Weighted>
-11.1484

> <Gold.Chemscore.Internal_Hbond.Weighted>
0.0000

> <Gold.Chemscore.DEClash.Weighted>
1.2852

> <Gold.Chemscore.DEInternal.Weighted>
0.7362

> <Gold.Chemscore.Rot.Weighted>
2.9874

> <Gold.Chemscore.Internal.Correction.Weighted>
   9.000000E+99

> <Gold.Protein.RotatedTorsions>
[ 6907 6896 6895 6894 ] final -159.15 input  -60.11 | X-H torsion
[ 7974 7965 7964 7962 ] final  179.71 input  175.53 | X-H torsion
[ 8008 7997 7996 7995 ] final  -56.98 input   59.86 | X-H torsion
[ 10167 10162 10161 10158 ] final -120.63 input  -65.29 | X-H torsion
[ 10718 10713 10712 10709 ] final   49.72 input   66.30 | X-H torsion
[ 10763 10752 10751 10750 ] final  -93.88 input  -60.55 | X-H torsion
[ 11005 11000 10999 10996 ] final  167.41 input  -57.11 | X-H torsion

> <Gold.Protein.ActiveResidues>
 VAL166  LYS551  ARG553  GLY616  TRP617  ASP618  TYR619  PRO620  LYS621  CYS622 
 ASP623  PHE694  ASN695  SER759  ASP760  ASP761  ALA762  ILE779  LEU786  VAL792 
 PHE793  MET794  SER795  GLU796  ALA797  LYS798  CYS799  TRP800  GLU811  SER814 

> <Gold.Protein.RotatedAtoms>
  151.3292  133.4008  159.2660 H   0  0  0  0  0  0  0  0  0  0  0  0  # atno 6907 bound_to 6896
  150.9970  134.9292  159.7942 H   0  0  0  0  0  0  0  0  0  0  0  0  # atno 6908 bound_to 6896
  152.5264  134.3257  159.9217 H   0  0  0  0  0  0  0  0  0  0  0  0  # atno 6909 bound_to 6896
  144.7143  140.0589  143.6433 H   0  0  0  0  0  0  0  0  0  0  0  0  # atno 7974 bound_to 7965
  154.4250  140.1117  156.5725 H   0  0  0  0  0  0  0  0  0  0  0  0  # atno 8008 bound_to 7997
  155.6197  140.3495  155.4629 H   0  0  0  0  0  0  0  0  0  0  0  0  # atno 8009 bound_to 7997
  156.0034  140.1204  157.0515 H   0  0  0  0  0  0  0  0  0  0  0  0  # atno 8010 bound_to 7997
  140.0338  143.5222  152.2163 H   0  0  0  0  0  0  0  0  0  0  0  0  # atno 10167 bound_to 10162
  157.4814  130.8318  149.8098 H   0  0  0  0  0  0  0  0  0  0  0  0  # atno 10718 bound_to 10713
  154.7001  135.5178  153.8515 H   0  0  0  0  0  0  0  0  0  0  0  0  # atno 10763 bound_to 10752
  153.0697  135.6597  154.0283 H   0  0  0  0  0  0  0  0  0  0  0  0  # atno 10764 bound_to 10752
  154.0143  135.2999  155.3368 H   0  0  0  0  0  0  0  0  0  0  0  0  # atno 10765 bound_to 10752
  140.2765  134.7785  157.3721 H   0  0  0  0  0  0  0  0  0  0  0  0  # atno 11005 bound_to 11000
  145.9881  139.2993  143.1001 LP  0  0  0  0  0  0  0  0  0  0  0  0  # atno 17320 bound_to 7965
  145.8934  140.9289  143.0540 LP  0  0  0  0  0  0  0  0  0  0  0  0  # atno 17321 bound_to 7965
  139.6059  144.7596  151.3064 LP  0  0  0  0  0  0  0  0  0  0  0  0  # atno 17342 bound_to 10162
  140.7290  143.6919  150.7915 LP  0  0  0  0  0  0  0  0  0  0  0  0  # atno 17343 bound_to 10162
  156.0124  130.3828  150.2222 LP  0  0  0  0  0  0  0  0  0  0  0  0  # atno 17370 bound_to 10713
  157.0408  131.0034  151.3284 LP  0  0  0  0  0  0  0  0  0  0  0  0  # atno 17371 bound_to 10713
  140.1323  134.5079  155.8095 LP  0  0  0  0  0  0  0  0  0  0  0  0  # atno 17394 bound_to 11000
  141.2169  133.6794  156.7062 LP  0  0  0  0  0  0  0  0  0  0  0  0  # atno 17395 bound_to 11000

$$$$
