AV-unprocessed.smi:998|AV-procd|sdf|4350|dock3
  -GOLD-   22720 2253D 1   1.00000     0.00000
 Structure written by MMmdl.
 45 47  0  0  0  0  0  0  0  0  2 V2000
  143.2412  133.7634  151.9315 C   0  0  0  0  0  0  0  0  0  0  0  0
  144.9471  134.3776  151.6203 S   0  0  0  0  0  0  0  0  0  0  0  0
  145.7572  134.1089  152.8181 O   0  0  0  0  0  0  0  0  0  0  0  0
  145.3862  133.8696  150.3118 O   0  0  0  0  0  0  0  0  0  0  0  0
  144.7617  136.1018  151.4835 N   0  0  0  0  0  0  0  0  0  0  0  0
  145.7052  136.8862  150.6660 C   0  0  0  0  0  0  0  0  0  0  0  0
  146.7763  137.5670  151.5385 C   0  0  0  0  0  0  0  0  0  0  0  0
  146.1702  138.3264  152.6299 N   0  0  0  0  0  0  0  0  0  0  0  0
  146.9698  139.2736  153.3084 C   0  0  0  0  0  0  0  0  0  0  0  0
  148.2725  139.0051  153.7991 C   0  0  0  0  0  0  0  0  0  0  0  0
  148.9983  140.0199  154.4563 C   0  0  0  0  0  0  0  0  0  0  0  0
  148.4310  141.3012  154.6157 C   0  0  0  0  0  0  0  0  0  0  0  0
  149.2009  142.2861  155.2939 N   0  0  0  0  0  0  0  0  0  0  0  0
  150.2703  142.1169  156.0916 C   0  0  0  0  0  0  0  0  0  0  0  0
  150.7712  141.0329  156.3892 O   0  0  0  0  0  0  0  0  0  0  0  0
  150.7248  143.2931  156.5453 N   0  0  0  0  0  0  0  0  0  0  0  0
  151.8334  143.4675  157.4276 C   0  0  0  0  0  0  0  0  0  0  0  0
  151.5637  143.3981  158.9153 C   0  0  0  0  0  0  0  0  0  0  0  0
  151.8697  144.7226  158.2723 C   0  0  0  0  0  0  0  0  0  0  0  0
  147.1244  141.5177  154.1172 C   0  0  0  0  0  0  0  0  0  0  0  0
  146.4644  140.5168  153.4957 N   0  3  0  0  0  0  0  0  0  0  0  0
  145.2415  137.5493  153.4517 C   0  0  0  0  0  0  0  0  0  0  0  0
  144.1617  136.8728  152.5878 C   0  0  0  0  0  0  0  0  0  0  0  0
  143.2697  132.6790  152.0369 H   0  0  0  0  0  0  0  0  0  0  0  0
  142.5955  134.0179  151.0928 H   0  0  0  0  0  0  0  0  0  0  0  0
  142.8513  134.1958  152.8512 H   0  0  0  0  0  0  0  0  0  0  0  0
  146.1724  136.2544  149.9110 H   0  0  0  0  0  0  0  0  0  0  0  0
  145.1399  137.6458  150.1245 H   0  0  0  0  0  0  0  0  0  0  0  0
  147.4643  136.8302  151.9517 H   0  0  0  0  0  0  0  0  0  0  0  0
  147.3597  138.2298  150.8991 H   0  0  0  0  0  0  0  0  0  0  0  0
  148.7310  138.0335  153.6937 H   0  0  0  0  0  0  0  0  0  0  0  0
  149.9893  139.8111  154.8328 H   0  0  0  0  0  0  0  0  0  0  0  0
  148.8725  143.2355  155.1945 H   0  0  0  0  0  0  0  0  0  0  0  0
  150.2482  144.1325  156.2501 H   0  0  0  0  0  0  0  0  0  0  0  0
  152.7991  143.0842  157.1001 H   0  0  0  0  0  0  0  0  0  0  0  0
  150.5397  143.2241  159.2410 H   0  0  0  0  0  0  0  0  0  0  0  0
  152.3335  142.9550  159.5441 H   0  0  0  0  0  0  0  0  0  0  0  0
  152.8440  145.1647  158.4711 H   0  0  0  0  0  0  0  0  0  0  0  0
  151.0500  145.4314  158.1691 H   0  0  0  0  0  0  0  0  0  0  0  0
  146.5710  142.4413  154.1933 H   0  0  0  0  0  0  0  0  0  0  0  0
  145.8077  136.8048  154.0101 H   0  0  0  0  0  0  0  0  0  0  0  0
  144.7421  138.1755  154.1906 H   0  0  0  0  0  0  0  0  0  0  0  0
  143.5067  137.6334  152.1606 H   0  0  0  0  0  0  0  0  0  0  0  0
  143.5295  136.2311  153.2009 H   0  0  0  0  0  0  0  0  0  0  0  0
  145.5270  140.7121  153.1436 H   0  0  0  0  0  0  0  0  0  0  0  0
  1  2  1  0  0  0  0
  1 24  1  0  0  0  0
  1 25  1  0  0  0  0
  1 26  1  0  0  0  0
  2  3  2  0  0  0  0
  2  4  2  0  0  0  0
  2  5  1  0  0  0  0
  5 23  1  0  0  0  0
  5  6  1  0  0  0  0
  6  7  1  0  0  0  0
  6 27  1  0  0  0  0
  6 28  1  0  0  0  0
  7  8  1  0  0  0  0
  7 29  1  0  0  0  0
  7 30  1  0  0  0  0
  8  9  1  0  0  0  0
  8 22  1  0  0  0  0
  9 21  1  0  0  0  0
  9 10  2  0  0  0  0
 10 11  1  0  0  0  0
 10 31  1  0  0  0  0
 11 12  2  0  0  0  0
 11 32  1  0  0  0  0
 12 13  1  0  0  0  0
 12 20  1  0  0  0  0
 13 14  1  0  0  0  0
 13 33  1  0  0  0  0
 14 15  2  0  0  0  0
 14 16  1  0  0  0  0
 16 17  1  0  0  0  0
 16 34  1  0  0  0  0
 17 19  1  0  0  0  0
 17 18  1  0  0  0  0
 17 35  1  0  0  0  0
 18 19  1  0  0  0  0
 18 36  1  0  0  0  0
 18 37  1  0  0  0  0
 19 38  1  0  0  0  0
 19 39  1  0  0  0  0
 20 21  2  0  0  0  0
 20 40  1  0  0  0  0
 21 45  1  0  0  0  0
 22 23  1  0  0  0  0
 22 41  1  0  0  0  0
 22 42  1  0  0  0  0
 23 43  1  0  0  0  0
 23 44  1  0  0  0  0
M  CHG  1  21   1
M  END
> <s_m_source_file>
AV-unprocessed.smi

> <i_m_source_file_index>
998

> <i_lp_mmshare_version>
43012

> <i_f3d_flags>
0

> <s_epik_input>
W0NIM11TKD1PKSg9TylOMVtDSDJdW0NIMl1OKFtDSDJdW0NIMl0xKWMyW2NIXVtjSF1jKFtjSF1uMilbTkhdQyg9TylbTkhdW0NIXTNbQ0gyXVtDSDJdMw==

> <s_epik_cmdline>
J2VwaWtfcHl0aG9uJywgJy1waCcsICc3LjAnLCAnLXRuJywgJzgnLCAnLW1hJywgJzIwMCcsICctbWV0YWxfYmluZGluZycsICctaW1hZScsICc8aW5maWxlLm1hZT4nLCAnLW9tYWUnLCAnPG91dGZpbGUubWFlPic=

> <r_lp_tautomer_probability>
0.999994

> <r_epik_Ionization_Penalty>
1.4485

> <r_epik_Ionization_Penalty_Charging>
1.44848

> <r_epik_Ionization_Penalty_Neutral>
2.21562e-05

> <r_epik_State_Penalty>
1.53448

> <r_epik_Charging_Adjusted_Penalty>
2.98296

> <i_epik_Tot_Q>
1

> <i_epik_Tot_abs_Q>
1

> <r_epik_Metal_State_Penalty>
1.58455

> <b_epik_Metal_Only>
0

> <s_lp_Force_Field>
OPLS_2005

> <r_lp_Energy>
37.0823

> <b_lp_Chiralities_Consistent>
1

> <s_lp_Variant>
AV-unprocessed.smi:998-2

> <Gold.Version>
5.8.1

> <Gold.Id.Protein>
6NUR|6NUR_protein|mol2

> <Gold.PLP.Fitness>
45.6375

> <Gold.PLP.PLP>
-35.5269

> <Gold.PLP.part.hbond>
-2.9220

> <Gold.PLP.part.metal>
0.0000

> <Gold.PLP.part.buried>
3.3401

> <Gold.PLP.part.nonpolar>
-37.6975

> <Gold.PLP.part.repulsive>
1.5239

> <Gold.PLP.ligand.clash>
0.0000

> <Gold.PLP.ligand.torsion>
2.0481

> <Gold.PLP.Chemscore.Hbond>
3.8960

> <Gold.PLP.Chemscore.CHOScore>
0.0000

> <Gold.PLP.Chemscore.Metal>
0.0000

> <Gold.Chemscore.Hbonds>
donor molecule, donor type, donor heavy atom, donor atom, acceptor molecule, acceptor atom, score
      L1  H    13    33       P1  8028  1.00
      L1  H    16    34       P1  8028  0.93
      L1  H    21    45       P1 10175  2.00

> <Gold.PLP.Chemscore.Internal.Correction>
2.5188

> <Gold.Rescore>
     Score         DG    S(hbond)    S(metal)    S(lipo)     H(rot)  DE(clash)    DE(int)     intcor
     15.81     -22.04       2.87        0.00      87.04       1.25       2.85       3.38       ----

> <Gold.Chemscore.Fitness>
15.8082

> <Gold.Chemscore.DG>
-22.0431

> <Gold.Chemscore.ZeroCoef>
-5.4800

> <Gold.Chemscore.Hbond>
2.8664

> <Gold.Chemscore.Metal>
0.0000

> <Gold.Chemscore.Lipo>
87.0427

> <Gold.Chemscore.Internal_Hbond>
0.0000

> <Gold.Chemscore.DEClash>
2.8527

> <Gold.Chemscore.DEInternal>
3.3822

> <Gold.Chemscore.Rot>
1.2479

> <Gold.Chemscore.Internal.Correction>
   9.000000E+99

> <Gold.Chemscore.Hbonds>
donor molecule, donor type, donor heavy atom, donor atom, acceptor molecule, acceptor atom, score
      L1  H    13    33       P1  8028  0.90
      L1  H    16    34       P1  8028  0.89
      L1  H    21    45       P1 10175  0.73

> <Gold.Chemscore.Hbond.Weighted>
-9.5736

> <Gold.Chemscore.Metal.Weighted>
-0.0000

> <Gold.Chemscore.Lipo.Weighted>
-10.1840

> <Gold.Chemscore.Internal_Hbond.Weighted>
0.0000

> <Gold.Chemscore.DEClash.Weighted>
2.8527

> <Gold.Chemscore.DEInternal.Weighted>
3.3822

> <Gold.Chemscore.Rot.Weighted>
3.1945

> <Gold.Chemscore.Internal.Correction.Weighted>
   9.000000E+99

> <Gold.Protein.RotatedTorsions>
[ 6907 6896 6895 6894 ] final  -55.78 input  -60.11 | X-H torsion
[ 7974 7965 7964 7962 ] final   34.71 input  175.53 | X-H torsion
[ 8008 7997 7996 7995 ] final  119.93 input   59.86 | X-H torsion
[ 10167 10162 10161 10158 ] final   61.27 input  -65.29 | X-H torsion
[ 10718 10713 10712 10709 ] final -137.70 input   66.30 | X-H torsion
[ 10763 10752 10751 10750 ] final -141.87 input  -60.55 | X-H torsion
[ 11005 11000 10999 10996 ] final   29.17 input  -57.11 | X-H torsion

> <Gold.Protein.ActiveResidues>
 VAL166  LYS551  ARG553  GLY616  TRP617  ASP618  TYR619  PRO620  LYS621  CYS622 
 ASP623  PHE694  ASN695  SER759  ASP760  ASP761  ALA762  ILE779  LEU786  VAL792 
 PHE793  MET794  SER795  GLU796  ALA797  LYS798  CYS799  TRP800  GLU811  SER814 

> <Gold.Protein.RotatedAtoms>
  150.8223  134.7437  159.6782 H   0  0  0  0  0  0  0  0  0  0  0  0  # atno 6907 bound_to 6896
  152.4337  134.5724  159.9935 H   0  0  0  0  0  0  0  0  0  0  0  0  # atno 6908 bound_to 6896
  151.5905  133.3329  159.3062 H   0  0  0  0  0  0  0  0  0  0  0  0  # atno 6909 bound_to 6896
  146.1334  139.6234  142.9211 H   0  0  0  0  0  0  0  0  0  0  0  0  # atno 7974 bound_to 7965
  156.2619  140.2842  156.1070 H   0  0  0  0  0  0  0  0  0  0  0  0  # atno 8008 bound_to 7997
  155.1298  140.0393  157.2789 H   0  0  0  0  0  0  0  0  0  0  0  0  # atno 8009 bound_to 7997
  154.6608  140.2566  155.7117 H   0  0  0  0  0  0  0  0  0  0  0  0  # atno 8010 bound_to 7997
  140.1566  144.4411  150.6731 H   0  0  0  0  0  0  0  0  0  0  0  0  # atno 10167 bound_to 10162
  156.2911  130.7375  151.1401 H   0  0  0  0  0  0  0  0  0  0  0  0  # atno 10718 bound_to 10713
  154.8530  135.3512  154.5937 H   0  0  0  0  0  0  0  0  0  0  0  0  # atno 10763 bound_to 10752
  153.6546  135.6992  153.5202 H   0  0  0  0  0  0  0  0  0  0  0  0  # atno 10764 bound_to 10752
  153.2866  135.4247  155.1086 H   0  0  0  0  0  0  0  0  0  0  0  0  # atno 10765 bound_to 10752
  140.3078  134.2684  155.7740 H   0  0  0  0  0  0  0  0  0  0  0  0  # atno 11005 bound_to 11000
  145.5211  141.0432  143.2435 LP  0  0  0  0  0  0  0  0  0  0  0  0  # atno 17320 bound_to 7965
  144.7714  139.6727  143.7193 LP  0  0  0  0  0  0  0  0  0  0  0  0  # atno 17321 bound_to 7965
  140.6669  143.2271  151.5720 LP  0  0  0  0  0  0  0  0  0  0  0  0  # atno 17342 bound_to 10162
  139.5401  144.2672  152.1332 LP  0  0  0  0  0  0  0  0  0  0  0  0  # atno 17343 bound_to 10162
  157.7342  131.0583  150.5534 LP  0  0  0  0  0  0  0  0  0  0  0  0  # atno 17370 bound_to 10713
  156.5650  130.4265  149.6045 LP  0  0  0  0  0  0  0  0  0  0  0  0  # atno 17371 bound_to 10713
  141.2115  133.7688  156.9862 LP  0  0  0  0  0  0  0  0  0  0  0  0  # atno 17394 bound_to 11000
  140.1052  134.9511  157.1983 LP  0  0  0  0  0  0  0  0  0  0  0  0  # atno 17395 bound_to 11000

$$$$
