AV-unprocessed.smi:2706|AV-procd|sdf|10455|dock7
  -GOLD-   2272014493D 1   1.00000     0.00000
 Structure written by MMmdl.
 43 46  0  0  0  0  0  0  0  0  1 V2000
  155.5338  140.2480  162.8967 C   0  0  0  0  0  0  0  0  0  0  0  0
  154.7543  140.0980  161.6797 N   0  0  0  0  0  0  0  0  0  0  0  0
  154.7073  138.7594  161.1164 C   0  0  0  0  0  0  0  0  0  0  0  0
  153.8796  141.0829  161.2623 C   0  0  0  0  0  0  0  0  0  0  0  0
  153.7467  142.2035  161.9971 C   0  0  0  0  0  0  0  0  0  0  0  0
  152.8311  143.2381  161.5632 C   0  0  0  0  0  0  0  0  0  0  0  0
  152.1078  143.0983  160.4335 C   0  0  0  0  0  0  0  0  0  0  0  0
  152.2225  141.9046  159.6130 C   0  0  0  0  0  0  0  0  0  0  0  0
  151.5125  141.7958  158.5272 N   0  0  0  0  0  0  0  0  0  0  0  0
  151.5718  140.6828  157.6952 C   0  0  0  0  0  0  0  0  0  0  0  0
  152.5253  140.2598  157.0347 O   0  0  0  0  0  0  0  0  0  0  0  0
  150.3824  140.0654  157.6861 N   0  0  0  0  0  0  0  0  0  0  0  0
  150.0437  138.8873  156.9540 C   0  0  2  0  0  0  0  0  0  0  0  0
  150.0278  138.8822  155.4360 C   0  0  2  0  0  0  0  0  0  0  0  0
  149.7266  139.9975  154.4280 C   0  0  2  0  0  0  0  0  0  0  0  0
  149.6113  141.3919  155.0764 C   0  0  0  0  0  0  0  0  0  0  0  0
  148.2895  141.2804  155.8672 C   0  0  0  0  0  0  0  0  0  0  0  0
  147.8398  139.8385  155.5569 C   0  0  1  0  0  0  0  0  0  0  0  0
  148.2635  139.7253  154.0968 C   0  0  0  0  0  0  0  0  0  0  0  0
  148.7210  138.7721  156.2180 C   0  0  2  0  0  0  0  0  0  0  0  0
  153.1301  140.9427  160.0954 N   0  0  0  0  0  0  0  0  0  0  0  0
  155.7249  141.3011  163.1058 H   0  0  0  0  0  0  0  0  0  0  0  0
  156.4954  139.7417  162.8072 H   0  0  0  0  0  0  0  0  0  0  0  0
  154.9963  139.8225  163.7444 H   0  0  0  0  0  0  0  0  0  0  0  0
  154.3268  138.7833  160.0947 H   0  0  0  0  0  0  0  0  0  0  0  0
  154.0522  138.1223  161.7108 H   0  0  0  0  0  0  0  0  0  0  0  0
  155.7010  138.3111  161.0961 H   0  0  0  0  0  0  0  0  0  0  0  0
  154.3164  142.3365  162.9057 H   0  0  0  0  0  0  0  0  0  0  0  0
  152.7261  144.1359  162.1543 H   0  0  0  0  0  0  0  0  0  0  0  0
  151.4416  143.9041  160.1613 H   0  0  0  0  0  0  0  0  0  0  0  0
  149.6469  140.4667  158.2502 H   0  0  0  0  0  0  0  0  0  0  0  0
  150.3878  137.9543  157.3977 H   0  0  0  0  0  0  0  0  0  0  0  0
  150.3757  137.9634  154.9673 H   0  0  0  0  0  0  0  0  0  0  0  0
  150.3991  139.9640  153.5704 H   0  0  0  0  0  0  0  0  0  0  0  0
  150.4746  141.6541  155.6864 H   0  0  0  0  0  0  0  0  0  0  0  0
  149.5230  142.1607  154.3079 H   0  0  0  0  0  0  0  0  0  0  0  0
  148.3903  141.4783  156.9334 H   0  0  0  0  0  0  0  0  0  0  0  0
  147.5619  141.9954  155.4811 H   0  0  0  0  0  0  0  0  0  0  0  0
  146.7794  139.6589  155.7361 H   0  0  0  0  0  0  0  0  0  0  0  0
  147.8105  140.4751  153.4452 H   0  0  0  0  0  0  0  0  0  0  0  0
  148.0934  138.7338  153.6729 H   0  0  0  0  0  0  0  0  0  0  0  0
  148.2618  137.7852  156.2322 H   0  0  0  0  0  0  0  0  0  0  0  0
  153.2734  140.0813  159.5881 H   0  0  0  0  0  0  0  0  0  0  0  0
  1  2  1  0  0  0  0
  1 22  1  0  0  0  0
  1 23  1  0  0  0  0
  1 24  1  0  0  0  0
  2  3  1  0  0  0  0
  2  4  1  0  0  0  0
  3 25  1  0  0  0  0
  3 26  1  0  0  0  0
  3 27  1  0  0  0  0
  4 21  1  0  0  0  0
  4  5  2  0  0  0  0
  5  6  1  0  0  0  0
  5 28  1  0  0  0  0
  6  7  2  0  0  0  0
  6 29  1  0  0  0  0
  7  8  1  0  0  0  0
  7 30  1  0  0  0  0
  8  9  2  0  0  0  0
  8 21  1  0  0  0  0
  9 10  1  0  0  0  0
 10 11  2  0  0  0  0
 10 12  1  0  0  0  0
 12 13  1  0  0  0  0
 12 31  1  0  0  0  0
 13 20  1  0  0  0  0
 13 14  1  0  0  0  0
 13 32  1  0  0  0  0
 14 20  1  0  0  0  0
 14 15  1  0  0  0  0
 14 33  1  0  0  0  0
 15 19  1  0  0  0  0
 15 16  1  0  0  0  0
 15 34  1  0  0  0  0
 16 17  1  0  0  0  0
 16 35  1  0  0  0  0
 16 36  1  0  0  0  0
 17 18  1  0  0  0  0
 17 37  1  0  0  0  0
 17 38  1  0  0  0  0
 18 19  1  0  0  0  0
 18 20  1  0  0  0  0
 18 39  1  0  0  0  0
 19 40  1  0  0  0  0
 19 41  1  0  0  0  0
 20 42  1  0  0  0  0
 21 43  1  0  0  0  0
M  END
> <s_m_source_file>
AV-unprocessed.smi

> <i_m_source_file_index>
2706

> <i_lp_mmshare_version>
43012

> <i_f3d_flags>
0

> <s_epik_input>
W0NIM11OKFtDSDNdKWMxW2NIXVtjSF1bY0hdYyhuMSlbTkhdQyg9TylbTkhdW0NASF0yW0NAQEhdM1tDQEBIXShbQ0gyXTQpW0NIMl1bQ0gyXVtDQEBIXTRbQ0BIXTIz

> <s_epik_cmdline>
J2VwaWtfcHl0aG9uJywgJy1waCcsICc3LjAnLCAnLXRuJywgJzgnLCAnLW1hJywgJzIwMCcsICctbWV0YWxfYmluZGluZycsICctaW1hZScsICc8aW5maWxlLm1hZT4nLCAnLW9tYWUnLCAnPG91dGZpbGUubWFlPic=

> <r_lp_tautomer_probability>
0.999994

> <r_epik_Ionization_Penalty>
2.07242

> <r_epik_Ionization_Penalty_Charging>
2.07242

> <r_epik_Ionization_Penalty_Neutral>
9.73808e-07

> <r_epik_State_Penalty>
3.96009

> <r_epik_Charging_Adjusted_Penalty>
6.03251

> <i_epik_Tot_Q>
0

> <i_epik_Tot_abs_Q>
0

> <r_epik_Metal_State_Penalty>
3.98849

> <b_epik_Metal_Only>
1

> <s_lp_Force_Field>
OPLS_2005

> <r_lp_Energy>
108.692

> <b_lp_Chiralities_Consistent>
1

> <s_lp_Variant>
AV-unprocessed.smi:2706-12

> <Gold.Version>
5.8.1

> <Gold.Id.Protein>
6NUR|6NUR_protein|mol2

> <Gold.PLP.Fitness>
36.5567

> <Gold.PLP.PLP>
-34.9513

> <Gold.PLP.part.hbond>
-1.0000

> <Gold.PLP.part.metal>
0.0000

> <Gold.PLP.part.buried>
-0.0767

> <Gold.PLP.part.nonpolar>
-30.9147

> <Gold.PLP.part.repulsive>
0.1893

> <Gold.PLP.ligand.clash>
0.0000

> <Gold.PLP.ligand.torsion>
0.7817

> <Gold.PLP.Chemscore.Hbond>
1.0000

> <Gold.PLP.Chemscore.CHOScore>
0.0000

> <Gold.PLP.Chemscore.Metal>
0.0000

> <Gold.Chemscore.Hbonds>
donor molecule, donor type, donor heavy atom, donor atom, acceptor molecule, acceptor atom, score
      P1  H  7997  8009       L1    11  1.00

> <Gold.PLP.Chemscore.Internal.Correction>
0.1688

> <Gold.Rescore>
     Score         DG    S(hbond)    S(metal)    S(lipo)     H(rot)  DE(clash)    DE(int)     intcor
     15.04     -15.96       0.98        0.00      83.64       1.00       0.11       0.81       ----

> <Gold.Chemscore.Fitness>
15.0420

> <Gold.Chemscore.DG>
-15.9640

> <Gold.Chemscore.ZeroCoef>
-5.4800

> <Gold.Chemscore.Hbond>
0.9753

> <Gold.Chemscore.Metal>
0.0000

> <Gold.Chemscore.Lipo>
83.6446

> <Gold.Chemscore.Internal_Hbond>
0.0000

> <Gold.Chemscore.DEClash>
0.1107

> <Gold.Chemscore.DEInternal>
0.8113

> <Gold.Chemscore.Rot>
1.0000

> <Gold.Chemscore.Internal.Correction>
   9.000000E+99

> <Gold.Chemscore.Hbonds>
donor molecule, donor type, donor heavy atom, donor atom, acceptor molecule, acceptor atom, score
      P1  H  7997  8009       L1    11  0.94

> <Gold.Chemscore.Hbond.Weighted>
-3.2576

> <Gold.Chemscore.Metal.Weighted>
-0.0000

> <Gold.Chemscore.Lipo.Weighted>
-9.7864

> <Gold.Chemscore.Internal_Hbond.Weighted>
0.0000

> <Gold.Chemscore.DEClash.Weighted>
0.1107

> <Gold.Chemscore.DEInternal.Weighted>
0.8113

> <Gold.Chemscore.Rot.Weighted>
2.5600

> <Gold.Chemscore.Internal.Correction.Weighted>
   9.000000E+99

> <Gold.Protein.RotatedTorsions>
[ 6907 6896 6895 6894 ] final  -40.45 input  -60.11 | X-H torsion
[ 7974 7965 7964 7962 ] final  -18.54 input  175.53 | X-H torsion
[ 8008 7997 7996 7995 ] final  177.92 input   59.86 | X-H torsion
[ 10167 10162 10161 10158 ] final   66.41 input  -65.29 | X-H torsion
[ 10718 10713 10712 10709 ] final -114.68 input   66.30 | X-H torsion
[ 10763 10752 10751 10750 ] final -159.62 input  -60.55 | X-H torsion
[ 11005 11000 10999 10996 ] final   36.96 input  -57.11 | X-H torsion

> <Gold.Protein.ActiveResidues>
 VAL166  LYS551  ARG553  GLY616  TRP617  ASP618  TYR619  PRO620  LYS621  CYS622 
 ASP623  PHE694  ASN695  SER759  ASP760  ASP761  ALA762  ILE779  LEU786  VAL792 
 PHE793  MET794  SER795  GLU796  ALA797  LYS798  CYS799  TRP800  GLU811  SER814 

> <Gold.Protein.RotatedAtoms>
  150.9783  134.9143  159.7829 H   0  0  0  0  0  0  0  0  0  0  0  0  # atno 6907 bound_to 6896
  152.5213  134.3445  159.9239 H   0  0  0  0  0  0  0  0  0  0  0  0  # atno 6908 bound_to 6896
  151.3452  133.3905  159.2709 H   0  0  0  0  0  0  0  0  0  0  0  0  # atno 6909 bound_to 6896
  146.1887  140.3935  142.8466 H   0  0  0  0  0  0  0  0  0  0  0  0  # atno 7974 bound_to 7965
  156.0604  140.1346  156.9948 H   0  0  0  0  0  0  0  0  0  0  0  0  # atno 8008 bound_to 7997
  154.4479  140.0992  156.6579 H   0  0  0  0  0  0  0  0  0  0  0  0  # atno 8009 bound_to 7997
  155.5386  140.3460  155.4444 H   0  0  0  0  0  0  0  0  0  0  0  0  # atno 8010 bound_to 7997
  140.1007  144.4906  150.7039 H   0  0  0  0  0  0  0  0  0  0  0  0  # atno 10167 bound_to 10162
  156.0846  130.6040  150.8806 H   0  0  0  0  0  0  0  0  0  0  0  0  # atno 10718 bound_to 10713
  154.7459  135.3080  154.8645 H   0  0  0  0  0  0  0  0  0  0  0  0  # atno 10763 bound_to 10752
  153.9446  135.6771  153.4748 H   0  0  0  0  0  0  0  0  0  0  0  0  # atno 10764 bound_to 10752
  153.1056  135.4891  154.8871 H   0  0  0  0  0  0  0  0  0  0  0  0  # atno 10765 bound_to 10752
  140.2273  134.3569  155.7979 H   0  0  0  0  0  0  0  0  0  0  0  0  # atno 11005 bound_to 11000
  144.8445  140.6909  143.6208 LP  0  0  0  0  0  0  0  0  0  0  0  0  # atno 17320 bound_to 7965
  145.3859  139.1627  143.4255 LP  0  0  0  0  0  0  0  0  0  0  0  0  # atno 17321 bound_to 7965
  140.6979  143.2416  151.4948 LP  0  0  0  0  0  0  0  0  0  0  0  0  # atno 17342 bound_to 10162
  139.5673  144.2012  152.1784 LP  0  0  0  0  0  0  0  0  0  0  0  0  # atno 17343 bound_to 10162
  157.5975  131.0942  150.9016 LP  0  0  0  0  0  0  0  0  0  0  0  0  # atno 17370 bound_to 10713
  156.9180  130.5304  149.5279 LP  0  0  0  0  0  0  0  0  0  0  0  0  # atno 17371 bound_to 10713
  141.2220  133.7226  156.8674 LP  0  0  0  0  0  0  0  0  0  0  0  0  # atno 17394 bound_to 11000
  140.1787  134.9049  157.2922 LP  0  0  0  0  0  0  0  0  0  0  0  0  # atno 17395 bound_to 11000

$$$$
