AV-unprocessed.smi:1962|AV-procd|sdf|7923|dock2
  -GOLD-   2272010 93D 1   1.00000     0.00000
 Structure written by MMmdl.
 36 37  0  0  0  0  0  0  0  0  1 V2000
  147.0275  142.1811  155.1299 C   0  0  0  0  0  0  0  0  0  0  0  0
  148.2297  141.3228  155.5457 C   0  0  1  0  0  0  0  0  0  0  0  0
  149.1671  141.0505  154.3507 C   0  0  0  0  0  0  0  0  0  0  0  0
  149.9374  139.8295  154.5119 N   0  0  0  0  0  0  0  0  0  0  0  0
  149.4894  138.5257  154.4885 C   0  0  0  0  0  0  0  0  0  0  0  0
  150.5718  137.7203  154.6987 C   0  0  0  0  0  0  0  0  0  0  0  0
  151.6520  138.6359  154.8390 C   0  0  0  0  0  0  0  0  0  0  0  0
  151.2700  139.8975  154.7237 N   0  0  0  0  0  0  0  0  0  0  0  0
  148.9478  142.0012  156.6236 N   0  0  0  0  0  0  0  0  0  0  0  0
  149.8076  141.4245  157.4844 C   0  0  0  0  0  0  0  0  0  0  0  0
  150.0651  140.2204  157.4722 O   0  0  0  0  0  0  0  0  0  0  0  0
  150.4565  142.3371  158.4628 C   0  0  0  0  0  0  0  0  0  0  0  0
  151.3968  141.8953  159.2384 N   0  0  0  0  0  0  0  0  0  0  0  0
  152.0335  142.7075  160.1543 N   0  0  0  0  0  0  0  0  0  0  0  0
  153.2347  142.1310  160.7549 C   0  0  0  0  0  0  0  0  0  0  0  0
  151.5986  143.9366  160.5287 C   0  0  0  0  0  0  0  0  0  0  0  0
  152.1866  144.6530  161.3389 O   0  0  0  0  0  0  0  0  0  0  0  0
  150.2805  144.4117  159.9109 C   0  0  0  0  0  0  0  0  0  0  0  0
  150.0280  143.7900  158.5230 C   0  0  0  0  0  0  0  0  0  0  0  0
  146.4490  141.6911  154.3462 H   0  0  0  0  0  0  0  0  0  0  0  0
  147.3446  143.1532  154.7510 H   0  0  0  0  0  0  0  0  0  0  0  0
  146.3576  142.3538  155.9729 H   0  0  0  0  0  0  0  0  0  0  0  0
  147.8355  140.3698  155.9031 H   0  0  0  0  0  0  0  0  0  0  0  0
  148.5844  140.9551  153.4337 H   0  0  0  0  0  0  0  0  0  0  0  0
  149.8489  141.8891  154.1987 H   0  0  0  0  0  0  0  0  0  0  0  0
  148.4485  138.2835  154.3324 H   0  0  0  0  0  0  0  0  0  0  0  0
  150.5893  136.6418  154.7469 H   0  0  0  0  0  0  0  0  0  0  0  0
  152.6953  138.4231  155.0193 H   0  0  0  0  0  0  0  0  0  0  0  0
  148.8013  142.9969  156.7082 H   0  0  0  0  0  0  0  0  0  0  0  0
  153.1074  142.0169  161.8326 H   0  0  0  0  0  0  0  0  0  0  0  0
  154.0990  142.7731  160.5792 H   0  0  0  0  0  0  0  0  0  0  0  0
  153.4667  141.1469  160.3441 H   0  0  0  0  0  0  0  0  0  0  0  0
  149.4783  144.1256  160.5922 H   0  0  0  0  0  0  0  0  0  0  0  0
  150.2661  145.5001  159.8474 H   0  0  0  0  0  0  0  0  0  0  0  0
  150.5638  144.3547  157.7593 H   0  0  0  0  0  0  0  0  0  0  0  0
  148.9669  143.8889  158.2902 H   0  0  0  0  0  0  0  0  0  0  0  0
  1  2  1  0  0  0  0
  1 20  1  0  0  0  0
  1 21  1  0  0  0  0
  1 22  1  0  0  0  0
  2  3  1  0  0  0  0
  2  9  1  0  0  0  0
  2 23  1  0  0  0  0
  3  4  1  0  0  0  0
  3 24  1  0  0  0  0
  3 25  1  0  0  0  0
  4  8  1  0  0  0  0
  4  5  1  0  0  0  0
  5  6  2  0  0  0  0
  5 26  1  0  0  0  0
  6  7  1  0  0  0  0
  6 27  1  0  0  0  0
  7  8  2  0  0  0  0
  7 28  1  0  0  0  0
  9 10  1  0  0  0  0
  9 29  1  0  0  0  0
 10 11  2  0  0  0  0
 10 12  1  0  0  0  0
 12 19  1  0  0  0  0
 12 13  2  0  0  0  0
 13 14  1  0  0  0  0
 14 15  1  0  0  0  0
 14 16  1  0  0  0  0
 15 30  1  0  0  0  0
 15 31  1  0  0  0  0
 15 32  1  0  0  0  0
 16 17  2  0  0  0  0
 16 18  1  0  0  0  0
 18 19  1  0  0  0  0
 18 33  1  0  0  0  0
 18 34  1  0  0  0  0
 19 35  1  0  0  0  0
 19 36  1  0  0  0  0
M  END
> <s_m_source_file>
AV-unprocessed.smi

> <i_m_source_file_index>
1962

> <i_lp_mmshare_version>
43012

> <i_f3d_flags>
0

> <s_epik_input>
bjFbY0hdW2NIXVtjSF1uMVtDSDJdW0NAQEhdKFtDSDNdKVtOSF1DKD1PKUMyPU5OKFtDSDNdKUMoPU8pW0NIMl1bQ0gyXTI=

> <s_epik_cmdline>
J2VwaWtfcHl0aG9uJywgJy1waCcsICc3LjAnLCAnLXRuJywgJzgnLCAnLW1hJywgJzIwMCcsICctbWV0YWxfYmluZGluZycsICctaW1hZScsICc8aW5maWxlLm1hZT4nLCAnLW9tYWUnLCAnPG91dGZpbGUubWFlPic=

> <r_lp_tautomer_probability>
1

> <r_epik_Ionization_Penalty>
9.43868e-05

> <r_epik_Ionization_Penalty_Charging>
0

> <r_epik_Ionization_Penalty_Neutral>
9.43868e-05

> <r_epik_State_Penalty>
-0

> <r_epik_Charging_Adjusted_Penalty>
0

> <i_epik_Tot_Q>
0

> <i_epik_Tot_abs_Q>
0

> <r_epik_Metal_State_Penalty>
0.0732556

> <b_epik_Metal_Only>
0

> <s_epik_Chemistry_Notes>
This compound has an imine and may undergo hydrolysis.

> <s_lp_Force_Field>
OPLS_2005

> <r_lp_Energy>
16.0721

> <b_lp_Chiralities_Consistent>
1

> <s_lp_Variant>
AV-unprocessed.smi:1962-2

> <Gold.Version>
5.8.1

> <Gold.Id.Protein>
6NUR|6NUR_protein|mol2

> <Gold.PLP.Fitness>
40.5727

> <Gold.PLP.PLP>
-36.5958

> <Gold.PLP.part.hbond>
-1.9564

> <Gold.PLP.part.metal>
0.0000

> <Gold.PLP.part.buried>
-2.9451

> <Gold.PLP.part.nonpolar>
-32.5035

> <Gold.PLP.part.repulsive>
0.2808

> <Gold.PLP.ligand.clash>
0.0000

> <Gold.PLP.ligand.torsion>
0.6173

> <Gold.PLP.Chemscore.Hbond>
1.7258

> <Gold.PLP.Chemscore.CHOScore>
0.0000

> <Gold.PLP.Chemscore.Metal>
0.0000

> <Gold.Chemscore.Hbonds>
donor molecule, donor type, donor heavy atom, donor atom, acceptor molecule, acceptor atom, score
      L1  H     9    29       P1  8028  0.86
      P1  H  7989  7998       L1     8  0.90

> <Gold.PLP.Chemscore.Internal.Correction>
0.0339

> <Gold.Rescore>
     Score         DG    S(hbond)    S(metal)    S(lipo)     H(rot)  DE(clash)    DE(int)     intcor
     13.81     -14.62       1.46        0.00      69.67       1.53       0.13       0.68       ----

> <Gold.Chemscore.Fitness>
13.8149

> <Gold.Chemscore.DG>
-14.6186

> <Gold.Chemscore.ZeroCoef>
-5.4800

> <Gold.Chemscore.Hbond>
1.4648

> <Gold.Chemscore.Metal>
0.0000

> <Gold.Chemscore.Lipo>
69.6689

> <Gold.Chemscore.Internal_Hbond>
0.0000

> <Gold.Chemscore.DEClash>
0.1281

> <Gold.Chemscore.DEInternal>
0.6756

> <Gold.Chemscore.Rot>
1.5254

> <Gold.Chemscore.Internal.Correction>
   9.000000E+99

> <Gold.Chemscore.Hbonds>
donor molecule, donor type, donor heavy atom, donor atom, acceptor molecule, acceptor atom, score
      L1  H     9    29       P1  8028  0.73
      P1  H  7989  7998       L1     8  0.18

> <Gold.Chemscore.Hbond.Weighted>
-4.8924

> <Gold.Chemscore.Metal.Weighted>
-0.0000

> <Gold.Chemscore.Lipo.Weighted>
-8.1513

> <Gold.Chemscore.Internal_Hbond.Weighted>
0.0000

> <Gold.Chemscore.DEClash.Weighted>
0.1281

> <Gold.Chemscore.DEInternal.Weighted>
0.6756

> <Gold.Chemscore.Rot.Weighted>
3.9051

> <Gold.Chemscore.Internal.Correction.Weighted>
   9.000000E+99

> <Gold.Protein.RotatedTorsions>
[ 6907 6896 6895 6894 ] final   26.33 input  -60.11 | X-H torsion
[ 7974 7965 7964 7962 ] final   86.22 input  175.53 | X-H torsion
[ 8008 7997 7996 7995 ] final   61.07 input   59.86 | X-H torsion
[ 10167 10162 10161 10158 ] final   94.48 input  -65.29 | X-H torsion
[ 10718 10713 10712 10709 ] final  -91.63 input   66.30 | X-H torsion
[ 10763 10752 10751 10750 ] final   15.52 input  -60.55 | X-H torsion
[ 11005 11000 10999 10996 ] final   25.38 input  -57.11 | X-H torsion

> <Gold.Protein.ActiveResidues>
 VAL166  LYS551  ARG553  GLY616  TRP617  ASP618  TYR619  PRO620  LYS621  CYS622 
 ASP623  PHE694  ASN695  SER759  ASP760  ASP761  ALA762  ILE779  LEU786  VAL792 
 PHE793  MET794  SER795  GLU796  ALA797  LYS798  CYS799  TRP800  GLU811  SER814 

> <Gold.Protein.RotatedAtoms>
  151.9858  135.0005  160.0559 H   0  0  0  0  0  0  0  0  0  0  0  0  # atno 6907 bound_to 6896
  152.1654  133.4604  159.4890 H   0  0  0  0  0  0  0  0  0  0  0  0  # atno 6908 bound_to 6896
  150.6893  134.1937  159.4338 H   0  0  0  0  0  0  0  0  0  0  0  0  # atno 6909 bound_to 6896
  145.5752  139.2318  143.2384 H   0  0  0  0  0  0  0  0  0  0  0  0  # atno 7974 bound_to 7965
  155.5924  140.3493  155.4570 H   0  0  0  0  0  0  0  0  0  0  0  0  # atno 8008 bound_to 7997
  156.0291  140.1270  157.0302 H   0  0  0  0  0  0  0  0  0  0  0  0  # atno 8009 bound_to 7997
  154.4345  140.1047  156.6059 H   0  0  0  0  0  0  0  0  0  0  0  0  # atno 8010 bound_to 7997
  139.8080  144.6786  150.9678 H   0  0  0  0  0  0  0  0  0  0  0  0  # atno 10167 bound_to 10162
  155.9995  130.4956  150.5504 H   0  0  0  0  0  0  0  0  0  0  0  0  # atno 10718 bound_to 10713
  153.1518  135.6780  153.8871 H   0  0  0  0  0  0  0  0  0  0  0  0  # atno 10763 bound_to 10752
  153.8295  135.3119  155.3418 H   0  0  0  0  0  0  0  0  0  0  0  0  # atno 10764 bound_to 10752
  154.7868  135.4858  154.0050 H   0  0  0  0  0  0  0  0  0  0  0  0  # atno 10765 bound_to 10752
  140.3484  134.2255  155.7682 H   0  0  0  0  0  0  0  0  0  0  0  0  # atno 11005 bound_to 11000
  146.1756  140.6578  142.9213 LP  0  0  0  0  0  0  0  0  0  0  0  0  # atno 17320 bound_to 7965
  144.7419  140.4966  143.6863 LP  0  0  0  0  0  0  0  0  0  0  0  0  # atno 17321 bound_to 7965
  140.7818  143.4214  151.0836 LP  0  0  0  0  0  0  0  0  0  0  0  0  # atno 17342 bound_to 10162
  139.7882  143.8257  152.3148 LP  0  0  0  0  0  0  0  0  0  0  0  0  # atno 17343 bound_to 10162
  157.3428  131.0720  151.1775 LP  0  0  0  0  0  0  0  0  0  0  0  0  # atno 17370 bound_to 10713
  157.2617  130.6662  149.5978 LP  0  0  0  0  0  0  0  0  0  0  0  0  # atno 17371 bound_to 10713
  141.2019  133.7951  157.0418 LP  0  0  0  0  0  0  0  0  0  0  0  0  # atno 17394 bound_to 11000
  140.0723  134.9695  157.1487 LP  0  0  0  0  0  0  0  0  0  0  0  0  # atno 17395 bound_to 11000

$$$$
