AV-unprocessed.smi:17|AV-procd|sdf|99|dock1
  -GOLD-   2262015243D 1   1.00000     0.00000
 Structure written by MMmdl.
 57 59  0  0  0  0  0  0  0  0  1 V2000
  148.7203  140.7314  155.7185 C   0  0  0  0  0  0  0  0  0  0  0  0
  147.3632  140.3931  156.3517 C   0  0  0  0  0  0  0  0  0  0  0  0
  146.9533  139.0112  156.0865 N   0  0  0  0  0  0  0  0  0  0  0  0
  146.6710  138.6473  154.8057 C   0  0  0  0  0  0  0  0  0  0  0  0
  147.3211  139.2894  153.7994 N   0  0  0  0  0  0  0  0  0  0  0  0
  147.0962  138.9607  152.5248 C   0  0  0  0  0  0  0  0  0  0  0  0
  146.2680  138.0375  152.0366 N   0  0  0  0  0  0  0  0  0  0  0  0
  145.5950  137.4002  153.0362 C   0  0  0  0  0  0  0  0  0  0  0  0
  145.7291  137.6417  154.4341 C   0  0  0  0  0  0  0  0  0  0  0  0
  144.8576  136.8129  155.1339 N   0  0  0  0  0  0  0  0  0  0  0  0
  144.2641  136.1099  154.2093 C   0  0  0  0  0  0  0  0  0  0  0  0
  144.6532  136.3929  152.9213 N   0  0  0  0  0  0  0  0  0  0  0  0
  144.1591  135.7623  151.7099 C   0  0  0  0  0  0  0  0  0  0  0  0
  145.1668  134.7636  151.0880 C   0  0  2  0  0  0  0  0  0  0  0  0
  144.4984  133.7698  150.1061 C   0  0  0  0  0  0  0  0  0  0  0  0
  144.0558  134.4205  148.9327 O   0  0  0  0  0  0  0  0  0  0  0  0
  145.9986  134.0403  152.1769 C   0  0  2  0  0  0  0  0  0  0  0  0
  147.0953  133.1339  151.6462 C   0  0  0  0  0  0  0  0  0  0  0  0
  147.3922  132.2553  152.8550 C   0  0  0  0  0  0  0  0  0  0  0  0
  146.1427  132.0854  153.5134 O   0  0  0  0  0  0  0  0  0  0  0  0
  145.2071  133.0497  153.0386 C   0  0  0  0  0  0  0  0  0  0  0  0
  146.7918  138.0433  157.1775 C   0  0  2  0  0  0  0  0  0  0  0  0
  145.6878  138.4842  158.1528 C   0  0  0  0  0  0  0  0  0  0  0  0
  148.1158  137.7466  157.9141 C   0  0  0  0  0  0  0  0  0  0  0  0
  147.9262  136.5336  159.3007 S   0  0  0  0  0  0  0  0  0  0  0  0
  147.2077  135.0641  158.4568 C   0  0  0  0  0  0  0  0  0  0  0  0
  149.2719  136.1622  159.7630 O   0  0  0  0  0  0  0  0  0  0  0  0
  146.9367  137.0418  160.2636 O   0  0  0  0  0  0  0  0  0  0  0  0
  148.9838  141.7723  155.9059 H   0  0  0  0  0  0  0  0  0  0  0  0
  148.7016  140.5831  154.6387 H   0  0  0  0  0  0  0  0  0  0  0  0
  149.5178  140.1109  156.1283 H   0  0  0  0  0  0  0  0  0  0  0  0
  147.3939  140.5810  157.4250 H   0  0  0  0  0  0  0  0  0  0  0  0
  146.6140  141.0773  155.9553 H   0  0  0  0  0  0  0  0  0  0  0  0
  147.6619  139.5157  151.7911 H   0  0  0  0  0  0  0  0  0  0  0  0
  143.5236  135.3584  154.4421 H   0  0  0  0  0  0  0  0  0  0  0  0
  143.2249  135.2597  151.9609 H   0  0  0  0  0  0  0  0  0  0  0  0
  143.9043  136.5397  150.9888 H   0  0  0  0  0  0  0  0  0  0  0  0
  145.8648  135.3543  150.4930 H   0  0  0  0  0  0  0  0  0  0  0  0
  145.1860  132.9719  149.8254 H   0  0  0  0  0  0  0  0  0  0  0  0
  143.6457  133.2777  150.5733 H   0  0  0  0  0  0  0  0  0  0  0  0
  144.7650  134.4292  148.3080 H   0  0  0  0  0  0  0  0  0  0  0  0
  146.4597  134.7793  152.8345 H   0  0  0  0  0  0  0  0  0  0  0  0
  146.7241  132.5239  150.8212 H   0  0  0  0  0  0  0  0  0  0  0  0
  147.9759  133.6770  151.3022 H   0  0  0  0  0  0  0  0  0  0  0  0
  147.8346  131.2979  152.5788 H   0  0  0  0  0  0  0  0  0  0  0  0
  148.0780  132.7633  153.5343 H   0  0  0  0  0  0  0  0  0  0  0  0
  144.6957  133.5390  153.8680 H   0  0  0  0  0  0  0  0  0  0  0  0
  144.4571  132.5281  152.4424 H   0  0  0  0  0  0  0  0  0  0  0  0
  146.4731  137.0874  156.7674 H   0  0  0  0  0  0  0  0  0  0  0  0
  145.5022  137.7174  158.9049 H   0  0  0  0  0  0  0  0  0  0  0  0
  144.7483  138.6621  157.6287 H   0  0  0  0  0  0  0  0  0  0  0  0
  145.9564  139.4015  158.6770 H   0  0  0  0  0  0  0  0  0  0  0  0
  148.9050  137.4032  157.2465 H   0  0  0  0  0  0  0  0  0  0  0  0
  148.4771  138.6692  158.3690 H   0  0  0  0  0  0  0  0  0  0  0  0
  147.1452  134.2390  159.1658 H   0  0  0  0  0  0  0  0  0  0  0  0
  147.8439  134.7720  157.6218 H   0  0  0  0  0  0  0  0  0  0  0  0
  146.2090  135.2917  158.0918 H   0  0  0  0  0  0  0  0  0  0  0  0
  1  2  1  0  0  0  0
  1 29  1  0  0  0  0
  1 30  1  0  0  0  0
  1 31  1  0  0  0  0
  2  3  1  0  0  0  0
  2 32  1  0  0  0  0
  2 33  1  0  0  0  0
  3  4  1  0  0  0  0
  3 22  1  0  0  0  0
  4  9  1  0  0  0  0
  4  5  2  0  0  0  0
  5  6  1  0  0  0  0
  6  7  2  0  0  0  0
  6 34  1  0  0  0  0
  7  8  1  0  0  0  0
  8 12  1  0  0  0  0
  8  9  2  0  0  0  0
  9 10  1  0  0  0  0
 10 11  2  0  0  0  0
 11 12  1  0  0  0  0
 11 35  1  0  0  0  0
 12 13  1  0  0  0  0
 13 14  1  0  0  0  0
 13 36  1  0  0  0  0
 13 37  1  0  0  0  0
 14 15  1  0  0  0  0
 14 17  1  0  0  0  0
 14 38  1  0  0  0  0
 15 16  1  0  0  0  0
 15 39  1  0  0  0  0
 15 40  1  0  0  0  0
 16 41  1  0  0  0  0
 17 21  1  0  0  0  0
 17 18  1  0  0  0  0
 17 42  1  0  0  0  0
 18 19  1  0  0  0  0
 18 43  1  0  0  0  0
 18 44  1  0  0  0  0
 19 20  1  0  0  0  0
 19 45  1  0  0  0  0
 19 46  1  0  0  0  0
 20 21  1  0  0  0  0
 21 47  1  0  0  0  0
 21 48  1  0  0  0  0
 22 23  1  0  0  0  0
 22 24  1  0  0  0  0
 22 49  1  0  0  0  0
 23 50  1  0  0  0  0
 23 51  1  0  0  0  0
 23 52  1  0  0  0  0
 24 25  1  0  0  0  0
 24 53  1  0  0  0  0
 24 54  1  0  0  0  0
 25 26  1  0  0  0  0
 25 27  2  0  0  0  0
 25 28  2  0  0  0  0
 26 55  1  0  0  0  0
 26 56  1  0  0  0  0
 26 57  1  0  0  0  0
M  END
> <s_m_source_file>
AV-unprocessed.smi

> <i_m_source_file_index>
17

> <i_lp_mmshare_version>
43012

> <i_f3d_flags>
0

> <s_epik_input>
W0NIM11TKD1PKSg9TylbQ0gyXVtDQEBIXShbQ0gzXSlOKFtDSDJdW0NIM10pYyhuW2NIXW4xKWMoYzEyKW5bY0hdbjJbQ0gyXVtDQEhdKFtDSDJdW09IXSlbQ0BASF0zW0NIMl1bQ0gyXU9bQ0gyXTM=

> <s_epik_cmdline>
J2VwaWtfcHl0aG9uJywgJy1waCcsICc3LjAnLCAnLXRuJywgJzgnLCAnLW1hJywgJzIwMCcsICctbWV0YWxfYmluZGluZycsICctaW1hZScsICc8aW5maWxlLm1hZT4nLCAnLW9tYWUnLCAnPG91dGZpbGUubWFlPic=

> <r_lp_tautomer_probability>
1

> <r_epik_Ionization_Penalty>
0.00119955

> <r_epik_Ionization_Penalty_Charging>
0

> <r_epik_Ionization_Penalty_Neutral>
0.00119955

> <r_epik_State_Penalty>
0.000665399

> <r_epik_Charging_Adjusted_Penalty>
0.000665399

> <i_epik_Tot_Q>
0

> <i_epik_Tot_abs_Q>
0

> <r_epik_Metal_State_Penalty>
-0

> <b_epik_Metal_Only>
0

> <s_lp_Force_Field>
OPLS_2005

> <r_lp_Energy>
33.2615

> <b_lp_Chiralities_Consistent>
1

> <s_lp_Variant>
AV-unprocessed.smi:17-1

> <Gold.Version>
5.8.1

> <Gold.Id.Protein>
6NUR|6NUR_protein|mol2

> <Gold.PLP.Fitness>
41.6493

> <Gold.PLP.PLP>
-30.7982

> <Gold.PLP.part.hbond>
-5.0000

> <Gold.PLP.part.metal>
0.0000

> <Gold.PLP.part.buried>
-5.3370

> <Gold.PLP.part.nonpolar>
-21.3861

> <Gold.PLP.part.repulsive>
0.6232

> <Gold.PLP.ligand.clash>
0.0000

> <Gold.PLP.ligand.torsion>
0.9936

> <Gold.PLP.Chemscore.Hbond>
3.0105

> <Gold.PLP.Chemscore.CHOScore>
1.0000

> <Gold.PLP.Chemscore.Metal>
0.0000

> <Gold.Chemscore.Hbonds>
donor molecule, donor type, donor heavy atom, donor atom, acceptor molecule, acceptor atom, score
      L1  H    16    41       P1  7921  1.00
      P1  H  6896  6909       L1    27  0.99
      P1  H  6934  6947       L1    28  0.83
      L1  C     6    34       P1  7957  1.00

> <Gold.PLP.Chemscore.Internal.Correction>
0.8070

> <Gold.Rescore>
     Score         DG    S(hbond)    S(metal)    S(lipo)     H(rot)  DE(clash)    DE(int)     intcor
      8.87     -13.21       3.39        0.00      45.95       3.51       0.05       4.30       ----

> <Gold.Chemscore.Fitness>
8.8655

> <Gold.Chemscore.DG>
-13.2080

> <Gold.Chemscore.ZeroCoef>
-5.4800

> <Gold.Chemscore.Hbond>
3.3912

> <Gold.Chemscore.Metal>
0.0000

> <Gold.Chemscore.Lipo>
45.9508

> <Gold.Chemscore.Internal_Hbond>
0.0000

> <Gold.Chemscore.DEClash>
0.0465

> <Gold.Chemscore.DEInternal>
4.2960

> <Gold.Chemscore.Rot>
3.5059

> <Gold.Chemscore.Internal.Correction>
   9.000000E+99

> <Gold.Chemscore.Hbonds>
donor molecule, donor type, donor heavy atom, donor atom, acceptor molecule, acceptor atom, score
      L1  H    16    41       P1  7921  0.96
      P1  H  6896  6909       L1    27  0.93
      P1  H  6934  6947       L1    28  0.76

> <Gold.Chemscore.Hbond.Weighted>
-11.3267

> <Gold.Chemscore.Metal.Weighted>
-0.0000

> <Gold.Chemscore.Lipo.Weighted>
-5.3762

> <Gold.Chemscore.Internal_Hbond.Weighted>
0.0000

> <Gold.Chemscore.DEClash.Weighted>
0.0465

> <Gold.Chemscore.DEInternal.Weighted>
4.2960

> <Gold.Chemscore.Rot.Weighted>
8.9750

> <Gold.Chemscore.Internal.Correction.Weighted>
   9.000000E+99

> <Gold.Protein.RotatedTorsions>
[ 6907 6896 6895 6894 ] final   75.70 input  -60.11 | X-H torsion
[ 7974 7965 7964 7962 ] final  -74.41 input  175.53 | X-H torsion
[ 8008 7997 7996 7995 ] final -146.11 input   59.86 | X-H torsion
[ 10167 10162 10161 10158 ] final  -51.51 input  -65.29 | X-H torsion
[ 10718 10713 10712 10709 ] final   52.25 input   66.30 | X-H torsion
[ 10763 10752 10751 10750 ] final    5.58 input  -60.55 | X-H torsion
[ 11005 11000 10999 10996 ] final  -83.28 input  -57.11 | X-H torsion

> <Gold.Protein.ActiveResidues>
 VAL166  LYS551  ARG553  GLY616  TRP617  ASP618  TYR619  PRO620  LYS621  CYS622 
 ASP623  PHE694  ASN695  SER759  ASP760  ASP761  ALA762  ILE779  LEU786  VAL792 
 PHE793  MET794  SER795  GLU796  ALA797  LYS798  CYS799  TRP800  GLU811  SER814 

> <Gold.Protein.RotatedAtoms>
  152.5038  134.4081  159.9438 H   0  0  0  0  0  0  0  0  0  0  0  0  # atno 6907 bound_to 6896
  151.4047  133.3740  159.2744 H   0  0  0  0  0  0  0  0  0  0  0  0  # atno 6908 bound_to 6896
  150.9335  134.8770  159.7626 H   0  0  0  0  0  0  0  0  0  0  0  0  # atno 6909 bound_to 6896
  145.6394  140.9315  143.1044 H   0  0  0  0  0  0  0  0  0  0  0  0  # atno 7974 bound_to 7965
  155.5540  140.0619  157.2843 H   0  0  0  0  0  0  0  0  0  0  0  0  # atno 8008 bound_to 7997
  154.4411  140.1897  156.0760 H   0  0  0  0  0  0  0  0  0  0  0  0  # atno 8009 bound_to 7997
  156.0495  140.3286  155.7339 H   0  0  0  0  0  0  0  0  0  0  0  0  # atno 8010 bound_to 7997
  140.6584  143.2617  151.4515 H   0  0  0  0  0  0  0  0  0  0  0  0  # atno 10167 bound_to 10162
  157.5057  130.8467  149.8372 H   0  0  0  0  0  0  0  0  0  0  0  0  # atno 10718 bound_to 10713
  153.2577  135.6920  153.7612 H   0  0  0  0  0  0  0  0  0  0  0  0  # atno 10763 bound_to 10752
  153.6683  135.3348  155.3147 H   0  0  0  0  0  0  0  0  0  0  0  0  # atno 10764 bound_to 10752
  154.8418  135.4493  154.1556 H   0  0  0  0  0  0  0  0  0  0  0  0  # atno 10765 bound_to 10752
  141.1658  133.7286  156.8697 H   0  0  0  0  0  0  0  0  0  0  0  0  # atno 11005 bound_to 11000
  144.7163  139.8185  143.7397 LP  0  0  0  0  0  0  0  0  0  0  0  0  # atno 17320 bound_to 7965
  146.1293  139.4325  143.0179 LP  0  0  0  0  0  0  0  0  0  0  0  0  # atno 17321 bound_to 7965
  139.5812  144.1705  152.1970 LP  0  0  0  0  0  0  0  0  0  0  0  0  # atno 17342 bound_to 10162
  140.1031  144.5522  150.6975 LP  0  0  0  0  0  0  0  0  0  0  0  0  # atno 17343 bound_to 10162
  156.0257  130.3780  150.1831 LP  0  0  0  0  0  0  0  0  0  0  0  0  # atno 17370 bound_to 10713
  157.0020  130.9925  151.3388 LP  0  0  0  0  0  0  0  0  0  0  0  0  # atno 17371 bound_to 10713
  140.1790  134.9046  157.2926 LP  0  0  0  0  0  0  0  0  0  0  0  0  # atno 17394 bound_to 11000
  140.2416  134.3789  155.7478 LP  0  0  0  0  0  0  0  0  0  0  0  0  # atno 17395 bound_to 11000

$$$$
