AV-unprocessed.smi:1056|AV-procd|sdf|4640|dock1
  -GOLD-   22720 3143D 1   1.00000     0.00000
 Structure written by MMmdl.
 45 47  0  0  0  0  0  0  0  0  2 V2000
  151.6524  143.1302  160.0424 C   0  0  0  0  0  0  0  0  0  0  0  0
  151.3994  142.2582  158.8243 C   0  0  0  0  0  0  0  0  0  0  0  0
  150.3677  142.6294  157.9326 C   0  0  0  0  0  0  0  0  0  0  0  0
  150.1578  141.8104  156.8296 C   0  0  0  0  0  0  0  0  0  0  0  0
  149.2365  141.9010  155.7838 N   0  3  0  0  0  0  0  0  0  0  0  0
  149.4142  140.8550  154.9299 C   0  0  0  0  0  0  0  0  0  0  0  0
  150.4351  140.0984  155.4163 N   0  0  0  0  0  0  0  0  0  0  0  0
  151.0302  138.8635  154.8880 C   0  0  0  0  0  0  0  0  0  0  0  0
  150.9682  137.6888  155.8862 C   0  0  2  0  0  0  0  0  0  0  0  0
  151.2906  136.4992  155.1899 O   0  0  0  0  0  0  0  0  0  0  0  0
  149.5684  137.5445  156.5259 C   0  0  0  0  0  0  0  0  0  0  0  0
  149.4759  136.5783  157.6255 N   0  0  0  0  0  0  0  0  0  0  0  0
  148.8711  135.3053  157.2317 C   0  0  0  0  0  0  0  0  0  0  0  0
  148.9071  134.2774  158.3733 C   0  0  0  0  0  0  0  0  0  0  0  0
  148.4688  134.8504  159.6415 N   0  0  0  0  0  0  0  0  0  0  0  0
  148.4320  136.1656  159.9104 C   0  0  0  0  0  0  0  0  0  0  0  0
  148.1063  136.5901  161.0167 O   0  0  0  0  0  0  0  0  0  0  0  0
  148.7783  137.1583  158.7842 C   0  0  0  0  0  0  0  0  0  0  0  0
  150.9311  140.6564  156.5987 C   0  0  0  0  0  0  0  0  0  0  0  0
  151.9528  140.2768  157.4654 C   0  0  0  0  0  0  0  0  0  0  0  0
  152.1834  141.0980  158.5925 C   0  0  0  0  0  0  0  0  0  0  0  0
  153.2915  140.7101  159.5568 C   0  0  0  0  0  0  0  0  0  0  0  0
  150.9621  143.9735  160.0800 H   0  0  0  0  0  0  0  0  0  0  0  0
  152.6662  143.5304  160.0233 H   0  0  0  0  0  0  0  0  0  0  0  0
  151.5239  142.5538  160.9590 H   0  0  0  0  0  0  0  0  0  0  0  0
  149.7677  143.5117  158.1016 H   0  0  0  0  0  0  0  0  0  0  0  0
  148.8499  140.6616  154.0291 H   0  0  0  0  0  0  0  0  0  0  0  0
  150.5240  138.6129  153.9549 H   0  0  0  0  0  0  0  0  0  0  0  0
  152.0664  139.0853  154.6283 H   0  0  0  0  0  0  0  0  0  0  0  0
  151.7147  137.8493  156.6651 H   0  0  0  0  0  0  0  0  0  0  0  0
  150.7562  136.4532  154.4119 H   0  0  0  0  0  0  0  0  0  0  0  0
  149.2934  138.5212  156.9275 H   0  0  0  0  0  0  0  0  0  0  0  0
  148.8161  137.3324  155.7635 H   0  0  0  0  0  0  0  0  0  0  0  0
  147.8390  135.4700  156.9162 H   0  0  0  0  0  0  0  0  0  0  0  0
  149.3916  134.8761  156.3766 H   0  0  0  0  0  0  0  0  0  0  0  0
  148.2853  133.4157  158.1303 H   0  0  0  0  0  0  0  0  0  0  0  0
  149.9244  133.9076  158.5063 H   0  0  0  0  0  0  0  0  0  0  0  0
  148.2177  134.2063  160.3775 H   0  0  0  0  0  0  0  0  0  0  0  0
  149.3751  137.9682  159.2059 H   0  0  0  0  0  0  0  0  0  0  0  0
  147.8358  137.6040  158.4615 H   0  0  0  0  0  0  0  0  0  0  0  0
  152.5478  139.3931  157.2879 H   0  0  0  0  0  0  0  0  0  0  0  0
  153.8303  139.8270  159.2118 H   0  0  0  0  0  0  0  0  0  0  0  0
  152.8800  140.4864  160.5415 H   0  0  0  0  0  0  0  0  0  0  0  0
  154.0144  141.5198  159.6585 H   0  0  0  0  0  0  0  0  0  0  0  0
  148.5375  142.6218  155.6587 H   0  0  0  0  0  0  0  0  0  0  0  0
  1  2  1  0  0  0  0
  1 23  1  0  0  0  0
  1 24  1  0  0  0  0
  1 25  1  0  0  0  0
  2 21  1  0  0  0  0
  2  3  2  0  0  0  0
  3  4  1  0  0  0  0
  3 26  1  0  0  0  0
  4 19  2  0  0  0  0
  4  5  1  0  0  0  0
  5  6  2  0  0  0  0
  5 45  1  0  0  0  0
  6  7  1  0  0  0  0
  6 27  1  0  0  0  0
  7  8  1  0  0  0  0
  7 19  1  0  0  0  0
  8  9  1  0  0  0  0
  8 28  1  0  0  0  0
  8 29  1  0  0  0  0
  9 10  1  0  0  0  0
  9 11  1  0  0  0  0
  9 30  1  0  0  0  0
 10 31  1  0  0  0  0
 11 12  1  0  0  0  0
 11 32  1  0  0  0  0
 11 33  1  0  0  0  0
 12 18  1  0  0  0  0
 12 13  1  0  0  0  0
 13 14  1  0  0  0  0
 13 34  1  0  0  0  0
 13 35  1  0  0  0  0
 14 15  1  0  0  0  0
 14 36  1  0  0  0  0
 14 37  1  0  0  0  0
 15 16  1  0  0  0  0
 15 38  1  0  0  0  0
 16 17  2  0  0  0  0
 16 18  1  0  0  0  0
 18 39  1  0  0  0  0
 18 40  1  0  0  0  0
 19 20  1  0  0  0  0
 20 21  2  0  0  0  0
 20 41  1  0  0  0  0
 21 22  1  0  0  0  0
 22 42  1  0  0  0  0
 22 43  1  0  0  0  0
 22 44  1  0  0  0  0
M  CHG  1   5   1
M  END
> <s_m_source_file>
AV-unprocessed.smi

> <i_m_source_file_index>
1056

> <i_lp_mmshare_version>
43012

> <i_f3d_flags>
0

> <s_epik_input>
W0NIM11jKFtjSF0xKWMoW0NIM10pW2NIXWMoYzEyKW4oW2NIXW4yKVtDSDJdW0NASF0oW09IXSlbQ0gyXU4zW0NIMl1bQ0gyXVtOSF1DKD1PKVtDSDJdMw==

> <s_epik_cmdline>
J2VwaWtfcHl0aG9uJywgJy1waCcsICc3LjAnLCAnLXRuJywgJzgnLCAnLW1hJywgJzIwMCcsICctbWV0YWxfYmluZGluZycsICctaW1hZScsICc8aW5maWxlLm1hZT4nLCAnLW9tYWUnLCAnPG91dGZpbGUubWFlPic=

> <r_epik_Ionization_Penalty>
2.47196

> <r_epik_Ionization_Penalty_Charging>
1.21809

> <r_epik_Ionization_Penalty_Neutral>
1.25387

> <r_epik_State_Penalty>
2.6255

> <r_epik_Charging_Adjusted_Penalty>
3.84359

> <i_epik_Tot_Q>
1

> <i_epik_Tot_abs_Q>
1

> <r_epik_Metal_State_Penalty>
2.76698

> <b_epik_Metal_Only>
0

> <s_lp_Force_Field>
OPLS_2005

> <r_lp_Energy>
35.3562

> <b_lp_Chiralities_Consistent>
1

> <s_lp_Variant>
AV-unprocessed.smi:1056-11

> <Gold.Version>
5.8.1

> <Gold.Id.Protein>
6NUR|6NUR_protein|mol2

> <Gold.PLP.Fitness>
48.9048

> <Gold.PLP.PLP>
-34.8709

> <Gold.PLP.part.hbond>
-4.0000

> <Gold.PLP.part.metal>
0.0000

> <Gold.PLP.part.buried>
-0.7828

> <Gold.PLP.part.nonpolar>
-28.9116

> <Gold.PLP.part.repulsive>
0.2529

> <Gold.PLP.ligand.clash>
0.0000

> <Gold.PLP.ligand.torsion>
0.7591

> <Gold.PLP.Chemscore.Hbond>
4.6000

> <Gold.PLP.Chemscore.CHOScore>
0.5053

> <Gold.PLP.Chemscore.Metal>
0.0000

> <Gold.Chemscore.Hbonds>
donor molecule, donor type, donor heavy atom, donor atom, acceptor molecule, acceptor atom, score
      L1  H     5    45       P1  8028  0.85
      P1  H  6931  6943       L1    17  0.83
      P1  H 10752 10764       L1    10  1.00

> <Gold.PLP.Chemscore.Internal.Correction>
0.2362

> <Gold.Rescore>
     Score         DG    S(hbond)    S(metal)    S(lipo)     H(rot)  DE(clash)    DE(int)     intcor
     19.57     -20.37       3.25        0.00      86.51       2.37       0.06       0.74       ----

> <Gold.Chemscore.Fitness>
19.5695

> <Gold.Chemscore.DG>
-20.3685

> <Gold.Chemscore.ZeroCoef>
-5.4800

> <Gold.Chemscore.Hbond>
3.2457

> <Gold.Chemscore.Metal>
0.0000

> <Gold.Chemscore.Lipo>
86.5067

> <Gold.Chemscore.Internal_Hbond>
0.0000

> <Gold.Chemscore.DEClash>
0.0617

> <Gold.Chemscore.DEInternal>
0.7372

> <Gold.Chemscore.Rot>
2.3724

> <Gold.Chemscore.Internal.Correction>
   9.000000E+99

> <Gold.Chemscore.Hbonds>
donor molecule, donor type, donor heavy atom, donor atom, acceptor molecule, acceptor atom, score
      L1  H     5    45       P1  8028  0.41
      P1  H  6931  6943       L1    17  0.81
      P1  H 10752 10764       L1    10  0.39

> <Gold.Chemscore.Hbond.Weighted>
-10.8406

> <Gold.Chemscore.Metal.Weighted>
-0.0000

> <Gold.Chemscore.Lipo.Weighted>
-10.1213

> <Gold.Chemscore.Internal_Hbond.Weighted>
0.0000

> <Gold.Chemscore.DEClash.Weighted>
0.0617

> <Gold.Chemscore.DEInternal.Weighted>
0.7372

> <Gold.Chemscore.Rot.Weighted>
6.0734

> <Gold.Chemscore.Internal.Correction.Weighted>
   9.000000E+99

> <Gold.Protein.RotatedTorsions>
[ 6907 6896 6895 6894 ] final  -90.38 input  -60.11 | X-H torsion
[ 7974 7965 7964 7962 ] final   32.22 input  175.53 | X-H torsion
[ 8008 7997 7996 7995 ] final   64.95 input   59.86 | X-H torsion
[ 10167 10162 10161 10158 ] final  149.04 input  -65.29 | X-H torsion
[ 10718 10713 10712 10709 ] final -141.83 input   66.30 | X-H torsion
[ 10763 10752 10751 10750 ] final  -55.45 input  -60.55 | X-H torsion
[ 11005 11000 10999 10996 ] final  117.76 input  -57.11 | X-H torsion

> <Gold.Protein.ActiveResidues>
 VAL166  LYS551  ARG553  GLY616  TRP617  ASP618  TYR619  PRO620  LYS621  CYS622 
 ASP623  PHE694  ASN695  SER759  ASP760  ASP761  ALA762  ILE779  LEU786  VAL792 
 PHE793  MET794  SER795  GLU796  ALA797  LYS798  CYS799  TRP800  GLU811  SER814 

> <Gold.Protein.RotatedAtoms>
  150.6881  134.2440  159.4483 H   0  0  0  0  0  0  0  0  0  0  0  0  # atno 6907 bound_to 6896
  152.0383  134.9724  160.0583 H   0  0  0  0  0  0  0  0  0  0  0  0  # atno 6908 bound_to 6896
  152.1236  133.4333  159.4724 H   0  0  0  0  0  0  0  0  0  0  0  0  # atno 6909 bound_to 6896
  146.1500  139.6554  142.9105 H   0  0  0  0  0  0  0  0  0  0  0  0  # atno 7974 bound_to 7965
  155.6541  140.3497  155.4758 H   0  0  0  0  0  0  0  0  0  0  0  0  # atno 8008 bound_to 7997
  155.9823  140.1177  157.0738 H   0  0  0  0  0  0  0  0  0  0  0  0  # atno 8009 bound_to 7997
  154.4195  140.1135  156.5439 H   0  0  0  0  0  0  0  0  0  0  0  0  # atno 8010 bound_to 7997
  139.4867  144.5633  151.7191 H   0  0  0  0  0  0  0  0  0  0  0  0  # atno 10167 bound_to 10162
  156.3387  130.7625  151.1757 H   0  0  0  0  0  0  0  0  0  0  0  0  # atno 10718 bound_to 10713
  154.1910  135.6427  153.5060 H   0  0  0  0  0  0  0  0  0  0  0  0  # atno 10763 bound_to 10752
  153.0035  135.5429  154.6415 H   0  0  0  0  0  0  0  0  0  0  0  0  # atno 10764 bound_to 10752
  154.5803  135.2924  155.0712 H   0  0  0  0  0  0  0  0  0  0  0  0  # atno 10765 bound_to 10752
  139.9085  134.9613  156.7400 H   0  0  0  0  0  0  0  0  0  0  0  0  # atno 11005 bound_to 11000
  145.4846  141.0438  143.2627 LP  0  0  0  0  0  0  0  0  0  0  0  0  # atno 17320 bound_to 7965
  144.7892  139.6362  143.7120 LP  0  0  0  0  0  0  0  0  0  0  0  0  # atno 17321 bound_to 7965
  140.5207  144.0884  150.6022 LP  0  0  0  0  0  0  0  0  0  0  0  0  # atno 17342 bound_to 10162
  140.3841  143.2787  152.0137 LP  0  0  0  0  0  0  0  0  0  0  0  0  # atno 17343 bound_to 10162
  157.7443  131.0461  150.4875 LP  0  0  0  0  0  0  0  0  0  0  0  0  # atno 17370 bound_to 10713
  156.5052  130.4126  149.6331 LP  0  0  0  0  0  0  0  0  0  0  0  0  # atno 17371 bound_to 10713
  140.6857  133.9435  155.7936 LP  0  0  0  0  0  0  0  0  0  0  0  0  # atno 17394 bound_to 11000
  141.0478  134.0529  157.3822 LP  0  0  0  0  0  0  0  0  0  0  0  0  # atno 17395 bound_to 11000

$$$$
