AV-unprocessed.smi:864|AV-procd|sdf|3989|dock4
  -GOLD-   22720 1463D 1   1.00000     0.00000
 Structure written by MMmdl.
 45 47  0  0  0  0  0  0  0  0  2 V2000
  151.7099  144.9488  158.6598 C   0  0  0  0  0  0  0  0  0  0  0  0
  151.7106  143.4880  158.2628 C   0  0  0  0  0  0  0  0  0  0  0  0
  152.3775  142.5012  159.0197 C   0  0  0  0  0  0  0  0  0  0  0  0
  152.3510  141.1619  158.5794 C   0  0  0  0  0  0  0  0  0  0  0  0
  151.6596  140.8353  157.3912 C   0  0  0  0  0  0  0  0  0  0  0  0
  151.6668  139.4131  156.8549 C   0  0  0  0  0  0  0  0  0  0  0  0
  151.8316  139.3295  155.3225 C   0  0  0  0  0  0  0  0  0  0  0  0
  151.0628  138.2310  154.7396 N   0  0  0  0  0  0  0  0  0  0  0  0
  150.8251  137.0537  155.3369 C   0  0  0  0  0  0  0  0  0  0  0  0
  151.2998  136.7218  156.4236 O   0  0  0  0  0  0  0  0  0  0  0  0
  149.9611  136.3042  154.6397 N   0  0  0  0  0  0  0  0  0  0  0  0
  149.4037  135.0372  155.1060 C   0  0  1  0  0  0  0  0  0  0  0  0
  147.8717  134.9829  154.9757 C   0  0  0  0  0  0  0  0  0  0  0  0
  147.6149  133.6421  154.3131 C   0  0  0  0  0  0  0  0  0  0  0  0
  146.4846  133.1746  154.1815 O   0  0  0  0  0  0  0  0  0  0  0  0
  148.7565  133.0666  153.9197 N   0  0  0  0  0  0  0  0  0  0  0  0
  148.8609  131.7434  153.3782 C   0  0  0  0  0  0  0  0  0  0  0  0
  148.2213  130.5586  154.0765 C   0  0  0  0  0  0  0  0  0  0  0  0
  149.7193  130.7377  154.1107 C   0  0  0  0  0  0  0  0  0  0  0  0
  149.9287  133.8598  154.2648 C   0  0  0  0  0  0  0  0  0  0  0  0
  150.9979  141.8623  156.6847 C   0  0  0  0  0  0  0  0  0  0  0  0
  151.0498  143.1340  157.1377 N   0  3  0  0  0  0  0  0  0  0  0  0
  152.2450  145.1016  159.5975 H   0  0  0  0  0  0  0  0  0  0  0  0
  150.6886  145.3088  158.7877 H   0  0  0  0  0  0  0  0  0  0  0  0
  152.1944  145.5506  157.8902 H   0  0  0  0  0  0  0  0  0  0  0  0
  152.9124  142.7660  159.9203 H   0  0  0  0  0  0  0  0  0  0  0  0
  152.8728  140.3994  159.1388 H   0  0  0  0  0  0  0  0  0  0  0  0
  152.4700  138.8551  157.3380 H   0  0  0  0  0  0  0  0  0  0  0  0
  150.7388  138.9225  157.1509 H   0  0  0  0  0  0  0  0  0  0  0  0
  151.4967  140.2617  154.8673 H   0  0  0  0  0  0  0  0  0  0  0  0
  152.8876  139.2310  155.0649 H   0  0  0  0  0  0  0  0  0  0  0  0
  150.6312  138.4051  153.8433 H   0  0  0  0  0  0  0  0  0  0  0  0
  149.6252  136.6551  153.7546 H   0  0  0  0  0  0  0  0  0  0  0  0
  149.6836  134.8809  156.1498 H   0  0  0  0  0  0  0  0  0  0  0  0
  147.3764  135.0457  155.9452 H   0  0  0  0  0  0  0  0  0  0  0  0
  147.4787  135.7733  154.3349 H   0  0  0  0  0  0  0  0  0  0  0  0
  148.8788  131.6828  152.2910 H   0  0  0  0  0  0  0  0  0  0  0  0
  147.6869  130.7114  155.0116 H   0  0  0  0  0  0  0  0  0  0  0  0
  147.8287  129.7617  153.4481 H   0  0  0  0  0  0  0  0  0  0  0  0
  150.3221  130.0613  153.5083 H   0  0  0  0  0  0  0  0  0  0  0  0
  150.1655  131.0434  155.0552 H   0  0  0  0  0  0  0  0  0  0  0  0
  150.4100  134.1988  153.3455 H   0  0  0  0  0  0  0  0  0  0  0  0
  150.6520  133.2680  154.8275 H   0  0  0  0  0  0  0  0  0  0  0  0
  150.4548  141.7109  155.7632 H   0  0  0  0  0  0  0  0  0  0  0  0
  150.5761  143.8614  156.6014 H   0  0  0  0  0  0  0  0  0  0  0  0
  1  2  1  0  0  0  0
  1 23  1  0  0  0  0
  1 24  1  0  0  0  0
  1 25  1  0  0  0  0
  2 22  1  0  0  0  0
  2  3  2  0  0  0  0
  3  4  1  0  0  0  0
  3 26  1  0  0  0  0
  4  5  2  0  0  0  0
  4 27  1  0  0  0  0
  5  6  1  0  0  0  0
  5 21  1  0  0  0  0
  6  7  1  0  0  0  0
  6 28  1  0  0  0  0
  6 29  1  0  0  0  0
  7  8  1  0  0  0  0
  7 30  1  0  0  0  0
  7 31  1  0  0  0  0
  8  9  1  0  0  0  0
  8 32  1  0  0  0  0
  9 10  2  0  0  0  0
  9 11  1  0  0  0  0
 11 12  1  0  0  0  0
 11 33  1  0  0  0  0
 12 20  1  0  0  0  0
 12 13  1  0  0  0  0
 12 34  1  0  0  0  0
 13 14  1  0  0  0  0
 13 35  1  0  0  0  0
 13 36  1  0  0  0  0
 14 15  2  0  0  0  0
 14 16  1  0  0  0  0
 16 17  1  0  0  0  0
 16 20  1  0  0  0  0
 17 19  1  0  0  0  0
 17 18  1  0  0  0  0
 17 37  1  0  0  0  0
 18 19  1  0  0  0  0
 18 38  1  0  0  0  0
 18 39  1  0  0  0  0
 19 40  1  0  0  0  0
 19 41  1  0  0  0  0
 20 42  1  0  0  0  0
 20 43  1  0  0  0  0
 21 22  2  0  0  0  0
 21 44  1  0  0  0  0
 22 45  1  0  0  0  0
M  CHG  1  22   1
M  END
> <s_m_source_file>
AV-unprocessed.smi

> <i_m_source_file_index>
864

> <i_lp_mmshare_version>
43012

> <i_f3d_flags>
0

> <s_epik_input>
W0NIM11jMVtjSF1bY0hdYyhbY0hdbjEpW0NIMl1bQ0gyXVtOSF1DKD1PKVtOSF1bQ0BASF0yW0NIMl1DKD1PKU4oW0NIMl0yKVtDSF0zW0NIMl1bQ0gyXTM=

> <s_epik_cmdline>
J2VwaWtfcHl0aG9uJywgJy1waCcsICc3LjAnLCAnLXRuJywgJzgnLCAnLW1hJywgJzIwMCcsICctbWV0YWxfYmluZGluZycsICctaW1hZScsICc8aW5maWxlLm1hZT4nLCAnLW9tYWUnLCAnPG91dGZpbGUubWFlPic=

> <r_epik_Ionization_Penalty>
1.42657

> <r_epik_Ionization_Penalty_Charging>
1.42653

> <r_epik_Ionization_Penalty_Neutral>
4.57062e-05

> <r_epik_State_Penalty>
1.51075

> <r_epik_Charging_Adjusted_Penalty>
2.93728

> <i_epik_Tot_Q>
1

> <i_epik_Tot_abs_Q>
1

> <r_epik_Metal_State_Penalty>
1.56242

> <b_epik_Metal_Only>
0

> <s_lp_Force_Field>
OPLS_2005

> <r_lp_Energy>
39.135

> <b_lp_Chiralities_Consistent>
1

> <s_lp_Variant>
AV-unprocessed.smi:864-4

> <Gold.Version>
5.8.1

> <Gold.Id.Protein>
6NUR|6NUR_protein|mol2

> <Gold.PLP.Fitness>
47.3642

> <Gold.PLP.PLP>
-39.9550

> <Gold.PLP.part.hbond>
-2.0000

> <Gold.PLP.part.metal>
0.0000

> <Gold.PLP.part.buried>
-6.2400

> <Gold.PLP.part.nonpolar>
-32.6617

> <Gold.PLP.part.repulsive>
0.2412

> <Gold.PLP.ligand.clash>
0.0000

> <Gold.PLP.ligand.torsion>
0.8580

> <Gold.PLP.Chemscore.Hbond>
2.9833

> <Gold.PLP.Chemscore.CHOScore>
0.0000

> <Gold.PLP.Chemscore.Metal>
0.0000

> <Gold.Chemscore.Hbonds>
donor molecule, donor type, donor heavy atom, donor atom, acceptor molecule, acceptor atom, score
      L1  H    11    33       P1  7948  0.94
      L1  H    22    45       P1  8028  1.66

> <Gold.PLP.Chemscore.Internal.Correction>
0.1751

> <Gold.Rescore>
     Score         DG    S(hbond)    S(metal)    S(lipo)     H(rot)  DE(clash)    DE(int)     intcor
     16.17     -18.47       1.89        0.00      97.32       1.84       0.04       2.27       ----

> <Gold.Chemscore.Fitness>
16.1681

> <Gold.Chemscore.DG>
-18.4720

> <Gold.Chemscore.ZeroCoef>
-5.4800

> <Gold.Chemscore.Hbond>
1.8896

> <Gold.Chemscore.Metal>
0.0000

> <Gold.Chemscore.Lipo>
97.3178

> <Gold.Chemscore.Internal_Hbond>
0.0000

> <Gold.Chemscore.DEClash>
0.0362

> <Gold.Chemscore.DEInternal>
2.2678

> <Gold.Chemscore.Rot>
1.8381

> <Gold.Chemscore.Internal.Correction>
   9.000000E+99

> <Gold.Chemscore.Hbonds>
donor molecule, donor type, donor heavy atom, donor atom, acceptor molecule, acceptor atom, score
      L1  H    11    33       P1  7948  0.60
      L1  H    22    45       P1  8028  0.78

> <Gold.Chemscore.Hbond.Weighted>
-6.3113

> <Gold.Chemscore.Metal.Weighted>
-0.0000

> <Gold.Chemscore.Lipo.Weighted>
-11.3862

> <Gold.Chemscore.Internal_Hbond.Weighted>
0.0000

> <Gold.Chemscore.DEClash.Weighted>
0.0362

> <Gold.Chemscore.DEInternal.Weighted>
2.2678

> <Gold.Chemscore.Rot.Weighted>
4.7054

> <Gold.Chemscore.Internal.Correction.Weighted>
   9.000000E+99

> <Gold.Protein.RotatedTorsions>
[ 6907 6896 6895 6894 ] final   57.73 input  -60.11 | X-H torsion
[ 7974 7965 7964 7962 ] final   58.08 input  175.53 | X-H torsion
[ 8008 7997 7996 7995 ] final   -5.17 input   59.86 | X-H torsion
[ 10167 10162 10161 10158 ] final -146.83 input  -65.29 | X-H torsion
[ 10718 10713 10712 10709 ] final  111.30 input   66.30 | X-H torsion
[ 10763 10752 10751 10750 ] final  -52.22 input  -60.55 | X-H torsion
[ 11005 11000 10999 10996 ] final  -84.84 input  -57.11 | X-H torsion

> <Gold.Protein.ActiveResidues>
 VAL166  LYS551  ARG553  GLY616  TRP617  ASP618  TYR619  PRO620  LYS621  CYS622 
 ASP623  PHE694  ASN695  SER759  ASP760  ASP761  ALA762  ILE779  LEU786  VAL792 
 PHE793  MET794  SER795  GLU796  ALA797  LYS798  CYS799  TRP800  GLU811  SER814 

> <Gold.Protein.RotatedAtoms>
  152.3759  134.6664  160.0159 H   0  0  0  0  0  0  0  0  0  0  0  0  # atno 6907 bound_to 6896
  151.6943  133.3305  159.3258 H   0  0  0  0  0  0  0  0  0  0  0  0  # atno 6908 bound_to 6896
  150.7709  134.6607  159.6382 H   0  0  0  0  0  0  0  0  0  0  0  0  # atno 6909 bound_to 6896
  145.9221  139.3737  143.0472 H   0  0  0  0  0  0  0  0  0  0  0  0  # atno 7974 bound_to 7965
  154.6066  140.2465  155.7722 H   0  0  0  0  0  0  0  0  0  0  0  0  # atno 8008 bound_to 7997
  156.2345  140.2955  156.0226 H   0  0  0  0  0  0  0  0  0  0  0  0  # atno 8009 bound_to 7997
  155.2121  140.0397  157.2925 H   0  0  0  0  0  0  0  0  0  0  0  0  # atno 8010 bound_to 7997
  139.7677  143.8283  152.2619 H   0  0  0  0  0  0  0  0  0  0  0  0  # atno 10167 bound_to 10162
  157.6451  131.0948  150.6729 H   0  0  0  0  0  0  0  0  0  0  0  0  # atno 10718 bound_to 10713
  154.1392  135.6508  153.4938 H   0  0  0  0  0  0  0  0  0  0  0  0  # atno 10763 bound_to 10752
  153.0171  135.5311  154.6922 H   0  0  0  0  0  0  0  0  0  0  0  0  # atno 10764 bound_to 10752
  154.6178  135.2961  155.0330 H   0  0  0  0  0  0  0  0  0  0  0  0  # atno 10765 bound_to 10752
  141.1647  133.7367  156.8927 H   0  0  0  0  0  0  0  0  0  0  0  0  # atno 11005 bound_to 11000
  145.8537  140.9514  143.0736 LP  0  0  0  0  0  0  0  0  0  0  0  0  # atno 17320 bound_to 7965
  144.6754  140.0440  143.7480 LP  0  0  0  0  0  0  0  0  0  0  0  0  # atno 17321 bound_to 7965
  139.8308  144.7254  150.9453 LP  0  0  0  0  0  0  0  0  0  0  0  0  # atno 17342 bound_to 10162
  140.7812  143.4071  151.1052 LP  0  0  0  0  0  0  0  0  0  0  0  0  # atno 17343 bound_to 10162
  156.7047  130.4634  149.5563 LP  0  0  0  0  0  0  0  0  0  0  0  0  # atno 17370 bound_to 10713
  156.1771  130.6474  151.0907 LP  0  0  0  0  0  0  0  0  0  0  0  0  # atno 17371 bound_to 10713
  140.1637  134.9148  157.2747 LP  0  0  0  0  0  0  0  0  0  0  0  0  # atno 17394 bound_to 11000
  140.2581  134.3603  155.7416 LP  0  0  0  0  0  0  0  0  0  0  0  0  # atno 17395 bound_to 11000

$$$$
