AV-unprocessed.smi:3183|AV-procd|sdf|12157|dock1
  -GOLD-   2272017593D 1   1.00000     0.00000
 Structure written by MMmdl.
 43 44  0  0  0  0  0  0  0  0  2 V2000
  153.6053  142.2966  160.4608 C   0  0  0  0  0  0  0  0  0  0  0  0
  152.3464  142.1567  159.5892 C   0  0  2  0  0  0  0  0  0  0  0  0
  152.6075  141.2913  158.3411 C   0  0  0  0  0  0  0  0  0  0  0  0
  151.3232  141.0856  157.5230 C   0  0  0  0  0  0  0  0  0  0  0  0
  150.6781  142.4251  157.1243 C   0  0  1  0  0  0  0  0  0  0  0  0
  149.4285  142.1707  156.3732 N   0  3  0  0  0  0  0  0  0  0  0  0
  149.6047  141.5573  155.0400 C   0  0  0  0  0  0  0  0  0  0  0  0
  148.2884  140.9456  154.5383 C   0  0  0  0  0  0  0  0  0  0  0  0
  147.1187  141.8812  154.5834 C   0  0  0  0  0  0  0  0  0  0  0  0
  146.5615  142.6763  153.6188 C   0  0  0  0  0  0  0  0  0  0  0  0
  145.4802  143.3209  154.2801 C   0  0  0  0  0  0  0  0  0  0  0  0
  145.3730  142.9592  155.5463 N   0  0  0  0  0  0  0  0  0  0  0  0
  146.3773  142.0776  155.7348 N   0  0  0  0  0  0  0  0  0  0  0  0
  146.5501  141.4697  157.0402 C   0  0  0  0  0  0  0  0  0  0  0  0
  150.4239  143.2902  158.3797 C   0  0  0  0  0  0  0  0  0  0  0  0
  151.7028  143.5161  159.2144 C   0  0  2  0  0  0  0  0  0  0  0  0
  152.6660  144.5025  158.5227 C   0  0  0  0  0  0  0  0  0  0  0  0
  154.4328  142.7431  159.9090 H   0  0  0  0  0  0  0  0  0  0  0  0
  153.9411  141.3221  160.8168 H   0  0  0  0  0  0  0  0  0  0  0  0
  153.4117  142.9165  161.3367 H   0  0  0  0  0  0  0  0  0  0  0  0
  151.6152  141.6217  160.1975 H   0  0  0  0  0  0  0  0  0  0  0  0
  153.3739  141.7510  157.7163 H   0  0  0  0  0  0  0  0  0  0  0  0
  153.0031  140.3199  158.6403 H   0  0  0  0  0  0  0  0  0  0  0  0
  151.5505  140.4996  156.6315 H   0  0  0  0  0  0  0  0  0  0  0  0
  150.6163  140.4945  158.1074 H   0  0  0  0  0  0  0  0  0  0  0  0
  151.3673  142.9449  156.4574 H   0  0  0  0  0  0  0  0  0  0  0  0
  148.8692  141.5343  156.9232 H   0  0  0  0  0  0  0  0  0  0  0  0
  149.9523  142.3105  154.3331 H   0  0  0  0  0  0  0  0  0  0  0  0
  150.3727  140.7847  155.0982 H   0  0  0  0  0  0  0  0  0  0  0  0
  148.4235  140.5975  153.5136 H   0  0  0  0  0  0  0  0  0  0  0  0
  148.0562  140.0606  155.1320 H   0  0  0  0  0  0  0  0  0  0  0  0
  146.8758  142.7845  152.5914 H   0  0  0  0  0  0  0  0  0  0  0  0
  144.7749  144.0347  153.8804 H   0  0  0  0  0  0  0  0  0  0  0  0
  147.5885  141.5640  157.3577 H   0  0  0  0  0  0  0  0  0  0  0  0
  146.2866  140.4131  156.9891 H   0  0  0  0  0  0  0  0  0  0  0  0
  145.9133  141.9573  157.7796 H   0  0  0  0  0  0  0  0  0  0  0  0
  150.0014  144.2568  158.1054 H   0  0  0  0  0  0  0  0  0  0  0  0
  149.6742  142.8028  159.0049 H   0  0  0  0  0  0  0  0  0  0  0  0
  151.3925  143.9958  160.1437 H   0  0  0  0  0  0  0  0  0  0  0  0
  153.0903  144.0929  157.6068 H   0  0  0  0  0  0  0  0  0  0  0  0
  153.4942  144.7763  159.1761 H   0  0  0  0  0  0  0  0  0  0  0  0
  152.1525  145.4277  158.2604 H   0  0  0  0  0  0  0  0  0  0  0  0
  148.9218  143.0392  156.2765 H   0  0  0  0  0  0  0  0  0  0  0  0
  1  2  1  0  0  0  0
  1 18  1  0  0  0  0
  1 19  1  0  0  0  0
  1 20  1  0  0  0  0
  2 16  1  0  0  0  0
  2  3  1  0  0  0  0
  2 21  1  0  0  0  0
  3  4  1  0  0  0  0
  3 22  1  0  0  0  0
  3 23  1  0  0  0  0
  4  5  1  0  0  0  0
  4 24  1  0  0  0  0
  4 25  1  0  0  0  0
  5  6  1  0  0  0  0
  5 15  1  0  0  0  0
  5 26  1  0  0  0  0
  6  7  1  0  0  0  0
  6 27  1  0  0  0  0
  6 43  1  0  0  0  0
  7  8  1  0  0  0  0
  7 28  1  0  0  0  0
  7 29  1  0  0  0  0
  8  9  1  0  0  0  0
  8 30  1  0  0  0  0
  8 31  1  0  0  0  0
  9 13  1  0  0  0  0
  9 10  2  0  0  0  0
 10 11  1  0  0  0  0
 10 32  1  0  0  0  0
 11 12  2  0  0  0  0
 11 33  1  0  0  0  0
 12 13  1  0  0  0  0
 13 14  1  0  0  0  0
 14 34  1  0  0  0  0
 14 35  1  0  0  0  0
 14 36  1  0  0  0  0
 15 16  1  0  0  0  0
 15 37  1  0  0  0  0
 15 38  1  0  0  0  0
 16 17  1  0  0  0  0
 16 39  1  0  0  0  0
 17 40  1  0  0  0  0
 17 41  1  0  0  0  0
 17 42  1  0  0  0  0
M  CHG  1   6   1
M  END
> <s_m_source_file>
AV-unprocessed.smi

> <i_m_source_file_index>
3183

> <i_lp_mmshare_version>
43012

> <i_f3d_flags>
0

> <s_epik_input>
W0NIM11bQ0BASF0xW0NIMl1bQ0gyXVtDQEhdKFtDSDJdW0NASF0xW0NIM10pW05IXVtDSDJdW0NIMl1jMltjSF1bY0hdbm4yW0NIM10=

> <s_epik_cmdline>
J2VwaWtfcHl0aG9uJywgJy1waCcsICc3LjAnLCAnLXRuJywgJzgnLCAnLW1hJywgJzIwMCcsICctbWV0YWxfYmluZGluZycsICctaW1hZScsICc8aW5maWxlLm1hZT4nLCAnLW9tYWUnLCAnPG91dGZpbGUubWFlPic=

> <r_lp_tautomer_probability>
1

> <r_epik_Ionization_Penalty>
0.000327718

> <r_epik_Ionization_Penalty_Charging>
0.000294043

> <r_epik_Ionization_Penalty_Neutral>
3.36755e-05

> <r_epik_State_Penalty>
-0

> <r_epik_Charging_Adjusted_Penalty>
0.000294043

> <i_epik_Tot_Q>
1

> <i_epik_Tot_abs_Q>
1

> <r_epik_Metal_State_Penalty>
-0

> <b_epik_Metal_Only>
0

> <s_lp_Force_Field>
OPLS_2005

> <r_lp_Energy>
13.9597

> <b_lp_Chiralities_Consistent>
1

> <s_lp_Variant>
AV-unprocessed.smi:3183-5

> <Gold.Version>
5.8.1

> <Gold.Id.Protein>
6NUR|6NUR_protein|mol2

> <Gold.PLP.Fitness>
45.1841

> <Gold.PLP.PLP>
-40.0714

> <Gold.PLP.part.hbond>
-1.0000

> <Gold.PLP.part.metal>
0.0000

> <Gold.PLP.part.buried>
-6.1166

> <Gold.PLP.part.nonpolar>
-33.7932

> <Gold.PLP.part.repulsive>
0.2413

> <Gold.PLP.ligand.clash>
0.0000

> <Gold.PLP.ligand.torsion>
0.4673

> <Gold.PLP.Chemscore.Hbond>
2.0000

> <Gold.PLP.Chemscore.CHOScore>
0.0000

> <Gold.PLP.Chemscore.Metal>
0.0000

> <Gold.Chemscore.Hbonds>
donor molecule, donor type, donor heavy atom, donor atom, acceptor molecule, acceptor atom, score
      L1  H     6    43       P1  8028  1.95

> <Gold.PLP.Chemscore.Internal.Correction>
0.0474

> <Gold.Rescore>
     Score         DG    S(hbond)    S(metal)    S(lipo)     H(rot)  DE(clash)    DE(int)     intcor
     17.76     -18.35       0.99        0.00     111.94       1.38       0.11       0.48       ----

> <Gold.Chemscore.Fitness>
17.7582

> <Gold.Chemscore.DG>
-18.3476

> <Gold.Chemscore.ZeroCoef>
-5.4800

> <Gold.Chemscore.Hbond>
0.9866

> <Gold.Chemscore.Metal>
0.0000

> <Gold.Chemscore.Lipo>
111.9424

> <Gold.Chemscore.Internal_Hbond>
0.0000

> <Gold.Chemscore.DEClash>
0.1108

> <Gold.Chemscore.DEInternal>
0.4787

> <Gold.Chemscore.Rot>
1.3768

> <Gold.Chemscore.Internal.Correction>
   9.000000E+99

> <Gold.Chemscore.Hbonds>
donor molecule, donor type, donor heavy atom, donor atom, acceptor molecule, acceptor atom, score
      L1  H     6    43       P1  8028  0.93

> <Gold.Chemscore.Hbond.Weighted>
-3.2951

> <Gold.Chemscore.Metal.Weighted>
-0.0000

> <Gold.Chemscore.Lipo.Weighted>
-13.0973

> <Gold.Chemscore.Internal_Hbond.Weighted>
0.0000

> <Gold.Chemscore.DEClash.Weighted>
0.1108

> <Gold.Chemscore.DEInternal.Weighted>
0.4787

> <Gold.Chemscore.Rot.Weighted>
3.5247

> <Gold.Chemscore.Internal.Correction.Weighted>
   9.000000E+99

> <Gold.Protein.RotatedTorsions>
[ 6907 6896 6895 6894 ] final -144.52 input  -60.11 | X-H torsion
[ 7974 7965 7964 7962 ] final -124.94 input  175.53 | X-H torsion
[ 8008 7997 7996 7995 ] final   89.80 input   59.86 | X-H torsion
[ 10167 10162 10161 10158 ] final    4.34 input  -65.29 | X-H torsion
[ 10718 10713 10712 10709 ] final  149.13 input   66.30 | X-H torsion
[ 10763 10752 10751 10750 ] final   91.93 input  -60.55 | X-H torsion
[ 11005 11000 10999 10996 ] final   -8.19 input  -57.11 | X-H torsion

> <Gold.Protein.ActiveResidues>
 VAL166  LYS551  ARG553  GLY616  TRP617  ASP618  TYR619  PRO620  LYS621  CYS622 
 ASP623  PHE694  ASN695  SER759  ASP760  ASP761  ALA762  ILE779  LEU786  VAL792 
 PHE793  MET794  SER795  GLU796  ALA797  LYS798  CYS799  TRP800  GLU811  SER814 

> <Gold.Protein.RotatedAtoms>
  151.1152  133.5143  159.2603 H   0  0  0  0  0  0  0  0  0  0  0  0  # atno 6907 bound_to 6896
  151.1922  135.0407  159.8847 H   0  0  0  0  0  0  0  0  0  0  0  0  # atno 6908 bound_to 6896
  152.5452  134.0991  159.8363 H   0  0  0  0  0  0  0  0  0  0  0  0  # atno 6909 bound_to 6896
  145.0028  140.7836  143.4486 H   0  0  0  0  0  0  0  0  0  0  0  0  # atno 7974 bound_to 7965
  156.0044  140.3356  155.6877 H   0  0  0  0  0  0  0  0  0  0  0  0  # atno 8008 bound_to 7997
  155.6246  140.0678  157.2685 H   0  0  0  0  0  0  0  0  0  0  0  0  # atno 8009 bound_to 7997
  154.4260  140.1770  156.1395 H   0  0  0  0  0  0  0  0  0  0  0  0  # atno 8010 bound_to 7997
  140.6540  143.7475  150.7622 H   0  0  0  0  0  0  0  0  0  0  0  0  # atno 10167 bound_to 10162
  157.3000  131.0869  151.1397 H   0  0  0  0  0  0  0  0  0  0  0  0  # atno 10718 bound_to 10713
  153.2136  135.4380  155.0408 H   0  0  0  0  0  0  0  0  0  0  0  0  # atno 10763 bound_to 10752
  154.8213  135.3339  154.7032 H   0  0  0  0  0  0  0  0  0  0  0  0  # atno 10764 bound_to 10752
  153.7468  135.7001  153.5010 H   0  0  0  0  0  0  0  0  0  0  0  0  # atno 10765 bound_to 10752
  140.7208  133.8830  155.8819 H   0  0  0  0  0  0  0  0  0  0  0  0  # atno 11005 bound_to 11000
  145.2129  139.2196  143.5133 LP  0  0  0  0  0  0  0  0  0  0  0  0  # atno 17320 bound_to 7965
  146.3455  140.1971  142.8589 LP  0  0  0  0  0  0  0  0  0  0  0  0  # atno 17321 bound_to 7965
  140.1131  143.4681  152.2358 LP  0  0  0  0  0  0  0  0  0  0  0  0  # atno 17342 bound_to 10162
  139.5759  144.7487  151.3767 LP  0  0  0  0  0  0  0  0  0  0  0  0  # atno 17343 bound_to 10162
  157.2760  130.6727  149.6042 LP  0  0  0  0  0  0  0  0  0  0  0  0  # atno 17370 bound_to 10713
  155.9671  130.4464  150.5540 LP  0  0  0  0  0  0  0  0  0  0  0  0  # atno 17371 bound_to 10713
  141.0005  134.1157  157.4322 LP  0  0  0  0  0  0  0  0  0  0  0  0  # atno 17394 bound_to 11000
  139.8848  135.0067  156.6397 LP  0  0  0  0  0  0  0  0  0  0  0  0  # atno 17395 bound_to 11000

$$$$
