AV-unprocessed.smi:1538|AV-procd|sdf|6193|dock6
  -GOLD-   22720 6363D 1   1.00000     0.00000
 Structure written by MMmdl.
 37 38  0  0  0  0  0  0  0  0  2 V2000
  153.0943  142.9094  160.7481 C   0  0  0  0  0  0  0  0  0  0  0  0
  152.4029  142.5862  159.4992 N   0  0  0  0  0  0  0  0  0  0  0  0
  152.1513  141.1543  159.2842 C   0  0  0  0  0  0  0  0  0  0  0  0
  151.8227  140.8002  157.8281 C   0  0  0  0  0  0  0  0  0  0  0  0
  150.7632  141.7641  157.2792 C   0  0  2  0  0  0  0  0  0  0  0  0
  150.3735  141.3805  155.8448 C   0  0  0  0  0  0  0  0  0  0  0  0
  150.9275  140.4377  155.2786 O   0  0  0  0  0  0  0  0  0  0  0  0
  149.4126  142.1162  155.2675 N   0  0  0  0  0  0  0  0  0  0  0  0
  148.9076  141.8918  153.9205 C   0  0  0  0  0  0  0  0  0  0  0  0
  147.4220  141.5097  153.9548 C   0  0  0  0  0  0  0  0  0  0  0  0
  147.2324  140.0657  153.8040 N   0  0  0  0  0  0  0  0  0  0  0  0
  146.0936  139.3464  154.0615 C   0  0  0  0  0  0  0  0  0  0  0  0
  146.3841  138.0381  153.7715 C   0  0  0  0  0  0  0  0  0  0  0  0
  147.6867  138.0143  153.3499 N   0  3  0  0  0  0  0  0  0  0  0  0
  148.2006  139.2487  153.3694 C   0  0  0  0  0  0  0  0  0  0  0  0
  151.2968  143.2094  157.3430 C   0  0  0  0  0  0  0  0  0  0  0  0
  151.9861  143.5730  158.6691 C   0  0  0  0  0  0  0  0  0  0  0  0
  152.1638  144.7656  158.9196 O   0  0  0  0  0  0  0  0  0  0  0  0
  152.5323  143.6423  161.3292 H   0  0  0  0  0  0  0  0  0  0  0  0
  154.0811  143.3238  160.5380 H   0  0  0  0  0  0  0  0  0  0  0  0
  153.2299  142.0322  161.3819 H   0  0  0  0  0  0  0  0  0  0  0  0
  153.0149  140.5699  159.6049 H   0  0  0  0  0  0  0  0  0  0  0  0
  151.3200  140.8604  159.9264 H   0  0  0  0  0  0  0  0  0  0  0  0
  152.7323  140.8588  157.2279 H   0  0  0  0  0  0  0  0  0  0  0  0
  151.4769  139.7674  157.7690 H   0  0  0  0  0  0  0  0  0  0  0  0
  149.8750  141.6951  157.9105 H   0  0  0  0  0  0  0  0  0  0  0  0
  149.0058  142.8741  155.7966 H   0  0  0  0  0  0  0  0  0  0  0  0
  149.0488  142.7961  153.3261 H   0  0  0  0  0  0  0  0  0  0  0  0
  149.4880  141.0990  153.4457 H   0  0  0  0  0  0  0  0  0  0  0  0
  146.9610  141.8216  154.8935 H   0  0  0  0  0  0  0  0  0  0  0  0
  146.8774  142.0029  153.1485 H   0  0  0  0  0  0  0  0  0  0  0  0
  145.1845  139.8069  154.4208 H   0  0  0  0  0  0  0  0  0  0  0  0
  145.7772  137.1462  153.8312 H   0  0  0  0  0  0  0  0  0  0  0  0
  149.2004  139.5290  153.0884 H   0  0  0  0  0  0  0  0  0  0  0  0
  152.0258  143.3829  156.5498 H   0  0  0  0  0  0  0  0  0  0  0  0
  150.4798  143.9111  157.1687 H   0  0  0  0  0  0  0  0  0  0  0  0
  148.1902  137.1841  153.0632 H   0  0  0  0  0  0  0  0  0  0  0  0
  1  2  1  0  0  0  0
  1 19  1  0  0  0  0
  1 20  1  0  0  0  0
  1 21  1  0  0  0  0
  2 17  1  0  0  0  0
  2  3  1  0  0  0  0
  3  4  1  0  0  0  0
  3 22  1  0  0  0  0
  3 23  1  0  0  0  0
  4  5  1  0  0  0  0
  4 24  1  0  0  0  0
  4 25  1  0  0  0  0
  5  6  1  0  0  0  0
  5 16  1  0  0  0  0
  5 26  1  0  0  0  0
  6  7  2  0  0  0  0
  6  8  1  0  0  0  0
  8  9  1  0  0  0  0
  8 27  1  0  0  0  0
  9 10  1  0  0  0  0
  9 28  1  0  0  0  0
  9 29  1  0  0  0  0
 10 11  1  0  0  0  0
 10 30  1  0  0  0  0
 10 31  1  0  0  0  0
 11 15  1  0  0  0  0
 11 12  1  0  0  0  0
 12 13  2  0  0  0  0
 12 32  1  0  0  0  0
 13 14  1  0  0  0  0
 13 33  1  0  0  0  0
 14 15  2  0  0  0  0
 14 37  1  0  0  0  0
 15 34  1  0  0  0  0
 16 17  1  0  0  0  0
 16 35  1  0  0  0  0
 16 36  1  0  0  0  0
 17 18  2  0  0  0  0
M  CHG  1  14   1
M  END
> <s_m_source_file>
AV-unprocessed.smi

> <i_m_source_file_index>
1538

> <i_lp_mmshare_version>
43012

> <i_f3d_flags>
0

> <s_epik_input>
W0NIM11OMVtDSDJdW0NIMl1bQ0BIXShbQ0gyXUMxPU8pQyg9TylbTkhdW0NIMl1bQ0gyXW4yW2NIXVtjSF1uW2NIXTI=

> <s_epik_cmdline>
J2VwaWtfcHl0aG9uJywgJy1waCcsICc3LjAnLCAnLXRuJywgJzgnLCAnLW1hJywgJzIwMCcsICctbWV0YWxfYmluZGluZycsICctaW1hZScsICc8aW5maWxlLm1hZT4nLCAnLW9tYWUnLCAnPG91dGZpbGUubWFlPic=

> <r_lp_tautomer_probability>
1

> <r_epik_Ionization_Penalty>
0.272873

> <r_epik_Ionization_Penalty_Charging>
0

> <r_epik_Ionization_Penalty_Neutral>
0.272873

> <r_epik_State_Penalty>
0.265096

> <r_epik_Charging_Adjusted_Penalty>
0.265096

> <i_epik_Tot_Q>
1

> <i_epik_Tot_abs_Q>
1

> <r_epik_Metal_State_Penalty>
0.549113

> <b_epik_Metal_Only>
0

> <s_lp_Force_Field>
OPLS_2005

> <r_lp_Energy>
17.9959

> <b_lp_Chiralities_Consistent>
1

> <s_lp_Variant>
AV-unprocessed.smi:1538-2

> <Gold.Version>
5.8.1

> <Gold.Id.Protein>
6NUR|6NUR_protein|mol2

> <Gold.PLP.Fitness>
47.8016

> <Gold.PLP.PLP>
-33.2375

> <Gold.PLP.part.hbond>
-3.0000

> <Gold.PLP.part.metal>
0.0000

> <Gold.PLP.part.buried>
1.3838

> <Gold.PLP.part.nonpolar>
-31.3102

> <Gold.PLP.part.repulsive>
0.2922

> <Gold.PLP.ligand.clash>
0.0000

> <Gold.PLP.ligand.torsion>
0.4839

> <Gold.PLP.Chemscore.Hbond>
3.7520

> <Gold.PLP.Chemscore.CHOScore>
1.4191

> <Gold.PLP.Chemscore.Metal>
0.0000

> <Gold.Chemscore.Hbonds>
donor molecule, donor type, donor heavy atom, donor atom, acceptor molecule, acceptor atom, score
      L1  H     8    27       P1  8028  0.75
      L1  H    14    37       P1  7948  2.00
      P1  H  7989  7998       L1     7  1.00
      L1  C    12    32       P1 10175  0.61
      L1  C    15    34       P1  7957  0.80

> <Gold.PLP.Chemscore.Internal.Correction>
0.0186

> <Gold.Rescore>
     Score         DG    S(hbond)    S(metal)    S(lipo)     H(rot)  DE(clash)    DE(int)     intcor
     13.88     -16.40       2.55        0.00      65.27       2.05       2.03       0.49       ----

> <Gold.Chemscore.Fitness>
13.8789

> <Gold.Chemscore.DG>
-16.4046

> <Gold.Chemscore.ZeroCoef>
-5.4800

> <Gold.Chemscore.Hbond>
2.5539

> <Gold.Chemscore.Metal>
0.0000

> <Gold.Chemscore.Lipo>
65.2732

> <Gold.Chemscore.Internal_Hbond>
0.0000

> <Gold.Chemscore.DEClash>
2.0330

> <Gold.Chemscore.DEInternal>
0.4927

> <Gold.Chemscore.Rot>
2.0478

> <Gold.Chemscore.Internal.Correction>
   9.000000E+99

> <Gold.Chemscore.Hbonds>
donor molecule, donor type, donor heavy atom, donor atom, acceptor molecule, acceptor atom, score
      L1  H     8    27       P1  8028  0.74
      L1  H    14    37       P1  7948  0.95
      P1  H  7989  7998       L1     7  0.83

> <Gold.Chemscore.Hbond.Weighted>
-8.5299

> <Gold.Chemscore.Metal.Weighted>
-0.0000

> <Gold.Chemscore.Lipo.Weighted>
-7.6370

> <Gold.Chemscore.Internal_Hbond.Weighted>
0.0000

> <Gold.Chemscore.DEClash.Weighted>
2.0330

> <Gold.Chemscore.DEInternal.Weighted>
0.4927

> <Gold.Chemscore.Rot.Weighted>
5.2423

> <Gold.Chemscore.Internal.Correction.Weighted>
   9.000000E+99

> <Gold.Protein.RotatedTorsions>
[ 6907 6896 6895 6894 ] final  -31.42 input  -60.11 | X-H torsion
[ 7974 7965 7964 7962 ] final   72.25 input  175.53 | X-H torsion
[ 8008 7997 7996 7995 ] final  -92.91 input   59.86 | X-H torsion
[ 10167 10162 10161 10158 ] final   -7.24 input  -65.29 | X-H torsion
[ 10718 10713 10712 10709 ] final -151.97 input   66.30 | X-H torsion
[ 10763 10752 10751 10750 ] final  -48.90 input  -60.55 | X-H torsion
[ 11005 11000 10999 10996 ] final -107.16 input  -57.11 | X-H torsion

> <Gold.Protein.ActiveResidues>
 VAL166  LYS551  ARG553  GLY616  TRP617  ASP618  TYR619  PRO620  LYS621  CYS622 
 ASP623  PHE694  ASN695  SER759  ASP760  ASP761  ALA762  ILE779  LEU786  VAL792 
 PHE793  MET794  SER795  GLU796  ALA797  LYS798  CYS799  TRP800  GLU811  SER814 

> <Gold.Protein.RotatedAtoms>
  151.0923  134.9923  159.8408 H   0  0  0  0  0  0  0  0  0  0  0  0  # atno 6907 bound_to 6896
  152.5430  134.2050  159.8737 H   0  0  0  0  0  0  0  0  0  0  0  0  # atno 6908 bound_to 6896
  151.2087  133.4524  159.2631 H   0  0  0  0  0  0  0  0  0  0  0  0  # atno 6909 bound_to 6896
  145.7557  139.2779  143.1405 H   0  0  0  0  0  0  0  0  0  0  0  0  # atno 7974 bound_to 7965
  154.7290  140.0504  157.0709 H   0  0  0  0  0  0  0  0  0  0  0  0  # atno 8008 bound_to 7997
  155.0327  140.3159  155.4733 H   0  0  0  0  0  0  0  0  0  0  0  0  # atno 8009 bound_to 7997
  156.2836  140.2147  156.5448 H   0  0  0  0  0  0  0  0  0  0  0  0  # atno 8010 bound_to 7997
  140.7022  143.6103  150.8710 H   0  0  0  0  0  0  0  0  0  0  0  0  # atno 10167 bound_to 10162
  156.4663  130.8237  151.2467 H   0  0  0  0  0  0  0  0  0  0  0  0  # atno 10718 bound_to 10713
  154.0854  135.6585  153.4844 H   0  0  0  0  0  0  0  0  0  0  0  0  # atno 10763 bound_to 10752
  153.0341  135.5190  154.7433 H   0  0  0  0  0  0  0  0  0  0  0  0  # atno 10764 bound_to 10752
  154.6540  135.3005  154.9919 H   0  0  0  0  0  0  0  0  0  0  0  0  # atno 10765 bound_to 10752
  141.0968  133.8956  157.1942 H   0  0  0  0  0  0  0  0  0  0  0  0  # atno 11005 bound_to 11000
  146.0313  140.8255  142.9874 LP  0  0  0  0  0  0  0  0  0  0  0  0  # atno 17320 bound_to 7965
  144.6840  140.2773  143.7297 LP  0  0  0  0  0  0  0  0  0  0  0  0  # atno 17321 bound_to 7965
  139.9826  143.5934  152.2937 LP  0  0  0  0  0  0  0  0  0  0  0  0  # atno 17342 bound_to 10162
  139.6561  144.7662  151.2053 LP  0  0  0  0  0  0  0  0  0  0  0  0  # atno 17343 bound_to 10162
  157.7494  131.0091  150.3253 LP  0  0  0  0  0  0  0  0  0  0  0  0  # atno 17370 bound_to 10713
  156.3664  130.3856  149.7210 LP  0  0  0  0  0  0  0  0  0  0  0  0  # atno 17371 bound_to 10713
  139.9807  135.0099  156.9743 LP  0  0  0  0  0  0  0  0  0  0  0  0  # atno 17394 bound_to 11000
  140.5120  134.0993  155.7272 LP  0  0  0  0  0  0  0  0  0  0  0  0  # atno 17395 bound_to 11000

$$$$
