AV-unprocessed.smi:2073|AV-procd|sdf|8450|dock2
  -GOLD-   2272011143D 1   1.00000     0.00000
 Structure written by MMmdl.
 28 28  0  0  0  0  0  0  0  0  1 V2000
  152.3844  144.5773  157.7338 C   0  0  0  0  0  0  0  0  0  0  0  0
  151.6244  143.6062  158.6526 C   0  0  0  0  0  0  0  0  0  0  0  0
  152.4531  143.2540  159.8988 C   0  0  0  0  0  0  0  0  0  0  0  0
  151.2242  142.3360  157.8894 C   0  0  0  0  0  0  0  0  0  0  0  0
  151.6609  141.2436  158.2546 O   0  0  0  0  0  0  0  0  0  0  0  0
  150.3971  142.5160  156.8420 N   0  0  0  0  0  0  0  0  0  0  0  0
  149.8753  141.5384  155.9551 C   0  0  0  0  0  0  0  0  0  0  0  0
  148.6784  141.6200  155.3639 N   0  0  0  0  0  0  0  0  0  0  0  0
  148.4105  140.5124  154.5523 C   0  0  0  0  0  0  0  0  0  0  0  0
  147.1076  140.4248  153.8120 C   0  0  0  0  0  0  0  0  0  0  0  0
  146.8930  139.0059  153.2814 C   0  0  0  0  0  0  0  0  0  0  0  0
  147.6794  138.6043  152.2788 N   0  0  0  0  0  0  0  0  0  0  0  0
  146.0307  138.2803  153.7721 O   0  0  0  0  0  0  0  0  0  0  0  0
  149.4357  139.5976  154.5303 C   0  0  0  0  0  0  0  0  0  0  0  0
  150.7719  140.0866  155.5377 S   0  0  0  0  0  0  0  0  0  0  0  0
  151.8019  144.8207  156.8442 H   0  0  0  0  0  0  0  0  0  0  0  0
  153.3365  144.1584  157.4049 H   0  0  0  0  0  0  0  0  0  0  0  0
  152.5980  145.5140  158.2493 H   0  0  0  0  0  0  0  0  0  0  0  0
  150.7149  144.1079  158.9878 H   0  0  0  0  0  0  0  0  0  0  0  0
  151.9182  142.5599  160.5483 H   0  0  0  0  0  0  0  0  0  0  0  0
  152.6713  144.1469  160.4850 H   0  0  0  0  0  0  0  0  0  0  0  0
  153.4057  142.7942  159.6320 H   0  0  0  0  0  0  0  0  0  0  0  0
  150.1153  143.4669  156.6536 H   0  0  0  0  0  0  0  0  0  0  0  0
  146.2733  140.7029  154.4578 H   0  0  0  0  0  0  0  0  0  0  0  0
  147.0937  141.1248  152.9757 H   0  0  0  0  0  0  0  0  0  0  0  0
  147.5799  137.6717  151.9038 H   0  0  0  0  0  0  0  0  0  0  0  0
  148.3776  139.2310  151.9060 H   0  0  0  0  0  0  0  0  0  0  0  0
  149.4825  138.6659  153.9863 H   0  0  0  0  0  0  0  0  0  0  0  0
  1  2  1  0  0  0  0
  1 16  1  0  0  0  0
  1 17  1  0  0  0  0
  1 18  1  0  0  0  0
  2  3  1  0  0  0  0
  2  4  1  0  0  0  0
  2 19  1  0  0  0  0
  3 20  1  0  0  0  0
  3 21  1  0  0  0  0
  3 22  1  0  0  0  0
  4  5  2  0  0  0  0
  4  6  1  0  0  0  0
  6  7  1  0  0  0  0
  6 23  1  0  0  0  0
  7 15  1  0  0  0  0
  7  8  2  0  0  0  0
  8  9  1  0  0  0  0
  9 10  1  0  0  0  0
  9 14  2  0  0  0  0
 10 11  1  0  0  0  0
 10 24  1  0  0  0  0
 10 25  1  0  0  0  0
 11 12  1  0  0  0  0
 11 13  2  0  0  0  0
 12 26  1  0  0  0  0
 12 27  1  0  0  0  0
 14 15  1  0  0  0  0
 14 28  1  0  0  0  0
M  END
> <s_m_source_file>
AV-unprocessed.smi

> <i_m_source_file_index>
2073

> <i_lp_mmshare_version>
43012

> <i_f3d_flags>
0

> <s_epik_input>
W0NIM11bQ0hdKFtDSDNdKUMoPU8pW05IXWMxbmMoW2NIXXMxKVtDSDJdQyg9TylbTkgyXQ==

> <s_epik_cmdline>
J2VwaWtfcHl0aG9uJywgJy1waCcsICc3LjAnLCAnLXRuJywgJzgnLCAnLW1hJywgJzIwMCcsICctbWV0YWxfYmluZGluZycsICctaW1hZScsICc8aW5maWxlLm1hZT4nLCAnLW9tYWUnLCAnPG91dGZpbGUubWFlPic=

> <r_lp_tautomer_probability>
1

> <r_epik_Ionization_Penalty>
0.000158353

> <r_epik_Ionization_Penalty_Charging>
0

> <r_epik_Ionization_Penalty_Neutral>
0.000158353

> <r_epik_State_Penalty>
-0

> <r_epik_Charging_Adjusted_Penalty>
0

> <i_epik_Tot_Q>
0

> <i_epik_Tot_abs_Q>
0

> <r_epik_Metal_State_Penalty>
0.0986865

> <b_epik_Metal_Only>
0

> <s_lp_Force_Field>
OPLS_2005

> <r_lp_Energy>
2.86857

> <b_lp_Chiralities_Consistent>
1

> <s_lp_Variant>
AV-unprocessed.smi:2073-1

> <Gold.Version>
5.8.1

> <Gold.Id.Protein>
6NUR|6NUR_protein|mol2

> <Gold.PLP.Fitness>
38.0599

> <Gold.PLP.PLP>
-31.3071

> <Gold.PLP.part.hbond>
-2.8997

> <Gold.PLP.part.metal>
0.0000

> <Gold.PLP.part.buried>
-3.8947

> <Gold.PLP.part.nonpolar>
-25.3109

> <Gold.PLP.part.repulsive>
0.6175

> <Gold.PLP.ligand.clash>
0.0000

> <Gold.PLP.ligand.torsion>
0.5054

> <Gold.PLP.Chemscore.Hbond>
2.5593

> <Gold.PLP.Chemscore.CHOScore>
0.0216

> <Gold.PLP.Chemscore.Metal>
0.0000

> <Gold.Chemscore.Hbonds>
donor molecule, donor type, donor heavy atom, donor atom, acceptor molecule, acceptor atom, score
      L1  H     6    23       P1  8028  0.98
      L1  H    12    26       P1  7948  0.54
      L1  H    12    27       P1  7957  1.00

> <Gold.PLP.Chemscore.Internal.Correction>
0.0210

> <Gold.Rescore>
     Score         DG    S(hbond)    S(metal)    S(lipo)     H(rot)  DE(clash)    DE(int)     intcor
     14.94     -16.92       2.64        0.00      64.81       1.93       0.15       1.84       ----

> <Gold.Chemscore.Fitness>
14.9363

> <Gold.Chemscore.DG>
-16.9232

> <Gold.Chemscore.ZeroCoef>
-5.4800

> <Gold.Chemscore.Hbond>
2.6369

> <Gold.Chemscore.Metal>
0.0000

> <Gold.Chemscore.Lipo>
64.8096

> <Gold.Chemscore.Internal_Hbond>
0.0000

> <Gold.Chemscore.DEClash>
0.1499

> <Gold.Chemscore.DEInternal>
1.8370

> <Gold.Chemscore.Rot>
1.9323

> <Gold.Chemscore.Internal.Correction>
   9.000000E+99

> <Gold.Chemscore.Hbonds>
donor molecule, donor type, donor heavy atom, donor atom, acceptor molecule, acceptor atom, score
      L1  H     6    23       P1  8028  0.89
      L1  H    12    26       P1  7948  0.55
      L1  H    12    27       P1  7957  0.99

> <Gold.Chemscore.Hbond.Weighted>
-8.8073

> <Gold.Chemscore.Metal.Weighted>
-0.0000

> <Gold.Chemscore.Lipo.Weighted>
-7.5827

> <Gold.Chemscore.Internal_Hbond.Weighted>
0.0000

> <Gold.Chemscore.DEClash.Weighted>
0.1499

> <Gold.Chemscore.DEInternal.Weighted>
1.8370

> <Gold.Chemscore.Rot.Weighted>
4.9468

> <Gold.Chemscore.Internal.Correction.Weighted>
   9.000000E+99

> <Gold.Protein.RotatedTorsions>
[ 6907 6896 6895 6894 ] final -148.63 input  -60.11 | X-H torsion
[ 7974 7965 7964 7962 ] final  -54.02 input  175.53 | X-H torsion
[ 8008 7997 7996 7995 ] final  167.48 input   59.86 | X-H torsion
[ 10167 10162 10161 10158 ] final  119.00 input  -65.29 | X-H torsion
[ 10718 10713 10712 10709 ] final  111.76 input   66.30 | X-H torsion
[ 10763 10752 10751 10750 ] final   53.98 input  -60.55 | X-H torsion
[ 11005 11000 10999 10996 ] final -176.17 input  -57.11 | X-H torsion

> <Gold.Protein.ActiveResidues>
 VAL166  LYS551  ARG553  GLY616  TRP617  ASP618  TYR619  PRO620  LYS621  CYS622 
 ASP623  PHE694  ASN695  SER759  ASP760  ASP761  ALA762  ILE779  LEU786  VAL792 
 PHE793  MET794  SER795  GLU796  ALA797  LYS798  CYS799  TRP800  GLU811  SER814 

> <Gold.Protein.RotatedAtoms>
  151.1725  133.4775  159.2593 H   0  0  0  0  0  0  0  0  0  0  0  0  # atno 6907 bound_to 6896
  151.1341  135.0145  159.8606 H   0  0  0  0  0  0  0  0  0  0  0  0  # atno 6908 bound_to 6896
  152.5461  134.1625  159.8617 H   0  0  0  0  0  0  0  0  0  0  0  0  # atno 6909 bound_to 6896
  145.8903  140.8076  142.9795 H   0  0  0  0  0  0  0  0  0  0  0  0  # atno 7974 bound_to 7965
  156.1630  140.1616  156.8579 H   0  0  0  0  0  0  0  0  0  0  0  0  # atno 8008 bound_to 7997
  154.5179  140.0785  156.8152 H   0  0  0  0  0  0  0  0  0  0  0  0  # atno 8009 bound_to 7997
  155.3668  140.3398  155.4244 H   0  0  0  0  0  0  0  0  0  0  0  0  # atno 8010 bound_to 7997
  139.6074  144.7073  151.2921 H   0  0  0  0  0  0  0  0  0  0  0  0  # atno 10167 bound_to 10162
  157.6428  131.0956  150.6796 H   0  0  0  0  0  0  0  0  0  0  0  0  # atno 10718 bound_to 10713
  152.9800  135.5760  154.4830 H   0  0  0  0  0  0  0  0  0  0  0  0  # atno 10763 bound_to 10752
  154.4376  135.2775  155.1872 H   0  0  0  0  0  0  0  0  0  0  0  0  # atno 10764 bound_to 10752
  154.3554  135.6200  153.5717 H   0  0  0  0  0  0  0  0  0  0  0  0  # atno 10765 bound_to 10752
  140.4551  134.6307  157.4818 H   0  0  0  0  0  0  0  0  0  0  0  0  # atno 11005 bound_to 11000
  144.6730  140.1519  143.7429 LP  0  0  0  0  0  0  0  0  0  0  0  0  # atno 17320 bound_to 7965
  145.8916  139.2379  143.1546 LP  0  0  0  0  0  0  0  0  0  0  0  0  # atno 17321 bound_to 7965
  140.7295  143.6906  150.7925 LP  0  0  0  0  0  0  0  0  0  0  0  0  # atno 17342 bound_to 10162
  140.0495  143.5264  152.2680 LP  0  0  0  0  0  0  0  0  0  0  0  0  # atno 17343 bound_to 10162
  156.7118  130.4654  149.5545 LP  0  0  0  0  0  0  0  0  0  0  0  0  # atno 17370 bound_to 10713
  156.1725  130.6446  151.0854 LP  0  0  0  0  0  0  0  0  0  0  0  0  # atno 17371 bound_to 10713
  139.9981  134.6879  155.9575 LP  0  0  0  0  0  0  0  0  0  0  0  0  # atno 17394 bound_to 11000
  141.1646  133.6537  156.4436 LP  0  0  0  0  0  0  0  0  0  0  0  0  # atno 17395 bound_to 11000

$$$$
