AV-unprocessed.smi:1809|AV-procd|sdf|7309|dock2
  -GOLD-   22720 8563D 1   1.00000     0.00000
 Structure written by MMmdl.
 40 42  0  0  0  0  0  0  0  0  2 V2000
  151.8202  140.7790  156.9996 C   0  0  0  0  0  0  0  0  0  0  0  0
  151.2762  139.7872  156.0293 C   0  0  0  0  0  0  0  0  0  0  0  0
  150.9484  140.1104  154.7725 N   0  0  0  0  0  0  0  0  0  0  0  0
  150.4689  139.0220  154.0574 N   0  0  0  0  0  0  0  0  0  0  0  0
  150.4504  137.9058  154.7990 C   0  0  0  0  0  0  0  0  0  0  0  0
  150.0085  136.6456  154.3161 N   0  0  0  0  0  0  0  0  0  0  0  0
  150.1598  135.4373  154.8857 C   0  0  0  0  0  0  0  0  0  0  0  0
  150.7342  135.2182  155.9526 O   0  0  0  0  0  0  0  0  0  0  0  0
  149.5973  134.4735  154.1430 N   0  0  0  0  0  0  0  0  0  0  0  0
  149.5966  133.0544  154.4824 C   0  0  0  0  0  0  0  0  0  0  0  0
  148.8292  132.2130  153.4468 C   0  0  2  0  0  0  0  0  0  0  0  0
  147.7095  133.0290  152.7601 C   0  0  0  0  0  0  0  0  0  0  0  0
  146.9612  132.1238  151.8692 N   0  3  2  0  0  0  0  0  0  0  0  0
  145.8481  132.6797  151.0805 C   0  0  0  0  0  0  0  0  0  0  0  0
  144.9368  131.4723  150.7797 C   0  0  0  0  0  0  0  0  0  0  0  0
  145.5292  130.2935  151.5738 C   0  0  0  0  0  0  0  0  0  0  0  0
  146.4093  130.9865  152.6087 C   0  0  1  0  0  0  0  0  0  0  0  0
  147.5607  130.1906  153.2372 C   0  0  0  0  0  0  0  0  0  0  0  0
  148.2676  131.0740  154.1102 O   0  0  0  0  0  0  0  0  0  0  0  0
  151.0241  138.0965  156.4469 S   0  0  0  0  0  0  0  0  0  0  0  0
  151.4190  141.7719  156.7942 H   0  0  0  0  0  0  0  0  0  0  0  0
  152.9068  140.8159  156.9230 H   0  0  0  0  0  0  0  0  0  0  0  0
  151.5496  140.4981  158.0174 H   0  0  0  0  0  0  0  0  0  0  0  0
  149.5179  136.6685  153.4344 H   0  0  0  0  0  0  0  0  0  0  0  0
  149.1440  134.7365  153.2801 H   0  0  0  0  0  0  0  0  0  0  0  0
  150.6310  132.7154  154.5488 H   0  0  0  0  0  0  0  0  0  0  0  0
  149.1641  132.9212  155.4752 H   0  0  0  0  0  0  0  0  0  0  0  0
  149.5219  131.8614  152.6802 H   0  0  0  0  0  0  0  0  0  0  0  0
  147.0373  133.4652  153.5007 H   0  0  0  0  0  0  0  0  0  0  0  0
  148.1330  133.8488  152.1788 H   0  0  0  0  0  0  0  0  0  0  0  0
  145.3065  133.4219  151.6691 H   0  0  0  0  0  0  0  0  0  0  0  0
  146.2147  133.1642  150.1752 H   0  0  0  0  0  0  0  0  0  0  0  0
  143.9167  131.6837  151.1031 H   0  0  0  0  0  0  0  0  0  0  0  0
  144.9027  131.2467  149.7132 H   0  0  0  0  0  0  0  0  0  0  0  0
  144.7652  129.6597  152.0252 H   0  0  0  0  0  0  0  0  0  0  0  0
  146.1381  129.6715  150.9158 H   0  0  0  0  0  0  0  0  0  0  0  0
  145.7658  131.3675  153.4050 H   0  0  0  0  0  0  0  0  0  0  0  0
  147.1755  129.3488  153.8129 H   0  0  0  0  0  0  0  0  0  0  0  0
  148.2325  129.7872  152.4778 H   0  0  0  0  0  0  0  0  0  0  0  0
  147.6203  131.7414  151.2058 H   0  0  0  0  0  0  0  0  0  0  0  0
  1  2  1  0  0  0  0
  1 21  1  0  0  0  0
  1 22  1  0  0  0  0
  1 23  1  0  0  0  0
  2 20  1  0  0  0  0
  2  3  2  0  0  0  0
  3  4  1  0  0  0  0
  4  5  2  0  0  0  0
  5  6  1  0  0  0  0
  5 20  1  0  0  0  0
  6  7  1  0  0  0  0
  6 24  1  0  0  0  0
  7  8  2  0  0  0  0
  7  9  1  0  0  0  0
  9 10  1  0  0  0  0
  9 25  1  0  0  0  0
 10 11  1  0  0  0  0
 10 26  1  0  0  0  0
 10 27  1  0  0  0  0
 11 19  1  0  0  0  0
 11 12  1  0  0  0  0
 11 28  1  0  0  0  0
 12 13  1  0  0  0  0
 12 29  1  0  0  0  0
 12 30  1  0  0  0  0
 13 17  1  0  0  0  0
 13 14  1  0  0  0  0
 13 40  1  0  0  0  0
 14 15  1  0  0  0  0
 14 31  1  0  0  0  0
 14 32  1  0  0  0  0
 15 16  1  0  0  0  0
 15 33  1  0  0  0  0
 15 34  1  0  0  0  0
 16 17  1  0  0  0  0
 16 35  1  0  0  0  0
 16 36  1  0  0  0  0
 17 18  1  0  0  0  0
 17 37  1  0  0  0  0
 18 19  1  0  0  0  0
 18 38  1  0  0  0  0
 18 39  1  0  0  0  0
M  CHG  1  13   1
M  END
> <s_m_source_file>
AV-unprocessed.smi

> <i_m_source_file_index>
1809

> <i_lp_mmshare_version>
43012

> <i_f3d_flags>
0

> <s_epik_input>
W0NIM11jMW5uYyhzMSlbTkhdQyg9TylbTkhdW0NIMl1bQ0BIXShbQ0gyXTIpT1tDSDJdW0NAQEhdKE4yMylbQ0gyXVtDSDJdW0NIMl0z

> <s_epik_cmdline>
J2VwaWtfcHl0aG9uJywgJy1waCcsICc3LjAnLCAnLXRuJywgJzgnLCAnLW1hJywgJzIwMCcsICctbWV0YWxfYmluZGluZycsICctaW1hZScsICc8aW5maWxlLm1hZT4nLCAnLW9tYWUnLCAnPG91dGZpbGUubWFlPic=

> <r_lp_tautomer_probability>
1

> <r_epik_Ionization_Penalty>
0.112474

> <r_epik_Ionization_Penalty_Charging>
0.108916

> <r_epik_Ionization_Penalty_Neutral>
0.00355844

> <r_epik_State_Penalty>
0.0565397

> <r_epik_Charging_Adjusted_Penalty>
0.165456

> <i_epik_Tot_Q>
1

> <i_epik_Tot_abs_Q>
1

> <r_epik_Metal_State_Penalty>
0.422831

> <b_epik_Metal_Only>
0

> <s_lp_Force_Field>
OPLS_2005

> <r_lp_Energy>
33.7351

> <b_lp_Chiralities_Consistent>
1

> <s_lp_Variant>
AV-unprocessed.smi:1809-1

> <Gold.Version>
5.8.1

> <Gold.Id.Protein>
6NUR|6NUR_protein|mol2

> <Gold.PLP.Fitness>
44.0768

> <Gold.PLP.PLP>
-34.6261

> <Gold.PLP.part.hbond>
-5.2516

> <Gold.PLP.part.metal>
0.0000

> <Gold.PLP.part.buried>
-5.5425

> <Gold.PLP.part.nonpolar>
-24.6155

> <Gold.PLP.part.repulsive>
0.4761

> <Gold.PLP.ligand.clash>
0.0000

> <Gold.PLP.ligand.torsion>
0.4243

> <Gold.PLP.Chemscore.Hbond>
3.4324

> <Gold.PLP.Chemscore.CHOScore>
0.0000

> <Gold.PLP.Chemscore.Metal>
0.0000

> <Gold.Chemscore.Hbonds>
donor molecule, donor type, donor heavy atom, donor atom, acceptor molecule, acceptor atom, score
      L1  H     6    24       P1  7948  1.00
      L1  H     9    25       P1  7948  0.58
      L1  H    13    40       P1 10747  1.00
      P1  H  7989  7998       L1     3  0.80

> <Gold.PLP.Chemscore.Internal.Correction>
0.0021

> <Gold.Rescore>
     Score         DG    S(hbond)    S(metal)    S(lipo)     H(rot)  DE(clash)    DE(int)     intcor
     16.99     -18.74       2.33        0.00      75.99       1.34       0.08       1.67       ----

> <Gold.Chemscore.Fitness>
16.9917

> <Gold.Chemscore.DG>
-18.7402

> <Gold.Chemscore.ZeroCoef>
-5.4800

> <Gold.Chemscore.Hbond>
2.3346

> <Gold.Chemscore.Metal>
0.0000

> <Gold.Chemscore.Lipo>
75.9887

> <Gold.Chemscore.Internal_Hbond>
0.0000

> <Gold.Chemscore.DEClash>
0.0811

> <Gold.Chemscore.DEInternal>
1.6674

> <Gold.Chemscore.Rot>
1.3391

> <Gold.Chemscore.Internal.Correction>
   9.000000E+99

> <Gold.Chemscore.Hbonds>
donor molecule, donor type, donor heavy atom, donor atom, acceptor molecule, acceptor atom, score
      L1  H     6    24       P1  7948  0.74
      L1  H     9    25       P1  7948  0.05
      L1  H    13    40       P1 10747  1.00
      P1  H  7989  7998       L1     3  0.12

> <Gold.Chemscore.Hbond.Weighted>
-7.7976

> <Gold.Chemscore.Metal.Weighted>
-0.0000

> <Gold.Chemscore.Lipo.Weighted>
-8.8907

> <Gold.Chemscore.Internal_Hbond.Weighted>
0.0000

> <Gold.Chemscore.DEClash.Weighted>
0.0811

> <Gold.Chemscore.DEInternal.Weighted>
1.6674

> <Gold.Chemscore.Rot.Weighted>
3.4281

> <Gold.Chemscore.Internal.Correction.Weighted>
   9.000000E+99

> <Gold.Protein.RotatedTorsions>
[ 6907 6896 6895 6894 ] final  118.37 input  -60.11 | X-H torsion
[ 7974 7965 7964 7962 ] final  144.60 input  175.53 | X-H torsion
[ 8008 7997 7996 7995 ] final  -42.37 input   59.86 | X-H torsion
[ 10167 10162 10161 10158 ] final   33.69 input  -65.29 | X-H torsion
[ 10718 10713 10712 10709 ] final -106.24 input   66.30 | X-H torsion
[ 10763 10752 10751 10750 ] final -146.42 input  -60.55 | X-H torsion
[ 11005 11000 10999 10996 ] final -137.22 input  -57.11 | X-H torsion

> <Gold.Protein.ActiveResidues>
 VAL166  LYS551  ARG553  GLY616  TRP617  ASP618  TYR619  PRO620  LYS621  CYS622 
 ASP623  PHE694  ASN695  SER759  ASP760  ASP761  ALA762  ILE779  LEU786  VAL792 
 PHE793  MET794  SER795  GLU796  ALA797  LYS798  CYS799  TRP800  GLU811  SER814 

> <Gold.Protein.RotatedAtoms>
  152.4547  133.7700  159.6793 H   0  0  0  0  0  0  0  0  0  0  0  0  # atno 6907 bound_to 6896
  150.8470  133.7836  159.3045 H   0  0  0  0  0  0  0  0  0  0  0  0  # atno 6908 bound_to 6896
  151.5443  135.1071  159.9986 H   0  0  0  0  0  0  0  0  0  0  0  0  # atno 6909 bound_to 6896
  144.8822  139.5681  143.5837 H   0  0  0  0  0  0  0  0  0  0  0  0  # atno 7974 bound_to 7965
  154.3999  140.1475  156.3344 H   0  0  0  0  0  0  0  0  0  0  0  0  # atno 8008 bound_to 7997
  155.8414  140.3462  155.5613 H   0  0  0  0  0  0  0  0  0  0  0  0  # atno 8009 bound_to 7997
  155.8083  140.0880  157.1909 H   0  0  0  0  0  0  0  0  0  0  0  0  # atno 8010 bound_to 7997
  140.4384  144.1223  150.6170 H   0  0  0  0  0  0  0  0  0  0  0  0  # atno 10167 bound_to 10162
  156.0381  130.5603  150.7653 H   0  0  0  0  0  0  0  0  0  0  0  0  # atno 10718 bound_to 10713
  154.8337  135.3387  154.6658 H   0  0  0  0  0  0  0  0  0  0  0  0  # atno 10763 bound_to 10752
  153.7275  135.6954  153.5002 H   0  0  0  0  0  0  0  0  0  0  0  0  # atno 10764 bound_to 10752
  153.2336  135.4408  155.0575 H   0  0  0  0  0  0  0  0  0  0  0  0  # atno 10765 bound_to 10752
  140.8731  134.2026  157.4638 H   0  0  0  0  0  0  0  0  0  0  0  0  # atno 11005 bound_to 11000
  146.3002  139.7402  142.9097 LP  0  0  0  0  0  0  0  0  0  0  0  0  # atno 17320 bound_to 7965
  145.3933  141.0375  143.3112 LP  0  0  0  0  0  0  0  0  0  0  0  0  # atno 17321 bound_to 7965
  140.4347  143.2552  151.9550 LP  0  0  0  0  0  0  0  0  0  0  0  0  # atno 17342 bound_to 10162
  139.4788  144.5711  151.8087 LP  0  0  0  0  0  0  0  0  0  0  0  0  # atno 17343 bound_to 10162
  157.5162  131.0928  151.0137 LP  0  0  0  0  0  0  0  0  0  0  0  0  # atno 17370 bound_to 10713
  157.0479  130.5775  149.5366 LP  0  0  0  0  0  0  0  0  0  0  0  0  # atno 17371 bound_to 10713
  139.8713  134.9783  156.4993 LP  0  0  0  0  0  0  0  0  0  0  0  0  # atno 17394 bound_to 11000
  140.8550  133.8103  155.9206 LP  0  0  0  0  0  0  0  0  0  0  0  0  # atno 17395 bound_to 11000

$$$$
