AV-unprocessed.smi:2395|AV-procd|sdf|9491|dock5
  -GOLD-   2272013123D 1   1.00000     0.00000
 Structure written by MMmdl.
 39 40  0  0  0  0  0  0  0  0  1 V2000
  150.6510  137.8139  154.3266 C   0  0  0  0  0  0  0  0  0  0  0  0
  149.9790  139.1350  154.5686 C   0  0  0  0  0  0  0  0  0  0  0  0
  150.6941  140.1510  155.0209 N   0  0  0  0  0  0  0  0  0  0  0  0
  149.8192  141.1732  155.1209 N   0  0  0  0  0  0  0  0  0  0  0  0
  150.2926  142.4672  155.5928 C   0  0  0  0  0  0  0  0  0  0  0  0
  150.6002  142.4737  157.0952 C   0  0  0  0  0  0  0  0  0  0  0  0
  151.2626  141.5725  157.6119 O   0  0  0  0  0  0  0  0  0  0  0  0
  150.1091  143.5120  157.7878 N   0  0  0  0  0  0  0  0  0  0  0  0
  150.3022  143.7314  159.2151 C   0  0  0  0  0  0  0  0  0  0  0  0
  151.6448  144.3277  159.5927 C   0  0  0  0  0  0  0  0  0  0  0  0
  152.8413  143.4339  159.8186 C   0  0  0  0  0  0  0  0  0  0  0  0
  152.2091  144.1579  160.9835 C   0  0  0  0  0  0  0  0  0  0  0  0
  148.5446  140.7961  154.7362 C   0  0  0  0  0  0  0  0  0  0  0  0
  147.3897  141.7462  154.7483 C   0  0  0  0  0  0  0  0  0  0  0  0
  148.6089  139.4770  154.3750 C   0  0  0  0  0  0  0  0  0  0  0  0
  147.5050  138.5819  153.8779 C   0  0  0  0  0  0  0  0  0  0  0  0
  146.9541  139.0674  152.5308 C   0  0  0  0  0  0  0  0  0  0  0  0
  147.4518  138.2583  151.4873 O   0  0  0  0  0  0  0  0  0  0  0  0
  150.2553  137.3312  153.4328 H   0  0  0  0  0  0  0  0  0  0  0  0
  150.4931  137.1377  155.1668 H   0  0  0  0  0  0  0  0  0  0  0  0
  151.7266  137.9289  154.1884 H   0  0  0  0  0  0  0  0  0  0  0  0
  151.1859  142.7359  155.0274 H   0  0  0  0  0  0  0  0  0  0  0  0
  149.5408  143.2288  155.3801 H   0  0  0  0  0  0  0  0  0  0  0  0
  149.5721  144.2058  157.2878 H   0  0  0  0  0  0  0  0  0  0  0  0
  149.5067  144.3892  159.5664 H   0  0  0  0  0  0  0  0  0  0  0  0
  150.1757  142.7890  159.7503 H   0  0  0  0  0  0  0  0  0  0  0  0
  151.8587  145.2753  159.1014 H   0  0  0  0  0  0  0  0  0  0  0  0
  152.6907  142.3579  159.7563 H   0  0  0  0  0  0  0  0  0  0  0  0
  153.8077  143.7905  159.4681 H   0  0  0  0  0  0  0  0  0  0  0  0
  152.7539  144.9978  161.4099 H   0  0  0  0  0  0  0  0  0  0  0  0
  151.6375  143.5640  161.6941 H   0  0  0  0  0  0  0  0  0  0  0  0
  146.4765  141.2643  154.3996 H   0  0  0  0  0  0  0  0  0  0  0  0
  147.5823  142.5991  154.0974 H   0  0  0  0  0  0  0  0  0  0  0  0
  147.2059  142.1222  155.7547 H   0  0  0  0  0  0  0  0  0  0  0  0
  147.8626  137.5570  153.7714 H   0  0  0  0  0  0  0  0  0  0  0  0
  146.6933  138.5327  154.6046 H   0  0  0  0  0  0  0  0  0  0  0  0
  145.8643  139.0269  152.5227 H   0  0  0  0  0  0  0  0  0  0  0  0
  147.2447  140.1023  152.3470 H   0  0  0  0  0  0  0  0  0  0  0  0
  147.8160  137.4723  151.8650 H   0  0  0  0  0  0  0  0  0  0  0  0
  1  2  1  0  0  0  0
  1 19  1  0  0  0  0
  1 20  1  0  0  0  0
  1 21  1  0  0  0  0
  2 15  1  0  0  0  0
  2  3  2  0  0  0  0
  3  4  1  0  0  0  0
  4  5  1  0  0  0  0
  4 13  1  0  0  0  0
  5  6  1  0  0  0  0
  5 22  1  0  0  0  0
  5 23  1  0  0  0  0
  6  7  2  0  0  0  0
  6  8  1  0  0  0  0
  8  9  1  0  0  0  0
  8 24  1  0  0  0  0
  9 10  1  0  0  0  0
  9 25  1  0  0  0  0
  9 26  1  0  0  0  0
 10 12  1  0  0  0  0
 10 11  1  0  0  0  0
 10 27  1  0  0  0  0
 11 12  1  0  0  0  0
 11 28  1  0  0  0  0
 11 29  1  0  0  0  0
 12 30  1  0  0  0  0
 12 31  1  0  0  0  0
 13 14  1  0  0  0  0
 13 15  2  0  0  0  0
 14 32  1  0  0  0  0
 14 33  1  0  0  0  0
 14 34  1  0  0  0  0
 15 16  1  0  0  0  0
 16 17  1  0  0  0  0
 16 35  1  0  0  0  0
 16 36  1  0  0  0  0
 17 18  1  0  0  0  0
 17 37  1  0  0  0  0
 17 38  1  0  0  0  0
 18 39  1  0  0  0  0
M  END
> <s_m_source_file>
AV-unprocessed.smi

> <i_m_source_file_index>
2395

> <i_lp_mmshare_version>
43012

> <i_f3d_flags>
0

> <s_epik_input>
W09IXVtDSDJdW0NIMl1jMWMoW0NIM10pbihuYzFbQ0gzXSlbQ0gyXUMoPU8pW05IXVtDSDJdW0NIXTJbQ0gyXVtDSDJdMg==

> <s_epik_cmdline>
J2VwaWtfcHl0aG9uJywgJy1waCcsICc3LjAnLCAnLXRuJywgJzgnLCAnLW1hJywgJzIwMCcsICctbWV0YWxfYmluZGluZycsICctaW1hZScsICc8aW5maWxlLm1hZT4nLCAnLW9tYWUnLCAnPG91dGZpbGUubWFlPic=

> <r_lp_tautomer_probability>
1

> <r_epik_Ionization_Penalty>
0.000725848

> <r_epik_Ionization_Penalty_Charging>
0

> <r_epik_Ionization_Penalty_Neutral>
0.000725848

> <r_epik_State_Penalty>
-0

> <r_epik_Charging_Adjusted_Penalty>
0

> <i_epik_Tot_Q>
0

> <i_epik_Tot_abs_Q>
0

> <r_epik_Metal_State_Penalty>
-0

> <b_epik_Metal_Only>
0

> <s_lp_Force_Field>
OPLS_2005

> <r_lp_Energy>
10.6696

> <b_lp_Chiralities_Consistent>
1

> <s_lp_Variant>
AV-unprocessed.smi:2395-1

> <Gold.Version>
5.8.1

> <Gold.Id.Protein>
6NUR|6NUR_protein|mol2

> <Gold.PLP.Fitness>
45.7746

> <Gold.PLP.PLP>
-37.3268

> <Gold.PLP.part.hbond>
-4.9127

> <Gold.PLP.part.metal>
0.0000

> <Gold.PLP.part.buried>
-1.5173

> <Gold.PLP.part.nonpolar>
-32.2216

> <Gold.PLP.part.repulsive>
0.1021

> <Gold.PLP.ligand.clash>
0.0000

> <Gold.PLP.ligand.torsion>
1.0219

> <Gold.PLP.Chemscore.Hbond>
3.3040

> <Gold.PLP.Chemscore.CHOScore>
0.0000

> <Gold.PLP.Chemscore.Metal>
0.0000

> <Gold.Chemscore.Hbonds>
donor molecule, donor type, donor heavy atom, donor atom, acceptor molecule, acceptor atom, score
      L1  H     8    24       P1  8028  0.94
      L1  H    18    39       P1  7948  0.98
      P1  H  7954  7966       L1    18  0.55
      P1  H  7989  7998       L1     3  0.75

> <Gold.PLP.Chemscore.Internal.Correction>
0.5795

> <Gold.Rescore>
     Score         DG    S(hbond)    S(metal)    S(lipo)     H(rot)  DE(clash)    DE(int)     intcor
     12.96     -16.26       1.87        0.00      94.13       2.53       1.18       2.12       ----

> <Gold.Chemscore.Fitness>
12.9639

> <Gold.Chemscore.DG>
-16.2629

> <Gold.Chemscore.ZeroCoef>
-5.4800

> <Gold.Chemscore.Hbond>
1.8709

> <Gold.Chemscore.Metal>
0.0000

> <Gold.Chemscore.Lipo>
94.1296

> <Gold.Chemscore.Internal_Hbond>
0.0000

> <Gold.Chemscore.DEClash>
1.1818

> <Gold.Chemscore.DEInternal>
2.1171

> <Gold.Chemscore.Rot>
2.5309

> <Gold.Chemscore.Internal.Correction>
   9.000000E+99

> <Gold.Chemscore.Hbonds>
donor molecule, donor type, donor heavy atom, donor atom, acceptor molecule, acceptor atom, score
      L1  H     8    24       P1  8028  0.28
      L1  H    18    39       P1  7948  0.93
      P1  H  7954  7966       L1    18  0.03
      P1  H  7989  7998       L1     3  0.05

> <Gold.Chemscore.Hbond.Weighted>
-6.2487

> <Gold.Chemscore.Metal.Weighted>
-0.0000

> <Gold.Chemscore.Lipo.Weighted>
-11.0132

> <Gold.Chemscore.Internal_Hbond.Weighted>
0.0000

> <Gold.Chemscore.DEClash.Weighted>
1.1818

> <Gold.Chemscore.DEInternal.Weighted>
2.1171

> <Gold.Chemscore.Rot.Weighted>
6.4790

> <Gold.Chemscore.Internal.Correction.Weighted>
   9.000000E+99

> <Gold.Protein.RotatedTorsions>
[ 6907 6896 6895 6894 ] final  136.80 input  -60.11 | X-H torsion
[ 7974 7965 7964 7962 ] final   60.40 input  175.53 | X-H torsion
[ 8008 7997 7996 7995 ] final  103.21 input   59.86 | X-H torsion
[ 10167 10162 10161 10158 ] final  -13.27 input  -65.29 | X-H torsion
[ 10718 10713 10712 10709 ] final  -41.59 input   66.30 | X-H torsion
[ 10763 10752 10751 10750 ] final   -2.45 input  -60.55 | X-H torsion
[ 11005 11000 10999 10996 ] final  158.59 input  -57.11 | X-H torsion

> <Gold.Protein.ActiveResidues>
 VAL166  LYS551  ARG553  GLY616  TRP617  ASP618  TYR619  PRO620  LYS621  CYS622 
 ASP623  PHE694  ASN695  SER759  ASP760  ASP761  ALA762  ILE779  LEU786  VAL792 
 PHE793  MET794  SER795  GLU796  ALA797  LYS798  CYS799  TRP800  GLU811  SER814 

> <Gold.Protein.RotatedAtoms>
  152.2853  133.5509  159.5522 H   0  0  0  0  0  0  0  0  0  0  0  0  # atno 6907 bound_to 6896
  150.7212  134.0506  159.3806 H   0  0  0  0  0  0  0  0  0  0  0  0  # atno 6908 bound_to 6896
  151.8415  135.0589  160.0499 H   0  0  0  0  0  0  0  0  0  0  0  0  # atno 6909 bound_to 6896
  145.8964  139.3548  143.0619 H   0  0  0  0  0  0  0  0  0  0  0  0  # atno 7974 bound_to 7965
  156.1463  140.3168  155.8576 H   0  0  0  0  0  0  0  0  0  0  0  0  # atno 8008 bound_to 7997
  155.4057  140.0502  157.3051 H   0  0  0  0  0  0  0  0  0  0  0  0  # atno 8009 bound_to 7997
  154.5019  140.2132  155.9340 H   0  0  0  0  0  0  0  0  0  0  0  0  # atno 8010 bound_to 7997
  140.7178  143.5444  150.9372 H   0  0  0  0  0  0  0  0  0  0  0  0  # atno 10167 bound_to 10162
  156.2687  130.4204  149.8462 H   0  0  0  0  0  0  0  0  0  0  0  0  # atno 10718 bound_to 10713
  153.3582  135.6989  153.6733 H   0  0  0  0  0  0  0  0  0  0  0  0  # atno 10763 bound_to 10752
  153.5432  135.3568  155.2728 H   0  0  0  0  0  0  0  0  0  0  0  0  # atno 10764 bound_to 10752
  154.8664  135.4209  154.2833 H   0  0  0  0  0  0  0  0  0  0  0  0  # atno 10765 bound_to 10752
  140.1880  134.8428  157.2879 H   0  0  0  0  0  0  0  0  0  0  0  0  # atno 11005 bound_to 11000
  145.8845  140.9342  143.0584 LP  0  0  0  0  0  0  0  0  0  0  0  0  # atno 17320 bound_to 7965
  144.6733  140.0824  143.7468 LP  0  0  0  0  0  0  0  0  0  0  0  0  # atno 17321 bound_to 7965
  139.9167  143.6654  152.3105 LP  0  0  0  0  0  0  0  0  0  0  0  0  # atno 17342 bound_to 10162
  139.7057  144.7628  151.1197 LP  0  0  0  0  0  0  0  0  0  0  0  0  # atno 17343 bound_to 10162
  156.5951  130.8523  151.3418 LP  0  0  0  0  0  0  0  0  0  0  0  0  # atno 17370 bound_to 10713
  157.7276  130.9646  150.1707 LP  0  0  0  0  0  0  0  0  0  0  0  0  # atno 17371 bound_to 10713
  140.2192  134.4044  155.7574 LP  0  0  0  0  0  0  0  0  0  0  0  0  # atno 17394 bound_to 11000
  141.2225  133.7157  156.8463 LP  0  0  0  0  0  0  0  0  0  0  0  0  # atno 17395 bound_to 11000

$$$$
