AV-unprocessed.smi:1641|AV-procd|sdf|6561|dock10
  -GOLD-   22720 7243D 1   1.00000     0.00000
 Structure written by MMmdl.
 42 43  0  0  0  0  0  0  0  0  2 V2000
  153.5176  137.9446  157.5974 C   0  0  0  0  0  0  0  0  0  0  0  0
  152.6087  138.3196  156.4773 C   0  0  0  0  0  0  0  0  0  0  0  0
  152.5864  139.5456  155.9400 N   0  0  0  0  0  0  0  0  0  0  0  0
  151.6541  139.6548  154.9179 N   0  0  0  0  0  0  0  0  0  0  0  0
  150.9989  138.5037  154.7140 C   0  0  0  0  0  0  0  0  0  0  0  0
  149.9842  138.3370  153.7347 N   0  0  0  0  0  0  0  0  0  0  0  0
  148.7976  138.9639  153.6522 C   0  0  0  0  0  0  0  0  0  0  0  0
  148.3942  139.8333  154.4254 O   0  0  0  0  0  0  0  0  0  0  0  0
  148.0825  138.5212  152.6079 N   0  0  0  0  0  0  0  0  0  0  0  0
  146.7518  138.9997  152.2518 C   0  0  0  0  0  0  0  0  0  0  0  0
  146.0674  138.0663  151.2340 C   0  0  0  0  0  0  0  0  0  0  0  0
  146.0752  136.6492  151.6730 N   0  3  1  0  0  0  0  0  0  0  0  0
  145.6721  136.4946  153.0896 C   0  0  0  0  0  0  0  0  0  0  0  0
  145.8005  135.0252  153.5286 C   0  0  1  0  0  0  0  0  0  0  0  0
  145.3073  134.8101  154.9635 C   0  0  0  0  0  0  0  0  0  0  0  0
  145.0171  134.2024  152.6679 O   0  0  0  0  0  0  0  0  0  0  0  0
  145.3489  134.2941  151.2824 C   0  0  2  0  0  0  0  0  0  0  0  0
  146.6961  133.6236  150.9590 C   0  0  0  0  0  0  0  0  0  0  0  0
  145.2616  135.7582  150.8091 C   0  0  0  0  0  0  0  0  0  0  0  0
  151.4771  137.1785  155.7612 S   0  0  0  0  0  0  0  0  0  0  0  0
  154.1308  138.7949  157.8977 H   0  0  0  0  0  0  0  0  0  0  0  0
  154.1746  137.1318  157.2877 H   0  0  0  0  0  0  0  0  0  0  0  0
  152.9325  137.6157  158.4563 H   0  0  0  0  0  0  0  0  0  0  0  0
  150.1802  137.6489  153.0229 H   0  0  0  0  0  0  0  0  0  0  0  0
  148.4876  137.8092  152.0172 H   0  0  0  0  0  0  0  0  0  0  0  0
  146.1592  139.1068  153.1607 H   0  0  0  0  0  0  0  0  0  0  0  0
  146.8531  139.9993  151.8282 H   0  0  0  0  0  0  0  0  0  0  0  0
  145.0348  138.3980  151.1141 H   0  0  0  0  0  0  0  0  0  0  0  0
  146.5313  138.1438  150.2494 H   0  0  0  0  0  0  0  0  0  0  0  0
  146.3026  137.1202  153.7230 H   0  0  0  0  0  0  0  0  0  0  0  0
  144.6452  136.8422  153.2164 H   0  0  0  0  0  0  0  0  0  0  0  0
  146.8456  134.7188  153.4813 H   0  0  0  0  0  0  0  0  0  0  0  0
  145.8825  135.4077  155.6711 H   0  0  0  0  0  0  0  0  0  0  0  0
  145.4046  133.7643  155.2561 H   0  0  0  0  0  0  0  0  0  0  0  0
  144.2578  135.0878  155.0665 H   0  0  0  0  0  0  0  0  0  0  0  0
  144.5819  133.7288  150.7522 H   0  0  0  0  0  0  0  0  0  0  0  0
  146.8606  133.5880  149.8819 H   0  0  0  0  0  0  0  0  0  0  0  0
  146.7183  132.5980  151.3284 H   0  0  0  0  0  0  0  0  0  0  0  0
  147.5405  134.1554  151.3967 H   0  0  0  0  0  0  0  0  0  0  0  0
  144.2220  136.0890  150.8376 H   0  0  0  0  0  0  0  0  0  0  0  0
  145.5808  135.8235  149.7695 H   0  0  0  0  0  0  0  0  0  0  0  0
  147.0321  136.3317  151.6127 H   0  0  0  0  0  0  0  0  0  0  0  0
  1  2  1  0  0  0  0
  1 21  1  0  0  0  0
  1 22  1  0  0  0  0
  1 23  1  0  0  0  0
  2 20  1  0  0  0  0
  2  3  2  0  0  0  0
  3  4  1  0  0  0  0
  4  5  2  0  0  0  0
  5  6  1  0  0  0  0
  5 20  1  0  0  0  0
  6  7  1  0  0  0  0
  6 24  1  0  0  0  0
  7  8  2  0  0  0  0
  7  9  1  0  0  0  0
  9 10  1  0  0  0  0
  9 25  1  0  0  0  0
 10 11  1  0  0  0  0
 10 26  1  0  0  0  0
 10 27  1  0  0  0  0
 11 12  1  0  0  0  0
 11 28  1  0  0  0  0
 11 29  1  0  0  0  0
 12 19  1  0  0  0  0
 12 13  1  0  0  0  0
 12 42  1  0  0  0  0
 13 14  1  0  0  0  0
 13 30  1  0  0  0  0
 13 31  1  0  0  0  0
 14 15  1  0  0  0  0
 14 16  1  0  0  0  0
 14 32  1  0  0  0  0
 15 33  1  0  0  0  0
 15 34  1  0  0  0  0
 15 35  1  0  0  0  0
 16 17  1  0  0  0  0
 17 18  1  0  0  0  0
 17 19  1  0  0  0  0
 17 36  1  0  0  0  0
 18 37  1  0  0  0  0
 18 38  1  0  0  0  0
 18 39  1  0  0  0  0
 19 40  1  0  0  0  0
 19 41  1  0  0  0  0
M  CHG  1  12   1
M  END
> <s_m_source_file>
AV-unprocessed.smi

> <i_m_source_file_index>
1641

> <i_lp_mmshare_version>
43012

> <i_f3d_flags>
0

> <s_epik_input>
W0NIM11jMW5uYyhzMSlbTkhdQyg9TylbTkhdW0NIMl1bQ0gyXU4yW0NIMl1bQ0BASF0oW0NIM10pT1tDQEBIXShbQ0gzXSlbQ0gyXTI=

> <s_epik_cmdline>
J2VwaWtfcHl0aG9uJywgJy1waCcsICc3LjAnLCAnLXRuJywgJzgnLCAnLW1hJywgJzIwMCcsICctbWV0YWxfYmluZGluZycsICctaW1hZScsICc8aW5maWxlLm1hZT4nLCAnLW9tYWUnLCAnPG91dGZpbGUubWFlPic=

> <r_lp_tautomer_probability>
1

> <r_epik_Ionization_Penalty>
0.700114

> <r_epik_Ionization_Penalty_Charging>
0.695697

> <r_epik_Ionization_Penalty_Neutral>
0.00441638

> <r_epik_State_Penalty>
0.717972

> <r_epik_Charging_Adjusted_Penalty>
1.41367

> <i_epik_Tot_Q>
1

> <i_epik_Tot_abs_Q>
1

> <r_epik_Metal_State_Penalty>
1.06958

> <b_epik_Metal_Only>
0

> <s_lp_Force_Field>
OPLS_2005

> <r_lp_Energy>
15.7554

> <b_lp_Chiralities_Consistent>
1

> <s_lp_Variant>
AV-unprocessed.smi:1641-6

> <Gold.Version>
5.8.1

> <Gold.Id.Protein>
6NUR|6NUR_protein|mol2

> <Gold.PLP.Fitness>
43.8884

> <Gold.PLP.PLP>
-29.3768

> <Gold.PLP.part.hbond>
-6.7668

> <Gold.PLP.part.metal>
0.0000

> <Gold.PLP.part.buried>
0.0904

> <Gold.PLP.part.nonpolar>
-23.5284

> <Gold.PLP.part.repulsive>
0.4311

> <Gold.PLP.ligand.clash>
0.0000

> <Gold.PLP.ligand.torsion>
0.7554

> <Gold.PLP.Chemscore.Hbond>
5.3370

> <Gold.PLP.Chemscore.CHOScore>
0.0000

> <Gold.PLP.Chemscore.Metal>
0.0000

> <Gold.Chemscore.Hbonds>
donor molecule, donor type, donor heavy atom, donor atom, acceptor molecule, acceptor atom, score
      L1  H     6    24       P1  7948  0.40
      L1  H     9    25       P1  7948  0.99
      L1  H    12    42       P1  7948  2.00
      P1  H  7989  7998       L1     4  1.00
      P1  H  7997  8010       L1     3  1.00

> <Gold.PLP.Chemscore.Internal.Correction>
0.0116

> <Gold.Rescore>
     Score         DG    S(hbond)    S(metal)    S(lipo)     H(rot)  DE(clash)    DE(int)     intcor
     17.94     -20.79       3.80        0.00      58.31       1.64       1.95       0.90       ----

> <Gold.Chemscore.Fitness>
17.9429

> <Gold.Chemscore.DG>
-20.7914

> <Gold.Chemscore.ZeroCoef>
-5.4800

> <Gold.Chemscore.Hbond>
3.7953

> <Gold.Chemscore.Metal>
0.0000

> <Gold.Chemscore.Lipo>
58.3149

> <Gold.Chemscore.Internal_Hbond>
0.0000

> <Gold.Chemscore.DEClash>
1.9521

> <Gold.Chemscore.DEInternal>
0.8964

> <Gold.Chemscore.Rot>
1.6358

> <Gold.Chemscore.Internal.Correction>
   9.000000E+99

> <Gold.Chemscore.Hbonds>
donor molecule, donor type, donor heavy atom, donor atom, acceptor molecule, acceptor atom, score
      L1  H     6    24       P1  7948  0.06
      L1  H     9    25       P1  7948  0.93
      L1  H    12    42       P1  7948  1.00
      P1  H  7989  7998       L1     4  0.91
      P1  H  7997  8010       L1     3  0.35

> <Gold.Chemscore.Hbond.Weighted>
-12.6763

> <Gold.Chemscore.Metal.Weighted>
-0.0000

> <Gold.Chemscore.Lipo.Weighted>
-6.8228

> <Gold.Chemscore.Internal_Hbond.Weighted>
0.0000

> <Gold.Chemscore.DEClash.Weighted>
1.9521

> <Gold.Chemscore.DEInternal.Weighted>
0.8964

> <Gold.Chemscore.Rot.Weighted>
4.1878

> <Gold.Chemscore.Internal.Correction.Weighted>
   9.000000E+99

> <Gold.Protein.RotatedTorsions>
[ 6907 6896 6895 6894 ] final  -13.48 input  -60.11 | X-H torsion
[ 7974 7965 7964 7962 ] final -174.21 input  175.53 | X-H torsion
[ 8008 7997 7996 7995 ] final   81.51 input   59.86 | X-H torsion
[ 10167 10162 10161 10158 ] final -165.86 input  -65.29 | X-H torsion
[ 10718 10713 10712 10709 ] final  -79.79 input   66.30 | X-H torsion
[ 10763 10752 10751 10750 ] final   35.51 input  -60.55 | X-H torsion
[ 11005 11000 10999 10996 ] final  137.39 input  -57.11 | X-H torsion

> <Gold.Protein.ActiveResidues>
 VAL166  LYS551  ARG553  GLY616  TRP617  ASP618  TYR619  PRO620  LYS621  CYS622 
 ASP623  PHE694  ASN695  SER759  ASP760  ASP761  ALA762  ILE779  LEU786  VAL792 
 PHE793  MET794  SER795  GLU796  ALA797  LYS798  CYS799  TRP800  GLU811  SER814 

> <Gold.Protein.RotatedAtoms>
  151.3542  135.0891  159.9412 H   0  0  0  0  0  0  0  0  0  0  0  0  # atno 6907 bound_to 6896
  152.5179  133.9322  159.7596 H   0  0  0  0  0  0  0  0  0  0  0  0  # atno 6908 bound_to 6896
  150.9703  133.6297  159.2768 H   0  0  0  0  0  0  0  0  0  0  0  0  # atno 6909 bound_to 6896
  144.7133  140.1506  143.6384 H   0  0  0  0  0  0  0  0  0  0  0  0  # atno 7974 bound_to 7965
  155.8980  140.3435  155.6005 H   0  0  0  0  0  0  0  0  0  0  0  0  # atno 8008 bound_to 7997
  155.7533  140.0823  157.2210 H   0  0  0  0  0  0  0  0  0  0  0  0  # atno 8009 bound_to 7997
  154.4040  140.1549  156.2736 H   0  0  0  0  0  0  0  0  0  0  0  0  # atno 8010 bound_to 7997
  139.6153  144.0732  152.1882 H   0  0  0  0  0  0  0  0  0  0  0  0  # atno 10167 bound_to 10162
  156.0084  130.4556  150.3703 H   0  0  0  0  0  0  0  0  0  0  0  0  # atno 10718 bound_to 10713
  153.0116  135.6331  154.1837 H   0  0  0  0  0  0  0  0  0  0  0  0  # atno 10763 bound_to 10752
  154.1579  135.2825  155.3118 H   0  0  0  0  0  0  0  0  0  0  0  0  # atno 10764 bound_to 10752
  154.6004  135.5589  153.7429 H   0  0  0  0  0  0  0  0  0  0  0  0  # atno 10765 bound_to 10752
  140.0111  134.9438  157.0279 H   0  0  0  0  0  0  0  0  0  0  0  0  # atno 11005 bound_to 11000
  145.9120  139.2493  143.1432 LP  0  0  0  0  0  0  0  0  0  0  0  0  # atno 17320 bound_to 7965
  145.9707  140.8762  143.0164 LP  0  0  0  0  0  0  0  0  0  0  0  0  # atno 17321 bound_to 7965
  140.0360  144.6044  150.7449 LP  0  0  0  0  0  0  0  0  0  0  0  0  # atno 17342 bound_to 10162
  140.7347  143.2732  151.3824 LP  0  0  0  0  0  0  0  0  0  0  0  0  # atno 17343 bound_to 10162
  157.1787  131.0387  151.2759 LP  0  0  0  0  0  0  0  0  0  0  0  0  # atno 17370 bound_to 10713
  157.4165  130.7414  149.6879 LP  0  0  0  0  0  0  0  0  0  0  0  0  # atno 17371 bound_to 10713
  140.4553  134.1540  155.7185 LP  0  0  0  0  0  0  0  0  0  0  0  0  # atno 17394 bound_to 11000
  141.1711  133.8606  157.1567 LP  0  0  0  0  0  0  0  0  0  0  0  0  # atno 17395 bound_to 11000

$$$$
