AV-unprocessed.smi:1128|AV-procd|sdf|4842|dock10
  -GOLD-   22720 3413D 1   1.00000     0.00000
 Structure written by MMmdl.
 38 39  0  0  0  0  0  0  0  0  1 V2000
  151.1166  139.4338  158.5891 O   0  0  0  0  0  0  0  0  0  0  0  0
  152.1428  139.7071  157.9679 C   0  0  0  0  0  0  0  0  0  0  0  0
  153.2944  140.0488  158.5639 N   0  0  0  0  0  0  0  0  0  0  0  0
  153.5099  140.1565  160.0042 C   0  0  0  0  0  0  0  0  0  0  0  0
  153.4654  141.6186  160.4931 C   0  0  2  0  0  0  0  0  0  0  0  0
  153.4580  141.7330  162.0364 C   0  0  0  0  0  0  0  0  0  0  0  0
  153.1303  143.1346  162.5196 C   0  0  0  0  0  0  0  0  0  0  0  0
  152.6001  144.0845  161.7315 C   0  0  0  0  0  0  0  0  0  0  0  0
  152.2606  143.8602  160.2700 C   0  0  0  0  0  0  0  0  0  0  0  0
  152.2586  142.3666  159.8945 C   0  0  0  0  0  0  0  0  0  0  0  0
  152.2800  139.7167  156.6288 N   0  0  0  0  0  0  0  0  0  0  0  0
  151.3405  139.4343  155.6215 C   0  0  0  0  0  0  0  0  0  0  0  0
  150.1750  140.1051  155.4222 C   0  0  0  0  0  0  0  0  0  0  0  0
  149.2557  139.7539  154.3525 C   0  0  0  0  0  0  0  0  0  0  0  0
  147.9297  140.4775  154.1755 C   0  0  0  0  0  0  0  0  0  0  0  0
  147.8464  141.5421  154.9746 F   0  0  0  0  0  0  0  0  0  0  0  0
  147.7743  140.8863  152.9162 F   0  0  0  0  0  0  0  0  0  0  0  0
  146.9232  139.6565  154.4712 F   0  0  0  0  0  0  0  0  0  0  0  0
  149.6035  138.7086  153.5800 C   0  0  0  0  0  0  0  0  0  0  0  0
  150.8002  138.0162  153.7749 N   0  0  0  0  0  0  0  0  0  0  0  0
  151.6965  138.3058  154.7445 C   0  0  0  0  0  0  0  0  0  0  0  0
  152.7286  137.6442  154.8514 O   0  0  0  0  0  0  0  0  0  0  0  0
  150.9950  137.2502  153.1464 H   0  0  0  0  0  0  0  0  0  0  0  0
  154.0863  140.2580  157.9737 H   0  0  0  0  0  0  0  0  0  0  0  0
  152.7205  139.5838  160.4915 H   0  0  0  0  0  0  0  0  0  0  0  0
  154.4488  139.6852  160.3004 H   0  0  0  0  0  0  0  0  0  0  0  0
  154.3651  142.1163  160.1267 H   0  0  0  0  0  0  0  0  0  0  0  0
  152.7242  141.0506  162.4668 H   0  0  0  0  0  0  0  0  0  0  0  0
  154.4304  141.4472  162.4386 H   0  0  0  0  0  0  0  0  0  0  0  0
  153.3353  143.3517  163.5576 H   0  0  0  0  0  0  0  0  0  0  0  0
  152.4056  145.0686  162.1320 H   0  0  0  0  0  0  0  0  0  0  0  0
  151.2854  144.2977  160.0549 H   0  0  0  0  0  0  0  0  0  0  0  0
  152.9911  144.4000  159.6668 H   0  0  0  0  0  0  0  0  0  0  0  0
  152.2478  142.2674  158.8085 H   0  0  0  0  0  0  0  0  0  0  0  0
  151.3378  141.9042  160.2528 H   0  0  0  0  0  0  0  0  0  0  0  0
  153.1888  139.9859  156.2806 H   0  0  0  0  0  0  0  0  0  0  0  0
  149.8859  140.9274  156.0541 H   0  0  0  0  0  0  0  0  0  0  0  0
  149.0034  138.3246  152.7681 H   0  0  0  0  0  0  0  0  0  0  0  0
  1  2  2  0  0  0  0
  2  3  1  0  0  0  0
  2 11  1  0  0  0  0
  3  4  1  0  0  0  0
  3 24  1  0  0  0  0
  4  5  1  0  0  0  0
  4 25  1  0  0  0  0
  4 26  1  0  0  0  0
  5 10  1  0  0  0  0
  5  6  1  0  0  0  0
  5 27  1  0  0  0  0
  6  7  1  0  0  0  0
  6 28  1  0  0  0  0
  6 29  1  0  0  0  0
  7  8  2  0  0  0  0
  7 30  1  0  0  0  0
  8  9  1  0  0  0  0
  8 31  1  0  0  0  0
  9 10  1  0  0  0  0
  9 32  1  0  0  0  0
  9 33  1  0  0  0  0
 10 34  1  0  0  0  0
 10 35  1  0  0  0  0
 11 12  1  0  0  0  0
 11 36  1  0  0  0  0
 12 21  1  0  0  0  0
 12 13  2  0  0  0  0
 13 14  1  0  0  0  0
 13 37  1  0  0  0  0
 14 15  1  0  0  0  0
 14 19  2  0  0  0  0
 15 16  1  0  0  0  0
 15 17  1  0  0  0  0
 15 18  1  0  0  0  0
 19 20  1  0  0  0  0
 19 38  1  0  0  0  0
 20 23  1  0  0  0  0
 20 21  1  0  0  0  0
 21 22  2  0  0  0  0
M  END
> <s_m_source_file>
AV-unprocessed.smi

> <i_m_source_file_index>
1128

> <i_lp_mmshare_version>
43012

> <i_f3d_flags>
0

> <s_epik_input>
Tz1jMVtuSF1bY0hdYyhDKEYpKEYpRilbY0hdYzFbTkhdQyg9TylbTkhdW0NIMl1bQ0BASF0yW0NIMl1bQ0hdPVtDSF1bQ0gyXVtDSDJdMg==

> <s_epik_cmdline>
J2VwaWtfcHl0aG9uJywgJy1waCcsICc3LjAnLCAnLXRuJywgJzgnLCAnLW1hJywgJzIwMCcsICctbWV0YWxfYmluZGluZycsICctaW1hZScsICc8aW5maWxlLm1hZT4nLCAnLW9tYWUnLCAnPG91dGZpbGUubWFlPic=

> <r_lp_tautomer_probability>
1

> <r_epik_Ionization_Penalty>
0.00381734

> <r_epik_Ionization_Penalty_Charging>
0.00379608

> <r_epik_Ionization_Penalty_Neutral>
2.12611e-05

> <r_epik_State_Penalty>
-0

> <r_epik_Charging_Adjusted_Penalty>
0.00379608

> <i_epik_Tot_Q>
0

> <i_epik_Tot_abs_Q>
0

> <r_epik_Metal_State_Penalty>
0.371155

> <b_epik_Metal_Only>
0

> <s_lp_Force_Field>
OPLS_2005

> <r_lp_Energy>
20.2087

> <b_lp_Chiralities_Consistent>
1

> <s_lp_Variant>
AV-unprocessed.smi:1128-1

> <Gold.Version>
5.8.1

> <Gold.Id.Protein>
6NUR|6NUR_protein|mol2

> <Gold.PLP.Fitness>
47.0718

> <Gold.PLP.PLP>
-41.6002

> <Gold.PLP.part.hbond>
-2.6073

> <Gold.PLP.part.metal>
0.0000

> <Gold.PLP.part.buried>
0.3085

> <Gold.PLP.part.nonpolar>
-39.5632

> <Gold.PLP.part.repulsive>
1.5624

> <Gold.PLP.ligand.clash>
0.0000

> <Gold.PLP.ligand.torsion>
0.9329

> <Gold.PLP.Chemscore.Hbond>
1.1259

> <Gold.PLP.Chemscore.CHOScore>
1.3081

> <Gold.PLP.Chemscore.Metal>
0.0000

> <Gold.Chemscore.Hbonds>
donor molecule, donor type, donor heavy atom, donor atom, acceptor molecule, acceptor atom, score
      L1  H    20    23       P1  7949  0.86
      P1  H 10752 10765       L1    22  0.23
      L1  C    19    38       P1  7948  0.99
      L1  C    19    38       P1  7957  0.34

> <Gold.PLP.Chemscore.Internal.Correction>
0.0354

> <Gold.Rescore>
     Score         DG    S(hbond)    S(metal)    S(lipo)     H(rot)  DE(clash)    DE(int)     intcor
     13.05     -15.61       0.37        0.00     104.69       1.30       1.76       0.80       ----

> <Gold.Chemscore.Fitness>
13.0505

> <Gold.Chemscore.DG>
-15.6144

> <Gold.Chemscore.ZeroCoef>
-5.4800

> <Gold.Chemscore.Hbond>
0.3662

> <Gold.Chemscore.Metal>
0.0000

> <Gold.Chemscore.Lipo>
104.6927

> <Gold.Chemscore.Internal_Hbond>
0.0000

> <Gold.Chemscore.DEClash>
1.7607

> <Gold.Chemscore.DEInternal>
0.8032

> <Gold.Chemscore.Rot>
1.3038

> <Gold.Chemscore.Internal.Correction>
   9.000000E+99

> <Gold.Chemscore.Hbonds>
donor molecule, donor type, donor heavy atom, donor atom, acceptor molecule, acceptor atom, score
      L1  H    20    23       P1  7949  0.25
      P1  H 10752 10765       L1    22  0.22

> <Gold.Chemscore.Hbond.Weighted>
-1.2231

> <Gold.Chemscore.Metal.Weighted>
-0.0000

> <Gold.Chemscore.Lipo.Weighted>
-12.2490

> <Gold.Chemscore.Internal_Hbond.Weighted>
0.0000

> <Gold.Chemscore.DEClash.Weighted>
1.7607

> <Gold.Chemscore.DEInternal.Weighted>
0.8032

> <Gold.Chemscore.Rot.Weighted>
3.3377

> <Gold.Chemscore.Internal.Correction.Weighted>
   9.000000E+99

> <Gold.Protein.RotatedTorsions>
[ 6907 6896 6895 6894 ] final   18.92 input  -60.11 | X-H torsion
[ 7974 7965 7964 7962 ] final -163.22 input  175.53 | X-H torsion
[ 8008 7997 7996 7995 ] final  123.41 input   59.86 | X-H torsion
[ 10167 10162 10161 10158 ] final -111.26 input  -65.29 | X-H torsion
[ 10718 10713 10712 10709 ] final  -34.20 input   66.30 | X-H torsion
[ 10763 10752 10751 10750 ] final  139.77 input  -60.55 | X-H torsion
[ 11005 11000 10999 10996 ] final -159.70 input  -57.11 | X-H torsion

> <Gold.Protein.ActiveResidues>
 VAL166  LYS551  ARG553  GLY616  TRP617  ASP618  TYR619  PRO620  LYS621  CYS622 
 ASP623  PHE694  ASN695  SER759  ASP760  ASP761  ALA762  ILE779  LEU786  VAL792 
 PHE793  MET794  SER795  GLU796  ALA797  LYS798  CYS799  TRP800  GLU811  SER814 

> <Gold.Protein.RotatedAtoms>
  151.8729  135.0483  160.0480 H   0  0  0  0  0  0  0  0  0  0  0  0  # atno 6907 bound_to 6896
  152.2574  133.5263  159.5370 H   0  0  0  0  0  0  0  0  0  0  0  0  # atno 6908 bound_to 6896
  150.7104  134.0793  159.3934 H   0  0  0  0  0  0  0  0  0  0  0  0  # atno 6909 bound_to 6896
  144.7332  140.3138  143.6183 H   0  0  0  0  0  0  0  0  0  0  0  0  # atno 7974 bound_to 7965
  156.2764  140.2763  156.1622 H   0  0  0  0  0  0  0  0  0  0  0  0  # atno 8008 bound_to 7997
  155.0741  140.0387  157.2636 H   0  0  0  0  0  0  0  0  0  0  0  0  # atno 8009 bound_to 7997
  154.7016  140.2650  155.6719 H   0  0  0  0  0  0  0  0  0  0  0  0  # atno 8010 bound_to 7997
  140.1355  143.4323  152.1598 H   0  0  0  0  0  0  0  0  0  0  0  0  # atno 10167 bound_to 10162
  156.3535  130.4312  149.7684 H   0  0  0  0  0  0  0  0  0  0  0  0  # atno 10718 bound_to 10713
  153.9116  135.3010  155.3448 H   0  0  0  0  0  0  0  0  0  0  0  0  # atno 10763 bound_to 10752
  154.7620  135.4929  153.9486 H   0  0  0  0  0  0  0  0  0  0  0  0  # atno 10764 bound_to 10752
  153.1190  135.6777  153.9470 H   0  0  0  0  0  0  0  0  0  0  0  0  # atno 10765 bound_to 10752
  140.6397  134.4564  157.5233 H   0  0  0  0  0  0  0  0  0  0  0  0  # atno 11005 bound_to 11000
  145.7638  139.1833  143.2252 LP  0  0  0  0  0  0  0  0  0  0  0  0  # atno 17320 bound_to 7965
  146.0965  140.7594  142.9569 LP  0  0  0  0  0  0  0  0  0  0  0  0  # atno 17321 bound_to 7965
  139.5498  144.7328  151.4471 LP  0  0  0  0  0  0  0  0  0  0  0  0  # atno 17342 bound_to 10162
  140.6791  143.8122  150.7098 LP  0  0  0  0  0  0  0  0  0  0  0  0  # atno 17343 bound_to 10162
  156.4876  130.8070  151.3081 LP  0  0  0  0  0  0  0  0  0  0  0  0  # atno 17370 bound_to 10713
  157.7464  130.9986  150.2858 LP  0  0  0  0  0  0  0  0  0  0  0  0  # atno 17371 bound_to 10713
  139.9085  134.8397  156.1617 LP  0  0  0  0  0  0  0  0  0  0  0  0  # atno 17394 bound_to 11000
  141.0615  133.6839  156.1963 LP  0  0  0  0  0  0  0  0  0  0  0  0  # atno 17395 bound_to 11000

$$$$
