AV-unprocessed.smi:2790|AV-procd|sdf|10770|dock4
  -GOLD-   2272015203D 1   1.00000     0.00000
 Structure written by MMmdl.
 46 47  0  0  0  0  0  0  0  0  4 V2000
  147.1117  135.7112  154.1516 C   0  0  0  0  0  0  0  0  0  0  0  0
  148.4351  135.0515  154.0915 N   0  3  0  0  0  0  0  0  0  0  0  0
  148.3390  133.6444  153.6467 C   0  0  0  0  0  0  0  0  0  0  0  0
  149.2241  135.2148  155.3390 C   0  0  0  0  0  0  0  0  0  0  0  0
  150.2851  136.2999  155.1338 C   0  0  0  0  0  0  0  0  0  0  0  0
  151.4669  136.0122  155.3447 O   0  0  0  0  0  0  0  0  0  0  0  0
  149.7171  137.4674  154.7275 N   0  5  0  0  0  0  0  0  0  0  0  0
  150.2655  138.7942  155.0176 C   0  0  0  0  0  0  0  0  0  0  0  0
  149.2914  139.6418  155.9250 C   0  0  0  0  0  0  0  0  0  0  0  0
  148.0151  139.9894  155.1031 C   0  0  0  0  0  0  0  0  0  0  0  0
  146.7486  139.4316  155.4332 C   0  0  0  0  0  0  0  0  0  0  0  0
  145.6086  139.7523  154.6702 C   0  0  0  0  0  0  0  0  0  0  0  0
  145.7163  140.5896  153.6191 N   0  3  0  0  0  0  0  0  0  0  0  0
  146.8883  141.1453  153.2520 C   0  0  0  0  0  0  0  0  0  0  0  0
  148.0610  140.8601  153.9792 C   0  0  0  0  0  0  0  0  0  0  0  0
  148.8533  138.8239  157.1949 C   0  0  0  0  0  0  0  0  0  0  0  0
  149.9148  138.6544  158.3053 C   0  0  0  0  0  0  0  0  0  0  0  0
  150.4788  140.0028  158.7584 C   0  0  0  0  0  0  0  0  0  0  0  0
  151.0407  140.7728  157.5616 C   0  0  0  0  0  0  0  0  0  0  0  0
  149.9730  140.9558  156.4615 C   0  0  0  0  0  0  0  0  0  0  0  0
  146.4746  135.2424  154.9026 H   0  0  0  0  0  0  0  0  0  0  0  0
  146.6071  135.6490  153.1872 H   0  0  0  0  0  0  0  0  0  0  0  0
  147.2163  136.7674  154.4017 H   0  0  0  0  0  0  0  0  0  0  0  0
  147.7920  133.0417  154.3729 H   0  0  0  0  0  0  0  0  0  0  0  0
  149.3329  133.2137  153.5196 H   0  0  0  0  0  0  0  0  0  0  0  0
  147.8240  133.5777  152.6879 H   0  0  0  0  0  0  0  0  0  0  0  0
  148.5850  135.4660  156.1881 H   0  0  0  0  0  0  0  0  0  0  0  0
  149.7246  134.2829  155.6077 H   0  0  0  0  0  0  0  0  0  0  0  0
  151.2343  138.7370  155.5164 H   0  0  0  0  0  0  0  0  0  0  0  0
  150.4566  139.3364  154.0921 H   0  0  0  0  0  0  0  0  0  0  0  0
  146.6360  138.7434  156.2563 H   0  0  0  0  0  0  0  0  0  0  0  0
  144.6212  139.3601  154.8655 H   0  0  0  0  0  0  0  0  0  0  0  0
  146.8555  141.7944  152.3892 H   0  0  0  0  0  0  0  0  0  0  0  0
  148.9839  141.3086  153.6473 H   0  0  0  0  0  0  0  0  0  0  0  0
  148.0064  139.3384  157.6521 H   0  0  0  0  0  0  0  0  0  0  0  0
  148.4776  137.8316  156.9395 H   0  0  0  0  0  0  0  0  0  0  0  0
  149.4693  138.1431  159.1590 H   0  0  0  0  0  0  0  0  0  0  0  0
  150.7266  138.0114  157.9638 H   0  0  0  0  0  0  0  0  0  0  0  0
  149.6942  140.5885  159.2388 H   0  0  0  0  0  0  0  0  0  0  0  0
  151.2578  139.8509  159.5061 H   0  0  0  0  0  0  0  0  0  0  0  0
  151.3937  141.7499  157.8919 H   0  0  0  0  0  0  0  0  0  0  0  0
  151.9157  140.2571  157.1651 H   0  0  0  0  0  0  0  0  0  0  0  0
  150.4124  141.5516  155.6593 H   0  0  0  0  0  0  0  0  0  0  0  0
  149.1967  141.5891  156.8938 H   0  0  0  0  0  0  0  0  0  0  0  0
  148.9608  135.5392  153.3796 H   0  0  0  0  0  0  0  0  0  0  0  0
  144.8795  140.8062  153.0772 H   0  0  0  0  0  0  0  0  0  0  0  0
  1  2  1  0  0  0  0
  1 21  1  0  0  0  0
  1 22  1  0  0  0  0
  1 23  1  0  0  0  0
  2  3  1  0  0  0  0
  2  4  1  0  0  0  0
  2 45  1  0  0  0  0
  3 24  1  0  0  0  0
  3 25  1  0  0  0  0
  3 26  1  0  0  0  0
  4  5  1  0  0  0  0
  4 27  1  0  0  0  0
  4 28  1  0  0  0  0
  5  6  2  0  0  0  0
  5  7  1  0  0  0  0
  7  8  1  0  0  0  0
  8  9  1  0  0  0  0
  8 29  1  0  0  0  0
  8 30  1  0  0  0  0
  9 20  1  0  0  0  0
  9 10  1  0  0  0  0
  9 16  1  0  0  0  0
 10 15  1  0  0  0  0
 10 11  2  0  0  0  0
 11 12  1  0  0  0  0
 11 31  1  0  0  0  0
 12 13  2  0  0  0  0
 12 32  1  0  0  0  0
 13 14  1  0  0  0  0
 13 46  1  0  0  0  0
 14 15  2  0  0  0  0
 14 33  1  0  0  0  0
 15 34  1  0  0  0  0
 16 17  1  0  0  0  0
 16 35  1  0  0  0  0
 16 36  1  0  0  0  0
 17 18  1  0  0  0  0
 17 37  1  0  0  0  0
 17 38  1  0  0  0  0
 18 19  1  0  0  0  0
 18 39  1  0  0  0  0
 18 40  1  0  0  0  0
 19 20  1  0  0  0  0
 19 41  1  0  0  0  0
 19 42  1  0  0  0  0
 20 43  1  0  0  0  0
 20 44  1  0  0  0  0
M  CHG  1   2   1
M  CHG  1   7  -1
M  CHG  1  13   1
M  END
> <s_m_source_file>
AV-unprocessed.smi

> <i_m_source_file_index>
2790

> <i_lp_mmshare_version>
43012

> <i_f3d_flags>
0

> <s_epik_input>
W0NIM11OKFtDSDNdKVtDSDJdQyg9TylbTkhdW0NIMl1DMShbQ0gyXVtDSDJdW0NIMl1bQ0gyXVtDSDJdMSljMltjSF1bY0hdbltjSF1bY0hdMg==

> <s_epik_cmdline>
J2VwaWtfcHl0aG9uJywgJy1waCcsICc3LjAnLCAnLXRuJywgJzgnLCAnLW1hJywgJzIwMCcsICctbWV0YWxfYmluZGluZycsICctaW1hZScsICc8aW5maWxlLm1hZT4nLCAnLW9tYWUnLCAnPG91dGZpbGUubWFlPic=

> <r_epik_Ionization_Penalty>
6.72126

> <r_epik_Ionization_Penalty_Charging>
6.72126

> <r_epik_Ionization_Penalty_Neutral>
0

> <r_epik_State_Penalty>
7.43246

> <r_epik_Charging_Adjusted_Penalty>
14.1537

> <i_epik_Tot_Q>
1

> <i_epik_Tot_abs_Q>
3

> <r_epik_Metal_State_Penalty>
3.42758

> <b_epik_Metal_Only>
1

> <s_lp_Force_Field>
OPLS_2005

> <r_lp_Energy>
31.5627

> <b_lp_Chiralities_Consistent>
1

> <s_lp_Variant>
AV-unprocessed.smi:2790-5

> <Gold.Version>
5.8.1

> <Gold.Id.Protein>
6NUR|6NUR_protein|mol2

> <Gold.PLP.Fitness>
39.2817

> <Gold.PLP.PLP>
-26.4756

> <Gold.PLP.part.hbond>
-2.8666

> <Gold.PLP.part.metal>
0.0000

> <Gold.PLP.part.buried>
-5.2654

> <Gold.PLP.part.nonpolar>
-19.2153

> <Gold.PLP.part.repulsive>
0.2619

> <Gold.PLP.ligand.clash>
0.0000

> <Gold.PLP.ligand.torsion>
1.0555

> <Gold.PLP.Chemscore.Hbond>
4.9433

> <Gold.PLP.Chemscore.CHOScore>
0.0000

> <Gold.PLP.Chemscore.Metal>
0.0000

> <Gold.Chemscore.Hbonds>
donor molecule, donor type, donor heavy atom, donor atom, acceptor molecule, acceptor atom, score
      L1  H     2    45       P1  7948  1.92
      L1  H    13    46       P1 10175  1.20
      P1  H 10752 10763       L1     6  1.00

> <Gold.PLP.Chemscore.Internal.Correction>
0.0873

> <Gold.Rescore>
     Score         DG    S(hbond)    S(metal)    S(lipo)     H(rot)  DE(clash)    DE(int)     intcor
     17.19     -19.22       2.94        0.00      70.01       1.67       1.11       0.91       ----

> <Gold.Chemscore.Fitness>
17.1900

> <Gold.Chemscore.DG>
-19.2185

> <Gold.Chemscore.ZeroCoef>
-5.4800

> <Gold.Chemscore.Hbond>
2.9441

> <Gold.Chemscore.Metal>
0.0000

> <Gold.Chemscore.Lipo>
70.0100

> <Gold.Chemscore.Internal_Hbond>
0.0000

> <Gold.Chemscore.DEClash>
1.1147

> <Gold.Chemscore.DEInternal>
0.9138

> <Gold.Chemscore.Rot>
1.6741

> <Gold.Chemscore.Internal.Correction>
   9.000000E+99

> <Gold.Chemscore.Hbonds>
donor molecule, donor type, donor heavy atom, donor atom, acceptor molecule, acceptor atom, score
      L1  H     2    45       P1  7948  0.68
      L1  H    13    46       P1 10175  0.36
      P1  H 10752 10763       L1     6  1.00

> <Gold.Chemscore.Hbond.Weighted>
-9.8331

> <Gold.Chemscore.Metal.Weighted>
-0.0000

> <Gold.Chemscore.Lipo.Weighted>
-8.1912

> <Gold.Chemscore.Internal_Hbond.Weighted>
0.0000

> <Gold.Chemscore.DEClash.Weighted>
1.1147

> <Gold.Chemscore.DEInternal.Weighted>
0.9138

> <Gold.Chemscore.Rot.Weighted>
4.2858

> <Gold.Chemscore.Internal.Correction.Weighted>
   9.000000E+99

> <Gold.Protein.RotatedTorsions>
[ 6907 6896 6895 6894 ] final  145.73 input  -60.11 | X-H torsion
[ 7974 7965 7964 7962 ] final   14.65 input  175.53 | X-H torsion
[ 8008 7997 7996 7995 ] final  -88.53 input   59.86 | X-H torsion
[ 10167 10162 10161 10158 ] final   73.77 input  -65.29 | X-H torsion
[ 10718 10713 10712 10709 ] final   -4.83 input   66.30 | X-H torsion
[ 10763 10752 10751 10750 ] final   79.11 input  -60.55 | X-H torsion
[ 11005 11000 10999 10996 ] final -156.29 input  -57.11 | X-H torsion

> <Gold.Protein.ActiveResidues>
 VAL166  LYS551  ARG553  GLY616  TRP617  ASP618  TYR619  PRO620  LYS621  CYS622 
 ASP623  PHE694  ASN695  SER759  ASP760  ASP761  ALA762  ILE779  LEU786  VAL792 
 PHE793  MET794  SER795  GLU796  ALA797  LYS798  CYS799  TRP800  GLU811  SER814 

> <Gold.Protein.RotatedAtoms>
  152.1771  133.4682  159.4938 H   0  0  0  0  0  0  0  0  0  0  0  0  # atno 6907 bound_to 6896
  150.6928  134.1880  159.4283 H   0  0  0  0  0  0  0  0  0  0  0  0  # atno 6908 bound_to 6896
  151.9790  135.0038  160.0607 H   0  0  0  0  0  0  0  0  0  0  0  0  # atno 6909 bound_to 6896
  146.2299  139.9010  142.8539 H   0  0  0  0  0  0  0  0  0  0  0  0  # atno 7974 bound_to 7965
  154.6759  140.0552  157.0214 H   0  0  0  0  0  0  0  0  0  0  0  0  # atno 8008 bound_to 7997
  155.1022  140.3230  155.4525 H   0  0  0  0  0  0  0  0  0  0  0  0  # atno 8009 bound_to 7997
  156.2675  140.2029  156.6148 H   0  0  0  0  0  0  0  0  0  0  0  0  # atno 8010 bound_to 7997
  140.0209  144.5541  150.7582 H   0  0  0  0  0  0  0  0  0  0  0  0  # atno 10167 bound_to 10162
  156.7555  130.5253  149.5795 H   0  0  0  0  0  0  0  0  0  0  0  0  # atno 10718 bound_to 10713
  153.0927  135.4852  154.8720 H   0  0  0  0  0  0  0  0  0  0  0  0  # atno 10763 bound_to 10752
  154.7288  135.3055  154.8928 H   0  0  0  0  0  0  0  0  0  0  0  0  # atno 10764 bound_to 10752
  153.9570  135.6817  153.4798 H   0  0  0  0  0  0  0  0  0  0  0  0  # atno 10765 bound_to 10752
  140.6771  134.4184  157.5228 H   0  0  0  0  0  0  0  0  0  0  0  0  # atno 11005 bound_to 11000
  145.2323  140.9978  143.3983 LP  0  0  0  0  0  0  0  0  0  0  0  0  # atno 17320 bound_to 7965
  144.9520  139.4072  143.6398 LP  0  0  0  0  0  0  0  0  0  0  0  0  # atno 17321 bound_to 7965
  140.7343  143.2727  151.3838 LP  0  0  0  0  0  0  0  0  0  0  0  0  # atno 17342 bound_to 10162
  139.6140  144.1040  152.2327 LP  0  0  0  0  0  0  0  0  0  0  0  0  # atno 17343 bound_to 10162
  156.1373  130.6220  151.0418 LP  0  0  0  0  0  0  0  0  0  0  0  0  # atno 17370 bound_to 10713
  157.6758  131.0851  150.7498 LP  0  0  0  0  0  0  0  0  0  0  0  0  # atno 17371 bound_to 10713
  139.8963  134.8662  156.2093 LP  0  0  0  0  0  0  0  0  0  0  0  0  # atno 17394 bound_to 11000
  141.0346  133.6970  156.1490 LP  0  0  0  0  0  0  0  0  0  0  0  0  # atno 17395 bound_to 11000

$$$$
