AV-unprocessed.smi:1033|AV-procd|sdf|4496|dock8
  -GOLD-   22720 2483D 1   1.00000     0.00000
 Structure written by MMmdl.
 56 58  0  0  0  0  0  0  0  0  2 V2000
  153.4855  142.8251  161.5485 C   0  0  0  0  0  0  0  0  0  0  0  0
  152.8027  142.4221  160.2535 C   0  0  0  0  0  0  0  0  0  0  0  0
  153.1903  141.2217  159.6164 C   0  0  0  0  0  0  0  0  0  0  0  0
  152.5838  140.8142  158.4081 C   0  0  0  0  0  0  0  0  0  0  0  0
  152.8062  139.6954  157.6242 N   0  0  0  0  0  0  0  0  0  0  0  0
  151.9385  139.8852  156.6347 C   0  0  0  0  0  0  0  0  0  0  0  0
  151.1836  141.0001  156.6796 N   0  0  0  0  0  0  0  0  0  0  0  0
  150.1806  141.4208  155.7137 C   0  0  0  0  0  0  0  0  0  0  0  0
  149.7983  140.3239  154.6931 C   0  0  2  0  0  0  0  0  0  0  0  0
  149.8201  140.8738  153.3916 O   0  0  0  0  0  0  0  0  0  0  0  0
  148.4002  139.7035  154.9073 C   0  0  0  0  0  0  0  0  0  0  0  0
  147.3195  140.2929  154.1091 N   0  0  0  0  0  0  0  0  0  0  0  0
  146.9311  139.4545  152.9758 C   0  0  0  0  0  0  0  0  0  0  0  0
  146.1525  138.1893  153.3923 C   0  0  0  0  0  0  0  0  0  0  0  0
  144.9437  138.5612  154.1756 N   0  3  0  0  0  0  0  0  0  0  0  0
  144.1041  137.4007  154.5692 C   0  0  0  0  0  0  0  0  0  0  0  0
  143.2316  136.8759  153.4115 C   0  0  1  0  0  0  0  0  0  0  0  0
  141.7609  136.7248  153.8218 C   0  0  0  0  0  0  0  0  0  0  0  0
  143.2951  137.7838  152.3298 O   0  0  0  0  0  0  0  0  0  0  0  0
  145.3137  139.4119  155.3364 C   0  0  0  0  0  0  0  0  0  0  0  0
  146.1159  140.6417  154.8665 C   0  0  0  0  0  0  0  0  0  0  0  0
  151.5697  141.6461  157.8499 C   0  0  0  0  0  0  0  0  0  0  0  0
  151.1696  142.8378  158.4800 C   0  0  0  0  0  0  0  0  0  0  0  0
  151.7887  143.2329  159.6838 C   0  0  0  0  0  0  0  0  0  0  0  0
  151.3556  144.5276  160.3477 C   0  0  0  0  0  0  0  0  0  0  0  0
  154.2400  142.0958  161.8444 H   0  0  0  0  0  0  0  0  0  0  0  0
  152.7579  142.9011  162.3567 H   0  0  0  0  0  0  0  0  0  0  0  0
  153.9803  143.7899  161.4350 H   0  0  0  0  0  0  0  0  0  0  0  0
  153.9611  140.6024  160.0509 H   0  0  0  0  0  0  0  0  0  0  0  0
  151.8507  139.1755  155.8252 H   0  0  0  0  0  0  0  0  0  0  0  0
  149.2971  141.7578  156.2576 H   0  0  0  0  0  0  0  0  0  0  0  0
  150.5606  142.2962  155.1864 H   0  0  0  0  0  0  0  0  0  0  0  0
  150.5602  139.5456  154.7077 H   0  0  0  0  0  0  0  0  0  0  0  0
  149.6471  140.1834  152.7698 H   0  0  0  0  0  0  0  0  0  0  0  0
  148.4627  138.6382  154.6811 H   0  0  0  0  0  0  0  0  0  0  0  0
  148.1514  139.7555  155.9670 H   0  0  0  0  0  0  0  0  0  0  0  0
  146.3123  140.0419  152.2959 H   0  0  0  0  0  0  0  0  0  0  0  0
  147.8155  139.1748  152.4018 H   0  0  0  0  0  0  0  0  0  0  0  0
  145.8675  137.6426  152.4946 H   0  0  0  0  0  0  0  0  0  0  0  0
  146.7855  137.5199  153.9765 H   0  0  0  0  0  0  0  0  0  0  0  0
  144.7474  136.6076  154.9536 H   0  0  0  0  0  0  0  0  0  0  0  0
  143.4491  137.6857  155.3945 H   0  0  0  0  0  0  0  0  0  0  0  0
  143.5906  135.9070  153.0664 H   0  0  0  0  0  0  0  0  0  0  0  0
  141.6553  136.0149  154.6427 H   0  0  0  0  0  0  0  0  0  0  0  0
  141.1559  136.3578  152.9917 H   0  0  0  0  0  0  0  0  0  0  0  0
  141.3369  137.6754  154.1476 H   0  0  0  0  0  0  0  0  0  0  0  0
  143.5509  138.6324  152.6589 H   0  0  0  0  0  0  0  0  0  0  0  0
  144.4088  139.7496  155.8428 H   0  0  0  0  0  0  0  0  0  0  0  0
  145.8808  138.8284  156.0629 H   0  0  0  0  0  0  0  0  0  0  0  0
  146.3679  141.2720  155.7183 H   0  0  0  0  0  0  0  0  0  0  0  0
  145.4715  141.2559  154.2360 H   0  0  0  0  0  0  0  0  0  0  0  0
  150.3961  143.4471  158.0371 H   0  0  0  0  0  0  0  0  0  0  0  0
  150.5692  145.0233  159.7774 H   0  0  0  0  0  0  0  0  0  0  0  0
  152.1969  145.2164  160.4249 H   0  0  0  0  0  0  0  0  0  0  0  0
  150.9714  144.3339  161.3494 H   0  0  0  0  0  0  0  0  0  0  0  0
  144.3711  139.1382  153.5758 H   0  0  0  0  0  0  0  0  0  0  0  0
  1  2  1  0  0  0  0
  1 26  1  0  0  0  0
  1 27  1  0  0  0  0
  1 28  1  0  0  0  0
  2 24  1  0  0  0  0
  2  3  2  0  0  0  0
  3  4  1  0  0  0  0
  3 29  1  0  0  0  0
  4 22  2  0  0  0  0
  4  5  1  0  0  0  0
  5  6  2  0  0  0  0
  6  7  1  0  0  0  0
  6 30  1  0  0  0  0
  7  8  1  0  0  0  0
  7 22  1  0  0  0  0
  8  9  1  0  0  0  0
  8 31  1  0  0  0  0
  8 32  1  0  0  0  0
  9 10  1  0  0  0  0
  9 11  1  0  0  0  0
  9 33  1  0  0  0  0
 10 34  1  0  0  0  0
 11 12  1  0  0  0  0
 11 35  1  0  0  0  0
 11 36  1  0  0  0  0
 12 21  1  0  0  0  0
 12 13  1  0  0  0  0
 13 14  1  0  0  0  0
 13 37  1  0  0  0  0
 13 38  1  0  0  0  0
 14 15  1  0  0  0  0
 14 39  1  0  0  0  0
 14 40  1  0  0  0  0
 15 16  1  0  0  0  0
 15 20  1  0  0  0  0
 15 56  1  0  0  0  0
 16 17  1  0  0  0  0
 16 41  1  0  0  0  0
 16 42  1  0  0  0  0
 17 18  1  0  0  0  0
 17 19  1  0  0  0  0
 17 43  1  0  0  0  0
 18 44  1  0  0  0  0
 18 45  1  0  0  0  0
 18 46  1  0  0  0  0
 19 47  1  0  0  0  0
 20 21  1  0  0  0  0
 20 48  1  0  0  0  0
 20 49  1  0  0  0  0
 21 50  1  0  0  0  0
 21 51  1  0  0  0  0
 22 23  1  0  0  0  0
 23 24  2  0  0  0  0
 23 52  1  0  0  0  0
 24 25  1  0  0  0  0
 25 53  1  0  0  0  0
 25 54  1  0  0  0  0
 25 55  1  0  0  0  0
M  CHG  1  15   1
M  END
> <s_m_source_file>
AV-unprocessed.smi

> <i_m_source_file_index>
1033

> <i_lp_mmshare_version>
43012

> <i_f3d_flags>
0

> <s_epik_input>
W0NIM11jKFtjSF0xKWMoW0NIM10pW2NIXWMoYzEyKW4oW2NIXW4yKVtDSDJdW0NASF0oW09IXSlbQ0gyXU4zW0NIMl1bQ0gyXU4oW0NIMl1bQ0gyXTMpW0NIMl1bQ0BIXShbQ0gzXSlbT0hd

> <s_epik_cmdline>
J2VwaWtfcHl0aG9uJywgJy1waCcsICc3LjAnLCAnLXRuJywgJzgnLCAnLW1hJywgJzIwMCcsICctbWV0YWxfYmluZGluZycsICctaW1hZScsICc8aW5maWxlLm1hZT4nLCAnLW9tYWUnLCAnPG91dGZpbGUubWFlPic=

> <r_epik_Ionization_Penalty>
0.129152

> <r_epik_Ionization_Penalty_Charging>
0.00083231

> <r_epik_Ionization_Penalty_Neutral>
0.128319

> <r_epik_State_Penalty>
0.556973

> <r_epik_Charging_Adjusted_Penalty>
0.557805

> <i_epik_Tot_Q>
1

> <i_epik_Tot_abs_Q>
1

> <r_epik_Metal_State_Penalty>
0.490047

> <b_epik_Metal_Only>
0

> <s_lp_Force_Field>
OPLS_2005

> <r_lp_Energy>
31.9095

> <b_lp_Chiralities_Consistent>
1

> <s_lp_Variant>
AV-unprocessed.smi:1033-7

> <Gold.Version>
5.8.1

> <Gold.Id.Protein>
6NUR|6NUR_protein|mol2

> <Gold.PLP.Fitness>
58.2150

> <Gold.PLP.PLP>
-46.0198

> <Gold.PLP.part.hbond>
-6.2721

> <Gold.PLP.part.metal>
0.0000

> <Gold.PLP.part.buried>
-5.5251

> <Gold.PLP.part.nonpolar>
-33.9582

> <Gold.PLP.part.repulsive>
0.1182

> <Gold.PLP.ligand.clash>
0.0000

> <Gold.PLP.ligand.torsion>
2.8401

> <Gold.PLP.Chemscore.Hbond>
5.9264

> <Gold.PLP.Chemscore.CHOScore>
0.0000

> <Gold.PLP.Chemscore.Metal>
0.0000

> <Gold.Chemscore.Hbonds>
donor molecule, donor type, donor heavy atom, donor atom, acceptor molecule, acceptor atom, score
      L1  H    10    34       P1  7957  0.72
      L1  H    15    56       P1 10175  2.00
      L1  H    19    47       P1 10175  0.99
      P1  H  7989  7998       L1    10  0.14
      P1  H  7997  8009       L1     5  1.00
      P1  H  8011  8017       L1    10  1.00

> <Gold.PLP.Chemscore.Internal.Correction>
0.0962

> <Gold.Rescore>
     Score         DG    S(hbond)    S(metal)    S(lipo)     H(rot)  DE(clash)    DE(int)     intcor
     20.93     -24.32       3.74        0.00     121.42       3.07       0.57       2.82       ----

> <Gold.Chemscore.Fitness>
20.9255

> <Gold.Chemscore.DG>
-24.3191

> <Gold.Chemscore.ZeroCoef>
-5.4800

> <Gold.Chemscore.Hbond>
3.7365

> <Gold.Chemscore.Metal>
0.0000

> <Gold.Chemscore.Lipo>
121.4151

> <Gold.Chemscore.Internal_Hbond>
0.0000

> <Gold.Chemscore.DEClash>
0.5704

> <Gold.Chemscore.DEInternal>
2.8232

> <Gold.Chemscore.Rot>
3.0650

> <Gold.Chemscore.Internal.Correction>
   9.000000E+99

> <Gold.Chemscore.Hbonds>
donor molecule, donor type, donor heavy atom, donor atom, acceptor molecule, acceptor atom, score
      L1  H    10    34       P1  7957  0.71
      L1  H    15    56       P1 10175  1.00
      L1  H    19    47       P1 10175  0.93
      P1  H  7997  8009       L1     5  0.13
      P1  H  8011  8017       L1    10  0.39

> <Gold.Chemscore.Hbond.Weighted>
-12.4800

> <Gold.Chemscore.Metal.Weighted>
-0.0000

> <Gold.Chemscore.Lipo.Weighted>
-14.2056

> <Gold.Chemscore.Internal_Hbond.Weighted>
0.0000

> <Gold.Chemscore.DEClash.Weighted>
0.5704

> <Gold.Chemscore.DEInternal.Weighted>
2.8232

> <Gold.Chemscore.Rot.Weighted>
7.8465

> <Gold.Chemscore.Internal.Correction.Weighted>
   9.000000E+99

> <Gold.Protein.RotatedTorsions>
[ 6907 6896 6895 6894 ] final -117.61 input  -60.11 | X-H torsion
[ 7974 7965 7964 7962 ] final  126.56 input  175.53 | X-H torsion
[ 8008 7997 7996 7995 ] final  173.44 input   59.86 | X-H torsion
[ 10167 10162 10161 10158 ] final   13.29 input  -65.29 | X-H torsion
[ 10718 10713 10712 10709 ] final  102.05 input   66.30 | X-H torsion
[ 10763 10752 10751 10750 ] final  158.77 input  -60.55 | X-H torsion
[ 11005 11000 10999 10996 ] final  143.79 input  -57.11 | X-H torsion

> <Gold.Protein.ActiveResidues>
 VAL166  LYS551  ARG553  GLY616  TRP617  ASP618  TYR619  PRO620  LYS621  CYS622 
 ASP623  PHE694  ASN695  SER759  ASP760  ASP761  ALA762  ILE779  LEU786  VAL792 
 PHE793  MET794  SER795  GLU796  ALA797  LYS798  CYS799  TRP800  GLU811  SER814 

> <Gold.Protein.RotatedAtoms>
  150.8151  133.8352  159.3164 H   0  0  0  0  0  0  0  0  0  0  0  0  # atno 6907 bound_to 6896
  151.6126  135.1037  160.0094 H   0  0  0  0  0  0  0  0  0  0  0  0  # atno 6908 bound_to 6896
  152.4242  133.7127  159.6545 H   0  0  0  0  0  0  0  0  0  0  0  0  # atno 6909 bound_to 6896
  145.0603  139.3810  143.5009 H   0  0  0  0  0  0  0  0  0  0  0  0  # atno 7974 bound_to 7965
  156.1075  140.1460  156.9385 H   0  0  0  0  0  0  0  0  0  0  0  0  # atno 8008 bound_to 7997
  154.4743  140.0899  156.7268 H   0  0  0  0  0  0  0  0  0  0  0  0  # atno 8009 bound_to 7997
  155.4655  140.3440  155.4320 H   0  0  0  0  0  0  0  0  0  0  0  0  # atno 8010 bound_to 7997
  140.6012  143.8601  150.6967 H   0  0  0  0  0  0  0  0  0  0  0  0  # atno 10167 bound_to 10162
  157.6813  131.0742  150.5345 H   0  0  0  0  0  0  0  0  0  0  0  0  # atno 10718 bound_to 10713
  154.2213  135.2782  155.2923 H   0  0  0  0  0  0  0  0  0  0  0  0  # atno 10763 bound_to 10752
  154.5699  135.5621  153.7089 H   0  0  0  0  0  0  0  0  0  0  0  0  # atno 10764 bound_to 10752
  153.0041  135.6319  154.2353 H   0  0  0  0  0  0  0  0  0  0  0  0  # atno 10765 bound_to 10752
  140.0581  134.9219  157.1136 H   0  0  0  0  0  0  0  0  0  0  0  0  # atno 11005 bound_to 11000
  146.3524  140.0298  142.8651 LP  0  0  0  0  0  0  0  0  0  0  0  0  # atno 17320 bound_to 7965
  145.1417  140.9575  143.4485 LP  0  0  0  0  0  0  0  0  0  0  0  0  # atno 17321 bound_to 7965
  140.2147  143.3856  152.1690 LP  0  0  0  0  0  0  0  0  0  0  0  0  # atno 17342 bound_to 10162
  139.5292  144.7139  151.5116 LP  0  0  0  0  0  0  0  0  0  0  0  0  # atno 17343 bound_to 10162
  156.5654  130.4266  149.6044 LP  0  0  0  0  0  0  0  0  0  0  0  0  # atno 17370 bound_to 10713
  156.2786  130.7058  151.1875 LP  0  0  0  0  0  0  0  0  0  0  0  0  # atno 17371 bound_to 10713
  140.3812  134.2285  155.7171 LP  0  0  0  0  0  0  0  0  0  0  0  0  # atno 17394 bound_to 11000
  141.1961  133.8090  157.0686 LP  0  0  0  0  0  0  0  0  0  0  0  0  # atno 17395 bound_to 11000

$$$$
