AV-unprocessed.smi:3214|AV-procd|sdf|12283|dock4
  -GOLD-   2272018123D 1   1.00000     0.00000
 Structure written by MMmdl.
 37 37  0  0  0  0  0  0  0  0  2 V2000
  145.5648  132.8254  151.5353 C   0  0  0  0  0  0  0  0  0  0  0  0
  146.4618  133.8753  150.8665 C   0  0  0  0  0  0  0  0  0  0  0  0
  146.5864  135.0735  151.6888 N   0  0  0  0  0  0  0  0  0  0  0  0
  145.5728  135.8834  152.0317 C   0  0  0  0  0  0  0  0  0  0  0  0
  144.4077  135.6920  151.6829 O   0  0  0  0  0  0  0  0  0  0  0  0
  145.9394  137.0952  152.8949 C   0  0  0  0  0  0  0  0  0  0  0  0
  146.4138  138.3049  152.0707 C   0  0  0  0  0  0  0  0  0  0  0  0
  147.7990  138.6749  152.4311 N   0  3  0  0  0  0  0  0  0  0  0  0
  147.9694  139.2777  153.7725 C   0  0  2  0  0  0  0  0  0  0  0  0
  146.7269  140.1196  154.1093 C   0  0  0  0  0  0  0  0  0  0  0  0
  149.2796  140.0967  153.8550 C   0  0  0  0  0  0  0  0  0  0  0  0
  150.3806  139.3549  154.4434 N   0  0  0  0  0  0  0  0  0  0  0  0
  150.5463  137.9884  154.5312 C   0  0  0  0  0  0  0  0  0  0  0  0
  151.7276  137.7635  155.1779 C   0  0  0  0  0  0  0  0  0  0  0  0
  152.2149  139.0710  155.4570 C   0  0  0  0  0  0  0  0  0  0  0  0
  151.4041  140.0212  155.0197 N   0  0  0  0  0  0  0  0  0  0  0  0
  145.4579  131.9468  150.8989 H   0  0  0  0  0  0  0  0  0  0  0  0
  144.5662  133.2217  151.7229 H   0  0  0  0  0  0  0  0  0  0  0  0
  145.9799  132.4953  152.4883 H   0  0  0  0  0  0  0  0  0  0  0  0
  147.4459  133.4541  150.6542 H   0  0  0  0  0  0  0  0  0  0  0  0
  146.0352  134.1644  149.9057 H   0  0  0  0  0  0  0  0  0  0  0  0
  147.5135  135.3057  152.0147 H   0  0  0  0  0  0  0  0  0  0  0  0
  145.0710  137.3785  153.4918 H   0  0  0  0  0  0  0  0  0  0  0  0
  146.7179  136.7927  153.5963 H   0  0  0  0  0  0  0  0  0  0  0  0
  146.3750  138.0727  151.0052 H   0  0  0  0  0  0  0  0  0  0  0  0
  145.7495  139.1520  152.2427 H   0  0  0  0  0  0  0  0  0  0  0  0
  148.3914  137.8599  152.3609 H   0  0  0  0  0  0  0  0  0  0  0  0
  148.0143  138.4646  154.4986 H   0  0  0  0  0  0  0  0  0  0  0  0
  146.7636  140.5024  155.1297 H   0  0  0  0  0  0  0  0  0  0  0  0
  145.8163  139.5258  154.0239 H   0  0  0  0  0  0  0  0  0  0  0  0
  146.6319  140.9731  153.4373 H   0  0  0  0  0  0  0  0  0  0  0  0
  149.5970  140.4273  152.8660 H   0  0  0  0  0  0  0  0  0  0  0  0
  149.1204  140.9984  154.4483 H   0  0  0  0  0  0  0  0  0  0  0  0
  149.8200  137.2969  154.1301 H   0  0  0  0  0  0  0  0  0  0  0  0
  152.1747  136.8101  155.4176 H   0  0  0  0  0  0  0  0  0  0  0  0
  153.1262  139.3556  155.9619 H   0  0  0  0  0  0  0  0  0  0  0  0
  148.1105  139.3552  151.7527 H   0  0  0  0  0  0  0  0  0  0  0  0
  1  2  1  0  0  0  0
  1 17  1  0  0  0  0
  1 18  1  0  0  0  0
  1 19  1  0  0  0  0
  2  3  1  0  0  0  0
  2 20  1  0  0  0  0
  2 21  1  0  0  0  0
  3  4  1  0  0  0  0
  3 22  1  0  0  0  0
  4  5  2  0  0  0  0
  4  6  1  0  0  0  0
  6  7  1  0  0  0  0
  6 23  1  0  0  0  0
  6 24  1  0  0  0  0
  7  8  1  0  0  0  0
  7 25  1  0  0  0  0
  7 26  1  0  0  0  0
  8  9  1  0  0  0  0
  8 27  1  0  0  0  0
  8 37  1  0  0  0  0
  9 10  1  0  0  0  0
  9 11  1  0  0  0  0
  9 28  1  0  0  0  0
 10 29  1  0  0  0  0
 10 30  1  0  0  0  0
 10 31  1  0  0  0  0
 11 12  1  0  0  0  0
 11 32  1  0  0  0  0
 11 33  1  0  0  0  0
 12 16  1  0  0  0  0
 12 13  1  0  0  0  0
 13 14  2  0  0  0  0
 13 34  1  0  0  0  0
 14 15  1  0  0  0  0
 14 35  1  0  0  0  0
 15 16  2  0  0  0  0
 15 36  1  0  0  0  0
M  CHG  1   8   1
M  END
> <s_m_source_file>
AV-unprocessed.smi

> <i_m_source_file_index>
3214

> <i_lp_mmshare_version>
43012

> <i_f3d_flags>
0

> <s_epik_input>
W0NIM11bQ0gyXVtOSF1DKD1PKVtDSDJdW0NIMl1bTkhdW0NASF0oW0NIM10pW0NIMl1uMVtjSF1bY0hdW2NIXW4x

> <s_epik_cmdline>
J2VwaWtfcHl0aG9uJywgJy1waCcsICc3LjAnLCAnLXRuJywgJzgnLCAnLW1hJywgJzIwMCcsICctbWV0YWxfYmluZGluZycsICctaW1hZScsICc8aW5maWxlLm1hZT4nLCAnLW9tYWUnLCAnPG91dGZpbGUubWFlPic=

> <r_lp_tautomer_probability>
1

> <r_epik_Ionization_Penalty>
0.00598156

> <r_epik_Ionization_Penalty_Charging>
0.00597743

> <r_epik_Ionization_Penalty_Neutral>
4.12922e-06

> <r_epik_State_Penalty>
0.00439883

> <r_epik_Charging_Adjusted_Penalty>
0.0103763

> <i_epik_Tot_Q>
1

> <i_epik_Tot_abs_Q>
1

> <r_epik_Metal_State_Penalty>
-0

> <b_epik_Metal_Only>
0

> <s_lp_Force_Field>
OPLS_2005

> <r_lp_Energy>
5.54296

> <b_lp_Chiralities_Consistent>
1

> <s_lp_Variant>
AV-unprocessed.smi:3214-1

> <Gold.Version>
5.8.1

> <Gold.Id.Protein>
6NUR|6NUR_protein|mol2

> <Gold.PLP.Fitness>
42.4306

> <Gold.PLP.PLP>
-30.1839

> <Gold.PLP.part.hbond>
-4.0000

> <Gold.PLP.part.metal>
0.0000

> <Gold.PLP.part.buried>
-0.3146

> <Gold.PLP.part.nonpolar>
-26.3830

> <Gold.PLP.part.repulsive>
0.3717

> <Gold.PLP.ligand.clash>
0.1019

> <Gold.PLP.ligand.torsion>
1.8749

> <Gold.PLP.Chemscore.Hbond>
4.3160

> <Gold.PLP.Chemscore.CHOScore>
1.0000

> <Gold.PLP.Chemscore.Metal>
0.0000

> <Gold.Chemscore.Hbonds>
donor molecule, donor type, donor heavy atom, donor atom, acceptor molecule, acceptor atom, score
      L1  H     3    22       P1  7948  0.98
      L1  H     8    27       P1  7948  2.00
      L1  H     8    37       P1  7957  0.80
      P1  H  7989  7998       L1    16  0.45
      L1  C    13    34       P1  7948  0.78

> <Gold.PLP.Chemscore.Internal.Correction>
0.1505

> <Gold.Rescore>
     Score         DG    S(hbond)    S(metal)    S(lipo)     H(rot)  DE(clash)    DE(int)     intcor
     14.65     -16.76       2.92        0.00      65.47       2.39       0.28       1.83       ----

> <Gold.Chemscore.Fitness>
14.6519

> <Gold.Chemscore.DG>
-16.7614

> <Gold.Chemscore.ZeroCoef>
-5.4800

> <Gold.Chemscore.Hbond>
2.9198

> <Gold.Chemscore.Metal>
0.0000

> <Gold.Chemscore.Lipo>
65.4689

> <Gold.Chemscore.Internal_Hbond>
0.0000

> <Gold.Chemscore.DEClash>
0.2816

> <Gold.Chemscore.DEInternal>
1.8280

> <Gold.Chemscore.Rot>
2.3948

> <Gold.Chemscore.Internal.Correction>
   9.000000E+99

> <Gold.Chemscore.Hbonds>
donor molecule, donor type, donor heavy atom, donor atom, acceptor molecule, acceptor atom, score
      L1  H     3    22       P1  7948  0.92
      L1  H     8    27       P1  7948  0.99
      L1  H     8    37       P1  7957  0.79
      P1  H  7989  7998       L1    16  0.02

> <Gold.Chemscore.Hbond.Weighted>
-9.7521

> <Gold.Chemscore.Metal.Weighted>
-0.0000

> <Gold.Chemscore.Lipo.Weighted>
-7.6599

> <Gold.Chemscore.Internal_Hbond.Weighted>
0.0000

> <Gold.Chemscore.DEClash.Weighted>
0.2816

> <Gold.Chemscore.DEInternal.Weighted>
1.8280

> <Gold.Chemscore.Rot.Weighted>
6.1306

> <Gold.Chemscore.Internal.Correction.Weighted>
   9.000000E+99

> <Gold.Protein.RotatedTorsions>
[ 6907 6896 6895 6894 ] final  156.76 input  -60.11 | X-H torsion
[ 7974 7965 7964 7962 ] final   48.39 input  175.53 | X-H torsion
[ 8008 7997 7996 7995 ] final   29.99 input   59.86 | X-H torsion
[ 10167 10162 10161 10158 ] final  -82.09 input  -65.29 | X-H torsion
[ 10718 10713 10712 10709 ] final  -13.76 input   66.30 | X-H torsion
[ 10763 10752 10751 10750 ] final    2.34 input  -60.55 | X-H torsion
[ 11005 11000 10999 10996 ] final  -62.25 input  -57.11 | X-H torsion

> <Gold.Protein.ActiveResidues>
 VAL166  LYS551  ARG553  GLY616  TRP617  ASP618  TYR619  PRO620  LYS621  CYS622 
 ASP623  PHE694  ASN695  SER759  ASP760  ASP761  ALA762  ILE779  LEU786  VAL792 
 PHE793  MET794  SER795  GLU796  ALA797  LYS798  CYS799  TRP800  GLU811  SER814 

> <Gold.Protein.RotatedAtoms>
  152.0250  133.3914  159.4273 H   0  0  0  0  0  0  0  0  0  0  0  0  # atno 6907 bound_to 6896
  150.6887  134.3584  159.4949 H   0  0  0  0  0  0  0  0  0  0  0  0  # atno 6908 bound_to 6896
  152.1362  134.9097  160.0607 H   0  0  0  0  0  0  0  0  0  0  0  0  # atno 6909 bound_to 6896
  146.0208  139.4649  142.9898 H   0  0  0  0  0  0  0  0  0  0  0  0  # atno 7974 bound_to 7965
  155.0833  140.3212  155.4595 H   0  0  0  0  0  0  0  0  0  0  0  0  # atno 8008 bound_to 7997
  156.2761  140.2091  156.5906 H   0  0  0  0  0  0  0  0  0  0  0  0  # atno 8009 bound_to 7997
  154.6961  140.0511  157.0399 H   0  0  0  0  0  0  0  0  0  0  0  0  # atno 8010 bound_to 7997
  140.4352  143.2534  151.8704 H   0  0  0  0  0  0  0  0  0  0  0  0  # atno 10167 bound_to 10162
  156.6257  130.4887  149.6148 H   0  0  0  0  0  0  0  0  0  0  0  0  # atno 10718 bound_to 10713
  153.2968  135.6953  153.7240 H   0  0  0  0  0  0  0  0  0  0  0  0  # atno 10763 bound_to 10752
  153.6170  135.3434  155.2999 H   0  0  0  0  0  0  0  0  0  0  0  0  # atno 10764 bound_to 10752
  154.8540  135.4377  154.2068 H   0  0  0  0  0  0  0  0  0  0  0  0  # atno 10765 bound_to 10752
  141.1353  133.6638  156.5499 H   0  0  0  0  0  0  0  0  0  0  0  0  # atno 11005 bound_to 11000
  145.7196  141.0079  143.1410 LP  0  0  0  0  0  0  0  0  0  0  0  0  # atno 17320 bound_to 7965
  144.6989  139.8854  143.7450 LP  0  0  0  0  0  0  0  0  0  0  0  0  # atno 17321 bound_to 7965
  139.4786  144.5291  151.8693 LP  0  0  0  0  0  0  0  0  0  0  0  0  # atno 17342 bound_to 10162
  140.4382  144.2023  150.5890 LP  0  0  0  0  0  0  0  0  0  0  0  0  # atno 17343 bound_to 10162
  156.2275  130.6774  151.1431 LP  0  0  0  0  0  0  0  0  0  0  0  0  # atno 17370 bound_to 10713
  157.7215  131.0678  150.6117 LP  0  0  0  0  0  0  0  0  0  0  0  0  # atno 17371 bound_to 10713
  140.4072  134.7304  157.4814 LP  0  0  0  0  0  0  0  0  0  0  0  0  # atno 17394 bound_to 11000
  140.0453  134.6208  155.8928 LP  0  0  0  0  0  0  0  0  0  0  0  0  # atno 17395 bound_to 11000

$$$$
