AV-unprocessed.smi:1265|AV-procd|sdf|5319|dock3
  -GOLD-   22720 4443D 1   1.00000     0.00000
 Structure written by MMmdl.
 45 47  0  0  0  0  0  0  0  0  2 V2000
  145.4895  133.7997  153.9673 O   0  0  0  0  0  0  0  0  0  0  0  0
  146.3523  134.2897  153.2404 C   0  0  0  0  0  0  0  0  0  0  0  0
  147.3543  135.0528  153.7008 N   0  0  0  0  0  0  0  0  0  0  0  0
  147.5811  135.4016  155.1037 C   0  0  0  0  0  0  0  0  0  0  0  0
  149.0886  135.6141  155.4573 C   0  0  1  0  0  0  0  0  0  0  0  0
  149.5725  136.8737  154.7786 N   0  3  0  0  0  0  0  0  0  0  0  0
  148.8195  138.1284  155.0598 C   0  0  0  0  0  0  0  0  0  0  0  0
  149.3583  139.2987  154.2173 C   0  0  0  0  0  0  0  0  0  0  0  0
  150.7513  139.4632  154.4355 O   0  0  0  0  0  0  0  0  0  0  0  0
  151.4782  138.3078  154.0474 C   0  0  0  0  0  0  0  0  0  0  0  0
  151.0366  137.1194  154.9143 C   0  0  0  0  0  0  0  0  0  0  0  0
  149.2723  135.6339  157.0015 C   0  0  0  0  0  0  0  0  0  0  0  0
  149.0408  134.2182  157.5388 C   0  0  0  0  0  0  0  0  0  0  0  0
  149.6607  133.0714  156.2843 S   0  0  0  0  0  0  0  0  0  0  0  0
  149.9027  134.3674  155.0379 C   0  0  0  0  0  0  0  0  0  0  0  0
  146.4324  134.1412  151.9061 N   0  0  0  0  0  0  0  0  0  0  0  0
  145.5739  133.4324  151.0196 C   0  0  0  0  0  0  0  0  0  0  0  0
  146.1779  132.7512  149.9421 C   0  0  0  0  0  0  0  0  0  0  0  0
  145.3605  132.0439  149.0381 C   0  0  0  0  0  0  0  0  0  0  0  0
  144.0170  131.9847  149.1448 N   0  0  0  0  0  0  0  0  0  0  0  0
  143.4380  132.6427  150.1709 C   0  0  0  0  0  0  0  0  0  0  0  0
  144.1623  133.3806  151.1289 C   0  0  0  0  0  0  0  0  0  0  0  0
  148.0297  135.3953  153.0333 H   0  0  0  0  0  0  0  0  0  0  0  0
  146.9720  136.2616  155.3812 H   0  0  0  0  0  0  0  0  0  0  0  0
  147.1654  134.5883  155.6969 H   0  0  0  0  0  0  0  0  0  0  0  0
  147.7674  138.0204  154.8005 H   0  0  0  0  0  0  0  0  0  0  0  0
  148.8783  138.3705  156.1216 H   0  0  0  0  0  0  0  0  0  0  0  0
  149.1638  139.1331  153.1563 H   0  0  0  0  0  0  0  0  0  0  0  0
  148.8479  140.2223  154.4907 H   0  0  0  0  0  0  0  0  0  0  0  0
  151.3284  138.0989  152.9868 H   0  0  0  0  0  0  0  0  0  0  0  0
  152.5424  138.4986  154.1874 H   0  0  0  0  0  0  0  0  0  0  0  0
  151.2880  137.3284  155.9549 H   0  0  0  0  0  0  0  0  0  0  0  0
  151.6113  136.2438  154.6179 H   0  0  0  0  0  0  0  0  0  0  0  0
  150.3009  135.8702  157.2703 H   0  0  0  0  0  0  0  0  0  0  0  0
  148.6419  136.3689  157.5007 H   0  0  0  0  0  0  0  0  0  0  0  0
  149.5468  134.0583  158.4912 H   0  0  0  0  0  0  0  0  0  0  0  0
  147.9793  134.0294  157.6996 H   0  0  0  0  0  0  0  0  0  0  0  0
  149.6328  133.9954  154.0489 H   0  0  0  0  0  0  0  0  0  0  0  0
  150.9688  134.5943  155.0185 H   0  0  0  0  0  0  0  0  0  0  0  0
  147.2318  134.5717  151.4652 H   0  0  0  0  0  0  0  0  0  0  0  0
  147.2497  132.7639  149.8069 H   0  0  0  0  0  0  0  0  0  0  0  0
  145.7990  131.5124  148.2063 H   0  0  0  0  0  0  0  0  0  0  0  0
  142.3614  132.5827  150.2296 H   0  0  0  0  0  0  0  0  0  0  0  0
  143.6179  133.8860  151.9103 H   0  0  0  0  0  0  0  0  0  0  0  0
  149.4151  136.7046  153.7954 H   0  0  0  0  0  0  0  0  0  0  0  0
  1  2  2  0  0  0  0
  2  3  1  0  0  0  0
  2 16  1  0  0  0  0
  3  4  1  0  0  0  0
  3 23  1  0  0  0  0
  4  5  1  0  0  0  0
  4 24  1  0  0  0  0
  4 25  1  0  0  0  0
  5 15  1  0  0  0  0
  5  6  1  0  0  0  0
  5 12  1  0  0  0  0
  6 11  1  0  0  0  0
  6  7  1  0  0  0  0
  6 45  1  0  0  0  0
  7  8  1  0  0  0  0
  7 26  1  0  0  0  0
  7 27  1  0  0  0  0
  8  9  1  0  0  0  0
  8 28  1  0  0  0  0
  8 29  1  0  0  0  0
  9 10  1  0  0  0  0
 10 11  1  0  0  0  0
 10 30  1  0  0  0  0
 10 31  1  0  0  0  0
 11 32  1  0  0  0  0
 11 33  1  0  0  0  0
 12 13  1  0  0  0  0
 12 34  1  0  0  0  0
 12 35  1  0  0  0  0
 13 14  1  0  0  0  0
 13 36  1  0  0  0  0
 13 37  1  0  0  0  0
 14 15  1  0  0  0  0
 15 38  1  0  0  0  0
 15 39  1  0  0  0  0
 16 17  1  0  0  0  0
 16 40  1  0  0  0  0
 17 22  1  0  0  0  0
 17 18  2  0  0  0  0
 18 19  1  0  0  0  0
 18 41  1  0  0  0  0
 19 20  2  0  0  0  0
 19 42  1  0  0  0  0
 20 21  1  0  0  0  0
 21 22  2  0  0  0  0
 21 43  1  0  0  0  0
 22 44  1  0  0  0  0
M  CHG  1   6   1
M  END
> <s_m_source_file>
AV-unprocessed.smi

> <i_m_source_file_index>
1265

> <i_lp_mmshare_version>
43012

> <i_f3d_flags>
0

> <s_epik_input>
W2NIXTFbY0hdbltjSF1bY0hdYzFbTkhdQyg9TylbTkhdW0NIMl1bQ0BdMihbQ0gyXVtDSDJdU1tDSDJdMilOM1tDSDJdW0NIMl1PW0NIMl1bQ0gyXTM=

> <s_epik_cmdline>
J2VwaWtfcHl0aG9uJywgJy1waCcsICc3LjAnLCAnLXRuJywgJzgnLCAnLW1hJywgJzIwMCcsICctbWV0YWxfYmluZGluZycsICctaW1hZScsICc8aW5maWxlLm1hZT4nLCAnLW9tYWUnLCAnPG91dGZpbGUubWFlPic=

> <r_epik_Ionization_Penalty>
2.1318

> <r_epik_Ionization_Penalty_Charging>
2.03219

> <r_epik_Ionization_Penalty_Neutral>
0.0996087

> <r_epik_State_Penalty>
2.24194

> <r_epik_Charging_Adjusted_Penalty>
4.27413

> <i_epik_Tot_Q>
1

> <i_epik_Tot_abs_Q>
1

> <r_epik_Metal_State_Penalty>
2.2363

> <b_epik_Metal_Only>
0

> <s_lp_Force_Field>
OPLS_2005

> <r_lp_Energy>
49.9245

> <b_lp_Chiralities_Consistent>
1

> <s_lp_Variant>
AV-unprocessed.smi:1265-5

> <Gold.Version>
5.8.1

> <Gold.Id.Protein>
6NUR|6NUR_protein|mol2

> <Gold.PLP.Fitness>
48.3788

> <Gold.PLP.PLP>
-31.1872

> <Gold.PLP.part.hbond>
-4.3569

> <Gold.PLP.part.metal>
0.0000

> <Gold.PLP.part.buried>
-3.7613

> <Gold.PLP.part.nonpolar>
-24.0556

> <Gold.PLP.part.repulsive>
0.4858

> <Gold.PLP.ligand.clash>
0.0000

> <Gold.PLP.ligand.torsion>
0.5938

> <Gold.PLP.Chemscore.Hbond>
4.8104

> <Gold.PLP.Chemscore.CHOScore>
1.2752

> <Gold.PLP.Chemscore.Metal>
0.0000

> <Gold.Chemscore.Hbonds>
donor molecule, donor type, donor heavy atom, donor atom, acceptor molecule, acceptor atom, score
      L1  H     3    23       P1  7948  1.00
      L1  H     6    45       P1  7948  2.00
      L1  H    16    40       P1  7948  0.14
      P1  H  7989  7998       L1     9  1.00
      P1  H 10785 10796       L1    20  0.66
      L1  C    21    43       P1 10186  0.83
      L1  C    21    43       P1 10952  0.35

> <Gold.PLP.Chemscore.Internal.Correction>
0.1221

> <Gold.Rescore>
     Score         DG    S(hbond)    S(metal)    S(lipo)     H(rot)  DE(clash)    DE(int)     intcor
     21.69     -23.75       3.27        0.00      95.33       1.49       1.43       0.63       ----

> <Gold.Chemscore.Fitness>
21.6874

> <Gold.Chemscore.DG>
-23.7535

> <Gold.Chemscore.ZeroCoef>
-5.4800

> <Gold.Chemscore.Hbond>
3.2706

> <Gold.Chemscore.Metal>
0.0000

> <Gold.Chemscore.Lipo>
95.3328

> <Gold.Chemscore.Internal_Hbond>
0.0000

> <Gold.Chemscore.DEClash>
1.4328

> <Gold.Chemscore.DEInternal>
0.6332

> <Gold.Chemscore.Rot>
1.4860

> <Gold.Chemscore.Internal.Correction>
   9.000000E+99

> <Gold.Chemscore.Hbonds>
donor molecule, donor type, donor heavy atom, donor atom, acceptor molecule, acceptor atom, score
      L1  H     3    23       P1  7948  1.00
      L1  H     6    45       P1  7948  0.86
      L1  H    16    40       P1  7948  0.07
      P1  H  7989  7998       L1     9  0.38
      P1  H 10785 10796       L1    20  0.49

> <Gold.Chemscore.Hbond.Weighted>
-10.9238

> <Gold.Chemscore.Metal.Weighted>
-0.0000

> <Gold.Chemscore.Lipo.Weighted>
-11.1539

> <Gold.Chemscore.Internal_Hbond.Weighted>
0.0000

> <Gold.Chemscore.DEClash.Weighted>
1.4328

> <Gold.Chemscore.DEInternal.Weighted>
0.6332

> <Gold.Chemscore.Rot.Weighted>
3.8042

> <Gold.Chemscore.Internal.Correction.Weighted>
   9.000000E+99

> <Gold.Protein.RotatedTorsions>
[ 6907 6896 6895 6894 ] final -178.64 input  -60.11 | X-H torsion
[ 7974 7965 7964 7962 ] final -158.42 input  175.53 | X-H torsion
[ 8008 7997 7996 7995 ] final  -16.14 input   59.86 | X-H torsion
[ 10167 10162 10161 10158 ] final -171.51 input  -65.29 | X-H torsion
[ 10718 10713 10712 10709 ] final    2.08 input   66.30 | X-H torsion
[ 10763 10752 10751 10750 ] final   97.89 input  -60.55 | X-H torsion
[ 11005 11000 10999 10996 ] final  -92.74 input  -57.11 | X-H torsion

> <Gold.Protein.ActiveResidues>
 VAL166  LYS551  ARG553  GLY616  TRP617  ASP618  TYR619  PRO620  LYS621  CYS622 
 ASP623  PHE694  ASN695  SER759  ASP760  ASP761  ALA762  ILE779  LEU786  VAL792 
 PHE793  MET794  SER795  GLU796  ALA797  LYS798  CYS799  TRP800  GLU811  SER814 

> <Gold.Protein.RotatedAtoms>
  151.6405  133.3326  159.3128 H   0  0  0  0  0  0  0  0  0  0  0  0  # atno 6907 bound_to 6896
  150.8010  134.7108  159.6612 H   0  0  0  0  0  0  0  0  0  0  0  0  # atno 6908 bound_to 6896
  152.4102  134.6141  160.0085 H   0  0  0  0  0  0  0  0  0  0  0  0  # atno 6909 bound_to 6896
  144.7506  140.3829  143.6051 H   0  0  0  0  0  0  0  0  0  0  0  0  # atno 7974 bound_to 7965
  154.5076  140.2177  155.9221 H   0  0  0  0  0  0  0  0  0  0  0  0  # atno 8008 bound_to 7997
  156.1512  140.3161  155.8618 H   0  0  0  0  0  0  0  0  0  0  0  0  # atno 8009 bound_to 7997
  155.3934  140.0479  157.3030 H   0  0  0  0  0  0  0  0  0  0  0  0  # atno 8010 bound_to 7997
  139.5798  144.1449  152.1500 H   0  0  0  0  0  0  0  0  0  0  0  0  # atno 10167 bound_to 10162
  156.8577  130.5576  149.5665 H   0  0  0  0  0  0  0  0  0  0  0  0  # atno 10718 bound_to 10713
  153.2824  135.4167  155.1091 H   0  0  0  0  0  0  0  0  0  0  0  0  # atno 10763 bound_to 10752
  154.8494  135.3498  154.6093 H   0  0  0  0  0  0  0  0  0  0  0  0  # atno 10764 bound_to 10752
  153.6514  135.7052  153.5265 H   0  0  0  0  0  0  0  0  0  0  0  0  # atno 10765 bound_to 10752
  141.1514  133.7841  157.0062 H   0  0  0  0  0  0  0  0  0  0  0  0  # atno 11005 bound_to 11000
  145.6958  139.1649  143.2621 LP  0  0  0  0  0  0  0  0  0  0  0  0  # atno 17320 bound_to 7965
  146.1451  140.7004  142.9348 LP  0  0  0  0  0  0  0  0  0  0  0  0  # atno 17321 bound_to 7965
  140.0999  144.5548  150.6996 LP  0  0  0  0  0  0  0  0  0  0  0  0  # atno 17342 bound_to 10162
  140.7077  143.2481  151.4675 LP  0  0  0  0  0  0  0  0  0  0  0  0  # atno 17343 bound_to 10162
  156.0793  130.5808  150.9533 LP  0  0  0  0  0  0  0  0  0  0  0  0  # atno 17370 bound_to 10713
  157.6267  131.0925  150.8519 LP  0  0  0  0  0  0  0  0  0  0  0  0  # atno 17371 bound_to 10713
  140.0907  134.9594  157.1772 LP  0  0  0  0  0  0  0  0  0  0  0  0  # atno 17394 bound_to 11000
  140.3449  134.2663  155.7206 LP  0  0  0  0  0  0  0  0  0  0  0  0  # atno 17395 bound_to 11000

$$$$
