AV-unprocessed.smi:781|AV-procd|sdf|3713|dock4
  -GOLD-   22720 1133D 1   1.00000     0.00000
 Structure written by MMmdl.
 38 40  0  0  0  0  0  0  0  0  1 V2000
  145.8314  134.5269  162.6830 C   0  0  0  0  0  0  0  0  0  0  0  0
  146.6857  135.3351  161.7675 C   0  0  0  0  0  0  0  0  0  0  0  0
  146.7484  135.4413  160.4064 C   0  0  0  0  0  0  0  0  0  0  0  0
  147.7867  136.3895  160.2070 C   0  0  0  0  0  0  0  0  0  0  0  0
  148.1713  136.7834  158.9001 N   0  0  0  0  0  0  0  0  0  0  0  0
  149.4185  136.9444  158.4266 C   0  0  0  0  0  0  0  0  0  0  0  0
  150.4518  136.7793  159.0755 O   0  0  0  0  0  0  0  0  0  0  0  0
  149.4051  137.3200  157.1402 N   0  0  0  0  0  0  0  0  0  0  0  0
  150.5960  137.5945  156.3355 C   0  0  2  0  0  0  0  0  0  0  0  0
  151.5170  138.6808  156.9503 C   0  0  2  0  0  0  0  0  0  0  0  0
  150.7151  139.9411  157.3396 C   0  0  0  0  0  0  0  0  0  0  0  0
  150.3347  140.5317  155.9700 C   0  0  0  0  0  0  0  0  0  0  0  0
  150.9976  139.5554  154.9753 C   0  0  1  0  0  0  0  0  0  0  0  0
  152.2722  139.1883  155.7263 C   0  0  0  0  0  0  0  0  0  0  0  0
  150.2775  138.1852  154.9329 C   0  0  2  0  0  0  0  0  0  0  0  0
  148.7954  138.2086  154.4955 C   0  0  0  0  0  0  0  0  0  0  0  0
  148.6877  138.6277  153.1515 O   0  0  0  0  0  0  0  0  0  0  0  0
  148.3112  136.8225  161.3433 N   0  0  0  0  0  0  0  0  0  0  0  0
  147.6091  136.1479  162.3492 O   0  0  0  0  0  0  0  0  0  0  0  0
  144.9009  134.2393  162.1936 H   0  0  0  0  0  0  0  0  0  0  0  0
  145.5792  135.0921  163.5804 H   0  0  0  0  0  0  0  0  0  0  0  0
  146.3479  133.6173  162.9893 H   0  0  0  0  0  0  0  0  0  0  0  0
  146.1465  134.9233  159.6746 H   0  0  0  0  0  0  0  0  0  0  0  0
  147.4149  136.9626  158.2568 H   0  0  0  0  0  0  0  0  0  0  0  0
  148.5117  137.4334  156.6845 H   0  0  0  0  0  0  0  0  0  0  0  0
  151.1565  136.6667  156.2051 H   0  0  0  0  0  0  0  0  0  0  0  0
  152.1517  138.3074  157.7546 H   0  0  0  0  0  0  0  0  0  0  0  0
  149.8472  139.7350  157.9655 H   0  0  0  0  0  0  0  0  0  0  0  0
  151.3484  140.6394  157.8885 H   0  0  0  0  0  0  0  0  0  0  0  0
  149.2581  140.6223  155.8347 H   0  0  0  0  0  0  0  0  0  0  0  0
  150.7578  141.5312  155.8620 H   0  0  0  0  0  0  0  0  0  0  0  0
  151.1650  139.9878  153.9885 H   0  0  0  0  0  0  0  0  0  0  0  0
  152.9148  140.0454  155.9365 H   0  0  0  0  0  0  0  0  0  0  0  0
  152.8631  138.4154  155.2311 H   0  0  0  0  0  0  0  0  0  0  0  0
  150.8042  137.5684  154.2019 H   0  0  0  0  0  0  0  0  0  0  0  0
  148.3680  137.2084  154.5725 H   0  0  0  0  0  0  0  0  0  0  0  0
  148.1886  138.8597  155.1236 H   0  0  0  0  0  0  0  0  0  0  0  0
  148.8942  137.8959  152.5905 H   0  0  0  0  0  0  0  0  0  0  0  0
  1  2  1  0  0  0  0
  1 20  1  0  0  0  0
  1 21  1  0  0  0  0
  1 22  1  0  0  0  0
  2 19  1  0  0  0  0
  2  3  2  0  0  0  0
  3  4  1  0  0  0  0
  3 23  1  0  0  0  0
  4  5  1  0  0  0  0
  4 18  2  0  0  0  0
  5  6  1  0  0  0  0
  5 24  1  0  0  0  0
  6  7  2  0  0  0  0
  6  8  1  0  0  0  0
  8  9  1  0  0  0  0
  8 25  1  0  0  0  0
  9 15  1  0  0  0  0
  9 10  1  0  0  0  0
  9 26  1  0  0  0  0
 10 14  1  0  0  0  0
 10 11  1  0  0  0  0
 10 27  1  0  0  0  0
 11 12  1  0  0  0  0
 11 28  1  0  0  0  0
 11 29  1  0  0  0  0
 12 13  1  0  0  0  0
 12 30  1  0  0  0  0
 12 31  1  0  0  0  0
 13 14  1  0  0  0  0
 13 15  1  0  0  0  0
 13 32  1  0  0  0  0
 14 33  1  0  0  0  0
 14 34  1  0  0  0  0
 15 16  1  0  0  0  0
 15 35  1  0  0  0  0
 16 17  1  0  0  0  0
 16 36  1  0  0  0  0
 16 37  1  0  0  0  0
 17 38  1  0  0  0  0
 18 19  1  0  0  0  0
M  END
> <s_m_source_file>
AV-unprocessed.smi

> <i_m_source_file_index>
781

> <i_lp_mmshare_version>
43012

> <i_f3d_flags>
0

> <s_epik_input>
W0NIM11jMVtjSF1jKG5vMSlbTkhdQyg9TylbTkhdW0NASF0oW0NAQEhdMjMpW0NASF0oW0NIMl1bT0hdKVtDQEBIXShbQ0gyXTMpW0NIMl1bQ0gyXTI=

> <s_epik_cmdline>
J2VwaWtfcHl0aG9uJywgJy1waCcsICc3LjAnLCAnLXRuJywgJzgnLCAnLW1hJywgJzIwMCcsICctbWV0YWxfYmluZGluZycsICctaW1hZScsICc8aW5maWxlLm1hZT4nLCAnLW9tYWUnLCAnPG91dGZpbGUubWFlPic=

> <r_lp_tautomer_probability>
1

> <r_epik_Ionization_Penalty>
2.32222e-05

> <r_epik_Ionization_Penalty_Charging>
0

> <r_epik_Ionization_Penalty_Neutral>
2.32222e-05

> <r_epik_State_Penalty>
-0

> <r_epik_Charging_Adjusted_Penalty>
0

> <i_epik_Tot_Q>
0

> <i_epik_Tot_abs_Q>
0

> <r_epik_Metal_State_Penalty>
-0

> <b_epik_Metal_Only>
0

> <s_lp_Force_Field>
OPLS_2005

> <r_lp_Energy>
48.8518

> <b_lp_Chiralities_Consistent>
1

> <s_lp_Variant>
AV-unprocessed.smi:781-7

> <Gold.Version>
5.8.1

> <Gold.Id.Protein>
6NUR|6NUR_protein|mol2

> <Gold.PLP.Fitness>
37.4940

> <Gold.PLP.PLP>
-29.3212

> <Gold.PLP.part.hbond>
-4.1715

> <Gold.PLP.part.metal>
0.0000

> <Gold.PLP.part.buried>
-3.7663

> <Gold.PLP.part.nonpolar>
-22.7774

> <Gold.PLP.part.repulsive>
0.1709

> <Gold.PLP.ligand.clash>
0.0000

> <Gold.PLP.ligand.torsion>
0.4046

> <Gold.PLP.Chemscore.Hbond>
2.9913

> <Gold.PLP.Chemscore.CHOScore>
0.0000

> <Gold.PLP.Chemscore.Metal>
0.0000

> <Gold.Chemscore.Hbonds>
donor molecule, donor type, donor heavy atom, donor atom, acceptor molecule, acceptor atom, score
      L1  H    17    38       P1  7948  1.00
      P1  H  6896  6908       L1     7  1.00
      P1  H  6931  6943       L1    18  1.00

> <Gold.PLP.Chemscore.Internal.Correction>
0.0083

> <Gold.Rescore>
     Score         DG    S(hbond)    S(metal)    S(lipo)     H(rot)  DE(clash)    DE(int)     intcor
     17.54     -17.99       2.89        0.00      65.24       1.86       0.06       0.39       ----

> <Gold.Chemscore.Fitness>
17.5407

> <Gold.Chemscore.DG>
-17.9948

> <Gold.Chemscore.ZeroCoef>
-5.4800

> <Gold.Chemscore.Hbond>
2.8861

> <Gold.Chemscore.Metal>
0.0000

> <Gold.Chemscore.Lipo>
65.2429

> <Gold.Chemscore.Internal_Hbond>
0.0000

> <Gold.Chemscore.DEClash>
0.0604

> <Gold.Chemscore.DEInternal>
0.3937

> <Gold.Chemscore.Rot>
1.8587

> <Gold.Chemscore.Internal.Correction>
   9.000000E+99

> <Gold.Chemscore.Hbonds>
donor molecule, donor type, donor heavy atom, donor atom, acceptor molecule, acceptor atom, score
      L1  H    17    38       P1  7948  1.00
      P1  H  6896  6908       L1     7  0.98
      P1  H  6931  6943       L1    18  0.85

> <Gold.Chemscore.Hbond.Weighted>
-9.6397

> <Gold.Chemscore.Metal.Weighted>
-0.0000

> <Gold.Chemscore.Lipo.Weighted>
-7.6334

> <Gold.Chemscore.Internal_Hbond.Weighted>
0.0000

> <Gold.Chemscore.DEClash.Weighted>
0.0604

> <Gold.Chemscore.DEInternal.Weighted>
0.3937

> <Gold.Chemscore.Rot.Weighted>
4.7583

> <Gold.Chemscore.Internal.Correction.Weighted>
   9.000000E+99

> <Gold.Protein.RotatedTorsions>
[ 6907 6896 6895 6894 ] final -148.68 input  -60.11 | X-H torsion
[ 7974 7965 7964 7962 ] final  101.76 input  175.53 | X-H torsion
[ 8008 7997 7996 7995 ] final    7.67 input   59.86 | X-H torsion
[ 10167 10162 10161 10158 ] final  -41.72 input  -65.29 | X-H torsion
[ 10718 10713 10712 10709 ] final  -50.76 input   66.30 | X-H torsion
[ 10763 10752 10751 10750 ] final   15.05 input  -60.55 | X-H torsion
[ 11005 11000 10999 10996 ] final  -95.42 input  -57.11 | X-H torsion

> <Gold.Protein.ActiveResidues>
 VAL166  LYS551  ARG553  GLY616  TRP617  ASP618  TYR619  PRO620  LYS621  CYS622 
 ASP623  PHE694  ASN695  SER759  ASP760  ASP761  ALA762  ILE779  LEU786  VAL792 
 PHE793  MET794  SER795  GLU796  ALA797  LYS798  CYS799  TRP800  GLU811  SER814 

> <Gold.Protein.RotatedAtoms>
  151.1733  133.4770  159.2593 H   0  0  0  0  0  0  0  0  0  0  0  0  # atno 6907 bound_to 6896
  151.1333  135.0141  159.8602 H   0  0  0  0  0  0  0  0  0  0  0  0  # atno 6908 bound_to 6896
  152.5460  134.1634  159.8620 H   0  0  0  0  0  0  0  0  0  0  0  0  # atno 6909 bound_to 6896
  145.3681  139.2404  143.3470 H   0  0  0  0  0  0  0  0  0  0  0  0  # atno 7974 bound_to 7965
  154.7569  140.2777  155.6246 H   0  0  0  0  0  0  0  0  0  0  0  0  # atno 8008 bound_to 7997
  156.2907  140.2667  156.2264 H   0  0  0  0  0  0  0  0  0  0  0  0  # atno 8009 bound_to 7997
  155.0066  140.0372  157.2372 H   0  0  0  0  0  0  0  0  0  0  0  0  # atno 8010 bound_to 7997
  140.6993  143.3078  151.3106 H   0  0  0  0  0  0  0  0  0  0  0  0  # atno 10167 bound_to 10162
  156.1771  130.4150  149.9560 H   0  0  0  0  0  0  0  0  0  0  0  0  # atno 10718 bound_to 10713
  153.1563  135.6788  153.8808 H   0  0  0  0  0  0  0  0  0  0  0  0  # atno 10763 bound_to 10752
  153.8218  135.3129  155.3412 H   0  0  0  0  0  0  0  0  0  0  0  0  # atno 10764 bound_to 10752
  154.7900  135.4840  154.0118 H   0  0  0  0  0  0  0  0  0  0  0  0  # atno 10765 bound_to 10752
  141.1442  133.8025  157.0432 H   0  0  0  0  0  0  0  0  0  0  0  0  # atno 11005 bound_to 11000
  146.2897  140.4327  142.8744 LP  0  0  0  0  0  0  0  0  0  0  0  0  # atno 17320 bound_to 7965
  144.8596  140.7121  143.6115 LP  0  0  0  0  0  0  0  0  0  0  0  0  # atno 17321 bound_to 7965
  139.6491  144.0396  152.2613 LP  0  0  0  0  0  0  0  0  0  0  0  0  # atno 17342 bound_to 10162
  139.9927  144.6350  150.7800 LP  0  0  0  0  0  0  0  0  0  0  0  0  # atno 17343 bound_to 10162
  156.7342  130.9055  151.3628 LP  0  0  0  0  0  0  0  0  0  0  0  0  # atno 17370 bound_to 10713
  157.6843  130.9170  150.0347 LP  0  0  0  0  0  0  0  0  0  0  0  0  # atno 17371 bound_to 10713
  140.0679  134.9719  157.1417 LP  0  0  0  0  0  0  0  0  0  0  0  0  # atno 17394 bound_to 11000
  140.3753  134.2346  155.7175 LP  0  0  0  0  0  0  0  0  0  0  0  0  # atno 17395 bound_to 11000

$$$$
