AV-unprocessed.smi:3161|AV-procd|sdf|12059|dock8
  -GOLD-   2272017483D 1   1.00000     0.00000
 Structure written by MMmdl.
 40 41  0  0  0  0  0  0  0  0  1 V2000
  151.9280  145.1919  158.8599 C   0  0  0  0  0  0  0  0  0  0  0  0
  152.1995  143.9946  159.7244 C   0  0  0  0  0  0  0  0  0  0  0  0
  151.6651  143.7051  161.0121 C   0  0  0  0  0  0  0  0  0  0  0  0
  152.1054  142.5597  161.5064 N   0  0  0  0  0  0  0  0  0  0  0  0
  152.9389  142.0814  160.5580 N   0  0  0  0  0  0  0  0  0  0  0  0
  153.6225  140.8162  160.7638 C   0  0  0  0  0  0  0  0  0  0  0  0
  153.4566  139.8554  159.5693 C   0  0  2  0  0  0  0  0  0  0  0  0
  151.9750  139.7622  159.1613 C   0  0  0  0  0  0  0  0  0  0  0  0
  154.0118  138.5378  159.8988 N   0  0  0  0  0  0  0  0  0  0  0  0
  153.3593  137.8311  160.9993 C   0  0  0  0  0  0  0  0  0  0  0  0
  154.3347  137.6215  162.1662 C   0  0  2  0  0  0  0  0  0  0  0  0
  153.6579  136.9130  163.3553 C   0  0  0  0  0  0  0  0  0  0  0  0
  154.6290  136.7960  164.5359 C   0  0  0  0  0  0  0  0  0  0  0  0
  155.2005  138.1768  164.8742 C   0  0  0  0  0  0  0  0  0  0  0  0
  155.7859  138.8352  163.6152 C   0  0  0  0  0  0  0  0  0  0  0  0
  154.7926  138.9024  162.5966 O   0  0  0  0  0  0  0  0  0  0  0  0
  153.0122  142.9260  159.4709 C   0  0  0  0  0  0  0  0  0  0  0  0
  151.3478  145.9496  159.3872 H   0  0  0  0  0  0  0  0  0  0  0  0
  151.3663  144.9216  157.9657 H   0  0  0  0  0  0  0  0  0  0  0  0
  152.8514  145.6676  158.5293 H   0  0  0  0  0  0  0  0  0  0  0  0
  150.9721  144.2902  161.5985 H   0  0  0  0  0  0  0  0  0  0  0  0
  154.6787  141.0042  160.9658 H   0  0  0  0  0  0  0  0  0  0  0  0
  153.2106  140.3645  161.6672 H   0  0  0  0  0  0  0  0  0  0  0  0
  154.0085  140.2722  158.7257 H   0  0  0  0  0  0  0  0  0  0  0  0
  151.5560  140.7540  158.9893 H   0  0  0  0  0  0  0  0  0  0  0  0
  151.3783  139.2829  159.9382 H   0  0  0  0  0  0  0  0  0  0  0  0
  151.8396  139.2005  158.2375 H   0  0  0  0  0  0  0  0  0  0  0  0
  155.0057  138.6192  160.0897 H   0  0  0  0  0  0  0  0  0  0  0  0
  152.4843  138.3746  161.3550 H   0  0  0  0  0  0  0  0  0  0  0  0
  153.0067  136.8625  160.6434 H   0  0  0  0  0  0  0  0  0  0  0  0
  155.1813  137.0212  161.8265 H   0  0  0  0  0  0  0  0  0  0  0  0
  152.7742  137.4734  163.6636 H   0  0  0  0  0  0  0  0  0  0  0  0
  153.3126  135.9221  163.0591 H   0  0  0  0  0  0  0  0  0  0  0  0
  154.1253  136.3684  165.4034 H   0  0  0  0  0  0  0  0  0  0  0  0
  155.4411  136.1155  164.2771 H   0  0  0  0  0  0  0  0  0  0  0  0
  154.4118  138.8102  165.2820 H   0  0  0  0  0  0  0  0  0  0  0  0
  155.9652  138.0911  165.6467 H   0  0  0  0  0  0  0  0  0  0  0  0
  156.1247  139.8456  163.8443 H   0  0  0  0  0  0  0  0  0  0  0  0
  156.6551  138.2828  163.2547 H   0  0  0  0  0  0  0  0  0  0  0  0
  153.6323  142.6992  158.6162 H   0  0  0  0  0  0  0  0  0  0  0  0
  1  2  1  0  0  0  0
  1 18  1  0  0  0  0
  1 19  1  0  0  0  0
  1 20  1  0  0  0  0
  2 17  2  0  0  0  0
  2  3  1  0  0  0  0
  3  4  2  0  0  0  0
  3 21  1  0  0  0  0
  4  5  1  0  0  0  0
  5  6  1  0  0  0  0
  5 17  1  0  0  0  0
  6  7  1  0  0  0  0
  6 22  1  0  0  0  0
  6 23  1  0  0  0  0
  7  8  1  0  0  0  0
  7  9  1  0  0  0  0
  7 24  1  0  0  0  0
  8 25  1  0  0  0  0
  8 26  1  0  0  0  0
  8 27  1  0  0  0  0
  9 10  1  0  0  0  0
  9 28  1  0  0  0  0
 10 11  1  0  0  0  0
 10 29  1  0  0  0  0
 10 30  1  0  0  0  0
 11 16  1  0  0  0  0
 11 12  1  0  0  0  0
 11 31  1  0  0  0  0
 12 13  1  0  0  0  0
 12 32  1  0  0  0  0
 12 33  1  0  0  0  0
 13 14  1  0  0  0  0
 13 34  1  0  0  0  0
 13 35  1  0  0  0  0
 14 15  1  0  0  0  0
 14 36  1  0  0  0  0
 14 37  1  0  0  0  0
 15 16  1  0  0  0  0
 15 38  1  0  0  0  0
 15 39  1  0  0  0  0
 17 40  1  0  0  0  0
M  END
> <s_m_source_file>
AV-unprocessed.smi

> <i_m_source_file_index>
3161

> <i_lp_mmshare_version>
43012

> <i_f3d_flags>
0

> <s_epik_input>
W0NIM11jMVtjSF1ubihbY0hdMSlbQ0gyXVtDQEhdKFtDSDNdKVtOSF1bQ0gyXVtDQEBIXTJbQ0gyXVtDSDJdW0NIMl1bQ0gyXU8y

> <s_epik_cmdline>
J2VwaWtfcHl0aG9uJywgJy1waCcsICc3LjAnLCAnLXRuJywgJzgnLCAnLW1hJywgJzIwMCcsICctbWV0YWxfYmluZGluZycsICctaW1hZScsICc8aW5maWxlLm1hZT4nLCAnLW9tYWUnLCAnPG91dGZpbGUubWFlPic=

> <r_lp_tautomer_probability>
1

> <r_epik_Ionization_Penalty>
2.51986

> <r_epik_Ionization_Penalty_Charging>
0

> <r_epik_Ionization_Penalty_Neutral>
2.51986

> <r_epik_State_Penalty>
2.68614

> <r_epik_Charging_Adjusted_Penalty>
2.68614

> <i_epik_Tot_Q>
0

> <i_epik_Tot_abs_Q>
0

> <r_epik_Metal_State_Penalty>
2.68606

> <b_epik_Metal_Only>
0

> <s_lp_Force_Field>
OPLS_2005

> <r_lp_Energy>
14.7371

> <b_lp_Chiralities_Consistent>
1

> <s_lp_Variant>
AV-unprocessed.smi:3161-5

> <Gold.Version>
5.8.1

> <Gold.Id.Protein>
6NUR|6NUR_protein|mol2

> <Gold.PLP.Fitness>
42.5132

> <Gold.PLP.PLP>
-43.5004

> <Gold.PLP.part.hbond>
-0.1858

> <Gold.PLP.part.metal>
0.0000

> <Gold.PLP.part.buried>
-5.5072

> <Gold.PLP.part.nonpolar>
-37.4444

> <Gold.PLP.part.repulsive>
0.0848

> <Gold.PLP.ligand.clash>
0.0000

> <Gold.PLP.ligand.torsion>
0.5048

> <Gold.PLP.Chemscore.Hbond>
0.0000

> <Gold.PLP.Chemscore.CHOScore>
0.0000

> <Gold.PLP.Chemscore.Metal>
0.0000

> <Gold.Chemscore.Hbonds>
donor molecule, donor type, donor heavy atom, donor atom, acceptor molecule, acceptor atom, score
      P1  H  6933  6945       L1     4  0.15

> <Gold.PLP.Chemscore.Internal.Correction>
0.0224

> <Gold.Rescore>
     Score         DG    S(hbond)    S(metal)    S(lipo)     H(rot)  DE(clash)    DE(int)     intcor
     15.73     -16.41       0.37        0.00     115.66       1.50       0.06       0.62       ----

> <Gold.Chemscore.Fitness>
15.7330

> <Gold.Chemscore.DG>
-16.4082

> <Gold.Chemscore.ZeroCoef>
-5.4800

> <Gold.Chemscore.Hbond>
0.3722

> <Gold.Chemscore.Metal>
0.0000

> <Gold.Chemscore.Lipo>
115.6644

> <Gold.Chemscore.Internal_Hbond>
0.0000

> <Gold.Chemscore.DEClash>
0.0556

> <Gold.Chemscore.DEInternal>
0.6196

> <Gold.Chemscore.Rot>
1.5030

> <Gold.Chemscore.Internal.Correction>
   9.000000E+99

> <Gold.Chemscore.Hbonds>
donor molecule, donor type, donor heavy atom, donor atom, acceptor molecule, acceptor atom, score
      P1  H  6933  6945       L1     4  0.03

> <Gold.Chemscore.Hbond.Weighted>
-1.2432

> <Gold.Chemscore.Metal.Weighted>
-0.0000

> <Gold.Chemscore.Lipo.Weighted>
-13.5327

> <Gold.Chemscore.Internal_Hbond.Weighted>
0.0000

> <Gold.Chemscore.DEClash.Weighted>
0.0556

> <Gold.Chemscore.DEInternal.Weighted>
0.6196

> <Gold.Chemscore.Rot.Weighted>
3.8477

> <Gold.Chemscore.Internal.Correction.Weighted>
   9.000000E+99

> <Gold.Protein.RotatedTorsions>
[ 6907 6896 6895 6894 ] final  145.74 input  -60.11 | X-H torsion
[ 7974 7965 7964 7962 ] final  -67.92 input  175.53 | X-H torsion
[ 8008 7997 7996 7995 ] final  143.79 input   59.86 | X-H torsion
[ 10167 10162 10161 10158 ] final -132.56 input  -65.29 | X-H torsion
[ 10718 10713 10712 10709 ] final  170.41 input   66.30 | X-H torsion
[ 10763 10752 10751 10750 ] final -156.13 input  -60.55 | X-H torsion
[ 11005 11000 10999 10996 ] final   63.26 input  -57.11 | X-H torsion

> <Gold.Protein.ActiveResidues>
 VAL166  LYS551  ARG553  GLY616  TRP617  ASP618  TYR619  PRO620  LYS621  CYS622 
 ASP623  PHE694  ASN695  SER759  ASP760  ASP761  ALA762  ILE779  LEU786  VAL792 
 PHE793  MET794  SER795  GLU796  ALA797  LYS798  CYS799  TRP800  GLU811  SER814 

> <Gold.Protein.RotatedAtoms>
  152.1769  133.4681  159.4937 H   0  0  0  0  0  0  0  0  0  0  0  0  # atno 6907 bound_to 6896
  150.6928  134.1882  159.4284 H   0  0  0  0  0  0  0  0  0  0  0  0  # atno 6908 bound_to 6896
  151.9791  135.0037  160.0607 H   0  0  0  0  0  0  0  0  0  0  0  0  # atno 6909 bound_to 6896
  145.7231  140.9030  143.0619 H   0  0  0  0  0  0  0  0  0  0  0  0  # atno 7974 bound_to 7965
  156.2922  140.2253  156.4948 H   0  0  0  0  0  0  0  0  0  0  0  0  # atno 8008 bound_to 7997
  154.7740  140.0465  157.1095 H   0  0  0  0  0  0  0  0  0  0  0  0  # atno 8009 bound_to 7997
  154.9840  140.3082  155.4938 H   0  0  0  0  0  0  0  0  0  0  0  0  # atno 8010 bound_to 7997
  139.9073  143.6536  152.2583 H   0  0  0  0  0  0  0  0  0  0  0  0  # atno 10167 bound_to 10162
  157.0084  131.0197  151.2810 H   0  0  0  0  0  0  0  0  0  0  0  0  # atno 10718 bound_to 10713
  154.7736  135.3152  154.8139 H   0  0  0  0  0  0  0  0  0  0  0  0  # atno 10763 bound_to 10752
  153.8868  135.6829  153.4767 H   0  0  0  0  0  0  0  0  0  0  0  0  # atno 10764 bound_to 10752
  153.1355  135.4762  154.9350 H   0  0  0  0  0  0  0  0  0  0  0  0  # atno 10765 bound_to 10752
  140.0036  134.6403  155.9890 H   0  0  0  0  0  0  0  0  0  0  0  0  # atno 11005 bound_to 11000
  144.6911  139.9229  143.7468 LP  0  0  0  0  0  0  0  0  0  0  0  0  # atno 17320 bound_to 7965
  146.0607  139.3601  143.0583 LP  0  0  0  0  0  0  0  0  0  0  0  0  # atno 17321 bound_to 7965
  139.6973  144.7639  151.1334 LP  0  0  0  0  0  0  0  0  0  0  0  0  # atno 17342 bound_to 10162
  140.7693  143.5506  150.9209 LP  0  0  0  0  0  0  0  0  0  0  0  0  # atno 17343 bound_to 10162
  157.5338  130.8076  149.7948 LP  0  0  0  0  0  0  0  0  0  0  0  0  # atno 17370 bound_to 10713
  156.0145  130.3819  150.2156 LP  0  0  0  0  0  0  0  0  0  0  0  0  # atno 17371 bound_to 10713
  141.1660  133.6537  156.4483 LP  0  0  0  0  0  0  0  0  0  0  0  0  # atno 17394 bound_to 11000
  140.4682  134.6778  157.5117 LP  0  0  0  0  0  0  0  0  0  0  0  0  # atno 17395 bound_to 11000

$$$$
