AV-unprocessed.smi:1644|AV-procd|sdf|6585|dock5
  -GOLD-   22720 7273D 1   1.00000     0.00000
 Structure written by MMmdl.
 49 51  0  0  0  0  0  0  0  0  1 V2000
  154.9424  143.3689  168.1074 C   0  0  0  0  0  0  0  0  0  0  0  0
  155.1792  141.8633  167.9470 C   0  0  0  0  0  0  0  0  0  0  0  0
  155.8113  141.5095  166.5898 C   0  0  0  0  0  0  0  0  0  0  0  0
  156.4798  140.1186  166.5429 C   0  0  1  0  0  0  0  0  0  0  0  0
  155.4981  139.0696  166.3519 N   0  0  0  0  0  0  0  0  0  0  0  0
  155.7024  138.3644  165.2324 C   0  0  0  0  0  0  0  0  0  0  0  0
  154.9944  137.4387  164.8389 O   0  0  0  0  0  0  0  0  0  0  0  0
  156.7990  138.8471  164.6230 N   0  0  0  0  0  0  0  0  0  0  0  0
  157.3217  138.3518  163.3460 C   0  0  0  0  0  0  0  0  0  0  0  0
  156.6959  139.0998  162.1506 C   0  0  2  0  0  0  0  0  0  0  0  0
  157.1514  140.4390  162.1619 O   0  0  0  0  0  0  0  0  0  0  0  0
  155.1573  139.1129  162.2203 C   0  0  0  0  0  0  0  0  0  0  0  0
  154.5634  139.7569  161.0632 N   0  0  0  0  0  0  0  0  0  0  0  0
  154.5415  139.3029  159.7954 C   0  0  0  0  0  0  0  0  0  0  0  0
  153.9345  140.0628  158.8877 N   0  0  0  0  0  0  0  0  0  0  0  0
  153.5130  141.1338  159.6575 C   0  0  0  0  0  0  0  0  0  0  0  0
  152.7992  142.2979  159.2979 C   0  0  0  0  0  0  0  0  0  0  0  0
  152.4708  143.2746  160.2653 C   0  0  0  0  0  0  0  0  0  0  0  0
  151.7018  144.5111  159.8344 C   0  0  0  0  0  0  0  0  0  0  0  0
  152.8580  143.0946  161.6176 C   0  0  0  0  0  0  0  0  0  0  0  0
  152.5159  144.1299  162.6744 C   0  0  0  0  0  0  0  0  0  0  0  0
  153.5720  141.9378  161.9938 C   0  0  0  0  0  0  0  0  0  0  0  0
  153.8924  140.9734  161.0220 C   0  0  0  0  0  0  0  0  0  0  0  0
  157.3248  139.8750  165.3026 C   0  0  0  0  0  0  0  0  0  0  0  0
  158.3198  140.5324  164.9980 O   0  0  0  0  0  0  0  0  0  0  0  0
  154.4873  143.5894  169.0734 H   0  0  0  0  0  0  0  0  0  0  0  0
  154.2772  143.7491  167.3317 H   0  0  0  0  0  0  0  0  0  0  0  0
  155.8798  143.9232  168.0478 H   0  0  0  0  0  0  0  0  0  0  0  0
  155.8158  141.5227  168.7631 H   0  0  0  0  0  0  0  0  0  0  0  0
  154.2302  141.3368  168.0554 H   0  0  0  0  0  0  0  0  0  0  0  0
  155.0367  141.5514  165.8226 H   0  0  0  0  0  0  0  0  0  0  0  0
  156.5383  142.2780  166.3213 H   0  0  0  0  0  0  0  0  0  0  0  0
  157.0594  139.9199  167.4452 H   0  0  0  0  0  0  0  0  0  0  0  0
  154.7361  138.9092  166.9948 H   0  0  0  0  0  0  0  0  0  0  0  0
  158.4027  138.5024  163.3473 H   0  0  0  0  0  0  0  0  0  0  0  0
  157.1869  137.2725  163.2496 H   0  0  0  0  0  0  0  0  0  0  0  0
  157.0008  138.6341  161.2124 H   0  0  0  0  0  0  0  0  0  0  0  0
  156.4833  140.9813  162.5528 H   0  0  0  0  0  0  0  0  0  0  0  0
  154.7738  138.0929  162.2665 H   0  0  0  0  0  0  0  0  0  0  0  0
  154.8142  139.6178  163.1248 H   0  0  0  0  0  0  0  0  0  0  0  0
  154.9936  138.3600  159.5245 H   0  0  0  0  0  0  0  0  0  0  0  0
  152.5042  142.4349  158.2679 H   0  0  0  0  0  0  0  0  0  0  0  0
  152.2935  145.4092  160.0127 H   0  0  0  0  0  0  0  0  0  0  0  0
  150.7682  144.5949  160.3912 H   0  0  0  0  0  0  0  0  0  0  0  0
  151.4555  144.4778  158.7728 H   0  0  0  0  0  0  0  0  0  0  0  0
  152.9020  143.8422  163.6527 H   0  0  0  0  0  0  0  0  0  0  0  0
  151.4353  144.2440  162.7614 H   0  0  0  0  0  0  0  0  0  0  0  0
  152.9469  145.0971  162.4157 H   0  0  0  0  0  0  0  0  0  0  0  0
  153.8726  141.7859  163.0202 H   0  0  0  0  0  0  0  0  0  0  0  0
  1  2  1  0  0  0  0
  1 26  1  0  0  0  0
  1 27  1  0  0  0  0
  1 28  1  0  0  0  0
  2  3  1  0  0  0  0
  2 29  1  0  0  0  0
  2 30  1  0  0  0  0
  3  4  1  0  0  0  0
  3 31  1  0  0  0  0
  3 32  1  0  0  0  0
  4 24  1  0  0  0  0
  4  5  1  0  0  0  0
  4 33  1  0  0  0  0
  5  6  1  0  0  0  0
  5 34  1  0  0  0  0
  6  7  2  0  0  0  0
  6  8  1  0  0  0  0
  8  9  1  0  0  0  0
  8 24  1  0  0  0  0
  9 10  1  0  0  0  0
  9 35  1  0  0  0  0
  9 36  1  0  0  0  0
 10 11  1  0  0  0  0
 10 12  1  0  0  0  0
 10 37  1  0  0  0  0
 11 38  1  0  0  0  0
 12 13  1  0  0  0  0
 12 39  1  0  0  0  0
 12 40  1  0  0  0  0
 13 23  1  0  0  0  0
 13 14  1  0  0  0  0
 14 15  2  0  0  0  0
 14 41  1  0  0  0  0
 15 16  1  0  0  0  0
 16 23  2  0  0  0  0
 16 17  1  0  0  0  0
 17 18  2  0  0  0  0
 17 42  1  0  0  0  0
 18 19  1  0  0  0  0
 18 20  1  0  0  0  0
 19 43  1  0  0  0  0
 19 44  1  0  0  0  0
 19 45  1  0  0  0  0
 20 21  1  0  0  0  0
 20 22  2  0  0  0  0
 21 46  1  0  0  0  0
 21 47  1  0  0  0  0
 21 48  1  0  0  0  0
 22 23  1  0  0  0  0
 22 49  1  0  0  0  0
 24 25  2  0  0  0  0
M  END
> <s_m_source_file>
AV-unprocessed.smi

> <i_m_source_file_index>
1644

> <i_lp_mmshare_version>
43012

> <i_f3d_flags>
0

> <s_epik_input>
W0NIM11bQ0gyXVtDSDJdW0NAQEhdMVtOSF1DKD1PKU4oQzE9TylbQ0gyXVtDQEhdKFtPSF0pW0NIMl1uKFtjSF1uMiljKGMyMylbY0hdYyhbQ0gzXSljKFtjSF0zKVtDSDNd

> <s_epik_cmdline>
J2VwaWtfcHl0aG9uJywgJy1waCcsICc3LjAnLCAnLXRuJywgJzgnLCAnLW1hJywgJzIwMCcsICctbWV0YWxfYmluZGluZycsICctaW1hZScsICc8aW5maWxlLm1hZT4nLCAnLW9tYWUnLCAnPG91dGZpbGUubWFlPic=

> <r_lp_tautomer_probability>
1

> <r_epik_Ionization_Penalty>
0.10693

> <r_epik_Ionization_Penalty_Charging>
0

> <r_epik_Ionization_Penalty_Neutral>
0.10693

> <r_epik_State_Penalty>
0.096713

> <r_epik_Charging_Adjusted_Penalty>
0.096713

> <i_epik_Tot_Q>
0

> <i_epik_Tot_abs_Q>
0

> <r_epik_Metal_State_Penalty>
0.102757

> <b_epik_Metal_Only>
0

> <s_lp_Force_Field>
OPLS_2005

> <r_lp_Energy>
21.5813

> <b_lp_Chiralities_Consistent>
1

> <s_lp_Variant>
AV-unprocessed.smi:1644-2

> <Gold.Version>
5.8.1

> <Gold.Id.Protein>
6NUR|6NUR_protein|mol2

> <Gold.PLP.Fitness>
48.9627

> <Gold.PLP.PLP>
-47.2303

> <Gold.PLP.part.hbond>
-2.0000

> <Gold.PLP.part.metal>
0.0000

> <Gold.PLP.part.buried>
-4.7513

> <Gold.PLP.part.nonpolar>
-39.7669

> <Gold.PLP.part.repulsive>
0.2533

> <Gold.PLP.ligand.clash>
0.0000

> <Gold.PLP.ligand.torsion>
0.7033

> <Gold.PLP.Chemscore.Hbond>
1.0000

> <Gold.PLP.Chemscore.CHOScore>
0.0000

> <Gold.PLP.Chemscore.Metal>
0.0000

> <Gold.Chemscore.Hbonds>
donor molecule, donor type, donor heavy atom, donor atom, acceptor molecule, acceptor atom, score
      P1  H  7997  8010       L1    15  0.96

> <Gold.PLP.Chemscore.Internal.Correction>
0.1391

> <Gold.Rescore>
     Score         DG    S(hbond)    S(metal)    S(lipo)     H(rot)  DE(clash)    DE(int)     intcor
     13.43     -16.27       0.94        0.00     124.82       2.72       1.56       1.28       ----

> <Gold.Chemscore.Fitness>
13.4254

> <Gold.Chemscore.DG>
-16.2693

> <Gold.Chemscore.ZeroCoef>
-5.4800

> <Gold.Chemscore.Hbond>
0.9437

> <Gold.Chemscore.Metal>
0.0000

> <Gold.Chemscore.Lipo>
124.8178

> <Gold.Chemscore.Internal_Hbond>
0.0000

> <Gold.Chemscore.DEClash>
1.5618

> <Gold.Chemscore.DEInternal>
1.2821

> <Gold.Chemscore.Rot>
2.7212

> <Gold.Chemscore.Internal.Correction>
   9.000000E+99

> <Gold.Chemscore.Hbonds>
donor molecule, donor type, donor heavy atom, donor atom, acceptor molecule, acceptor atom, score
      P1  H  7997  8010       L1    15  0.60

> <Gold.Chemscore.Hbond.Weighted>
-3.1519

> <Gold.Chemscore.Metal.Weighted>
-0.0000

> <Gold.Chemscore.Lipo.Weighted>
-14.6037

> <Gold.Chemscore.Internal_Hbond.Weighted>
0.0000

> <Gold.Chemscore.DEClash.Weighted>
1.5618

> <Gold.Chemscore.DEInternal.Weighted>
1.2821

> <Gold.Chemscore.Rot.Weighted>
6.9663

> <Gold.Chemscore.Internal.Correction.Weighted>
   9.000000E+99

> <Gold.Protein.RotatedTorsions>
[ 6907 6896 6895 6894 ] final -101.78 input  -60.11 | X-H torsion
[ 7974 7965 7964 7962 ] final    9.36 input  175.53 | X-H torsion
[ 8008 7997 7996 7995 ] final    7.54 input   59.86 | X-H torsion
[ 10167 10162 10161 10158 ] final -172.65 input  -65.29 | X-H torsion
[ 10718 10713 10712 10709 ] final  100.35 input   66.30 | X-H torsion
[ 10763 10752 10751 10750 ] final  -43.22 input  -60.55 | X-H torsion
[ 11005 11000 10999 10996 ] final   55.96 input  -57.11 | X-H torsion

> <Gold.Protein.ActiveResidues>
 VAL166  LYS551  ARG553  GLY616  TRP617  ASP618  TYR619  PRO620  LYS621  CYS622 
 ASP623  PHE694  ASN695  SER759  ASP760  ASP761  ALA762  ILE779  LEU786  VAL792 
 PHE793  MET794  SER795  GLU796  ALA797  LYS798  CYS799  TRP800  GLU811  SER814 

> <Gold.Protein.RotatedAtoms>
  150.7168  134.0682  159.3854 H   0  0  0  0  0  0  0  0  0  0  0  0  # atno 6907 bound_to 6896
  151.8664  135.0503  160.0484 H   0  0  0  0  0  0  0  0  0  0  0  0  # atno 6908 bound_to 6896
  152.2677  133.5318  159.5457 H   0  0  0  0  0  0  0  0  0  0  0  0  # atno 6909 bound_to 6896
  146.2404  139.9794  142.8438 H   0  0  0  0  0  0  0  0  0  0  0  0  # atno 7974 bound_to 7965
  154.7551  140.2774  155.6260 H   0  0  0  0  0  0  0  0  0  0  0  0  # atno 8008 bound_to 7997
  156.2904  140.2671  156.2242 H   0  0  0  0  0  0  0  0  0  0  0  0  # atno 8009 bound_to 7997
  155.0088  140.0372  157.2380 H   0  0  0  0  0  0  0  0  0  0  0  0  # atno 8010 bound_to 7997
  139.5733  144.1591  152.1414 H   0  0  0  0  0  0  0  0  0  0  0  0  # atno 10167 bound_to 10162
  157.6856  131.0696  150.5088 H   0  0  0  0  0  0  0  0  0  0  0  0  # atno 10718 bound_to 10713
  153.9920  135.6704  153.4754 H   0  0  0  0  0  0  0  0  0  0  0  0  # atno 10763 bound_to 10752
  153.0701  135.4979  154.8282 H   0  0  0  0  0  0  0  0  0  0  0  0  # atno 10764 bound_to 10752
  154.7104  135.3096  154.9169 H   0  0  0  0  0  0  0  0  0  0  0  0  # atno 10765 bound_to 10752
  140.0566  134.5661  155.9200 H   0  0  0  0  0  0  0  0  0  0  0  0  # atno 11005 bound_to 11000
  145.1606  140.9670  143.4379 LP  0  0  0  0  0  0  0  0  0  0  0  0  # atno 17320 bound_to 7965
  145.0120  139.3501  143.6115 LP  0  0  0  0  0  0  0  0  0  0  0  0  # atno 17321 bound_to 7965
  140.1129  144.5441  150.6913 LP  0  0  0  0  0  0  0  0  0  0  0  0  # atno 17342 bound_to 10162
  140.7016  143.2439  151.4847 LP  0  0  0  0  0  0  0  0  0  0  0  0  # atno 17343 bound_to 10162
  156.5406  130.4207  149.6156 LP  0  0  0  0  0  0  0  0  0  0  0  0  # atno 17370 bound_to 10713
  156.2989  130.7165  151.2032 LP  0  0  0  0  0  0  0  0  0  0  0  0  # atno 17371 bound_to 10713
  141.1955  133.6587  156.5645 LP  0  0  0  0  0  0  0  0  0  0  0  0  # atno 17394 bound_to 11000
  140.3834  134.7503  157.4676 LP  0  0  0  0  0  0  0  0  0  0  0  0  # atno 17395 bound_to 11000

$$$$
