AV-unprocessed.smi:21|AV-procd|sdf|127|dock1
  -GOLD-   2262015303D 1   1.00000     0.00000
 Structure written by MMmdl.
 62 65  0  0  0  0  0  0  0  0  2 V2000
  149.4028  125.7856  150.1226 C   0  0  0  0  0  0  0  0  0  0  0  0
  148.8066  127.0167  150.4990 O   0  0  0  0  0  0  0  0  0  0  0  0
  147.8378  126.8928  151.5322 C   0  0  1  0  0  0  0  0  0  0  0  0
  148.5234  127.0926  152.8778 C   0  0  0  0  0  0  0  0  0  0  0  0
  148.6263  128.6168  153.0303 C   0  0  2  0  0  0  0  0  0  0  0  0
  148.6795  129.0874  154.5070 C   0  0  0  0  0  0  0  0  0  0  0  0
  150.0053  129.5543  154.9122 N   0  0  0  0  0  0  0  0  0  0  0  0
  151.1614  129.0827  154.1502 C   0  0  0  0  0  0  0  0  0  0  0  0
  150.1489  130.6434  155.7258 C   0  0  0  0  0  0  0  0  0  0  0  0
  151.3830  131.2088  155.8284 N   0  0  0  0  0  0  0  0  0  0  0  0
  151.5892  132.2833  156.5933 C   0  0  0  0  0  0  0  0  0  0  0  0
  150.7121  132.9544  157.3376 N   0  0  0  0  0  0  0  0  0  0  0  0
  149.4711  132.3985  157.2538 C   0  0  0  0  0  0  0  0  0  0  0  0
  149.1016  131.2538  156.4871 C   0  0  0  0  0  0  0  0  0  0  0  0
  147.7456  130.9979  156.6770 N   0  0  0  0  0  0  0  0  0  0  0  0
  147.3418  131.9322  157.4924 C   0  0  0  0  0  0  0  0  0  0  0  0
  148.3133  132.8238  157.8792 N   0  0  0  0  0  0  0  0  0  0  0  0
  148.1522  133.9611  158.7667 C   0  0  0  0  0  0  0  0  0  0  0  0
  147.9062  133.5696  160.2485 C   0  0  1  0  0  0  0  0  0  0  0  0
  148.5215  132.1911  160.6025 C   0  0  0  0  0  0  0  0  0  0  0  0
  147.8610  131.5732  161.6883 O   0  0  0  0  0  0  0  0  0  0  0  0
  148.4366  134.6806  161.1929 C   0  0  2  0  0  0  0  0  0  0  0  0
  147.9676  134.5801  162.6360 C   0  0  0  0  0  0  0  0  0  0  0  0
  148.2197  135.9877  163.1648 C   0  0  0  0  0  0  0  0  0  0  0  0
  148.0438  136.8559  162.0522 O   0  0  0  0  0  0  0  0  0  0  0  0
  147.9508  136.0953  160.8525 C   0  0  0  0  0  0  0  0  0  0  0  0
  147.5176  129.1818  152.2070 N   0  3  2  0  0  0  0  0  0  0  0  0
  146.5692  130.1119  152.8631 C   0  0  0  0  0  0  0  0  0  0  0  0
  146.8516  128.0636  151.5018 C   0  0  0  0  0  0  0  0  0  0  0  0
  147.3407  125.9220  151.4857 H   0  0  0  0  0  0  0  0  0  0  0  0
  149.5365  128.9370  152.5228 H   0  0  0  0  0  0  0  0  0  0  0  0
  150.1185  125.9595  149.3195 H   0  0  0  0  0  0  0  0  0  0  0  0
  148.6645  125.0693  149.7622 H   0  0  0  0  0  0  0  0  0  0  0  0
  149.9419  125.3395  150.9592 H   0  0  0  0  0  0  0  0  0  0  0  0
  147.8897  126.6817  153.6650 H   0  0  0  0  0  0  0  0  0  0  0  0
  149.4914  126.5940  152.9395 H   0  0  0  0  0  0  0  0  0  0  0  0
  147.9539  129.8716  154.7102 H   0  0  0  0  0  0  0  0  0  0  0  0
  148.3873  128.2630  155.1579 H   0  0  0  0  0  0  0  0  0  0  0  0
  151.9913  128.8444  154.8166 H   0  0  0  0  0  0  0  0  0  0  0  0
  151.4931  129.8418  153.4409 H   0  0  0  0  0  0  0  0  0  0  0  0
  150.9258  128.1800  153.5865 H   0  0  0  0  0  0  0  0  0  0  0  0
  152.6014  132.6598  156.6086 H   0  0  0  0  0  0  0  0  0  0  0  0
  146.3173  132.0029  157.8279 H   0  0  0  0  0  0  0  0  0  0  0  0
  149.0380  134.5924  158.6876 H   0  0  0  0  0  0  0  0  0  0  0  0
  147.3214  134.5492  158.3776 H   0  0  0  0  0  0  0  0  0  0  0  0
  146.8287  133.5046  160.4087 H   0  0  0  0  0  0  0  0  0  0  0  0
  148.5063  131.5260  159.7386 H   0  0  0  0  0  0  0  0  0  0  0  0
  149.5633  132.2888  160.9025 H   0  0  0  0  0  0  0  0  0  0  0  0
  147.1561  132.1366  161.9694 H   0  0  0  0  0  0  0  0  0  0  0  0
  149.5279  134.6767  161.1822 H   0  0  0  0  0  0  0  0  0  0  0  0
  146.9013  134.3520  162.6753 H   0  0  0  0  0  0  0  0  0  0  0  0
  148.4998  133.8272  163.2173 H   0  0  0  0  0  0  0  0  0  0  0  0
  147.5520  136.2498  163.9857 H   0  0  0  0  0  0  0  0  0  0  0  0
  149.2468  136.0830  163.5192 H   0  0  0  0  0  0  0  0  0  0  0  0
  148.5345  136.5586  160.0568 H   0  0  0  0  0  0  0  0  0  0  0  0
  146.9059  136.0801  160.5393 H   0  0  0  0  0  0  0  0  0  0  0  0
  146.0441  129.6322  153.6901 H   0  0  0  0  0  0  0  0  0  0  0  0
  145.8227  130.4515  152.1446 H   0  0  0  0  0  0  0  0  0  0  0  0
  147.0834  130.9980  153.2356 H   0  0  0  0  0  0  0  0  0  0  0  0
  146.5414  128.3517  150.4980 H   0  0  0  0  0  0  0  0  0  0  0  0
  145.9533  127.7774  152.0513 H   0  0  0  0  0  0  0  0  0  0  0  0
  147.9796  129.7208  151.4885 H   0  0  0  0  0  0  0  0  0  0  0  0
  1  2  1  0  0  0  0
  1 32  1  0  0  0  0
  1 33  1  0  0  0  0
  1 34  1  0  0  0  0
  2  3  1  0  0  0  0
  3 30  1  0  0  0  0
  3 29  1  0  0  0  0
  3  4  1  0  0  0  0
  4  5  1  0  0  0  0
  4 35  1  0  0  0  0
  4 36  1  0  0  0  0
  5 31  1  0  0  0  0
  5  6  1  0  0  0  0
  5 27  1  0  0  0  0
  6  7  1  0  0  0  0
  6 37  1  0  0  0  0
  6 38  1  0  0  0  0
  7  8  1  0  0  0  0
  7  9  1  0  0  0  0
  8 39  1  0  0  0  0
  8 40  1  0  0  0  0
  8 41  1  0  0  0  0
  9 14  1  0  0  0  0
  9 10  2  0  0  0  0
 10 11  1  0  0  0  0
 11 12  2  0  0  0  0
 11 42  1  0  0  0  0
 12 13  1  0  0  0  0
 13 17  1  0  0  0  0
 13 14  2  0  0  0  0
 14 15  1  0  0  0  0
 15 16  2  0  0  0  0
 16 17  1  0  0  0  0
 16 43  1  0  0  0  0
 17 18  1  0  0  0  0
 18 19  1  0  0  0  0
 18 44  1  0  0  0  0
 18 45  1  0  0  0  0
 19 20  1  0  0  0  0
 19 22  1  0  0  0  0
 19 46  1  0  0  0  0
 20 21  1  0  0  0  0
 20 47  1  0  0  0  0
 20 48  1  0  0  0  0
 21 49  1  0  0  0  0
 22 26  1  0  0  0  0
 22 23  1  0  0  0  0
 22 50  1  0  0  0  0
 23 24  1  0  0  0  0
 23 51  1  0  0  0  0
 23 52  1  0  0  0  0
 24 25  1  0  0  0  0
 24 53  1  0  0  0  0
 24 54  1  0  0  0  0
 25 26  1  0  0  0  0
 26 55  1  0  0  0  0
 26 56  1  0  0  0  0
 27 28  1  0  0  0  0
 27 29  1  0  0  0  0
 27 62  1  0  0  0  0
 28 57  1  0  0  0  0
 28 58  1  0  0  0  0
 28 59  1  0  0  0  0
 29 60  1  0  0  0  0
 29 61  1  0  0  0  0
M  CHG  1  27   1
M  END
> <s_m_source_file>
AV-unprocessed.smi

> <i_m_source_file_index>
21

> <i_lp_mmshare_version>
43012

> <i_f3d_flags>
0

> <s_epik_input>
W0NIM11PW0NASF0xW0NIMl1bQ0BIXShOKFtDSDNdKVtDSDJdMSlbQ0gyXU4oW0NIM10pYyhuW2NIXW4yKWMoYzIzKW5bY0hdbjNbQ0gyXVtDQEhdKFtDSDJdW09IXSlbQ0BASF00W0NIMl1bQ0gyXU9bQ0gyXTQ=

> <s_epik_cmdline>
J2VwaWtfcHl0aG9uJywgJy1waCcsICc3LjAnLCAnLXRuJywgJzgnLCAnLW1hJywgJzIwMCcsICctbWV0YWxfYmluZGluZycsICctaW1hZScsICc8aW5maWxlLm1hZT4nLCAnLW9tYWUnLCAnPG91dGZpbGUubWFlPic=

> <r_lp_tautomer_probability>
1

> <r_epik_Ionization_Penalty>
0.0157465

> <r_epik_Ionization_Penalty_Charging>
0.015354

> <r_epik_Ionization_Penalty_Neutral>
0.000392529

> <r_epik_State_Penalty>
0.0120612

> <r_epik_Charging_Adjusted_Penalty>
0.0274152

> <i_epik_Tot_Q>
1

> <i_epik_Tot_abs_Q>
1

> <r_epik_Metal_State_Penalty>
0.0121253

> <b_epik_Metal_Only>
0

> <s_lp_Force_Field>
OPLS_2005

> <r_lp_Energy>
61.4457

> <b_lp_Chiralities_Consistent>
1

> <s_lp_Variant>
AV-unprocessed.smi:21-7

> <Gold.Version>
5.8.1

> <Gold.Id.Protein>
6NUR|6NUR_protein|mol2

> <Gold.PLP.Fitness>
55.0418

> <Gold.PLP.PLP>
-46.8640

> <Gold.PLP.part.hbond>
-4.0000

> <Gold.PLP.part.metal>
0.0000

> <Gold.PLP.part.buried>
-5.4233

> <Gold.PLP.part.nonpolar>
-37.7547

> <Gold.PLP.part.repulsive>
0.3087

> <Gold.PLP.ligand.clash>
0.0000

> <Gold.PLP.ligand.torsion>
2.1912

> <Gold.PLP.Chemscore.Hbond>
3.7440

> <Gold.PLP.Chemscore.CHOScore>
0.0000

> <Gold.PLP.Chemscore.Metal>
0.0000

> <Gold.Chemscore.Hbonds>
donor molecule, donor type, donor heavy atom, donor atom, acceptor molecule, acceptor atom, score
      L1  H    27    62       P1 10747  1.00
      P1  H  6896  6909       L1    12  1.00
      P1  H  6931  6943       L1    25  1.00

> <Gold.PLP.Chemscore.Internal.Correction>
1.3283

> <Gold.Rescore>
     Score         DG    S(hbond)    S(metal)    S(lipo)     H(rot)  DE(clash)    DE(int)     intcor
     14.93     -18.64       2.73        0.00     101.69       3.08       0.40       3.31       ----

> <Gold.Chemscore.Fitness>
14.9294

> <Gold.Chemscore.DG>
-18.6388

> <Gold.Chemscore.ZeroCoef>
-5.4800

> <Gold.Chemscore.Hbond>
2.7350

> <Gold.Chemscore.Metal>
0.0000

> <Gold.Chemscore.Lipo>
101.6937

> <Gold.Chemscore.Internal_Hbond>
0.0000

> <Gold.Chemscore.DEClash>
0.3961

> <Gold.Chemscore.DEInternal>
3.3133

> <Gold.Chemscore.Rot>
3.0758

> <Gold.Chemscore.Internal.Correction>
   9.000000E+99

> <Gold.Chemscore.Hbonds>
donor molecule, donor type, donor heavy atom, donor atom, acceptor molecule, acceptor atom, score
      L1  H    27    62       P1 10747  0.88
      P1  H  6896  6909       L1    12  0.76
      P1  H  6931  6943       L1    25  0.85

> <Gold.Chemscore.Hbond.Weighted>
-9.1348

> <Gold.Chemscore.Metal.Weighted>
-0.0000

> <Gold.Chemscore.Lipo.Weighted>
-11.8982

> <Gold.Chemscore.Internal_Hbond.Weighted>
0.0000

> <Gold.Chemscore.DEClash.Weighted>
0.3961

> <Gold.Chemscore.DEInternal.Weighted>
3.3133

> <Gold.Chemscore.Rot.Weighted>
7.8741

> <Gold.Chemscore.Internal.Correction.Weighted>
   9.000000E+99

> <Gold.Protein.RotatedTorsions>
[ 6907 6896 6895 6894 ] final  -28.97 input  -60.11 | X-H torsion
[ 7974 7965 7964 7962 ] final -104.27 input  175.53 | X-H torsion
[ 8008 7997 7996 7995 ] final   80.45 input   59.86 | X-H torsion
[ 10167 10162 10161 10158 ] final   66.59 input  -65.29 | X-H torsion
[ 10718 10713 10712 10709 ] final    1.62 input   66.30 | X-H torsion
[ 10763 10752 10751 10750 ] final  -13.76 input  -60.55 | X-H torsion
[ 11005 11000 10999 10996 ] final   50.89 input  -57.11 | X-H torsion

> <Gold.Protein.ActiveResidues>
 VAL166  LYS551  ARG553  GLY616  TRP617  ASP618  TYR619  PRO620  LYS621  CYS622 
 ASP623  PHE694  ASN695  SER759  ASP760  ASP761  ALA762  ILE779  LEU786  VAL792 
 PHE793  MET794  SER795  GLU796  ALA797  LYS798  CYS799  TRP800  GLU811  SER814 

> <Gold.Protein.RotatedAtoms>
  151.1256  135.0103  159.8558 H   0  0  0  0  0  0  0  0  0  0  0  0  # atno 6907 bound_to 6896
  152.5449  134.1670  159.8591 H   0  0  0  0  0  0  0  0  0  0  0  0  # atno 6908 bound_to 6896
  151.1732  133.4726  159.2627 H   0  0  0  0  0  0  0  0  0  0  0  0  # atno 6909 bound_to 6896
  145.2452  140.9219  143.3127 H   0  0  0  0  0  0  0  0  0  0  0  0  # atno 7974 bound_to 7965
  155.8836  140.3442  155.5905 H   0  0  0  0  0  0  0  0  0  0  0  0  # atno 8008 bound_to 7997
  155.7691  140.0843  157.2136 H   0  0  0  0  0  0  0  0  0  0  0  0  # atno 8009 bound_to 7997
  154.4027  140.1521  156.2909 H   0  0  0  0  0  0  0  0  0  0  0  0  # atno 8010 bound_to 7997
  140.0987  144.4923  150.7051 H   0  0  0  0  0  0  0  0  0  0  0  0  # atno 10167 bound_to 10162
  156.8508  130.5553  149.5670 H   0  0  0  0  0  0  0  0  0  0  0  0  # atno 10718 bound_to 10713
  153.5181  135.7016  153.5746 H   0  0  0  0  0  0  0  0  0  0  0  0  # atno 10763 bound_to 10752
  153.3807  135.3921  155.1854 H   0  0  0  0  0  0  0  0  0  0  0  0  # atno 10764 bound_to 10752
  154.8697  135.3834  154.4667 H   0  0  0  0  0  0  0  0  0  0  0  0  # atno 10765 bound_to 10752
  140.0979  134.5121  155.8790 H   0  0  0  0  0  0  0  0  0  0  0  0  # atno 11005 bound_to 11000
  144.9552  139.4039  143.6383 LP  0  0  0  0  0  0  0  0  0  0  0  0  # atno 17320 bound_to 7965
  146.3317  139.8579  142.8861 LP  0  0  0  0  0  0  0  0  0  0  0  0  # atno 17321 bound_to 7965
  140.6989  143.2422  151.4921 LP  0  0  0  0  0  0  0  0  0  0  0  0  # atno 17342 bound_to 10162
  139.5683  144.1989  152.1798 LP  0  0  0  0  0  0  0  0  0  0  0  0  # atno 17343 bound_to 10162
  156.0829  130.5835  150.9596 LP  0  0  0  0  0  0  0  0  0  0  0  0  # atno 17370 bound_to 10713
  157.6304  131.0921  150.8452 LP  0  0  0  0  0  0  0  0  0  0  0  0  # atno 17371 bound_to 10713
  141.2097  133.6687  156.6459 LP  0  0  0  0  0  0  0  0  0  0  0  0  # atno 17394 bound_to 11000
  140.3261  134.7968  157.4290 LP  0  0  0  0  0  0  0  0  0  0  0  0  # atno 17395 bound_to 11000

$$$$
