AV-unprocessed.smi:1658|AV-procd|sdf|6649|dock10
  -GOLD-   22720 7353D 1   1.00000     0.00000
 Structure written by MMmdl.
 47 48  0  0  0  0  0  0  0  0  2 V2000
  135.7499  137.2391  154.3869 C   0  0  0  0  0  0  0  0  0  0  0  0
  136.4538  138.4762  154.3670 O   0  0  0  0  0  0  0  0  0  0  0  0
  137.8067  138.4561  154.0963 C   0  0  0  0  0  0  0  0  0  0  0  0
  138.4965  137.2319  154.2000 C   0  0  0  0  0  0  0  0  0  0  0  0
  139.8774  137.2069  153.9286 C   0  0  0  0  0  0  0  0  0  0  0  0
  140.5266  138.3999  153.5523 C   0  0  0  0  0  0  0  0  0  0  0  0
  141.9256  138.3510  153.3093 N   0  0  0  0  0  0  0  0  0  0  0  0
  142.7858  137.3546  153.5795 C   0  0  0  0  0  0  0  0  0  0  0  0
  142.5054  136.3120  154.1704 O   0  0  0  0  0  0  0  0  0  0  0  0
  144.0162  137.6437  153.1319 N   0  0  0  0  0  0  0  0  0  0  0  0
  145.1975  136.7898  153.2621 C   0  0  0  0  0  0  0  0  0  0  0  0
  145.3314  135.7012  152.1509 C   0  0  0  0  0  0  0  0  0  0  0  0
  144.0201  134.8881  152.0160 C   0  0  0  0  0  0  0  0  0  0  0  0
  145.5772  136.4301  150.8027 C   0  0  0  0  0  0  0  0  0  0  0  0
  146.4933  134.7999  152.4975 N   0  3  0  0  0  0  0  0  0  0  0  0
  146.6032  134.4223  153.9367 C   0  0  0  0  0  0  0  0  0  0  0  0
  147.9147  133.6677  154.2049 C   0  0  0  0  0  0  0  0  0  0  0  0
  147.9616  132.5037  153.3936 O   0  0  0  0  0  0  0  0  0  0  0  0
  147.9509  132.8307  152.0122 C   0  0  0  0  0  0  0  0  0  0  0  0
  146.6548  133.5794  151.6547 C   0  0  0  0  0  0  0  0  0  0  0  0
  139.7480  139.5810  153.4857 C   0  0  0  0  0  0  0  0  0  0  0  0
  138.4237  139.6121  153.7474 N   0  0  0  0  0  0  0  0  0  0  0  0
  134.6987  137.4261  154.6052 H   0  0  0  0  0  0  0  0  0  0  0  0
  136.1353  136.5731  155.1602 H   0  0  0  0  0  0  0  0  0  0  0  0
  135.8014  136.7344  153.4210 H   0  0  0  0  0  0  0  0  0  0  0  0
  137.9765  136.3294  154.4854 H   0  0  0  0  0  0  0  0  0  0  0  0
  140.4277  136.2805  154.0065 H   0  0  0  0  0  0  0  0  0  0  0  0
  142.3239  139.1876  152.9086 H   0  0  0  0  0  0  0  0  0  0  0  0
  144.1492  138.5280  152.6632 H   0  0  0  0  0  0  0  0  0  0  0  0
  146.0696  137.4442  153.2339 H   0  0  0  0  0  0  0  0  0  0  0  0
  145.1930  136.3535  154.2598 H   0  0  0  0  0  0  0  0  0  0  0  0
  143.2050  135.5056  151.6381 H   0  0  0  0  0  0  0  0  0  0  0  0
  143.6889  134.4823  152.9721 H   0  0  0  0  0  0  0  0  0  0  0  0
  144.1278  134.0562  151.3204 H   0  0  0  0  0  0  0  0  0  0  0  0
  144.8012  137.1638  150.5843 H   0  0  0  0  0  0  0  0  0  0  0  0
  145.5672  135.7447  149.9552 H   0  0  0  0  0  0  0  0  0  0  0  0
  146.5313  136.9584  150.8015 H   0  0  0  0  0  0  0  0  0  0  0  0
  146.5770  135.2930  154.5875 H   0  0  0  0  0  0  0  0  0  0  0  0
  145.7663  133.7849  154.2235 H   0  0  0  0  0  0  0  0  0  0  0  0
  148.7805  134.3031  154.0116 H   0  0  0  0  0  0  0  0  0  0  0  0
  147.9673  133.3676  155.2517 H   0  0  0  0  0  0  0  0  0  0  0  0
  148.8277  133.4304  151.7622 H   0  0  0  0  0  0  0  0  0  0  0  0
  148.0219  131.9099  151.4328 H   0  0  0  0  0  0  0  0  0  0  0  0
  145.7973  132.9187  151.7850 H   0  0  0  0  0  0  0  0  0  0  0  0
  146.7183  133.8257  150.5963 H   0  0  0  0  0  0  0  0  0  0  0  0
  140.1816  140.5383  153.2419 H   0  0  0  0  0  0  0  0  0  0  0  0
  147.3135  135.3560  152.3012 H   0  0  0  0  0  0  0  0  0  0  0  0
  1  2  1  0  0  0  0
  1 23  1  0  0  0  0
  1 24  1  0  0  0  0
  1 25  1  0  0  0  0
  2  3  1  0  0  0  0
  3 22  1  0  0  0  0
  3  4  2  0  0  0  0
  4  5  1  0  0  0  0
  4 26  1  0  0  0  0
  5  6  2  0  0  0  0
  5 27  1  0  0  0  0
  6  7  1  0  0  0  0
  6 21  1  0  0  0  0
  7  8  1  0  0  0  0
  7 28  1  0  0  0  0
  8  9  2  0  0  0  0
  8 10  1  0  0  0  0
 10 11  1  0  0  0  0
 10 29  1  0  0  0  0
 11 12  1  0  0  0  0
 11 30  1  0  0  0  0
 11 31  1  0  0  0  0
 12 13  1  0  0  0  0
 12 14  1  0  0  0  0
 12 15  1  0  0  0  0
 13 32  1  0  0  0  0
 13 33  1  0  0  0  0
 13 34  1  0  0  0  0
 14 35  1  0  0  0  0
 14 36  1  0  0  0  0
 14 37  1  0  0  0  0
 15 20  1  0  0  0  0
 15 16  1  0  0  0  0
 15 47  1  0  0  0  0
 16 17  1  0  0  0  0
 16 38  1  0  0  0  0
 16 39  1  0  0  0  0
 17 18  1  0  0  0  0
 17 40  1  0  0  0  0
 17 41  1  0  0  0  0
 18 19  1  0  0  0  0
 19 20  1  0  0  0  0
 19 42  1  0  0  0  0
 19 43  1  0  0  0  0
 20 44  1  0  0  0  0
 20 45  1  0  0  0  0
 21 22  2  0  0  0  0
 21 46  1  0  0  0  0
M  CHG  1  15   1
M  END
> <s_m_source_file>
AV-unprocessed.smi

> <i_m_source_file_index>
1658

> <i_lp_mmshare_version>
43012

> <i_f3d_flags>
0

> <s_epik_input>
W0NIM11PYzFbY0hdW2NIXWMoW2NIXW4xKVtOSF1DKD1PKVtOSF1bQ0gyXUMoW0NIM10pKFtDSDNdKU4yW0NIMl1bQ0gyXU9bQ0gyXVtDSDJdMg==

> <s_epik_cmdline>
J2VwaWtfcHl0aG9uJywgJy1waCcsICc3LjAnLCAnLXRuJywgJzgnLCAnLW1hJywgJzIwMCcsICctbWV0YWxfYmluZGluZycsICctaW1hZScsICc8aW5maWxlLm1hZT4nLCAnLW9tYWUnLCAnPG91dGZpbGUubWFlPic=

> <r_lp_tautomer_probability>
1

> <r_epik_Ionization_Penalty>
0.602608

> <r_epik_Ionization_Penalty_Charging>
0.602531

> <r_epik_Ionization_Penalty_Neutral>
7.74737e-05

> <r_epik_State_Penalty>
0.617039

> <r_epik_Charging_Adjusted_Penalty>
1.21957

> <i_epik_Tot_Q>
1

> <i_epik_Tot_abs_Q>
1

> <r_epik_Metal_State_Penalty>
0.617043

> <b_epik_Metal_Only>
0

> <s_lp_Force_Field>
OPLS_2005

> <r_lp_Energy>
28.7753

> <b_lp_Chiralities_Consistent>
1

> <s_lp_Variant>
AV-unprocessed.smi:1658-2

> <Gold.Version>
5.8.1

> <Gold.Id.Protein>
6NUR|6NUR_protein|mol2

> <Gold.PLP.Fitness>
44.2867

> <Gold.PLP.PLP>
-32.1426

> <Gold.PLP.part.hbond>
-3.0000

> <Gold.PLP.part.metal>
0.0000

> <Gold.PLP.part.buried>
-2.2254

> <Gold.PLP.part.nonpolar>
-26.8995

> <Gold.PLP.part.repulsive>
0.2270

> <Gold.PLP.ligand.clash>
0.0000

> <Gold.PLP.ligand.torsion>
0.8060

> <Gold.PLP.Chemscore.Hbond>
3.8080

> <Gold.PLP.Chemscore.CHOScore>
0.7451

> <Gold.PLP.Chemscore.Metal>
0.0000

> <Gold.Chemscore.Hbonds>
donor molecule, donor type, donor heavy atom, donor atom, acceptor molecule, acceptor atom, score
      L1  H     7    28       P1 10175  1.00
      L1  H    10    29       P1 10175  0.98
      L1  H    15    47       P1  7948  2.00
      L1  C    21    46       P1 10160  0.52

> <Gold.PLP.Chemscore.Internal.Correction>
0.0968

> <Gold.Rescore>
     Score         DG    S(hbond)    S(metal)    S(lipo)     H(rot)  DE(clash)    DE(int)     intcor
     16.08     -18.15       2.88        0.00      64.58       1.76       0.06       2.02       ----

> <Gold.Chemscore.Fitness>
16.0806

> <Gold.Chemscore.DG>
-18.1544

> <Gold.Chemscore.ZeroCoef>
-5.4800

> <Gold.Chemscore.Hbond>
2.8798

> <Gold.Chemscore.Metal>
0.0000

> <Gold.Chemscore.Lipo>
64.5793

> <Gold.Chemscore.Internal_Hbond>
0.0000

> <Gold.Chemscore.DEClash>
0.0589

> <Gold.Chemscore.DEInternal>
2.0150

> <Gold.Chemscore.Rot>
1.7577

> <Gold.Chemscore.Internal.Correction>
   9.000000E+99

> <Gold.Chemscore.Hbonds>
donor molecule, donor type, donor heavy atom, donor atom, acceptor molecule, acceptor atom, score
      L1  H     7    28       P1 10175  0.98
      L1  H    10    29       P1 10175  0.91
      L1  H    15    47       P1  7948  1.00

> <Gold.Chemscore.Hbond.Weighted>
-9.6184

> <Gold.Chemscore.Metal.Weighted>
-0.0000

> <Gold.Chemscore.Lipo.Weighted>
-7.5558

> <Gold.Chemscore.Internal_Hbond.Weighted>
0.0000

> <Gold.Chemscore.DEClash.Weighted>
0.0589

> <Gold.Chemscore.DEInternal.Weighted>
2.0150

> <Gold.Chemscore.Rot.Weighted>
4.4997

> <Gold.Chemscore.Internal.Correction.Weighted>
   9.000000E+99

> <Gold.Protein.RotatedTorsions>
[ 6907 6896 6895 6894 ] final  -76.01 input  -60.11 | X-H torsion
[ 7974 7965 7964 7962 ] final  103.98 input  175.53 | X-H torsion
[ 8008 7997 7996 7995 ] final  -78.42 input   59.86 | X-H torsion
[ 10167 10162 10161 10158 ] final  -93.30 input  -65.29 | X-H torsion
[ 10718 10713 10712 10709 ] final  156.65 input   66.30 | X-H torsion
[ 10763 10752 10751 10750 ] final  -87.21 input  -60.55 | X-H torsion
[ 11005 11000 10999 10996 ] final  -79.85 input  -57.11 | X-H torsion

> <Gold.Protein.ActiveResidues>
 VAL166  LYS551  ARG553  GLY616  TRP617  ASP618  TYR619  PRO620  LYS621  CYS622 
 ASP623  PHE694  ASN695  SER759  ASP760  ASP761  ALA762  ILE779  LEU786  VAL792 
 PHE793  MET794  SER795  GLU796  ALA797  LYS798  CYS799  TRP800  GLU811  SER814 

> <Gold.Protein.RotatedAtoms>
  150.7040  134.4635  159.5391 H   0  0  0  0  0  0  0  0  0  0  0  0  # atno 6907 bound_to 6896
  152.2305  134.8324  160.0483 H   0  0  0  0  0  0  0  0  0  0  0  0  # atno 6908 bound_to 6896
  151.9141  133.3533  159.3911 H   0  0  0  0  0  0  0  0  0  0  0  0  # atno 6909 bound_to 6896
  145.3387  139.2468  143.3621 H   0  0  0  0  0  0  0  0  0  0  0  0  # atno 7974 bound_to 7965
  154.5688  140.0694  156.8932 H   0  0  0  0  0  0  0  0  0  0  0  0  # atno 8008 bound_to 7997
  155.2673  140.3362  155.4250 H   0  0  0  0  0  0  0  0  0  0  0  0  # atno 8009 bound_to 7997
  156.2102  140.1756  156.7698 H   0  0  0  0  0  0  0  0  0  0  0  0  # atno 8010 bound_to 7997
  140.3260  143.3022  151.9994 H   0  0  0  0  0  0  0  0  0  0  0  0  # atno 10167 bound_to 10162
  157.2022  131.0679  151.2019 H   0  0  0  0  0  0  0  0  0  0  0  0  # atno 10718 bound_to 10713
  154.6311  135.5421  153.7681 H   0  0  0  0  0  0  0  0  0  0  0  0  # atno 10763 bound_to 10752
  153.0285  135.6436  154.1300 H   0  0  0  0  0  0  0  0  0  0  0  0  # atno 10764 bound_to 10752
  154.1230  135.2919  155.3184 H   0  0  0  0  0  0  0  0  0  0  0  0  # atno 10765 bound_to 10752
  141.1668  133.7124  156.8185 H   0  0  0  0  0  0  0  0  0  0  0  0  # atno 11005 bound_to 11000
  146.3016  140.3980  142.8702 LP  0  0  0  0  0  0  0  0  0  0  0  0  # atno 17320 bound_to 7965
  144.8807  140.7396  143.5988 LP  0  0  0  0  0  0  0  0  0  0  0  0  # atno 17321 bound_to 7965
  139.4865  144.6273  151.7139 LP  0  0  0  0  0  0  0  0  0  0  0  0  # atno 17342 bound_to 10162
  140.5440  144.0533  150.6100 LP  0  0  0  0  0  0  0  0  0  0  0  0  # atno 17343 bound_to 10162
  157.3756  130.7204  149.6595 LP  0  0  0  0  0  0  0  0  0  0  0  0  # atno 17370 bound_to 10713
  155.9699  130.4186  150.4338 LP  0  0  0  0  0  0  0  0  0  0  0  0  # atno 17371 bound_to 10713
  140.2136  134.8809  157.3302 LP  0  0  0  0  0  0  0  0  0  0  0  0  # atno 17394 bound_to 11000
  140.2060  134.4196  155.7637 LP  0  0  0  0  0  0  0  0  0  0  0  0  # atno 17395 bound_to 11000

$$$$
