AV-unprocessed.smi:3329|AV-procd|sdf|12796|dock2
  -GOLD-   2272019153D 1   1.00000     0.00000
 Structure written by MMmdl.
 42 43  0  0  0  0  0  0  0  0  2 V2000
  144.5106  133.3890  150.1304 C   0  0  0  0  0  0  0  0  0  0  0  0
  145.0484  134.3981  151.1037 C   0  0  0  0  0  0  0  0  0  0  0  0
  145.8719  134.1602  152.2406 C   0  0  0  0  0  0  0  0  0  0  0  0
  146.1742  135.2690  152.8962 N   0  0  0  0  0  0  0  0  0  0  0  0
  145.5611  136.2514  152.2023 N   0  0  0  0  0  0  0  0  0  0  0  0
  145.6658  137.6304  152.6488 C   0  0  0  0  0  0  0  0  0  0  0  0
  146.6535  138.4558  151.8064 C   0  0  0  0  0  0  0  0  0  0  0  0
  147.9284  138.6612  152.5215 N   0  3  0  0  0  0  0  0  0  0  0  0
  147.7751  139.1062  153.9210 C   0  0  0  0  0  0  0  0  0  0  0  0
  149.1151  139.1510  154.6567 C   0  0  0  0  0  0  0  0  0  0  0  0
  150.0146  139.8940  154.2641 O   0  0  0  0  0  0  0  0  0  0  0  0
  149.2234  138.3454  155.7273 N   0  0  0  0  0  0  0  0  0  0  0  0
  150.3707  138.1746  156.6298 C   0  0  2  0  0  0  0  0  0  0  0  0
  151.5803  137.8774  155.7282 C   0  0  0  0  0  0  0  0  0  0  0  0
  150.1900  137.0192  157.5308 C   0  0  0  0  0  0  0  0  0  0  0  0
  150.0479  136.1146  158.2387 N   0  0  0  0  0  0  0  0  0  0  0  0
  150.7022  139.3902  157.4991 C   0  0  0  0  0  0  0  0  0  0  0  0
  151.3884  140.6387  156.9894 C   0  0  0  0  0  0  0  0  0  0  0  0
  152.1136  139.7098  157.9377 C   0  0  0  0  0  0  0  0  0  0  0  0
  144.8643  135.7518  151.1222 C   0  0  0  0  0  0  0  0  0  0  0  0
  143.6397  132.8699  150.5309 H   0  0  0  0  0  0  0  0  0  0  0  0
  145.2537  132.6295  149.8860 H   0  0  0  0  0  0  0  0  0  0  0  0
  144.2057  133.8523  149.1919 H   0  0  0  0  0  0  0  0  0  0  0  0
  146.2562  133.2195  152.6067 H   0  0  0  0  0  0  0  0  0  0  0  0
  144.6742  138.0844  152.6181 H   0  0  0  0  0  0  0  0  0  0  0  0
  145.9771  137.6267  153.6941 H   0  0  0  0  0  0  0  0  0  0  0  0
  146.8529  137.9418  150.8656 H   0  0  0  0  0  0  0  0  0  0  0  0
  146.2180  139.4229  151.5512 H   0  0  0  0  0  0  0  0  0  0  0  0
  148.4368  137.7881  152.5224 H   0  0  0  0  0  0  0  0  0  0  0  0
  147.3274  140.1006  153.9409 H   0  0  0  0  0  0  0  0  0  0  0  0
  147.0974  138.4282  154.4420 H   0  0  0  0  0  0  0  0  0  0  0  0
  148.4158  137.7819  155.9506 H   0  0  0  0  0  0  0  0  0  0  0  0
  152.4807  137.7001  156.3179 H   0  0  0  0  0  0  0  0  0  0  0  0
  151.7884  138.7090  155.0533 H   0  0  0  0  0  0  0  0  0  0  0  0
  151.4124  136.9889  155.1179 H   0  0  0  0  0  0  0  0  0  0  0  0
  149.9343  139.5813  158.2472 H   0  0  0  0  0  0  0  0  0  0  0  0
  151.7417  140.6713  155.9629 H   0  0  0  0  0  0  0  0  0  0  0  0
  151.0473  141.5921  157.3874 H   0  0  0  0  0  0  0  0  0  0  0  0
  152.2542  140.0473  158.9626 H   0  0  0  0  0  0  0  0  0  0  0  0
  152.9287  139.1158  157.5299 H   0  0  0  0  0  0  0  0  0  0  0  0
  144.3027  136.3940  150.4596 H   0  0  0  0  0  0  0  0  0  0  0  0
  148.4759  139.3495  152.0244 H   0  0  0  0  0  0  0  0  0  0  0  0
  1  2  1  0  0  0  0
  1 21  1  0  0  0  0
  1 22  1  0  0  0  0
  1 23  1  0  0  0  0
  2 20  2  0  0  0  0
  2  3  1  0  0  0  0
  3  4  2  0  0  0  0
  3 24  1  0  0  0  0
  4  5  1  0  0  0  0
  5  6  1  0  0  0  0
  5 20  1  0  0  0  0
  6  7  1  0  0  0  0
  6 25  1  0  0  0  0
  6 26  1  0  0  0  0
  7  8  1  0  0  0  0
  7 27  1  0  0  0  0
  7 28  1  0  0  0  0
  8  9  1  0  0  0  0
  8 29  1  0  0  0  0
  8 42  1  0  0  0  0
  9 10  1  0  0  0  0
  9 30  1  0  0  0  0
  9 31  1  0  0  0  0
 10 11  2  0  0  0  0
 10 12  1  0  0  0  0
 12 13  1  0  0  0  0
 12 32  1  0  0  0  0
 13 14  1  0  0  0  0
 13 15  1  0  0  0  0
 13 17  1  0  0  0  0
 14 33  1  0  0  0  0
 14 34  1  0  0  0  0
 14 35  1  0  0  0  0
 15 16  3  0  0  0  0
 17 19  1  0  0  0  0
 17 18  1  0  0  0  0
 17 36  1  0  0  0  0
 18 19  1  0  0  0  0
 18 37  1  0  0  0  0
 18 38  1  0  0  0  0
 19 39  1  0  0  0  0
 19 40  1  0  0  0  0
 20 41  1  0  0  0  0
M  CHG  1   8   1
M  END
> <s_m_source_file>
AV-unprocessed.smi

> <i_m_source_file_index>
3329

> <i_lp_mmshare_version>
43012

> <i_f3d_flags>
0

> <s_epik_input>
W0NIM11jMVtjSF1ubihbY0hdMSlbQ0gyXVtDSDJdW05IXVtDSDJdQyg9TylbTkhdW0NAQF0oW0NIM10pKEMjTilbQ0hdMltDSDJdW0NIMl0y

> <s_epik_cmdline>
J2VwaWtfcHl0aG9uJywgJy1waCcsICc3LjAnLCAnLXRuJywgJzgnLCAnLW1hJywgJzIwMCcsICctbWV0YWxfYmluZGluZycsICctaW1hZScsICc8aW5maWxlLm1hZT4nLCAnLW9tYWUnLCAnPG91dGZpbGUubWFlPic=

> <r_lp_tautomer_probability>
1

> <r_epik_Ionization_Penalty>
0.350291

> <r_epik_Ionization_Penalty_Charging>
0.350239

> <r_epik_Ionization_Penalty_Neutral>
5.12768e-05

> <r_epik_State_Penalty>
0.347656

> <r_epik_Charging_Adjusted_Penalty>
0.697895

> <i_epik_Tot_Q>
1

> <i_epik_Tot_abs_Q>
1

> <r_epik_Metal_State_Penalty>
0.371739

> <b_epik_Metal_Only>
0

> <s_lp_Force_Field>
OPLS_2005

> <r_lp_Energy>
13.221

> <b_lp_Chiralities_Consistent>
1

> <s_lp_Variant>
AV-unprocessed.smi:3329-2

> <Gold.Version>
5.8.1

> <Gold.Id.Protein>
6NUR|6NUR_protein|mol2

> <Gold.PLP.Fitness>
46.2893

> <Gold.PLP.PLP>
-30.1383

> <Gold.PLP.part.hbond>
-3.9322

> <Gold.PLP.part.metal>
0.0000

> <Gold.PLP.part.buried>
-5.9437

> <Gold.PLP.part.nonpolar>
-23.2667

> <Gold.PLP.part.repulsive>
1.0800

> <Gold.PLP.ligand.clash>
0.0000

> <Gold.PLP.ligand.torsion>
1.4552

> <Gold.PLP.Chemscore.Hbond>
4.7905

> <Gold.PLP.Chemscore.CHOScore>
1.0000

> <Gold.PLP.Chemscore.Metal>
0.0000

> <Gold.Chemscore.Hbonds>
donor molecule, donor type, donor heavy atom, donor atom, acceptor molecule, acceptor atom, score
      L1  H     8    29       P1  7948  2.00
      L1  H     8    42       P1  7957  1.00
      P1  H  6896  6909       L1    16  0.89
      P1  H  7989  7998       L1    11  1.00
      L1  C    20    41       P1 10171  1.00

> <Gold.PLP.Chemscore.Internal.Correction>
1.6897

> <Gold.Rescore>
     Score         DG    S(hbond)    S(metal)    S(lipo)     H(rot)  DE(clash)    DE(int)     intcor
     16.97     -19.67       3.78        0.00      65.86       2.40       0.08       2.62       ----

> <Gold.Chemscore.Fitness>
16.9699

> <Gold.Chemscore.DG>
-19.6720

> <Gold.Chemscore.ZeroCoef>
-5.4800

> <Gold.Chemscore.Hbond>
3.7792

> <Gold.Chemscore.Metal>
0.0000

> <Gold.Chemscore.Lipo>
65.8649

> <Gold.Chemscore.Internal_Hbond>
0.0000

> <Gold.Chemscore.DEClash>
0.0799

> <Gold.Chemscore.DEInternal>
2.6222

> <Gold.Chemscore.Rot>
2.3972

> <Gold.Chemscore.Internal.Correction>
   9.000000E+99

> <Gold.Chemscore.Hbonds>
donor molecule, donor type, donor heavy atom, donor atom, acceptor molecule, acceptor atom, score
      L1  H     8    29       P1  7948  0.98
      L1  H     8    42       P1  7957  0.96
      P1  H  6896  6909       L1    16  0.81
      P1  H  7989  7998       L1    11  0.90

> <Gold.Chemscore.Hbond.Weighted>
-12.6227

> <Gold.Chemscore.Metal.Weighted>
-0.0000

> <Gold.Chemscore.Lipo.Weighted>
-7.7062

> <Gold.Chemscore.Internal_Hbond.Weighted>
0.0000

> <Gold.Chemscore.DEClash.Weighted>
0.0799

> <Gold.Chemscore.DEInternal.Weighted>
2.6222

> <Gold.Chemscore.Rot.Weighted>
6.1369

> <Gold.Chemscore.Internal.Correction.Weighted>
   9.000000E+99

> <Gold.Protein.RotatedTorsions>
[ 6907 6896 6895 6894 ] final   61.15 input  -60.11 | X-H torsion
[ 7974 7965 7964 7962 ] final  -42.63 input  175.53 | X-H torsion
[ 8008 7997 7996 7995 ] final  142.22 input   59.86 | X-H torsion
[ 10167 10162 10161 10158 ] final -175.01 input  -65.29 | X-H torsion
[ 10718 10713 10712 10709 ] final  -96.46 input   66.30 | X-H torsion
[ 10763 10752 10751 10750 ] final  121.88 input  -60.55 | X-H torsion
[ 11005 11000 10999 10996 ] final  139.25 input  -57.11 | X-H torsion

> <Gold.Protein.ActiveResidues>
 VAL166  LYS551  ARG553  GLY616  TRP617  ASP618  TYR619  PRO620  LYS621  CYS622 
 ASP623  PHE694  ASN695  SER759  ASP760  ASP761  ALA762  ILE779  LEU786  VAL792 
 PHE793  MET794  SER795  GLU796  ALA797  LYS798  CYS799  TRP800  GLU811  SER814 

> <Gold.Protein.RotatedAtoms>
  152.4064  134.6199  160.0047 H   0  0  0  0  0  0  0  0  0  0  0  0  # atno 6907 bound_to 6896
  151.6389  133.3321  159.3133 H   0  0  0  0  0  0  0  0  0  0  0  0  # atno 6908 bound_to 6896
  150.7959  134.7059  159.6621 H   0  0  0  0  0  0  0  0  0  0  0  0  # atno 6909 bound_to 6896
  146.0097  140.6979  142.9230 H   0  0  0  0  0  0  0  0  0  0  0  0  # atno 7974 bound_to 7965
  156.2953  140.2294  156.4692 H   0  0  0  0  0  0  0  0  0  0  0  0  # atno 8008 bound_to 7997
  154.7950  140.0452  157.1250 H   0  0  0  0  0  0  0  0  0  0  0  0  # atno 8009 bound_to 7997
  154.9601  140.3053  155.5038 H   0  0  0  0  0  0  0  0  0  0  0  0  # atno 8010 bound_to 7997
  139.5603  144.1886  152.1228 H   0  0  0  0  0  0  0  0  0  0  0  0  # atno 10167 bound_to 10162
  156.0063  130.5152  150.6229 H   0  0  0  0  0  0  0  0  0  0  0  0  # atno 10718 bound_to 10713
  153.6210  135.3413  155.3011 H   0  0  0  0  0  0  0  0  0  0  0  0  # atno 10763 bound_to 10752
  154.8600  135.4273  154.2207 H   0  0  0  0  0  0  0  0  0  0  0  0  # atno 10764 bound_to 10752
  153.3080  135.7029  153.7214 H   0  0  0  0  0  0  0  0  0  0  0  0  # atno 10765 bound_to 10752
  140.0241  134.9383  157.0534 H   0  0  0  0  0  0  0  0  0  0  0  0  # atno 11005 bound_to 11000
  144.6948  140.3376  143.7205 LP  0  0  0  0  0  0  0  0  0  0  0  0  # atno 17320 bound_to 7965
  145.7361  139.1750  143.2402 LP  0  0  0  0  0  0  0  0  0  0  0  0  # atno 17321 bound_to 7965
  140.1398  144.5212  150.6751 LP  0  0  0  0  0  0  0  0  0  0  0  0  # atno 17342 bound_to 10162
  140.6882  143.2361  151.5203 LP  0  0  0  0  0  0  0  0  0  0  0  0  # atno 17343 bound_to 10162
  157.4041  131.0814  151.1281 LP  0  0  0  0  0  0  0  0  0  0  0  0  # atno 17370 bound_to 10713
  157.1933  130.6362  149.5712 LP  0  0  0  0  0  0  0  0  0  0  0  0  # atno 17371 bound_to 10713
  140.4336  134.1755  155.7169 LP  0  0  0  0  0  0  0  0  0  0  0  0  # atno 17394 bound_to 11000
  141.1792  133.8450  157.1316 LP  0  0  0  0  0  0  0  0  0  0  0  0  # atno 17395 bound_to 11000

$$$$
