AV-unprocessed.smi:3112|AV-procd|sdf|11836|dock1
  -GOLD-   2272017213D 1   1.00000     0.00000
 Structure written by MMmdl.
 37 37  0  0  0  0  0  0  0  0  2 V2000
  145.6344  136.4017  152.7956 C   0  0  0  0  0  0  0  0  0  0  0  0
  145.4014  137.9152  152.6920 C   0  0  0  0  0  0  0  0  0  0  0  0
  146.6815  138.7132  152.3841 C   0  0  2  0  0  0  0  0  0  0  0  0
  147.3979  138.0512  151.3598 O   0  0  0  0  0  0  0  0  0  0  0  0
  147.5964  138.8283  153.6142 C   0  0  0  0  0  0  0  0  0  0  0  0
  149.0215  138.7807  153.2220 N   0  3  0  0  0  0  0  0  0  0  0  0
  149.9925  139.1751  154.2688 C   0  0  2  0  0  0  0  0  0  0  0  0
  150.4270  137.9116  155.0339 C   0  0  0  0  0  0  0  0  0  0  0  0
  149.4292  140.3075  155.1763 C   0  0  2  0  0  0  0  0  0  0  0  0
  148.9277  141.5237  154.3727 C   0  0  0  0  0  0  0  0  0  0  0  0
  150.3553  140.6977  156.2370 N   0  0  0  0  0  0  0  0  0  0  0  0
  150.7804  141.9709  156.5602 C   0  0  0  0  0  0  0  0  0  0  0  0
  151.6149  141.8664  157.6355 C   0  0  0  0  0  0  0  0  0  0  0  0
  151.6362  140.4716  157.9117 C   0  0  0  0  0  0  0  0  0  0  0  0
  150.8771  139.7772  157.0803 N   0  0  0  0  0  0  0  0  0  0  0  0
  144.6968  135.8790  152.9851 H   0  0  0  0  0  0  0  0  0  0  0  0
  146.3178  136.1568  153.6090 H   0  0  0  0  0  0  0  0  0  0  0  0
  146.0546  136.0028  151.8720 H   0  0  0  0  0  0  0  0  0  0  0  0
  144.6697  138.0940  151.9033 H   0  0  0  0  0  0  0  0  0  0  0  0
  144.9461  138.2793  153.6142 H   0  0  0  0  0  0  0  0  0  0  0  0
  146.4100  139.7108  152.0358 H   0  0  0  0  0  0  0  0  0  0  0  0
  147.7812  137.2654  151.7204 H   0  0  0  0  0  0  0  0  0  0  0  0
  147.4132  139.7752  154.1237 H   0  0  0  0  0  0  0  0  0  0  0  0
  147.3615  138.0351  154.3236 H   0  0  0  0  0  0  0  0  0  0  0  0
  149.2447  137.8460  152.9104 H   0  0  0  0  0  0  0  0  0  0  0  0
  150.8793  139.5567  153.7603 H   0  0  0  0  0  0  0  0  0  0  0  0
  151.1690  138.1367  155.7994 H   0  0  0  0  0  0  0  0  0  0  0  0
  150.8790  137.1867  154.3562 H   0  0  0  0  0  0  0  0  0  0  0  0
  149.5844  137.4183  155.5181 H   0  0  0  0  0  0  0  0  0  0  0  0
  148.5421  139.9245  155.6799 H   0  0  0  0  0  0  0  0  0  0  0  0
  148.1750  141.2250  153.6429 H   0  0  0  0  0  0  0  0  0  0  0  0
  149.7298  142.0253  153.8315 H   0  0  0  0  0  0  0  0  0  0  0  0
  148.4676  142.2611  155.0314 H   0  0  0  0  0  0  0  0  0  0  0  0
  150.4575  142.8385  156.0035 H   0  0  0  0  0  0  0  0  0  0  0  0
  152.1308  142.6652  158.1477 H   0  0  0  0  0  0  0  0  0  0  0  0
  152.1732  139.9472  158.6885 H   0  0  0  0  0  0  0  0  0  0  0  0
  149.1374  139.4104  152.4410 H   0  0  0  0  0  0  0  0  0  0  0  0
  1  2  1  0  0  0  0
  1 16  1  0  0  0  0
  1 17  1  0  0  0  0
  1 18  1  0  0  0  0
  2  3  1  0  0  0  0
  2 19  1  0  0  0  0
  2 20  1  0  0  0  0
  3  4  1  0  0  0  0
  3  5  1  0  0  0  0
  3 21  1  0  0  0  0
  4 22  1  0  0  0  0
  5  6  1  0  0  0  0
  5 23  1  0  0  0  0
  5 24  1  0  0  0  0
  6  7  1  0  0  0  0
  6 25  1  0  0  0  0
  6 37  1  0  0  0  0
  7  8  1  0  0  0  0
  7  9  1  0  0  0  0
  7 26  1  0  0  0  0
  8 27  1  0  0  0  0
  8 28  1  0  0  0  0
  8 29  1  0  0  0  0
  9 10  1  0  0  0  0
  9 11  1  0  0  0  0
  9 30  1  0  0  0  0
 10 31  1  0  0  0  0
 10 32  1  0  0  0  0
 10 33  1  0  0  0  0
 11 15  1  0  0  0  0
 11 12  1  0  0  0  0
 12 13  2  0  0  0  0
 12 34  1  0  0  0  0
 13 14  1  0  0  0  0
 13 35  1  0  0  0  0
 14 15  2  0  0  0  0
 14 36  1  0  0  0  0
M  CHG  1   6   1
M  END
> <s_m_source_file>
AV-unprocessed.smi

> <i_m_source_file_index>
3112

> <i_lp_mmshare_version>
43012

> <i_f3d_flags>
0

> <s_epik_input>
W0NIM11bQ0gyXVtDQEhdKFtPSF0pW0NIMl1bTkhdW0NASF0oW0NIM10pW0NASF0oW0NIM10pbjFbY0hdW2NIXVtjSF1uMQ==

> <s_epik_cmdline>
J2VwaWtfcHl0aG9uJywgJy1waCcsICc3LjAnLCAnLXRuJywgJzgnLCAnLW1hJywgJzIwMCcsICctbWV0YWxfYmluZGluZycsICctaW1hZScsICc8aW5maWxlLm1hZT4nLCAnLW9tYWUnLCAnPG91dGZpbGUubWFlPic=

> <r_lp_tautomer_probability>
1

> <r_epik_Ionization_Penalty>
0.0154842

> <r_epik_Ionization_Penalty_Charging>
0.0154724

> <r_epik_Ionization_Penalty_Neutral>
1.17979e-05

> <r_epik_State_Penalty>
0.0121607

> <r_epik_Charging_Adjusted_Penalty>
0.0276331

> <i_epik_Tot_Q>
1

> <i_epik_Tot_abs_Q>
1

> <r_epik_Metal_State_Penalty>
0.0121863

> <b_epik_Metal_Only>
0

> <s_lp_Force_Field>
OPLS_2005

> <r_lp_Energy>
12.3071

> <b_lp_Chiralities_Consistent>
1

> <s_lp_Variant>
AV-unprocessed.smi:3112-1

> <Gold.Version>
5.8.1

> <Gold.Id.Protein>
6NUR|6NUR_protein|mol2

> <Gold.PLP.Fitness>
43.9365

> <Gold.PLP.PLP>
-28.9819

> <Gold.PLP.part.hbond>
-4.3919

> <Gold.PLP.part.metal>
0.0000

> <Gold.PLP.part.buried>
-3.1142

> <Gold.PLP.part.nonpolar>
-23.1156

> <Gold.PLP.part.repulsive>
0.0937

> <Gold.PLP.ligand.clash>
0.0000

> <Gold.PLP.ligand.torsion>
1.0676

> <Gold.PLP.Chemscore.Hbond>
4.5762

> <Gold.PLP.Chemscore.CHOScore>
1.0000

> <Gold.PLP.Chemscore.Metal>
0.0000

> <Gold.Chemscore.Hbonds>
donor molecule, donor type, donor heavy atom, donor atom, acceptor molecule, acceptor atom, score
      L1  H     4    22       P1  7948  1.00
      L1  H     6    25       P1  7948  2.00
      L1  H     6    37       P1  7957  0.91
      P1  H  7954  7966       L1     4  0.65
      L1  C    12    34       P1  8028  1.00

> <Gold.PLP.Chemscore.Internal.Correction>
0.3609

> <Gold.Rescore>
     Score         DG    S(hbond)    S(metal)    S(lipo)     H(rot)  DE(clash)    DE(int)     intcor
     14.98     -17.36       2.91        0.00      71.06       2.41       0.03       2.35       ----

> <Gold.Chemscore.Fitness>
14.9800

> <Gold.Chemscore.DG>
-17.3596

> <Gold.Chemscore.ZeroCoef>
-5.4800

> <Gold.Chemscore.Hbond>
2.9139

> <Gold.Chemscore.Metal>
0.0000

> <Gold.Chemscore.Lipo>
71.0572

> <Gold.Chemscore.Internal_Hbond>
0.0000

> <Gold.Chemscore.DEClash>
0.0333

> <Gold.Chemscore.DEInternal>
2.3463

> <Gold.Chemscore.Rot>
2.4089

> <Gold.Chemscore.Internal.Correction>
   9.000000E+99

> <Gold.Chemscore.Hbonds>
donor molecule, donor type, donor heavy atom, donor atom, acceptor molecule, acceptor atom, score
      L1  H     4    22       P1  7948  0.88
      L1  H     6    25       P1  7948  0.95
      L1  H     6    37       P1  7957  0.88
      P1  H  7954  7966       L1     4  0.06

> <Gold.Chemscore.Hbond.Weighted>
-9.7326

> <Gold.Chemscore.Metal.Weighted>
-0.0000

> <Gold.Chemscore.Lipo.Weighted>
-8.3137

> <Gold.Chemscore.Internal_Hbond.Weighted>
0.0000

> <Gold.Chemscore.DEClash.Weighted>
0.0333

> <Gold.Chemscore.DEInternal.Weighted>
2.3463

> <Gold.Chemscore.Rot.Weighted>
6.1667

> <Gold.Chemscore.Internal.Correction.Weighted>
   9.000000E+99

> <Gold.Protein.RotatedTorsions>
[ 6907 6896 6895 6894 ] final  -22.87 input  -60.11 | X-H torsion
[ 7974 7965 7964 7962 ] final  119.69 input  175.53 | X-H torsion
[ 8008 7997 7996 7995 ] final   85.67 input   59.86 | X-H torsion
[ 10167 10162 10161 10158 ] final   -2.41 input  -65.29 | X-H torsion
[ 10718 10713 10712 10709 ] final  -60.76 input   66.30 | X-H torsion
[ 10763 10752 10751 10750 ] final  -41.05 input  -60.55 | X-H torsion
[ 11005 11000 10999 10996 ] final  126.71 input  -57.11 | X-H torsion

> <Gold.Protein.ActiveResidues>
 VAL166  LYS551  ARG553  GLY616  TRP617  ASP618  TYR619  PRO620  LYS621  CYS622 
 ASP623  PHE694  ASN695  SER759  ASP760  ASP761  ALA762  ILE779  LEU786  VAL792 
 PHE793  MET794  SER795  GLU796  ALA797  LYS798  CYS799  TRP800  GLU811  SER814 

> <Gold.Protein.RotatedAtoms>
  151.2123  135.0486  159.8915 H   0  0  0  0  0  0  0  0  0  0  0  0  # atno 6907 bound_to 6896
  152.5423  134.0732  159.8213 H   0  0  0  0  0  0  0  0  0  0  0  0  # atno 6908 bound_to 6896
  151.0886  133.5285  159.2648 H   0  0  0  0  0  0  0  0  0  0  0  0  # atno 6909 bound_to 6896
  145.1401  139.3273  143.4620 H   0  0  0  0  0  0  0  0  0  0  0  0  # atno 7974 bound_to 7965
  155.9530  140.3399  155.6424 H   0  0  0  0  0  0  0  0  0  0  0  0  # atno 8008 bound_to 7997
  155.6896  140.0747  157.2472 H   0  0  0  0  0  0  0  0  0  0  0  0  # atno 8009 bound_to 7997
  154.4126  140.1659  156.2059 H   0  0  0  0  0  0  0  0  0  0  0  0  # atno 8010 bound_to 7997
  140.6850  143.6660  150.8225 H   0  0  0  0  0  0  0  0  0  0  0  0  # atno 10167 bound_to 10162
  156.0968  130.4192  150.0899 H   0  0  0  0  0  0  0  0  0  0  0  0  # atno 10718 bound_to 10713
  153.9561  135.6745  153.4744 H   0  0  0  0  0  0  0  0  0  0  0  0  # atno 10763 bound_to 10752
  153.0860  135.4898  154.8595 H   0  0  0  0  0  0  0  0  0  0  0  0  # atno 10764 bound_to 10752
  154.7298  135.3135  154.8869 H   0  0  0  0  0  0  0  0  0  0  0  0  # atno 10765 bound_to 10752
  139.9470  134.9628  156.8748 H   0  0  0  0  0  0  0  0  0  0  0  0  # atno 11005 bound_to 11000
  146.3506  140.1434  142.8594 LP  0  0  0  0  0  0  0  0  0  0  0  0  # atno 17320 bound_to 7965
  145.0542  140.9040  143.4977 LP  0  0  0  0  0  0  0  0  0  0  0  0  # atno 17321 bound_to 7965
  140.0366  143.5389  152.2736 LP  0  0  0  0  0  0  0  0  0  0  0  0  # atno 17342 bound_to 10162
  139.6201  144.7627  151.2760 LP  0  0  0  0  0  0  0  0  0  0  0  0  # atno 17343 bound_to 10162
  156.8896  130.9584  151.3590 LP  0  0  0  0  0  0  0  0  0  0  0  0  # atno 17370 bound_to 10713
  157.6131  130.8598  149.8983 LP  0  0  0  0  0  0  0  0  0  0  0  0  # atno 17371 bound_to 10713
  140.5810  134.0352  155.7464 LP  0  0  0  0  0  0  0  0  0  0  0  0  # atno 17394 bound_to 11000
  141.1123  133.9596  157.2887 LP  0  0  0  0  0  0  0  0  0  0  0  0  # atno 17395 bound_to 11000

$$$$
