AV-unprocessed.smi:2795|AV-procd|sdf|10781|dock5
  -GOLD-   2272015213D 1   1.00000     0.00000
 Structure written by MMmdl.
 36 37  0  0  0  0  0  0  0  0  1 V2000
  146.8635  141.9252  154.2657 C   0  0  0  0  0  0  0  0  0  0  0  0
  147.9797  141.0042  154.1858 N   0  0  0  0  0  0  0  0  0  0  0  0
  149.2711  141.2870  154.4038 C   0  0  0  0  0  0  0  0  0  0  0  0
  150.0916  140.2562  154.2571 N   0  0  0  0  0  0  0  0  0  0  0  0
  149.2446  139.2074  153.9103 C   0  0  0  0  0  0  0  0  0  0  0  0
  147.9381  139.6488  153.8694 C   0  0  0  0  0  0  0  0  0  0  0  0
  146.6605  138.9280  153.5476 C   0  0  0  0  0  0  0  0  0  0  0  0
  146.5110  138.4627  152.0891 C   0  0  0  0  0  0  0  0  0  0  0  0
  146.3530  137.0164  152.0013 N   0  0  0  0  0  0  0  0  0  0  0  0
  145.1769  136.3743  152.0455 C   0  0  0  0  0  0  0  0  0  0  0  0
  144.1032  136.9555  152.2084 O   0  0  0  0  0  0  0  0  0  0  0  0
  145.2361  134.8482  151.8900 C   0  0  1  0  0  0  0  0  0  0  0  0
  143.8384  134.1936  151.7997 C   0  0  0  0  0  0  0  0  0  0  0  0
  143.9639  132.6846  151.5627 C   0  0  0  0  0  0  0  0  0  0  0  0
  144.8609  132.4247  150.3484 C   0  0  0  0  0  0  0  0  0  0  0  0
  146.2023  133.1561  150.5114 C   0  0  0  0  0  0  0  0  0  0  0  0
  145.9768  134.5485  150.7065 O   0  0  0  0  0  0  0  0  0  0  0  0
  147.2190  142.9330  154.4833 H   0  0  0  0  0  0  0  0  0  0  0  0
  146.1839  141.6110  155.0582 H   0  0  0  0  0  0  0  0  0  0  0  0
  146.3272  141.9372  153.3165 H   0  0  0  0  0  0  0  0  0  0  0  0
  149.6197  142.2730  154.6744 H   0  0  0  0  0  0  0  0  0  0  0  0
  149.6392  138.2198  153.7205 H   0  0  0  0  0  0  0  0  0  0  0  0
  146.5668  138.0600  154.2013 H   0  0  0  0  0  0  0  0  0  0  0  0
  145.8197  139.5770  153.7940 H   0  0  0  0  0  0  0  0  0  0  0  0
  145.6454  138.9485  151.6363 H   0  0  0  0  0  0  0  0  0  0  0  0
  147.3847  138.7653  151.5096 H   0  0  0  0  0  0  0  0  0  0  0  0
  147.1905  136.4682  151.8648 H   0  0  0  0  0  0  0  0  0  0  0  0
  145.7709  134.4519  152.7550 H   0  0  0  0  0  0  0  0  0  0  0  0
  143.2711  134.3739  152.7137 H   0  0  0  0  0  0  0  0  0  0  0  0
  143.2688  134.6407  150.9833 H   0  0  0  0  0  0  0  0  0  0  0  0
  144.3925  132.2082  152.4452 H   0  0  0  0  0  0  0  0  0  0  0  0
  142.9800  132.2396  151.4117 H   0  0  0  0  0  0  0  0  0  0  0  0
  145.0264  131.3545  150.2228 H   0  0  0  0  0  0  0  0  0  0  0  0
  144.3633  132.7737  149.4429 H   0  0  0  0  0  0  0  0  0  0  0  0
  146.7690  132.7484  151.3497 H   0  0  0  0  0  0  0  0  0  0  0  0
  146.8133  133.0211  149.6188 H   0  0  0  0  0  0  0  0  0  0  0  0
  1  2  1  0  0  0  0
  1 18  1  0  0  0  0
  1 19  1  0  0  0  0
  1 20  1  0  0  0  0
  2  6  1  0  0  0  0
  2  3  1  0  0  0  0
  3  4  2  0  0  0  0
  3 21  1  0  0  0  0
  4  5  1  0  0  0  0
  5  6  2  0  0  0  0
  5 22  1  0  0  0  0
  6  7  1  0  0  0  0
  7  8  1  0  0  0  0
  7 23  1  0  0  0  0
  7 24  1  0  0  0  0
  8  9  1  0  0  0  0
  8 25  1  0  0  0  0
  8 26  1  0  0  0  0
  9 10  1  0  0  0  0
  9 27  1  0  0  0  0
 10 11  2  0  0  0  0
 10 12  1  0  0  0  0
 12 17  1  0  0  0  0
 12 13  1  0  0  0  0
 12 28  1  0  0  0  0
 13 14  1  0  0  0  0
 13 29  1  0  0  0  0
 13 30  1  0  0  0  0
 14 15  1  0  0  0  0
 14 31  1  0  0  0  0
 14 32  1  0  0  0  0
 15 16  1  0  0  0  0
 15 33  1  0  0  0  0
 15 34  1  0  0  0  0
 16 17  1  0  0  0  0
 16 35  1  0  0  0  0
 16 36  1  0  0  0  0
M  END
> <s_m_source_file>
AV-unprocessed.smi

> <i_m_source_file_index>
2795

> <i_lp_mmshare_version>
43012

> <i_f3d_flags>
0

> <s_epik_input>
W0NIM11uMVtjSF1uW2NIXWMxW0NIMl1bQ0gyXVtOSF1DKD1PKVtDQEBIXTJbQ0gyXVtDSDJdW0NIMl1bQ0gyXU8y

> <s_epik_cmdline>
J2VwaWtfcHl0aG9uJywgJy1waCcsICc3LjAnLCAnLXRuJywgJzgnLCAnLW1hJywgJzIwMCcsICctbWV0YWxfYmluZGluZycsICctaW1hZScsICc8aW5maWxlLm1hZT4nLCAnLW9tYWUnLCAnPG91dGZpbGUubWFlPic=

> <r_lp_tautomer_probability>
1

> <r_epik_Ionization_Penalty>
0.870864

> <r_epik_Ionization_Penalty_Charging>
0.870864

> <r_epik_Ionization_Penalty_Neutral>
4.06047e-08

> <r_epik_State_Penalty>
0.90819

> <r_epik_Charging_Adjusted_Penalty>
1.77905

> <i_epik_Tot_Q>
0

> <i_epik_Tot_abs_Q>
0

> <r_epik_Metal_State_Penalty>
0.360563

> <b_epik_Metal_Only>
0

> <s_lp_Force_Field>
OPLS_2005

> <r_lp_Energy>
10.035

> <b_lp_Chiralities_Consistent>
1

> <s_lp_Variant>
AV-unprocessed.smi:2795-4

> <Gold.Version>
5.8.1

> <Gold.Id.Protein>
6NUR|6NUR_protein|mol2

> <Gold.PLP.Fitness>
39.9348

> <Gold.PLP.PLP>
-32.8000

> <Gold.PLP.part.hbond>
-2.0000

> <Gold.PLP.part.metal>
0.0000

> <Gold.PLP.part.buried>
-3.3288

> <Gold.PLP.part.nonpolar>
-29.8329

> <Gold.PLP.part.repulsive>
2.8689

> <Gold.PLP.ligand.clash>
0.0000

> <Gold.PLP.ligand.torsion>
0.7171

> <Gold.PLP.Chemscore.Hbond>
1.9280

> <Gold.PLP.Chemscore.CHOScore>
0.9256

> <Gold.PLP.Chemscore.Metal>
0.0000

> <Gold.Chemscore.Hbonds>
donor molecule, donor type, donor heavy atom, donor atom, acceptor molecule, acceptor atom, score
      L1  H     9    27       P1  7948  1.00
      P1  H  7989  7998       L1     4  0.94
      L1  C     3    21       P1  8028  0.51
      L1  C     5    22       P1  7948  0.39

> <Gold.PLP.Chemscore.Internal.Correction>
0.0082

> <Gold.Rescore>
     Score         DG    S(hbond)    S(metal)    S(lipo)     H(rot)  DE(clash)    DE(int)     intcor
     13.30     -14.03       1.85        0.00      58.87       1.76       0.08       0.66       ----

> <Gold.Chemscore.Fitness>
13.2965

> <Gold.Chemscore.DG>
-14.0289

> <Gold.Chemscore.ZeroCoef>
-5.4800

> <Gold.Chemscore.Hbond>
1.8452

> <Gold.Chemscore.Metal>
0.0000

> <Gold.Chemscore.Lipo>
58.8698

> <Gold.Chemscore.Internal_Hbond>
0.0000

> <Gold.Chemscore.DEClash>
0.0765

> <Gold.Chemscore.DEInternal>
0.6559

> <Gold.Chemscore.Rot>
1.7585

> <Gold.Chemscore.Internal.Correction>
   9.000000E+99

> <Gold.Chemscore.Hbonds>
donor molecule, donor type, donor heavy atom, donor atom, acceptor molecule, acceptor atom, score
      L1  H     9    27       P1  7948  0.98
      P1  H  7989  7998       L1     4  0.55

> <Gold.Chemscore.Hbond.Weighted>
-6.1629

> <Gold.Chemscore.Metal.Weighted>
-0.0000

> <Gold.Chemscore.Lipo.Weighted>
-6.8878

> <Gold.Chemscore.Internal_Hbond.Weighted>
0.0000

> <Gold.Chemscore.DEClash.Weighted>
0.0765

> <Gold.Chemscore.DEInternal.Weighted>
0.6559

> <Gold.Chemscore.Rot.Weighted>
4.5018

> <Gold.Chemscore.Internal.Correction.Weighted>
   9.000000E+99

> <Gold.Protein.RotatedTorsions>
[ 6907 6896 6895 6894 ] final  118.86 input  -60.11 | X-H torsion
[ 7974 7965 7964 7962 ] final  -65.13 input  175.53 | X-H torsion
[ 8008 7997 7996 7995 ] final  -17.38 input   59.86 | X-H torsion
[ 10167 10162 10161 10158 ] final  -10.38 input  -65.29 | X-H torsion
[ 10718 10713 10712 10709 ] final   16.93 input   66.30 | X-H torsion
[ 10763 10752 10751 10750 ] final   95.57 input  -60.55 | X-H torsion
[ 11005 11000 10999 10996 ] final  -67.42 input  -57.11 | X-H torsion

> <Gold.Protein.ActiveResidues>
 VAL166  LYS551  ARG553  GLY616  TRP617  ASP618  TYR619  PRO620  LYS621  CYS622 
 ASP623  PHE694  ASN695  SER759  ASP760  ASP761  ALA762  ILE779  LEU786  VAL792 
 PHE793  MET794  SER795  GLU796  ALA797  LYS798  CYS799  TRP800  GLU811  SER814 

> <Gold.Protein.RotatedAtoms>
  152.4513  133.7636  159.6759 H   0  0  0  0  0  0  0  0  0  0  0  0  # atno 6907 bound_to 6896
  150.8426  133.7901  159.3061 H   0  0  0  0  0  0  0  0  0  0  0  0  # atno 6908 bound_to 6896
  151.5521  135.1070  160.0004 H   0  0  0  0  0  0  0  0  0  0  0  0  # atno 6909 bound_to 6896
  145.7581  140.8875  143.0444 H   0  0  0  0  0  0  0  0  0  0  0  0  # atno 7974 bound_to 7965
  154.4983  140.2144  155.9401 H   0  0  0  0  0  0  0  0  0  0  0  0  # atno 8008 bound_to 7997
  156.1399  140.3181  155.8447 H   0  0  0  0  0  0  0  0  0  0  0  0  # atno 8009 bound_to 7997
  155.4139  140.0492  157.3021 H   0  0  0  0  0  0  0  0  0  0  0  0  # atno 8010 bound_to 7997
  140.7112  143.5754  150.9048 H   0  0  0  0  0  0  0  0  0  0  0  0  # atno 10167 bound_to 10162
  157.0749  130.6363  149.5813 H   0  0  0  0  0  0  0  0  0  0  0  0  # atno 10718 bound_to 10713
  153.2547  135.4249  155.0833 H   0  0  0  0  0  0  0  0  0  0  0  0  # atno 10763 bound_to 10752
  154.8396  135.3434  154.6463 H   0  0  0  0  0  0  0  0  0  0  0  0  # atno 10764 bound_to 10752
  153.6883  135.7035  153.5154 H   0  0  0  0  0  0  0  0  0  0  0  0  # atno 10765 bound_to 10752
  141.1507  133.6719  156.6290 H   0  0  0  0  0  0  0  0  0  0  0  0  # atno 11005 bound_to 11000
  144.6836  139.9684  143.7481 LP  0  0  0  0  0  0  0  0  0  0  0  0  # atno 17320 bound_to 7965
  146.0291  139.3319  143.0766 LP  0  0  0  0  0  0  0  0  0  0  0  0  # atno 17321 bound_to 7965
  139.9480  143.6305  152.3036 LP  0  0  0  0  0  0  0  0  0  0  0  0  # atno 17342 bound_to 10162
  139.6813  144.7655  151.1603 LP  0  0  0  0  0  0  0  0  0  0  0  0  # atno 17343 bound_to 10162
  155.9940  130.5002  150.7402 LP  0  0  0  0  0  0  0  0  0  0  0  0  # atno 17370 bound_to 10713
  157.4848  131.0905  151.0495 LP  0  0  0  0  0  0  0  0  0  0  0  0  # atno 17371 bound_to 10713
  140.3481  134.7792  157.4447 LP  0  0  0  0  0  0  0  0  0  0  0  0  # atno 17394 bound_to 11000
  140.0883  134.5636  155.8470 LP  0  0  0  0  0  0  0  0  0  0  0  0  # atno 17395 bound_to 11000

$$$$
