AV-unprocessed.smi:2329|AV-procd|sdf|9303|dock2
  -GOLD-   2272012523D 1   1.00000     0.00000
 Structure written by MMmdl.
 45 48  0  0  0  0  0  0  0  0  1 V2000
  141.8323  134.3964  152.9780 C   0  0  0  0  0  0  0  0  0  0  0  0
  143.2193  134.1936  152.4053 C   0  0  0  0  0  0  0  0  0  0  0  0
  143.4688  133.1938  151.4447 C   0  0  0  0  0  0  0  0  0  0  0  0
  144.7799  133.0583  150.9542 C   0  0  0  0  0  0  0  0  0  0  0  0
  145.7804  133.9212  151.4412 C   0  0  0  0  0  0  0  0  0  0  0  0
  145.4459  134.8990  152.4046 C   0  0  0  0  0  0  0  0  0  0  0  0
  146.5243  135.7194  152.8271 N   0  0  0  0  0  0  0  0  0  0  0  0
  146.6132  136.4787  153.9375 C   0  0  0  0  0  0  0  0  0  0  0  0
  145.7509  136.5511  154.8111 O   0  0  0  0  0  0  0  0  0  0  0  0
  147.7504  137.1909  154.0208 N   0  0  0  0  0  0  0  0  0  0  0  0
  148.1535  138.1105  155.0970 C   0  0  1  0  0  0  0  0  0  0  0  0
  149.6656  138.1710  155.3458 C   0  0  1  0  0  0  0  0  0  0  0  0
  150.8283  137.2897  155.0583 C   0  0  0  0  0  0  0  0  0  0  0  0
  151.8098  138.4006  154.6012 C   0  0  0  0  0  0  0  0  0  0  0  0
  151.0153  139.6071  154.4762 O   0  0  0  0  0  0  0  0  0  0  0  0
  149.7134  139.1376  154.1815 C   0  0  2  0  0  0  0  0  0  0  0  0
  148.3140  139.6122  154.6412 C   0  0  0  0  0  0  0  0  0  0  0  0
  147.3665  140.1360  153.5559 C   0  0  0  0  0  0  0  0  0  0  0  0
  147.2281  141.6415  153.7572 C   0  0  0  0  0  0  0  0  0  0  0  0
  147.3154  141.8113  155.2670 C   0  0  0  0  0  0  0  0  0  0  0  0
  148.2740  140.7094  155.7253 C   0  0  0  0  0  0  0  0  0  0  0  0
  144.1786  135.0218  152.8718 N   0  0  0  0  0  0  0  0  0  0  0  0
  141.1158  133.7039  152.5358 H   0  0  0  0  0  0  0  0  0  0  0  0
  141.4869  135.4124  152.7847 H   0  0  0  0  0  0  0  0  0  0  0  0
  141.8403  134.2351  154.0563 H   0  0  0  0  0  0  0  0  0  0  0  0
  142.6793  132.5468  151.0916 H   0  0  0  0  0  0  0  0  0  0  0  0
  145.0153  132.3053  150.2167 H   0  0  0  0  0  0  0  0  0  0  0  0
  146.7927  133.8315  151.0742 H   0  0  0  0  0  0  0  0  0  0  0  0
  147.3111  135.7617  152.1965 H   0  0  0  0  0  0  0  0  0  0  0  0
  148.3931  137.1089  153.2462 H   0  0  0  0  0  0  0  0  0  0  0  0
  147.5626  138.0037  156.0079 H   0  0  0  0  0  0  0  0  0  0  0  0
  149.8296  138.6715  156.3057 H   0  0  0  0  0  0  0  0  0  0  0  0
  151.1806  136.7507  155.9382 H   0  0  0  0  0  0  0  0  0  0  0  0
  150.6218  136.5769  154.2593 H   0  0  0  0  0  0  0  0  0  0  0  0
  152.6094  138.5619  155.3247 H   0  0  0  0  0  0  0  0  0  0  0  0
  152.2653  138.1454  153.6437 H   0  0  0  0  0  0  0  0  0  0  0  0
  149.6942  138.6586  153.1975 H   0  0  0  0  0  0  0  0  0  0  0  0
  147.7156  139.9058  152.5490 H   0  0  0  0  0  0  0  0  0  0  0  0
  146.3852  139.6716  153.6630 H   0  0  0  0  0  0  0  0  0  0  0  0
  148.0637  142.1549  153.2796 H   0  0  0  0  0  0  0  0  0  0  0  0
  146.3039  142.0411  153.3388 H   0  0  0  0  0  0  0  0  0  0  0  0
  147.6479  142.8078  155.5596 H   0  0  0  0  0  0  0  0  0  0  0  0
  146.3318  141.6467  155.7089 H   0  0  0  0  0  0  0  0  0  0  0  0
  147.9666  140.3179  156.6954 H   0  0  0  0  0  0  0  0  0  0  0  0
  149.2672  141.1382  155.8657 H   0  0  0  0  0  0  0  0  0  0  0  0
  1  2  1  0  0  0  0
  1 23  1  0  0  0  0
  1 24  1  0  0  0  0
  1 25  1  0  0  0  0
  2 22  1  0  0  0  0
  2  3  2  0  0  0  0
  3  4  1  0  0  0  0
  3 26  1  0  0  0  0
  4  5  2  0  0  0  0
  4 27  1  0  0  0  0
  5  6  1  0  0  0  0
  5 28  1  0  0  0  0
  6  7  1  0  0  0  0
  6 22  2  0  0  0  0
  7  8  1  0  0  0  0
  7 29  1  0  0  0  0
  8  9  2  0  0  0  0
  8 10  1  0  0  0  0
 10 11  1  0  0  0  0
 10 30  1  0  0  0  0
 11 17  1  0  0  0  0
 11 12  1  0  0  0  0
 11 31  1  0  0  0  0
 12 16  1  0  0  0  0
 12 13  1  0  0  0  0
 12 32  1  0  0  0  0
 13 14  1  0  0  0  0
 13 33  1  0  0  0  0
 13 34  1  0  0  0  0
 14 15  1  0  0  0  0
 14 35  1  0  0  0  0
 14 36  1  0  0  0  0
 15 16  1  0  0  0  0
 16 17  1  0  0  0  0
 16 37  1  0  0  0  0
 17 21  1  0  0  0  0
 17 18  1  0  0  0  0
 18 19  1  0  0  0  0
 18 38  1  0  0  0  0
 18 39  1  0  0  0  0
 19 20  1  0  0  0  0
 19 40  1  0  0  0  0
 19 41  1  0  0  0  0
 20 21  1  0  0  0  0
 20 42  1  0  0  0  0
 20 43  1  0  0  0  0
 21 44  1  0  0  0  0
 21 45  1  0  0  0  0
M  END
> <s_m_source_file>
AV-unprocessed.smi

> <i_m_source_file_index>
2329

> <i_lp_mmshare_version>
43012

> <i_f3d_flags>
0

> <s_epik_input>
W0NIM11jMVtjSF1bY0hdW2NIXWMobjEpW05IXUMoPU8pW05IXVtDQEBIXTJbQ0BASF0oW0NIMl1bQ0gyXU8zKVtDQEhdM0MyNFtDSDJdW0NIMl1bQ0gyXVtDSDJdNA==

> <s_epik_cmdline>
J2VwaWtfcHl0aG9uJywgJy1waCcsICc3LjAnLCAnLXRuJywgJzgnLCAnLW1hJywgJzIwMCcsICctbWV0YWxfYmluZGluZycsICctaW1hZScsICc8aW5maWxlLm1hZT4nLCAnLW9tYWUnLCAnPG91dGZpbGUubWFlPic=

> <r_lp_tautomer_probability>
1

> <r_epik_Ionization_Penalty>
8.97002e-05

> <r_epik_Ionization_Penalty_Charging>
0

> <r_epik_Ionization_Penalty_Neutral>
8.97002e-05

> <r_epik_State_Penalty>
-0

> <r_epik_Charging_Adjusted_Penalty>
0

> <i_epik_Tot_Q>
0

> <i_epik_Tot_abs_Q>
0

> <r_epik_Metal_State_Penalty>
-0

> <b_epik_Metal_Only>
0

> <s_lp_Force_Field>
OPLS_2005

> <r_lp_Energy>
90.5086

> <b_lp_Chiralities_Consistent>
1

> <s_lp_Variant>
AV-unprocessed.smi:2329-2

> <Gold.Version>
5.8.1

> <Gold.Id.Protein>
6NUR|6NUR_protein|mol2

> <Gold.PLP.Fitness>
43.1072

> <Gold.PLP.PLP>
-34.3765

> <Gold.PLP.part.hbond>
-3.0000

> <Gold.PLP.part.metal>
0.0000

> <Gold.PLP.part.buried>
-4.1963

> <Gold.PLP.part.nonpolar>
-26.7303

> <Gold.PLP.part.repulsive>
0.2318

> <Gold.PLP.ligand.clash>
0.0000

> <Gold.PLP.ligand.torsion>
0.2693

> <Gold.PLP.Chemscore.Hbond>
3.0000

> <Gold.PLP.Chemscore.CHOScore>
0.0000

> <Gold.PLP.Chemscore.Metal>
0.0000

> <Gold.Chemscore.Hbonds>
donor molecule, donor type, donor heavy atom, donor atom, acceptor molecule, acceptor atom, score
      L1  H     7    29       P1  7948  1.00
      L1  H    10    30       P1  7948  1.00
      P1  H  7989  7998       L1    15  1.00

> <Gold.PLP.Chemscore.Internal.Correction>
0.2692

> <Gold.Rescore>
     Score         DG    S(hbond)    S(metal)    S(lipo)     H(rot)  DE(clash)    DE(int)     intcor
     21.01     -22.69       2.86        0.00      87.41       1.00       0.20       1.47       ----

> <Gold.Chemscore.Fitness>
21.0146

> <Gold.Chemscore.DG>
-22.6853

> <Gold.Chemscore.ZeroCoef>
-5.4800

> <Gold.Chemscore.Hbond>
2.8558

> <Gold.Chemscore.Metal>
0.0000

> <Gold.Chemscore.Lipo>
87.4093

> <Gold.Chemscore.Internal_Hbond>
0.0000

> <Gold.Chemscore.DEClash>
0.1971

> <Gold.Chemscore.DEInternal>
1.4737

> <Gold.Chemscore.Rot>
1.0000

> <Gold.Chemscore.Internal.Correction>
   9.000000E+99

> <Gold.Chemscore.Hbonds>
donor molecule, donor type, donor heavy atom, donor atom, acceptor molecule, acceptor atom, score
      L1  H     7    29       P1  7948  0.96
      L1  H    10    30       P1  7948  0.94
      P1  H  7989  7998       L1    15  0.89

> <Gold.Chemscore.Hbond.Weighted>
-9.5385

> <Gold.Chemscore.Metal.Weighted>
-0.0000

> <Gold.Chemscore.Lipo.Weighted>
-10.2269

> <Gold.Chemscore.Internal_Hbond.Weighted>
0.0000

> <Gold.Chemscore.DEClash.Weighted>
0.1971

> <Gold.Chemscore.DEInternal.Weighted>
1.4737

> <Gold.Chemscore.Rot.Weighted>
2.5600

> <Gold.Chemscore.Internal.Correction.Weighted>
   9.000000E+99

> <Gold.Protein.RotatedTorsions>
[ 6907 6896 6895 6894 ] final -123.79 input  -60.11 | X-H torsion
[ 7974 7965 7964 7962 ] final   61.15 input  175.53 | X-H torsion
[ 8008 7997 7996 7995 ] final  -12.79 input   59.86 | X-H torsion
[ 10167 10162 10161 10158 ] final -121.56 input  -65.29 | X-H torsion
[ 10718 10713 10712 10709 ] final  157.90 input   66.30 | X-H torsion
[ 10763 10752 10751 10750 ] final -100.55 input  -60.55 | X-H torsion
[ 11005 11000 10999 10996 ] final   -3.59 input  -57.11 | X-H torsion

> <Gold.Protein.ActiveResidues>
 VAL166  LYS551  ARG553  GLY616  TRP617  ASP618  TYR619  PRO620  LYS621  CYS622 
 ASP623  PHE694  ASN695  SER759  ASP760  ASP761  ALA762  ILE779  LEU786  VAL792 
 PHE793  MET794  SER795  GLU796  ALA797  LYS798  CYS799  TRP800  GLU811  SER814 

> <Gold.Protein.RotatedAtoms>
  150.8705  133.7513  159.2962 H   0  0  0  0  0  0  0  0  0  0  0  0  # atno 6907 bound_to 6896
  151.5126  135.1064  159.9867 H   0  0  0  0  0  0  0  0  0  0  0  0  # atno 6908 bound_to 6896
  152.4691  133.7945  159.6975 H   0  0  0  0  0  0  0  0  0  0  0  0  # atno 6909 bound_to 6896
  145.8880  139.3490  143.0666 H   0  0  0  0  0  0  0  0  0  0  0  0  # atno 7974 bound_to 7965
  154.5347  140.2267  155.8743 H   0  0  0  0  0  0  0  0  0  0  0  0  # atno 8008 bound_to 7997
  156.1799  140.3102  155.9092 H   0  0  0  0  0  0  0  0  0  0  0  0  # atno 8009 bound_to 7997
  155.3379  140.0449  157.3035 H   0  0  0  0  0  0  0  0  0  0  0  0  # atno 8010 bound_to 7997
  140.0237  143.5318  152.2208 H   0  0  0  0  0  0  0  0  0  0  0  0  # atno 10167 bound_to 10162
  157.1852  131.0642  151.2110 H   0  0  0  0  0  0  0  0  0  0  0  0  # atno 10718 bound_to 10713
  154.7588  135.4931  153.9425 H   0  0  0  0  0  0  0  0  0  0  0  0  # atno 10763 bound_to 10752
  153.1227  135.6735  153.9316 H   0  0  0  0  0  0  0  0  0  0  0  0  # atno 10764 bound_to 10752
  153.9043  135.3106  155.3427 H   0  0  0  0  0  0  0  0  0  0  0  0  # atno 10765 bound_to 10752
  140.6709  133.9237  155.8494 H   0  0  0  0  0  0  0  0  0  0  0  0  # atno 11005 bound_to 11000
  145.8943  140.9284  143.0536 LP  0  0  0  0  0  0  0  0  0  0  0  0  # atno 17320 bound_to 7965
  144.6729  140.0947  143.7463 LP  0  0  0  0  0  0  0  0  0  0  0  0  # atno 17321 bound_to 7965
  139.6122  144.7611  151.2926 LP  0  0  0  0  0  0  0  0  0  0  0  0  # atno 17342 bound_to 10162
  140.7331  143.6803  150.8006 LP  0  0  0  0  0  0  0  0  0  0  0  0  # atno 17343 bound_to 10162
  157.3914  130.7284  149.6700 LP  0  0  0  0  0  0  0  0  0  0  0  0  # atno 17370 bound_to 10713
  155.9719  130.4145  150.4137 LP  0  0  0  0  0  0  0  0  0  0  0  0  # atno 17371 bound_to 10713
  141.0392  134.0645  157.3922 LP  0  0  0  0  0  0  0  0  0  0  0  0  # atno 17394 bound_to 11000
  139.8982  135.0153  156.7136 LP  0  0  0  0  0  0  0  0  0  0  0  0  # atno 17395 bound_to 11000

$$$$
