AV-unprocessed.smi:2730|AV-procd|sdf|10528|dock10
  -GOLD-   2272014573D 1   1.00000     0.00000
 Structure written by MMmdl.
 43 44  0  0  0  0  0  0  0  0  1 V2000
  149.5587  132.3164  154.2512 C   0  0  0  0  0  0  0  0  0  0  0  0
  149.7176  133.8018  153.8945 C   0  0  0  0  0  0  0  0  0  0  0  0
  149.7630  134.7348  155.1217 C   0  0  2  0  0  0  0  0  0  0  0  0
  148.5138  134.5936  156.0111 C   0  0  0  0  0  0  0  0  0  0  0  0
  148.7864  134.7691  157.4462 C   0  0  0  0  0  0  0  0  0  0  0  0
  149.0005  134.9076  158.5747 N   0  0  0  0  0  0  0  0  0  0  0  0
  149.9104  136.1231  154.6911 N   0  0  0  0  0  0  0  0  0  0  0  0
  150.0755  137.1734  155.5080 C   0  0  0  0  0  0  0  0  0  0  0  0
  150.1103  137.0793  156.7352 O   0  0  0  0  0  0  0  0  0  0  0  0
  150.1942  138.3167  154.8109 N   0  0  0  0  0  0  0  0  0  0  0  0
  150.3788  139.6325  155.3086 C   0  0  0  0  0  0  0  0  0  0  0  0
  150.1961  140.7698  154.5700 N   0  0  0  0  0  0  0  0  0  0  0  0
  150.4932  141.6723  155.4956 C   0  0  0  0  0  0  0  0  0  0  0  0
  150.8250  141.1490  156.6794 N   0  0  0  0  0  0  0  0  0  0  0  0
  151.2075  141.8046  157.9206 C   0  0  0  0  0  0  0  0  0  0  0  0
  151.4194  143.3197  157.7197 C   0  0  0  0  0  0  0  0  0  0  0  0
  151.8129  144.0074  159.0373 C   0  0  0  0  0  0  0  0  0  0  0  0
  153.0578  143.3527  159.6576 C   0  0  0  0  0  0  0  0  0  0  0  0
  152.8511  141.8430  159.8602 C   0  0  0  0  0  0  0  0  0  0  0  0
  152.4598  141.1526  158.5432 C   0  0  0  0  0  0  0  0  0  0  0  0
  150.7548  139.7983  156.5748 N   0  0  0  0  0  0  0  0  0  0  0  0
  149.4838  131.7090  153.3491 H   0  0  0  0  0  0  0  0  0  0  0  0
  148.6564  132.1486  154.8396 H   0  0  0  0  0  0  0  0  0  0  0  0
  150.4081  131.9465  154.8258 H   0  0  0  0  0  0  0  0  0  0  0  0
  150.6209  133.9353  153.2980 H   0  0  0  0  0  0  0  0  0  0  0  0
  148.8860  134.0882  153.2505 H   0  0  0  0  0  0  0  0  0  0  0  0
  150.6370  134.4599  155.7157 H   0  0  0  0  0  0  0  0  0  0  0  0
  147.7600  135.3311  155.7340 H   0  0  0  0  0  0  0  0  0  0  0  0
  148.0621  133.6100  155.8792 H   0  0  0  0  0  0  0  0  0  0  0  0
  149.8941  136.2931  153.6961 H   0  0  0  0  0  0  0  0  0  0  0  0
  150.1479  138.2380  153.8058 H   0  0  0  0  0  0  0  0  0  0  0  0
  150.4686  142.7354  155.3064 H   0  0  0  0  0  0  0  0  0  0  0  0
  150.3784  141.6714  158.6178 H   0  0  0  0  0  0  0  0  0  0  0  0
  152.2001  143.4947  156.9782 H   0  0  0  0  0  0  0  0  0  0  0  0
  150.5104  143.7753  157.3248 H   0  0  0  0  0  0  0  0  0  0  0  0
  151.9990  145.0672  158.8618 H   0  0  0  0  0  0  0  0  0  0  0  0
  150.9816  143.9516  159.7413 H   0  0  0  0  0  0  0  0  0  0  0  0
  153.9193  143.5193  159.0097 H   0  0  0  0  0  0  0  0  0  0  0  0
  153.2916  143.8272  160.6111 H   0  0  0  0  0  0  0  0  0  0  0  0
  153.7608  141.3939  160.2593 H   0  0  0  0  0  0  0  0  0  0  0  0
  152.0718  141.6774  160.6054 H   0  0  0  0  0  0  0  0  0  0  0  0
  152.2785  140.0924  158.7241 H   0  0  0  0  0  0  0  0  0  0  0  0
  153.2979  141.2084  157.8469 H   0  0  0  0  0  0  0  0  0  0  0  0
  1  2  1  0  0  0  0
  1 22  1  0  0  0  0
  1 23  1  0  0  0  0
  1 24  1  0  0  0  0
  2  3  1  0  0  0  0
  2 25  1  0  0  0  0
  2 26  1  0  0  0  0
  3  4  1  0  0  0  0
  3  7  1  0  0  0  0
  3 27  1  0  0  0  0
  4  5  1  0  0  0  0
  4 28  1  0  0  0  0
  4 29  1  0  0  0  0
  5  6  3  0  0  0  0
  7  8  1  0  0  0  0
  7 30  1  0  0  0  0
  8  9  2  0  0  0  0
  8 10  1  0  0  0  0
 10 11  1  0  0  0  0
 10 31  1  0  0  0  0
 11 21  2  0  0  0  0
 11 12  1  0  0  0  0
 12 13  2  0  0  0  0
 13 14  1  0  0  0  0
 13 32  1  0  0  0  0
 14 15  1  0  0  0  0
 14 21  1  0  0  0  0
 15 20  1  0  0  0  0
 15 16  1  0  0  0  0
 15 33  1  0  0  0  0
 16 17  1  0  0  0  0
 16 34  1  0  0  0  0
 16 35  1  0  0  0  0
 17 18  1  0  0  0  0
 17 36  1  0  0  0  0
 17 37  1  0  0  0  0
 18 19  1  0  0  0  0
 18 38  1  0  0  0  0
 18 39  1  0  0  0  0
 19 20  1  0  0  0  0
 19 40  1  0  0  0  0
 19 41  1  0  0  0  0
 20 42  1  0  0  0  0
 20 43  1  0  0  0  0
M  END
> <s_m_source_file>
AV-unprocessed.smi

> <i_m_source_file_index>
2730

> <i_lp_mmshare_version>
43012

> <i_f3d_flags>
0

> <s_epik_input>
TiNDW0NIMl1bQ0BASF0oW0NIMl1bQ0gzXSlbTkhdQyg9TylbTkhdYzFuW2NIXW4objEpW0NIXTJbQ0gyXVtDSDJdW0NIMl1bQ0gyXVtDSDJdMg==

> <s_epik_cmdline>
J2VwaWtfcHl0aG9uJywgJy1waCcsICc3LjAnLCAnLXRuJywgJzgnLCAnLW1hJywgJzIwMCcsICctbWV0YWxfYmluZGluZycsICctaW1hZScsICc8aW5maWxlLm1hZT4nLCAnLW9tYWUnLCAnPG91dGZpbGUubWFlPic=

> <r_lp_tautomer_probability>
1

> <r_epik_Ionization_Penalty>
7.18854e-05

> <r_epik_Ionization_Penalty_Charging>
0

> <r_epik_Ionization_Penalty_Neutral>
7.18854e-05

> <r_epik_State_Penalty>
-0

> <r_epik_Charging_Adjusted_Penalty>
0

> <i_epik_Tot_Q>
0

> <i_epik_Tot_abs_Q>
0

> <r_epik_Metal_State_Penalty>
-0

> <b_epik_Metal_Only>
0

> <s_lp_Force_Field>
OPLS_2005

> <r_lp_Energy>
15.2848

> <b_lp_Chiralities_Consistent>
1

> <s_lp_Variant>
AV-unprocessed.smi:2730-1

> <Gold.Version>
5.8.1

> <Gold.Id.Protein>
6NUR|6NUR_protein|mol2

> <Gold.PLP.Fitness>
46.2670

> <Gold.PLP.PLP>
-36.4928

> <Gold.PLP.part.hbond>
-3.0000

> <Gold.PLP.part.metal>
0.0000

> <Gold.PLP.part.buried>
-3.9266

> <Gold.PLP.part.nonpolar>
-29.0248

> <Gold.PLP.part.repulsive>
0.1989

> <Gold.PLP.ligand.clash>
0.0000

> <Gold.PLP.ligand.torsion>
0.7224

> <Gold.PLP.Chemscore.Hbond>
2.7200

> <Gold.PLP.Chemscore.CHOScore>
1.0000

> <Gold.PLP.Chemscore.Metal>
0.0000

> <Gold.Chemscore.Hbonds>
donor molecule, donor type, donor heavy atom, donor atom, acceptor molecule, acceptor atom, score
      L1  H     7    30       P1  7948  0.95
      P1  H  6896  6907       L1     6  1.00
      P1  H  7989  7998       L1    12  0.78
      L1  C    13    32       P1  8028  0.94

> <Gold.PLP.Chemscore.Internal.Correction>
0.0591

> <Gold.Rescore>
     Score         DG    S(hbond)    S(metal)    S(lipo)     H(rot)  DE(clash)    DE(int)     intcor
     14.22     -16.90       1.88        0.00      83.97       1.82       0.10       2.58       ----

> <Gold.Chemscore.Fitness>
14.2221

> <Gold.Chemscore.DG>
-16.8980

> <Gold.Chemscore.ZeroCoef>
-5.4800

> <Gold.Chemscore.Hbond>
1.8759

> <Gold.Chemscore.Metal>
0.0000

> <Gold.Chemscore.Lipo>
83.9691

> <Gold.Chemscore.Internal_Hbond>
0.0000

> <Gold.Chemscore.DEClash>
0.0982

> <Gold.Chemscore.DEInternal>
2.5776

> <Gold.Chemscore.Rot>
1.8249

> <Gold.Chemscore.Internal.Correction>
   9.000000E+99

> <Gold.Chemscore.Hbonds>
donor molecule, donor type, donor heavy atom, donor atom, acceptor molecule, acceptor atom, score
      L1  H     7    30       P1  7948  0.20
      P1  H  6896  6907       L1     6  0.99
      P1  H  7989  7998       L1    12  0.13

> <Gold.Chemscore.Hbond.Weighted>
-6.2654

> <Gold.Chemscore.Metal.Weighted>
-0.0000

> <Gold.Chemscore.Lipo.Weighted>
-9.8244

> <Gold.Chemscore.Internal_Hbond.Weighted>
0.0000

> <Gold.Chemscore.DEClash.Weighted>
0.0982

> <Gold.Chemscore.DEInternal.Weighted>
2.5776

> <Gold.Chemscore.Rot.Weighted>
4.6718

> <Gold.Chemscore.Internal.Correction.Weighted>
   9.000000E+99

> <Gold.Protein.RotatedTorsions>
[ 6907 6896 6895 6894 ] final  -85.99 input  -60.11 | X-H torsion
[ 7974 7965 7964 7962 ] final  106.86 input  175.53 | X-H torsion
[ 8008 7997 7996 7995 ] final  -86.42 input   59.86 | X-H torsion
[ 10167 10162 10161 10158 ] final  119.42 input  -65.29 | X-H torsion
[ 10718 10713 10712 10709 ] final  -37.44 input   66.30 | X-H torsion
[ 10763 10752 10751 10750 ] final  -55.38 input  -60.55 | X-H torsion
[ 11005 11000 10999 10996 ] final  -55.42 input  -57.11 | X-H torsion

> <Gold.Protein.ActiveResidues>
 VAL166  LYS551  ARG553  GLY616  TRP617  ASP618  TYR619  PRO620  LYS621  CYS622 
 ASP623  PHE694  ASN695  SER759  ASP760  ASP761  ALA762  ILE779  LEU786  VAL792 
 PHE793  MET794  SER795  GLU796  ALA797  LYS798  CYS799  TRP800  GLU811  SER814 

> <Gold.Protein.RotatedAtoms>
  150.6868  134.3119  159.4749 H   0  0  0  0  0  0  0  0  0  0  0  0  # atno 6907 bound_to 6896
  152.1004  134.9343  160.0579 H   0  0  0  0  0  0  0  0  0  0  0  0  # atno 6908 bound_to 6896
  152.0624  133.4033  159.4460 H   0  0  0  0  0  0  0  0  0  0  0  0  # atno 6909 bound_to 6896
  145.3012  139.2569  143.3813 H   0  0  0  0  0  0  0  0  0  0  0  0  # atno 7974 bound_to 7965
  154.6516  140.0579  156.9962 H   0  0  0  0  0  0  0  0  0  0  0  0  # atno 8008 bound_to 7997
  155.1362  140.3261  155.4444 H   0  0  0  0  0  0  0  0  0  0  0  0  # atno 8009 bound_to 7997
  156.2579  140.1972  156.6479 H   0  0  0  0  0  0  0  0  0  0  0  0  # atno 8010 bound_to 7997
  139.6047  144.7066  151.2980 H   0  0  0  0  0  0  0  0  0  0  0  0  # atno 10167 bound_to 10162
  156.3152  130.4258  149.8012 H   0  0  0  0  0  0  0  0  0  0  0  0  # atno 10718 bound_to 10713
  154.1898  135.6429  153.5057 H   0  0  0  0  0  0  0  0  0  0  0  0  # atno 10763 bound_to 10752
  153.0038  135.5426  154.6427 H   0  0  0  0  0  0  0  0  0  0  0  0  # atno 10764 bound_to 10752
  154.5813  135.2925  155.0703 H   0  0  0  0  0  0  0  0  0  0  0  0  # atno 10765 bound_to 10752
  141.1073  133.6612  156.4467 H   0  0  0  0  0  0  0  0  0  0  0  0  # atno 11005 bound_to 11000
  146.3151  140.3526  142.8657 LP  0  0  0  0  0  0  0  0  0  0  0  0  # atno 17320 bound_to 7965
  144.9092  140.7737  143.5818 LP  0  0  0  0  0  0  0  0  0  0  0  0  # atno 17321 bound_to 7965
  140.7276  143.6958  150.7885 LP  0  0  0  0  0  0  0  0  0  0  0  0  # atno 17342 bound_to 10162
  140.0542  143.5220  152.2659 LP  0  0  0  0  0  0  0  0  0  0  0  0  # atno 17343 bound_to 10162
  156.5341  130.8271  151.3247 LP  0  0  0  0  0  0  0  0  0  0  0  0  # atno 17370 bound_to 10713
  157.7400  130.9842  150.2348 LP  0  0  0  0  0  0  0  0  0  0  0  0  # atno 17371 bound_to 10713
  140.4869  134.6612  157.5194 LP  0  0  0  0  0  0  0  0  0  0  0  0  # atno 17394 bound_to 11000
  139.9949  134.6927  155.9627 LP  0  0  0  0  0  0  0  0  0  0  0  0  # atno 17395 bound_to 11000

$$$$
