AV-unprocessed.smi:1239|AV-procd|sdf|5191|dock4
  -GOLD-   22720 4273D 1   1.00000     0.00000
 Structure written by MMmdl.
 48 49  0  0  0  0  0  0  0  0  2 V2000
  146.5192  139.0149  151.5575 C   0  0  0  0  0  0  0  0  0  0  0  0
  147.0883  139.3161  152.9652 C   0  0  2  0  0  0  0  0  0  0  0  0
  148.2884  140.3009  152.8743 C   0  0  0  0  0  0  0  0  0  0  0  0
  148.5031  141.0724  154.0971 N   0  0  0  0  0  0  0  0  0  0  0  0
  149.5297  140.9148  154.9458 C   0  0  0  0  0  0  0  0  0  0  0  0
  150.4433  140.1116  154.7605 O   0  0  0  0  0  0  0  0  0  0  0  0
  149.4273  141.7562  155.9889 N   0  0  0  0  0  0  0  0  0  0  0  0
  150.2862  141.8997  157.1130 C   0  0  0  0  0  0  0  0  0  0  0  0
  151.1232  140.8158  157.4397 C   0  0  0  0  0  0  0  0  0  0  0  0
  152.0004  140.9234  158.5350 C   0  0  0  0  0  0  0  0  0  0  0  0
  152.0273  142.1257  159.2838 C   0  0  0  0  0  0  0  0  0  0  0  0
  152.8903  142.2858  160.3921 N   0  0  0  0  0  0  0  0  0  0  0  0
  152.7998  143.4874  161.2154 C   0  0  0  0  0  0  0  0  0  0  0  0
  153.8372  141.2344  160.7430 C   0  0  0  0  0  0  0  0  0  0  0  0
  151.2273  143.1713  158.9612 N   0  0  0  0  0  0  0  0  0  0  0  0
  150.3868  143.0642  157.9105 C   0  0  0  0  0  0  0  0  0  0  0  0
  147.4372  138.0461  153.6883 N   0  3  0  0  0  0  0  0  0  0  0  0
  148.0904  138.2450  155.0134 C   0  0  0  0  0  0  0  0  0  0  0  0
  148.4207  136.9033  155.6897 C   0  0  0  0  0  0  0  0  0  0  0  0
  147.2423  136.1239  155.8194 O   0  0  0  0  0  0  0  0  0  0  0  0
  146.6887  135.8183  154.5500 C   0  0  0  0  0  0  0  0  0  0  0  0
  146.2800  137.1191  153.8399 C   0  0  0  0  0  0  0  0  0  0  0  0
  146.2605  139.9259  151.0194 H   0  0  0  0  0  0  0  0  0  0  0  0
  145.5969  138.4385  151.5879 H   0  0  0  0  0  0  0  0  0  0  0  0
  147.2395  138.4674  150.9487 H   0  0  0  0  0  0  0  0  0  0  0  0
  146.3071  139.8150  153.5413 H   0  0  0  0  0  0  0  0  0  0  0  0
  149.2207  139.7568  152.7283 H   0  0  0  0  0  0  0  0  0  0  0  0
  148.1744  140.9579  152.0101 H   0  0  0  0  0  0  0  0  0  0  0  0
  147.8034  141.7637  154.3252 H   0  0  0  0  0  0  0  0  0  0  0  0
  148.6488  142.3983  155.9618 H   0  0  0  0  0  0  0  0  0  0  0  0
  151.0954  139.9055  156.8588 H   0  0  0  0  0  0  0  0  0  0  0  0
  152.6343  140.0836  158.7759 H   0  0  0  0  0  0  0  0  0  0  0  0
  151.8093  143.5697  161.6641 H   0  0  0  0  0  0  0  0  0  0  0  0
  152.9838  144.3783  160.6142 H   0  0  0  0  0  0  0  0  0  0  0  0
  153.5321  143.4733  162.0227 H   0  0  0  0  0  0  0  0  0  0  0  0
  154.5320  141.0539  159.9222 H   0  0  0  0  0  0  0  0  0  0  0  0
  153.3119  140.3058  160.9685 H   0  0  0  0  0  0  0  0  0  0  0  0
  154.4242  141.5053  161.6205 H   0  0  0  0  0  0  0  0  0  0  0  0
  149.8054  143.9506  157.7150 H   0  0  0  0  0  0  0  0  0  0  0  0
  149.0302  138.7851  154.9095 H   0  0  0  0  0  0  0  0  0  0  0  0
  147.4386  138.8386  155.6564 H   0  0  0  0  0  0  0  0  0  0  0  0
  149.1751  136.3557  155.1220 H   0  0  0  0  0  0  0  0  0  0  0  0
  148.8370  137.0779  156.6820 H   0  0  0  0  0  0  0  0  0  0  0  0
  147.4029  135.2520  153.9498 H   0  0  0  0  0  0  0  0  0  0  0  0
  145.8167  135.1793  154.6911 H   0  0  0  0  0  0  0  0  0  0  0  0
  145.4862  137.6137  154.4018 H   0  0  0  0  0  0  0  0  0  0  0  0
  145.8639  136.8427  152.8738 H   0  0  0  0  0  0  0  0  0  0  0  0
  148.1166  137.5694  153.1121 H   0  0  0  0  0  0  0  0  0  0  0  0
  1  2  1  0  0  0  0
  1 23  1  0  0  0  0
  1 24  1  0  0  0  0
  1 25  1  0  0  0  0
  2  3  1  0  0  0  0
  2 17  1  0  0  0  0
  2 26  1  0  0  0  0
  3  4  1  0  0  0  0
  3 27  1  0  0  0  0
  3 28  1  0  0  0  0
  4  5  1  0  0  0  0
  4 29  1  0  0  0  0
  5  6  2  0  0  0  0
  5  7  1  0  0  0  0
  7  8  1  0  0  0  0
  7 30  1  0  0  0  0
  8 16  1  0  0  0  0
  8  9  2  0  0  0  0
  9 10  1  0  0  0  0
  9 31  1  0  0  0  0
 10 11  2  0  0  0  0
 10 32  1  0  0  0  0
 11 12  1  0  0  0  0
 11 15  1  0  0  0  0
 12 13  1  0  0  0  0
 12 14  1  0  0  0  0
 13 33  1  0  0  0  0
 13 34  1  0  0  0  0
 13 35  1  0  0  0  0
 14 36  1  0  0  0  0
 14 37  1  0  0  0  0
 14 38  1  0  0  0  0
 15 16  2  0  0  0  0
 16 39  1  0  0  0  0
 17 22  1  0  0  0  0
 17 18  1  0  0  0  0
 17 48  1  0  0  0  0
 18 19  1  0  0  0  0
 18 40  1  0  0  0  0
 18 41  1  0  0  0  0
 19 20  1  0  0  0  0
 19 42  1  0  0  0  0
 19 43  1  0  0  0  0
 20 21  1  0  0  0  0
 21 22  1  0  0  0  0
 21 44  1  0  0  0  0
 21 45  1  0  0  0  0
 22 46  1  0  0  0  0
 22 47  1  0  0  0  0
M  CHG  1  17   1
M  END
> <s_m_source_file>
AV-unprocessed.smi

> <i_m_source_file_index>
1239

> <i_lp_mmshare_version>
43012

> <i_f3d_flags>
0

> <s_epik_input>
W0NIMl0xW0NIMl1PW0NIMl1bQ0gyXU4xW0NASF0oW0NIM10pW0NIMl1bTkhdQyg9TylbTkhdYzJbY0hdW2NIXWMoTihbQ0gzXSlbQ0gzXSluW2NIXTI=

> <s_epik_cmdline>
J2VwaWtfcHl0aG9uJywgJy1waCcsICc3LjAnLCAnLXRuJywgJzgnLCAnLW1hJywgJzIwMCcsICctbWV0YWxfYmluZGluZycsICctaW1hZScsICc8aW5maWxlLm1hZT4nLCAnLW9tYWUnLCAnPG91dGZpbGUubWFlPic=

> <r_epik_Ionization_Penalty>
1.1428

> <r_epik_Ionization_Penalty_Charging>
0.602531

> <r_epik_Ionization_Penalty_Neutral>
0.540271

> <r_epik_State_Penalty>
1.1888

> <r_epik_Charging_Adjusted_Penalty>
1.79133

> <i_epik_Tot_Q>
1

> <i_epik_Tot_abs_Q>
1

> <r_epik_Metal_State_Penalty>
0.936295

> <b_epik_Metal_Only>
0

> <s_lp_Force_Field>
OPLS_2005

> <r_lp_Energy>
25.054

> <b_lp_Chiralities_Consistent>
1

> <s_lp_Variant>
AV-unprocessed.smi:1239-7

> <Gold.Version>
5.8.1

> <Gold.Id.Protein>
6NUR|6NUR_protein|mol2

> <Gold.PLP.Fitness>
45.2761

> <Gold.PLP.PLP>
-34.0203

> <Gold.PLP.part.hbond>
-2.7692

> <Gold.PLP.part.metal>
0.0000

> <Gold.PLP.part.buried>
2.7338

> <Gold.PLP.part.nonpolar>
-33.5678

> <Gold.PLP.part.repulsive>
0.4048

> <Gold.PLP.ligand.clash>
0.0000

> <Gold.PLP.ligand.torsion>
0.4335

> <Gold.PLP.Chemscore.Hbond>
3.0000

> <Gold.PLP.Chemscore.CHOScore>
1.0164

> <Gold.PLP.Chemscore.Metal>
0.0000

> <Gold.Chemscore.Hbonds>
donor molecule, donor type, donor heavy atom, donor atom, acceptor molecule, acceptor atom, score
      L1  H     7    30       P1  8028  0.10
      L1  H    17    48       P1  7948  2.00
      P1  H  7989  7998       L1     6  1.00
      L1  C    16    39       P1  8028  1.00
      L1  C    16    39       P1  8029  0.06

> <Gold.PLP.Chemscore.Internal.Correction>
0.0734

> <Gold.Rescore>
     Score         DG    S(hbond)    S(metal)    S(lipo)     H(rot)  DE(clash)    DE(int)     intcor
     12.27     -18.14       1.93        0.00      85.60       1.48       3.37       2.50       ----

> <Gold.Chemscore.Fitness>
12.2696

> <Gold.Chemscore.DG>
-18.1439

> <Gold.Chemscore.ZeroCoef>
-5.4800

> <Gold.Chemscore.Hbond>
1.9295

> <Gold.Chemscore.Metal>
0.0000

> <Gold.Chemscore.Lipo>
85.6039

> <Gold.Chemscore.Internal_Hbond>
0.0000

> <Gold.Chemscore.DEClash>
3.3710

> <Gold.Chemscore.DEInternal>
2.5033

> <Gold.Chemscore.Rot>
1.4830

> <Gold.Chemscore.Internal.Correction>
   9.000000E+99

> <Gold.Chemscore.Hbonds>
donor molecule, donor type, donor heavy atom, donor atom, acceptor molecule, acceptor atom, score
      L1  H     7    30       P1  8028  0.10
      L1  H    17    48       P1  7948  0.96
      P1  H  7989  7998       L1     6  0.60

> <Gold.Chemscore.Hbond.Weighted>
-6.4446

> <Gold.Chemscore.Metal.Weighted>
-0.0000

> <Gold.Chemscore.Lipo.Weighted>
-10.0157

> <Gold.Chemscore.Internal_Hbond.Weighted>
0.0000

> <Gold.Chemscore.DEClash.Weighted>
3.3710

> <Gold.Chemscore.DEInternal.Weighted>
2.5033

> <Gold.Chemscore.Rot.Weighted>
3.7964

> <Gold.Chemscore.Internal.Correction.Weighted>
   9.000000E+99

> <Gold.Protein.RotatedTorsions>
[ 6907 6896 6895 6894 ] final   82.91 input  -60.11 | X-H torsion
[ 7974 7965 7964 7962 ] final -137.82 input  175.53 | X-H torsion
[ 8008 7997 7996 7995 ] final   82.12 input   59.86 | X-H torsion
[ 10167 10162 10161 10158 ] final   74.57 input  -65.29 | X-H torsion
[ 10718 10713 10712 10709 ] final   -9.59 input   66.30 | X-H torsion
[ 10763 10752 10751 10750 ] final -159.89 input  -60.55 | X-H torsion
[ 11005 11000 10999 10996 ] final -154.81 input  -57.11 | X-H torsion

> <Gold.Protein.ActiveResidues>
 VAL166  LYS551  ARG553  GLY616  TRP617  ASP618  TYR619  PRO620  LYS621  CYS622 
 ASP623  PHE694  ASN695  SER759  ASP760  ASP761  ALA762  ILE779  LEU786  VAL792 
 PHE793  MET794  SER795  GLU796  ALA797  LYS798  CYS799  TRP800  GLU811  SER814 

> <Gold.Protein.RotatedAtoms>
  152.5312  134.2977  159.9066 H   0  0  0  0  0  0  0  0  0  0  0  0  # atno 6907 bound_to 6896
  151.2928  133.4151  159.2642 H   0  0  0  0  0  0  0  0  0  0  0  0  # atno 6908 bound_to 6896
  151.0186  134.9467  159.8104 H   0  0  0  0  0  0  0  0  0  0  0  0  # atno 6909 bound_to 6896
  144.8810  140.6507  143.5206 H   0  0  0  0  0  0  0  0  0  0  0  0  # atno 7974 bound_to 7965
  155.9063  140.3430  155.6064 H   0  0  0  0  0  0  0  0  0  0  0  0  # atno 8008 bound_to 7997
  155.7440  140.0811  157.2251 H   0  0  0  0  0  0  0  0  0  0  0  0  # atno 8009 bound_to 7997
  154.4050  140.1565  156.2636 H   0  0  0  0  0  0  0  0  0  0  0  0  # atno 8010 bound_to 7997
  140.0123  144.5604  150.7648 H   0  0  0  0  0  0  0  0  0  0  0  0  # atno 10167 bound_to 10162
  156.6858  130.5050  149.5958 H   0  0  0  0  0  0  0  0  0  0  0  0  # atno 10718 bound_to 10713
  154.7437  135.3075  154.8683 H   0  0  0  0  0  0  0  0  0  0  0  0  # atno 10763 bound_to 10752
  153.9490  135.6766  153.4748 H   0  0  0  0  0  0  0  0  0  0  0  0  # atno 10764 bound_to 10752
  153.1034  135.4901  154.8834 H   0  0  0  0  0  0  0  0  0  0  0  0  # atno 10765 bound_to 10752
  140.6932  134.4018  157.5217 H   0  0  0  0  0  0  0  0  0  0  0  0  # atno 11005 bound_to 11000
  145.3954  139.1608  143.4206 LP  0  0  0  0  0  0  0  0  0  0  0  0  # atno 17320 bound_to 7965
  146.2994  140.4047  142.8709 LP  0  0  0  0  0  0  0  0  0  0  0  0  # atno 17321 bound_to 7965
  140.7376  143.2768  151.3719 LP  0  0  0  0  0  0  0  0  0  0  0  0  # atno 17342 bound_to 10162
  139.6196  144.0933  152.2379 LP  0  0  0  0  0  0  0  0  0  0  0  0  # atno 17343 bound_to 10162
  156.1834  130.6513  151.0978 LP  0  0  0  0  0  0  0  0  0  0  0  0  # atno 17370 bound_to 10713
  157.7027  131.0769  150.6768 LP  0  0  0  0  0  0  0  0  0  0  0  0  # atno 17371 bound_to 10713
  139.8917  134.8772  156.2305 LP  0  0  0  0  0  0  0  0  0  0  0  0  # atno 17394 bound_to 11000
  141.0224  133.7034  156.1290 LP  0  0  0  0  0  0  0  0  0  0  0  0  # atno 17395 bound_to 11000

$$$$
