AV-unprocessed.smi:3204|AV-procd|sdf|12250|dock10
  -GOLD-   2272018 83D 1   1.00000     0.00000
 Structure written by MMmdl.
 30 31  0  0  0  0  0  0  0  0  1 V2000
  151.6181  145.3800  160.2753 C   0  0  0  0  0  0  0  0  0  0  0  0
  152.2844  144.8408  159.0045 C   0  0  0  0  0  0  0  0  0  0  0  0
  152.5355  143.3459  159.0739 C   0  0  0  0  0  0  0  0  0  0  0  0
  153.4139  142.9200  160.0091 N   0  0  0  0  0  0  0  0  0  0  0  0
  153.6333  141.6044  160.0730 C   0  0  0  0  0  0  0  0  0  0  0  0
  153.0722  140.6628  159.3099 N   0  0  0  0  0  0  0  0  0  0  0  0
  152.1854  141.0726  158.3714 C   0  0  0  0  0  0  0  0  0  0  0  0
  151.5677  140.1259  157.5416 N   0  0  0  0  0  0  0  0  0  0  0  0
  151.6739  140.1979  156.0885 C   0  0  2  0  0  0  0  0  0  0  0  0
  150.2946  140.3107  155.4370 C   0  0  0  0  0  0  0  0  0  0  0  0
  150.4806  139.7328  154.1579 O   0  0  0  0  0  0  0  0  0  0  0  0
  151.2660  138.5655  154.3427 C   0  0  0  0  0  0  0  0  0  0  0  0
  152.2553  138.9281  155.4578 C   0  0  1  0  0  0  0  0  0  0  0  0
  153.5221  139.1934  154.8910 O   0  0  0  0  0  0  0  0  0  0  0  0
  151.8762  142.4408  158.2130 C   0  0  0  0  0  0  0  0  0  0  0  0
  150.9873  142.8636  157.2810 F   0  0  0  0  0  0  0  0  0  0  0  0
  151.4477  146.4539  160.1983 H   0  0  0  0  0  0  0  0  0  0  0  0
  152.2410  145.2038  161.1528 H   0  0  0  0  0  0  0  0  0  0  0  0
  150.6536  144.9009  160.4461 H   0  0  0  0  0  0  0  0  0  0  0  0
  151.6642  145.0676  158.1369 H   0  0  0  0  0  0  0  0  0  0  0  0
  153.2337  145.3530  158.8413 H   0  0  0  0  0  0  0  0  0  0  0  0
  154.3370  141.2663  160.8190 H   0  0  0  0  0  0  0  0  0  0  0  0
  151.0986  139.3338  157.9566 H   0  0  0  0  0  0  0  0  0  0  0  0
  152.2613  141.0709  155.7985 H   0  0  0  0  0  0  0  0  0  0  0  0
  149.5450  139.7307  155.9791 H   0  0  0  0  0  0  0  0  0  0  0  0
  149.9452  141.3412  155.3681 H   0  0  0  0  0  0  0  0  0  0  0  0
  150.6120  137.7557  154.6698 H   0  0  0  0  0  0  0  0  0  0  0  0
  151.7448  138.2522  153.4141 H   0  0  0  0  0  0  0  0  0  0  0  0
  152.3462  138.1056  156.1688 H   0  0  0  0  0  0  0  0  0  0  0  0
  153.6126  138.6696  154.1093 H   0  0  0  0  0  0  0  0  0  0  0  0
  1  2  1  0  0  0  0
  1 17  1  0  0  0  0
  1 18  1  0  0  0  0
  1 19  1  0  0  0  0
  2  3  1  0  0  0  0
  2 20  1  0  0  0  0
  2 21  1  0  0  0  0
  3 15  1  0  0  0  0
  3  4  2  0  0  0  0
  4  5  1  0  0  0  0
  5  6  2  0  0  0  0
  5 22  1  0  0  0  0
  6  7  1  0  0  0  0
  7  8  1  0  0  0  0
  7 15  2  0  0  0  0
  8  9  1  0  0  0  0
  8 23  1  0  0  0  0
  9 13  1  0  0  0  0
  9 10  1  0  0  0  0
  9 24  1  0  0  0  0
 10 11  1  0  0  0  0
 10 25  1  0  0  0  0
 10 26  1  0  0  0  0
 11 12  1  0  0  0  0
 12 13  1  0  0  0  0
 12 27  1  0  0  0  0
 12 28  1  0  0  0  0
 13 14  1  0  0  0  0
 13 29  1  0  0  0  0
 14 30  1  0  0  0  0
 15 16  1  0  0  0  0
M  END
> <s_m_source_file>
AV-unprocessed.smi

> <i_m_source_file_index>
3204

> <i_lp_mmshare_version>
43012

> <i_f3d_flags>
0

> <s_epik_input>
W0NIM11bQ0gyXWMxbltjSF1uYyhjMUYpW05IXVtDQEBIXTJbQ0gyXU9bQ0gyXVtDQEhdMltPSF0=

> <s_epik_cmdline>
J2VwaWtfcHl0aG9uJywgJy1waCcsICc3LjAnLCAnLXRuJywgJzgnLCAnLW1hJywgJzIwMCcsICctbWV0YWxfYmluZGluZycsICctaW1hZScsICc8aW5maWxlLm1hZT4nLCAnLW9tYWUnLCAnPG91dGZpbGUubWFlPic=

> <r_lp_tautomer_probability>
1

> <r_epik_Ionization_Penalty>
0.000484964

> <r_epik_Ionization_Penalty_Charging>
0

> <r_epik_Ionization_Penalty_Neutral>
0.000484964

> <r_epik_State_Penalty>
-0

> <r_epik_Charging_Adjusted_Penalty>
0

> <i_epik_Tot_Q>
0

> <i_epik_Tot_abs_Q>
0

> <r_epik_Metal_State_Penalty>
-0

> <b_epik_Metal_Only>
0

> <s_lp_Force_Field>
OPLS_2005

> <r_lp_Energy>
13.6654

> <b_lp_Chiralities_Consistent>
1

> <s_lp_Variant>
AV-unprocessed.smi:3204-1

> <Gold.Version>
5.8.1

> <Gold.Id.Protein>
6NUR|6NUR_protein|mol2

> <Gold.PLP.Fitness>
43.7986

> <Gold.PLP.PLP>
-38.9210

> <Gold.PLP.part.hbond>
-2.0000

> <Gold.PLP.part.metal>
0.0000

> <Gold.PLP.part.buried>
-6.1464

> <Gold.PLP.part.nonpolar>
-31.9492

> <Gold.PLP.part.repulsive>
0.3760

> <Gold.PLP.ligand.clash>
0.0035

> <Gold.PLP.ligand.torsion>
0.5645

> <Gold.PLP.Chemscore.Hbond>
2.0000

> <Gold.PLP.Chemscore.CHOScore>
0.0000

> <Gold.PLP.Chemscore.Metal>
0.0000

> <Gold.Chemscore.Hbonds>
donor molecule, donor type, donor heavy atom, donor atom, acceptor molecule, acceptor atom, score
      P1  H  7989  7998       L1    11  1.00
      P1  H  7997  8010       L1    14  1.00

> <Gold.PLP.Chemscore.Internal.Correction>
0.0100

> <Gold.Rescore>
     Score         DG    S(hbond)    S(metal)    S(lipo)     H(rot)  DE(clash)    DE(int)     intcor
     13.41     -14.11       1.29        0.00      77.20       1.83       0.07       0.63       ----

> <Gold.Chemscore.Fitness>
13.4144

> <Gold.Chemscore.DG>
-14.1139

> <Gold.Chemscore.ZeroCoef>
-5.4800

> <Gold.Chemscore.Hbond>
1.2862

> <Gold.Chemscore.Metal>
0.0000

> <Gold.Chemscore.Lipo>
77.1980

> <Gold.Chemscore.Internal_Hbond>
0.0000

> <Gold.Chemscore.DEClash>
0.0697

> <Gold.Chemscore.DEInternal>
0.6299

> <Gold.Chemscore.Rot>
1.8337

> <Gold.Chemscore.Internal.Correction>
   9.000000E+99

> <Gold.Chemscore.Hbonds>
donor molecule, donor type, donor heavy atom, donor atom, acceptor molecule, acceptor atom, score
      P1  H  7989  7998       L1    11  0.10
      P1  H  7997  8010       L1    14  0.85

> <Gold.Chemscore.Hbond.Weighted>
-4.2960

> <Gold.Chemscore.Metal.Weighted>
-0.0000

> <Gold.Chemscore.Lipo.Weighted>
-9.0322

> <Gold.Chemscore.Internal_Hbond.Weighted>
0.0000

> <Gold.Chemscore.DEClash.Weighted>
0.0697

> <Gold.Chemscore.DEInternal.Weighted>
0.6299

> <Gold.Chemscore.Rot.Weighted>
4.6942

> <Gold.Chemscore.Internal.Correction.Weighted>
   9.000000E+99

> <Gold.Protein.RotatedTorsions>
[ 6907 6896 6895 6894 ] final   -3.44 input  -60.11 | X-H torsion
[ 7974 7965 7964 7962 ] final -118.38 input  175.53 | X-H torsion
[ 8008 7997 7996 7995 ] final  105.46 input   59.86 | X-H torsion
[ 10167 10162 10161 10158 ] final  -37.86 input  -65.29 | X-H torsion
[ 10718 10713 10712 10709 ] final -111.47 input   66.30 | X-H torsion
[ 10763 10752 10751 10750 ] final -176.02 input  -60.55 | X-H torsion
[ 11005 11000 10999 10996 ] final -146.08 input  -57.11 | X-H torsion

> <Gold.Protein.ActiveResidues>
 VAL166  LYS551  ARG553  GLY616  TRP617  ASP618  TYR619  PRO620  LYS621  CYS622 
 ASP623  PHE694  ASN695  SER759  ASP760  ASP761  ALA762  ILE779  LEU786  VAL792 
 PHE793  MET794  SER795  GLU796  ALA797  LYS798  CYS799  TRP800  GLU811  SER814 

> <Gold.Protein.RotatedAtoms>
  151.5137  135.1065  159.9860 H   0  0  0  0  0  0  0  0  0  0  0  0  # atno 6907 bound_to 6896
  152.4650  133.7900  159.6907 H   0  0  0  0  0  0  0  0  0  0  0  0  # atno 6908 bound_to 6896
  150.8630  133.7552  159.3011 H   0  0  0  0  0  0  0  0  0  0  0  0  # atno 6909 bound_to 6896
  145.0745  140.8382  143.4076 H   0  0  0  0  0  0  0  0  0  0  0  0  # atno 7974 bound_to 7965
  156.1661  140.3130  155.8891 H   0  0  0  0  0  0  0  0  0  0  0  0  # atno 8008 bound_to 7997
  155.3683  140.0480  157.3063 H   0  0  0  0  0  0  0  0  0  0  0  0  # atno 8009 bound_to 7997
  154.5194  140.2193  155.9016 H   0  0  0  0  0  0  0  0  0  0  0  0  # atno 8010 bound_to 7997
  140.7107  143.3314  151.2560 H   0  0  0  0  0  0  0  0  0  0  0  0  # atno 10167 bound_to 10162
  156.0649  130.5869  150.8378 H   0  0  0  0  0  0  0  0  0  0  0  0  # atno 10718 bound_to 10713
  154.5774  135.2833  155.0767 H   0  0  0  0  0  0  0  0  0  0  0  0  # atno 10763 bound_to 10752
  154.2117  135.6407  153.5121 H   0  0  0  0  0  0  0  0  0  0  0  0  # atno 10764 bound_to 10752
  153.0077  135.5493  154.6416 H   0  0  0  0  0  0  0  0  0  0  0  0  # atno 10765 bound_to 10752
  140.7856  134.3028  157.5031 H   0  0  0  0  0  0  0  0  0  0  0  0  # atno 11005 bound_to 11000
  145.1253  139.2667  143.5567 LP  0  0  0  0  0  0  0  0  0  0  0  0  # atno 17320 bound_to 7965
  146.3529  140.0888  142.8613 LP  0  0  0  0  0  0  0  0  0  0  0  0  # atno 17321 bound_to 7965
  139.6797  143.9875  152.2801 LP  0  0  0  0  0  0  0  0  0  0  0  0  # atno 17342 bound_to 10162
  139.9501  144.6626  150.8180 LP  0  0  0  0  0  0  0  0  0  0  0  0  # atno 17343 bound_to 10162
  157.5684  131.0946  150.9455 LP  0  0  0  0  0  0  0  0  0  0  0  0  # atno 17370 bound_to 10713
  156.9677  130.5479  149.5289 LP  0  0  0  0  0  0  0  0  0  0  0  0  # atno 17371 bound_to 10713
  139.8737  134.9344  156.3607 LP  0  0  0  0  0  0  0  0  0  0  0  0  # atno 17394 bound_to 11000
  140.9440  133.7496  156.0183 LP  0  0  0  0  0  0  0  0  0  0  0  0  # atno 17395 bound_to 11000

$$$$
