AV-unprocessed.smi:1543|AV-procd|sdf|6205|dock4
  -GOLD-   22720 6373D 1   1.00000     0.00000
 Structure written by MMmdl.
 48 49  0  0  0  0  0  0  0  0  1 V2000
  145.0179  144.4877  152.2951 C   0  0  0  0  0  0  0  0  0  0  0  0
  145.4036  143.8088  153.6138 C   0  0  2  0  0  0  0  0  0  0  0  0
  146.2484  142.5421  153.3856 C   0  0  0  0  0  0  0  0  0  0  0  0
  146.5386  141.8398  154.6389 N   0  0  0  0  0  0  0  0  0  0  0  0
  147.4897  140.6990  154.5174 C   0  0  0  0  0  0  0  0  0  0  0  0
  147.6532  139.9060  155.8361 C   0  0  0  0  0  0  0  0  0  0  0  0
  147.0215  139.6956  153.4328 C   0  0  0  0  0  0  0  0  0  0  0  0
  148.9069  141.1757  154.0842 C   0  0  0  0  0  0  0  0  0  0  0  0
  149.4432  142.2048  154.9752 N   0  0  0  0  0  0  0  0  0  0  0  0
  150.2828  142.0017  155.9996 C   0  0  0  0  0  0  0  0  0  0  0  0
  150.6931  140.8910  156.3347 O   0  0  0  0  0  0  0  0  0  0  0  0
  150.5953  143.1628  156.6002 N   0  0  0  0  0  0  0  0  0  0  0  0
  151.4286  143.3905  157.7296 C   0  0  0  0  0  0  0  0  0  0  0  0
  152.1283  142.3778  158.4304 C   0  0  0  0  0  0  0  0  0  0  0  0
  152.9308  142.7419  159.5292 C   0  0  0  0  0  0  0  0  0  0  0  0
  153.0115  144.1026  159.8823 C   0  0  0  0  0  0  0  0  0  0  0  0
  152.3610  145.0795  159.2164 N   0  0  0  0  0  0  0  0  0  0  0  0
  151.5933  144.7228  158.1647 C   0  0  0  0  0  0  0  0  0  0  0  0
  145.2669  141.5160  155.2953 C   0  0  0  0  0  0  0  0  0  0  0  0
  144.3840  142.7573  155.5254 C   0  0  1  0  0  0  0  0  0  0  0  0
  144.9053  143.6689  156.6497 C   0  0  0  0  0  0  0  0  0  0  0  0
  144.2022  143.4687  154.3013 O   0  0  0  0  0  0  0  0  0  0  0  0
  145.9033  144.7766  151.7283 H   0  0  0  0  0  0  0  0  0  0  0  0
  144.4318  145.3888  152.4776 H   0  0  0  0  0  0  0  0  0  0  0  0
  144.4215  143.8235  151.6693 H   0  0  0  0  0  0  0  0  0  0  0  0
  145.9728  144.5212  154.2118 H   0  0  0  0  0  0  0  0  0  0  0  0
  145.7210  141.8796  152.6988 H   0  0  0  0  0  0  0  0  0  0  0  0
  147.1674  142.8459  152.8882 H   0  0  0  0  0  0  0  0  0  0  0  0
  148.3467  139.0739  155.7084 H   0  0  0  0  0  0  0  0  0  0  0  0
  146.7109  139.4789  156.1787 H   0  0  0  0  0  0  0  0  0  0  0  0
  148.0496  140.5242  156.6413 H   0  0  0  0  0  0  0  0  0  0  0  0
  147.7935  138.9581  153.2098 H   0  0  0  0  0  0  0  0  0  0  0  0
  146.7760  140.1996  152.4971 H   0  0  0  0  0  0  0  0  0  0  0  0
  146.1437  139.1290  153.7426 H   0  0  0  0  0  0  0  0  0  0  0  0
  149.6133  140.3460  154.0670 H   0  0  0  0  0  0  0  0  0  0  0  0
  148.8813  141.5293  153.0520 H   0  0  0  0  0  0  0  0  0  0  0  0
  149.1670  143.1547  154.7743 H   0  0  0  0  0  0  0  0  0  0  0  0
  150.1327  143.9834  156.2369 H   0  0  0  0  0  0  0  0  0  0  0  0
  152.0791  141.3385  158.1469 H   0  0  0  0  0  0  0  0  0  0  0  0
  153.4758  141.9944  160.0868 H   0  0  0  0  0  0  0  0  0  0  0  0
  153.6187  144.4149  160.7190 H   0  0  0  0  0  0  0  0  0  0  0  0
  151.0892  145.5313  157.6554 H   0  0  0  0  0  0  0  0  0  0  0  0
  144.7088  140.8044  154.6865 H   0  0  0  0  0  0  0  0  0  0  0  0
  145.4294  141.0384  156.2595 H   0  0  0  0  0  0  0  0  0  0  0  0
  143.3948  142.4132  155.8278 H   0  0  0  0  0  0  0  0  0  0  0  0
  144.9322  143.1338  157.5993 H   0  0  0  0  0  0  0  0  0  0  0  0
  144.2589  144.5372  156.7780 H   0  0  0  0  0  0  0  0  0  0  0  0
  145.9149  144.0286  156.4522 H   0  0  0  0  0  0  0  0  0  0  0  0
  1  2  1  0  0  0  0
  1 23  1  0  0  0  0
  1 24  1  0  0  0  0
  1 25  1  0  0  0  0
  2 22  1  0  0  0  0
  2  3  1  0  0  0  0
  2 26  1  0  0  0  0
  3  4  1  0  0  0  0
  3 27  1  0  0  0  0
  3 28  1  0  0  0  0
  4  5  1  0  0  0  0
  4 19  1  0  0  0  0
  5  6  1  0  0  0  0
  5  7  1  0  0  0  0
  5  8  1  0  0  0  0
  6 29  1  0  0  0  0
  6 30  1  0  0  0  0
  6 31  1  0  0  0  0
  7 32  1  0  0  0  0
  7 33  1  0  0  0  0
  7 34  1  0  0  0  0
  8  9  1  0  0  0  0
  8 35  1  0  0  0  0
  8 36  1  0  0  0  0
  9 10  1  0  0  0  0
  9 37  1  0  0  0  0
 10 11  2  0  0  0  0
 10 12  1  0  0  0  0
 12 13  1  0  0  0  0
 12 38  1  0  0  0  0
 13 18  1  0  0  0  0
 13 14  2  0  0  0  0
 14 15  1  0  0  0  0
 14 39  1  0  0  0  0
 15 16  2  0  0  0  0
 15 40  1  0  0  0  0
 16 17  1  0  0  0  0
 16 41  1  0  0  0  0
 17 18  2  0  0  0  0
 18 42  1  0  0  0  0
 19 20  1  0  0  0  0
 19 43  1  0  0  0  0
 19 44  1  0  0  0  0
 20 21  1  0  0  0  0
 20 22  1  0  0  0  0
 20 45  1  0  0  0  0
 21 46  1  0  0  0  0
 21 47  1  0  0  0  0
 21 48  1  0  0  0  0
M  END
> <s_m_source_file>
AV-unprocessed.smi

> <i_m_source_file_index>
1543

> <i_lp_mmshare_version>
43012

> <i_f3d_flags>
0

> <s_epik_input>
W0NIM11bQ0BASF0xW0NIMl1OKFtDSDJdW0NASF0oTzEpW0NIM10pQyhbQ0gzXSkoW0NIM10pW0NIMl1bTkhdQyg9TylbTkhdYzJbY0hdW2NIXVtjSF1uW2NIXTI=

> <s_epik_cmdline>
J2VwaWtfcHl0aG9uJywgJy1waCcsICc3LjAnLCAnLXRuJywgJzgnLCAnLW1hJywgJzIwMCcsICctbWV0YWxfYmluZGluZycsICctaW1hZScsICc8aW5maWxlLm1hZT4nLCAnLW9tYWUnLCAnPG91dGZpbGUubWFlPic=

> <r_epik_Ionization_Penalty>
0.270794

> <r_epik_Ionization_Penalty_Charging>
0

> <r_epik_Ionization_Penalty_Neutral>
0.270794

> <r_epik_State_Penalty>
0.268291

> <r_epik_Charging_Adjusted_Penalty>
0.268291

> <i_epik_Tot_Q>
0

> <i_epik_Tot_abs_Q>
0

> <r_epik_Metal_State_Penalty>
0.264827

> <b_epik_Metal_Only>
0

> <s_lp_Force_Field>
OPLS_2005

> <r_lp_Energy>
46.6988

> <b_lp_Chiralities_Consistent>
1

> <s_lp_Variant>
AV-unprocessed.smi:1543-1

> <Gold.Version>
5.8.1

> <Gold.Id.Protein>
6NUR|6NUR_protein|mol2

> <Gold.PLP.Fitness>
47.4206

> <Gold.PLP.PLP>
-42.0430

> <Gold.PLP.part.hbond>
-2.0000

> <Gold.PLP.part.metal>
0.0000

> <Gold.PLP.part.buried>
-7.1204

> <Gold.PLP.part.nonpolar>
-32.8785

> <Gold.PLP.part.repulsive>
0.7724

> <Gold.PLP.ligand.clash>
0.0000

> <Gold.PLP.ligand.torsion>
0.3418

> <Gold.PLP.Chemscore.Hbond>
2.0000

> <Gold.PLP.Chemscore.CHOScore>
0.0000

> <Gold.PLP.Chemscore.Metal>
0.0000

> <Gold.Chemscore.Hbonds>
donor molecule, donor type, donor heavy atom, donor atom, acceptor molecule, acceptor atom, score
      L1  H     9    37       P1  8028  0.82
      L1  H    12    38       P1  8028  1.00

> <Gold.PLP.Chemscore.Internal.Correction>
0.0612

> <Gold.Rescore>
     Score         DG    S(hbond)    S(metal)    S(lipo)     H(rot)  DE(clash)    DE(int)     intcor
     19.25     -20.90       1.98        0.00     106.65       1.43       0.16       1.49       ----

> <Gold.Chemscore.Fitness>
19.2497

> <Gold.Chemscore.DG>
-20.8960

> <Gold.Chemscore.ZeroCoef>
-5.4800

> <Gold.Chemscore.Hbond>
1.9750

> <Gold.Chemscore.Metal>
0.0000

> <Gold.Chemscore.Lipo>
106.6495

> <Gold.Chemscore.Internal_Hbond>
0.0000

> <Gold.Chemscore.DEClash>
0.1585

> <Gold.Chemscore.DEInternal>
1.4878

> <Gold.Chemscore.Rot>
1.4291

> <Gold.Chemscore.Internal.Correction>
   9.000000E+99

> <Gold.Chemscore.Hbonds>
donor molecule, donor type, donor heavy atom, donor atom, acceptor molecule, acceptor atom, score
      L1  H     9    37       P1  8028  0.80
      L1  H    12    38       P1  8028  0.92

> <Gold.Chemscore.Hbond.Weighted>
-6.5966

> <Gold.Chemscore.Metal.Weighted>
-0.0000

> <Gold.Chemscore.Lipo.Weighted>
-12.4780

> <Gold.Chemscore.Internal_Hbond.Weighted>
0.0000

> <Gold.Chemscore.DEClash.Weighted>
0.1585

> <Gold.Chemscore.DEInternal.Weighted>
1.4878

> <Gold.Chemscore.Rot.Weighted>
3.6586

> <Gold.Chemscore.Internal.Correction.Weighted>
   9.000000E+99

> <Gold.Protein.RotatedTorsions>
[ 6907 6896 6895 6894 ] final -130.04 input  -60.11 | X-H torsion
[ 7974 7965 7964 7962 ] final  172.06 input  175.53 | X-H torsion
[ 8008 7997 7996 7995 ] final -153.67 input   59.86 | X-H torsion
[ 10167 10162 10161 10158 ] final -157.57 input  -65.29 | X-H torsion
[ 10718 10713 10712 10709 ] final  -50.58 input   66.30 | X-H torsion
[ 10763 10752 10751 10750 ] final   73.81 input  -60.55 | X-H torsion
[ 11005 11000 10999 10996 ] final -162.71 input  -57.11 | X-H torsion

> <Gold.Protein.ActiveResidues>
 VAL166  LYS551  ARG553  GLY616  TRP617  ASP618  TYR619  PRO620  LYS621  CYS622 
 ASP623  PHE694  ASN695  SER759  ASP760  ASP761  ALA762  ILE779  LEU786  VAL792 
 PHE793  MET794  SER795  GLU796  ALA797  LYS798  CYS799  TRP800  GLU811  SER814 

> <Gold.Protein.RotatedAtoms>
  150.9353  133.6719  159.2801 H   0  0  0  0  0  0  0  0  0  0  0  0  # atno 6907 bound_to 6896
  151.4127  135.0986  159.9599 H   0  0  0  0  0  0  0  0  0  0  0  0  # atno 6908 bound_to 6896
  152.5045  133.8823  159.7407 H   0  0  0  0  0  0  0  0  0  0  0  0  # atno 6909 bound_to 6896
  144.7278  139.9442  143.6429 H   0  0  0  0  0  0  0  0  0  0  0  0  # atno 7974 bound_to 7965
  155.6744  140.0737  157.2508 H   0  0  0  0  0  0  0  0  0  0  0  0  # atno 8008 bound_to 7997
  154.4117  140.1693  156.1965 H   0  0  0  0  0  0  0  0  0  0  0  0  # atno 8009 bound_to 7997
  155.9589  140.3371  155.6476 H   0  0  0  0  0  0  0  0  0  0  0  0  # atno 8010 bound_to 7997
  139.6760  143.9662  152.2311 H   0  0  0  0  0  0  0  0  0  0  0  0  # atno 10167 bound_to 10162
  156.1788  130.4150  149.9538 H   0  0  0  0  0  0  0  0  0  0  0  0  # atno 10718 bound_to 10713
  153.0546  135.5049  154.7949 H   0  0  0  0  0  0  0  0  0  0  0  0  # atno 10763 bound_to 10752
  154.6785  135.2964  154.9647 H   0  0  0  0  0  0  0  0  0  0  0  0  # atno 10764 bound_to 10752
  154.0441  135.6713  153.4846 H   0  0  0  0  0  0  0  0  0  0  0  0  # atno 10765 bound_to 10752
  140.6062  134.4897  157.5210 H   0  0  0  0  0  0  0  0  0  0  0  0  # atno 11005 bound_to 11000
  146.0761  139.3749  143.0493 LP  0  0  0  0  0  0  0  0  0  0  0  0  # atno 17320 bound_to 7965
  145.7903  140.9817  143.1052 LP  0  0  0  0  0  0  0  0  0  0  0  0  # atno 17321 bound_to 7965
  139.9440  144.6663  150.8238 LP  0  0  0  0  0  0  0  0  0  0  0  0  # atno 17342 bound_to 10162
  140.7635  143.3226  151.2588 LP  0  0  0  0  0  0  0  0  0  0  0  0  # atno 17343 bound_to 10162
  156.7315  130.9045  151.3626 LP  0  0  0  0  0  0  0  0  0  0  0  0  # atno 17370 bound_to 10713
  157.6854  130.9180  150.0372 LP  0  0  0  0  0  0  0  0  0  0  0  0  # atno 17371 bound_to 10713
  139.9211  134.8146  156.1208 LP  0  0  0  0  0  0  0  0  0  0  0  0  # atno 17394 bound_to 11000
  141.0839  133.6742  156.2395 LP  0  0  0  0  0  0  0  0  0  0  0  0  # atno 17395 bound_to 11000

$$$$
