AV-unprocessed.smi:2274|AV-procd|sdf|9168|dock1
  -GOLD-   2272012383D 1   1.00000     0.00000
 Structure written by MMmdl.
 47 48  0  0  0  0  0  0  0  0  1 V2000
  146.7586  128.8821  151.6279 C   0  0  0  0  0  0  0  0  0  0  0  0
  146.3001  129.9159  152.6632 C   0  0  0  0  0  0  0  0  0  0  0  0
  147.3893  130.7889  153.0651 N   0  0  0  0  0  0  0  0  0  0  0  0
  148.4806  130.2436  153.6540 N   0  0  0  0  0  0  0  0  0  0  0  0
  149.2942  131.2576  153.9086 C   0  0  0  0  0  0  0  0  0  0  0  0
  150.5834  130.9888  154.6341 C   0  0  0  0  0  0  0  0  0  0  0  0
  148.7266  132.4792  153.4373 C   0  0  0  0  0  0  0  0  0  0  0  0
  149.2399  133.7966  153.5327 N   0  0  0  0  0  0  0  0  0  0  0  0
  149.9968  134.2920  154.5234 C   0  0  0  0  0  0  0  0  0  0  0  0
  150.3907  133.6494  155.4966 O   0  0  0  0  0  0  0  0  0  0  0  0
  150.2948  135.5820  154.3144 N   0  0  0  0  0  0  0  0  0  0  0  0
  151.0984  136.4095  155.2065 C   0  0  0  0  0  0  0  0  0  0  0  0
  151.4179  137.7768  154.5765 C   0  0  0  0  0  0  0  0  0  0  0  0
  150.5583  138.9147  155.1488 C   0  0  2  0  0  0  0  0  0  0  0  0
  149.3084  139.1801  154.2866 C   0  0  0  0  0  0  0  0  0  0  0  0
  148.5167  140.3727  154.8348 C   0  0  0  0  0  0  0  0  0  0  0  0
  149.4443  141.5826  154.9860 C   0  0  0  0  0  0  0  0  0  0  0  0
  150.6869  141.2028  155.8063 C   0  0  0  0  0  0  0  0  0  0  0  0
  151.3513  140.0996  155.1976 O   0  0  0  0  0  0  0  0  0  0  0  0
  147.4992  132.1622  152.9313 C   0  0  0  0  0  0  0  0  0  0  0  0
  146.4288  133.0124  152.3256 C   0  0  0  0  0  0  0  0  0  0  0  0
  145.9332  128.2328  151.3365 H   0  0  0  0  0  0  0  0  0  0  0  0
  147.5535  128.2510  152.0270 H   0  0  0  0  0  0  0  0  0  0  0  0
  147.1354  129.3669  150.7268 H   0  0  0  0  0  0  0  0  0  0  0  0
  145.4879  130.5213  152.2597 H   0  0  0  0  0  0  0  0  0  0  0  0
  145.9047  129.4138  153.5476 H   0  0  0  0  0  0  0  0  0  0  0  0
  150.8565  131.8253  155.2776 H   0  0  0  0  0  0  0  0  0  0  0  0
  151.4002  130.8226  153.9317 H   0  0  0  0  0  0  0  0  0  0  0  0
  150.5076  130.1041  155.2675 H   0  0  0  0  0  0  0  0  0  0  0  0
  149.0940  134.3897  152.7292 H   0  0  0  0  0  0  0  0  0  0  0  0
  149.9342  136.0269  153.4830 H   0  0  0  0  0  0  0  0  0  0  0  0
  150.5856  136.5371  156.1615 H   0  0  0  0  0  0  0  0  0  0  0  0
  152.0218  135.8708  155.4203 H   0  0  0  0  0  0  0  0  0  0  0  0
  152.4742  138.0105  154.7163 H   0  0  0  0  0  0  0  0  0  0  0  0
  151.2572  137.7206  153.4989 H   0  0  0  0  0  0  0  0  0  0  0  0
  150.2479  138.6468  156.1605 H   0  0  0  0  0  0  0  0  0  0  0  0
  149.6069  139.3836  153.2574 H   0  0  0  0  0  0  0  0  0  0  0  0
  148.6729  138.2943  154.2583 H   0  0  0  0  0  0  0  0  0  0  0  0
  147.6827  140.6122  154.1744 H   0  0  0  0  0  0  0  0  0  0  0  0
  148.0873  140.1149  155.8037 H   0  0  0  0  0  0  0  0  0  0  0  0
  149.7525  141.9339  154.0006 H   0  0  0  0  0  0  0  0  0  0  0  0
  148.9140  142.4083  155.4615 H   0  0  0  0  0  0  0  0  0  0  0  0
  151.3764  142.0458  155.8535 H   0  0  0  0  0  0  0  0  0  0  0  0
  150.4150  140.9560  156.8338 H   0  0  0  0  0  0  0  0  0  0  0  0
  146.7699  134.0383  152.1879 H   0  0  0  0  0  0  0  0  0  0  0  0
  145.5460  133.0352  152.9647 H   0  0  0  0  0  0  0  0  0  0  0  0
  146.1317  132.6272  151.3500 H   0  0  0  0  0  0  0  0  0  0  0  0
  1  2  1  0  0  0  0
  1 22  1  0  0  0  0
  1 23  1  0  0  0  0
  1 24  1  0  0  0  0
  2  3  1  0  0  0  0
  2 25  1  0  0  0  0
  2 26  1  0  0  0  0
  3 20  1  0  0  0  0
  3  4  1  0  0  0  0
  4  5  2  0  0  0  0
  5  6  1  0  0  0  0
  5  7  1  0  0  0  0
  6 27  1  0  0  0  0
  6 28  1  0  0  0  0
  6 29  1  0  0  0  0
  7  8  1  0  0  0  0
  7 20  2  0  0  0  0
  8  9  1  0  0  0  0
  8 30  1  0  0  0  0
  9 10  2  0  0  0  0
  9 11  1  0  0  0  0
 11 12  1  0  0  0  0
 11 31  1  0  0  0  0
 12 13  1  0  0  0  0
 12 32  1  0  0  0  0
 12 33  1  0  0  0  0
 13 14  1  0  0  0  0
 13 34  1  0  0  0  0
 13 35  1  0  0  0  0
 14 19  1  0  0  0  0
 14 15  1  0  0  0  0
 14 36  1  0  0  0  0
 15 16  1  0  0  0  0
 15 37  1  0  0  0  0
 15 38  1  0  0  0  0
 16 17  1  0  0  0  0
 16 39  1  0  0  0  0
 16 40  1  0  0  0  0
 17 18  1  0  0  0  0
 17 41  1  0  0  0  0
 17 42  1  0  0  0  0
 18 19  1  0  0  0  0
 18 43  1  0  0  0  0
 18 44  1  0  0  0  0
 20 21  1  0  0  0  0
 21 45  1  0  0  0  0
 21 46  1  0  0  0  0
 21 47  1  0  0  0  0
M  END
> <s_m_source_file>
AV-unprocessed.smi

> <i_m_source_file_index>
2274

> <i_lp_mmshare_version>
43012

> <i_f3d_flags>
0

> <s_epik_input>
W0NIM11bQ0gyXW4xbmMoW0NIM10pYyhjMVtDSDNdKVtOSF1DKD1PKVtOSF1bQ0gyXVtDSDJdW0NAQEhdMltDSDJdW0NIMl1bQ0gyXVtDSDJdTzI=

> <s_epik_cmdline>
J2VwaWtfcHl0aG9uJywgJy1waCcsICc3LjAnLCAnLXRuJywgJzgnLCAnLW1hJywgJzIwMCcsICctbWV0YWxfYmluZGluZycsICctaW1hZScsICc8aW5maWxlLm1hZT4nLCAnLW9tYWUnLCAnPG91dGZpbGUubWFlPic=

> <r_lp_tautomer_probability>
1

> <r_epik_Ionization_Penalty>
0.00368263

> <r_epik_Ionization_Penalty_Charging>
0

> <r_epik_Ionization_Penalty_Neutral>
0.00368263

> <r_epik_State_Penalty>
0.00259417

> <r_epik_Charging_Adjusted_Penalty>
0.00259417

> <i_epik_Tot_Q>
0

> <i_epik_Tot_abs_Q>
0

> <r_epik_Metal_State_Penalty>
-0

> <b_epik_Metal_Only>
0

> <s_lp_Force_Field>
OPLS_2005

> <r_lp_Energy>
11.6854

> <b_lp_Chiralities_Consistent>
1

> <s_lp_Variant>
AV-unprocessed.smi:2274-1

> <Gold.Version>
5.8.1

> <Gold.Id.Protein>
6NUR|6NUR_protein|mol2

> <Gold.PLP.Fitness>
45.7210

> <Gold.PLP.PLP>
-41.1836

> <Gold.PLP.part.hbond>
-3.9188

> <Gold.PLP.part.metal>
0.0000

> <Gold.PLP.part.buried>
-1.8672

> <Gold.PLP.part.nonpolar>
-34.8365

> <Gold.PLP.part.repulsive>
0.2067

> <Gold.PLP.ligand.clash>
0.0000

> <Gold.PLP.ligand.torsion>
1.0513

> <Gold.PLP.Chemscore.Hbond>
2.0480

> <Gold.PLP.Chemscore.CHOScore>
0.0000

> <Gold.PLP.Chemscore.Metal>
0.0000

> <Gold.Chemscore.Hbonds>
donor molecule, donor type, donor heavy atom, donor atom, acceptor molecule, acceptor atom, score
      L1  H     8    30       P1  7948  0.15
      L1  H    11    31       P1  7948  0.60
      P1  H  7989  7998       L1    19  0.90

> <Gold.PLP.Chemscore.Internal.Correction>
0.4961

> <Gold.Rescore>
     Score         DG    S(hbond)    S(metal)    S(lipo)     H(rot)  DE(clash)    DE(int)     intcor
     12.54     -15.40       1.19        0.00      82.85       1.46       0.04       2.82       ----

> <Gold.Chemscore.Fitness>
12.5402

> <Gold.Chemscore.DG>
-15.3970

> <Gold.Chemscore.ZeroCoef>
-5.4800

> <Gold.Chemscore.Hbond>
1.1863

> <Gold.Chemscore.Metal>
0.0000

> <Gold.Chemscore.Lipo>
82.8542

> <Gold.Chemscore.Internal_Hbond>
0.0000

> <Gold.Chemscore.DEClash>
0.0402

> <Gold.Chemscore.DEInternal>
2.8165

> <Gold.Chemscore.Rot>
1.4606

> <Gold.Chemscore.Internal.Correction>
   9.000000E+99

> <Gold.Chemscore.Hbonds>
donor molecule, donor type, donor heavy atom, donor atom, acceptor molecule, acceptor atom, score
      L1  H    11    31       P1  7948  0.04
      P1  H  7989  7998       L1    19  0.15

> <Gold.Chemscore.Hbond.Weighted>
-3.9623

> <Gold.Chemscore.Metal.Weighted>
-0.0000

> <Gold.Chemscore.Lipo.Weighted>
-9.6939

> <Gold.Chemscore.Internal_Hbond.Weighted>
0.0000

> <Gold.Chemscore.DEClash.Weighted>
0.0402

> <Gold.Chemscore.DEInternal.Weighted>
2.8165

> <Gold.Chemscore.Rot.Weighted>
3.7393

> <Gold.Chemscore.Internal.Correction.Weighted>
   9.000000E+99

> <Gold.Protein.RotatedTorsions>
[ 6907 6896 6895 6894 ] final  172.65 input  -60.11 | X-H torsion
[ 7974 7965 7964 7962 ] final   11.40 input  175.53 | X-H torsion
[ 8008 7997 7996 7995 ] final  -49.95 input   59.86 | X-H torsion
[ 10167 10162 10161 10158 ] final  -59.97 input  -65.29 | X-H torsion
[ 10718 10713 10712 10709 ] final -128.75 input   66.30 | X-H torsion
[ 10763 10752 10751 10750 ] final   87.36 input  -60.55 | X-H torsion
[ 11005 11000 10999 10996 ] final  -42.28 input  -57.11 | X-H torsion

> <Gold.Protein.ActiveResidues>
 VAL166  LYS551  ARG553  GLY616  TRP617  ASP618  TYR619  PRO620  LYS621  CYS622 
 ASP623  PHE694  ASN695  SER759  ASP760  ASP761  ALA762  ILE779  LEU786  VAL792 
 PHE793  MET794  SER795  GLU796  ALA797  LYS798  CYS799  TRP800  GLU811  SER814 

> <Gold.Protein.RotatedAtoms>
  151.7809  133.3349  159.3470 H   0  0  0  0  0  0  0  0  0  0  0  0  # atno 6907 bound_to 6896
  150.7427  134.5932  159.6007 H   0  0  0  0  0  0  0  0  0  0  0  0  # atno 6908 bound_to 6896
  152.3277  134.7301  160.0349 H   0  0  0  0  0  0  0  0  0  0  0  0  # atno 6909 bound_to 6896
  146.2371  139.9491  142.8473 H   0  0  0  0  0  0  0  0  0  0  0  0  # atno 7974 bound_to 7965
  154.4053  140.1284  156.4586 H   0  0  0  0  0  0  0  0  0  0  0  0  # atno 8008 bound_to 7997
  155.7295  140.3491  155.5033 H   0  0  0  0  0  0  0  0  0  0  0  0  # atno 8009 bound_to 7997
  155.9140  140.1041  157.1248 H   0  0  0  0  0  0  0  0  0  0  0  0  # atno 8010 bound_to 7997
  140.6101  143.2384  151.5729 H   0  0  0  0  0  0  0  0  0  0  0  0  # atno 10167 bound_to 10162
  156.1981  130.6839  151.0505 H   0  0  0  0  0  0  0  0  0  0  0  0  # atno 10718 bound_to 10713
  153.1661  135.4546  154.9839 H   0  0  0  0  0  0  0  0  0  0  0  0  # atno 10763 bound_to 10752
  154.7933  135.3228  154.7729 H   0  0  0  0  0  0  0  0  0  0  0  0  # atno 10764 bound_to 10752
  153.8212  135.6946  153.4881 H   0  0  0  0  0  0  0  0  0  0  0  0  # atno 10765 bound_to 10752
  141.0304  133.6822  156.2572 H   0  0  0  0  0  0  0  0  0  0  0  0  # atno 11005 bound_to 11000
  145.1879  140.9798  143.4228 LP  0  0  0  0  0  0  0  0  0  0  0  0  # atno 17320 bound_to 7965
  144.9884  139.3714  143.6227 LP  0  0  0  0  0  0  0  0  0  0  0  0  # atno 17321 bound_to 7965
  139.5354  144.2795  152.1241 LP  0  0  0  0  0  0  0  0  0  0  0  0  # atno 17342 bound_to 10162
  140.1992  144.4675  150.6440 LP  0  0  0  0  0  0  0  0  0  0  0  0  # atno 17343 bound_to 10162
  157.6969  131.0790  150.6940 LP  0  0  0  0  0  0  0  0  0  0  0  0  # atno 17370 bound_to 10713
  156.6997  130.4620  149.5576 LP  0  0  0  0  0  0  0  0  0  0  0  0  # atno 17371 bound_to 10713
  140.6416  134.5160  157.5570 LP  0  0  0  0  0  0  0  0  0  0  0  0  # atno 17394 bound_to 11000
  139.9204  134.8160  156.1229 LP  0  0  0  0  0  0  0  0  0  0  0  0  # atno 17395 bound_to 11000

$$$$
