AV-unprocessed.smi:2520|AV-procd|sdf|9910|dock5
  -GOLD-   2272013543D 1   1.00000     0.00000
 Structure written by MMmdl.
 41 44  0  0  0  0  0  0  0  0  1 V2000
  150.4843  136.2756  158.9967 O   0  0  0  0  0  0  0  0  0  0  0  0
  149.6684  137.1924  159.0761 C   0  0  0  0  0  0  0  0  0  0  0  0
  148.5295  137.0524  159.7870 N   0  0  0  0  0  0  0  0  0  0  0  0
  148.0225  135.9555  160.5431 C   0  0  0  0  0  0  0  0  0  0  0  0
  147.3832  136.3139  161.7493 C   0  0  0  0  0  0  0  0  0  0  0  0
  146.8455  135.2929  162.5514 C   0  0  0  0  0  0  0  0  0  0  0  0
  146.9815  133.9728  162.0897 C   0  0  0  0  0  0  0  0  0  0  0  0
  147.5971  133.6730  160.9259 N   0  0  0  0  0  0  0  0  0  0  0  0
  148.1049  134.6509  160.1684 N   0  0  0  0  0  0  0  0  0  0  0  0
  149.8475  138.3767  158.4703 N   0  0  0  0  0  0  0  0  0  0  0  0
  151.0223  138.7449  157.6902 C   0  0  1  0  0  0  0  0  0  0  0  0
  150.7115  138.8708  156.1898 C   0  0  2  0  0  0  0  0  0  0  0  0
  151.3357  137.9126  155.2128 C   0  0  0  0  0  0  0  0  0  0  0  0
  152.5734  138.6748  154.7309 C   0  0  0  0  0  0  0  0  0  0  0  0
  152.8295  139.6319  155.7565 O   0  0  0  0  0  0  0  0  0  0  0  0
  151.5698  140.1272  156.2040 C   0  0  2  0  0  0  0  0  0  0  0  0
  151.3706  140.2516  157.7293 C   0  0  0  0  0  0  0  0  0  0  0  0
  152.5688  140.7049  158.5591 C   0  0  0  0  0  0  0  0  0  0  0  0
  152.4791  142.2290  158.6998 C   0  0  0  0  0  0  0  0  0  0  0  0
  151.0351  142.5986  158.3459 C   0  0  0  0  0  0  0  0  0  0  0  0
  150.3094  141.2648  158.1682 C   0  0  0  0  0  0  0  0  0  0  0  0
  147.9077  137.8463  159.7379 H   0  0  0  0  0  0  0  0  0  0  0  0
  147.3060  137.3470  162.0559 H   0  0  0  0  0  0  0  0  0  0  0  0
  146.3479  135.5128  163.4842 H   0  0  0  0  0  0  0  0  0  0  0  0
  146.5903  133.1439  162.6606 H   0  0  0  0  0  0  0  0  0  0  0  0
  149.1298  139.0793  158.5791 H   0  0  0  0  0  0  0  0  0  0  0  0
  151.8963  138.1155  157.8742 H   0  0  0  0  0  0  0  0  0  0  0  0
  149.6629  139.1045  155.9951 H   0  0  0  0  0  0  0  0  0  0  0  0
  151.6196  136.9828  155.7068 H   0  0  0  0  0  0  0  0  0  0  0  0
  150.6706  137.6640  154.3853 H   0  0  0  0  0  0  0  0  0  0  0  0
  153.4316  138.0232  154.5663 H   0  0  0  0  0  0  0  0  0  0  0  0
  152.3603  139.2021  153.8001 H   0  0  0  0  0  0  0  0  0  0  0  0
  151.1782  140.9439  155.5956 H   0  0  0  0  0  0  0  0  0  0  0  0
  152.5239  140.2481  159.5486 H   0  0  0  0  0  0  0  0  0  0  0  0
  153.5210  140.4031  158.1225 H   0  0  0  0  0  0  0  0  0  0  0  0
  152.7390  142.5432  159.7111 H   0  0  0  0  0  0  0  0  0  0  0  0
  153.1704  142.7207  158.0146 H   0  0  0  0  0  0  0  0  0  0  0  0
  150.5656  143.2211  159.1083 H   0  0  0  0  0  0  0  0  0  0  0  0
  151.0188  143.1560  157.4085 H   0  0  0  0  0  0  0  0  0  0  0  0
  149.4861  141.3477  157.4578 H   0  0  0  0  0  0  0  0  0  0  0  0
  149.8741  140.9758  159.1255 H   0  0  0  0  0  0  0  0  0  0  0  0
  1  2  2  0  0  0  0
  2  3  1  0  0  0  0
  2 10  1  0  0  0  0
  3  4  1  0  0  0  0
  3 22  1  0  0  0  0
  4  9  1  0  0  0  0
  4  5  2  0  0  0  0
  5  6  1  0  0  0  0
  5 23  1  0  0  0  0
  6  7  2  0  0  0  0
  6 24  1  0  0  0  0
  7  8  1  0  0  0  0
  7 25  1  0  0  0  0
  8  9  2  0  0  0  0
 10 11  1  0  0  0  0
 10 26  1  0  0  0  0
 11 17  1  0  0  0  0
 11 12  1  0  0  0  0
 11 27  1  0  0  0  0
 12 16  1  0  0  0  0
 12 13  1  0  0  0  0
 12 28  1  0  0  0  0
 13 14  1  0  0  0  0
 13 29  1  0  0  0  0
 13 30  1  0  0  0  0
 14 15  1  0  0  0  0
 14 31  1  0  0  0  0
 14 32  1  0  0  0  0
 15 16  1  0  0  0  0
 16 17  1  0  0  0  0
 16 33  1  0  0  0  0
 17 21  1  0  0  0  0
 17 18  1  0  0  0  0
 18 19  1  0  0  0  0
 18 34  1  0  0  0  0
 18 35  1  0  0  0  0
 19 20  1  0  0  0  0
 19 36  1  0  0  0  0
 19 37  1  0  0  0  0
 20 21  1  0  0  0  0
 20 38  1  0  0  0  0
 20 39  1  0  0  0  0
 21 40  1  0  0  0  0
 21 41  1  0  0  0  0
M  END
> <s_m_source_file>
AV-unprocessed.smi

> <i_m_source_file_index>
2520

> <i_lp_mmshare_version>
43012

> <i_f3d_flags>
0

> <s_epik_input>
bjFuW2NIXVtjSF1bY0hdYzFbTkhdQyg9TylbTkhdW0NAQEhdMltDQEBIXShbQ0gyXVtDSDJdTzMpW0NASF0zQzI0W0NIMl1bQ0gyXVtDSDJdW0NIMl00

> <s_epik_cmdline>
J2VwaWtfcHl0aG9uJywgJy1waCcsICc3LjAnLCAnLXRuJywgJzgnLCAnLW1hJywgJzIwMCcsICctbWV0YWxfYmluZGluZycsICctaW1hZScsICc8aW5maWxlLm1hZT4nLCAnLW9tYWUnLCAnPG91dGZpbGUubWFlPic=

> <r_lp_tautomer_probability>
1

> <r_epik_Ionization_Penalty>
0.00552561

> <r_epik_Ionization_Penalty_Charging>
0

> <r_epik_Ionization_Penalty_Neutral>
0.00552561

> <r_epik_State_Penalty>
-0

> <r_epik_Charging_Adjusted_Penalty>
0

> <i_epik_Tot_Q>
0

> <i_epik_Tot_abs_Q>
0

> <r_epik_Metal_State_Penalty>
-0

> <b_epik_Metal_Only>
0

> <s_lp_Force_Field>
OPLS_2005

> <r_lp_Energy>
61.147

> <b_lp_Chiralities_Consistent>
1

> <s_lp_Variant>
AV-unprocessed.smi:2520-4

> <Gold.Version>
5.8.1

> <Gold.Id.Protein>
6NUR|6NUR_protein|mol2

> <Gold.PLP.Fitness>
42.3952

> <Gold.PLP.PLP>
-37.2739

> <Gold.PLP.part.hbond>
-2.0000

> <Gold.PLP.part.metal>
0.0000

> <Gold.PLP.part.buried>
-6.5086

> <Gold.PLP.part.nonpolar>
-29.7791

> <Gold.PLP.part.repulsive>
0.4015

> <Gold.PLP.ligand.clash>
0.0000

> <Gold.PLP.ligand.torsion>
0.5324

> <Gold.PLP.Chemscore.Hbond>
2.0000

> <Gold.PLP.Chemscore.CHOScore>
0.0000

> <Gold.PLP.Chemscore.Metal>
0.0000

> <Gold.Chemscore.Hbonds>
donor molecule, donor type, donor heavy atom, donor atom, acceptor molecule, acceptor atom, score
      P1  H  6896  6909       L1     1  1.00
      P1  H  7997  8010       L1    15  1.00

> <Gold.PLP.Chemscore.Internal.Correction>
0.1860

> <Gold.Rescore>
     Score         DG    S(hbond)    S(metal)    S(lipo)     H(rot)  DE(clash)    DE(int)     intcor
     19.73     -20.40       1.98        0.00      92.77       1.00       0.12       0.55       ----

> <Gold.Chemscore.Fitness>
19.7313

> <Gold.Chemscore.DG>
-20.4027

> <Gold.Chemscore.ZeroCoef>
-5.4800

> <Gold.Chemscore.Hbond>
1.9846

> <Gold.Chemscore.Metal>
0.0000

> <Gold.Chemscore.Lipo>
92.7713

> <Gold.Chemscore.Internal_Hbond>
0.0000

> <Gold.Chemscore.DEClash>
0.1209

> <Gold.Chemscore.DEInternal>
0.5506

> <Gold.Chemscore.Rot>
1.0000

> <Gold.Chemscore.Internal.Correction>
   9.000000E+99

> <Gold.Chemscore.Hbonds>
donor molecule, donor type, donor heavy atom, donor atom, acceptor molecule, acceptor atom, score
      P1  H  6896  6909       L1     1  0.95
      P1  H  7997  8010       L1    15  0.99

> <Gold.Chemscore.Hbond.Weighted>
-6.6285

> <Gold.Chemscore.Metal.Weighted>
-0.0000

> <Gold.Chemscore.Lipo.Weighted>
-10.8542

> <Gold.Chemscore.Internal_Hbond.Weighted>
0.0000

> <Gold.Chemscore.DEClash.Weighted>
0.1209

> <Gold.Chemscore.DEInternal.Weighted>
0.5506

> <Gold.Chemscore.Rot.Weighted>
2.5600

> <Gold.Chemscore.Internal.Correction.Weighted>
   9.000000E+99

> <Gold.Protein.RotatedTorsions>
[ 6907 6896 6895 6894 ] final   71.42 input  -60.11 | X-H torsion
[ 7974 7965 7964 7962 ] final   15.22 input  175.53 | X-H torsion
[ 8008 7997 7996 7995 ] final   87.36 input   59.86 | X-H torsion
[ 10167 10162 10161 10158 ] final   88.19 input  -65.29 | X-H torsion
[ 10718 10713 10712 10709 ] final   71.95 input   66.30 | X-H torsion
[ 10763 10752 10751 10750 ] final  -14.87 input  -60.55 | X-H torsion
[ 11005 11000 10999 10996 ] final  -67.74 input  -57.11 | X-H torsion

> <Gold.Protein.ActiveResidues>
 VAL166  LYS551  ARG553  GLY616  TRP617  ASP618  TYR619  PRO620  LYS621  CYS622 
 ASP623  PHE694  ASN695  SER759  ASP760  ASP761  ALA762  ILE779  LEU786  VAL792 
 PHE793  MET794  SER795  GLU796  ALA797  LYS798  CYS799  TRP800  GLU811  SER814 

> <Gold.Protein.RotatedAtoms>
  152.4809  134.4722  159.9638 H   0  0  0  0  0  0  0  0  0  0  0  0  # atno 6907 bound_to 6896
  151.4729  133.3559  159.2834 H   0  0  0  0  0  0  0  0  0  0  0  0  # atno 6908 bound_to 6896
  150.8881  134.8307  159.7334 H   0  0  0  0  0  0  0  0  0  0  0  0  # atno 6909 bound_to 6896
  146.2284  139.8926  142.8552 H   0  0  0  0  0  0  0  0  0  0  0  0  # atno 7974 bound_to 7965
  155.9744  140.3383  155.6605 H   0  0  0  0  0  0  0  0  0  0  0  0  # atno 8008 bound_to 7997
  155.6632  140.0718  157.2565 H   0  0  0  0  0  0  0  0  0  0  0  0  # atno 8009 bound_to 7997
  154.4175  140.1705  156.1786 H   0  0  0  0  0  0  0  0  0  0  0  0  # atno 8010 bound_to 7997
  139.8698  144.6499  150.8963 H   0  0  0  0  0  0  0  0  0  0  0  0  # atno 10167 bound_to 10162
  157.6477  130.9554  150.0861 H   0  0  0  0  0  0  0  0  0  0  0  0  # atno 10718 bound_to 10713
  153.5347  135.7014  153.5666 H   0  0  0  0  0  0  0  0  0  0  0  0  # atno 10763 bound_to 10752
  153.3658  135.3958  155.1752 H   0  0  0  0  0  0  0  0  0  0  0  0  # atno 10764 bound_to 10752
  154.8680  135.3800  154.4847 H   0  0  0  0  0  0  0  0  0  0  0  0  # atno 10765 bound_to 10752
  141.1515  133.6725  156.6339 H   0  0  0  0  0  0  0  0  0  0  0  0  # atno 11005 bound_to 11000
  145.2402  141.0006  143.3940 LP  0  0  0  0  0  0  0  0  0  0  0  0  # atno 17320 bound_to 7965
  144.9458  139.4138  143.6427 LP  0  0  0  0  0  0  0  0  0  0  0  0  # atno 17321 bound_to 7965
  140.7762  143.3673  151.1714 LP  0  0  0  0  0  0  0  0  0  0  0  0  # atno 17342 bound_to 10162
  139.7295  143.9095  152.3014 LP  0  0  0  0  0  0  0  0  0  0  0  0  # atno 17343 bound_to 10162
  156.1823  130.3650  149.9019 LP  0  0  0  0  0  0  0  0  0  0  0  0  # atno 17370 bound_to 10713
  156.6968  130.8917  151.3595 LP  0  0  0  0  0  0  0  0  0  0  0  0  # atno 17371 bound_to 10713
  140.3445  134.7820  157.4422 LP  0  0  0  0  0  0  0  0  0  0  0  0  # atno 17394 bound_to 11000
  140.0910  134.5601  155.8444 LP  0  0  0  0  0  0  0  0  0  0  0  0  # atno 17395 bound_to 11000

$$$$
