AV-unprocessed.smi:1413|AV-procd|sdf|5754|dock4
  -GOLD-   22720 5393D 1   1.00000     0.00000
 Structure written by MMmdl.
 53 55  0  0  0  0  0  0  0  0  1 V2000
  153.5589  141.6167  160.3237 C   0  0  0  0  0  0  0  0  0  0  0  0
  152.3727  142.1066  159.4863 C   0  0  2  0  0  0  0  0  0  0  0  0
  152.0003  141.1059  158.3771 C   0  0  0  0  0  0  0  0  0  0  0  0
  150.9588  141.6622  157.5198 N   0  0  0  0  0  0  0  0  0  0  0  0
  150.3056  140.7384  156.6762 C   0  0  0  0  0  0  0  0  0  0  0  0
  149.2396  139.9530  157.1742 C   0  0  0  0  0  0  0  0  0  0  0  0
  148.6033  139.0364  156.3160 C   0  0  0  0  0  0  0  0  0  0  0  0
  149.0484  138.9155  154.9857 C   0  0  0  0  0  0  0  0  0  0  0  0
  148.3787  137.9966  154.1338 N   0  0  0  0  0  0  0  0  0  0  0  0
  147.0831  137.6397  154.1514 C   0  0  0  0  0  0  0  0  0  0  0  0
  146.2311  138.1001  154.9108 O   0  0  0  0  0  0  0  0  0  0  0  0
  146.8229  136.7175  153.2130 N   0  0  0  0  0  0  0  0  0  0  0  0
  145.5169  136.1200  152.9375 C   0  0  1  0  0  0  0  0  0  0  0  0
  144.4797  137.2440  152.7980 C   0  0  0  0  0  0  0  0  0  0  0  0
  145.5781  135.2414  151.6709 C   0  0  1  0  0  0  0  0  0  0  0  0
  146.4762  134.0080  151.7728 C   0  0  0  0  0  0  0  0  0  0  0  0
  145.9173  133.0802  150.7073 C   0  0  0  0  0  0  0  0  0  0  0  0
  144.5038  133.6141  150.4552 C   0  0  0  0  0  0  0  0  0  0  0  0
  144.3135  134.6544  151.4055 O   0  0  0  0  0  0  0  0  0  0  0  0
  150.1092  139.7545  154.5704 C   0  0  0  0  0  0  0  0  0  0  0  0
  150.7188  140.6374  155.3891 N   0  0  0  0  0  0  0  0  0  0  0  0
  151.3084  142.9684  156.9661 C   0  0  0  0  0  0  0  0  0  0  0  0
  151.7260  143.9484  158.0798 C   0  0  1  0  0  0  0  0  0  0  0  0
  150.5408  144.4821  158.9045 C   0  0  0  0  0  0  0  0  0  0  0  0
  152.7340  143.3581  158.9032 O   0  0  0  0  0  0  0  0  0  0  0  0
  153.3319  140.6669  160.8082 H   0  0  0  0  0  0  0  0  0  0  0  0
  153.8083  142.3364  161.1038 H   0  0  0  0  0  0  0  0  0  0  0  0
  154.4459  141.4746  159.7055 H   0  0  0  0  0  0  0  0  0  0  0  0
  151.5227  142.2440  160.1550 H   0  0  0  0  0  0  0  0  0  0  0  0
  152.8739  140.8840  157.7625 H   0  0  0  0  0  0  0  0  0  0  0  0
  151.6889  140.1665  158.8325 H   0  0  0  0  0  0  0  0  0  0  0  0
  148.8964  140.0541  158.1931 H   0  0  0  0  0  0  0  0  0  0  0  0
  147.7843  138.4333  156.6801 H   0  0  0  0  0  0  0  0  0  0  0  0
  148.9399  137.6028  153.3929 H   0  0  0  0  0  0  0  0  0  0  0  0
  147.5895  136.4044  152.6359 H   0  0  0  0  0  0  0  0  0  0  0  0
  145.2122  135.4954  153.7792 H   0  0  0  0  0  0  0  0  0  0  0  0
  143.4819  136.8400  152.6252 H   0  0  0  0  0  0  0  0  0  0  0  0
  144.7186  137.9051  151.9643 H   0  0  0  0  0  0  0  0  0  0  0  0
  144.4336  137.8507  153.7029 H   0  0  0  0  0  0  0  0  0  0  0  0
  145.8747  135.8411  150.8078 H   0  0  0  0  0  0  0  0  0  0  0  0
  147.5318  134.2371  151.6243 H   0  0  0  0  0  0  0  0  0  0  0  0
  146.3665  133.5434  152.7536 H   0  0  0  0  0  0  0  0  0  0  0  0
  146.5106  133.1308  149.7937 H   0  0  0  0  0  0  0  0  0  0  0  0
  145.9107  132.0442  151.0474 H   0  0  0  0  0  0  0  0  0  0  0  0
  144.4231  134.0263  149.4485 H   0  0  0  0  0  0  0  0  0  0  0  0
  143.7406  132.8440  150.5693 H   0  0  0  0  0  0  0  0  0  0  0  0
  150.4784  139.7499  153.5567 H   0  0  0  0  0  0  0  0  0  0  0  0
  152.1332  142.8405  156.2635 H   0  0  0  0  0  0  0  0  0  0  0  0
  150.4703  143.3850  156.4061 H   0  0  0  0  0  0  0  0  0  0  0  0
  152.1909  144.8117  157.6029 H   0  0  0  0  0  0  0  0  0  0  0  0
  149.8543  145.0462  158.2728 H   0  0  0  0  0  0  0  0  0  0  0  0
  150.8858  145.1500  159.6938 H   0  0  0  0  0  0  0  0  0  0  0  0
  149.9660  143.6815  159.3693 H   0  0  0  0  0  0  0  0  0  0  0  0
  1  2  1  0  0  0  0
  1 26  1  0  0  0  0
  1 27  1  0  0  0  0
  1 28  1  0  0  0  0
  2 25  1  0  0  0  0
  2  3  1  0  0  0  0
  2 29  1  0  0  0  0
  3  4  1  0  0  0  0
  3 30  1  0  0  0  0
  3 31  1  0  0  0  0
  4  5  1  0  0  0  0
  4 22  1  0  0  0  0
  5 21  1  0  0  0  0
  5  6  2  0  0  0  0
  6  7  1  0  0  0  0
  6 32  1  0  0  0  0
  7  8  2  0  0  0  0
  7 33  1  0  0  0  0
  8  9  1  0  0  0  0
  8 20  1  0  0  0  0
  9 10  1  0  0  0  0
  9 34  1  0  0  0  0
 10 11  2  0  0  0  0
 10 12  1  0  0  0  0
 12 13  1  0  0  0  0
 12 35  1  0  0  0  0
 13 14  1  0  0  0  0
 13 15  1  0  0  0  0
 13 36  1  0  0  0  0
 14 37  1  0  0  0  0
 14 38  1  0  0  0  0
 14 39  1  0  0  0  0
 15 19  1  0  0  0  0
 15 16  1  0  0  0  0
 15 40  1  0  0  0  0
 16 17  1  0  0  0  0
 16 41  1  0  0  0  0
 16 42  1  0  0  0  0
 17 18  1  0  0  0  0
 17 43  1  0  0  0  0
 17 44  1  0  0  0  0
 18 19  1  0  0  0  0
 18 45  1  0  0  0  0
 18 46  1  0  0  0  0
 20 21  2  0  0  0  0
 20 47  1  0  0  0  0
 22 23  1  0  0  0  0
 22 48  1  0  0  0  0
 22 49  1  0  0  0  0
 23 24  1  0  0  0  0
 23 25  1  0  0  0  0
 23 50  1  0  0  0  0
 24 51  1  0  0  0  0
 24 52  1  0  0  0  0
 24 53  1  0  0  0  0
M  END
> <s_m_source_file>
AV-unprocessed.smi

> <i_m_source_file_index>
1413

> <i_lp_mmshare_version>
43012

> <i_f3d_flags>
0

> <s_epik_input>
W0NIM11bQ0BASF0xW0NIMl1OKFtDSDJdW0NASF0oTzEpW0NIM10pYzJbY0hdW2NIXWMoW2NIXW4yKVtOSF1DKD1PKVtOSF1bQ0BIXShbQ0gzXSlbQ0BASF0zW0NIMl1bQ0gyXVtDSDJdTzM=

> <s_epik_cmdline>
J2VwaWtfcHl0aG9uJywgJy1waCcsICc3LjAnLCAnLXRuJywgJzgnLCAnLW1hJywgJzIwMCcsICctbWV0YWxfYmluZGluZycsICctaW1hZScsICc8aW5maWxlLm1hZT4nLCAnLW9tYWUnLCAnPG91dGZpbGUubWFlPic=

> <r_lp_tautomer_probability>
1

> <r_epik_Ionization_Penalty>
0.00271172

> <r_epik_Ionization_Penalty_Charging>
0

> <r_epik_Ionization_Penalty_Neutral>
0.00271172

> <r_epik_State_Penalty>
0.00186503

> <r_epik_Charging_Adjusted_Penalty>
0.00186503

> <i_epik_Tot_Q>
0

> <i_epik_Tot_abs_Q>
0

> <r_epik_Metal_State_Penalty>
-0

> <b_epik_Metal_Only>
0

> <s_lp_Force_Field>
OPLS_2005

> <r_lp_Energy>
36.7239

> <b_lp_Chiralities_Consistent>
1

> <s_lp_Variant>
AV-unprocessed.smi:1413-7

> <Gold.Version>
5.8.1

> <Gold.Id.Protein>
6NUR|6NUR_protein|mol2

> <Gold.PLP.Fitness>
46.7101

> <Gold.PLP.PLP>
-39.4804

> <Gold.PLP.part.hbond>
-3.0000

> <Gold.PLP.part.metal>
0.0000

> <Gold.PLP.part.buried>
-5.8744

> <Gold.PLP.part.nonpolar>
-31.3541

> <Gold.PLP.part.repulsive>
0.3294

> <Gold.PLP.ligand.clash>
0.0000

> <Gold.PLP.ligand.torsion>
0.9031

> <Gold.PLP.Chemscore.Hbond>
1.8960

> <Gold.PLP.Chemscore.CHOScore>
1.0000

> <Gold.PLP.Chemscore.Metal>
0.0000

> <Gold.Chemscore.Hbonds>
donor molecule, donor type, donor heavy atom, donor atom, acceptor molecule, acceptor atom, score
      L1  H     9    34       P1  7948  0.90
      L1  H    12    35       P1  7948  1.00
      L1  C    20    47       P1  7957  0.94

> <Gold.PLP.Chemscore.Internal.Correction>
0.3480

> <Gold.Rescore>
     Score         DG    S(hbond)    S(metal)    S(lipo)     H(rot)  DE(clash)    DE(int)     intcor
     18.07     -20.16       1.88        0.00     101.26       1.35       0.03       2.06       ----

> <Gold.Chemscore.Fitness>
18.0687

> <Gold.Chemscore.DG>
-20.1615

> <Gold.Chemscore.ZeroCoef>
-5.4800

> <Gold.Chemscore.Hbond>
1.8809

> <Gold.Chemscore.Metal>
0.0000

> <Gold.Chemscore.Lipo>
101.2618

> <Gold.Chemscore.Internal_Hbond>
0.0000

> <Gold.Chemscore.DEClash>
0.0349

> <Gold.Chemscore.DEInternal>
2.0579

> <Gold.Chemscore.Rot>
1.3471

> <Gold.Chemscore.Internal.Correction>
   9.000000E+99

> <Gold.Chemscore.Hbonds>
donor molecule, donor type, donor heavy atom, donor atom, acceptor molecule, acceptor atom, score
      L1  H     9    34       P1  7948  0.81
      L1  H    12    35       P1  7948  0.97

> <Gold.Chemscore.Hbond.Weighted>
-6.2824

> <Gold.Chemscore.Metal.Weighted>
-0.0000

> <Gold.Chemscore.Lipo.Weighted>
-11.8476

> <Gold.Chemscore.Internal_Hbond.Weighted>
0.0000

> <Gold.Chemscore.DEClash.Weighted>
0.0349

> <Gold.Chemscore.DEInternal.Weighted>
2.0579

> <Gold.Chemscore.Rot.Weighted>
3.4485

> <Gold.Chemscore.Internal.Correction.Weighted>
   9.000000E+99

> <Gold.Protein.RotatedTorsions>
[ 6907 6896 6895 6894 ] final    4.20 input  -60.11 | X-H torsion
[ 7974 7965 7964 7962 ] final  -20.63 input  175.53 | X-H torsion
[ 8008 7997 7996 7995 ] final  159.93 input   59.86 | X-H torsion
[ 10167 10162 10161 10158 ] final  170.41 input  -65.29 | X-H torsion
[ 10718 10713 10712 10709 ] final  -16.23 input   66.30 | X-H torsion
[ 10763 10752 10751 10750 ] final  170.25 input  -60.55 | X-H torsion
[ 11005 11000 10999 10996 ] final  -82.98 input  -57.11 | X-H torsion

> <Gold.Protein.ActiveResidues>
 VAL166  LYS551  ARG553  GLY616  TRP617  ASP618  TYR619  PRO620  LYS621  CYS622 
 ASP623  PHE694  ASN695  SER759  ASP760  ASP761  ALA762  ILE779  LEU786  VAL792 
 PHE793  MET794  SER795  GLU796  ALA797  LYS798  CYS799  TRP800  GLU811  SER814 

> <Gold.Protein.RotatedAtoms>
  151.6374  135.1016  160.0134 H   0  0  0  0  0  0  0  0  0  0  0  0  # atno 6907 bound_to 6896
  152.4073  133.6904  159.6376 H   0  0  0  0  0  0  0  0  0  0  0  0  # atno 6908 bound_to 6896
  150.7966  133.8603  159.3271 H   0  0  0  0  0  0  0  0  0  0  0  0  # atno 6909 bound_to 6896
  146.1777  140.4229  142.8507 H   0  0  0  0  0  0  0  0  0  0  0  0  # atno 7974 bound_to 7965
  156.2206  140.1818  156.7485 H   0  0  0  0  0  0  0  0  0  0  0  0  # atno 8008 bound_to 7997
  154.5860  140.0658  156.9200 H   0  0  0  0  0  0  0  0  0  0  0  0  # atno 8009 bound_to 7997
  155.2419  140.3322  155.4294 H   0  0  0  0  0  0  0  0  0  0  0  0  # atno 8010 bound_to 7997
  139.5018  144.3599  151.9835 H   0  0  0  0  0  0  0  0  0  0  0  0  # atno 10167 bound_to 10162
  156.5905  130.4798  149.6281 H   0  0  0  0  0  0  0  0  0  0  0  0  # atno 10718 bound_to 10713
  154.3949  135.2754  155.2132 H   0  0  0  0  0  0  0  0  0  0  0  0  # atno 10763 bound_to 10752
  154.4182  135.6006  153.5997 H   0  0  0  0  0  0  0  0  0  0  0  0  # atno 10764 bound_to 10752
  152.9831  135.5966  154.4209 H   0  0  0  0  0  0  0  0  0  0  0  0  # atno 10765 bound_to 10752
  141.1660  133.7271  156.8653 H   0  0  0  0  0  0  0  0  0  0  0  0  # atno 11005 bound_to 11000
  144.8263  140.6634  143.6320 LP  0  0  0  0  0  0  0  0  0  0  0  0  # atno 17320 bound_to 7965
  145.4164  139.1571  143.4098 LP  0  0  0  0  0  0  0  0  0  0  0  0  # atno 17321 bound_to 7965
  140.3035  144.3619  150.6053 LP  0  0  0  0  0  0  0  0  0  0  0  0  # atno 17342 bound_to 10162
  140.5855  143.2170  151.7351 LP  0  0  0  0  0  0  0  0  0  0  0  0  # atno 17343 bound_to 10162
  156.2553  130.6931  151.1682 LP  0  0  0  0  0  0  0  0  0  0  0  0  # atno 17370 bound_to 10713
  157.7305  131.0616  150.5725 LP  0  0  0  0  0  0  0  0  0  0  0  0  # atno 17371 bound_to 10713
  140.1820  134.9027  157.2959 LP  0  0  0  0  0  0  0  0  0  0  0  0  # atno 17394 bound_to 11000
  140.2385  134.3824  155.7491 LP  0  0  0  0  0  0  0  0  0  0  0  0  # atno 17395 bound_to 11000

$$$$
