AV-unprocessed.smi:3068|AV-procd|sdf|11701|dock3
  -GOLD-   2272017103D 1   1.00000     0.00000
 Structure written by MMmdl.
 40 42  0  0  0  0  0  0  0  0  2 V2000
  145.0187  126.3140  155.8347 N   0  0  0  0  0  0  0  0  0  0  0  0
  145.8311  126.6525  155.0833 C   0  0  0  0  0  0  0  0  0  0  0  0
  146.8542  127.0801  154.1375 C   0  0  0  0  0  0  0  0  0  0  0  0
  147.6464  126.1121  153.6214 N   0  0  0  0  0  0  0  0  0  0  0  0
  148.5977  126.4940  152.7431 C   0  0  0  0  0  0  0  0  0  0  0  0
  148.7637  127.8435  152.3763 C   0  0  0  0  0  0  0  0  0  0  0  0
  147.9793  128.8162  152.8872 N   0  0  0  0  0  0  0  0  0  0  0  0
  147.0189  128.4462  153.7715 C   0  0  0  0  0  0  0  0  0  0  0  0
  146.1929  129.4489  154.3134 N   0  0  0  0  0  0  0  0  0  0  0  0
  146.6695  130.8101  154.5297 C   0  0  0  0  0  0  0  0  0  0  0  0
  147.0977  131.4979  153.2223 C   0  0  1  0  0  0  0  0  0  0  0  0
  146.0729  131.2666  152.0976 C   0  0  0  0  0  0  0  0  0  0  0  0
  146.4612  132.0138  150.8757 N   0  3  1  0  0  0  0  0  0  0  0  0
  145.5484  131.7977  149.7227 C   0  0  0  0  0  0  0  0  0  0  0  0
  144.2173  132.5573  149.8823 C   0  0  0  0  0  0  0  0  0  0  0  0
  144.4609  134.0503  150.1408 C   0  0  0  0  0  0  0  0  0  0  0  0
  145.3999  134.2401  151.3405 C   0  0  0  0  0  0  0  0  0  0  0  0
  146.7164  133.4556  151.1465 C   0  0  1  0  0  0  0  0  0  0  0  0
  147.6815  133.6098  152.3382 C   0  0  0  0  0  0  0  0  0  0  0  0
  147.1879  132.8977  153.4659 O   0  0  0  0  0  0  0  0  0  0  0  0
  149.2292  125.7202  152.3325 H   0  0  0  0  0  0  0  0  0  0  0  0
  149.5267  128.1431  151.6732 H   0  0  0  0  0  0  0  0  0  0  0  0
  145.2757  129.2018  154.6577 H   0  0  0  0  0  0  0  0  0  0  0  0
  145.8935  131.3912  155.0289 H   0  0  0  0  0  0  0  0  0  0  0  0
  147.5110  130.7738  155.2220 H   0  0  0  0  0  0  0  0  0  0  0  0
  148.0700  131.1157  152.9064 H   0  0  0  0  0  0  0  0  0  0  0  0
  146.0143  130.2027  151.8649 H   0  0  0  0  0  0  0  0  0  0  0  0
  145.0811  131.5715  152.4321 H   0  0  0  0  0  0  0  0  0  0  0  0
  146.0538  132.1410  148.8190 H   0  0  0  0  0  0  0  0  0  0  0  0
  145.3669  130.7310  149.5858 H   0  0  0  0  0  0  0  0  0  0  0  0
  143.6110  132.4320  148.9849 H   0  0  0  0  0  0  0  0  0  0  0  0
  143.6368  132.1322  150.7014 H   0  0  0  0  0  0  0  0  0  0  0  0
  144.8996  134.5094  149.2538 H   0  0  0  0  0  0  0  0  0  0  0  0
  143.5140  134.5605  150.3195 H   0  0  0  0  0  0  0  0  0  0  0  0
  145.6152  135.3014  151.4694 H   0  0  0  0  0  0  0  0  0  0  0  0
  144.8969  133.9204  152.2538 H   0  0  0  0  0  0  0  0  0  0  0  0
  147.2149  133.8647  150.2664 H   0  0  0  0  0  0  0  0  0  0  0  0
  148.6762  133.2433  152.0788 H   0  0  0  0  0  0  0  0  0  0  0  0
  147.7969  134.6611  152.6027 H   0  0  0  0  0  0  0  0  0  0  0  0
  147.3509  131.6227  150.6006 H   0  0  0  0  0  0  0  0  0  0  0  0
  1  2  3  0  0  0  0
  2  3  1  0  0  0  0
  3  8  1  0  0  0  0
  3  4  2  0  0  0  0
  4  5  1  0  0  0  0
  5  6  2  0  0  0  0
  5 21  1  0  0  0  0
  6  7  1  0  0  0  0
  6 22  1  0  0  0  0
  7  8  2  0  0  0  0
  8  9  1  0  0  0  0
  9 10  1  0  0  0  0
  9 23  1  0  0  0  0
 10 11  1  0  0  0  0
 10 24  1  0  0  0  0
 10 25  1  0  0  0  0
 11 20  1  0  0  0  0
 11 12  1  0  0  0  0
 11 26  1  0  0  0  0
 12 13  1  0  0  0  0
 12 27  1  0  0  0  0
 12 28  1  0  0  0  0
 13 18  1  0  0  0  0
 13 14  1  0  0  0  0
 13 40  1  0  0  0  0
 14 15  1  0  0  0  0
 14 29  1  0  0  0  0
 14 30  1  0  0  0  0
 15 16  1  0  0  0  0
 15 31  1  0  0  0  0
 15 32  1  0  0  0  0
 16 17  1  0  0  0  0
 16 33  1  0  0  0  0
 16 34  1  0  0  0  0
 17 18  1  0  0  0  0
 17 35  1  0  0  0  0
 17 36  1  0  0  0  0
 18 19  1  0  0  0  0
 18 37  1  0  0  0  0
 19 20  1  0  0  0  0
 19 38  1  0  0  0  0
 19 39  1  0  0  0  0
M  CHG  1  13   1
M  END
> <s_m_source_file>
AV-unprocessed.smi

> <i_m_source_file_index>
3068

> <i_lp_mmshare_version>
43012

> <i_f3d_flags>
0

> <s_epik_input>
TiNDYzFuW2NIXVtjSF1uYzFbTkhdW0NIMl1bQ0BIXShbQ0gyXTIpT1tDSDJdW0NAQEhdKE4yMylbQ0gyXVtDSDJdW0NIMl1bQ0gyXTM=

> <s_epik_cmdline>
J2VwaWtfcHl0aG9uJywgJy1waCcsICc3LjAnLCAnLXRuJywgJzgnLCAnLW1hJywgJzIwMCcsICctbWV0YWxfYmluZGluZycsICctaW1hZScsICc8aW5maWxlLm1hZT4nLCAnLW9tYWUnLCAnPG91dGZpbGUubWFlPic=

> <r_epik_Ionization_Penalty>
0.0804321

> <r_epik_Ionization_Penalty_Charging>
0.0803403

> <r_epik_Ionization_Penalty_Neutral>
9.17277e-05

> <r_epik_State_Penalty>
0.0711481

> <r_epik_Charging_Adjusted_Penalty>
0.151488

> <i_epik_Tot_Q>
1

> <i_epik_Tot_abs_Q>
1

> <r_epik_Metal_State_Penalty>
0.0711481

> <b_epik_Metal_Only>
0

> <s_lp_Force_Field>
OPLS_2005

> <r_lp_Energy>
39.2156

> <b_lp_Chiralities_Consistent>
1

> <s_lp_Variant>
AV-unprocessed.smi:3068-4

> <Gold.Version>
5.8.1

> <Gold.Id.Protein>
6NUR|6NUR_protein|mol2

> <Gold.PLP.Fitness>
37.5471

> <Gold.PLP.PLP>
-29.1903

> <Gold.PLP.part.hbond>
-2.5847

> <Gold.PLP.part.metal>
0.0000

> <Gold.PLP.part.buried>
-3.1762

> <Gold.PLP.part.nonpolar>
-23.0283

> <Gold.PLP.part.repulsive>
0.3540

> <Gold.PLP.ligand.clash>
0.0000

> <Gold.PLP.ligand.torsion>
0.3162

> <Gold.PLP.Chemscore.Hbond>
2.0000

> <Gold.PLP.Chemscore.CHOScore>
0.9959

> <Gold.PLP.Chemscore.Metal>
0.0000

> <Gold.Chemscore.Hbonds>
donor molecule, donor type, donor heavy atom, donor atom, acceptor molecule, acceptor atom, score
      L1  H     9    23       P1 10956  1.00
      L1  H    13    40       P1 10747  1.00
      L1  C     6    22       P1 10737  1.00

> <Gold.PLP.Chemscore.Internal.Correction>
0.0016

> <Gold.Rescore>
     Score         DG    S(hbond)    S(metal)    S(lipo)     H(rot)  DE(clash)    DE(int)     intcor
     15.74     -17.93       1.94        0.00      80.02       1.32       0.58       1.60       ----

> <Gold.Chemscore.Fitness>
15.7404

> <Gold.Chemscore.DG>
-17.9282

> <Gold.Chemscore.ZeroCoef>
-5.4800

> <Gold.Chemscore.Hbond>
1.9352

> <Gold.Chemscore.Metal>
0.0000

> <Gold.Chemscore.Lipo>
80.0182

> <Gold.Chemscore.Internal_Hbond>
0.0000

> <Gold.Chemscore.DEClash>
0.5844

> <Gold.Chemscore.DEInternal>
1.6034

> <Gold.Chemscore.Rot>
1.3193

> <Gold.Chemscore.Internal.Correction>
   9.000000E+99

> <Gold.Chemscore.Hbonds>
donor molecule, donor type, donor heavy atom, donor atom, acceptor molecule, acceptor atom, score
      L1  H     9    23       P1 10956  0.89
      L1  H    13    40       P1 10747  1.00

> <Gold.Chemscore.Hbond.Weighted>
-6.4634

> <Gold.Chemscore.Metal.Weighted>
-0.0000

> <Gold.Chemscore.Lipo.Weighted>
-9.3621

> <Gold.Chemscore.Internal_Hbond.Weighted>
0.0000

> <Gold.Chemscore.DEClash.Weighted>
0.5844

> <Gold.Chemscore.DEInternal.Weighted>
1.6034

> <Gold.Chemscore.Rot.Weighted>
3.3774

> <Gold.Chemscore.Internal.Correction.Weighted>
   9.000000E+99

> <Gold.Protein.RotatedTorsions>
[ 6907 6896 6895 6894 ] final   84.11 input  -60.11 | X-H torsion
[ 7974 7965 7964 7962 ] final -171.47 input  175.53 | X-H torsion
[ 8008 7997 7996 7995 ] final  -67.17 input   59.86 | X-H torsion
[ 10167 10162 10161 10158 ] final -165.91 input  -65.29 | X-H torsion
[ 10718 10713 10712 10709 ] final   53.51 input   66.30 | X-H torsion
[ 10763 10752 10751 10750 ] final -177.09 input  -60.55 | X-H torsion
[ 11005 11000 10999 10996 ] final  -52.03 input  -57.11 | X-H torsion

> <Gold.Protein.ActiveResidues>
 VAL166  LYS551  ARG553  GLY616  TRP617  ASP618  TYR619  PRO620  LYS621  CYS622 
 ASP623  PHE694  ASN695  SER759  ASP760  ASP761  ALA762  ILE779  LEU786  VAL792 
 PHE793  MET794  SER795  GLU796  ALA797  LYS798  CYS799  TRP800  GLU811  SER814 

> <Gold.Protein.RotatedAtoms>
  152.5344  134.2792  159.9000 H   0  0  0  0  0  0  0  0  0  0  0  0  # atno 6907 bound_to 6896
  151.2747  133.4232  159.2631 H   0  0  0  0  0  0  0  0  0  0  0  0  # atno 6908 bound_to 6896
  151.0337  134.9572  159.8181 H   0  0  0  0  0  0  0  0  0  0  0  0  # atno 6909 bound_to 6896
  144.7157  140.1917  143.6348 H   0  0  0  0  0  0  0  0  0  0  0  0  # atno 7974 bound_to 7965
  154.4782  140.0898  156.7314 H   0  0  0  0  0  0  0  0  0  0  0  0  # atno 8008 bound_to 7997
  155.4540  140.3458  155.4286 H   0  0  0  0  0  0  0  0  0  0  0  0  # atno 8009 bound_to 7997
  156.1150  140.1458  156.9273 H   0  0  0  0  0  0  0  0  0  0  0  0  # atno 8010 bound_to 7997
  139.6150  144.0738  152.1879 H   0  0  0  0  0  0  0  0  0  0  0  0  # atno 10167 bound_to 10162
  157.5173  130.8541  149.8512 H   0  0  0  0  0  0  0  0  0  0  0  0  # atno 10718 bound_to 10713
  154.5644  135.2823  155.0888 H   0  0  0  0  0  0  0  0  0  0  0  0  # atno 10763 bound_to 10752
  154.2284  135.6378  153.5171 H   0  0  0  0  0  0  0  0  0  0  0  0  # atno 10764 bound_to 10752
  153.0039  135.5531  154.6249 H   0  0  0  0  0  0  0  0  0  0  0  0  # atno 10765 bound_to 10752
  141.0903  133.6634  156.3964 H   0  0  0  0  0  0  0  0  0  0  0  0  # atno 11005 bound_to 11000
  145.8762  139.2298  143.1632 LP  0  0  0  0  0  0  0  0  0  0  0  0  # atno 17320 bound_to 7965
  146.0038  140.8497  143.0005 LP  0  0  0  0  0  0  0  0  0  0  0  0  # atno 17321 bound_to 7965
  140.0366  144.6040  150.7444 LP  0  0  0  0  0  0  0  0  0  0  0  0  # atno 17342 bound_to 10162
  140.7345  143.2729  151.3831 LP  0  0  0  0  0  0  0  0  0  0  0  0  # atno 17343 bound_to 10162
  156.0329  130.3759  150.1639 LP  0  0  0  0  0  0  0  0  0  0  0  0  # atno 17370 bound_to 10713
  156.9827  130.9869  151.3433 LP  0  0  0  0  0  0  0  0  0  0  0  0  # atno 17371 bound_to 10713
  140.5268  134.6251  157.5337 LP  0  0  0  0  0  0  0  0  0  0  0  0  # atno 17394 bound_to 11000
  139.9727  134.7266  156.0009 LP  0  0  0  0  0  0  0  0  0  0  0  0  # atno 17395 bound_to 11000

$$$$
