AV-unprocessed.smi:2773|AV-procd|sdf|10677|dock3
  -GOLD-   2272015123D 1   1.00000     0.00000
 Structure written by MMmdl.
 30 31  0  0  0  0  0  0  0  0  1 V2000
  147.6914  139.7381  155.9780 C   0  0  0  0  0  0  0  0  0  0  0  0
  148.0455  139.9733  154.5227 C   0  0  1  0  0  0  0  0  0  0  0  0
  147.4532  141.1325  153.7663 C   0  0  0  0  0  0  0  0  0  0  0  0
  148.9329  141.1236  154.0836 C   0  0  1  0  0  0  0  0  0  0  0  0
  149.3938  142.0634  155.0627 N   0  0  0  0  0  0  0  0  0  0  0  0
  150.2770  141.8578  156.0563 C   0  0  0  0  0  0  0  0  0  0  0  0
  150.8262  140.7667  156.1994 O   0  0  0  0  0  0  0  0  0  0  0  0
  150.5132  142.9416  156.8229 N   0  0  0  0  0  0  0  0  0  0  0  0
  151.3738  143.0569  157.9462 C   0  0  0  0  0  0  0  0  0  0  0  0
  151.4078  144.3353  158.5455 C   0  0  0  0  0  0  0  0  0  0  0  0
  152.2305  144.5518  159.6670 C   0  0  0  0  0  0  0  0  0  0  0  0
  152.9991  143.4839  160.1626 C   0  0  0  0  0  0  0  0  0  0  0  0
  152.9101  142.2361  159.5093 C   0  0  0  0  0  0  0  0  0  0  0  0
  153.7068  141.0283  159.9822 C   0  0  0  0  0  0  0  0  0  0  0  0
  153.5035  140.8374  161.2860 F   0  0  0  0  0  0  0  0  0  0  0  0
  153.3513  139.9183  159.3341 F   0  0  0  0  0  0  0  0  0  0  0  0
  155.0070  141.2384  159.7755 F   0  0  0  0  0  0  0  0  0  0  0  0
  152.1182  142.0334  158.4319 N   0  0  0  0  0  0  0  0  0  0  0  0
  147.4911  140.6782  156.4928 H   0  0  0  0  0  0  0  0  0  0  0  0
  148.5131  139.2317  156.4849 H   0  0  0  0  0  0  0  0  0  0  0  0
  146.8019  139.1119  156.0478 H   0  0  0  0  0  0  0  0  0  0  0  0
  148.1711  139.0506  153.9595 H   0  0  0  0  0  0  0  0  0  0  0  0
  147.1604  140.9587  152.7328 H   0  0  0  0  0  0  0  0  0  0  0  0
  146.8192  141.8256  154.3164 H   0  0  0  0  0  0  0  0  0  0  0  0
  149.5773  140.9377  153.2257 H   0  0  0  0  0  0  0  0  0  0  0  0
  149.0557  143.0086  154.9532 H   0  0  0  0  0  0  0  0  0  0  0  0
  150.0085  143.7797  156.5750 H   0  0  0  0  0  0  0  0  0  0  0  0
  150.8106  145.1455  158.1529 H   0  0  0  0  0  0  0  0  0  0  0  0
  152.2704  145.5221  160.1394 H   0  0  0  0  0  0  0  0  0  0  0  0
  153.6372  143.6268  161.0221 H   0  0  0  0  0  0  0  0  0  0  0  0
  1  2  1  0  0  0  0
  1 19  1  0  0  0  0
  1 20  1  0  0  0  0
  1 21  1  0  0  0  0
  2  4  1  0  0  0  0
  2  3  1  0  0  0  0
  2 22  1  0  0  0  0
  3  4  1  0  0  0  0
  3 23  1  0  0  0  0
  3 24  1  0  0  0  0
  4  5  1  0  0  0  0
  4 25  1  0  0  0  0
  5  6  1  0  0  0  0
  5 26  1  0  0  0  0
  6  7  2  0  0  0  0
  6  8  1  0  0  0  0
  8  9  1  0  0  0  0
  8 27  1  0  0  0  0
  9 18  1  0  0  0  0
  9 10  2  0  0  0  0
 10 11  1  0  0  0  0
 10 28  1  0  0  0  0
 11 12  2  0  0  0  0
 11 29  1  0  0  0  0
 12 13  1  0  0  0  0
 12 30  1  0  0  0  0
 13 14  1  0  0  0  0
 13 18  2  0  0  0  0
 14 15  1  0  0  0  0
 14 16  1  0  0  0  0
 14 17  1  0  0  0  0
M  END
> <s_m_source_file>
AV-unprocessed.smi

> <i_m_source_file_index>
2773

> <i_lp_mmshare_version>
43012

> <i_f3d_flags>
0

> <s_epik_input>
W0NIM11bQ0BASF0xW0NIMl1bQ0BIXTFbTkhdQyg9TylbTkhdYzJbY0hdW2NIXVtjSF1jKG4yKUMoRikoRilG

> <s_epik_cmdline>
J2VwaWtfcHl0aG9uJywgJy1waCcsICc3LjAnLCAnLXRuJywgJzgnLCAnLW1hJywgJzIwMCcsICctbWV0YWxfYmluZGluZycsICctaW1hZScsICc8aW5maWxlLm1hZT4nLCAnLW9tYWUnLCAnPG91dGZpbGUubWFlPic=

> <r_lp_tautomer_probability>
1

> <r_epik_Ionization_Penalty>
4.04275e-05

> <r_epik_Ionization_Penalty_Charging>
0

> <r_epik_Ionization_Penalty_Neutral>
4.04275e-05

> <r_epik_State_Penalty>
-0

> <r_epik_Charging_Adjusted_Penalty>
0

> <i_epik_Tot_Q>
0

> <i_epik_Tot_abs_Q>
0

> <r_epik_Metal_State_Penalty>
-0

> <b_epik_Metal_Only>
0

> <s_lp_Force_Field>
OPLS_2005

> <r_lp_Energy>
32.9292

> <b_lp_Chiralities_Consistent>
1

> <s_lp_Variant>
AV-unprocessed.smi:2773-2

> <Gold.Version>
5.8.1

> <Gold.Id.Protein>
6NUR|6NUR_protein|mol2

> <Gold.PLP.Fitness>
44.2298

> <Gold.PLP.PLP>
-38.8838

> <Gold.PLP.part.hbond>
-2.0000

> <Gold.PLP.part.metal>
0.0000

> <Gold.PLP.part.buried>
-4.8118

> <Gold.PLP.part.nonpolar>
-32.7254

> <Gold.PLP.part.repulsive>
0.2753

> <Gold.PLP.ligand.clash>
0.0000

> <Gold.PLP.ligand.torsion>
0.3342

> <Gold.PLP.Chemscore.Hbond>
1.9920

> <Gold.PLP.Chemscore.CHOScore>
0.0000

> <Gold.PLP.Chemscore.Metal>
0.0000

> <Gold.Chemscore.Hbonds>
donor molecule, donor type, donor heavy atom, donor atom, acceptor molecule, acceptor atom, score
      L1  H     5    26       P1  8028  0.99
      L1  H     8    27       P1  8028  1.00

> <Gold.PLP.Chemscore.Internal.Correction>
0.0383

> <Gold.Rescore>
     Score         DG    S(hbond)    S(metal)    S(lipo)     H(rot)  DE(clash)    DE(int)     intcor
     17.42     -18.83       1.95        0.00      80.45       1.00       0.03       1.38       ----

> <Gold.Chemscore.Fitness>
17.4249

> <Gold.Chemscore.DG>
-18.8330

> <Gold.Chemscore.ZeroCoef>
-5.4800

> <Gold.Chemscore.Hbond>
1.9461

> <Gold.Chemscore.Metal>
0.0000

> <Gold.Chemscore.Lipo>
80.4538

> <Gold.Chemscore.Internal_Hbond>
0.0000

> <Gold.Chemscore.DEClash>
0.0316

> <Gold.Chemscore.DEInternal>
1.3765

> <Gold.Chemscore.Rot>
1.0000

> <Gold.Chemscore.Internal.Correction>
   9.000000E+99

> <Gold.Chemscore.Hbonds>
donor molecule, donor type, donor heavy atom, donor atom, acceptor molecule, acceptor atom, score
      L1  H     5    26       P1  8028  0.94
      L1  H     8    27       P1  8028  0.98

> <Gold.Chemscore.Hbond.Weighted>
-6.4999

> <Gold.Chemscore.Metal.Weighted>
-0.0000

> <Gold.Chemscore.Lipo.Weighted>
-9.4131

> <Gold.Chemscore.Internal_Hbond.Weighted>
0.0000

> <Gold.Chemscore.DEClash.Weighted>
0.0316

> <Gold.Chemscore.DEInternal.Weighted>
1.3765

> <Gold.Chemscore.Rot.Weighted>
2.5600

> <Gold.Chemscore.Internal.Correction.Weighted>
   9.000000E+99

> <Gold.Protein.RotatedTorsions>
[ 6907 6896 6895 6894 ] final  111.23 input  -60.11 | X-H torsion
[ 7974 7965 7964 7962 ] final -163.06 input  175.53 | X-H torsion
[ 8008 7997 7996 7995 ] final   -1.60 input   59.86 | X-H torsion
[ 10167 10162 10161 10158 ] final    6.18 input  -65.29 | X-H torsion
[ 10718 10713 10712 10709 ] final  144.36 input   66.30 | X-H torsion
[ 10763 10752 10751 10750 ] final  110.35 input  -60.55 | X-H torsion
[ 11005 11000 10999 10996 ] final -160.12 input  -57.11 | X-H torsion

> <Gold.Protein.ActiveResidues>
 VAL166  LYS551  ARG553  GLY616  TRP617  ASP618  TYR619  PRO620  LYS621  CYS622 
 ASP623  PHE694  ASN695  SER759  ASP760  ASP761  ALA762  ILE779  LEU786  VAL792 
 PHE793  MET794  SER795  GLU796  ALA797  LYS798  CYS799  TRP800  GLU811  SER814 

> <Gold.Protein.RotatedAtoms>
  152.4980  133.8687  159.7287 H   0  0  0  0  0  0  0  0  0  0  0  0  # atno 6907 bound_to 6896
  150.9180  133.6907  159.2845 H   0  0  0  0  0  0  0  0  0  0  0  0  # atno 6908 bound_to 6896
  151.4293  135.1012  159.9690 H   0  0  0  0  0  0  0  0  0  0  0  0  # atno 6909 bound_to 6896
  144.7337  140.3161  143.6179 H   0  0  0  0  0  0  0  0  0  0  0  0  # atno 7974 bound_to 7965
  154.6450  140.2555  155.7278 H   0  0  0  0  0  0  0  0  0  0  0  0  # atno 8008 bound_to 7997
  156.2547  140.2879  156.0780 H   0  0  0  0  0  0  0  0  0  0  0  0  # atno 8009 bound_to 7997
  155.1538  140.0383  157.2817 H   0  0  0  0  0  0  0  0  0  0  0  0  # atno 8010 bound_to 7997
  140.6442  143.7703  150.7473 H   0  0  0  0  0  0  0  0  0  0  0  0  # atno 10167 bound_to 10162
  157.3581  131.0961  151.0940 H   0  0  0  0  0  0  0  0  0  0  0  0  # atno 10718 bound_to 10713
  153.4478  135.3751  155.2266 H   0  0  0  0  0  0  0  0  0  0  0  0  # atno 10763 bound_to 10752
  154.8755  135.3878  154.4075 H   0  0  0  0  0  0  0  0  0  0  0  0  # atno 10764 bound_to 10752
  153.4630  135.7087  153.6102 H   0  0  0  0  0  0  0  0  0  0  0  0  # atno 10765 bound_to 10752
  140.6351  134.4611  157.5231 H   0  0  0  0  0  0  0  0  0  0  0  0  # atno 11005 bound_to 11000
  145.7615  139.1826  143.2264 LP  0  0  0  0  0  0  0  0  0  0  0  0  # atno 17320 bound_to 7965
  146.0982  140.7575  142.9562 LP  0  0  0  0  0  0  0  0  0  0  0  0  # atno 17321 bound_to 7965
  140.1340  143.4500  152.2236 LP  0  0  0  0  0  0  0  0  0  0  0  0  # atno 17342 bound_to 10162
  139.5651  144.7430  151.4044 LP  0  0  0  0  0  0  0  0  0  0  0  0  # atno 17343 bound_to 10162
  157.2091  130.6429  149.5767 LP  0  0  0  0  0  0  0  0  0  0  0  0  # atno 17370 bound_to 10713
  155.9732  130.4666  150.6294 LP  0  0  0  0  0  0  0  0  0  0  0  0  # atno 17371 bound_to 10713
  139.9101  134.8363  156.1559 LP  0  0  0  0  0  0  0  0  0  0  0  0  # atno 17394 bound_to 11000
  141.0648  133.6824  156.2022 LP  0  0  0  0  0  0  0  0  0  0  0  0  # atno 17395 bound_to 11000

$$$$
