AV-unprocessed.smi:438|AV-procd|sdf|2572|dock3
  -GOLD-   2262022553D 1   1.00000     0.00000
 Structure written by MMmdl.
 47 48  0  0  0  0  0  0  0  0  2 V2000
  147.7947  133.6626  158.5478 C   0  0  0  0  0  0  0  0  0  0  0  0
  147.9709  135.0084  159.2273 C   0  0  0  0  0  0  0  0  0  0  0  0
  149.2102  135.6368  159.0200 N   0  0  0  0  0  0  0  0  0  0  0  0
  149.4333  136.7823  159.5421 C   0  0  0  0  0  0  0  0  0  0  0  0
  151.0254  137.5932  159.2905 S   0  0  0  0  0  0  0  0  0  0  0  0
  150.6309  139.1241  158.3893 C   0  0  0  0  0  0  0  0  0  0  0  0
  151.8287  140.0673  158.2813 C   0  0  0  0  0  0  0  0  0  0  0  0
  152.8424  139.7057  157.6835 O   0  0  0  0  0  0  0  0  0  0  0  0
  151.6964  141.2731  158.8563 N   0  0  0  0  0  0  0  0  0  0  0  0
  152.6700  142.3654  158.8011 C   0  0  1  0  0  0  0  0  0  0  0  0
  152.0494  143.5707  158.0659 C   0  0  0  0  0  0  0  0  0  0  0  0
  150.9641  144.2684  158.9039 C   0  0  0  0  0  0  0  0  0  0  0  0
  151.5007  144.6799  160.2817 C   0  0  0  0  0  0  0  0  0  0  0  0
  152.0858  143.4725  161.0306 C   0  0  0  0  0  0  0  0  0  0  0  0
  153.1869  142.7755  160.2060 C   0  0  1  0  0  0  0  0  0  0  0  0
  153.8285  141.6162  160.9872 C   0  0  0  0  0  0  0  0  0  0  0  0
  148.5166  137.4668  160.3055 N   0  5  0  0  0  0  0  0  0  0  0  0
  147.2996  136.9139  160.5730 C   0  0  0  0  0  0  0  0  0  0  0  0
  146.4591  137.4870  161.2654 O   0  0  0  0  0  0  0  0  0  0  0  0
  147.0067  135.5890  159.9976 C   0  0  0  0  0  0  0  0  0  0  0  0
  145.6395  134.9582  160.2667 C   0  0  0  0  0  0  0  0  0  0  0  0
  145.3813  134.6863  161.7586 C   0  0  0  0  0  0  0  0  0  0  0  0
  144.1242  134.0711  161.9483 O   0  0  0  0  0  0  0  0  0  0  0  0
  147.6721  132.8719  159.2879 H   0  0  0  0  0  0  0  0  0  0  0  0
  148.6602  133.4202  157.9319 H   0  0  0  0  0  0  0  0  0  0  0  0
  146.9229  133.6712  157.8940 H   0  0  0  0  0  0  0  0  0  0  0  0
  149.8428  139.6424  158.9356 H   0  0  0  0  0  0  0  0  0  0  0  0
  150.2197  138.8890  157.4066 H   0  0  0  0  0  0  0  0  0  0  0  0
  150.8226  141.4735  159.3211 H   0  0  0  0  0  0  0  0  0  0  0  0
  153.5261  142.0395  158.2079 H   0  0  0  0  0  0  0  0  0  0  0  0
  152.8352  144.2904  157.8337 H   0  0  0  0  0  0  0  0  0  0  0  0
  151.6351  143.2554  157.1069 H   0  0  0  0  0  0  0  0  0  0  0  0
  150.5889  145.1428  158.3717 H   0  0  0  0  0  0  0  0  0  0  0  0
  150.1133  143.6006  159.0365 H   0  0  0  0  0  0  0  0  0  0  0  0
  152.2682  145.4457  160.1623 H   0  0  0  0  0  0  0  0  0  0  0  0
  150.7022  145.1314  160.8711 H   0  0  0  0  0  0  0  0  0  0  0  0
  152.4906  143.8024  161.9880 H   0  0  0  0  0  0  0  0  0  0  0  0
  151.2893  142.7642  161.2623 H   0  0  0  0  0  0  0  0  0  0  0  0
  153.9772  143.5105  160.0459 H   0  0  0  0  0  0  0  0  0  0  0  0
  153.0951  140.8570  161.2596 H   0  0  0  0  0  0  0  0  0  0  0  0
  154.2871  141.9740  161.9092 H   0  0  0  0  0  0  0  0  0  0  0  0
  154.6087  141.1324  160.3988 H   0  0  0  0  0  0  0  0  0  0  0  0
  145.5181  134.0332  159.7048 H   0  0  0  0  0  0  0  0  0  0  0  0
  144.8668  135.6239  159.8806 H   0  0  0  0  0  0  0  0  0  0  0  0
  146.1596  134.0519  162.1832 H   0  0  0  0  0  0  0  0  0  0  0  0
  145.3944  135.6229  162.3163 H   0  0  0  0  0  0  0  0  0  0  0  0
  144.1238  133.6442  162.7912 H   0  0  0  0  0  0  0  0  0  0  0  0
  1 24  1  0  0  0  0
  1 25  1  0  0  0  0
  1 26  1  0  0  0  0
  1  2  1  0  0  0  0
  2 20  2  0  0  0  0
  2  3  1  0  0  0  0
  3  4  2  0  0  0  0
  4  5  1  0  0  0  0
  4 17  1  0  0  0  0
  5  6  1  0  0  0  0
  6  7  1  0  0  0  0
  6 27  1  0  0  0  0
  6 28  1  0  0  0  0
  7  8  2  0  0  0  0
  7  9  1  0  0  0  0
  9 10  1  0  0  0  0
  9 29  1  0  0  0  0
 10 15  1  0  0  0  0
 10 11  1  0  0  0  0
 10 30  1  0  0  0  0
 11 12  1  0  0  0  0
 11 31  1  0  0  0  0
 11 32  1  0  0  0  0
 12 13  1  0  0  0  0
 12 33  1  0  0  0  0
 12 34  1  0  0  0  0
 13 14  1  0  0  0  0
 13 35  1  0  0  0  0
 13 36  1  0  0  0  0
 14 15  1  0  0  0  0
 14 37  1  0  0  0  0
 14 38  1  0  0  0  0
 15 16  1  0  0  0  0
 15 39  1  0  0  0  0
 16 40  1  0  0  0  0
 16 41  1  0  0  0  0
 16 42  1  0  0  0  0
 17 18  1  0  0  0  0
 18 19  2  0  0  0  0
 18 20  1  0  0  0  0
 20 21  1  0  0  0  0
 21 22  1  0  0  0  0
 21 43  1  0  0  0  0
 21 44  1  0  0  0  0
 22 23  1  0  0  0  0
 22 45  1  0  0  0  0
 22 46  1  0  0  0  0
 23 47  1  0  0  0  0
M  CHG  1  17  -1
M  END
> <s_m_source_file>
AV-unprocessed.smi

> <i_m_source_file_index>
438

> <i_lp_mmshare_version>
43012

> <i_f3d_flags>
0

> <s_epik_input>
W09IXVtDSDJdW0NIMl1jMWMoW09IXSluYyhuYzFbQ0gzXSlTW0NIMl1DKD1PKVtOSF1bQ0BASF0yW0NIMl1bQ0gyXVtDSDJdW0NIMl1bQ0BIXTJbQ0gzXQ==

> <s_epik_cmdline>
J2VwaWtfcHl0aG9uJywgJy1waCcsICc3LjAnLCAnLXRuJywgJzgnLCAnLW1hJywgJzIwMCcsICctbWV0YWxfYmluZGluZycsICctaW1hZScsICc8aW5maWxlLm1hZT4nLCAnLW9tYWUnLCAnPG91dGZpbGUubWFlPic=

> <r_lp_tautomer_probability>
1

> <r_epik_Ionization_Penalty>
3.69231

> <r_epik_Ionization_Penalty_Charging>
0.00434774

> <r_epik_Ionization_Penalty_Neutral>
3.68796

> <r_epik_State_Penalty>
2.13826

> <r_epik_Charging_Adjusted_Penalty>
2.14261

> <i_epik_Tot_Q>
-1

> <i_epik_Tot_abs_Q>
1

> <r_epik_Metal_State_Penalty>
0.260979

> <b_epik_Metal_Only>
0

> <s_lp_Force_Field>
OPLS_2005

> <r_lp_Energy>
18.1923

> <b_lp_Chiralities_Consistent>
1

> <s_lp_Variant>
AV-unprocessed.smi:438-10

> <Gold.Version>
5.8.1

> <Gold.Id.Protein>
6NUR|6NUR_protein|mol2

> <Gold.PLP.Fitness>
54.9453

> <Gold.PLP.PLP>
-43.1839

> <Gold.PLP.part.hbond>
-5.1584

> <Gold.PLP.part.metal>
0.0000

> <Gold.PLP.part.buried>
-4.6348

> <Gold.PLP.part.nonpolar>
-34.6576

> <Gold.PLP.part.repulsive>
0.1378

> <Gold.PLP.ligand.clash>
0.0000

> <Gold.PLP.ligand.torsion>
0.0416

> <Gold.PLP.Chemscore.Hbond>
3.9300

> <Gold.PLP.Chemscore.CHOScore>
0.0000

> <Gold.PLP.Chemscore.Metal>
0.0000

> <Gold.Chemscore.Hbonds>
donor molecule, donor type, donor heavy atom, donor atom, acceptor molecule, acceptor atom, score
      P1  H  6896  6908       L1     3  0.99
      P1  H  6931  6943       L1    17  1.06
      P1  H  6934  6947       L1    19  0.60
      P1  H  7997  8009       L1     8  1.00

> <Gold.PLP.Chemscore.Internal.Correction>
0.0545

> <Gold.Rescore>
     Score         DG    S(hbond)    S(metal)    S(lipo)     H(rot)  DE(clash)    DE(int)     intcor
     17.62     -18.48       2.31        0.00     106.39       2.79       0.15       0.72       ----

> <Gold.Chemscore.Fitness>
17.6156

> <Gold.Chemscore.DG>
-18.4802

> <Gold.Chemscore.ZeroCoef>
-5.4800

> <Gold.Chemscore.Hbond>
2.3061

> <Gold.Chemscore.Metal>
0.0000

> <Gold.Chemscore.Lipo>
106.3856

> <Gold.Chemscore.Internal_Hbond>
0.0000

> <Gold.Chemscore.DEClash>
0.1461

> <Gold.Chemscore.DEInternal>
0.7185

> <Gold.Chemscore.Rot>
2.7927

> <Gold.Chemscore.Internal.Correction>
   9.000000E+99

> <Gold.Chemscore.Hbonds>
donor molecule, donor type, donor heavy atom, donor atom, acceptor molecule, acceptor atom, score
      P1  H  6896  6908       L1     3  0.48
      P1  H  6931  6943       L1    17  0.28
      P1  H  6934  6947       L1    19  0.04
      P1  H  7997  8009       L1     8  1.00

> <Gold.Chemscore.Hbond.Weighted>
-7.7023

> <Gold.Chemscore.Metal.Weighted>
-0.0000

> <Gold.Chemscore.Lipo.Weighted>
-12.4471

> <Gold.Chemscore.Internal_Hbond.Weighted>
0.0000

> <Gold.Chemscore.DEClash.Weighted>
0.1461

> <Gold.Chemscore.DEInternal.Weighted>
0.7185

> <Gold.Chemscore.Rot.Weighted>
7.1492

> <Gold.Chemscore.Internal.Correction.Weighted>
   9.000000E+99

> <Gold.Protein.RotatedTorsions>
[ 6907 6896 6895 6894 ] final  153.97 input  -60.11 | X-H torsion
[ 7974 7965 7964 7962 ] final  157.43 input  175.53 | X-H torsion
[ 8008 7997 7996 7995 ] final  165.65 input   59.86 | X-H torsion
[ 10167 10162 10161 10158 ] final  158.23 input  -65.29 | X-H torsion
[ 10718 10713 10712 10709 ] final   26.47 input   66.30 | X-H torsion
[ 10763 10752 10751 10750 ] final   71.15 input  -60.55 | X-H torsion
[ 11005 11000 10999 10996 ] final   -5.01 input  -57.11 | X-H torsion

> <Gold.Protein.ActiveResidues>
 VAL166  LYS551  ARG553  GLY616  TRP617  ASP618  TYR619  PRO620  LYS621  CYS622 
 ASP623  PHE694  ASN695  SER759  ASP760  ASP761  ALA762  ILE779  LEU786  VAL792 
 PHE793  MET794  SER795  GLU796  ALA797  LYS798  CYS799  TRP800  GLU811  SER814 

> <Gold.Protein.RotatedAtoms>
  152.0651  133.4080  159.4434 H   0  0  0  0  0  0  0  0  0  0  0  0  # atno 6907 bound_to 6896
  150.6865  134.3155  159.4773 H   0  0  0  0  0  0  0  0  0  0  0  0  # atno 6908 bound_to 6896
  152.0981  134.9360  160.0621 H   0  0  0  0  0  0  0  0  0  0  0  0  # atno 6909 bound_to 6896
  144.7904  139.7340  143.6224 H   0  0  0  0  0  0  0  0  0  0  0  0  # atno 7974 bound_to 7965
  156.1783  140.1664  156.8321 H   0  0  0  0  0  0  0  0  0  0  0  0  # atno 8008 bound_to 7997
  154.5331  140.0752  156.8414 H   0  0  0  0  0  0  0  0  0  0  0  0  # atno 8009 bound_to 7997
  155.3365  140.3382  155.4241 H   0  0  0  0  0  0  0  0  0  0  0  0  # atno 8010 bound_to 7997
  139.4826  144.4843  151.8399 H   0  0  0  0  0  0  0  0  0  0  0  0  # atno 10167 bound_to 10162
  157.2073  130.6917  149.6213 H   0  0  0  0  0  0  0  0  0  0  0  0  # atno 10718 bound_to 10713
  153.0382  135.5147  154.7549 H   0  0  0  0  0  0  0  0  0  0  0  0  # atno 10763 bound_to 10752
  154.6508  135.2925  154.9991 H   0  0  0  0  0  0  0  0  0  0  0  0  # atno 10764 bound_to 10752
  154.0876  135.6655  153.4900 H   0  0  0  0  0  0  0  0  0  0  0  0  # atno 10765 bound_to 10752
  140.6865  133.9108  155.8589 H   0  0  0  0  0  0  0  0  0  0  0  0  # atno 11005 bound_to 11000
  146.2153  139.5538  142.9654 LP  0  0  0  0  0  0  0  0  0  0  0  0  # atno 17320 bound_to 7965
  145.5811  141.0382  143.2122 LP  0  0  0  0  0  0  0  0  0  0  0  0  # atno 17321 bound_to 7965
  140.4322  144.2100  150.5888 LP  0  0  0  0  0  0  0  0  0  0  0  0  # atno 17342 bound_to 10162
  140.4768  143.2393  151.9012 LP  0  0  0  0  0  0  0  0  0  0  0  0  # atno 17343 bound_to 10162
  155.9694  130.4563  150.5919 LP  0  0  0  0  0  0  0  0  0  0  0  0  # atno 17370 bound_to 10713
  157.3708  131.0765  151.1559 LP  0  0  0  0  0  0  0  0  0  0  0  0  # atno 17371 bound_to 10713
  141.0276  134.0801  157.4051 LP  0  0  0  0  0  0  0  0  0  0  0  0  # atno 17394 bound_to 11000
  139.8936  135.0131  156.6908 LP  0  0  0  0  0  0  0  0  0  0  0  0  # atno 17395 bound_to 11000

$$$$
