AV-unprocessed.smi:1533|AV-procd|sdf|6165|dock1
  -GOLD-   22720 6313D 1   1.00000     0.00000
 Structure written by MMmdl.
 37 39  0  0  0  0  0  0  0  0  1 V2000
  147.8358  135.6491  161.1318 C   0  0  0  0  0  0  0  0  0  0  0  0
  148.4141  136.5583  160.1017 C   0  0  0  0  0  0  0  0  0  0  0  0
  147.8516  137.7258  159.8141 N   0  0  0  0  0  0  0  0  0  0  0  0
  148.6929  138.2550  158.8246 O   0  0  0  0  0  0  0  0  0  0  0  0
  149.6578  137.3255  158.6245 C   0  0  0  0  0  0  0  0  0  0  0  0
  150.7487  137.6149  157.6489 C   0  0  0  0  0  0  0  0  0  0  0  0
  150.6088  139.0055  157.0092 C   0  0  0  0  0  0  0  0  0  0  0  0
  150.8327  140.0695  157.9815 N   0  0  0  0  0  0  0  0  0  0  0  0
  150.7883  141.3829  157.7080 C   0  0  0  0  0  0  0  0  0  0  0  0
  150.5508  141.8233  156.5828 O   0  0  0  0  0  0  0  0  0  0  0  0
  151.0509  142.3336  158.8895 C   0  0  1  0  0  0  0  0  0  0  0  0
  152.5175  142.3024  159.3870 C   0  0  0  0  0  0  0  0  0  0  0  0
  152.9483  143.7806  159.3109 C   0  0  2  0  0  0  0  0  0  0  0  0
  152.1944  144.5907  160.3828 C   0  0  0  0  0  0  0  0  0  0  0  0
  150.7613  144.6497  159.8186 C   0  0  0  0  0  0  0  0  0  0  0  0
  150.8775  143.8291  158.5197 C   0  0  1  0  0  0  0  0  0  0  0  0
  152.2653  144.2449  158.0322 C   0  0  0  0  0  0  0  0  0  0  0  0
  149.5448  136.2554  159.4074 N   0  0  0  0  0  0  0  0  0  0  0  0
  146.8286  135.9631  161.4080 H   0  0  0  0  0  0  0  0  0  0  0  0
  148.4577  135.6527  162.0272 H   0  0  0  0  0  0  0  0  0  0  0  0
  147.7846  134.6295  160.7493 H   0  0  0  0  0  0  0  0  0  0  0  0
  151.7047  137.5283  158.1669 H   0  0  0  0  0  0  0  0  0  0  0  0
  150.7403  136.8431  156.8784 H   0  0  0  0  0  0  0  0  0  0  0  0
  151.3379  139.1202  156.2063 H   0  0  0  0  0  0  0  0  0  0  0  0
  149.6239  139.1181  156.5521 H   0  0  0  0  0  0  0  0  0  0  0  0
  151.0372  139.7878  158.9295 H   0  0  0  0  0  0  0  0  0  0  0  0
  150.3735  142.0712  159.7043 H   0  0  0  0  0  0  0  0  0  0  0  0
  152.5966  141.9073  160.4004 H   0  0  0  0  0  0  0  0  0  0  0  0
  153.1576  141.6894  158.7501 H   0  0  0  0  0  0  0  0  0  0  0  0
  154.0291  143.9227  159.3342 H   0  0  0  0  0  0  0  0  0  0  0  0
  152.2368  144.1168  161.3642 H   0  0  0  0  0  0  0  0  0  0  0  0
  152.6106  145.5947  160.4771 H   0  0  0  0  0  0  0  0  0  0  0  0
  150.0222  144.2420  160.5090 H   0  0  0  0  0  0  0  0  0  0  0  0
  150.4790  145.6806  159.6002 H   0  0  0  0  0  0  0  0  0  0  0  0
  150.0708  144.0237  157.8114 H   0  0  0  0  0  0  0  0  0  0  0  0
  152.3584  145.3186  157.8584 H   0  0  0  0  0  0  0  0  0  0  0  0
  152.6076  143.7160  157.1425 H   0  0  0  0  0  0  0  0  0  0  0  0
  1  2  1  0  0  0  0
  1 19  1  0  0  0  0
  1 20  1  0  0  0  0
  1 21  1  0  0  0  0
  2 18  1  0  0  0  0
  2  3  2  0  0  0  0
  3  4  1  0  0  0  0
  4  5  1  0  0  0  0
  5  6  1  0  0  0  0
  5 18  2  0  0  0  0
  6  7  1  0  0  0  0
  6 22  1  0  0  0  0
  6 23  1  0  0  0  0
  7  8  1  0  0  0  0
  7 24  1  0  0  0  0
  7 25  1  0  0  0  0
  8  9  1  0  0  0  0
  8 26  1  0  0  0  0
  9 10  2  0  0  0  0
  9 11  1  0  0  0  0
 11 16  1  0  0  0  0
 11 12  1  0  0  0  0
 11 27  1  0  0  0  0
 12 13  1  0  0  0  0
 12 28  1  0  0  0  0
 12 29  1  0  0  0  0
 13 17  1  0  0  0  0
 13 14  1  0  0  0  0
 13 30  1  0  0  0  0
 14 15  1  0  0  0  0
 14 31  1  0  0  0  0
 14 32  1  0  0  0  0
 15 16  1  0  0  0  0
 15 33  1  0  0  0  0
 15 34  1  0  0  0  0
 16 17  1  0  0  0  0
 16 35  1  0  0  0  0
 17 36  1  0  0  0  0
 17 37  1  0  0  0  0
M  END
> <s_m_source_file>
AV-unprocessed.smi

> <i_m_source_file_index>
1533

> <i_lp_mmshare_version>
43012

> <i_f3d_flags>
0

> <s_epik_input>
W0NIM11jMW5vYyhuMSlbQ0gyXVtDSDJdW05IXUMoPU8pW0NASF0oW0NIMl1bQ0BASF0yMylbQ0BASF0oW0NIMl0zKVtDSDJdW0NIMl0y

> <s_epik_cmdline>
J2VwaWtfcHl0aG9uJywgJy1waCcsICc3LjAnLCAnLXRuJywgJzgnLCAnLW1hJywgJzIwMCcsICctbWV0YWxfYmluZGluZycsICctaW1hZScsICc8aW5maWxlLm1hZT4nLCAnLW9tYWUnLCAnPG91dGZpbGUubWFlPic=

> <r_lp_tautomer_probability>
1

> <r_epik_Ionization_Penalty>
1.90116e-08

> <r_epik_Ionization_Penalty_Charging>
0

> <r_epik_Ionization_Penalty_Neutral>
1.90116e-08

> <r_epik_State_Penalty>
-0

> <r_epik_Charging_Adjusted_Penalty>
0

> <i_epik_Tot_Q>
0

> <i_epik_Tot_abs_Q>
0

> <r_epik_Metal_State_Penalty>
-0

> <b_epik_Metal_Only>
0

> <s_lp_Force_Field>
OPLS_2005

> <r_lp_Energy>
42.7172

> <b_lp_Chiralities_Consistent>
1

> <s_lp_Variant>
AV-unprocessed.smi:1533-4

> <Gold.Version>
5.8.1

> <Gold.Id.Protein>
6NUR|6NUR_protein|mol2

> <Gold.PLP.Fitness>
40.8243

> <Gold.PLP.PLP>
-36.2652

> <Gold.PLP.part.hbond>
-3.9918

> <Gold.PLP.part.metal>
0.0000

> <Gold.PLP.part.buried>
-5.2653

> <Gold.PLP.part.nonpolar>
-28.3296

> <Gold.PLP.part.repulsive>
0.1892

> <Gold.PLP.ligand.clash>
0.0000

> <Gold.PLP.ligand.torsion>
0.1273

> <Gold.PLP.Chemscore.Hbond>
1.5920

> <Gold.PLP.Chemscore.CHOScore>
0.0000

> <Gold.PLP.Chemscore.Metal>
0.0000

> <Gold.Chemscore.Hbonds>
donor molecule, donor type, donor heavy atom, donor atom, acceptor molecule, acceptor atom, score
      P1  H  6896  6908       L1    18  1.00
      P1  H  6934  6947       L1     3  0.59

> <Gold.PLP.Chemscore.Internal.Correction>
0.0376

> <Gold.Rescore>
     Score         DG    S(hbond)    S(metal)    S(lipo)     H(rot)  DE(clash)    DE(int)     intcor
     16.36     -16.43       1.49        0.00      91.53       1.85       0.01       0.06       ----

> <Gold.Chemscore.Fitness>
16.3563

> <Gold.Chemscore.DG>
-16.4281

> <Gold.Chemscore.ZeroCoef>
-5.4800

> <Gold.Chemscore.Hbond>
1.4888

> <Gold.Chemscore.Metal>
0.0000

> <Gold.Chemscore.Lipo>
91.5275

> <Gold.Chemscore.Internal_Hbond>
0.0000

> <Gold.Chemscore.DEClash>
0.0086

> <Gold.Chemscore.DEInternal>
0.0631

> <Gold.Chemscore.Rot>
1.8490

> <Gold.Chemscore.Internal.Correction>
   9.000000E+99

> <Gold.Chemscore.Hbonds>
donor molecule, donor type, donor heavy atom, donor atom, acceptor molecule, acceptor atom, score
      P1  H  6896  6908       L1    18  1.00
      P1  H  6934  6947       L1     3  0.47

> <Gold.Chemscore.Hbond.Weighted>
-4.9727

> <Gold.Chemscore.Metal.Weighted>
-0.0000

> <Gold.Chemscore.Lipo.Weighted>
-10.7087

> <Gold.Chemscore.Internal_Hbond.Weighted>
0.0000

> <Gold.Chemscore.DEClash.Weighted>
0.0086

> <Gold.Chemscore.DEInternal.Weighted>
0.0631

> <Gold.Chemscore.Rot.Weighted>
4.7334

> <Gold.Chemscore.Internal.Correction.Weighted>
   9.000000E+99

> <Gold.Protein.RotatedTorsions>
[ 6907 6896 6895 6894 ] final -164.73 input  -60.11 | X-H torsion
[ 7974 7965 7964 7962 ] final -146.22 input  175.53 | X-H torsion
[ 8008 7997 7996 7995 ] final  -40.18 input   59.86 | X-H torsion
[ 10167 10162 10161 10158 ] final -130.86 input  -65.29 | X-H torsion
[ 10718 10713 10712 10709 ] final -132.85 input   66.30 | X-H torsion
[ 10763 10752 10751 10750 ] final   -5.92 input  -60.55 | X-H torsion
[ 11005 11000 10999 10996 ] final  -76.07 input  -57.11 | X-H torsion

> <Gold.Protein.ActiveResidues>
 VAL166  LYS551  ARG553  GLY616  TRP617  ASP618  TYR619  PRO620  LYS621  CYS622 
 ASP623  PHE694  ASN695  SER759  ASP760  ASP761  ALA762  ILE779  LEU786  VAL792 
 PHE793  MET794  SER795  GLU796  ALA797  LYS798  CYS799  TRP800  GLU811  SER814 

> <Gold.Protein.RotatedAtoms>
  151.4165  133.3711  159.2750 H   0  0  0  0  0  0  0  0  0  0  0  0  # atno 6907 bound_to 6896
  150.9325  134.8740  159.7571 H   0  0  0  0  0  0  0  0  0  0  0  0  # atno 6908 bound_to 6896
  152.5034  134.4110  159.9501 H   0  0  0  0  0  0  0  0  0  0  0  0  # atno 6909 bound_to 6896
  144.8174  140.5484  143.5601 H   0  0  0  0  0  0  0  0  0  0  0  0  # atno 7974 bound_to 7965
  154.4015  140.1532  156.2985 H   0  0  0  0  0  0  0  0  0  0  0  0  # atno 8008 bound_to 7997
  155.8722  140.3448  155.5807 H   0  0  0  0  0  0  0  0  0  0  0  0  # atno 8009 bound_to 7997
  155.7762  140.0837  157.2073 H   0  0  0  0  0  0  0  0  0  0  0  0  # atno 8010 bound_to 7997
  139.9250  143.6338  152.2544 H   0  0  0  0  0  0  0  0  0  0  0  0  # atno 10167 bound_to 10162
  156.2388  130.7083  151.0936 H   0  0  0  0  0  0  0  0  0  0  0  0  # atno 10718 bound_to 10713
  153.4052  135.7006  153.6398 H   0  0  0  0  0  0  0  0  0  0  0  0  # atno 10763 bound_to 10752
  153.4915  135.3672  155.2494 H   0  0  0  0  0  0  0  0  0  0  0  0  # atno 10764 bound_to 10752
  154.8713  135.4090  154.3394 H   0  0  0  0  0  0  0  0  0  0  0  0  # atno 10765 bound_to 10752
  141.1651  133.6970  156.7612 H   0  0  0  0  0  0  0  0  0  0  0  0  # atno 11005 bound_to 11000
  145.5182  139.1477  143.3567 LP  0  0  0  0  0  0  0  0  0  0  0  0  # atno 17320 bound_to 7965
  146.2478  140.5323  142.8906 LP  0  0  0  0  0  0  0  0  0  0  0  0  # atno 17321 bound_to 7965
  139.6830  144.7654  151.1574 LP  0  0  0  0  0  0  0  0  0  0  0  0  # atno 17342 bound_to 10162
  140.7652  143.5697  150.9009 LP  0  0  0  0  0  0  0  0  0  0  0  0  # atno 17343 bound_to 10162
  157.7166  131.0706  150.6301 LP  0  0  0  0  0  0  0  0  0  0  0  0  # atno 17370 bound_to 10713
  156.6373  130.4448  149.5765 LP  0  0  0  0  0  0  0  0  0  0  0  0  # atno 17371 bound_to 10713
  140.2532  134.8524  157.3688 LP  0  0  0  0  0  0  0  0  0  0  0  0  # atno 17394 bound_to 11000
  140.1682  134.4642  155.7849 LP  0  0  0  0  0  0  0  0  0  0  0  0  # atno 17395 bound_to 11000

$$$$
