AV-unprocessed.smi:1128|AV-procd|sdf|4843|dock4
  -GOLD-   22720 3413D 1   1.00000     0.00000
 Structure written by MMmdl.
 38 39  0  0  0  0  0  0  0  0  1 V2000
  145.4740  138.3233  153.6330 O   0  0  0  0  0  0  0  0  0  0  0  0
  146.3987  137.7043  153.1075 C   0  0  0  0  0  0  0  0  0  0  0  0
  146.2318  136.5345  152.4747 N   0  0  0  0  0  0  0  0  0  0  0  0
  144.9569  135.8432  152.3103 C   0  0  0  0  0  0  0  0  0  0  0  0
  145.0746  134.5888  151.4193 C   0  0  1  0  0  0  0  0  0  0  0  0
  146.2119  133.6449  151.8776 C   0  0  0  0  0  0  0  0  0  0  0  0
  146.1532  132.2857  151.2036 C   0  0  0  0  0  0  0  0  0  0  0  0
  145.0803  131.8376  150.5309 C   0  0  0  0  0  0  0  0  0  0  0  0
  143.8005  132.6374  150.3757 C   0  0  0  0  0  0  0  0  0  0  0  0
  143.7365  133.8290  151.3491 C   0  0  0  0  0  0  0  0  0  0  0  0
  147.6922  138.0757  153.0902 N   0  0  0  0  0  0  0  0  0  0  0  0
  148.3054  139.2217  153.6255 C   0  0  0  0  0  0  0  0  0  0  0  0
  149.3630  139.2179  154.4791 C   0  0  0  0  0  0  0  0  0  0  0  0
  149.9449  140.4471  154.9921 C   0  0  0  0  0  0  0  0  0  0  0  0
  151.0906  140.4270  155.9921 C   0  0  0  0  0  0  0  0  0  0  0  0
  151.4315  141.6612  156.3651 F   0  0  0  0  0  0  0  0  0  0  0  0
  150.7596  139.7367  157.0834 F   0  0  0  0  0  0  0  0  0  0  0  0
  152.1586  139.8487  155.4449 F   0  0  0  0  0  0  0  0  0  0  0  0
  149.3651  141.5960  154.5986 C   0  0  0  0  0  0  0  0  0  0  0  0
  148.2803  141.6093  153.7197 N   0  0  0  0  0  0  0  0  0  0  0  0
  147.7041  140.4991  153.2068 C   0  0  0  0  0  0  0  0  0  0  0  0
  146.7426  140.5949  152.4447 O   0  0  0  0  0  0  0  0  0  0  0  0
  147.9076  142.5124  153.4642 H   0  0  0  0  0  0  0  0  0  0  0  0
  147.0451  136.0885  152.0764 H   0  0  0  0  0  0  0  0  0  0  0  0
  144.5966  135.5630  153.3005 H   0  0  0  0  0  0  0  0  0  0  0  0
  144.2168  136.5325  151.9001 H   0  0  0  0  0  0  0  0  0  0  0  0
  145.3058  134.9192  150.4052 H   0  0  0  0  0  0  0  0  0  0  0  0
  147.1817  134.0962  151.6651 H   0  0  0  0  0  0  0  0  0  0  0  0
  146.1652  133.4852  152.9553 H   0  0  0  0  0  0  0  0  0  0  0  0
  147.0299  131.6609  151.2917 H   0  0  0  0  0  0  0  0  0  0  0  0
  145.1087  130.8662  150.0594 H   0  0  0  0  0  0  0  0  0  0  0  0
  143.7448  132.9885  149.3451 H   0  0  0  0  0  0  0  0  0  0  0  0
  142.9443  131.9816  150.5352 H   0  0  0  0  0  0  0  0  0  0  0  0
  143.4772  133.4682  152.3453 H   0  0  0  0  0  0  0  0  0  0  0  0
  142.9315  134.5001  151.0472 H   0  0  0  0  0  0  0  0  0  0  0  0
  148.3331  137.4290  152.6536 H   0  0  0  0  0  0  0  0  0  0  0  0
  149.8076  138.2957  154.8142 H   0  0  0  0  0  0  0  0  0  0  0  0
  149.6768  142.5778  154.9236 H   0  0  0  0  0  0  0  0  0  0  0  0
  1  2  2  0  0  0  0
  2  3  1  0  0  0  0
  2 11  1  0  0  0  0
  3  4  1  0  0  0  0
  3 24  1  0  0  0  0
  4  5  1  0  0  0  0
  4 25  1  0  0  0  0
  4 26  1  0  0  0  0
  5 10  1  0  0  0  0
  5  6  1  0  0  0  0
  5 27  1  0  0  0  0
  6  7  1  0  0  0  0
  6 28  1  0  0  0  0
  6 29  1  0  0  0  0
  7  8  2  0  0  0  0
  7 30  1  0  0  0  0
  8  9  1  0  0  0  0
  8 31  1  0  0  0  0
  9 10  1  0  0  0  0
  9 32  1  0  0  0  0
  9 33  1  0  0  0  0
 10 34  1  0  0  0  0
 10 35  1  0  0  0  0
 11 12  1  0  0  0  0
 11 36  1  0  0  0  0
 12 21  1  0  0  0  0
 12 13  2  0  0  0  0
 13 14  1  0  0  0  0
 13 37  1  0  0  0  0
 14 15  1  0  0  0  0
 14 19  2  0  0  0  0
 15 16  1  0  0  0  0
 15 17  1  0  0  0  0
 15 18  1  0  0  0  0
 19 20  1  0  0  0  0
 19 38  1  0  0  0  0
 20 23  1  0  0  0  0
 20 21  1  0  0  0  0
 21 22  2  0  0  0  0
M  END
> <s_m_source_file>
AV-unprocessed.smi

> <i_m_source_file_index>
1128

> <i_lp_mmshare_version>
43012

> <i_f3d_flags>
0

> <s_epik_input>
Tz1jMVtuSF1bY0hdYyhDKEYpKEYpRilbY0hdYzFbTkhdQyg9TylbTkhdW0NIMl1bQ0BASF0yW0NIMl1bQ0hdPVtDSF1bQ0gyXVtDSDJdMg==

> <s_epik_cmdline>
J2VwaWtfcHl0aG9uJywgJy1waCcsICc3LjAnLCAnLXRuJywgJzgnLCAnLW1hJywgJzIwMCcsICctbWV0YWxfYmluZGluZycsICctaW1hZScsICc8aW5maWxlLm1hZT4nLCAnLW9tYWUnLCAnPG91dGZpbGUubWFlPic=

> <r_lp_tautomer_probability>
1

> <r_epik_Ionization_Penalty>
0.00381734

> <r_epik_Ionization_Penalty_Charging>
0.00379608

> <r_epik_Ionization_Penalty_Neutral>
2.12611e-05

> <r_epik_State_Penalty>
-0

> <r_epik_Charging_Adjusted_Penalty>
0.00379608

> <i_epik_Tot_Q>
0

> <i_epik_Tot_abs_Q>
0

> <r_epik_Metal_State_Penalty>
0.371155

> <b_epik_Metal_Only>
0

> <s_lp_Force_Field>
OPLS_2005

> <r_lp_Energy>
19.5554

> <b_lp_Chiralities_Consistent>
1

> <s_lp_Variant>
AV-unprocessed.smi:1128-2

> <Gold.Version>
5.8.1

> <Gold.Id.Protein>
6NUR|6NUR_protein|mol2

> <Gold.PLP.Fitness>
43.6628

> <Gold.PLP.PLP>
-37.0249

> <Gold.PLP.part.hbond>
-2.0000

> <Gold.PLP.part.metal>
0.0000

> <Gold.PLP.part.buried>
-3.5150

> <Gold.PLP.part.nonpolar>
-33.5496

> <Gold.PLP.part.repulsive>
1.2695

> <Gold.PLP.ligand.clash>
1.1091

> <Gold.PLP.ligand.torsion>
0.5384

> <Gold.PLP.Chemscore.Hbond>
1.9280

> <Gold.PLP.Chemscore.CHOScore>
1.0000

> <Gold.PLP.Chemscore.Metal>
0.0000

> <Gold.Chemscore.Hbonds>
donor molecule, donor type, donor heavy atom, donor atom, acceptor molecule, acceptor atom, score
      L1  H     3    24       P1  7948  0.91
      L1  H    11    36       P1  7948  1.00
      L1  C    19    38       P1  8028  1.00

> <Gold.PLP.Chemscore.Internal.Correction>
0.0398

> <Gold.Rescore>
     Score         DG    S(hbond)    S(metal)    S(lipo)     H(rot)  DE(clash)    DE(int)     intcor
     14.80     -17.77       1.94        0.00      78.19       1.30       0.28       2.68       ----

> <Gold.Chemscore.Fitness>
14.8038

> <Gold.Chemscore.DG>
-17.7705

> <Gold.Chemscore.ZeroCoef>
-5.4800

> <Gold.Chemscore.Hbond>
1.9402

> <Gold.Chemscore.Metal>
0.0000

> <Gold.Chemscore.Lipo>
78.1871

> <Gold.Chemscore.Internal_Hbond>
0.0000

> <Gold.Chemscore.DEClash>
0.2822

> <Gold.Chemscore.DEInternal>
2.6845

> <Gold.Chemscore.Rot>
1.3038

> <Gold.Chemscore.Internal.Correction>
   9.000000E+99

> <Gold.Chemscore.Hbonds>
donor molecule, donor type, donor heavy atom, donor atom, acceptor molecule, acceptor atom, score
      L1  H     3    24       P1  7948  0.88
      L1  H    11    36       P1  7948  0.95

> <Gold.Chemscore.Hbond.Weighted>
-6.4804

> <Gold.Chemscore.Metal.Weighted>
-0.0000

> <Gold.Chemscore.Lipo.Weighted>
-9.1479

> <Gold.Chemscore.Internal_Hbond.Weighted>
0.0000

> <Gold.Chemscore.DEClash.Weighted>
0.2822

> <Gold.Chemscore.DEInternal.Weighted>
2.6845

> <Gold.Chemscore.Rot.Weighted>
3.3377

> <Gold.Chemscore.Internal.Correction.Weighted>
   9.000000E+99

> <Gold.Protein.RotatedTorsions>
[ 6907 6896 6895 6894 ] final   73.01 input  -60.11 | X-H torsion
[ 7974 7965 7964 7962 ] final  162.12 input  175.53 | X-H torsion
[ 8008 7997 7996 7995 ] final  -92.51 input   59.86 | X-H torsion
[ 10167 10162 10161 10158 ] final  167.67 input  -65.29 | X-H torsion
[ 10718 10713 10712 10709 ] final  -47.56 input   66.30 | X-H torsion
[ 10763 10752 10751 10750 ] final   96.37 input  -60.55 | X-H torsion
[ 11005 11000 10999 10996 ] final -127.42 input  -57.11 | X-H torsion

> <Gold.Protein.ActiveResidues>
 VAL166  LYS551  ARG553  GLY616  TRP617  ASP618  TYR619  PRO620  LYS621  CYS622 
 ASP623  PHE694  ASN695  SER759  ASP760  ASP761  ALA762  ILE779  LEU786  VAL792 
 PHE793  MET794  SER795  GLU796  ALA797  LYS798  CYS799  TRP800  GLU811  SER814 

> <Gold.Protein.RotatedAtoms>
  152.4900  134.4485  159.9566 H   0  0  0  0  0  0  0  0  0  0  0  0  # atno 6907 bound_to 6896
  151.4474  133.3620  159.2798 H   0  0  0  0  0  0  0  0  0  0  0  0  # atno 6908 bound_to 6896
  150.9045  134.8483  159.7443 H   0  0  0  0  0  0  0  0  0  0  0  0  # atno 6909 bound_to 6896
  144.7652  139.7994  143.6318 H   0  0  0  0  0  0  0  0  0  0  0  0  # atno 7974 bound_to 7965
  154.7241  140.0508  157.0666 H   0  0  0  0  0  0  0  0  0  0  0  0  # atno 8008 bound_to 7997
  155.0388  140.3166  155.4713 H   0  0  0  0  0  0  0  0  0  0  0  0  # atno 8009 bound_to 7997
  156.2824  140.2136  156.5512 H   0  0  0  0  0  0  0  0  0  0  0  0  # atno 8010 bound_to 7997
  139.4950  144.3896  151.9531 H   0  0  0  0  0  0  0  0  0  0  0  0  # atno 10167 bound_to 10162
  156.2072  130.4159  149.9162 H   0  0  0  0  0  0  0  0  0  0  0  0  # atno 10718 bound_to 10713
  153.2642  135.4221  155.0924 H   0  0  0  0  0  0  0  0  0  0  0  0  # atno 10763 bound_to 10752
  154.8431  135.3456  154.6335 H   0  0  0  0  0  0  0  0  0  0  0  0  # atno 10764 bound_to 10752
  153.6755  135.7041  153.5191 H   0  0  0  0  0  0  0  0  0  0  0  0  # atno 10765 bound_to 10752
  140.9600  134.0948  157.3977 H   0  0  0  0  0  0  0  0  0  0  0  0  # atno 11005 bound_to 11000
  146.1753  139.4921  142.9901 LP  0  0  0  0  0  0  0  0  0  0  0  0  # atno 17320 bound_to 7965
  145.6492  141.0267  143.1769 LP  0  0  0  0  0  0  0  0  0  0  0  0  # atno 17321 bound_to 7965
  140.3334  144.3290  150.5982 LP  0  0  0  0  0  0  0  0  0  0  0  0  # atno 17342 bound_to 10162
  140.5626  143.2190  151.7738 LP  0  0  0  0  0  0  0  0  0  0  0  0  # atno 17343 bound_to 10162
  156.6852  130.8874  151.3581 LP  0  0  0  0  0  0  0  0  0  0  0  0  # atno 17370 bound_to 10713
  157.7019  130.9342  150.0810 LP  0  0  0  0  0  0  0  0  0  0  0  0  # atno 17371 bound_to 10713
  139.8875  135.0090  156.6564 LP  0  0  0  0  0  0  0  0  0  0  0  0  # atno 17394 bound_to 11000
  140.7480  133.8921  155.8326 LP  0  0  0  0  0  0  0  0  0  0  0  0  # atno 17395 bound_to 11000

$$$$
