AV-unprocessed.smi:2926|AV-procd|sdf|11227|dock1
  -GOLD-   2272016113D 1   1.00000     0.00000
 Structure written by MMmdl.
 32 32  0  0  0  0  0  0  0  0  1 V2000
  144.0835  136.3459  152.1449 C   0  0  0  0  0  0  0  0  0  0  0  0
  145.4790  136.0464  152.7191 C   0  0  0  0  0  0  0  0  0  0  0  0
  145.4085  134.9390  153.7879 C   0  0  0  0  0  0  0  0  0  0  0  0
  146.1922  137.3397  153.1977 C   0  0  2  0  0  0  0  0  0  0  0  0
  146.4307  138.3836  152.0848 C   0  0  0  0  0  0  0  0  0  0  0  0
  146.5709  137.7583  150.8270 O   0  0  0  0  0  0  0  0  0  0  0  0
  147.4675  136.9957  153.8400 N   0  0  0  0  0  0  0  0  0  0  0  0
  148.1503  138.0642  155.0128 S   0  0  0  0  0  0  0  0  0  0  0  0
  147.0898  138.9892  155.4413 O   0  0  0  0  0  0  0  0  0  0  0  0
  148.8654  137.2509  156.0087 O   0  0  0  0  0  0  0  0  0  0  0  0
  149.3924  138.9951  154.0210 C   0  0  0  0  0  0  0  0  0  0  0  0
  150.7473  138.8519  154.6528 C   0  0  0  0  0  0  0  0  0  0  0  0
  151.5420  137.6793  154.7832 C   0  0  0  0  0  0  0  0  0  0  0  0
  152.6612  138.1231  155.4265 C   0  0  0  0  0  0  0  0  0  0  0  0
  152.5684  139.4532  155.6784 O   0  0  0  0  0  0  0  0  0  0  0  0
  151.3419  139.9094  155.1824 N   0  0  0  0  0  0  0  0  0  0  0  0
  145.5535  137.8028  153.9511 H   0  0  0  0  0  0  0  0  0  0  0  0
  143.4060  136.7247  152.9108 H   0  0  0  0  0  0  0  0  0  0  0  0
  143.6327  135.4477  151.7220 H   0  0  0  0  0  0  0  0  0  0  0  0
  144.1357  137.0900  151.3496 H   0  0  0  0  0  0  0  0  0  0  0  0
  146.0609  135.6431  151.8897 H   0  0  0  0  0  0  0  0  0  0  0  0
  144.8375  135.2556  154.6609 H   0  0  0  0  0  0  0  0  0  0  0  0
  146.4001  134.6398  154.1258 H   0  0  0  0  0  0  0  0  0  0  0  0
  144.9258  134.0465  153.3891 H   0  0  0  0  0  0  0  0  0  0  0  0
  145.5865  139.0697  152.0146 H   0  0  0  0  0  0  0  0  0  0  0  0
  147.3120  138.9918  152.2871 H   0  0  0  0  0  0  0  0  0  0  0  0
  145.8911  138.0802  150.2545 H   0  0  0  0  0  0  0  0  0  0  0  0
  148.1626  136.7209  153.1462 H   0  0  0  0  0  0  0  0  0  0  0  0
  149.3812  138.6059  153.0023 H   0  0  0  0  0  0  0  0  0  0  0  0
  149.0891  140.0410  153.9817 H   0  0  0  0  0  0  0  0  0  0  0  0
  151.3267  136.6741  154.4525 H   0  0  0  0  0  0  0  0  0  0  0  0
  153.5672  137.6387  155.7594 H   0  0  0  0  0  0  0  0  0  0  0  0
  1  2  1  0  0  0  0
  1 18  1  0  0  0  0
  1 19  1  0  0  0  0
  1 20  1  0  0  0  0
  2  3  1  0  0  0  0
  2  4  1  0  0  0  0
  2 21  1  0  0  0  0
  3 22  1  0  0  0  0
  3 23  1  0  0  0  0
  3 24  1  0  0  0  0
  4 17  1  0  0  0  0
  4  5  1  0  0  0  0
  4  7  1  0  0  0  0
  5  6  1  0  0  0  0
  5 25  1  0  0  0  0
  5 26  1  0  0  0  0
  6 27  1  0  0  0  0
  7  8  1  0  0  0  0
  7 28  1  0  0  0  0
  8  9  2  0  0  0  0
  8 10  2  0  0  0  0
  8 11  1  0  0  0  0
 11 12  1  0  0  0  0
 11 29  1  0  0  0  0
 11 30  1  0  0  0  0
 12 16  2  0  0  0  0
 12 13  1  0  0  0  0
 13 14  2  0  0  0  0
 13 31  1  0  0  0  0
 14 15  1  0  0  0  0
 14 32  1  0  0  0  0
 15 16  1  0  0  0  0
M  END
> <s_m_source_file>
AV-unprocessed.smi

> <i_m_source_file_index>
2926

> <i_lp_mmshare_version>
43012

> <i_f3d_flags>
0

> <s_epik_input>
W0NIM11bQ0hdKFtDSDNdKVtDQEBIXShbQ0gyXVtPSF0pW05IXVMoPU8pKD1PKVtDSDJdYzFbY0hdW2NIXW9uMQ==

> <s_epik_cmdline>
J2VwaWtfcHl0aG9uJywgJy1waCcsICc3LjAnLCAnLXRuJywgJzgnLCAnLW1hJywgJzIwMCcsICctbWV0YWxfYmluZGluZycsICctaW1hZScsICc8aW5maWxlLm1hZT4nLCAnLW9tYWUnLCAnPG91dGZpbGUubWFlPic=

> <r_lp_tautomer_probability>
1

> <r_epik_Ionization_Penalty>
0.000193122

> <r_epik_Ionization_Penalty_Charging>
0

> <r_epik_Ionization_Penalty_Neutral>
0.000193122

> <r_epik_State_Penalty>
-0

> <r_epik_Charging_Adjusted_Penalty>
0

> <i_epik_Tot_Q>
0

> <i_epik_Tot_abs_Q>
0

> <r_epik_Metal_State_Penalty>
0.130256

> <b_epik_Metal_Only>
0

> <s_lp_Force_Field>
OPLS_2005

> <r_lp_Energy>
0.568984

> <b_lp_Chiralities_Consistent>
1

> <s_lp_Variant>
AV-unprocessed.smi:2926-2

> <Gold.Version>
5.8.1

> <Gold.Id.Protein>
6NUR|6NUR_protein|mol2

> <Gold.PLP.Fitness>
38.9258

> <Gold.PLP.PLP>
-26.1733

> <Gold.PLP.part.hbond>
-6.7583

> <Gold.PLP.part.metal>
0.0000

> <Gold.PLP.part.buried>
-1.2211

> <Gold.PLP.part.nonpolar>
-19.0580

> <Gold.PLP.part.repulsive>
0.1208

> <Gold.PLP.ligand.clash>
0.0000

> <Gold.PLP.ligand.torsion>
1.2513

> <Gold.PLP.Chemscore.Hbond>
4.9913

> <Gold.PLP.Chemscore.CHOScore>
0.0000

> <Gold.PLP.Chemscore.Metal>
0.0000

> <Gold.Chemscore.Hbonds>
donor molecule, donor type, donor heavy atom, donor atom, acceptor molecule, acceptor atom, score
      L1  H     6    27       P1 10171  0.80
      L1  H     7    28       P1  7948  1.00
      P1  H  7954  7966       L1     6  1.00
      P1  H  7989  7998       L1    16  0.85
      P1  H  7997  8009       L1    15  1.00

> <Gold.PLP.Chemscore.Internal.Correction>
0.2812

> <Gold.Rescore>
     Score         DG    S(hbond)    S(metal)    S(lipo)     H(rot)  DE(clash)    DE(int)     intcor
     16.45     -19.07       4.44        0.00      54.20       2.96       1.58       1.03       ----

> <Gold.Chemscore.Fitness>
16.4526

> <Gold.Chemscore.DG>
-19.0672

> <Gold.Chemscore.ZeroCoef>
-5.4800

> <Gold.Chemscore.Hbond>
4.4354

> <Gold.Chemscore.Metal>
0.0000

> <Gold.Chemscore.Lipo>
54.1992

> <Gold.Chemscore.Internal_Hbond>
0.0000

> <Gold.Chemscore.DEClash>
1.5812

> <Gold.Chemscore.DEInternal>
1.0333

> <Gold.Chemscore.Rot>
2.9564

> <Gold.Chemscore.Internal.Correction>
   9.000000E+99

> <Gold.Chemscore.Hbonds>
donor molecule, donor type, donor heavy atom, donor atom, acceptor molecule, acceptor atom, score
      L1  H     6    27       P1 10171  0.77
      L1  H     7    28       P1  7948  0.98
      P1  H  7954  7966       L1     6  0.59
      P1  H  7989  7998       L1    16  0.10
      P1  H  7997  8009       L1    15  0.68

> <Gold.Chemscore.Hbond.Weighted>
-14.8144

> <Gold.Chemscore.Metal.Weighted>
-0.0000

> <Gold.Chemscore.Lipo.Weighted>
-6.3413

> <Gold.Chemscore.Internal_Hbond.Weighted>
0.0000

> <Gold.Chemscore.DEClash.Weighted>
1.5812

> <Gold.Chemscore.DEInternal.Weighted>
1.0333

> <Gold.Chemscore.Rot.Weighted>
7.5685

> <Gold.Chemscore.Internal.Correction.Weighted>
   9.000000E+99

> <Gold.Protein.RotatedTorsions>
[ 6907 6896 6895 6894 ] final -124.91 input  -60.11 | X-H torsion
[ 7974 7965 7964 7962 ] final   40.93 input  175.53 | X-H torsion
[ 8008 7997 7996 7995 ] final -149.21 input   59.86 | X-H torsion
[ 10167 10162 10161 10158 ] final  152.10 input  -65.29 | X-H torsion
[ 10718 10713 10712 10709 ] final  141.92 input   66.30 | X-H torsion
[ 10763 10752 10751 10750 ] final  147.79 input  -60.55 | X-H torsion
[ 11005 11000 10999 10996 ] final   47.40 input  -57.11 | X-H torsion

> <Gold.Protein.ActiveResidues>
 VAL166  LYS551  ARG553  GLY616  TRP617  ASP618  TYR619  PRO620  LYS621  CYS622 
 ASP623  PHE694  ASN695  SER759  ASP760  ASP761  ALA762  ILE779  LEU786  VAL792 
 PHE793  MET794  SER795  GLU796  ALA797  LYS798  CYS799  TRP800  GLU811  SER814 

> <Gold.Protein.RotatedAtoms>
  150.8815  133.7366  159.2930 H   0  0  0  0  0  0  0  0  0  0  0  0  # atno 6907 bound_to 6896
  151.4946  135.1057  159.9822 H   0  0  0  0  0  0  0  0  0  0  0  0  # atno 6908 bound_to 6896
  152.4762  133.8099  159.7053 H   0  0  0  0  0  0  0  0  0  0  0  0  # atno 6909 bound_to 6896
  146.0865  139.5475  142.9503 H   0  0  0  0  0  0  0  0  0  0  0  0  # atno 7974 bound_to 7965
  155.6039  140.0665  157.2725 H   0  0  0  0  0  0  0  0  0  0  0  0  # atno 8008 bound_to 7997
  154.4271  140.1813  156.1249 H   0  0  0  0  0  0  0  0  0  0  0  0  # atno 8009 bound_to 7997
  156.0137  140.3324  155.6971 H   0  0  0  0  0  0  0  0  0  0  0  0  # atno 8010 bound_to 7997
  139.4835  144.5386  151.7603 H   0  0  0  0  0  0  0  0  0  0  0  0  # atno 10167 bound_to 10162
  157.3865  131.0999  151.0688 H   0  0  0  0  0  0  0  0  0  0  0  0  # atno 10718 bound_to 10713
  154.0441  135.2887  155.3350 H   0  0  0  0  0  0  0  0  0  0  0  0  # atno 10763 bound_to 10752
  154.6911  135.5226  153.8396 H   0  0  0  0  0  0  0  0  0  0  0  0  # atno 10764 bound_to 10752
  153.0588  135.6605  154.0642 H   0  0  0  0  0  0  0  0  0  0  0  0  # atno 10765 bound_to 10752
  140.1283  134.4739  155.8542 H   0  0  0  0  0  0  0  0  0  0  0  0  # atno 11005 bound_to 11000
  145.6120  141.0338  143.1961 LP  0  0  0  0  0  0  0  0  0  0  0  0  # atno 17320 bound_to 7965
  144.7329  139.7671  143.7340 LP  0  0  0  0  0  0  0  0  0  0  0  0  # atno 17321 bound_to 7965
  140.4922  144.1293  150.5953 LP  0  0  0  0  0  0  0  0  0  0  0  0  # atno 17342 bound_to 10162
  140.4158  143.2635  151.9777 LP  0  0  0  0  0  0  0  0  0  0  0  0  # atno 17343 bound_to 10162
  157.1738  130.6279  149.5649 LP  0  0  0  0  0  0  0  0  0  0  0  0  # atno 17370 bound_to 10713
  155.9788  130.4776  150.6677 LP  0  0  0  0  0  0  0  0  0  0  0  0  # atno 17371 bound_to 10713
  141.2165  133.6786  156.7020 LP  0  0  0  0  0  0  0  0  0  0  0  0  # atno 17394 bound_to 11000
  140.2876  134.8267  157.3988 LP  0  0  0  0  0  0  0  0  0  0  0  0  # atno 17395 bound_to 11000

$$$$
