AV-unprocessed.smi:1295|AV-procd|sdf|5403|dock3
  -GOLD-   22720 4563D 1   1.00000     0.00000
 Structure written by MMmdl.
 43 44  0  0  0  0  0  0  0  0  1 V2000
  151.2708  145.4296  158.7079 C   0  0  0  0  0  0  0  0  0  0  0  0
  151.5160  143.9384  158.6190 C   0  0  0  0  0  0  0  0  0  0  0  0
  152.2836  143.2846  159.4275 N   0  0  0  0  0  0  0  0  0  0  0  0
  152.4302  141.9023  159.2480 C   0  0  0  0  0  0  0  0  0  0  0  0
  153.3337  141.2029  160.2487 C   0  0  0  0  0  0  0  0  0  0  0  0
  151.7886  141.2390  158.2420 C   0  0  0  0  0  0  0  0  0  0  0  0
  151.9120  139.7286  158.0335 C   0  0  0  0  0  0  0  0  0  0  0  0
  151.8848  139.2600  156.5770 C   0  0  0  0  0  0  0  0  0  0  0  0
  152.8312  139.5070  155.8309 O   0  0  0  0  0  0  0  0  0  0  0  0
  150.7930  138.5800  156.1967 N   0  0  0  0  0  0  0  0  0  0  0  0
  150.5611  137.9558  154.8963 C   0  0  2  0  0  0  0  0  0  0  0  0
  149.5930  138.8159  154.0592 C   0  0  0  0  0  0  0  0  0  0  0  0
  148.1658  138.8082  154.6346 C   0  0  0  0  0  0  0  0  0  0  0  0
  147.6387  137.3742  154.7943 C   0  0  0  0  0  0  0  0  0  0  0  0
  148.5891  136.5183  155.6470 C   0  0  0  0  0  0  0  0  0  0  0  0
  150.0214  136.5144  155.0719 C   0  0  2  0  0  0  0  0  0  0  0  0
  150.9601  135.6255  155.9074 C   0  0  0  0  0  0  0  0  0  0  0  0
  150.9110  141.9950  157.3273 C   0  0  0  0  0  0  0  0  0  0  0  0
  150.2694  141.4947  156.4049 O   0  0  0  0  0  0  0  0  0  0  0  0
  150.8294  143.3214  157.5746 N   0  0  0  0  0  0  0  0  0  0  0  0
  150.2402  143.8826  156.9769 H   0  0  0  0  0  0  0  0  0  0  0  0
  150.8495  145.6826  159.6810 H   0  0  0  0  0  0  0  0  0  0  0  0
  150.5784  145.7711  157.9372 H   0  0  0  0  0  0  0  0  0  0  0  0
  152.2090  145.9722  158.5888 H   0  0  0  0  0  0  0  0  0  0  0  0
  154.1815  140.7408  159.7428 H   0  0  0  0  0  0  0  0  0  0  0  0
  152.7844  140.4298  160.7863 H   0  0  0  0  0  0  0  0  0  0  0  0
  153.7270  141.9042  160.9858 H   0  0  0  0  0  0  0  0  0  0  0  0
  152.8231  139.3493  158.4975 H   0  0  0  0  0  0  0  0  0  0  0  0
  151.1019  139.2338  158.5698 H   0  0  0  0  0  0  0  0  0  0  0  0
  150.0670  138.4494  156.8860 H   0  0  0  0  0  0  0  0  0  0  0  0
  151.5069  137.8922  154.3554 H   0  0  0  0  0  0  0  0  0  0  0  0
  149.9622  139.8399  153.9890 H   0  0  0  0  0  0  0  0  0  0  0  0
  149.5669  138.4332  153.0380 H   0  0  0  0  0  0  0  0  0  0  0  0
  148.1535  139.3128  155.6017 H   0  0  0  0  0  0  0  0  0  0  0  0
  147.5011  139.3771  153.9839 H   0  0  0  0  0  0  0  0  0  0  0  0
  146.6472  137.3922  155.2477 H   0  0  0  0  0  0  0  0  0  0  0  0
  147.5200  136.9176  153.8109 H   0  0  0  0  0  0  0  0  0  0  0  0
  148.5988  136.8944  156.6710 H   0  0  0  0  0  0  0  0  0  0  0  0
  148.2078  135.4982  155.7007 H   0  0  0  0  0  0  0  0  0  0  0  0
  149.9688  136.0692  154.0771 H   0  0  0  0  0  0  0  0  0  0  0  0
  151.0232  135.9621  156.9428 H   0  0  0  0  0  0  0  0  0  0  0  0
  151.9697  135.6259  155.4957 H   0  0  0  0  0  0  0  0  0  0  0  0
  150.6110  134.5927  155.9195 H   0  0  0  0  0  0  0  0  0  0  0  0
  1  2  1  0  0  0  0
  1 22  1  0  0  0  0
  1 23  1  0  0  0  0
  1 24  1  0  0  0  0
  2 20  1  0  0  0  0
  2  3  2  0  0  0  0
  3  4  1  0  0  0  0
  4  5  1  0  0  0  0
  4  6  2  0  0  0  0
  5 25  1  0  0  0  0
  5 26  1  0  0  0  0
  5 27  1  0  0  0  0
  6  7  1  0  0  0  0
  6 18  1  0  0  0  0
  7  8  1  0  0  0  0
  7 28  1  0  0  0  0
  7 29  1  0  0  0  0
  8  9  2  0  0  0  0
  8 10  1  0  0  0  0
 10 11  1  0  0  0  0
 10 30  1  0  0  0  0
 11 16  1  0  0  0  0
 11 12  1  0  0  0  0
 11 31  1  0  0  0  0
 12 13  1  0  0  0  0
 12 32  1  0  0  0  0
 12 33  1  0  0  0  0
 13 14  1  0  0  0  0
 13 34  1  0  0  0  0
 13 35  1  0  0  0  0
 14 15  1  0  0  0  0
 14 36  1  0  0  0  0
 14 37  1  0  0  0  0
 15 16  1  0  0  0  0
 15 38  1  0  0  0  0
 15 39  1  0  0  0  0
 16 17  1  0  0  0  0
 16 40  1  0  0  0  0
 17 41  1  0  0  0  0
 17 42  1  0  0  0  0
 17 43  1  0  0  0  0
 18 19  2  0  0  0  0
 18 20  1  0  0  0  0
 20 21  1  0  0  0  0
M  END
> <s_m_source_file>
AV-unprocessed.smi

> <i_m_source_file_index>
1295

> <i_lp_mmshare_version>
43012

> <i_f3d_flags>
0

> <s_epik_input>
W0NIM11jMW5jKFtDSDNdKWMoYyg9TylbbkhdMSlbQ0gyXUMoPU8pW05IXVtDQEBIXTJbQ0gyXVtDSDJdW0NIMl1bQ0gyXVtDQEhdMltDSDNd

> <s_epik_cmdline>
J2VwaWtfcHl0aG9uJywgJy1waCcsICc3LjAnLCAnLXRuJywgJzgnLCAnLW1hJywgJzIwMCcsICctbWV0YWxfYmluZGluZycsICctaW1hZScsICc8aW5maWxlLm1hZT4nLCAnLW9tYWUnLCAnPG91dGZpbGUubWFlPic=

> <r_lp_tautomer_probability>
0.839158

> <r_epik_Ionization_Penalty>
0.00037085

> <r_epik_Ionization_Penalty_Charging>
0.000336002

> <r_epik_Ionization_Penalty_Neutral>
3.48485e-05

> <r_epik_State_Penalty>
0.09125

> <r_epik_Charging_Adjusted_Penalty>
0.091586

> <i_epik_Tot_Q>
0

> <i_epik_Tot_abs_Q>
0

> <r_epik_Metal_State_Penalty>
0.251445

> <b_epik_Metal_Only>
0

> <s_lp_Force_Field>
OPLS_2005

> <r_lp_Energy>
10.0645

> <b_lp_Chiralities_Consistent>
1

> <s_lp_Variant>
AV-unprocessed.smi:1295-3

> <Gold.Version>
5.8.1

> <Gold.Id.Protein>
6NUR|6NUR_protein|mol2

> <Gold.PLP.Fitness>
36.3681

> <Gold.PLP.PLP>
-31.7624

> <Gold.PLP.part.hbond>
-1.9054

> <Gold.PLP.part.metal>
0.0000

> <Gold.PLP.part.buried>
-4.5647

> <Gold.PLP.part.nonpolar>
-25.3037

> <Gold.PLP.part.repulsive>
0.1045

> <Gold.PLP.ligand.clash>
0.0000

> <Gold.PLP.ligand.torsion>
0.6170

> <Gold.PLP.Chemscore.Hbond>
1.9425

> <Gold.PLP.Chemscore.CHOScore>
0.0000

> <Gold.PLP.Chemscore.Metal>
0.0000

> <Gold.Chemscore.Hbonds>
donor molecule, donor type, donor heavy atom, donor atom, acceptor molecule, acceptor atom, score
      L1  H    20    21       P1  8028  0.96
      P1  H  7997  8009       L1     9  1.00

> <Gold.PLP.Chemscore.Internal.Correction>
0.0122

> <Gold.Rescore>
     Score         DG    S(hbond)    S(metal)    S(lipo)     H(rot)  DE(clash)    DE(int)     intcor
     14.65     -16.86       1.95        0.00      73.88       1.48       0.55       1.67       ----

> <Gold.Chemscore.Fitness>
14.6452

> <Gold.Chemscore.DG>
-16.8611

> <Gold.Chemscore.ZeroCoef>
-5.4800

> <Gold.Chemscore.Hbond>
1.9538

> <Gold.Chemscore.Metal>
0.0000

> <Gold.Chemscore.Lipo>
73.8850

> <Gold.Chemscore.Internal_Hbond>
0.0000

> <Gold.Chemscore.DEClash>
0.5467

> <Gold.Chemscore.DEInternal>
1.6693

> <Gold.Chemscore.Rot>
1.4801

> <Gold.Chemscore.Internal.Correction>
   9.000000E+99

> <Gold.Chemscore.Hbonds>
donor molecule, donor type, donor heavy atom, donor atom, acceptor molecule, acceptor atom, score
      L1  H    20    21       P1  8028  0.89
      P1  H  7997  8009       L1     9  1.00

> <Gold.Chemscore.Hbond.Weighted>
-6.5257

> <Gold.Chemscore.Metal.Weighted>
-0.0000

> <Gold.Chemscore.Lipo.Weighted>
-8.6445

> <Gold.Chemscore.Internal_Hbond.Weighted>
0.0000

> <Gold.Chemscore.DEClash.Weighted>
0.5467

> <Gold.Chemscore.DEInternal.Weighted>
1.6693

> <Gold.Chemscore.Rot.Weighted>
3.7891

> <Gold.Chemscore.Internal.Correction.Weighted>
   9.000000E+99

> <Gold.Protein.RotatedTorsions>
[ 6907 6896 6895 6894 ] final  -87.63 input  -60.11 | X-H torsion
[ 7974 7965 7964 7962 ] final   91.43 input  175.53 | X-H torsion
[ 8008 7997 7996 7995 ] final -152.68 input   59.86 | X-H torsion
[ 10167 10162 10161 10158 ] final   29.83 input  -65.29 | X-H torsion
[ 10718 10713 10712 10709 ] final  -22.00 input   66.30 | X-H torsion
[ 10763 10752 10751 10750 ] final   96.99 input  -60.55 | X-H torsion
[ 11005 11000 10999 10996 ] final -105.33 input  -57.11 | X-H torsion

> <Gold.Protein.ActiveResidues>
 VAL166  LYS551  ARG553  GLY616  TRP617  ASP618  TYR619  PRO620  LYS621  CYS622 
 ASP623  PHE694  ASN695  SER759  ASP760  ASP761  ALA762  ILE779  LEU786  VAL792 
 PHE793  MET794  SER795  GLU796  ALA797  LYS798  CYS799  TRP800  GLU811  SER814 

> <Gold.Protein.RotatedAtoms>
  150.6867  134.2866  159.4648 H   0  0  0  0  0  0  0  0  0  0  0  0  # atno 6907 bound_to 6896
  152.0775  134.9491  160.0583 H   0  0  0  0  0  0  0  0  0  0  0  0  # atno 6908 bound_to 6896
  152.0856  133.4140  159.4558 H   0  0  0  0  0  0  0  0  0  0  0  0  # atno 6909 bound_to 6896
  145.5058  139.2276  143.2752 H   0  0  0  0  0  0  0  0  0  0  0  0  # atno 7974 bound_to 7965
  155.6589  140.0720  157.2561 H   0  0  0  0  0  0  0  0  0  0  0  0  # atno 8008 bound_to 7997
  154.4146  140.1720  156.1805 H   0  0  0  0  0  0  0  0  0  0  0  0  # atno 8009 bound_to 7997
  155.9714  140.3361  155.6582 H   0  0  0  0  0  0  0  0  0  0  0  0  # atno 8010 bound_to 7997
  140.4731  144.0731  150.6243 H   0  0  0  0  0  0  0  0  0  0  0  0  # atno 10167 bound_to 10162
  156.5105  130.4609  149.6650 H   0  0  0  0  0  0  0  0  0  0  0  0  # atno 10718 bound_to 10713
  153.2716  135.4199  155.0993 H   0  0  0  0  0  0  0  0  0  0  0  0  # atno 10763 bound_to 10752
  154.8458  135.3473  154.6237 H   0  0  0  0  0  0  0  0  0  0  0  0  # atno 10764 bound_to 10752
  153.6657  135.7046  153.5220 H   0  0  0  0  0  0  0  0  0  0  0  0  # atno 10765 bound_to 10752
  141.1058  133.8799  157.1721 H   0  0  0  0  0  0  0  0  0  0  0  0  # atno 11005 bound_to 11000
  146.2198  140.5862  142.9022 LP  0  0  0  0  0  0  0  0  0  0  0  0  # atno 17320 bound_to 7965
  144.7755  140.5729  143.6641 LP  0  0  0  0  0  0  0  0  0  0  0  0  # atno 17321 bound_to 7965
  140.3952  143.2732  152.0013 LP  0  0  0  0  0  0  0  0  0  0  0  0  # atno 17342 bound_to 10162
  139.4821  144.6044  151.7547 LP  0  0  0  0  0  0  0  0  0  0  0  0  # atno 17343 bound_to 10162
  156.3245  130.7298  151.2216 LP  0  0  0  0  0  0  0  0  0  0  0  0  # atno 17370 bound_to 10713
  157.7451  131.0447  150.4805 LP  0  0  0  0  0  0  0  0  0  0  0  0  # atno 17371 bound_to 10713
  139.9928  135.0058  157.0014 LP  0  0  0  0  0  0  0  0  0  0  0  0  # atno 17394 bound_to 11000
  140.4905  134.1198  155.7232 LP  0  0  0  0  0  0  0  0  0  0  0  0  # atno 17395 bound_to 11000

$$$$
