AV-unprocessed.smi:2025|AV-procd|sdf|8198|dock5
  -GOLD-   2272010453D 1   1.00000     0.00000
 Structure written by MMmdl.
 39 40  0  0  0  0  0  0  0  0  1 V2000
  145.0970  134.4586  153.5776 C   0  0  0  0  0  0  0  0  0  0  0  0
  145.7707  134.7178  152.2223 C   0  0  1  0  0  0  0  0  0  0  0  0
  147.1490  134.2343  152.2828 N   0  0  0  0  0  0  0  0  0  0  0  0
  147.5503  133.0528  152.7768 C   0  0  0  0  0  0  0  0  0  0  0  0
  146.7814  132.2261  153.2691 O   0  0  0  0  0  0  0  0  0  0  0  0
  149.0601  132.7836  152.7292 C   0  0  0  0  0  0  0  0  0  0  0  0
  149.6635  132.6702  154.0632 N   0  0  0  0  0  0  0  0  0  0  0  0
  149.8373  133.8038  154.8359 C   0  0  0  0  0  0  0  0  0  0  0  0
  150.3660  133.7838  156.0789 C   0  0  0  0  0  0  0  0  0  0  0  0
  150.7980  132.5321  156.6888 C   0  0  0  0  0  0  0  0  0  0  0  0
  151.2654  132.4663  157.8262 O   0  0  0  0  0  0  0  0  0  0  0  0
  150.6241  131.3902  155.8706 N   0  0  0  0  0  0  0  0  0  0  0  0
  151.0084  130.0973  156.3985 C   0  0  0  0  0  0  0  0  0  0  0  0
  150.0532  131.4154  154.5786 C   0  0  0  0  0  0  0  0  0  0  0  0
  149.8892  130.3870  153.9175 O   0  0  0  0  0  0  0  0  0  0  0  0
  145.0127  134.0392  151.0631 C   0  0  2  0  0  0  0  0  0  0  0  0
  144.0005  132.9741  151.4896 C   0  0  0  0  0  0  0  0  0  0  0  0
  143.8844  132.1434  150.2328 C   0  0  0  0  0  0  0  0  0  0  0  0
  145.3229  132.1417  149.7236 C   0  0  0  0  0  0  0  0  0  0  0  0
  145.9186  133.3418  150.2113 O   0  0  0  0  0  0  0  0  0  0  0  0
  144.0765  134.8423  153.5903 H   0  0  0  0  0  0  0  0  0  0  0  0
  145.6403  134.9502  154.3853 H   0  0  0  0  0  0  0  0  0  0  0  0
  145.0543  133.3929  153.8046 H   0  0  0  0  0  0  0  0  0  0  0  0
  145.7615  135.7958  152.0531 H   0  0  0  0  0  0  0  0  0  0  0  0
  147.8572  134.8490  151.9085 H   0  0  0  0  0  0  0  0  0  0  0  0
  149.2598  131.8802  152.1503 H   0  0  0  0  0  0  0  0  0  0  0  0
  149.5314  133.5969  152.1760 H   0  0  0  0  0  0  0  0  0  0  0  0
  149.5282  134.7561  154.4302 H   0  0  0  0  0  0  0  0  0  0  0  0
  150.4678  134.7063  156.6314 H   0  0  0  0  0  0  0  0  0  0  0  0
  151.4682  129.5155  155.5980 H   0  0  0  0  0  0  0  0  0  0  0  0
  150.0979  129.6223  156.7663 H   0  0  0  0  0  0  0  0  0  0  0  0
  151.7427  130.2147  157.1958 H   0  0  0  0  0  0  0  0  0  0  0  0
  144.5015  134.7903  150.4585 H   0  0  0  0  0  0  0  0  0  0  0  0
  144.4004  132.3665  152.3028 H   0  0  0  0  0  0  0  0  0  0  0  0
  143.0476  133.3947  151.8123 H   0  0  0  0  0  0  0  0  0  0  0  0
  143.4942  131.1415  150.4131 H   0  0  0  0  0  0  0  0  0  0  0  0
  143.2312  132.6417  149.5154 H   0  0  0  0  0  0  0  0  0  0  0  0
  145.8727  131.2934  150.1326 H   0  0  0  0  0  0  0  0  0  0  0  0
  145.3749  132.0864  148.6363 H   0  0  0  0  0  0  0  0  0  0  0  0
  1  2  1  0  0  0  0
  1 21  1  0  0  0  0
  1 22  1  0  0  0  0
  1 23  1  0  0  0  0
  2  3  1  0  0  0  0
  2 16  1  0  0  0  0
  2 24  1  0  0  0  0
  3  4  1  0  0  0  0
  3 25  1  0  0  0  0
  4  5  2  0  0  0  0
  4  6  1  0  0  0  0
  6  7  1  0  0  0  0
  6 26  1  0  0  0  0
  6 27  1  0  0  0  0
  7 14  1  0  0  0  0
  7  8  1  0  0  0  0
  8  9  2  0  0  0  0
  8 28  1  0  0  0  0
  9 10  1  0  0  0  0
  9 29  1  0  0  0  0
 10 11  2  0  0  0  0
 10 12  1  0  0  0  0
 12 13  1  0  0  0  0
 12 14  1  0  0  0  0
 13 30  1  0  0  0  0
 13 31  1  0  0  0  0
 13 32  1  0  0  0  0
 14 15  2  0  0  0  0
 16 20  1  0  0  0  0
 16 17  1  0  0  0  0
 16 33  1  0  0  0  0
 17 18  1  0  0  0  0
 17 34  1  0  0  0  0
 17 35  1  0  0  0  0
 18 19  1  0  0  0  0
 18 36  1  0  0  0  0
 18 37  1  0  0  0  0
 19 20  1  0  0  0  0
 19 38  1  0  0  0  0
 19 39  1  0  0  0  0
M  END
> <s_m_source_file>
AV-unprocessed.smi

> <i_m_source_file_index>
2025

> <i_lp_mmshare_version>
43012

> <i_f3d_flags>
0

> <s_epik_input>
TzFbQ0gyXVtDSDJdW0NIMl1bQ0BIXTFbQ0BIXShbQ0gzXSlbTkhdQyg9TylbQ0gyXW4yW2NIXVtjSF1jKD1PKW4oW0NIM10pYzI9Tw==

> <s_epik_cmdline>
J2VwaWtfcHl0aG9uJywgJy1waCcsICc3LjAnLCAnLXRuJywgJzgnLCAnLW1hJywgJzIwMCcsICctbWV0YWxfYmluZGluZycsICctaW1hZScsICc8aW5maWxlLm1hZT4nLCAnLW9tYWUnLCAnPG91dGZpbGUubWFlPic=

> <r_lp_tautomer_probability>
1

> <r_epik_Ionization_Penalty>
3.54787e-08

> <r_epik_Ionization_Penalty_Charging>
1.24654e-08

> <r_epik_Ionization_Penalty_Neutral>
2.30132e-08

> <r_epik_State_Penalty>
-0

> <r_epik_Charging_Adjusted_Penalty>
1.24654e-08

> <i_epik_Tot_Q>
0

> <i_epik_Tot_abs_Q>
0

> <r_epik_Metal_State_Penalty>
-0

> <b_epik_Metal_Only>
0

> <s_lp_Force_Field>
OPLS_2005

> <r_lp_Energy>
25.7305

> <b_lp_Chiralities_Consistent>
1

> <s_lp_Variant>
AV-unprocessed.smi:2025-2

> <Gold.Version>
5.8.1

> <Gold.Id.Protein>
6NUR|6NUR_protein|mol2

> <Gold.PLP.Fitness>
35.4620

> <Gold.PLP.PLP>
-32.8350

> <Gold.PLP.part.hbond>
-2.0000

> <Gold.PLP.part.metal>
0.0000

> <Gold.PLP.part.buried>
-5.0465

> <Gold.PLP.part.nonpolar>
-27.0482

> <Gold.PLP.part.repulsive>
1.2905

> <Gold.PLP.ligand.clash>
0.0000

> <Gold.PLP.ligand.torsion>
1.6958

> <Gold.PLP.Chemscore.Hbond>
2.0000

> <Gold.PLP.Chemscore.CHOScore>
0.0000

> <Gold.PLP.Chemscore.Metal>
0.0000

> <Gold.Chemscore.Hbonds>
donor molecule, donor type, donor heavy atom, donor atom, acceptor molecule, acceptor atom, score
      L1  H     3    25       P1  7948  1.00
      P1  H  6896  6909       L1    11  1.00

> <Gold.PLP.Chemscore.Internal.Correction>
0.0185

> <Gold.Rescore>
     Score         DG    S(hbond)    S(metal)    S(lipo)     H(rot)  DE(clash)    DE(int)     intcor
     11.16     -14.14       1.89        0.00      59.93       1.82       0.07       2.90       ----

> <Gold.Chemscore.Fitness>
11.1633

> <Gold.Chemscore.DG>
-14.1355

> <Gold.Chemscore.ZeroCoef>
-5.4800

> <Gold.Chemscore.Hbond>
1.8893

> <Gold.Chemscore.Metal>
0.0000

> <Gold.Chemscore.Lipo>
59.9291

> <Gold.Chemscore.Internal_Hbond>
0.0000

> <Gold.Chemscore.DEClash>
0.0720

> <Gold.Chemscore.DEInternal>
2.9002

> <Gold.Chemscore.Rot>
1.8228

> <Gold.Chemscore.Internal.Correction>
   9.000000E+99

> <Gold.Chemscore.Hbonds>
donor molecule, donor type, donor heavy atom, donor atom, acceptor molecule, acceptor atom, score
      L1  H     3    25       P1  7948  0.45
      P1  H  6896  6909       L1    11  0.99

> <Gold.Chemscore.Hbond.Weighted>
-6.3102

> <Gold.Chemscore.Metal.Weighted>
-0.0000

> <Gold.Chemscore.Lipo.Weighted>
-7.0117

> <Gold.Chemscore.Internal_Hbond.Weighted>
0.0000

> <Gold.Chemscore.DEClash.Weighted>
0.0720

> <Gold.Chemscore.DEInternal.Weighted>
2.9002

> <Gold.Chemscore.Rot.Weighted>
4.6665

> <Gold.Chemscore.Internal.Correction.Weighted>
   9.000000E+99

> <Gold.Protein.RotatedTorsions>
[ 6907 6896 6895 6894 ] final  -53.42 input  -60.11 | X-H torsion
[ 7974 7965 7964 7962 ] final -150.67 input  175.53 | X-H torsion
[ 8008 7997 7996 7995 ] final  158.90 input   59.86 | X-H torsion
[ 10167 10162 10161 10158 ] final  118.62 input  -65.29 | X-H torsion
[ 10718 10713 10712 10709 ] final  148.78 input   66.30 | X-H torsion
[ 10763 10752 10751 10750 ] final  157.91 input  -60.55 | X-H torsion
[ 11005 11000 10999 10996 ] final   92.47 input  -57.11 | X-H torsion

> <Gold.Protein.ActiveResidues>
 VAL166  LYS551  ARG553  GLY616  TRP617  ASP618  TYR619  PRO620  LYS621  CYS622 
 ASP623  PHE694  ASN695  SER759  ASP760  ASP761  ALA762  ILE779  LEU786  VAL792 
 PHE793  MET794  SER795  GLU796  ALA797  LYS798  CYS799  TRP800  GLU811  SER814 

> <Gold.Protein.RotatedAtoms>
  150.8429  134.7727  159.6946 H   0  0  0  0  0  0  0  0  0  0  0  0  # atno 6907 bound_to 6896
  152.4512  134.5386  159.9842 H   0  0  0  0  0  0  0  0  0  0  0  0  # atno 6908 bound_to 6896
  151.5522  133.3378  159.2991 H   0  0  0  0  0  0  0  0  0  0  0  0  # atno 6909 bound_to 6896
  144.7894  140.4900  143.5783 H   0  0  0  0  0  0  0  0  0  0  0  0  # atno 7974 bound_to 7965
  156.2274  140.1846  156.7330 H   0  0  0  0  0  0  0  0  0  0  0  0  # atno 8008 bound_to 7997
  154.5963  140.0643  156.9336 H   0  0  0  0  0  0  0  0  0  0  0  0  # atno 8009 bound_to 7997
  155.2249  140.3310  155.4313 H   0  0  0  0  0  0  0  0  0  0  0  0  # atno 8010 bound_to 7997
  139.6099  144.7079  151.2868 H   0  0  0  0  0  0  0  0  0  0  0  0  # atno 10167 bound_to 10162
  157.3043  131.0876  151.1366 H   0  0  0  0  0  0  0  0  0  0  0  0  # atno 10718 bound_to 10713
  154.2077  135.2787  155.2969 H   0  0  0  0  0  0  0  0  0  0  0  0  # atno 10763 bound_to 10752
  154.5803  135.5591  153.7183 H   0  0  0  0  0  0  0  0  0  0  0  0  # atno 10764 bound_to 10752
  153.0072  135.6343  154.2216 H   0  0  0  0  0  0  0  0  0  0  0  0  # atno 10765 bound_to 10752
  139.8823  134.8734  156.3577 H   0  0  0  0  0  0  0  0  0  0  0  0  # atno 11005 bound_to 11000
  145.5835  139.1490  143.3222 LP  0  0  0  0  0  0  0  0  0  0  0  0  # atno 17320 bound_to 7965
  146.2140  140.5964  142.9047 LP  0  0  0  0  0  0  0  0  0  0  0  0  # atno 17321 bound_to 7965
  140.7312  143.6859  150.7962 LP  0  0  0  0  0  0  0  0  0  0  0  0  # atno 17342 bound_to 10162
  140.0452  143.5305  152.2699 LP  0  0  0  0  0  0  0  0  0  0  0  0  # atno 17343 bound_to 10162
  157.2713  130.6705  149.6021 LP  0  0  0  0  0  0  0  0  0  0  0  0  # atno 17370 bound_to 10713
  155.9673  130.4478  150.5595 LP  0  0  0  0  0  0  0  0  0  0  0  0  # atno 17371 bound_to 10713
  140.9551  133.7425  156.0324 LP  0  0  0  0  0  0  0  0  0  0  0  0  # atno 17394 bound_to 11000
  140.8058  134.3456  157.5426 LP  0  0  0  0  0  0  0  0  0  0  0  0  # atno 17395 bound_to 11000

$$$$
