AV-unprocessed.smi:499|AV-procd|sdf|2732|dock1
  -GOLD-   2262023183D 1   1.00000     0.00000
 Structure written by MMmdl.
 36 37  0  0  0  0  0  0  0  0  1 V2000
  150.9827  139.1342  158.0526 C   0  0  0  0  0  0  0  0  0  0  0  0
  150.4552  138.1042  157.0334 C   0  0  1  0  0  0  0  0  0  0  0  0
  151.4891  137.0710  156.8121 C   0  0  0  0  0  0  0  0  0  0  0  0
  152.2982  136.2614  156.6387 N   0  0  0  0  0  0  0  0  0  0  0  0
  149.2243  137.5012  157.5513 N   0  0  0  0  0  0  0  0  0  0  0  0
  149.0736  136.8013  158.6883 C   0  0  0  0  0  0  0  0  0  0  0  0
  149.9969  136.5698  159.4696 O   0  0  0  0  0  0  0  0  0  0  0  0
  147.6568  136.2774  158.9648 C   0  0  0  0  0  0  0  0  0  0  0  0
  147.5430  135.5341  160.2313 N   0  0  0  0  0  0  0  0  0  0  0  0
  147.6397  134.1302  160.1616 C   0  0  0  0  0  0  0  0  0  0  0  0
  147.5697  133.3359  161.2471 C   0  0  0  0  0  0  0  0  0  0  0  0
  147.6238  131.8201  161.1377 C   0  0  0  0  0  0  0  0  0  0  0  0
  146.4875  131.2698  161.5658 F   0  0  0  0  0  0  0  0  0  0  0  0
  147.8280  131.4328  159.8779 F   0  0  0  0  0  0  0  0  0  0  0  0
  148.6203  131.3472  161.8846 F   0  0  0  0  0  0  0  0  0  0  0  0
  147.3518  133.9981  162.5181 C   0  0  0  0  0  0  0  0  0  0  0  0
  147.2522  135.3391  162.6018 C   0  0  0  0  0  0  0  0  0  0  0  0
  147.3557  136.1914  161.4150 C   0  0  0  0  0  0  0  0  0  0  0  0
  147.2779  137.4185  161.4798 O   0  0  0  0  0  0  0  0  0  0  0  0
  150.1693  138.8286  155.7194 C   0  0  0  0  0  0  0  0  0  0  0  0
  151.2247  139.0529  154.6593 C   0  0  0  0  0  0  0  0  0  0  0  0
  150.6714  140.2271  155.4365 C   0  0  0  0  0  0  0  0  0  0  0  0
  151.8756  139.6346  157.6761 H   0  0  0  0  0  0  0  0  0  0  0  0
  151.2535  138.6686  159.0005 H   0  0  0  0  0  0  0  0  0  0  0  0
  150.2390  139.9038  158.2627 H   0  0  0  0  0  0  0  0  0  0  0  0
  148.4013  137.6274  156.9804 H   0  0  0  0  0  0  0  0  0  0  0  0
  146.9574  137.1156  158.9564 H   0  0  0  0  0  0  0  0  0  0  0  0
  147.3565  135.6489  158.1253 H   0  0  0  0  0  0  0  0  0  0  0  0
  147.7790  133.7390  159.1643 H   0  0  0  0  0  0  0  0  0  0  0  0
  147.2726  133.4087  163.4197 H   0  0  0  0  0  0  0  0  0  0  0  0
  147.0934  135.7987  163.5664 H   0  0  0  0  0  0  0  0  0  0  0  0
  149.1727  138.6171  155.3350 H   0  0  0  0  0  0  0  0  0  0  0  0
  152.2467  138.7460  154.8717 H   0  0  0  0  0  0  0  0  0  0  0  0
  150.9184  138.9499  153.6204 H   0  0  0  0  0  0  0  0  0  0  0  0
  149.9988  140.9036  154.9130 H   0  0  0  0  0  0  0  0  0  0  0  0
  151.3241  140.6988  156.1681 H   0  0  0  0  0  0  0  0  0  0  0  0
  1  2  1  0  0  0  0
  1 23  1  0  0  0  0
  1 24  1  0  0  0  0
  1 25  1  0  0  0  0
  2  3  1  0  0  0  0
  2  5  1  0  0  0  0
  2 20  1  0  0  0  0
  3  4  3  0  0  0  0
  5  6  1  0  0  0  0
  5 26  1  0  0  0  0
  6  7  2  0  0  0  0
  6  8  1  0  0  0  0
  8  9  1  0  0  0  0
  8 27  1  0  0  0  0
  8 28  1  0  0  0  0
  9 18  1  0  0  0  0
  9 10  1  0  0  0  0
 10 11  2  0  0  0  0
 10 29  1  0  0  0  0
 11 12  1  0  0  0  0
 11 16  1  0  0  0  0
 12 13  1  0  0  0  0
 12 14  1  0  0  0  0
 12 15  1  0  0  0  0
 16 17  2  0  0  0  0
 16 30  1  0  0  0  0
 17 18  1  0  0  0  0
 17 31  1  0  0  0  0
 18 19  2  0  0  0  0
 20 22  1  0  0  0  0
 20 21  1  0  0  0  0
 20 32  1  0  0  0  0
 21 22  1  0  0  0  0
 21 33  1  0  0  0  0
 21 34  1  0  0  0  0
 22 35  1  0  0  0  0
 22 36  1  0  0  0  0
M  END
> <s_m_source_file>
AV-unprocessed.smi

> <i_m_source_file_index>
499

> <i_lp_mmshare_version>
43012

> <i_f3d_flags>
0

> <s_epik_input>
W0NIMl0xW0NIMl1bQ0hdMVtDQF0oW0NIM10pKEMjTilbTkhdQyg9TylbQ0gyXW4yW2NIXWMoQyhGKShGKUYpW2NIXVtjSF1jMj1P

> <s_epik_cmdline>
J2VwaWtfcHl0aG9uJywgJy1waCcsICc3LjAnLCAnLXRuJywgJzgnLCAnLW1hJywgJzIwMCcsICctbWV0YWxfYmluZGluZycsICctaW1hZScsICc8aW5maWxlLm1hZT4nLCAnLW9tYWUnLCAnPG91dGZpbGUubWFlPic=

> <r_lp_tautomer_probability>
1

> <r_epik_Ionization_Penalty>
4.79953e-07

> <r_epik_Ionization_Penalty_Charging>
1.46911e-08

> <r_epik_Ionization_Penalty_Neutral>
4.65262e-07

> <r_epik_State_Penalty>
-0

> <r_epik_Charging_Adjusted_Penalty>
1.46911e-08

> <i_epik_Tot_Q>
0

> <i_epik_Tot_abs_Q>
0

> <r_epik_Metal_State_Penalty>
-0

> <b_epik_Metal_Only>
0

> <s_lp_Force_Field>
OPLS_2005

> <r_lp_Energy>
24.0499

> <b_lp_Chiralities_Consistent>
1

> <s_lp_Variant>
AV-unprocessed.smi:499-1

> <Gold.Version>
5.8.1

> <Gold.Id.Protein>
6NUR|6NUR_protein|mol2

> <Gold.PLP.Fitness>
45.5015

> <Gold.PLP.PLP>
-37.3922

> <Gold.PLP.part.hbond>
-4.0000

> <Gold.PLP.part.metal>
0.0000

> <Gold.PLP.part.buried>
-2.8283

> <Gold.PLP.part.nonpolar>
-29.9721

> <Gold.PLP.part.repulsive>
0.0434

> <Gold.PLP.ligand.clash>
1.1257

> <Gold.PLP.ligand.torsion>
1.8087

> <Gold.PLP.Chemscore.Hbond>
3.7280

> <Gold.PLP.Chemscore.CHOScore>
0.0000

> <Gold.PLP.Chemscore.Metal>
0.0000

> <Gold.Chemscore.Hbonds>
donor molecule, donor type, donor heavy atom, donor atom, acceptor molecule, acceptor atom, score
      P1  H  6896  6907       L1     7  1.00
      P1  H  6931  6943       L1    19  0.77
      P1  H  6934  6947       L1    19  0.93
      P1  H 10752 10765       L1     4  1.00

> <Gold.PLP.Chemscore.Internal.Correction>
1.6684

> <Gold.Rescore>
     Score         DG    S(hbond)    S(metal)    S(lipo)     H(rot)  DE(clash)    DE(int)     intcor
     18.11     -20.37       3.72        0.00      62.59       1.90       0.05       2.21       ----

> <Gold.Chemscore.Fitness>
18.1073

> <Gold.Chemscore.DG>
-20.3651

> <Gold.Chemscore.ZeroCoef>
-5.4800

> <Gold.Chemscore.Hbond>
3.7226

> <Gold.Chemscore.Metal>
0.0000

> <Gold.Chemscore.Lipo>
62.5932

> <Gold.Chemscore.Internal_Hbond>
0.0000

> <Gold.Chemscore.DEClash>
0.0504

> <Gold.Chemscore.DEInternal>
2.2074

> <Gold.Chemscore.Rot>
1.9030

> <Gold.Chemscore.Internal.Correction>
   9.000000E+99

> <Gold.Chemscore.Hbonds>
donor molecule, donor type, donor heavy atom, donor atom, acceptor molecule, acceptor atom, score
      P1  H  6896  6907       L1     7  1.00
      P1  H  6931  6943       L1    19  0.63
      P1  H  6934  6947       L1    19  0.90
      P1  H 10752 10765       L1     4  0.99

> <Gold.Chemscore.Hbond.Weighted>
-12.4335

> <Gold.Chemscore.Metal.Weighted>
-0.0000

> <Gold.Chemscore.Lipo.Weighted>
-7.3234

> <Gold.Chemscore.Internal_Hbond.Weighted>
0.0000

> <Gold.Chemscore.DEClash.Weighted>
0.0504

> <Gold.Chemscore.DEInternal.Weighted>
2.2074

> <Gold.Chemscore.Rot.Weighted>
4.8718

> <Gold.Chemscore.Internal.Correction.Weighted>
   9.000000E+99

> <Gold.Protein.RotatedTorsions>
[ 6907 6896 6895 6894 ] final  -32.14 input  -60.11 | X-H torsion
[ 7974 7965 7964 7962 ] final  -94.96 input  175.53 | X-H torsion
[ 8008 7997 7996 7995 ] final -179.70 input   59.86 | X-H torsion
[ 10167 10162 10161 10158 ] final  -87.71 input  -65.29 | X-H torsion
[ 10718 10713 10712 10709 ] final   90.62 input   66.30 | X-H torsion
[ 10763 10752 10751 10750 ] final -138.81 input  -60.55 | X-H torsion
[ 11005 11000 10999 10996 ] final   47.49 input  -57.11 | X-H torsion

> <Gold.Protein.ActiveResidues>
 VAL166  LYS551  ARG553  GLY616  TRP617  ASP618  TYR619  PRO620  LYS621  CYS622 
 ASP623  PHE694  ASN695  SER759  ASP760  ASP761  ALA762  ILE779  LEU786  VAL792 
 PHE793  MET794  SER795  GLU796  ALA797  LYS798  CYS799  TRP800  GLU811  SER814 

> <Gold.Protein.RotatedAtoms>
  151.0827  134.9868  159.8363 H   0  0  0  0  0  0  0  0  0  0  0  0  # atno 6907 bound_to 6896
  152.5421  134.2162  159.8779 H   0  0  0  0  0  0  0  0  0  0  0  0  # atno 6908 bound_to 6896
  151.2193  133.4467  159.2634 H   0  0  0  0  0  0  0  0  0  0  0  0  # atno 6909 bound_to 6896
  145.3664  140.9499  143.2472 H   0  0  0  0  0  0  0  0  0  0  0  0  # atno 7974 bound_to 7965
  156.0335  140.1287  157.0233 H   0  0  0  0  0  0  0  0  0  0  0  0  # atno 8008 bound_to 7997
  154.4360  140.1044  156.6204 H   0  0  0  0  0  0  0  0  0  0  0  0  # atno 8009 bound_to 7997
  155.5772  140.3467  155.4533 H   0  0  0  0  0  0  0  0  0  0  0  0  # atno 8010 bound_to 7997
  140.3818  143.2745  151.9374 H   0  0  0  0  0  0  0  0  0  0  0  0  # atno 10167 bound_to 10162
  157.6959  131.0377  150.3605 H   0  0  0  0  0  0  0  0  0  0  0  0  # atno 10718 bound_to 10713
  154.8627  135.3601  154.5444 H   0  0  0  0  0  0  0  0  0  0  0  0  # atno 10763 bound_to 10752
  153.6065  135.7011  153.5368 H   0  0  0  0  0  0  0  0  0  0  0  0  # atno 10764 bound_to 10752
  153.3246  135.4141  155.1406 H   0  0  0  0  0  0  0  0  0  0  0  0  # atno 10765 bound_to 10752
  140.1274  134.4750  155.8548 H   0  0  0  0  0  0  0  0  0  0  0  0  # atno 11005 bound_to 11000
  144.8608  139.5180  143.6813 LP  0  0  0  0  0  0  0  0  0  0  0  0  # atno 17320 bound_to 7965
  146.2905  139.7125  142.9164 LP  0  0  0  0  0  0  0  0  0  0  0  0  # atno 17321 bound_to 7965
  139.4795  144.5811  151.7931 LP  0  0  0  0  0  0  0  0  0  0  0  0  # atno 17342 bound_to 10162
  140.4929  144.1283  150.5954 LP  0  0  0  0  0  0  0  0  0  0  0  0  # atno 17343 bound_to 10162
  156.4042  130.3921  149.6937 LP  0  0  0  0  0  0  0  0  0  0  0  0  # atno 17370 bound_to 10713
  156.4244  130.7784  151.2803 LP  0  0  0  0  0  0  0  0  0  0  0  0  # atno 17371 bound_to 10713
  141.2164  133.6783  156.7005 LP  0  0  0  0  0  0  0  0  0  0  0  0  # atno 17394 bound_to 11000
  140.2886  134.8259  157.3997 LP  0  0  0  0  0  0  0  0  0  0  0  0  # atno 17395 bound_to 11000

$$$$
