AV-unprocessed.smi:1570|AV-procd|sdf|6313|dock9
  -GOLD-   22720 6513D 1   1.00000     0.00000
 Structure written by MMmdl.
 51 53  0  0  0  0  0  0  0  0  1 V2000
  153.3429  142.1472  162.0387 C   0  0  0  0  0  0  0  0  0  0  0  0
  154.0113  141.2739  160.9696 C   0  0  0  0  0  0  0  0  0  0  0  0
  153.2014  141.2110  159.7553 N   0  0  0  0  0  0  0  0  0  0  0  0
  152.7665  140.0899  159.1340 C   0  0  0  0  0  0  0  0  0  0  0  0
  152.9860  138.9334  159.4942 O   0  0  0  0  0  0  0  0  0  0  0  0
  152.0421  140.4607  158.0514 N   0  0  0  0  0  0  0  0  0  0  0  0
  151.4028  139.5625  157.0870 C   0  0  0  0  0  0  0  0  0  0  0  0
  151.5290  140.0639  155.6296 C   0  0  1  0  0  0  0  0  0  0  0  0
  152.8766  140.0017  155.2108 O   0  0  0  0  0  0  0  0  0  0  0  0
  150.6077  139.3657  154.6007 C   0  0  0  0  0  0  0  0  0  0  0  0
  149.1680  139.5837  154.7559 N   0  0  0  0  0  0  0  0  0  0  0  0
  148.3609  138.6453  153.9821 C   0  0  0  0  0  0  0  0  0  0  0  0
  146.8515  138.9011  154.1595 C   0  0  2  0  0  0  0  0  0  0  0  0
  146.0012  137.9811  153.2775 C   0  0  0  0  0  0  0  0  0  0  0  0
  146.5593  140.2518  153.8115 O   0  0  0  0  0  0  0  0  0  0  0  0
  147.2925  141.2020  154.5791 C   0  0  2  0  0  0  0  0  0  0  0  0
  146.8825  142.6078  154.1289 C   0  0  0  0  0  0  0  0  0  0  0  0
  148.7984  140.9442  154.3865 C   0  0  0  0  0  0  0  0  0  0  0  0
  151.9841  141.8635  157.9992 C   0  0  0  0  0  0  0  0  0  0  0  0
  151.3473  142.7361  157.0979 C   0  0  0  0  0  0  0  0  0  0  0  0
  151.4948  144.1243  157.3232 C   0  0  0  0  0  0  0  0  0  0  0  0
  152.2523  144.6052  158.4218 C   0  0  0  0  0  0  0  0  0  0  0  0
  152.8781  143.7078  159.3178 C   0  0  0  0  0  0  0  0  0  0  0  0
  152.7192  142.3333  159.0678 C   0  0  0  0  0  0  0  0  0  0  0  0
  153.9579  142.1983  162.9372 H   0  0  0  0  0  0  0  0  0  0  0  0
  152.3701  141.7456  162.3248 H   0  0  0  0  0  0  0  0  0  0  0  0
  153.1932  143.1660  161.6799 H   0  0  0  0  0  0  0  0  0  0  0  0
  155.0005  141.6657  160.7312 H   0  0  0  0  0  0  0  0  0  0  0  0
  154.1722  140.2682  161.3604 H   0  0  0  0  0  0  0  0  0  0  0  0
  151.8618  138.5767  157.1770 H   0  0  0  0  0  0  0  0  0  0  0  0
  150.3533  139.4211  157.3435 H   0  0  0  0  0  0  0  0  0  0  0  0
  151.2804  141.1252  155.6100 H   0  0  0  0  0  0  0  0  0  0  0  0
  152.9620  139.3017  154.5815 H   0  0  0  0  0  0  0  0  0  0  0  0
  150.8980  139.7507  153.6221 H   0  0  0  0  0  0  0  0  0  0  0  0
  150.8268  138.2975  154.5640 H   0  0  0  0  0  0  0  0  0  0  0  0
  148.6231  138.7182  152.9254 H   0  0  0  0  0  0  0  0  0  0  0  0
  148.5759  137.6226  154.2888 H   0  0  0  0  0  0  0  0  0  0  0  0
  146.5745  138.7391  155.2024 H   0  0  0  0  0  0  0  0  0  0  0  0
  146.1823  136.9327  153.5153 H   0  0  0  0  0  0  0  0  0  0  0  0
  146.2264  138.1290  152.2209 H   0  0  0  0  0  0  0  0  0  0  0  0
  144.9385  138.1760  153.4224 H   0  0  0  0  0  0  0  0  0  0  0  0
  147.0326  141.0826  155.6324 H   0  0  0  0  0  0  0  0  0  0  0  0
  147.4108  143.3719  154.6996 H   0  0  0  0  0  0  0  0  0  0  0  0
  145.8132  142.7659  154.2721 H   0  0  0  0  0  0  0  0  0  0  0  0
  147.1042  142.7644  153.0728 H   0  0  0  0  0  0  0  0  0  0  0  0
  149.3628  141.6555  154.9908 H   0  0  0  0  0  0  0  0  0  0  0  0
  149.0716  141.1311  153.3467 H   0  0  0  0  0  0  0  0  0  0  0  0
  150.7734  142.3711  156.2598 H   0  0  0  0  0  0  0  0  0  0  0  0
  151.0255  144.8262  156.6495 H   0  0  0  0  0  0  0  0  0  0  0  0
  152.3516  145.6695  158.5765 H   0  0  0  0  0  0  0  0  0  0  0  0
  153.4531  144.0685  160.1577 H   0  0  0  0  0  0  0  0  0  0  0  0
  1  2  1  0  0  0  0
  1 25  1  0  0  0  0
  1 26  1  0  0  0  0
  1 27  1  0  0  0  0
  2  3  1  0  0  0  0
  2 28  1  0  0  0  0
  2 29  1  0  0  0  0
  3 24  1  0  0  0  0
  3  4  1  0  0  0  0
  4  5  2  0  0  0  0
  4  6  1  0  0  0  0
  6  7  1  0  0  0  0
  6 19  1  0  0  0  0
  7  8  1  0  0  0  0
  7 30  1  0  0  0  0
  7 31  1  0  0  0  0
  8  9  1  0  0  0  0
  8 10  1  0  0  0  0
  8 32  1  0  0  0  0
  9 33  1  0  0  0  0
 10 11  1  0  0  0  0
 10 34  1  0  0  0  0
 10 35  1  0  0  0  0
 11 18  1  0  0  0  0
 11 12  1  0  0  0  0
 12 13  1  0  0  0  0
 12 36  1  0  0  0  0
 12 37  1  0  0  0  0
 13 14  1  0  0  0  0
 13 15  1  0  0  0  0
 13 38  1  0  0  0  0
 14 39  1  0  0  0  0
 14 40  1  0  0  0  0
 14 41  1  0  0  0  0
 15 16  1  0  0  0  0
 16 17  1  0  0  0  0
 16 18  1  0  0  0  0
 16 42  1  0  0  0  0
 17 43  1  0  0  0  0
 17 44  1  0  0  0  0
 17 45  1  0  0  0  0
 18 46  1  0  0  0  0
 18 47  1  0  0  0  0
 19 24  2  0  0  0  0
 19 20  1  0  0  0  0
 20 21  2  0  0  0  0
 20 48  1  0  0  0  0
 21 22  1  0  0  0  0
 21 49  1  0  0  0  0
 22 23  2  0  0  0  0
 22 50  1  0  0  0  0
 23 24  1  0  0  0  0
 23 51  1  0  0  0  0
M  END
> <s_m_source_file>
AV-unprocessed.smi

> <i_m_source_file_index>
1570

> <i_lp_mmshare_version>
43012

> <i_f3d_flags>
0

> <s_epik_input>
W2NIXTFbY0hdW2NIXVtjSF1jKGMxMiluKFtDSDJdW0NIM10pYyg9TyluMltDSDJdW0NASF0oW09IXSlbQ0gyXU4zW0NIMl1bQ0BASF0oW0NIM10pT1tDQEBIXShbQ0gzXSlbQ0gyXTM=

> <s_epik_cmdline>
J2VwaWtfcHl0aG9uJywgJy1waCcsICc3LjAnLCAnLXRuJywgJzgnLCAnLW1hJywgJzIwMCcsICctbWV0YWxfYmluZGluZycsICctaW1hZScsICc8aW5maWxlLm1hZT4nLCAnLW9tYWUnLCAnPG91dGZpbGUubWFlPic=

> <r_epik_Ionization_Penalty>
0.214359

> <r_epik_Ionization_Penalty_Charging>
2.30976e-09

> <r_epik_Ionization_Penalty_Neutral>
0.214359

> <r_epik_State_Penalty>
0.204533

> <r_epik_Charging_Adjusted_Penalty>
0.204533

> <i_epik_Tot_Q>
0

> <i_epik_Tot_abs_Q>
0

> <r_epik_Metal_State_Penalty>
0.204533

> <b_epik_Metal_Only>
0

> <s_lp_Force_Field>
OPLS_2005

> <r_lp_Energy>
59.6928

> <b_lp_Chiralities_Consistent>
1

> <s_lp_Variant>
AV-unprocessed.smi:1570-2

> <Gold.Version>
5.8.1

> <Gold.Id.Protein>
6NUR|6NUR_protein|mol2

> <Gold.PLP.Fitness>
55.2445

> <Gold.PLP.PLP>
-53.1658

> <Gold.PLP.part.hbond>
-2.0000

> <Gold.PLP.part.metal>
0.0000

> <Gold.PLP.part.buried>
-3.7393

> <Gold.PLP.part.nonpolar>
-48.1705

> <Gold.PLP.part.repulsive>
0.2500

> <Gold.PLP.ligand.clash>
0.0000

> <Gold.PLP.ligand.torsion>
0.5133

> <Gold.PLP.Chemscore.Hbond>
1.0000

> <Gold.PLP.Chemscore.CHOScore>
0.0000

> <Gold.PLP.Chemscore.Metal>
0.0000

> <Gold.Chemscore.Hbonds>
donor molecule, donor type, donor heavy atom, donor atom, acceptor molecule, acceptor atom, score
      P1  H  7997  8008       L1     9  1.00

> <Gold.PLP.Chemscore.Internal.Correction>
0.1053

> <Gold.Rescore>
     Score         DG    S(hbond)    S(metal)    S(lipo)     H(rot)  DE(clash)    DE(int)     intcor
     18.34     -19.04       0.98        0.00     132.97       2.06       0.08       0.62       ----

> <Gold.Chemscore.Fitness>
18.3362

> <Gold.Chemscore.DG>
-19.0392

> <Gold.Chemscore.ZeroCoef>
-5.4800

> <Gold.Chemscore.Hbond>
0.9785

> <Gold.Chemscore.Metal>
0.0000

> <Gold.Chemscore.Lipo>
132.9726

> <Gold.Chemscore.Internal_Hbond>
0.0000

> <Gold.Chemscore.DEClash>
0.0815

> <Gold.Chemscore.DEInternal>
0.6215

> <Gold.Chemscore.Rot>
2.0574

> <Gold.Chemscore.Internal.Correction>
   9.000000E+99

> <Gold.Chemscore.Hbonds>
donor molecule, donor type, donor heavy atom, donor atom, acceptor molecule, acceptor atom, score
      P1  H  7997  8008       L1     9  0.60

> <Gold.Chemscore.Hbond.Weighted>
-3.2682

> <Gold.Chemscore.Metal.Weighted>
-0.0000

> <Gold.Chemscore.Lipo.Weighted>
-15.5578

> <Gold.Chemscore.Internal_Hbond.Weighted>
0.0000

> <Gold.Chemscore.DEClash.Weighted>
0.0815

> <Gold.Chemscore.DEInternal.Weighted>
0.6215

> <Gold.Chemscore.Rot.Weighted>
5.2669

> <Gold.Chemscore.Internal.Correction.Weighted>
   9.000000E+99

> <Gold.Protein.RotatedTorsions>
[ 6907 6896 6895 6894 ] final -170.69 input  -60.11 | X-H torsion
[ 7974 7965 7964 7962 ] final  -28.92 input  175.53 | X-H torsion
[ 8008 7997 7996 7995 ] final  -20.22 input   59.86 | X-H torsion
[ 10167 10162 10161 10158 ] final  -56.97 input  -65.29 | X-H torsion
[ 10718 10713 10712 10709 ] final  -36.74 input   66.30 | X-H torsion
[ 10763 10752 10751 10750 ] final   82.15 input  -60.55 | X-H torsion
[ 11005 11000 10999 10996 ] final -118.46 input  -57.11 | X-H torsion

> <Gold.Protein.ActiveResidues>
 VAL166  LYS551  ARG553  GLY616  TRP617  ASP618  TYR619  PRO620  LYS621  CYS622 
 ASP623  PHE694  ASN695  SER759  ASP760  ASP761  ALA762  ILE779  LEU786  VAL792 
 PHE793  MET794  SER795  GLU796  ALA797  LYS798  CYS799  TRP800  GLU811  SER814 

> <Gold.Protein.RotatedAtoms>
  151.5118  133.3483  159.2885 H   0  0  0  0  0  0  0  0  0  0  0  0  # atno 6907 bound_to 6896
  150.8707  134.8083  159.7164 H   0  0  0  0  0  0  0  0  0  0  0  0  # atno 6908 bound_to 6896
  152.4696  134.5001  159.9774 H   0  0  0  0  0  0  0  0  0  0  0  0  # atno 6909 bound_to 6896
  146.1254  140.5345  142.8717 H   0  0  0  0  0  0  0  0  0  0  0  0  # atno 7974 bound_to 7965
  154.4784  140.2067  155.9822 H   0  0  0  0  0  0  0  0  0  0  0  0  # atno 8008 bound_to 7997
  156.1126  140.3226  155.8064 H   0  0  0  0  0  0  0  0  0  0  0  0  # atno 8009 bound_to 7997
  155.4608  140.0524  157.2982 H   0  0  0  0  0  0  0  0  0  0  0  0  # atno 8010 bound_to 7997
  140.6286  143.2449  151.5300 H   0  0  0  0  0  0  0  0  0  0  0  0  # atno 10167 bound_to 10162
  156.3233  130.4269  149.7940 H   0  0  0  0  0  0  0  0  0  0  0  0  # atno 10718 bound_to 10713
  153.1178  135.4739  154.9144 H   0  0  0  0  0  0  0  0  0  0  0  0  # atno 10763 bound_to 10752
  154.7545  135.3115  154.8498 H   0  0  0  0  0  0  0  0  0  0  0  0  # atno 10764 bound_to 10752
  153.9070  135.6869  153.4806 H   0  0  0  0  0  0  0  0  0  0  0  0  # atno 10765 bound_to 10752
  141.0284  134.0019  157.3180 H   0  0  0  0  0  0  0  0  0  0  0  0  # atno 11005 bound_to 11000
  144.7637  140.5481  143.6718 LP  0  0  0  0  0  0  0  0  0  0  0  0  # atno 17320 bound_to 7965
  145.5377  139.1475  143.3464 LP  0  0  0  0  0  0  0  0  0  0  0  0  # atno 17321 bound_to 7965
  139.5502  144.2414  152.1517 LP  0  0  0  0  0  0  0  0  0  0  0  0  # atno 17342 bound_to 10162
  140.1652  144.4988  150.6610 LP  0  0  0  0  0  0  0  0  0  0  0  0  # atno 17343 bound_to 10162
  156.5240  130.8227  151.3213 LP  0  0  0  0  0  0  0  0  0  0  0  0  # atno 17370 bound_to 10713
  157.7416  130.9873  150.2458 LP  0  0  0  0  0  0  0  0  0  0  0  0  # atno 17371 bound_to 10713
  139.9191  135.0199  156.7996 LP  0  0  0  0  0  0  0  0  0  0  0  0  # atno 17394 bound_to 11000
  140.6451  133.9783  155.7727 LP  0  0  0  0  0  0  0  0  0  0  0  0  # atno 17395 bound_to 11000

$$$$
