AV-unprocessed.smi:350|AV-procd|sdf|2399|dock1
  -GOLD-   2262022333D 1   1.00000     0.00000
 Structure written by MMmdl.
 35 36  0  0  0  0  0  0  0  0  1 V2000
  151.3101  144.0034  157.8510 C   0  0  0  0  0  0  0  0  0  0  0  0
  151.3514  142.5045  157.7241 C   0  0  0  0  0  0  0  0  0  0  0  0
  150.6487  141.9826  156.7731 N   0  0  0  0  0  0  0  0  0  0  0  0
  150.6114  140.6173  156.5718 N   0  0  0  0  0  0  0  0  0  0  0  0
  149.7571  140.2044  155.4512 C   0  0  0  0  0  0  0  0  0  0  0  0
  149.2723  141.4048  154.6086 C   0  0  1  0  0  0  0  0  0  0  0  0
  149.2613  141.0281  153.2455 O   0  0  0  0  0  0  0  0  0  0  0  0
  147.8975  141.8712  155.0632 C   0  0  0  0  0  0  0  0  0  0  0  0
  147.5912  141.9750  156.4384 C   0  0  0  0  0  0  0  0  0  0  0  0
  146.3188  142.4151  156.8517 C   0  0  0  0  0  0  0  0  0  0  0  0
  145.3451  142.7555  155.8928 C   0  0  0  0  0  0  0  0  0  0  0  0
  143.7861  143.2949  156.3984 Cl  0  0  0  0  0  0  0  0  0  0  0  0
  145.6461  142.6571  154.5205 C   0  0  0  0  0  0  0  0  0  0  0  0
  146.9188  142.2179  154.1071 C   0  0  0  0  0  0  0  0  0  0  0  0
  151.2875  139.7025  157.3242 C   0  0  0  0  0  0  0  0  0  0  0  0
  151.2211  138.4908  157.1116 O   0  0  0  0  0  0  0  0  0  0  0  0
  152.0850  140.3001  158.3977 C   0  0  0  0  0  0  0  0  0  0  0  0
  152.8102  139.3769  159.2098 C   0  0  0  0  0  0  0  0  0  0  0  0
  153.3825  138.6153  159.8674 N   0  0  0  0  0  0  0  0  0  0  0  0
  152.1292  141.6400  158.6059 C   0  0  0  0  0  0  0  0  0  0  0  0
  152.9408  142.3108  159.7058 C   0  0  0  0  0  0  0  0  0  0  0  0
  150.9198  144.2981  158.8251 H   0  0  0  0  0  0  0  0  0  0  0  0
  150.6731  144.4585  157.0912 H   0  0  0  0  0  0  0  0  0  0  0  0
  152.3077  144.4292  157.7418 H   0  0  0  0  0  0  0  0  0  0  0  0
  150.2637  139.4729  154.8182 H   0  0  0  0  0  0  0  0  0  0  0  0
  148.8940  139.6735  155.8578 H   0  0  0  0  0  0  0  0  0  0  0  0
  149.9662  142.2399  154.7111 H   0  0  0  0  0  0  0  0  0  0  0  0
  148.6205  140.3433  153.1299 H   0  0  0  0  0  0  0  0  0  0  0  0
  148.3326  141.7192  157.1813 H   0  0  0  0  0  0  0  0  0  0  0  0
  146.0918  142.4917  157.9050 H   0  0  0  0  0  0  0  0  0  0  0  0
  144.9015  142.9194  153.7832 H   0  0  0  0  0  0  0  0  0  0  0  0
  147.1401  142.1498  153.0520 H   0  0  0  0  0  0  0  0  0  0  0  0
  153.4668  141.5888  160.3296 H   0  0  0  0  0  0  0  0  0  0  0  0
  152.2927  142.8956  160.3592 H   0  0  0  0  0  0  0  0  0  0  0  0
  153.6881  142.9779  159.2752 H   0  0  0  0  0  0  0  0  0  0  0  0
  1  2  1  0  0  0  0
  1 22  1  0  0  0  0
  1 23  1  0  0  0  0
  1 24  1  0  0  0  0
  2 20  1  0  0  0  0
  2  3  2  0  0  0  0
  3  4  1  0  0  0  0
  4  5  1  0  0  0  0
  4 15  1  0  0  0  0
  5  6  1  0  0  0  0
  5 25  1  0  0  0  0
  5 26  1  0  0  0  0
  6  7  1  0  0  0  0
  6  8  1  0  0  0  0
  6 27  1  0  0  0  0
  7 28  1  0  0  0  0
  8 14  1  0  0  0  0
  8  9  2  0  0  0  0
  9 10  1  0  0  0  0
  9 29  1  0  0  0  0
 10 11  2  0  0  0  0
 10 30  1  0  0  0  0
 11 12  1  0  0  0  0
 11 13  1  0  0  0  0
 13 14  2  0  0  0  0
 13 31  1  0  0  0  0
 14 32  1  0  0  0  0
 15 16  2  0  0  0  0
 15 17  1  0  0  0  0
 17 18  1  0  0  0  0
 17 20  2  0  0  0  0
 18 19  3  0  0  0  0
 20 21  1  0  0  0  0
 21 33  1  0  0  0  0
 21 34  1  0  0  0  0
 21 35  1  0  0  0  0
M  END
> <s_m_source_file>
AV-unprocessed.smi

> <i_m_source_file_index>
350

> <i_lp_mmshare_version>
43012

> <i_f3d_flags>
0

> <s_epik_input>
TiNDYyhjMVtDSDNdKWMoPU8pbihuYzFbQ0gzXSlbQ0gyXVtDQEhdKFtPSF0pYzJbY0hdW2NIXWMoQ2wpW2NIXVtjSF0y

> <s_epik_cmdline>
J2VwaWtfcHl0aG9uJywgJy1waCcsICc3LjAnLCAnLXRuJywgJzgnLCAnLW1hJywgJzIwMCcsICctbWV0YWxfYmluZGluZycsICctaW1hZScsICc8aW5maWxlLm1hZT4nLCAnLW9tYWUnLCAnPG91dGZpbGUubWFlPic=

> <r_lp_tautomer_probability>
1

> <r_epik_Ionization_Penalty>
1.17315e-07

> <r_epik_Ionization_Penalty_Charging>
1.40848e-10

> <r_epik_Ionization_Penalty_Neutral>
1.17174e-07

> <r_epik_State_Penalty>
-0

> <r_epik_Charging_Adjusted_Penalty>
1.40848e-10

> <i_epik_Tot_Q>
0

> <i_epik_Tot_abs_Q>
0

> <r_epik_Metal_State_Penalty>
-0

> <b_epik_Metal_Only>
0

> <s_lp_Force_Field>
OPLS_2005

> <r_lp_Energy>
28.138

> <b_lp_Chiralities_Consistent>
1

> <s_lp_Variant>
AV-unprocessed.smi:350-2

> <Gold.Version>
5.8.1

> <Gold.Id.Protein>
6NUR|6NUR_protein|mol2

> <Gold.PLP.Fitness>
39.5448

> <Gold.PLP.PLP>
-38.5435

> <Gold.PLP.part.hbond>
-2.2948

> <Gold.PLP.part.metal>
0.0000

> <Gold.PLP.part.buried>
-3.7946

> <Gold.PLP.part.nonpolar>
-32.8764

> <Gold.PLP.part.repulsive>
0.0885

> <Gold.PLP.ligand.clash>
0.0000

> <Gold.PLP.ligand.torsion>
1.0248

> <Gold.PLP.Chemscore.Hbond>
1.0129

> <Gold.PLP.Chemscore.CHOScore>
0.0000

> <Gold.PLP.Chemscore.Metal>
0.0000

> <Gold.Chemscore.Hbonds>
donor molecule, donor type, donor heavy atom, donor atom, acceptor molecule, acceptor atom, score
      P1  H  7989  7998       L1     7  0.01
      P1  H  8011  8017       L1     7  1.00

> <Gold.PLP.Chemscore.Internal.Correction>
0.0123

> <Gold.Rescore>
     Score         DG    S(hbond)    S(metal)    S(lipo)     H(rot)  DE(clash)    DE(int)     intcor
     13.10     -13.95       1.01        0.00      85.22       1.90       0.10       0.75       ----

> <Gold.Chemscore.Fitness>
13.1012

> <Gold.Chemscore.DG>
-13.9547

> <Gold.Chemscore.ZeroCoef>
-5.4800

> <Gold.Chemscore.Hbond>
1.0120

> <Gold.Chemscore.Metal>
0.0000

> <Gold.Chemscore.Lipo>
85.2188

> <Gold.Chemscore.Internal_Hbond>
0.0000

> <Gold.Chemscore.DEClash>
0.1038

> <Gold.Chemscore.DEInternal>
0.7498

> <Gold.Chemscore.Rot>
1.9047

> <Gold.Chemscore.Internal.Correction>
   9.000000E+99

> <Gold.Chemscore.Hbonds>
donor molecule, donor type, donor heavy atom, donor atom, acceptor molecule, acceptor atom, score
      P1  H  8011  8017       L1     7  0.60

> <Gold.Chemscore.Hbond.Weighted>
-3.3802

> <Gold.Chemscore.Metal.Weighted>
-0.0000

> <Gold.Chemscore.Lipo.Weighted>
-9.9706

> <Gold.Chemscore.Internal_Hbond.Weighted>
0.0000

> <Gold.Chemscore.DEClash.Weighted>
0.1038

> <Gold.Chemscore.DEInternal.Weighted>
0.7498

> <Gold.Chemscore.Rot.Weighted>
4.8760

> <Gold.Chemscore.Internal.Correction.Weighted>
   9.000000E+99

> <Gold.Protein.RotatedTorsions>
[ 6907 6896 6895 6894 ] final   25.18 input  -60.11 | X-H torsion
[ 7974 7965 7964 7962 ] final -152.27 input  175.53 | X-H torsion
[ 8008 7997 7996 7995 ] final   27.15 input   59.86 | X-H torsion
[ 10167 10162 10161 10158 ] final -136.09 input  -65.29 | X-H torsion
[ 10718 10713 10712 10709 ] final  -27.70 input   66.30 | X-H torsion
[ 10763 10752 10751 10750 ] final -135.77 input  -60.55 | X-H torsion
[ 11005 11000 10999 10996 ] final  -11.98 input  -57.11 | X-H torsion

> <Gold.Protein.ActiveResidues>
 VAL166  LYS551  ARG553  GLY616  TRP617  ASP618  TYR619  PRO620  LYS621  CYS622 
 ASP623  PHE694  ASN695  SER759  ASP760  ASP761  ALA762  ILE779  LEU786  VAL792 
 PHE793  MET794  SER795  GLU796  ALA797  LYS798  CYS799  TRP800  GLU811  SER814 

> <Gold.Protein.RotatedAtoms>
  151.9687  135.0087  160.0551 H   0  0  0  0  0  0  0  0  0  0  0  0  # atno 6907 bound_to 6896
  152.1802  133.4698  159.4963 H   0  0  0  0  0  0  0  0  0  0  0  0  # atno 6908 bound_to 6896
  150.6916  134.1760  159.4273 H   0  0  0  0  0  0  0  0  0  0  0  0  # atno 6909 bound_to 6896
  144.7804  140.4685  143.5844 H   0  0  0  0  0  0  0  0  0  0  0  0  # atno 7974 bound_to 7965
  155.0383  140.3166  155.4733 H   0  0  0  0  0  0  0  0  0  0  0  0  # atno 8008 bound_to 7997
  156.2860  140.2167  156.5450 H   0  0  0  0  0  0  0  0  0  0  0  0  # atno 8009 bound_to 7997
  154.7311  140.0481  157.0715 H   0  0  0  0  0  0  0  0  0  0  0  0  # atno 8010 bound_to 7997
  139.8713  143.6954  152.2639 H   0  0  0  0  0  0  0  0  0  0  0  0  # atno 10167 bound_to 10162
  156.4347  130.4452  149.7093 H   0  0  0  0  0  0  0  0  0  0  0  0  # atno 10718 bound_to 10713
  154.8697  135.3693  154.4953 H   0  0  0  0  0  0  0  0  0  0  0  0  # atno 10763 bound_to 10752
  153.5597  135.7023  153.5558 H   0  0  0  0  0  0  0  0  0  0  0  0  # atno 10764 bound_to 10752
  153.3639  135.4039  155.1702 H   0  0  0  0  0  0  0  0  0  0  0  0  # atno 10765 bound_to 10752
  140.7610  133.8515  155.9124 H   0  0  0  0  0  0  0  0  0  0  0  0  # atno 11005 bound_to 11000
  145.6068  139.1509  143.3098 LP  0  0  0  0  0  0  0  0  0  0  0  0  # atno 17320 bound_to 7965
  146.2008  140.6186  142.9103 LP  0  0  0  0  0  0  0  0  0  0  0  0  # atno 17321 bound_to 7965
  139.7282  144.7588  151.0845 LP  0  0  0  0  0  0  0  0  0  0  0  0  # atno 17342 bound_to 10162
  140.7760  143.5122  150.9639 LP  0  0  0  0  0  0  0  0  0  0  0  0  # atno 17343 bound_to 10162
  156.3982  130.7661  151.2667 LP  0  0  0  0  0  0  0  0  0  0  0  0  # atno 17370 bound_to 10713
  157.7507  131.0248  150.3891 LP  0  0  0  0  0  0  0  0  0  0  0  0  # atno 17371 bound_to 10713
  140.9663  134.1589  157.4613 LP  0  0  0  0  0  0  0  0  0  0  0  0  # atno 17394 bound_to 11000
  139.8771  134.9963  156.5787 LP  0  0  0  0  0  0  0  0  0  0  0  0  # atno 17395 bound_to 11000

$$$$
