AV-unprocessed.smi:1875|AV-procd|sdf|7618|dock3
  -GOLD-   22720 9343D 1   1.00000     0.00000
 Structure written by MMmdl.
 48 50  0  0  0  0  0  0  0  0  2 V2000
  151.3635  142.0239  156.3773 C   0  0  0  0  0  0  0  0  0  0  0  0
  151.0797  140.8787  155.4274 C   0  0  0  0  0  0  0  0  0  0  0  0
  152.0983  140.0622  155.1391 N   0  0  0  0  0  0  0  0  0  0  0  0
  151.8419  139.0423  154.2909 C   0  0  0  0  0  0  0  0  0  0  0  0
  150.5623  138.8436  153.7337 C   0  0  0  0  0  0  0  0  0  0  0  0
  149.5676  139.7698  154.1128 C   0  0  0  0  0  0  0  0  0  0  0  0
  148.1531  139.6694  153.5784 C   0  0  0  0  0  0  0  0  0  0  0  0
  148.0031  138.5752  152.6241 N   0  0  0  0  0  0  0  0  0  0  0  0
  146.8215  138.7090  151.7766 C   0  0  0  0  0  0  0  0  0  0  0  0
  145.6902  137.7769  152.2407 C   0  0  2  0  0  0  0  0  0  0  0  0
  145.1948  138.2556  153.4759 O   0  0  0  0  0  0  0  0  0  0  0  0
  146.1889  136.3312  152.4338 C   0  0  0  0  0  0  0  0  0  0  0  0
  145.3272  135.3355  151.7820 N   0  0  0  0  0  0  0  0  0  0  0  0
  144.1628  135.5015  151.0977 C   0  0  0  0  0  0  0  0  0  0  0  0
  143.7495  134.2707  150.6869 N   0  3  0  0  0  0  0  0  0  0  0  0
  144.6626  133.3053  151.1166 C   0  0  0  0  0  0  0  0  0  0  0  0
  144.6758  131.9255  150.9502 C   0  0  0  0  0  0  0  0  0  0  0  0
  145.7608  131.2181  151.5156 C   0  0  0  0  0  0  0  0  0  0  0  0
  145.8036  129.7078  151.3553 C   0  0  0  0  0  0  0  0  0  0  0  0
  146.7894  131.8981  152.2182 C   0  0  0  0  0  0  0  0  0  0  0  0
  147.9515  131.1269  152.8209 C   0  0  0  0  0  0  0  0  0  0  0  0
  146.7583  133.3024  152.3760 C   0  0  0  0  0  0  0  0  0  0  0  0
  145.6798  133.9828  151.8166 C   0  0  0  0  0  0  0  0  0  0  0  0
  149.8304  140.7883  154.9617 N   0  0  0  0  0  0  0  0  0  0  0  0
  152.4018  142.0199  156.7116 H   0  0  0  0  0  0  0  0  0  0  0  0
  150.7234  141.9528  157.2573 H   0  0  0  0  0  0  0  0  0  0  0  0
  151.1682  142.9786  155.8878 H   0  0  0  0  0  0  0  0  0  0  0  0
  152.6624  138.3809  154.0552 H   0  0  0  0  0  0  0  0  0  0  0  0
  150.3586  138.0281  153.0557 H   0  0  0  0  0  0  0  0  0  0  0  0
  147.4749  139.5301  154.4210 H   0  0  0  0  0  0  0  0  0  0  0  0
  147.8794  140.6163  153.1101 H   0  0  0  0  0  0  0  0  0  0  0  0
  147.9568  137.6960  153.1290 H   0  0  0  0  0  0  0  0  0  0  0  0
  146.4705  139.7408  151.8240 H   0  0  0  0  0  0  0  0  0  0  0  0
  147.0697  138.5164  150.7318 H   0  0  0  0  0  0  0  0  0  0  0  0
  144.8794  137.7821  151.5106 H   0  0  0  0  0  0  0  0  0  0  0  0
  144.5297  138.9035  153.2974 H   0  0  0  0  0  0  0  0  0  0  0  0
  147.2041  136.2118  152.0536 H   0  0  0  0  0  0  0  0  0  0  0  0
  146.2271  136.0831  153.4956 H   0  0  0  0  0  0  0  0  0  0  0  0
  143.6598  136.4398  150.9117 H   0  0  0  0  0  0  0  0  0  0  0  0
  143.8899  131.4150  150.4129 H   0  0  0  0  0  0  0  0  0  0  0  0
  145.7879  129.2189  152.3294 H   0  0  0  0  0  0  0  0  0  0  0  0
  146.7085  129.4036  150.8293 H   0  0  0  0  0  0  0  0  0  0  0  0
  144.9489  129.3423  150.7854 H   0  0  0  0  0  0  0  0  0  0  0  0
  148.6555  131.7921  153.3215 H   0  0  0  0  0  0  0  0  0  0  0  0
  148.4969  130.5872  152.0464 H   0  0  0  0  0  0  0  0  0  0  0  0
  147.5922  130.4078  153.5574 H   0  0  0  0  0  0  0  0  0  0  0  0
  147.5404  133.8212  152.9104 H   0  0  0  0  0  0  0  0  0  0  0  0
  142.9064  134.1055  150.1520 H   0  0  0  0  0  0  0  0  0  0  0  0
  1  2  1  0  0  0  0
  1 25  1  0  0  0  0
  1 26  1  0  0  0  0
  1 27  1  0  0  0  0
  2 24  1  0  0  0  0
  2  3  2  0  0  0  0
  3  4  1  0  0  0  0
  4  5  2  0  0  0  0
  4 28  1  0  0  0  0
  5  6  1  0  0  0  0
  5 29  1  0  0  0  0
  6  7  1  0  0  0  0
  6 24  2  0  0  0  0
  7  8  1  0  0  0  0
  7 30  1  0  0  0  0
  7 31  1  0  0  0  0
  8  9  1  0  0  0  0
  8 32  1  0  0  0  0
  9 10  1  0  0  0  0
  9 33  1  0  0  0  0
  9 34  1  0  0  0  0
 10 11  1  0  0  0  0
 10 12  1  0  0  0  0
 10 35  1  0  0  0  0
 11 36  1  0  0  0  0
 12 13  1  0  0  0  0
 12 37  1  0  0  0  0
 12 38  1  0  0  0  0
 13 23  1  0  0  0  0
 13 14  1  0  0  0  0
 14 15  2  0  0  0  0
 14 39  1  0  0  0  0
 15 16  1  0  0  0  0
 15 48  1  0  0  0  0
 16 23  2  0  0  0  0
 16 17  1  0  0  0  0
 17 18  2  0  0  0  0
 17 40  1  0  0  0  0
 18 19  1  0  0  0  0
 18 20  1  0  0  0  0
 19 41  1  0  0  0  0
 19 42  1  0  0  0  0
 19 43  1  0  0  0  0
 20 21  1  0  0  0  0
 20 22  2  0  0  0  0
 21 44  1  0  0  0  0
 21 45  1  0  0  0  0
 21 46  1  0  0  0  0
 22 23  1  0  0  0  0
 22 47  1  0  0  0  0
M  CHG  1  15   1
M  END
> <s_m_source_file>
AV-unprocessed.smi

> <i_m_source_file_index>
1875

> <i_lp_mmshare_version>
43012

> <i_f3d_flags>
0

> <s_epik_input>
W0NIM11jMW5bY0hdW2NIXWMobjEpW0NIMl1bTkhdW0NIMl1bQ0BIXShbT0hdKVtDSDJdbihbY0hdbjIpYyhjMjMpW2NIXWMoW0NIM10pYyhbY0hdMylbQ0gzXQ==

> <s_epik_cmdline>
J2VwaWtfcHl0aG9uJywgJy1waCcsICc3LjAnLCAnLXRuJywgJzgnLCAnLW1hJywgJzIwMCcsICctbWV0YWxfYmluZGluZycsICctaW1hZScsICc8aW5maWxlLm1hZT4nLCAnLW9tYWUnLCAnPG91dGZpbGUubWFlPic=

> <r_epik_Ionization_Penalty>
2.02862

> <r_epik_Ionization_Penalty_Charging>
1.0004

> <r_epik_Ionization_Penalty_Neutral>
1.02823

> <r_epik_State_Penalty>
2.23022

> <r_epik_Charging_Adjusted_Penalty>
3.23062

> <i_epik_Tot_Q>
1

> <i_epik_Tot_abs_Q>
1

> <r_epik_Metal_State_Penalty>
2.31249

> <b_epik_Metal_Only>
0

> <s_epik_Chemistry_Notes>
This compound contains an electron-poor aromatic ring that is susceptible to covalent hydrolysis at low pH, typically resulting in measured values for nitrogen ring protonation that are around two units higher than predicted values.

> <s_lp_Force_Field>
OPLS_2005

> <r_lp_Energy>
18.1078

> <b_lp_Chiralities_Consistent>
1

> <s_lp_Variant>
AV-unprocessed.smi:1875-7

> <Gold.Version>
5.8.1

> <Gold.Id.Protein>
6NUR|6NUR_protein|mol2

> <Gold.PLP.Fitness>
57.8486

> <Gold.PLP.PLP>
-48.0158

> <Gold.PLP.part.hbond>
-4.5367

> <Gold.PLP.part.metal>
0.0000

> <Gold.PLP.part.buried>
-2.2260

> <Gold.PLP.part.nonpolar>
-40.6960

> <Gold.PLP.part.repulsive>
0.0998

> <Gold.PLP.ligand.clash>
0.0000

> <Gold.PLP.ligand.torsion>
1.1388

> <Gold.PLP.Chemscore.Hbond>
3.0000

> <Gold.PLP.Chemscore.CHOScore>
1.0000

> <Gold.PLP.Chemscore.Metal>
0.0000

> <Gold.Chemscore.Hbonds>
donor molecule, donor type, donor heavy atom, donor atom, acceptor molecule, acceptor atom, score
      L1  H     8    32       P1  7948  0.06
      L1  H    11    36       P1 10175  1.00
      L1  H    15    48       P1 10186  2.00
      L1  C    14    39       P1 10171  1.00

> <Gold.PLP.Chemscore.Internal.Correction>
0.1105

> <Gold.Rescore>
     Score         DG    S(hbond)    S(metal)    S(lipo)     H(rot)  DE(clash)    DE(int)     intcor
     16.40     -18.15       2.16        0.00     107.82       2.80       0.36       1.39       ----

> <Gold.Chemscore.Fitness>
16.3983

> <Gold.Chemscore.DG>
-18.1465

> <Gold.Chemscore.ZeroCoef>
-5.4800

> <Gold.Chemscore.Hbond>
2.1639

> <Gold.Chemscore.Metal>
0.0000

> <Gold.Chemscore.Lipo>
107.8226

> <Gold.Chemscore.Internal_Hbond>
0.0000

> <Gold.Chemscore.DEClash>
0.3609

> <Gold.Chemscore.DEInternal>
1.3872

> <Gold.Chemscore.Rot>
2.8032

> <Gold.Chemscore.Internal.Correction>
   9.000000E+99

> <Gold.Chemscore.Hbonds>
donor molecule, donor type, donor heavy atom, donor atom, acceptor molecule, acceptor atom, score
      L1  H     8    32       P1  7948  0.08
      L1  H    11    36       P1 10175  0.98
      L1  H    15    48       P1 10186  0.90
      P1  H  7997  8009       L1     3  0.04

> <Gold.Chemscore.Hbond.Weighted>
-7.2274

> <Gold.Chemscore.Metal.Weighted>
-0.0000

> <Gold.Chemscore.Lipo.Weighted>
-12.6152

> <Gold.Chemscore.Internal_Hbond.Weighted>
0.0000

> <Gold.Chemscore.DEClash.Weighted>
0.3609

> <Gold.Chemscore.DEInternal.Weighted>
1.3872

> <Gold.Chemscore.Rot.Weighted>
7.1761

> <Gold.Chemscore.Internal.Correction.Weighted>
   9.000000E+99

> <Gold.Protein.RotatedTorsions>
[ 6907 6896 6895 6894 ] final    7.91 input  -60.11 | X-H torsion
[ 7974 7965 7964 7962 ] final  135.09 input  175.53 | X-H torsion
[ 8008 7997 7996 7995 ] final -149.75 input   59.86 | X-H torsion
[ 10167 10162 10161 10158 ] final   46.55 input  -65.29 | X-H torsion
[ 10718 10713 10712 10709 ] final  146.28 input   66.30 | X-H torsion
[ 10763 10752 10751 10750 ] final -165.19 input  -60.55 | X-H torsion
[ 11005 11000 10999 10996 ] final   13.88 input  -57.11 | X-H torsion

> <Gold.Protein.ActiveResidues>
 VAL166  LYS551  ARG553  GLY616  TRP617  ASP618  TYR619  PRO620  LYS621  CYS622 
 ASP623  PHE694  ASN695  SER759  ASP760  ASP761  ALA762  ILE779  LEU786  VAL792 
 PHE793  MET794  SER795  GLU796  ALA797  LYS798  CYS799  TRP800  GLU811  SER814 

> <Gold.Protein.RotatedAtoms>
  151.6974  135.0936  160.0244 H   0  0  0  0  0  0  0  0  0  0  0  0  # atno 6907 bound_to 6896
  152.3741  133.6454  159.6118 H   0  0  0  0  0  0  0  0  0  0  0  0  # atno 6908 bound_to 6896
  150.7696  133.9138  159.3419 H   0  0  0  0  0  0  0  0  0  0  0  0  # atno 6909 bound_to 6896
  144.9698  139.4618  143.5438 H   0  0  0  0  0  0  0  0  0  0  0  0  # atno 7974 bound_to 7965
  155.6125  140.0673  157.2702 H   0  0  0  0  0  0  0  0  0  0  0  0  # atno 8008 bound_to 7997
  154.4250  140.1799  156.1335 H   0  0  0  0  0  0  0  0  0  0  0  0  # atno 8009 bound_to 7997
  156.0073  140.3330  155.6909 H   0  0  0  0  0  0  0  0  0  0  0  0  # atno 8010 bound_to 7997
  140.3128  144.2800  150.6196 H   0  0  0  0  0  0  0  0  0  0  0  0  # atno 10167 bound_to 10162
  157.3351  131.0926  151.1130 H   0  0  0  0  0  0  0  0  0  0  0  0  # atno 10718 bound_to 10713
  154.6956  135.2978  154.9416 H   0  0  0  0  0  0  0  0  0  0  0  0  # atno 10763 bound_to 10752
  154.0365  135.6663  153.4790 H   0  0  0  0  0  0  0  0  0  0  0  0  # atno 10764 bound_to 10752
  153.0643  135.5097  154.8072 H   0  0  0  0  0  0  0  0  0  0  0  0  # atno 10765 bound_to 10752
  140.4757  134.0986  155.7741 H   0  0  0  0  0  0  0  0  0  0  0  0  # atno 11005 bound_to 11000
  146.3378  139.8903  142.8810 LP  0  0  0  0  0  0  0  0  0  0  0  0  # atno 17320 bound_to 7965
  145.2576  141.0066  143.3845 LP  0  0  0  0  0  0  0  0  0  0  0  0  # atno 17321 bound_to 7965
  140.5553  143.2200  151.7858 LP  0  0  0  0  0  0  0  0  0  0  0  0  # atno 17342 bound_to 10162
  139.4890  144.4422  151.9751 LP  0  0  0  0  0  0  0  0  0  0  0  0  # atno 17343 bound_to 10162
  157.2363  130.6548  149.5871 LP  0  0  0  0  0  0  0  0  0  0  0  0  # atno 17370 bound_to 10713
  155.9700  130.4582  150.5993 LP  0  0  0  0  0  0  0  0  0  0  0  0  # atno 17371 bound_to 10713
  141.1555  133.8890  157.1987 LP  0  0  0  0  0  0  0  0  0  0  0  0  # atno 17394 bound_to 11000
  139.9857  135.0083  156.9857 LP  0  0  0  0  0  0  0  0  0  0  0  0  # atno 17395 bound_to 11000

$$$$
