AV-unprocessed.smi:1959|AV-procd|sdf|7913|dock8
  -GOLD-   2272010 83D 1   1.00000     0.00000
 Structure written by MMmdl.
 44 45  0  0  0  0  0  0  0  0  1 V2000
  147.2165  136.3206  162.6748 C   0  0  0  0  0  0  0  0  0  0  0  0
  147.5627  135.7661  161.3244 C   0  0  0  0  0  0  0  0  0  0  0  0
  147.1028  134.5622  160.7210 C   0  0  0  0  0  0  0  0  0  0  0  0
  147.7212  134.5380  159.5028 C   0  0  0  0  0  0  0  0  0  0  0  0
  147.6462  133.5299  158.4037 C   0  0  0  0  0  0  0  0  0  0  0  0
  148.4979  135.6805  159.4238 N   0  0  0  0  0  0  0  0  0  0  0  0
  149.3546  136.1361  158.3374 C   0  0  0  0  0  0  0  0  0  0  0  0
  150.3908  137.1760  158.7818 C   0  0  0  0  0  0  0  0  0  0  0  0
  151.0156  137.0481  159.8361 O   0  0  0  0  0  0  0  0  0  0  0  0
  150.5602  138.2152  157.9502 N   0  0  0  0  0  0  0  0  0  0  0  0
  151.4806  139.3313  158.1564 C   0  0  1  0  0  0  0  0  0  0  0  0
  152.5959  139.3104  157.0996 C   0  0  0  0  0  0  0  0  0  0  0  0
  150.7484  140.6927  158.2559 C   0  0  0  0  0  0  0  0  0  0  0  0
  151.5722  141.8723  158.5390 N   0  0  0  0  0  0  0  0  0  0  0  0
  151.9131  141.9346  159.9569 C   0  0  0  0  0  0  0  0  0  0  0  0
  152.7849  143.1572  160.2896 C   0  0  0  0  0  0  0  0  0  0  0  0
  152.1103  144.3441  159.8879 O   0  0  0  0  0  0  0  0  0  0  0  0
  151.7966  144.3512  158.4994 C   0  0  0  0  0  0  0  0  0  0  0  0
  150.9293  143.1276  158.1541 C   0  0  0  0  0  0  0  0  0  0  0  0
  148.3969  136.4313  160.5425 N   0  0  0  0  0  0  0  0  0  0  0  0
  146.4667  135.7062  163.1738 H   0  0  0  0  0  0  0  0  0  0  0  0
  146.8153  137.3312  162.5938 H   0  0  0  0  0  0  0  0  0  0  0  0
  148.0949  136.3598  163.3193 H   0  0  0  0  0  0  0  0  0  0  0  0
  146.4216  133.8265  161.1223 H   0  0  0  0  0  0  0  0  0  0  0  0
  146.9787  132.7107  158.6713 H   0  0  0  0  0  0  0  0  0  0  0  0
  148.6291  133.1064  158.1962 H   0  0  0  0  0  0  0  0  0  0  0  0
  147.2699  133.9823  157.4862 H   0  0  0  0  0  0  0  0  0  0  0  0
  149.8654  135.2728  157.9096 H   0  0  0  0  0  0  0  0  0  0  0  0
  148.7350  136.5617  157.5462 H   0  0  0  0  0  0  0  0  0  0  0  0
  150.0035  138.2399  157.1081 H   0  0  0  0  0  0  0  0  0  0  0  0
  151.9658  139.1633  159.1199 H   0  0  0  0  0  0  0  0  0  0  0  0
  153.3080  140.1185  157.2683 H   0  0  0  0  0  0  0  0  0  0  0  0
  152.1978  139.4223  156.0905 H   0  0  0  0  0  0  0  0  0  0  0  0
  153.1493  138.3715  157.1335 H   0  0  0  0  0  0  0  0  0  0  0  0
  150.1485  140.8643  157.3608 H   0  0  0  0  0  0  0  0  0  0  0  0
  150.0249  140.5895  159.0659 H   0  0  0  0  0  0  0  0  0  0  0  0
  151.0014  141.9692  160.5556 H   0  0  0  0  0  0  0  0  0  0  0  0
  152.4434  141.0279  160.2506 H   0  0  0  0  0  0  0  0  0  0  0  0
  152.9806  143.2036  161.3609 H   0  0  0  0  0  0  0  0  0  0  0  0
  153.7522  143.0910  159.7890 H   0  0  0  0  0  0  0  0  0  0  0  0
  151.2652  145.2722  158.2590 H   0  0  0  0  0  0  0  0  0  0  0  0
  152.7170  144.3494  157.9131 H   0  0  0  0  0  0  0  0  0  0  0  0
  150.7358  143.1415  157.0829 H   0  0  0  0  0  0  0  0  0  0  0  0
  149.9622  143.2164  158.6512 H   0  0  0  0  0  0  0  0  0  0  0  0
  1  2  1  0  0  0  0
  1 21  1  0  0  0  0
  1 22  1  0  0  0  0
  1 23  1  0  0  0  0
  2 20  2  0  0  0  0
  2  3  1  0  0  0  0
  3  4  2  0  0  0  0
  3 24  1  0  0  0  0
  4  5  1  0  0  0  0
  4  6  1  0  0  0  0
  5 25  1  0  0  0  0
  5 26  1  0  0  0  0
  5 27  1  0  0  0  0
  6  7  1  0  0  0  0
  6 20  1  0  0  0  0
  7  8  1  0  0  0  0
  7 28  1  0  0  0  0
  7 29  1  0  0  0  0
  8  9  2  0  0  0  0
  8 10  1  0  0  0  0
 10 11  1  0  0  0  0
 10 30  1  0  0  0  0
 11 12  1  0  0  0  0
 11 13  1  0  0  0  0
 11 31  1  0  0  0  0
 12 32  1  0  0  0  0
 12 33  1  0  0  0  0
 12 34  1  0  0  0  0
 13 14  1  0  0  0  0
 13 35  1  0  0  0  0
 13 36  1  0  0  0  0
 14 19  1  0  0  0  0
 14 15  1  0  0  0  0
 15 16  1  0  0  0  0
 15 37  1  0  0  0  0
 15 38  1  0  0  0  0
 16 17  1  0  0  0  0
 16 39  1  0  0  0  0
 16 40  1  0  0  0  0
 17 18  1  0  0  0  0
 18 19  1  0  0  0  0
 18 41  1  0  0  0  0
 18 42  1  0  0  0  0
 19 43  1  0  0  0  0
 19 44  1  0  0  0  0
M  END
> <s_m_source_file>
AV-unprocessed.smi

> <i_m_source_file_index>
1959

> <i_lp_mmshare_version>
43012

> <i_f3d_flags>
0

> <s_epik_input>
W0NIM11jMVtjSF1jKFtDSDNdKW4objEpW0NIMl1DKD1PKVtOSF1bQ0BIXShbQ0gzXSlbQ0gyXU4yW0NIMl1bQ0gyXU9bQ0gyXVtDSDJdMg==

> <s_epik_cmdline>
J2VwaWtfcHl0aG9uJywgJy1waCcsICc3LjAnLCAnLXRuJywgJzgnLCAnLW1hJywgJzIwMCcsICctbWV0YWxfYmluZGluZycsICctaW1hZScsICc8aW5maWxlLm1hZT4nLCAnLW9tYWUnLCAnPG91dGZpbGUubWFlPic=

> <r_lp_tautomer_probability>
1

> <r_epik_Ionization_Penalty>
0.197284

> <r_epik_Ionization_Penalty_Charging>
0

> <r_epik_Ionization_Penalty_Neutral>
0.197284

> <r_epik_State_Penalty>
0.186684

> <r_epik_Charging_Adjusted_Penalty>
0.186684

> <i_epik_Tot_Q>
0

> <i_epik_Tot_abs_Q>
0

> <r_epik_Metal_State_Penalty>
0.186639

> <b_epik_Metal_Only>
0

> <s_lp_Force_Field>
OPLS_2005

> <r_lp_Energy>
28.5782

> <b_lp_Chiralities_Consistent>
1

> <s_lp_Variant>
AV-unprocessed.smi:1959-2

> <Gold.Version>
5.8.1

> <Gold.Id.Protein>
6NUR|6NUR_protein|mol2

> <Gold.PLP.Fitness>
43.9835

> <Gold.PLP.PLP>
-39.6445

> <Gold.PLP.part.hbond>
-2.1208

> <Gold.PLP.part.metal>
0.0000

> <Gold.PLP.part.buried>
-5.8736

> <Gold.PLP.part.nonpolar>
-32.4936

> <Gold.PLP.part.repulsive>
0.0994

> <Gold.PLP.ligand.clash>
0.0000

> <Gold.PLP.ligand.torsion>
0.7028

> <Gold.PLP.Chemscore.Hbond>
1.8938

> <Gold.PLP.Chemscore.CHOScore>
0.0000

> <Gold.PLP.Chemscore.Metal>
0.0000

> <Gold.Chemscore.Hbonds>
donor molecule, donor type, donor heavy atom, donor atom, acceptor molecule, acceptor atom, score
      P1  H  6896  6907       L1     9  1.00
      P1  H  6931  6943       L1    20  0.19

> <Gold.PLP.Chemscore.Internal.Correction>
0.0633

> <Gold.Rescore>
     Score         DG    S(hbond)    S(metal)    S(lipo)     H(rot)  DE(clash)    DE(int)     intcor
     15.27     -17.29       1.49        0.00      95.53       1.70       0.10       1.92       ----

> <Gold.Chemscore.Fitness>
15.2722

> <Gold.Chemscore.DG>
-17.2938

> <Gold.Chemscore.ZeroCoef>
-5.4800

> <Gold.Chemscore.Hbond>
1.4899

> <Gold.Chemscore.Metal>
0.0000

> <Gold.Chemscore.Lipo>
95.5329

> <Gold.Chemscore.Internal_Hbond>
0.0000

> <Gold.Chemscore.DEClash>
0.0982

> <Gold.Chemscore.DEInternal>
1.9234

> <Gold.Chemscore.Rot>
1.6952

> <Gold.Chemscore.Internal.Correction>
   9.000000E+99

> <Gold.Chemscore.Hbonds>
donor molecule, donor type, donor heavy atom, donor atom, acceptor molecule, acceptor atom, score
      P1  H  6896  6907       L1     9  0.45
      P1  H  6931  6943       L1    20  0.08

> <Gold.Chemscore.Hbond.Weighted>
-4.9763

> <Gold.Chemscore.Metal.Weighted>
-0.0000

> <Gold.Chemscore.Lipo.Weighted>
-11.1774

> <Gold.Chemscore.Internal_Hbond.Weighted>
0.0000

> <Gold.Chemscore.DEClash.Weighted>
0.0982

> <Gold.Chemscore.DEInternal.Weighted>
1.9234

> <Gold.Chemscore.Rot.Weighted>
4.3398

> <Gold.Chemscore.Internal.Correction.Weighted>
   9.000000E+99

> <Gold.Protein.RotatedTorsions>
[ 6907 6896 6895 6894 ] final  -12.82 input  -60.11 | X-H torsion
[ 7974 7965 7964 7962 ] final   63.12 input  175.53 | X-H torsion
[ 8008 7997 7996 7995 ] final   75.91 input   59.86 | X-H torsion
[ 10167 10162 10161 10158 ] final   34.75 input  -65.29 | X-H torsion
[ 10718 10713 10712 10709 ] final  -46.70 input   66.30 | X-H torsion
[ 10763 10752 10751 10750 ] final   47.45 input  -60.55 | X-H torsion
[ 11005 11000 10999 10996 ] final  142.82 input  -57.11 | X-H torsion

> <Gold.Protein.ActiveResidues>
 VAL166  LYS551  ARG553  GLY616  TRP617  ASP618  TYR619  PRO620  LYS621  CYS622 
 ASP623  PHE694  ASN695  SER759  ASP760  ASP761  ALA762  ILE779  LEU786  VAL792 
 PHE793  MET794  SER795  GLU796  ALA797  LYS798  CYS799  TRP800  GLU811  SER814 

> <Gold.Protein.RotatedAtoms>
  151.3646  135.0910  159.9445 H   0  0  0  0  0  0  0  0  0  0  0  0  # atno 6907 bound_to 6896
  152.5152  133.9225  159.7551 H   0  0  0  0  0  0  0  0  0  0  0  0  # atno 6908 bound_to 6896
  150.9626  133.6374  159.2781 H   0  0  0  0  0  0  0  0  0  0  0  0  # atno 6909 bound_to 6896
  145.8654  139.3342  143.0794 H   0  0  0  0  0  0  0  0  0  0  0  0  # atno 7974 bound_to 7965
  155.8197  140.3470  155.5507 H   0  0  0  0  0  0  0  0  0  0  0  0  # atno 8008 bound_to 7997
  155.8354  140.0933  157.1787 H   0  0  0  0  0  0  0  0  0  0  0  0  # atno 8009 bound_to 7997
  154.4004  140.1404  156.3652 H   0  0  0  0  0  0  0  0  0  0  0  0  # atno 8010 bound_to 7997
  140.4286  144.1357  150.6156 H   0  0  0  0  0  0  0  0  0  0  0  0  # atno 10167 bound_to 10162
  156.2157  130.4163  149.9057 H   0  0  0  0  0  0  0  0  0  0  0  0  # atno 10718 bound_to 10713
  152.9800  135.5976  154.3765 H   0  0  0  0  0  0  0  0  0  0  0  0  # atno 10763 bound_to 10752
  154.3434  135.2767  155.2412 H   0  0  0  0  0  0  0  0  0  0  0  0  # atno 10764 bound_to 10752
  154.4484  135.5996  153.6230 H   0  0  0  0  0  0  0  0  0  0  0  0  # atno 10765 bound_to 10752
  140.0506  134.9257  157.1010 H   0  0  0  0  0  0  0  0  0  0  0  0  # atno 11005 bound_to 11000
  145.9199  140.9122  143.0410 LP  0  0  0  0  0  0  0  0  0  0  0  0  # atno 17320 bound_to 7965
  144.6726  140.1274  143.7446 LP  0  0  0  0  0  0  0  0  0  0  0  0  # atno 17321 bound_to 7965
  140.4453  143.2509  151.9419 LP  0  0  0  0  0  0  0  0  0  0  0  0  # atno 17342 bound_to 10162
  139.4784  144.5615  151.8232 LP  0  0  0  0  0  0  0  0  0  0  0  0  # atno 17343 bound_to 10162
  156.6720  130.8824  151.3563 LP  0  0  0  0  0  0  0  0  0  0  0  0  # atno 17370 bound_to 10713
  157.7062  130.9388  150.0939 LP  0  0  0  0  0  0  0  0  0  0  0  0  # atno 17371 bound_to 10713
  140.3923  134.2171  155.7166 LP  0  0  0  0  0  0  0  0  0  0  0  0  # atno 17394 bound_to 11000
  141.1928  133.8164  157.0823 LP  0  0  0  0  0  0  0  0  0  0  0  0  # atno 17395 bound_to 11000

$$$$
