AV-unprocessed.smi:36|AV-procd|sdf|284|dock10
  -GOLD-   2262016 63D 1   1.00000     0.00000
 Structure written by MMmdl.
 64 67  0  0  0  0  0  0  0  0  1 V2000
  147.7517  135.1788  162.3614 C   0  0  0  0  0  0  0  0  0  0  0  0
  146.4201  134.9757  161.6200 C   0  0  0  0  0  0  0  0  0  0  0  0
  145.2900  134.7282  162.6333 C   0  0  0  0  0  0  0  0  0  0  0  0
  146.0952  136.2200  160.7769 C   0  0  0  0  0  0  0  0  0  0  0  0
  146.5606  133.4615  160.4638 Si  0  0  0  0  0  0  0  0  0  0  0  0
  147.1896  131.9336  161.4011 C   0  0  0  0  0  0  0  0  0  0  0  0
  144.8933  133.0710  159.6396 C   0  0  0  0  0  0  0  0  0  0  0  0
  147.6824  133.8390  159.2562 O   0  0  0  0  0  0  0  0  0  0  0  0
  147.4157  134.7283  158.1930 C   0  0  0  0  0  0  0  0  0  0  0  0
  148.2938  134.3477  156.9947 C   0  0  1  0  0  0  0  0  0  0  0  0
  148.1744  135.3107  155.9430 O   0  0  0  0  0  0  0  0  0  0  0  0
  149.4370  135.6719  155.4614 C   0  0  1  0  0  0  0  0  0  0  0  0
  149.7965  137.0085  156.0396 N   0  0  0  0  0  0  0  0  0  0  0  0
  149.0936  137.7984  156.9265 C   0  0  0  0  0  0  0  0  0  0  0  0
  149.6668  138.9273  157.2477 N   0  0  0  0  0  0  0  0  0  0  0  0
  150.8384  138.9336  156.5027 C   0  0  0  0  0  0  0  0  0  0  0  0
  151.9118  139.8517  156.3644 C   0  0  0  0  0  0  0  0  0  0  0  0
  151.9189  141.0030  157.0761 N   0  0  0  0  0  0  0  0  0  0  0  0
  152.4021  141.2172  158.4287 C   0  0  0  0  0  0  0  0  0  0  0  0
  152.9810  140.3361  159.0652 O   0  0  0  0  0  0  0  0  0  0  0  0
  152.2386  142.6060  158.9737 C   0  0  0  0  0  0  0  0  0  0  0  0
  152.3624  142.8402  160.3616 C   0  0  0  0  0  0  0  0  0  0  0  0
  152.1904  144.1370  160.8836 C   0  0  0  0  0  0  0  0  0  0  0  0
  151.8855  145.2088  160.0237 C   0  0  0  0  0  0  0  0  0  0  0  0
  151.7497  144.9826  158.6413 C   0  0  0  0  0  0  0  0  0  0  0  0
  151.9219  143.6865  158.1176 C   0  0  0  0  0  0  0  0  0  0  0  0
  152.9156  139.5163  155.5114 N   0  0  0  0  0  0  0  0  0  0  0  0
  152.8673  138.3649  154.8348 C   0  0  0  0  0  0  0  0  0  0  0  0
  151.9282  137.4168  154.8680 N   0  0  0  0  0  0  0  0  0  0  0  0
  150.9220  137.7425  155.7300 C   0  0  0  0  0  0  0  0  0  0  0  0
  150.4013  134.5993  155.9699 C   0  0  0  0  0  0  0  0  0  0  0  0
  149.7904  134.2636  157.3137 C   0  0  2  0  0  0  0  0  0  0  0  0
  150.1803  132.9744  157.7406 O   0  0  0  0  0  0  0  0  0  0  0  0
  147.7043  136.0385  163.0305 H   0  0  0  0  0  0  0  0  0  0  0  0
  148.5725  135.3503  161.6646 H   0  0  0  0  0  0  0  0  0  0  0  0
  148.0083  134.3074  162.9643 H   0  0  0  0  0  0  0  0  0  0  0  0
  145.4977  133.8580  163.2564 H   0  0  0  0  0  0  0  0  0  0  0  0
  144.3380  134.5534  162.1307 H   0  0  0  0  0  0  0  0  0  0  0  0
  145.1593  135.5829  163.2980 H   0  0  0  0  0  0  0  0  0  0  0  0
  145.9843  137.1057  161.4033 H   0  0  0  0  0  0  0  0  0  0  0  0
  145.1648  136.0906  160.2228 H   0  0  0  0  0  0  0  0  0  0  0  0
  146.8832  136.4270  160.0527 H   0  0  0  0  0  0  0  0  0  0  0  0
  146.5075  131.6452  162.2005 H   0  0  0  0  0  0  0  0  0  0  0  0
  148.1645  132.1134  161.8537 H   0  0  0  0  0  0  0  0  0  0  0  0
  147.2941  131.0745  160.7390 H   0  0  0  0  0  0  0  0  0  0  0  0
  144.1164  132.8798  160.3795 H   0  0  0  0  0  0  0  0  0  0  0  0
  144.9580  132.1881  159.0042 H   0  0  0  0  0  0  0  0  0  0  0  0
  144.5526  133.8959  159.0144 H   0  0  0  0  0  0  0  0  0  0  0  0
  146.3608  134.6569  157.9266 H   0  0  0  0  0  0  0  0  0  0  0  0
  147.6064  135.7533  158.5092 H   0  0  0  0  0  0  0  0  0  0  0  0
  147.9518  133.3992  156.5770 H   0  0  0  0  0  0  0  0  0  0  0  0
  149.4492  135.8238  154.3815 H   0  0  0  0  0  0  0  0  0  0  0  0
  148.1349  137.5174  157.3350 H   0  0  0  0  0  0  0  0  0  0  0  0
  151.5219  141.8088  156.6152 H   0  0  0  0  0  0  0  0  0  0  0  0
  152.5945  142.0275  161.0349 H   0  0  0  0  0  0  0  0  0  0  0  0
  152.2909  144.3091  161.9451 H   0  0  0  0  0  0  0  0  0  0  0  0
  151.7518  146.2027  160.4244 H   0  0  0  0  0  0  0  0  0  0  0  0
  151.5100  145.8039  157.9820 H   0  0  0  0  0  0  0  0  0  0  0  0
  151.8030  143.5335  157.0550 H   0  0  0  0  0  0  0  0  0  0  0  0
  153.7012  138.1761  154.1750 H   0  0  0  0  0  0  0  0  0  0  0  0
  150.3531  133.7465  155.2909 H   0  0  0  0  0  0  0  0  0  0  0  0
  151.4327  134.9470  156.0255 H   0  0  0  0  0  0  0  0  0  0  0  0
  150.0773  135.0093  158.0568 H   0  0  0  0  0  0  0  0  0  0  0  0
  150.1267  132.3863  157.0022 H   0  0  0  0  0  0  0  0  0  0  0  0
  1  2  1  0  0  0  0
  1 34  1  0  0  0  0
  1 35  1  0  0  0  0
  1 36  1  0  0  0  0
  2  3  1  0  0  0  0
  2  4  1  0  0  0  0
  2  5  1  0  0  0  0
  3 37  1  0  0  0  0
  3 38  1  0  0  0  0
  3 39  1  0  0  0  0
  4 40  1  0  0  0  0
  4 41  1  0  0  0  0
  4 42  1  0  0  0  0
  5  6  1  0  0  0  0
  5  7  1  0  0  0  0
  5  8  1  0  0  0  0
  6 43  1  0  0  0  0
  6 44  1  0  0  0  0
  6 45  1  0  0  0  0
  7 46  1  0  0  0  0
  7 47  1  0  0  0  0
  7 48  1  0  0  0  0
  8  9  1  0  0  0  0
  9 10  1  0  0  0  0
  9 49  1  0  0  0  0
  9 50  1  0  0  0  0
 10 32  1  0  0  0  0
 10 11  1  0  0  0  0
 10 51  1  0  0  0  0
 11 12  1  0  0  0  0
 12 13  1  0  0  0  0
 12 31  1  0  0  0  0
 12 52  1  0  0  0  0
 13 30  1  0  0  0  0
 13 14  1  0  0  0  0
 14 15  2  0  0  0  0
 14 53  1  0  0  0  0
 15 16  1  0  0  0  0
 16 30  2  0  0  0  0
 16 17  1  0  0  0  0
 17 18  1  0  0  0  0
 17 27  2  0  0  0  0
 18 19  1  0  0  0  0
 18 54  1  0  0  0  0
 19 20  2  0  0  0  0
 19 21  1  0  0  0  0
 21 26  1  0  0  0  0
 21 22  2  0  0  0  0
 22 23  1  0  0  0  0
 22 55  1  0  0  0  0
 23 24  2  0  0  0  0
 23 56  1  0  0  0  0
 24 25  1  0  0  0  0
 24 57  1  0  0  0  0
 25 26  2  0  0  0  0
 25 58  1  0  0  0  0
 26 59  1  0  0  0  0
 27 28  1  0  0  0  0
 28 29  2  0  0  0  0
 28 60  1  0  0  0  0
 29 30  1  0  0  0  0
 31 32  1  0  0  0  0
 31 61  1  0  0  0  0
 31 62  1  0  0  0  0
 32 33  1  0  0  0  0
 32 63  1  0  0  0  0
 33 64  1  0  0  0  0
M  END
> <s_m_source_file>
AV-unprocessed.smi

> <i_m_source_file_index>
36

> <i_lp_mmshare_version>
43012

> <i_f3d_flags>
0

> <s_epik_input>
W0NIM11DKFtDSDNdKShbQ0gzXSlbU2ldKFtDSDNdKShbQ0gzXSlPW0NIMl1bQ0BASF0xT1tDQEhdKFtDSDJdW0NASF0xW09IXSluKFtjSF1uMiljKGMyMyluW2NIXW5jM1tOSF1DKD1PKWM0W2NIXVtjSF1bY0hdW2NIXVtjSF00

> <s_epik_cmdline>
J2VwaWtfcHl0aG9uJywgJy1waCcsICc3LjAnLCAnLXRuJywgJzgnLCAnLW1hJywgJzIwMCcsICctbWV0YWxfYmluZGluZycsICctaW1hZScsICc8aW5maWxlLm1hZT4nLCAnLW9tYWUnLCAnPG91dGZpbGUubWFlPic=

> <r_lp_tautomer_probability>
1

> <r_epik_Ionization_Penalty>
0.00150433

> <r_epik_Ionization_Penalty_Charging>
0

> <r_epik_Ionization_Penalty_Neutral>
0.00150433

> <r_epik_State_Penalty>
0.00724046

> <r_epik_Charging_Adjusted_Penalty>
0.00724046

> <i_epik_Tot_Q>
0

> <i_epik_Tot_abs_Q>
0

> <r_epik_Metal_State_Penalty>
0.323355

> <b_epik_Metal_Only>
0

> <s_epik_Chemistry_Notes>
This compound contains an acetal/aminal-like group ( X-CH(R)-Y where X, Y are N, S, or O) that may be acid/base labile, releasing an aldehyde.

> <s_lp_Force_Field>
OPLS_2005

> <r_lp_Energy>
33.6094

> <b_lp_Chiralities_Consistent>
1

> <s_lp_Variant>
AV-unprocessed.smi:36-6

> <Gold.Version>
5.8.1

> <Gold.Id.Protein>
6NUR|6NUR_protein|mol2

> <Gold.PLP.Fitness>
56.1356

> <Gold.PLP.PLP>
-50.6495

> <Gold.PLP.part.hbond>
-3.0000

> <Gold.PLP.part.metal>
0.0000

> <Gold.PLP.part.buried>
-6.4442

> <Gold.PLP.part.nonpolar>
-41.3865

> <Gold.PLP.part.repulsive>
0.2639

> <Gold.PLP.ligand.clash>
0.0000

> <Gold.PLP.ligand.torsion>
1.3535

> <Gold.PLP.Chemscore.Hbond>
2.5650

> <Gold.PLP.Chemscore.CHOScore>
0.0000

> <Gold.PLP.Chemscore.Metal>
0.0000

> <Gold.Chemscore.Hbonds>
donor molecule, donor type, donor heavy atom, donor atom, acceptor molecule, acceptor atom, score
      P1  H  6896  6909       L1    33  1.00
      P1  H  7997  8010       L1    27  1.00
      P1  H 10752 10764       L1    29  0.65

> <Gold.PLP.Chemscore.Internal.Correction>
0.4981

> <Gold.Rescore>
     Score         DG    S(hbond)    S(metal)    S(lipo)     H(rot)  DE(clash)    DE(int)     intcor
     15.54     -16.82       1.32        0.00     118.45       2.70       0.05       1.24       ----

> <Gold.Chemscore.Fitness>
15.5372

> <Gold.Chemscore.DG>
-16.8218

> <Gold.Chemscore.ZeroCoef>
-5.4800

> <Gold.Chemscore.Hbond>
1.3189

> <Gold.Chemscore.Metal>
0.0000

> <Gold.Chemscore.Lipo>
118.4543

> <Gold.Chemscore.Internal_Hbond>
0.0000

> <Gold.Chemscore.DEClash>
0.0458

> <Gold.Chemscore.DEInternal>
1.2388

> <Gold.Chemscore.Rot>
2.7041

> <Gold.Chemscore.Internal.Correction>
   9.000000E+99

> <Gold.Chemscore.Hbonds>
donor molecule, donor type, donor heavy atom, donor atom, acceptor molecule, acceptor atom, score
      P1  H  6896  6909       L1    33  0.25
      P1  H  7997  8010       L1    27  0.33
      P1  H 10752 10764       L1    29  0.25

> <Gold.Chemscore.Hbond.Weighted>
-4.4051

> <Gold.Chemscore.Metal.Weighted>
-0.0000

> <Gold.Chemscore.Lipo.Weighted>
-13.8592

> <Gold.Chemscore.Internal_Hbond.Weighted>
0.0000

> <Gold.Chemscore.DEClash.Weighted>
0.0458

> <Gold.Chemscore.DEInternal.Weighted>
1.2388

> <Gold.Chemscore.Rot.Weighted>
6.9225

> <Gold.Chemscore.Internal.Correction.Weighted>
   9.000000E+99

> <Gold.Protein.RotatedTorsions>
[ 6907 6896 6895 6894 ] final  -32.15 input  -60.11 | X-H torsion
[ 7974 7965 7964 7962 ] final   -6.90 input  175.53 | X-H torsion
[ 8008 7997 7996 7995 ] final   72.83 input   59.86 | X-H torsion
[ 10167 10162 10161 10158 ] final   79.53 input  -65.29 | X-H torsion
[ 10718 10713 10712 10709 ] final   39.62 input   66.30 | X-H torsion
[ 10763 10752 10751 10750 ] final  -81.28 input  -60.55 | X-H torsion
[ 11005 11000 10999 10996 ] final  149.15 input  -57.11 | X-H torsion

> <Gold.Protein.ActiveResidues>
 VAL166  LYS551  ARG553  GLY616  TRP617  ASP618  TYR619  PRO620  LYS621  CYS622 
 ASP623  PHE694  ASN695  SER759  ASP760  ASP761  ALA762  ILE779  LEU786  VAL792 
 PHE793  MET794  SER795  GLU796  ALA797  LYS798  CYS799  TRP800  GLU811  SER814 

> <Gold.Protein.RotatedAtoms>
  151.0826  134.9867  159.8363 H   0  0  0  0  0  0  0  0  0  0  0  0  # atno 6907 bound_to 6896
  152.5421  134.2163  159.8780 H   0  0  0  0  0  0  0  0  0  0  0  0  # atno 6908 bound_to 6896
  151.2194  133.4467  159.2634 H   0  0  0  0  0  0  0  0  0  0  0  0  # atno 6909 bound_to 6896
  146.2320  140.2239  142.8338 H   0  0  0  0  0  0  0  0  0  0  0  0  # atno 7974 bound_to 7965
  155.7746  140.3483  155.5265 H   0  0  0  0  0  0  0  0  0  0  0  0  # atno 8008 bound_to 7997
  155.8788  140.0998  157.1520 H   0  0  0  0  0  0  0  0  0  0  0  0  # atno 8009 bound_to 7997
  154.4023  140.1326  156.4158 H   0  0  0  0  0  0  0  0  0  0  0  0  # atno 8010 bound_to 7997
  139.9594  144.5971  150.8086 H   0  0  0  0  0  0  0  0  0  0  0  0  # atno 10167 bound_to 10162
  157.3726  130.7710  149.7131 H   0  0  0  0  0  0  0  0  0  0  0  0  # atno 10718 bound_to 10713
  154.5617  135.5631  153.7013 H   0  0  0  0  0  0  0  0  0  0  0  0  # atno 10763 bound_to 10752
  153.0020  135.6275  154.2236 H   0  0  0  0  0  0  0  0  0  0  0  0  # atno 10764 bound_to 10752
  154.2174  135.2871  155.2917 H   0  0  0  0  0  0  0  0  0  0  0  0  # atno 10765 bound_to 10752
  140.1020  134.8977  157.1810 H   0  0  0  0  0  0  0  0  0  0  0  0  # atno 11005 bound_to 11000
  144.9610  140.8275  143.5513 LP  0  0  0  0  0  0  0  0  0  0  0  0  # atno 17320 bound_to 7965
  145.2210  139.2159  143.5093 LP  0  0  0  0  0  0  0  0  0  0  0  0  # atno 17321 bound_to 7965
  140.7558  143.3053  151.2977 LP  0  0  0  0  0  0  0  0  0  0  0  0  # atno 17342 bound_to 10162
  139.6566  144.0265  152.2664 LP  0  0  0  0  0  0  0  0  0  0  0  0  # atno 17343 bound_to 10162
  155.9759  130.4083  150.3819 LP  0  0  0  0  0  0  0  0  0  0  0  0  # atno 17370 bound_to 10713
  157.1912  131.0416  151.2699 LP  0  0  0  0  0  0  0  0  0  0  0  0  # atno 17371 bound_to 10713
  140.3206  134.2920  155.7247 LP  0  0  0  0  0  0  0  0  0  0  0  0  # atno 17394 bound_to 11000
  141.2108  133.7708  156.9906 LP  0  0  0  0  0  0  0  0  0  0  0  0  # atno 17395 bound_to 11000

$$$$
