AV-unprocessed.smi:1381|AV-procd|sdf|5613|dock1
  -GOLD-   22720 5223D 1   1.00000     0.00000
 Structure written by MMmdl.
 42 43  0  0  0  0  0  0  0  0  3 V2000
  153.4458  136.9661  162.1447 C   0  0  0  0  0  0  0  0  0  0  0  0
  153.2553  137.4979  160.7655 C   0  0  0  0  0  0  0  0  0  0  0  0
  153.3605  138.7505  160.2309 C   0  0  0  0  0  0  0  0  0  0  0  0
  153.0419  138.5468  158.8605 C   0  0  0  0  0  0  0  0  0  0  0  0
  153.0205  139.4906  157.9068 N   0  5  0  0  0  0  0  0  0  0  0  0
  151.8421  139.9397  157.4186 C   0  0  0  0  0  0  0  0  0  0  0  0
  150.8955  140.3782  158.0765 O   0  0  0  0  0  0  0  0  0  0  0  0
  151.7533  139.8763  156.0823 N   0  0  0  0  0  0  0  0  0  0  0  0
  150.6036  140.2889  155.2866 C   0  0  0  0  0  0  0  0  0  0  0  0
  150.1435  141.7105  155.6597 C   0  0  0  0  0  0  0  0  0  0  0  0
  148.6713  141.8662  155.5655 N   0  3  1  0  0  0  0  0  0  0  0  0
  148.1541  141.5565  154.2116 C   0  0  0  0  0  0  0  0  0  0  0  0
  146.6326  141.7894  154.1289 C   0  0  2  0  0  0  0  0  0  0  0  0
  146.2374  143.2767  154.0964 C   0  0  0  0  0  0  0  0  0  0  0  0
  145.9658  141.0765  155.1707 O   0  0  0  0  0  0  0  0  0  0  0  0
  146.4202  141.3772  156.4879 C   0  0  1  0  0  0  0  0  0  0  0  0
  145.6074  140.5297  157.4726 C   0  0  0  0  0  0  0  0  0  0  0  0
  147.9290  141.0904  156.5879 C   0  0  0  0  0  0  0  0  0  0  0  0
  152.7822  137.2798  158.5846 N   0  0  0  0  0  0  0  0  0  0  0  0
  152.9113  136.6013  159.8022 O   0  0  0  0  0  0  0  0  0  0  0  0
  154.5063  136.8635  162.3744 H   0  0  0  0  0  0  0  0  0  0  0  0
  152.9790  135.9871  162.2557 H   0  0  0  0  0  0  0  0  0  0  0  0
  153.0026  137.6359  162.8818 H   0  0  0  0  0  0  0  0  0  0  0  0
  153.6199  139.6675  160.7383 H   0  0  0  0  0  0  0  0  0  0  0  0
  152.5517  139.5129  155.5824 H   0  0  0  0  0  0  0  0  0  0  0  0
  150.8541  140.2113  154.2283 H   0  0  0  0  0  0  0  0  0  0  0  0
  149.7966  139.5782  155.4662 H   0  0  0  0  0  0  0  0  0  0  0  0
  150.4612  141.9083  156.6846 H   0  0  0  0  0  0  0  0  0  0  0  0
  150.6320  142.4614  155.0365 H   0  0  0  0  0  0  0  0  0  0  0  0
  148.6637  142.1662  153.4642 H   0  0  0  0  0  0  0  0  0  0  0  0
  148.3797  140.5150  153.9761 H   0  0  0  0  0  0  0  0  0  0  0  0
  146.2821  141.3523  153.1935 H   0  0  0  0  0  0  0  0  0  0  0  0
  146.6527  143.7670  153.2154 H   0  0  0  0  0  0  0  0  0  0  0  0
  146.5974  143.8215  154.9687 H   0  0  0  0  0  0  0  0  0  0  0  0
  145.1539  143.3896  154.0543 H   0  0  0  0  0  0  0  0  0  0  0  0
  146.2315  142.4274  156.7128 H   0  0  0  0  0  0  0  0  0  0  0  0
  145.9087  140.7271  158.5017 H   0  0  0  0  0  0  0  0  0  0  0  0
  145.7420  139.4645  157.2826 H   0  0  0  0  0  0  0  0  0  0  0  0
  144.5430  140.7505  157.3905 H   0  0  0  0  0  0  0  0  0  0  0  0
  148.1220  140.0252  156.4483 H   0  0  0  0  0  0  0  0  0  0  0  0
  148.2775  141.3469  157.5878 H   0  0  0  0  0  0  0  0  0  0  0  0
  148.4745  142.8432  155.7288 H   0  0  0  0  0  0  0  0  0  0  0  0
  1  2  1  0  0  0  0
  1 21  1  0  0  0  0
  1 22  1  0  0  0  0
  1 23  1  0  0  0  0
  2 20  1  0  0  0  0
  2  3  2  0  0  0  0
  3  4  1  0  0  0  0
  3 24  1  0  0  0  0
  4  5  1  0  0  0  0
  4 19  2  0  0  0  0
  5  6  1  0  0  0  0
  6  7  2  0  0  0  0
  6  8  1  0  0  0  0
  8  9  1  0  0  0  0
  8 25  1  0  0  0  0
  9 10  1  0  0  0  0
  9 26  1  0  0  0  0
  9 27  1  0  0  0  0
 10 11  1  0  0  0  0
 10 28  1  0  0  0  0
 10 29  1  0  0  0  0
 11 18  1  0  0  0  0
 11 12  1  0  0  0  0
 11 42  1  0  0  0  0
 12 13  1  0  0  0  0
 12 30  1  0  0  0  0
 12 31  1  0  0  0  0
 13 14  1  0  0  0  0
 13 15  1  0  0  0  0
 13 32  1  0  0  0  0
 14 33  1  0  0  0  0
 14 34  1  0  0  0  0
 14 35  1  0  0  0  0
 15 16  1  0  0  0  0
 16 17  1  0  0  0  0
 16 18  1  0  0  0  0
 16 36  1  0  0  0  0
 17 37  1  0  0  0  0
 17 38  1  0  0  0  0
 17 39  1  0  0  0  0
 18 40  1  0  0  0  0
 18 41  1  0  0  0  0
 19 20  1  0  0  0  0
M  CHG  1   5  -1
M  CHG  1  11   1
M  END
> <s_m_source_file>
AV-unprocessed.smi

> <i_m_source_file_index>
1381

> <i_lp_mmshare_version>
43012

> <i_f3d_flags>
0

> <s_epik_input>
W0NIM11jMVtjSF1jKG5vMSlbTkhdQyg9TylbTkhdW0NIMl1bQ0gyXU4yW0NIMl1bQ0BASF0oW0NIM10pT1tDQEBIXShbQ0gzXSlbQ0gyXTI=

> <s_epik_cmdline>
J2VwaWtfcHl0aG9uJywgJy1waCcsICc3LjAnLCAnLXRuJywgJzgnLCAnLW1hJywgJzIwMCcsICctbWV0YWxfYmluZGluZycsICctaW1hZScsICc8aW5maWxlLm1hZT4nLCAnLW9tYWUnLCAnPG91dGZpbGUubWFlPic=

> <r_epik_Ionization_Penalty>
6.73511

> <r_epik_Ionization_Penalty_Charging>
6.73502

> <r_epik_Ionization_Penalty_Neutral>
9.26583e-05

> <r_epik_State_Penalty>
6.93549

> <r_epik_Charging_Adjusted_Penalty>
13.6705

> <i_epik_Tot_Q>
0

> <i_epik_Tot_abs_Q>
2

> <r_epik_Metal_State_Penalty>
2.87211

> <b_epik_Metal_Only>
1

> <s_lp_Force_Field>
OPLS_2005

> <r_lp_Energy>
5.71057

> <b_lp_Chiralities_Consistent>
1

> <s_lp_Variant>
AV-unprocessed.smi:1381-12

> <Gold.Version>
5.8.1

> <Gold.Id.Protein>
6NUR|6NUR_protein|mol2

> <Gold.PLP.Fitness>
42.6128

> <Gold.PLP.PLP>
-30.3853

> <Gold.PLP.part.hbond>
-3.0000

> <Gold.PLP.part.metal>
0.0000

> <Gold.PLP.part.buried>
-4.3385

> <Gold.PLP.part.nonpolar>
-23.2288

> <Gold.PLP.part.repulsive>
0.3595

> <Gold.PLP.ligand.clash>
0.0000

> <Gold.PLP.ligand.torsion>
1.4654

> <Gold.PLP.Chemscore.Hbond>
5.0000

> <Gold.PLP.Chemscore.CHOScore>
0.0000

> <Gold.PLP.Chemscore.Metal>
0.0000

> <Gold.Chemscore.Hbonds>
donor molecule, donor type, donor heavy atom, donor atom, acceptor molecule, acceptor atom, score
      L1  H    11    42       P1  8028  2.00
      P1  H  6896  6907       L1    20  1.00
      P1  H  7997  8010       L1     5  2.00

> <Gold.PLP.Chemscore.Internal.Correction>
0.1582

> <Gold.Rescore>
     Score         DG    S(hbond)    S(metal)    S(lipo)     H(rot)  DE(clash)    DE(int)     intcor
     15.30     -18.07       2.92        0.00      58.66       1.58       0.00       2.77       ----

> <Gold.Chemscore.Fitness>
15.2985

> <Gold.Chemscore.DG>
-18.0698

> <Gold.Chemscore.ZeroCoef>
-5.4800

> <Gold.Chemscore.Hbond>
2.9249

> <Gold.Chemscore.Metal>
0.0000

> <Gold.Chemscore.Lipo>
58.6624

> <Gold.Chemscore.Internal_Hbond>
0.0000

> <Gold.Chemscore.DEClash>
0.0021

> <Gold.Chemscore.DEInternal>
2.7691

> <Gold.Chemscore.Rot>
1.5792

> <Gold.Chemscore.Internal.Correction>
   9.000000E+99

> <Gold.Chemscore.Hbonds>
donor molecule, donor type, donor heavy atom, donor atom, acceptor molecule, acceptor atom, score
      L1  H    11    42       P1  8028  0.97
      P1  H  6896  6907       L1    20  0.96
      P1  H  7997  8010       L1     5  0.59

> <Gold.Chemscore.Hbond.Weighted>
-9.7691

> <Gold.Chemscore.Metal.Weighted>
-0.0000

> <Gold.Chemscore.Lipo.Weighted>
-6.8635

> <Gold.Chemscore.Internal_Hbond.Weighted>
0.0000

> <Gold.Chemscore.DEClash.Weighted>
0.0021

> <Gold.Chemscore.DEInternal.Weighted>
2.7691

> <Gold.Chemscore.Rot.Weighted>
4.0428

> <Gold.Chemscore.Internal.Correction.Weighted>
   9.000000E+99

> <Gold.Protein.RotatedTorsions>
[ 6907 6896 6895 6894 ] final   22.82 input  -60.11 | X-H torsion
[ 7974 7965 7964 7962 ] final  111.99 input  175.53 | X-H torsion
[ 8008 7997 7996 7995 ] final   57.58 input   59.86 | X-H torsion
[ 10167 10162 10161 10158 ] final   36.96 input  -65.29 | X-H torsion
[ 10718 10713 10712 10709 ] final -151.88 input   66.30 | X-H torsion
[ 10763 10752 10751 10750 ] final -157.72 input  -60.55 | X-H torsion
[ 11005 11000 10999 10996 ] final  -14.30 input  -57.11 | X-H torsion

> <Gold.Protein.ActiveResidues>
 VAL166  LYS551  ARG553  GLY616  TRP617  ASP618  TYR619  PRO620  LYS621  CYS622 
 ASP623  PHE694  ASN695  SER759  ASP760  ASP761  ALA762  ILE779  LEU786  VAL792 
 PHE793  MET794  SER795  GLU796  ALA797  LYS798  CYS799  TRP800  GLU811  SER814 

> <Gold.Protein.RotatedAtoms>
  151.9330  135.0248  160.0530 H   0  0  0  0  0  0  0  0  0  0  0  0  # atno 6907 bound_to 6896
  152.2102  133.4901  159.5114 H   0  0  0  0  0  0  0  0  0  0  0  0  # atno 6908 bound_to 6896
  150.6974  134.1393  159.4142 H   0  0  0  0  0  0  0  0  0  0  0  0  # atno 6909 bound_to 6896
  145.2352  139.2802  143.4147 H   0  0  0  0  0  0  0  0  0  0  0  0  # atno 7974 bound_to 7965
  155.5361  140.3483  155.4437 H   0  0  0  0  0  0  0  0  0  0  0  0  # atno 8008 bound_to 7997
  156.0684  140.1357  156.9885 H   0  0  0  0  0  0  0  0  0  0  0  0  # atno 8009 bound_to 7997
  154.4515  140.0971  156.6607 H   0  0  0  0  0  0  0  0  0  0  0  0  # atno 8010 bound_to 7997
  140.4078  144.1635  150.6137 H   0  0  0  0  0  0  0  0  0  0  0  0  # atno 10167 bound_to 10162
  156.4651  130.8232  151.2462 H   0  0  0  0  0  0  0  0  0  0  0  0  # atno 10718 bound_to 10713
  154.7614  135.3119  154.8371 H   0  0  0  0  0  0  0  0  0  0  0  0  # atno 10763 bound_to 10752
  153.9131  135.6803  153.4754 H   0  0  0  0  0  0  0  0  0  0  0  0  # atno 10764 bound_to 10752
  153.1215  135.4820  154.9134 H   0  0  0  0  0  0  0  0  0  0  0  0  # atno 10765 bound_to 10752
  140.7849  133.8333  155.9326 H   0  0  0  0  0  0  0  0  0  0  0  0  # atno 11005 bound_to 11000
  146.3343  140.2698  142.8605 LP  0  0  0  0  0  0  0  0  0  0  0  0  # atno 17320 bound_to 7965
  144.9640  140.8303  143.5496 LP  0  0  0  0  0  0  0  0  0  0  0  0  # atno 17321 bound_to 7965
  140.4671  143.2427  151.9140 LP  0  0  0  0  0  0  0  0  0  0  0  0  # atno 17342 bound_to 10162
  139.4783  144.5408  151.8531 LP  0  0  0  0  0  0  0  0  0  0  0  0  # atno 17343 bound_to 10162
  157.7495  131.0094  150.3267 LP  0  0  0  0  0  0  0  0  0  0  0  0  # atno 17370 bound_to 10713
  156.3676  130.3858  149.7201 LP  0  0  0  0  0  0  0  0  0  0  0  0  # atno 17371 bound_to 10713
  140.9446  134.1857  157.4773 LP  0  0  0  0  0  0  0  0  0  0  0  0  # atno 17394 bound_to 11000
  139.8738  134.9885  156.5416 LP  0  0  0  0  0  0  0  0  0  0  0  0  # atno 17395 bound_to 11000

$$$$
