AV-unprocessed.smi:1809|AV-procd|sdf|7317|dock9
  -GOLD-   22720 8573D 1   1.00000     0.00000
 Structure written by MMmdl.
 39 41  0  0  0  0  0  0  0  0  1 V2000
  151.7567  140.7978  156.9965 C   0  0  0  0  0  0  0  0  0  0  0  0
  151.2774  139.7834  156.0151 C   0  0  0  0  0  0  0  0  0  0  0  0
  151.0106  140.0819  154.7377 N   0  0  0  0  0  0  0  0  0  0  0  0
  150.5764  138.9769  154.0189 N   0  0  0  0  0  0  0  0  0  0  0  0
  150.5269  137.8741  154.7787 C   0  0  0  0  0  0  0  0  0  0  0  0
  150.1170  136.6020  154.2990 N   0  0  0  0  0  0  0  0  0  0  0  0
  150.1948  135.4123  154.9205 C   0  0  0  0  0  0  0  0  0  0  0  0
  150.6500  135.2274  156.0495 O   0  0  0  0  0  0  0  0  0  0  0  0
  149.7044  134.4309  154.1496 N   0  0  0  0  0  0  0  0  0  0  0  0
  149.6431  133.0212  154.5212 C   0  0  0  0  0  0  0  0  0  0  0  0
  148.8669  132.1909  153.4852 C   0  0  2  0  0  0  0  0  0  0  0  0
  147.6177  132.9456  152.9744 C   0  0  0  0  0  0  0  0  0  0  0  0
  146.8449  132.0900  152.0950 N   0  0  0  0  0  0  0  0  0  0  0  0
  145.5986  132.6229  151.5956 C   0  0  0  0  0  0  0  0  0  0  0  0
  144.8393  131.3896  151.0754 C   0  0  0  0  0  0  0  0  0  0  0  0
  145.5101  130.1943  151.7887 C   0  0  0  0  0  0  0  0  0  0  0  0
  146.4629  130.8793  152.7699 C   0  0  1  0  0  0  0  0  0  0  0  0
  147.7034  130.0986  153.2251 C   0  0  0  0  0  0  0  0  0  0  0  0
  148.4664  130.9506  154.0827 O   0  0  0  0  0  0  0  0  0  0  0  0
  151.0108  138.0997  156.4510 S   0  0  0  0  0  0  0  0  0  0  0  0
  152.2866  141.6026  156.4860 H   0  0  0  0  0  0  0  0  0  0  0  0
  152.4346  140.3354  157.7141 H   0  0  0  0  0  0  0  0  0  0  0  0
  150.9100  141.2217  157.5363 H   0  0  0  0  0  0  0  0  0  0  0  0
  149.7139  136.5983  153.3738 H   0  0  0  0  0  0  0  0  0  0  0  0
  149.3526  134.6739  153.2354 H   0  0  0  0  0  0  0  0  0  0  0  0
  150.6433  132.6110  154.6711 H   0  0  0  0  0  0  0  0  0  0  0  0
  149.1407  132.9615  155.4869 H   0  0  0  0  0  0  0  0  0  0  0  0
  149.5206  131.9730  152.6384 H   0  0  0  0  0  0  0  0  0  0  0  0
  147.0047  133.2598  153.8205 H   0  0  0  0  0  0  0  0  0  0  0  0
  147.9149  133.8508  152.4440 H   0  0  0  0  0  0  0  0  0  0  0  0
  145.0365  133.0889  152.4066 H   0  0  0  0  0  0  0  0  0  0  0  0
  145.7628  133.3734  150.8221 H   0  0  0  0  0  0  0  0  0  0  0  0
  143.7757  131.4590  151.3057 H   0  0  0  0  0  0  0  0  0  0  0  0
  144.9429  131.2932  149.9940 H   0  0  0  0  0  0  0  0  0  0  0  0
  144.7925  129.5482  152.2949 H   0  0  0  0  0  0  0  0  0  0  0  0
  146.0639  129.5898  151.0689 H   0  0  0  0  0  0  0  0  0  0  0  0
  145.8862  131.1397  153.6604 H   0  0  0  0  0  0  0  0  0  0  0  0
  147.4159  129.1999  153.7710 H   0  0  0  0  0  0  0  0  0  0  0  0
  148.3096  129.7861  152.3735 H   0  0  0  0  0  0  0  0  0  0  0  0
  1  2  1  0  0  0  0
  1 21  1  0  0  0  0
  1 22  1  0  0  0  0
  1 23  1  0  0  0  0
  2 20  1  0  0  0  0
  2  3  2  0  0  0  0
  3  4  1  0  0  0  0
  4  5  2  0  0  0  0
  5  6  1  0  0  0  0
  5 20  1  0  0  0  0
  6  7  1  0  0  0  0
  6 24  1  0  0  0  0
  7  8  2  0  0  0  0
  7  9  1  0  0  0  0
  9 10  1  0  0  0  0
  9 25  1  0  0  0  0
 10 11  1  0  0  0  0
 10 26  1  0  0  0  0
 10 27  1  0  0  0  0
 11 19  1  0  0  0  0
 11 12  1  0  0  0  0
 11 28  1  0  0  0  0
 12 13  1  0  0  0  0
 12 29  1  0  0  0  0
 12 30  1  0  0  0  0
 13 17  1  0  0  0  0
 13 14  1  0  0  0  0
 14 15  1  0  0  0  0
 14 31  1  0  0  0  0
 14 32  1  0  0  0  0
 15 16  1  0  0  0  0
 15 33  1  0  0  0  0
 15 34  1  0  0  0  0
 16 17  1  0  0  0  0
 16 35  1  0  0  0  0
 16 36  1  0  0  0  0
 17 18  1  0  0  0  0
 17 37  1  0  0  0  0
 18 19  1  0  0  0  0
 18 38  1  0  0  0  0
 18 39  1  0  0  0  0
M  END
> <s_m_source_file>
AV-unprocessed.smi

> <i_m_source_file_index>
1809

> <i_lp_mmshare_version>
43012

> <i_f3d_flags>
0

> <s_epik_input>
W0NIM11jMW5uYyhzMSlbTkhdQyg9TylbTkhdW0NIMl1bQ0BIXShbQ0gyXTIpT1tDSDJdW0NAQEhdKE4yMylbQ0gyXVtDSDJdW0NIMl0z

> <s_epik_cmdline>
J2VwaWtfcHl0aG9uJywgJy1waCcsICc3LjAnLCAnLXRuJywgJzgnLCAnLW1hJywgJzIwMCcsICctbWV0YWxfYmluZGluZycsICctaW1hZScsICc8aW5maWxlLm1hZT4nLCAnLW9tYWUnLCAnPG91dGZpbGUubWFlPic=

> <r_lp_tautomer_probability>
1

> <r_epik_Ionization_Penalty>
1.05954

> <r_epik_Ionization_Penalty_Charging>
0

> <r_epik_Ionization_Penalty_Neutral>
1.05954

> <r_epik_State_Penalty>
1.4238

> <r_epik_Charging_Adjusted_Penalty>
1.4238

> <i_epik_Tot_Q>
0

> <i_epik_Tot_abs_Q>
0

> <r_epik_Metal_State_Penalty>
1.7901

> <b_epik_Metal_Only>
0

> <s_lp_Force_Field>
OPLS_2005

> <r_lp_Energy>
46.8482

> <b_lp_Chiralities_Consistent>
1

> <s_lp_Variant>
AV-unprocessed.smi:1809-9

> <Gold.Version>
5.8.1

> <Gold.Id.Protein>
6NUR|6NUR_protein|mol2

> <Gold.PLP.Fitness>
38.7950

> <Gold.PLP.PLP>
-32.6269

> <Gold.PLP.part.hbond>
-4.4663

> <Gold.PLP.part.metal>
0.0000

> <Gold.PLP.part.buried>
-5.0990

> <Gold.PLP.part.nonpolar>
-24.2409

> <Gold.PLP.part.repulsive>
1.0115

> <Gold.PLP.ligand.clash>
0.0000

> <Gold.PLP.ligand.torsion>
0.2160

> <Gold.PLP.Chemscore.Hbond>
2.1998

> <Gold.PLP.Chemscore.CHOScore>
0.0000

> <Gold.PLP.Chemscore.Metal>
0.0000

> <Gold.Chemscore.Hbonds>
donor molecule, donor type, donor heavy atom, donor atom, acceptor molecule, acceptor atom, score
      L1  H     6    24       P1  7948  1.00
      L1  H     9    25       P1  7948  0.31
      P1  H  7989  7998       L1     3  0.85

> <Gold.PLP.Chemscore.Internal.Correction>
0.0009

> <Gold.Rescore>
     Score         DG    S(hbond)    S(metal)    S(lipo)     H(rot)  DE(clash)    DE(int)     intcor
     13.04     -14.64       1.47        0.00      65.28       1.32       0.03       1.57       ----

> <Gold.Chemscore.Fitness>
13.0412

> <Gold.Chemscore.DG>
-14.6371

> <Gold.Chemscore.ZeroCoef>
-5.4800

> <Gold.Chemscore.Hbond>
1.4662

> <Gold.Chemscore.Metal>
0.0000

> <Gold.Chemscore.Lipo>
65.2838

> <Gold.Chemscore.Internal_Hbond>
0.0000

> <Gold.Chemscore.DEClash>
0.0275

> <Gold.Chemscore.DEInternal>
1.5684

> <Gold.Chemscore.Rot>
1.3196

> <Gold.Chemscore.Internal.Correction>
   9.000000E+99

> <Gold.Chemscore.Hbonds>
donor molecule, donor type, donor heavy atom, donor atom, acceptor molecule, acceptor atom, score
      L1  H     6    24       P1  7948  0.40
      L1  H     9    25       P1  7948  0.01
      P1  H  7989  7998       L1     3  0.14

> <Gold.Chemscore.Hbond.Weighted>
-4.8972

> <Gold.Chemscore.Metal.Weighted>
-0.0000

> <Gold.Chemscore.Lipo.Weighted>
-7.6382

> <Gold.Chemscore.Internal_Hbond.Weighted>
0.0000

> <Gold.Chemscore.DEClash.Weighted>
0.0275

> <Gold.Chemscore.DEInternal.Weighted>
1.5684

> <Gold.Chemscore.Rot.Weighted>
3.3783

> <Gold.Chemscore.Internal.Correction.Weighted>
   9.000000E+99

> <Gold.Protein.RotatedTorsions>
[ 6907 6896 6895 6894 ] final   68.67 input  -60.11 | X-H torsion
[ 7974 7965 7964 7962 ] final   72.54 input  175.53 | X-H torsion
[ 8008 7997 7996 7995 ] final -161.51 input   59.86 | X-H torsion
[ 10167 10162 10161 10158 ] final  167.63 input  -65.29 | X-H torsion
[ 10718 10713 10712 10709 ] final   32.98 input   66.30 | X-H torsion
[ 10763 10752 10751 10750 ] final -129.60 input  -60.55 | X-H torsion
[ 11005 11000 10999 10996 ] final   22.74 input  -57.11 | X-H torsion

> <Gold.Protein.ActiveResidues>
 VAL166  LYS551  ARG553  GLY616  TRP617  ASP618  TYR619  PRO620  LYS621  CYS622 
 ASP623  PHE694  ASN695  SER759  ASP760  ASP761  ALA762  ILE779  LEU786  VAL792 
 PHE793  MET794  SER795  GLU796  ALA797  LYS798  CYS799  TRP800  GLU811  SER814 

> <Gold.Protein.RotatedAtoms>
  152.4635  134.5129  159.9758 H   0  0  0  0  0  0  0  0  0  0  0  0  # atno 6907 bound_to 6896
  151.5172  133.3467  159.2903 H   0  0  0  0  0  0  0  0  0  0  0  0  # atno 6908 bound_to 6896
  150.8609  134.7990  159.7144 H   0  0  0  0  0  0  0  0  0  0  0  0  # atno 6909 bound_to 6896
  145.7521  139.2764  143.1425 H   0  0  0  0  0  0  0  0  0  0  0  0  # atno 7974 bound_to 7965
  155.7933  140.0881  157.1997 H   0  0  0  0  0  0  0  0  0  0  0  0  # atno 8008 bound_to 7997
  154.3984  140.1486  156.3247 H   0  0  0  0  0  0  0  0  0  0  0  0  # atno 8009 bound_to 7997
  155.8537  140.3433  155.5712 H   0  0  0  0  0  0  0  0  0  0  0  0  # atno 8010 bound_to 7997
  139.4949  144.3901  151.9526 H   0  0  0  0  0  0  0  0  0  0  0  0  # atno 10167 bound_to 10162
  157.2920  130.7307  149.6616 H   0  0  0  0  0  0  0  0  0  0  0  0  # atno 10718 bound_to 10713
  154.8757  135.3890  154.3946 H   0  0  0  0  0  0  0  0  0  0  0  0  # atno 10763 bound_to 10752
  153.4678  135.7029  153.6017 H   0  0  0  0  0  0  0  0  0  0  0  0  # atno 10764 bound_to 10752
  153.4487  135.3839  155.2239 H   0  0  0  0  0  0  0  0  0  0  0  0  # atno 10765 bound_to 10752
  140.3772  134.1959  155.7664 H   0  0  0  0  0  0  0  0  0  0  0  0  # atno 11005 bound_to 11000
  146.0347  140.8224  142.9859 LP  0  0  0  0  0  0  0  0  0  0  0  0  # atno 17320 bound_to 7965
  144.6847  140.2820  143.7291 LP  0  0  0  0  0  0  0  0  0  0  0  0  # atno 17321 bound_to 7965
  140.3339  144.3284  150.5981 LP  0  0  0  0  0  0  0  0  0  0  0  0  # atno 17342 bound_to 10162
  140.5622  143.2190  151.7745 LP  0  0  0  0  0  0  0  0  0  0  0  0  # atno 17343 bound_to 10162
  155.9667  130.4306  150.4882 LP  0  0  0  0  0  0  0  0  0  0  0  0  # atno 17370 bound_to 10713
  157.2847  131.0614  151.2174 LP  0  0  0  0  0  0  0  0  0  0  0  0  # atno 17371 bound_to 10713
  141.1935  133.8149  157.0795 LP  0  0  0  0  0  0  0  0  0  0  0  0  # atno 17394 bound_to 11000
  140.0506  134.9807  157.1129 LP  0  0  0  0  0  0  0  0  0  0  0  0  # atno 17395 bound_to 11000

$$$$
