AV-unprocessed.smi:134|AV-procd|sdf|1168|dock1
  -GOLD-   2262018313D 1   1.00000     0.00000
 Structure written by MMmdl.
 51 54  0  0  0  0  0  0  0  0  1 V2000
  150.4991  139.4072  154.2273 O   0  0  0  0  0  0  0  0  0  0  0  0
  149.3350  139.4810  154.6172 C   0  0  0  0  0  0  0  0  0  0  0  0
  148.6771  140.8708  154.7106 C   0  0  0  0  0  0  0  0  0  0  0  0
  148.6950  141.4873  156.0588 N   0  0  0  0  0  0  0  0  0  0  0  0
  147.4619  141.8576  156.6519 C   0  0  0  0  0  0  0  0  0  0  0  0
  146.3929  141.6684  156.0701 O   0  0  0  0  0  0  0  0  0  0  0  0
  147.5560  142.4805  157.9671 C   0  0  0  0  0  0  0  0  0  0  0  0
  146.4368  142.8705  158.6004 F   0  0  0  0  0  0  0  0  0  0  0  0
  148.7521  142.6780  158.5579 C   0  0  0  0  0  0  0  0  0  0  0  0
  149.9485  142.3077  157.9702 N   0  0  0  0  0  0  0  0  0  0  0  0
  151.2768  142.5353  158.6619 C   0  0  1  0  0  0  0  0  0  0  0  0
  152.1426  143.5004  157.8475 C   0  0  0  0  0  0  0  0  0  0  0  0
  151.7404  144.8377  158.4272 C   0  0  0  0  0  0  0  0  0  0  0  0
  151.5245  144.4833  159.8948 C   0  0  0  0  0  0  0  0  0  0  0  0
  151.0546  143.1357  159.9057 O   0  0  0  0  0  0  0  0  0  0  0  0
  149.9415  141.7078  156.6920 C   0  0  0  0  0  0  0  0  0  0  0  0
  150.9984  141.3940  156.1405 O   0  0  0  0  0  0  0  0  0  0  0  0
  148.5832  138.4137  154.9487 N   0  0  0  0  0  0  0  0  0  0  0  0
  148.9369  137.0367  154.9661 C   0  0  0  0  0  0  0  0  0  0  0  0
  150.2623  136.5937  155.1955 C   0  0  0  0  0  0  0  0  0  0  0  0
  150.5559  135.2171  155.2379 C   0  0  0  0  0  0  0  0  0  0  0  0
  149.5303  134.2698  155.0634 C   0  0  0  0  0  0  0  0  0  0  0  0
  148.2073  134.6994  154.8516 C   0  0  0  0  0  0  0  0  0  0  0  0
  147.9088  136.0760  154.8057 C   0  0  0  0  0  0  0  0  0  0  0  0
  146.2355  136.5788  154.5302 S   0  0  0  0  0  0  0  0  0  0  0  0
  145.7834  135.4574  153.2485 C   0  0  0  0  0  0  0  0  0  0  0  0
  145.5637  134.0975  153.5454 C   0  0  0  0  0  0  0  0  0  0  0  0
  145.2193  133.2007  152.5160 C   0  0  0  0  0  0  0  0  0  0  0  0
  145.0903  133.6643  151.1917 C   0  0  0  0  0  0  0  0  0  0  0  0
  144.6723  132.5648  149.9297 Cl  0  0  0  0  0  0  0  0  0  0  0  0
  145.3035  135.0260  150.8974 C   0  0  0  0  0  0  0  0  0  0  0  0
  145.6496  135.9238  151.9261 C   0  0  0  0  0  0  0  0  0  0  0  0
  149.1685  141.5233  153.9874 H   0  0  0  0  0  0  0  0  0  0  0  0
  147.6577  140.7875  154.3310 H   0  0  0  0  0  0  0  0  0  0  0  0
  148.7572  143.1503  159.5287 H   0  0  0  0  0  0  0  0  0  0  0  0
  151.7158  141.5454  158.7976 H   0  0  0  0  0  0  0  0  0  0  0  0
  153.1923  143.2903  158.0559 H   0  0  0  0  0  0  0  0  0  0  0  0
  151.9691  143.4118  156.7770 H   0  0  0  0  0  0  0  0  0  0  0  0
  152.4930  145.6126  158.2804 H   0  0  0  0  0  0  0  0  0  0  0  0
  150.8074  145.1779  157.9761 H   0  0  0  0  0  0  0  0  0  0  0  0
  152.4703  144.5241  160.4365 H   0  0  0  0  0  0  0  0  0  0  0  0
  150.8224  145.1555  160.3883 H   0  0  0  0  0  0  0  0  0  0  0  0
  147.6126  138.6082  155.1481 H   0  0  0  0  0  0  0  0  0  0  0  0
  151.0671  137.2938  155.3588 H   0  0  0  0  0  0  0  0  0  0  0  0
  151.5696  134.8882  155.4129 H   0  0  0  0  0  0  0  0  0  0  0  0
  149.7573  133.2144  155.0979 H   0  0  0  0  0  0  0  0  0  0  0  0
  147.4217  133.9696  154.7216 H   0  0  0  0  0  0  0  0  0  0  0  0
  145.6604  133.7383  154.5586 H   0  0  0  0  0  0  0  0  0  0  0  0
  145.0550  132.1578  152.7440 H   0  0  0  0  0  0  0  0  0  0  0  0
  145.2039  135.3829  149.8828 H   0  0  0  0  0  0  0  0  0  0  0  0
  145.8156  136.9664  151.6974 H   0  0  0  0  0  0  0  0  0  0  0  0
  1  2  2  0  0  0  0
  2  3  1  0  0  0  0
  2 18  1  0  0  0  0
  3  4  1  0  0  0  0
  3 33  1  0  0  0  0
  3 34  1  0  0  0  0
  4 16  1  0  0  0  0
  4  5  1  0  0  0  0
  5  6  2  0  0  0  0
  5  7  1  0  0  0  0
  7  8  1  0  0  0  0
  7  9  2  0  0  0  0
  9 10  1  0  0  0  0
  9 35  1  0  0  0  0
 10 11  1  0  0  0  0
 10 16  1  0  0  0  0
 11 15  1  0  0  0  0
 11 12  1  0  0  0  0
 11 36  1  0  0  0  0
 12 13  1  0  0  0  0
 12 37  1  0  0  0  0
 12 38  1  0  0  0  0
 13 14  1  0  0  0  0
 13 39  1  0  0  0  0
 13 40  1  0  0  0  0
 14 15  1  0  0  0  0
 14 41  1  0  0  0  0
 14 42  1  0  0  0  0
 16 17  2  0  0  0  0
 18 19  1  0  0  0  0
 18 43  1  0  0  0  0
 19 24  1  0  0  0  0
 19 20  2  0  0  0  0
 20 21  1  0  0  0  0
 20 44  1  0  0  0  0
 21 22  2  0  0  0  0
 21 45  1  0  0  0  0
 22 23  1  0  0  0  0
 22 46  1  0  0  0  0
 23 24  2  0  0  0  0
 23 47  1  0  0  0  0
 24 25  1  0  0  0  0
 25 26  1  0  0  0  0
 26 32  1  0  0  0  0
 26 27  2  0  0  0  0
 27 28  1  0  0  0  0
 27 48  1  0  0  0  0
 28 29  2  0  0  0  0
 28 49  1  0  0  0  0
 29 30  1  0  0  0  0
 29 31  1  0  0  0  0
 31 32  2  0  0  0  0
 31 50  1  0  0  0  0
 32 51  1  0  0  0  0
M  END
> <s_m_source_file>
AV-unprocessed.smi

> <i_m_source_file_index>
134

> <i_lp_mmshare_version>
43012

> <i_f3d_flags>
0

> <s_epik_input>
TzFbQ0gyXVtDSDJdW0NIMl1bQ0BIXTFuKGMyPU8pW2NIXWMoRiljKD1PKW4yW0NIMl1DKD1PKVtOSF1jM1tjSF1bY0hdW2NIXVtjSF1jM1NjNFtjSF1bY0hdYyhDbClbY0hdW2NIXTQ=

> <s_epik_cmdline>
J2VwaWtfcHl0aG9uJywgJy1waCcsICc3LjAnLCAnLXRuJywgJzgnLCAnLW1hJywgJzIwMCcsICctbWV0YWxfYmluZGluZycsICctaW1hZScsICc8aW5maWxlLm1hZT4nLCAnLW9tYWUnLCAnPG91dGZpbGUubWFlPic=

> <r_lp_tautomer_probability>
1

> <r_epik_Ionization_Penalty>
2.01717e-06

> <r_epik_Ionization_Penalty_Charging>
3.88729e-08

> <r_epik_Ionization_Penalty_Neutral>
1.9783e-06

> <r_epik_State_Penalty>
-0

> <r_epik_Charging_Adjusted_Penalty>
3.88729e-08

> <i_epik_Tot_Q>
0

> <i_epik_Tot_abs_Q>
0

> <r_epik_Metal_State_Penalty>
-0

> <b_epik_Metal_Only>
0

> <s_epik_Chemistry_Notes>
This compound contains an acetal/aminal-like group ( X-CH(R)-Y where X, Y are N, S, or O) that may be acid/base labile, releasing an aldehyde.

> <s_lp_Force_Field>
OPLS_2005

> <r_lp_Energy>
34.7756

> <b_lp_Chiralities_Consistent>
1

> <s_lp_Variant>
AV-unprocessed.smi:134-2

> <Gold.Version>
5.8.1

> <Gold.Id.Protein>
6NUR|6NUR_protein|mol2

> <Gold.PLP.Fitness>
48.8025

> <Gold.PLP.PLP>
-47.4506

> <Gold.PLP.part.hbond>
-2.0000

> <Gold.PLP.part.metal>
0.0000

> <Gold.PLP.part.buried>
-7.4051

> <Gold.PLP.part.nonpolar>
-39.5993

> <Gold.PLP.part.repulsive>
0.3437

> <Gold.PLP.ligand.clash>
0.0000

> <Gold.PLP.ligand.torsion>
0.8697

> <Gold.PLP.Chemscore.Hbond>
1.0000

> <Gold.PLP.Chemscore.CHOScore>
0.0000

> <Gold.PLP.Chemscore.Metal>
0.0000

> <Gold.Chemscore.Hbonds>
donor molecule, donor type, donor heavy atom, donor atom, acceptor molecule, acceptor atom, score
      P1  H  7989  7998       L1     1  1.00

> <Gold.PLP.Chemscore.Internal.Correction>
0.0912

> <Gold.Rescore>
     Score         DG    S(hbond)    S(metal)    S(lipo)     H(rot)  DE(clash)    DE(int)     intcor
     10.85     -16.55       0.99        0.00     109.08       1.95       0.23       5.47       ----

> <Gold.Chemscore.Fitness>
10.8533

> <Gold.Chemscore.DG>
-16.5461

> <Gold.Chemscore.ZeroCoef>
-5.4800

> <Gold.Chemscore.Hbond>
0.9906

> <Gold.Chemscore.Metal>
0.0000

> <Gold.Chemscore.Lipo>
109.0782

> <Gold.Chemscore.Internal_Hbond>
0.0000

> <Gold.Chemscore.DEClash>
0.2267

> <Gold.Chemscore.DEInternal>
5.4660

> <Gold.Chemscore.Rot>
1.9549

> <Gold.Chemscore.Internal.Correction>
   9.000000E+99

> <Gold.Chemscore.Hbonds>
donor molecule, donor type, donor heavy atom, donor atom, acceptor molecule, acceptor atom, score
      P1  H  7989  7998       L1     1  0.97

> <Gold.Chemscore.Hbond.Weighted>
-3.3086

> <Gold.Chemscore.Metal.Weighted>
-0.0000

> <Gold.Chemscore.Lipo.Weighted>
-12.7621

> <Gold.Chemscore.Internal_Hbond.Weighted>
0.0000

> <Gold.Chemscore.DEClash.Weighted>
0.2267

> <Gold.Chemscore.DEInternal.Weighted>
5.4660

> <Gold.Chemscore.Rot.Weighted>
5.0046

> <Gold.Chemscore.Internal.Correction.Weighted>
   9.000000E+99

> <Gold.Protein.RotatedTorsions>
[ 6907 6896 6895 6894 ] final   69.67 input  -60.11 | X-H torsion
[ 7974 7965 7964 7962 ] final  -88.62 input  175.53 | X-H torsion
[ 8008 7997 7996 7995 ] final  -51.59 input   59.86 | X-H torsion
[ 10167 10162 10161 10158 ] final  164.45 input  -65.29 | X-H torsion
[ 10718 10713 10712 10709 ] final  -19.21 input   66.30 | X-H torsion
[ 10763 10752 10751 10750 ] final -138.67 input  -60.55 | X-H torsion
[ 11005 11000 10999 10996 ] final  -85.32 input  -57.11 | X-H torsion

> <Gold.Protein.ActiveResidues>
 VAL166  LYS551  ARG553  GLY616  TRP617  ASP618  TYR619  PRO620  LYS621  CYS622 
 ASP623  PHE694  ASN695  SER759  ASP760  ASP761  ALA762  ILE779  LEU786  VAL792 
 PHE793  MET794  SER795  GLU796  ALA797  LYS798  CYS799  TRP800  GLU811  SER814 

> <Gold.Protein.RotatedAtoms>
  152.4701  134.4981  159.9715 H   0  0  0  0  0  0  0  0  0  0  0  0  # atno 6907 bound_to 6896
  151.5010  133.3498  159.2877 H   0  0  0  0  0  0  0  0  0  0  0  0  # atno 6908 bound_to 6896
  150.8706  134.8107  159.7214 H   0  0  0  0  0  0  0  0  0  0  0  0  # atno 6909 bound_to 6896
  145.4507  140.9560  143.2024 H   0  0  0  0  0  0  0  0  0  0  0  0  # atno 7974 bound_to 7965
  154.4086  140.1244  156.4853 H   0  0  0  0  0  0  0  0  0  0  0  0  # atno 8008 bound_to 7997
  155.7044  140.3494  155.4927 H   0  0  0  0  0  0  0  0  0  0  0  0  # atno 8009 bound_to 7997
  155.9356  140.1077  157.1087 H   0  0  0  0  0  0  0  0  0  0  0  0  # atno 8010 bound_to 7997
  139.4889  144.4234  151.9159 H   0  0  0  0  0  0  0  0  0  0  0  0  # atno 10167 bound_to 10162
  156.5489  130.4696  149.6462 H   0  0  0  0  0  0  0  0  0  0  0  0  # atno 10718 bound_to 10713
  154.8631  135.3605  154.5422 H   0  0  0  0  0  0  0  0  0  0  0  0  # atno 10763 bound_to 10752
  153.6043  135.7011  153.5377 H   0  0  0  0  0  0  0  0  0  0  0  0  # atno 10764 bound_to 10752
  153.3264  135.4137  155.1420 H   0  0  0  0  0  0  0  0  0  0  0  0  # atno 10765 bound_to 10752
  141.1642  133.7393  156.8997 H   0  0  0  0  0  0  0  0  0  0  0  0  # atno 11005 bound_to 11000
  144.8063  139.6045  143.7049 LP  0  0  0  0  0  0  0  0  0  0  0  0  # atno 17320 bound_to 7965
  146.2505  139.6190  142.9430 LP  0  0  0  0  0  0  0  0  0  0  0  0  # atno 17321 bound_to 7965
  140.3679  144.2892  150.5924 LP  0  0  0  0  0  0  0  0  0  0  0  0  # atno 17342 bound_to 10162
  140.5345  143.2236  151.8185 LP  0  0  0  0  0  0  0  0  0  0  0  0  # atno 17343 bound_to 10162
  156.2903  130.7120  151.1967 LP  0  0  0  0  0  0  0  0  0  0  0  0  # atno 17370 bound_to 10713
  157.7391  131.0533  150.5251 LP  0  0  0  0  0  0  0  0  0  0  0  0  # atno 17371 bound_to 10713
  140.1591  134.9178  157.2692 LP  0  0  0  0  0  0  0  0  0  0  0  0  # atno 17394 bound_to 11000
  140.2632  134.3546  155.7399 LP  0  0  0  0  0  0  0  0  0  0  0  0  # atno 17395 bound_to 11000

$$$$
