AV-unprocessed.smi:1032|AV-procd|sdf|4484|dock6
  -GOLD-   22720 2463D 1   1.00000     0.00000
 Structure written by MMmdl.
 46 47  0  0  0  0  0  0  0  0  2 V2000
  145.7245  143.0730  157.3345 C   0  0  0  0  0  0  0  0  0  0  0  0
  144.7231  142.6020  156.2653 C   0  0  2  0  0  0  0  0  0  0  0  0
  144.7210  141.0734  156.0820 C   0  0  0  0  0  0  0  0  0  0  0  0
  145.9621  140.5752  155.3201 C   0  0  0  0  0  0  0  0  0  0  0  0
  146.0968  141.2571  154.0072 N   0  3  2  0  0  0  0  0  0  0  0  0
  147.1979  140.6865  153.1883 C   0  0  0  0  0  0  0  0  0  0  0  0
  147.2004  139.1437  153.1811 C   0  0  2  0  0  0  0  0  0  0  0  0
  148.5200  138.7146  152.9043 O   0  0  0  0  0  0  0  0  0  0  0  0
  146.2739  138.5794  152.0845 C   0  0  0  0  0  0  0  0  0  0  0  0
  146.5769  137.1845  151.7795 N   0  0  0  0  0  0  0  0  0  0  0  0
  145.6595  136.2277  151.5755 C   0  0  0  0  0  0  0  0  0  0  0  0
  144.4472  136.4295  151.6466 O   0  0  0  0  0  0  0  0  0  0  0  0
  146.2383  135.0427  151.3145 N   0  0  0  0  0  0  0  0  0  0  0  0
  145.6173  133.8083  150.9802 C   0  0  0  0  0  0  0  0  0  0  0  0
  144.2320  133.8178  150.7152 C   0  0  0  0  0  0  0  0  0  0  0  0
  143.5912  132.6017  150.4046 C   0  0  0  0  0  0  0  0  0  0  0  0
  144.2341  131.4161  150.3552 N   0  0  0  0  0  0  0  0  0  0  0  0
  145.5570  131.4066  150.6231 C   0  0  0  0  0  0  0  0  0  0  0  0
  146.2933  132.5649  150.9433 C   0  0  0  0  0  0  0  0  0  0  0  0
  146.1793  142.7337  154.1666 C   0  0  0  0  0  0  0  0  0  0  0  0
  144.9429  143.2822  154.9017 C   0  0  0  0  0  0  0  0  0  0  0  0
  146.7537  142.8302  157.0714 H   0  0  0  0  0  0  0  0  0  0  0  0
  145.5130  142.6084  158.2981 H   0  0  0  0  0  0  0  0  0  0  0  0
  145.6665  144.1528  157.4742 H   0  0  0  0  0  0  0  0  0  0  0  0
  143.7338  142.8917  156.6217 H   0  0  0  0  0  0  0  0  0  0  0  0
  144.6505  140.5769  157.0504 H   0  0  0  0  0  0  0  0  0  0  0  0
  143.8277  140.7819  155.5282 H   0  0  0  0  0  0  0  0  0  0  0  0
  146.8657  140.7336  155.9104 H   0  0  0  0  0  0  0  0  0  0  0  0
  145.8721  139.4989  155.1675 H   0  0  0  0  0  0  0  0  0  0  0  0
  147.1203  141.0744  152.1713 H   0  0  0  0  0  0  0  0  0  0  0  0
  148.1603  141.0311  153.5703 H   0  0  0  0  0  0  0  0  0  0  0  0
  146.8974  138.7620  154.1554 H   0  0  0  0  0  0  0  0  0  0  0  0
  148.4809  137.9097  152.4100 H   0  0  0  0  0  0  0  0  0  0  0  0
  145.2326  138.6404  152.4064 H   0  0  0  0  0  0  0  0  0  0  0  0
  146.3366  139.1734  151.1719 H   0  0  0  0  0  0  0  0  0  0  0  0
  147.5526  136.9332  151.7122 H   0  0  0  0  0  0  0  0  0  0  0  0
  147.2442  135.0118  151.3938 H   0  0  0  0  0  0  0  0  0  0  0  0
  143.6663  134.7376  150.7433 H   0  0  0  0  0  0  0  0  0  0  0  0
  142.5325  132.5812  150.1929 H   0  0  0  0  0  0  0  0  0  0  0  0
  146.0440  130.4435  150.5884 H   0  0  0  0  0  0  0  0  0  0  0  0
  147.3452  132.4739  151.1654 H   0  0  0  0  0  0  0  0  0  0  0  0
  147.0910  142.9953  154.7052 H   0  0  0  0  0  0  0  0  0  0  0  0
  146.2452  143.2189  153.1939 H   0  0  0  0  0  0  0  0  0  0  0  0
  144.0627  143.1224  154.2773 H   0  0  0  0  0  0  0  0  0  0  0  0
  145.0300  144.3619  155.0279 H   0  0  0  0  0  0  0  0  0  0  0  0
  145.2436  141.0635  153.5018 H   0  0  0  0  0  0  0  0  0  0  0  0
  1  2  1  0  0  0  0
  1 22  1  0  0  0  0
  1 23  1  0  0  0  0
  1 24  1  0  0  0  0
  2 21  1  0  0  0  0
  2  3  1  0  0  0  0
  2 25  1  0  0  0  0
  3  4  1  0  0  0  0
  3 26  1  0  0  0  0
  3 27  1  0  0  0  0
  4  5  1  0  0  0  0
  4 28  1  0  0  0  0
  4 29  1  0  0  0  0
  5  6  1  0  0  0  0
  5 20  1  0  0  0  0
  5 46  1  0  0  0  0
  6  7  1  0  0  0  0
  6 30  1  0  0  0  0
  6 31  1  0  0  0  0
  7  8  1  0  0  0  0
  7  9  1  0  0  0  0
  7 32  1  0  0  0  0
  8 33  1  0  0  0  0
  9 10  1  0  0  0  0
  9 34  1  0  0  0  0
  9 35  1  0  0  0  0
 10 11  1  0  0  0  0
 10 36  1  0  0  0  0
 11 12  2  0  0  0  0
 11 13  1  0  0  0  0
 13 14  1  0  0  0  0
 13 37  1  0  0  0  0
 14 19  1  0  0  0  0
 14 15  2  0  0  0  0
 15 16  1  0  0  0  0
 15 38  1  0  0  0  0
 16 17  2  0  0  0  0
 16 39  1  0  0  0  0
 17 18  1  0  0  0  0
 18 19  2  0  0  0  0
 18 40  1  0  0  0  0
 19 41  1  0  0  0  0
 20 21  1  0  0  0  0
 20 42  1  0  0  0  0
 20 43  1  0  0  0  0
 21 44  1  0  0  0  0
 21 45  1  0  0  0  0
M  CHG  1   5   1
M  END
> <s_m_source_file>
AV-unprocessed.smi

> <i_m_source_file_index>
1032

> <i_lp_mmshare_version>
43012

> <i_f3d_flags>
0

> <s_epik_input>
W0NIM11bQ0hdMVtDSDJdW0NIMl1OKFtDSDJdW0NIMl0xKVtDSDJdW0NASF0oW09IXSlbQ0gyXVtOSF1DKD1PKVtOSF1jMltjSF1bY0hdbltjSF1bY0hdMg==

> <s_epik_cmdline>
J2VwaWtfcHl0aG9uJywgJy1waCcsICc3LjAnLCAnLXRuJywgJzgnLCAnLW1hJywgJzIwMCcsICctbWV0YWxfYmluZGluZycsICctaW1hZScsICc8aW5maWxlLm1hZT4nLCAnLW9tYWUnLCAnPG91dGZpbGUubWFlPic=

> <r_epik_Ionization_Penalty>
0.11743

> <r_epik_Ionization_Penalty_Charging>
0.00147689

> <r_epik_Ionization_Penalty_Neutral>
0.115954

> <r_epik_State_Penalty>
0.105552

> <r_epik_Charging_Adjusted_Penalty>
0.107029

> <i_epik_Tot_Q>
1

> <i_epik_Tot_abs_Q>
1

> <r_epik_Metal_State_Penalty>
0.0881315

> <b_epik_Metal_Only>
0

> <s_lp_Force_Field>
OPLS_2005

> <r_lp_Energy>
27.8134

> <b_lp_Chiralities_Consistent>
1

> <s_lp_Variant>
AV-unprocessed.smi:1032-3

> <Gold.Version>
5.8.1

> <Gold.Id.Protein>
6NUR|6NUR_protein|mol2

> <Gold.PLP.Fitness>
55.7277

> <Gold.PLP.PLP>
-38.9996

> <Gold.PLP.part.hbond>
-5.6924

> <Gold.PLP.part.metal>
0.0000

> <Gold.PLP.part.buried>
-6.4069

> <Gold.PLP.part.nonpolar>
-30.4733

> <Gold.PLP.part.repulsive>
1.9452

> <Gold.PLP.ligand.clash>
0.0000

> <Gold.PLP.ligand.torsion>
0.6462

> <Gold.PLP.Chemscore.Hbond>
4.7147

> <Gold.PLP.Chemscore.CHOScore>
1.2797

> <Gold.PLP.Chemscore.Metal>
0.0000

> <Gold.Chemscore.Hbonds>
donor molecule, donor type, donor heavy atom, donor atom, acceptor molecule, acceptor atom, score
      L1  H     5    46       P1 10175  2.00
      L1  H     8    33       P1  7948  1.00
      L1  H    10    36       P1  7948  1.00
      L1  H    13    37       P1  7948  0.72
      P1  H 10785 10796       L1    17  0.21
      L1  C    16    39       P1 10186  1.00
      L1  C    16    39       P1 10952  0.15

> <Gold.PLP.Chemscore.Internal.Correction>
0.0371

> <Gold.Rescore>
     Score         DG    S(hbond)    S(metal)    S(lipo)     H(rot)  DE(clash)    DE(int)     intcor
     18.03     -21.34       3.54        0.00      84.63       2.29       1.24       2.06       ----

> <Gold.Chemscore.Fitness>
18.0314

> <Gold.Chemscore.DG>
-21.3365

> <Gold.Chemscore.ZeroCoef>
-5.4800

> <Gold.Chemscore.Hbond>
3.5356

> <Gold.Chemscore.Metal>
0.0000

> <Gold.Chemscore.Lipo>
84.6250

> <Gold.Chemscore.Internal_Hbond>
0.0000

> <Gold.Chemscore.DEClash>
1.2432

> <Gold.Chemscore.DEInternal>
2.0619

> <Gold.Chemscore.Rot>
2.2865

> <Gold.Chemscore.Internal.Correction>
   9.000000E+99

> <Gold.Chemscore.Hbonds>
donor molecule, donor type, donor heavy atom, donor atom, acceptor molecule, acceptor atom, score
      L1  H     5    46       P1 10175  0.55
      L1  H     8    33       P1  7948  0.99
      L1  H    10    36       P1  7948  0.94
      L1  H    13    37       P1  7948  0.50
      P1  H 10785 10796       L1    17  0.13

> <Gold.Chemscore.Hbond.Weighted>
-11.8089

> <Gold.Chemscore.Metal.Weighted>
-0.0000

> <Gold.Chemscore.Lipo.Weighted>
-9.9011

> <Gold.Chemscore.Internal_Hbond.Weighted>
0.0000

> <Gold.Chemscore.DEClash.Weighted>
1.2432

> <Gold.Chemscore.DEInternal.Weighted>
2.0619

> <Gold.Chemscore.Rot.Weighted>
5.8536

> <Gold.Chemscore.Internal.Correction.Weighted>
   9.000000E+99

> <Gold.Protein.RotatedTorsions>
[ 6907 6896 6895 6894 ] final  -80.59 input  -60.11 | X-H torsion
[ 7974 7965 7964 7962 ] final  139.90 input  175.53 | X-H torsion
[ 8008 7997 7996 7995 ] final  140.83 input   59.86 | X-H torsion
[ 10167 10162 10161 10158 ] final  148.95 input  -65.29 | X-H torsion
[ 10718 10713 10712 10709 ] final   74.86 input   66.30 | X-H torsion
[ 10763 10752 10751 10750 ] final  -38.55 input  -60.55 | X-H torsion
[ 11005 11000 10999 10996 ] final  -46.98 input  -57.11 | X-H torsion

> <Gold.Protein.ActiveResidues>
 VAL166  LYS551  ARG553  GLY616  TRP617  ASP618  TYR619  PRO620  LYS621  CYS622 
 ASP623  PHE694  ASN695  SER759  ASP760  ASP761  ALA762  ILE779  LEU786  VAL792 
 PHE793  MET794  SER795  GLU796  ALA797  LYS798  CYS799  TRP800  GLU811  SER814 

> <Gold.Protein.RotatedAtoms>
  150.6926  134.3946  159.5091 H   0  0  0  0  0  0  0  0  0  0  0  0  # atno 6907 bound_to 6896
  152.1729  134.8816  160.0542 H   0  0  0  0  0  0  0  0  0  0  0  0  # atno 6908 bound_to 6896
  151.9836  133.3731  159.4154 H   0  0  0  0  0  0  0  0  0  0  0  0  # atno 6909 bound_to 6896
  144.9236  139.5136  143.5651 H   0  0  0  0  0  0  0  0  0  0  0  0  # atno 7974 bound_to 7965
  156.2974  140.2331  156.4465 H   0  0  0  0  0  0  0  0  0  0  0  0  # atno 8008 bound_to 7997
  154.8139  140.0441  157.1383 H   0  0  0  0  0  0  0  0  0  0  0  0  # atno 8009 bound_to 7997
  154.9391  140.3027  155.5133 H   0  0  0  0  0  0  0  0  0  0  0  0  # atno 8010 bound_to 7997
  139.4868  144.5640  151.7179 H   0  0  0  0  0  0  0  0  0  0  0  0  # atno 10167 bound_to 10162
  157.6610  130.9698  150.1271 H   0  0  0  0  0  0  0  0  0  0  0  0  # atno 10718 bound_to 10713
  153.9147  135.6788  153.4749 H   0  0  0  0  0  0  0  0  0  0  0  0  # atno 10763 bound_to 10752
  153.1060  135.4805  154.8949 H   0  0  0  0  0  0  0  0  0  0  0  0  # atno 10764 bound_to 10752
  154.7509  135.3184  154.8515 H   0  0  0  0  0  0  0  0  0  0  0  0  # atno 10765 bound_to 10752
  141.0612  133.6708  156.3231 H   0  0  0  0  0  0  0  0  0  0  0  0  # atno 11005 bound_to 11000
  146.3216  139.8133  142.8941 LP  0  0  0  0  0  0  0  0  0  0  0  0  # atno 17320 bound_to 7965
  145.3256  141.0254  143.3475 LP  0  0  0  0  0  0  0  0  0  0  0  0  # atno 17321 bound_to 7965
  140.5215  144.0872  150.6024 LP  0  0  0  0  0  0  0  0  0  0  0  0  # atno 17342 bound_to 10162
  140.3831  143.2792  152.0147 LP  0  0  0  0  0  0  0  0  0  0  0  0  # atno 17343 bound_to 10162
  156.2127  130.3668  149.8650 LP  0  0  0  0  0  0  0  0  0  0  0  0  # atno 17370 bound_to 10713
  156.6525  130.8749  151.3533 LP  0  0  0  0  0  0  0  0  0  0  0  0  # atno 17371 bound_to 10713
  140.5864  134.5694  157.5490 LP  0  0  0  0  0  0  0  0  0  0  0  0  # atno 17394 bound_to 11000
  139.9434  134.7745  156.0621 LP  0  0  0  0  0  0  0  0  0  0  0  0  # atno 17395 bound_to 11000

$$$$
