AV-unprocessed.smi:1897|AV-procd|sdf|7690|dock1
  -GOLD-   22720 9433D 1   1.00000     0.00000
 Structure written by MMmdl.
 39 41  0  0  0  0  0  0  0  0  2 V2000
  150.4413  141.4256  155.7886 C   0  0  0  0  0  0  0  0  0  0  0  0
  149.4045  140.6871  155.0130 C   0  0  0  0  0  0  0  0  0  0  0  0
  148.1804  141.1783  154.7848 N   0  0  0  0  0  0  0  0  0  0  0  0
  147.3952  140.3081  154.0433 N   0  0  0  0  0  0  0  0  0  0  0  0
  148.0559  139.1875  153.7170 C   0  0  0  0  0  0  0  0  0  0  0  0
  147.4917  138.1088  152.9761 N   0  0  0  0  0  0  0  0  0  0  0  0
  146.2132  137.6971  152.8439 C   0  0  0  0  0  0  0  0  0  0  0  0
  145.2932  138.2757  153.4191 O   0  0  0  0  0  0  0  0  0  0  0  0
  146.0152  136.6265  152.0573 N   0  0  0  0  0  0  0  0  0  0  0  0
  144.7154  136.0449  151.7399 C   0  0  2  0  0  0  0  0  0  0  0  0
  143.9651  135.5429  152.9669 C   0  0  0  0  0  0  0  0  0  0  0  0
  142.9335  134.5799  152.3707 C   0  0  0  0  0  0  0  0  0  0  0  0
  143.5029  134.0746  151.0970 N   0  3  2  0  0  0  0  0  0  0  0  0
  143.5811  132.5913  151.0153 C   0  0  0  0  0  0  0  0  0  0  0  0
  144.5225  132.1519  149.8841 C   0  0  0  0  0  0  0  0  0  0  0  0
  145.9622  132.6440  150.1260 C   0  0  0  0  0  0  0  0  0  0  0  0
  146.0158  133.8864  151.0353 C   0  0  0  0  0  0  0  0  0  0  0  0
  144.7798  134.7987  150.8365 C   0  0  2  0  0  0  0  0  0  0  0  0
  149.6991  139.0934  154.3287 S   0  0  0  0  0  0  0  0  0  0  0  0
  150.0679  142.4021  156.0991 H   0  0  0  0  0  0  0  0  0  0  0  0
  151.3312  141.5707  155.1762 H   0  0  0  0  0  0  0  0  0  0  0  0
  150.7159  140.8581  156.6779 H   0  0  0  0  0  0  0  0  0  0  0  0
  148.1727  137.5144  152.5255 H   0  0  0  0  0  0  0  0  0  0  0  0
  146.8246  136.2040  151.6245 H   0  0  0  0  0  0  0  0  0  0  0  0
  144.0933  136.8007  151.2556 H   0  0  0  0  0  0  0  0  0  0  0  0
  144.6409  134.9978  153.6277 H   0  0  0  0  0  0  0  0  0  0  0  0
  143.5073  136.3472  153.5437 H   0  0  0  0  0  0  0  0  0  0  0  0
  142.6747  133.7857  153.0721 H   0  0  0  0  0  0  0  0  0  0  0  0
  142.0138  135.1167  152.1356 H   0  0  0  0  0  0  0  0  0  0  0  0
  143.9417  132.1800  151.9599 H   0  0  0  0  0  0  0  0  0  0  0  0
  142.5789  132.1910  150.8591 H   0  0  0  0  0  0  0  0  0  0  0  0
  144.5126  131.0668  149.7767 H   0  0  0  0  0  0  0  0  0  0  0  0
  144.1533  132.5543  148.9397 H   0  0  0  0  0  0  0  0  0  0  0  0
  146.5592  131.8508  150.5772 H   0  0  0  0  0  0  0  0  0  0  0  0
  146.4280  132.8636  149.1646 H   0  0  0  0  0  0  0  0  0  0  0  0
  146.0654  133.5691  152.0780 H   0  0  0  0  0  0  0  0  0  0  0  0
  146.9424  134.4269  150.8406 H   0  0  0  0  0  0  0  0  0  0  0  0
  144.7763  135.1217  149.7943 H   0  0  0  0  0  0  0  0  0  0  0  0
  142.8688  134.3698  150.3681 H   0  0  0  0  0  0  0  0  0  0  0  0
  1  2  1  0  0  0  0
  1 20  1  0  0  0  0
  1 21  1  0  0  0  0
  1 22  1  0  0  0  0
  2 19  1  0  0  0  0
  2  3  2  0  0  0  0
  3  4  1  0  0  0  0
  4  5  2  0  0  0  0
  5  6  1  0  0  0  0
  5 19  1  0  0  0  0
  6  7  1  0  0  0  0
  6 23  1  0  0  0  0
  7  8  2  0  0  0  0
  7  9  1  0  0  0  0
  9 10  1  0  0  0  0
  9 24  1  0  0  0  0
 10 18  1  0  0  0  0
 10 11  1  0  0  0  0
 10 25  1  0  0  0  0
 11 12  1  0  0  0  0
 11 26  1  0  0  0  0
 11 27  1  0  0  0  0
 12 13  1  0  0  0  0
 12 28  1  0  0  0  0
 12 29  1  0  0  0  0
 13 18  1  0  0  0  0
 13 14  1  0  0  0  0
 13 39  1  0  0  0  0
 14 15  1  0  0  0  0
 14 30  1  0  0  0  0
 14 31  1  0  0  0  0
 15 16  1  0  0  0  0
 15 32  1  0  0  0  0
 15 33  1  0  0  0  0
 16 17  1  0  0  0  0
 16 34  1  0  0  0  0
 16 35  1  0  0  0  0
 17 18  1  0  0  0  0
 17 36  1  0  0  0  0
 17 37  1  0  0  0  0
 18 38  1  0  0  0  0
M  CHG  1  13   1
M  END
> <s_m_source_file>
AV-unprocessed.smi

> <i_m_source_file_index>
1897

> <i_lp_mmshare_version>
43012

> <i_f3d_flags>
0

> <s_epik_input>
W0NIM11jMW5uYyhzMSlbTkhdQyg9TylbTkhdW0NASF0oW0NIMl1bQ0gyXTIpW0NAQEhdKE4yMylbQ0gyXVtDSDJdW0NIMl1bQ0gyXTM=

> <s_epik_cmdline>
J2VwaWtfcHl0aG9uJywgJy1waCcsICc3LjAnLCAnLXRuJywgJzgnLCAnLW1hJywgJzIwMCcsICctbWV0YWxfYmluZGluZycsICctaW1hZScsICc8aW5maWxlLm1hZT4nLCAnLW9tYWUnLCAnPG91dGZpbGUubWFlPic=

> <r_lp_tautomer_probability>
1

> <r_epik_Ionization_Penalty>
0.00228891

> <r_epik_Ionization_Penalty_Charging>
0.00107044

> <r_epik_Ionization_Penalty_Neutral>
0.00121847

> <r_epik_State_Penalty>
-0

> <r_epik_Charging_Adjusted_Penalty>
0.00107044

> <i_epik_Tot_Q>
1

> <i_epik_Tot_abs_Q>
1

> <r_epik_Metal_State_Penalty>
0.304057

> <b_epik_Metal_Only>
0

> <s_lp_Force_Field>
OPLS_2005

> <r_lp_Energy>
41.6372

> <b_lp_Chiralities_Consistent>
1

> <s_lp_Variant>
AV-unprocessed.smi:1897-7

> <Gold.Version>
5.8.1

> <Gold.Id.Protein>
6NUR|6NUR_protein|mol2

> <Gold.PLP.Fitness>
44.5726

> <Gold.PLP.PLP>
-33.9011

> <Gold.PLP.part.hbond>
-3.0000

> <Gold.PLP.part.metal>
0.0000

> <Gold.PLP.part.buried>
-6.1793

> <Gold.PLP.part.nonpolar>
-27.7634

> <Gold.PLP.part.repulsive>
1.9270

> <Gold.PLP.ligand.clash>
0.0000

> <Gold.PLP.ligand.torsion>
0.1605

> <Gold.PLP.Chemscore.Hbond>
3.6630

> <Gold.PLP.Chemscore.CHOScore>
0.0000

> <Gold.PLP.Chemscore.Metal>
0.0000

> <Gold.Chemscore.Hbonds>
donor molecule, donor type, donor heavy atom, donor atom, acceptor molecule, acceptor atom, score
      L1  H     6    23       P1  7948  1.00
      L1  H     9    24       P1  7948  0.62
      L1  H    13    39       P1 10186  2.00

> <Gold.PLP.Chemscore.Internal.Correction>
0.0035

> <Gold.Rescore>
     Score         DG    S(hbond)    S(metal)    S(lipo)     H(rot)  DE(clash)    DE(int)     intcor
     17.08     -19.74       2.38        0.00      75.82       1.00       1.40       1.26       ----

> <Gold.Chemscore.Fitness>
17.0769

> <Gold.Chemscore.DG>
-19.7382

> <Gold.Chemscore.ZeroCoef>
-5.4800

> <Gold.Chemscore.Hbond>
2.3795

> <Gold.Chemscore.Metal>
0.0000

> <Gold.Chemscore.Lipo>
75.8166

> <Gold.Chemscore.Internal_Hbond>
0.0000

> <Gold.Chemscore.DEClash>
1.3982

> <Gold.Chemscore.DEInternal>
1.2631

> <Gold.Chemscore.Rot>
1.0000

> <Gold.Chemscore.Internal.Correction>
   9.000000E+99

> <Gold.Chemscore.Hbonds>
donor molecule, donor type, donor heavy atom, donor atom, acceptor molecule, acceptor atom, score
      L1  H     6    23       P1  7948  0.99
      L1  H     9    24       P1  7948  0.61
      L1  H    13    39       P1 10186  0.66

> <Gold.Chemscore.Hbond.Weighted>
-7.9477

> <Gold.Chemscore.Metal.Weighted>
-0.0000

> <Gold.Chemscore.Lipo.Weighted>
-8.8705

> <Gold.Chemscore.Internal_Hbond.Weighted>
0.0000

> <Gold.Chemscore.DEClash.Weighted>
1.3982

> <Gold.Chemscore.DEInternal.Weighted>
1.2631

> <Gold.Chemscore.Rot.Weighted>
2.5600

> <Gold.Chemscore.Internal.Correction.Weighted>
   9.000000E+99

> <Gold.Protein.RotatedTorsions>
[ 6907 6896 6895 6894 ] final  104.69 input  -60.11 | X-H torsion
[ 7974 7965 7964 7962 ] final  145.56 input  175.53 | X-H torsion
[ 8008 7997 7996 7995 ] final  104.04 input   59.86 | X-H torsion
[ 10167 10162 10161 10158 ] final   35.40 input  -65.29 | X-H torsion
[ 10718 10713 10712 10709 ] final -128.25 input   66.30 | X-H torsion
[ 10763 10752 10751 10750 ] final   27.22 input  -60.55 | X-H torsion
[ 11005 11000 10999 10996 ] final   19.01 input  -57.11 | X-H torsion

> <Gold.Protein.ActiveResidues>
 VAL166  LYS551  ARG553  GLY616  TRP617  ASP618  TYR619  PRO620  LYS621  CYS622 
 ASP623  PHE694  ASN695  SER759  ASP760  ASP761  ALA762  ILE779  LEU786  VAL792 
 PHE793  MET794  SER795  GLU796  ALA797  LYS798  CYS799  TRP800  GLU811  SER814 

> <Gold.Protein.RotatedAtoms>
  152.5256  133.9639  159.7729 H   0  0  0  0  0  0  0  0  0  0  0  0  # atno 6907 bound_to 6896
  150.9924  133.6128  159.2713 H   0  0  0  0  0  0  0  0  0  0  0  0  # atno 6908 bound_to 6896
  151.3266  135.0838  159.9377 H   0  0  0  0  0  0  0  0  0  0  0  0  # atno 6909 bound_to 6896
  144.8742  139.5798  143.5873 H   0  0  0  0  0  0  0  0  0  0  0  0  # atno 7974 bound_to 7965
  156.1538  140.3154  155.8692 H   0  0  0  0  0  0  0  0  0  0  0  0  # atno 8008 bound_to 7997
  155.3919  140.0494  157.3057 H   0  0  0  0  0  0  0  0  0  0  0  0  # atno 8009 bound_to 7997
  154.5082  140.2155  155.9219 H   0  0  0  0  0  0  0  0  0  0  0  0  # atno 8010 bound_to 7997
  140.4225  144.1439  150.6149 H   0  0  0  0  0  0  0  0  0  0  0  0  # atno 10167 bound_to 10162
  156.1933  130.6809  151.0451 H   0  0  0  0  0  0  0  0  0  0  0  0  # atno 10718 bound_to 10713
  153.0570  135.6542  154.0553 H   0  0  0  0  0  0  0  0  0  0  0  0  # atno 10763 bound_to 10752
  154.0229  135.2918  155.3380 H   0  0  0  0  0  0  0  0  0  0  0  0  # atno 10764 bound_to 10752
  154.6890  135.5290  153.8433 H   0  0  0  0  0  0  0  0  0  0  0  0  # atno 10765 bound_to 10752
  140.4185  134.1544  155.7671 H   0  0  0  0  0  0  0  0  0  0  0  0  # atno 11005 bound_to 11000
  146.2951  139.7254  142.9132 LP  0  0  0  0  0  0  0  0  0  0  0  0  # atno 17320 bound_to 7965
  145.4073  141.0392  143.3037 LP  0  0  0  0  0  0  0  0  0  0  0  0  # atno 17321 bound_to 7965
  140.4518  143.2484  151.9338 LP  0  0  0  0  0  0  0  0  0  0  0  0  # atno 17342 bound_to 10162
  139.4783  144.5555  151.8320 LP  0  0  0  0  0  0  0  0  0  0  0  0  # atno 17343 bound_to 10162
  157.6942  131.0799  150.7018 LP  0  0  0  0  0  0  0  0  0  0  0  0  # atno 17370 bound_to 10713
  156.7074  130.4641  149.5556 LP  0  0  0  0  0  0  0  0  0  0  0  0  # atno 17371 bound_to 10713
  141.1793  133.8447  157.1312 LP  0  0  0  0  0  0  0  0  0  0  0  0  # atno 17394 bound_to 11000
  140.0217  134.9943  157.0605 LP  0  0  0  0  0  0  0  0  0  0  0  0  # atno 17395 bound_to 11000

$$$$
