AV-unprocessed.smi:2243|AV-procd|sdf|9070|dock5
  -GOLD-   2272012273D 1   1.00000     0.00000
 Structure written by MMmdl.
 33 34  0  0  0  0  0  0  0  0  2 V2000
  147.1430  141.8154  153.0671 C   0  0  0  0  0  0  0  0  0  0  0  0
  147.7552  140.4042  153.0626 C   0  0  2  0  0  0  0  0  0  0  0  0
  146.6548  139.4399  153.1272 N   0  0  0  0  0  0  0  0  0  0  0  0
  146.3005  138.5534  152.1837 C   0  0  0  0  0  0  0  0  0  0  0  0
  146.9377  138.4811  151.1305 O   0  0  0  0  0  0  0  0  0  0  0  0
  145.2316  137.7988  152.5243 N   0  5  0  0  0  0  0  0  0  0  0  0
  144.9681  136.6695  151.8476 C   0  0  0  0  0  0  0  0  0  0  0  0
  145.8375  135.9570  151.1285 N   0  0  0  0  0  0  0  0  0  0  0  0
  145.1182  134.8893  150.6139 C   0  0  0  0  0  0  0  0  0  0  0  0
  143.8249  135.0082  151.0442 C   0  0  0  0  0  0  0  0  0  0  0  0
  143.7168  136.1290  151.8202 O   0  0  0  0  0  0  0  0  0  0  0  0
  148.7616  140.1688  154.2218 C   0  0  0  0  0  0  0  0  0  0  0  0
  149.5205  141.4521  154.6176 C   0  0  0  0  0  0  0  0  0  0  0  0
  150.5604  141.1733  155.7150 C   0  0  0  0  0  0  0  0  0  0  0  0
  151.4699  140.1690  155.2834 O   0  0  0  0  0  0  0  0  0  0  0  0
  150.8294  138.9247  155.0303 C   0  0  0  0  0  0  0  0  0  0  0  0
  149.8060  139.0800  153.8944 C   0  0  0  0  0  0  0  0  0  0  0  0
  147.8927  142.5833  152.8796 H   0  0  0  0  0  0  0  0  0  0  0  0
  146.6637  142.0377  154.0211 H   0  0  0  0  0  0  0  0  0  0  0  0
  146.3881  141.9149  152.2862 H   0  0  0  0  0  0  0  0  0  0  0  0
  148.2909  140.2908  152.1187 H   0  0  0  0  0  0  0  0  0  0  0  0
  146.0998  139.4498  153.9703 H   0  0  0  0  0  0  0  0  0  0  0  0
  145.5786  134.1388  149.9886 H   0  0  0  0  0  0  0  0  0  0  0  0
  142.9267  134.4267  150.9005 H   0  0  0  0  0  0  0  0  0  0  0  0
  148.1975  139.8329  155.0935 H   0  0  0  0  0  0  0  0  0  0  0  0
  150.0211  141.8690  153.7428 H   0  0  0  0  0  0  0  0  0  0  0  0
  148.8308  142.2149  154.9773 H   0  0  0  0  0  0  0  0  0  0  0  0
  151.1211  142.0813  155.9370 H   0  0  0  0  0  0  0  0  0  0  0  0
  150.0749  140.8659  156.6425 H   0  0  0  0  0  0  0  0  0  0  0  0
  151.5854  138.1899  154.7535 H   0  0  0  0  0  0  0  0  0  0  0  0
  150.3487  138.5586  155.9388 H   0  0  0  0  0  0  0  0  0  0  0  0
  149.3231  138.1175  153.7246 H   0  0  0  0  0  0  0  0  0  0  0  0
  150.3262  139.3338  152.9698 H   0  0  0  0  0  0  0  0  0  0  0  0
  1  2  1  0  0  0  0
  1 18  1  0  0  0  0
  1 19  1  0  0  0  0
  1 20  1  0  0  0  0
  2  3  1  0  0  0  0
  2 12  1  0  0  0  0
  2 21  1  0  0  0  0
  3 22  1  0  0  0  0
  3  4  1  0  0  0  0
  4  6  1  0  0  0  0
  4  5  2  0  0  0  0
  6  7  1  0  0  0  0
  7 11  1  0  0  0  0
  7  8  2  0  0  0  0
  8  9  1  0  0  0  0
  9 23  1  0  0  0  0
  9 10  2  0  0  0  0
 10 24  1  0  0  0  0
 10 11  1  0  0  0  0
 12 17  1  0  0  0  0
 12 13  1  0  0  0  0
 12 25  1  0  0  0  0
 13 14  1  0  0  0  0
 13 26  1  0  0  0  0
 13 27  1  0  0  0  0
 14 15  1  0  0  0  0
 14 28  1  0  0  0  0
 14 29  1  0  0  0  0
 15 16  1  0  0  0  0
 16 17  1  0  0  0  0
 16 30  1  0  0  0  0
 16 31  1  0  0  0  0
 17 32  1  0  0  0  0
 17 33  1  0  0  0  0
M  CHG  1   6  -1
M  END
> <s_m_source_file>
AV-unprocessed.smi

> <i_m_source_file_index>
2243

> <i_lp_mmshare_version>
43012

> <i_f3d_flags>
0

> <s_epik_input>
W0NIMl0xW0NIMl1PW0NIMl1bQ0gyXVtDSF0xW0NASF0oW0NIM10pW05IXUMoPU8pW05IXWMybltjSF1bY0hdbzI=

> <s_epik_cmdline>
J2VwaWtfcHl0aG9uJywgJy1waCcsICc3LjAnLCAnLXRuJywgJzgnLCAnLW1hJywgJzIwMCcsICctbWV0YWxfYmluZGluZycsICctaW1hZScsICc8aW5maWxlLm1hZT4nLCAnLW9tYWUnLCAnPG91dGZpbGUubWFlPic=

> <r_lp_tautomer_probability>
0.107061

> <r_epik_Ionization_Penalty>
11.1403

> <r_epik_Ionization_Penalty_Charging>
7.81312

> <r_epik_Ionization_Penalty_Neutral>
3.32719

> <r_epik_State_Penalty>
5.94317

> <r_epik_Charging_Adjusted_Penalty>
13.7563

> <i_epik_Tot_Q>
-1

> <i_epik_Tot_abs_Q>
1

> <r_epik_Metal_State_Penalty>
1.86619

> <b_epik_Metal_Only>
1

> <s_lp_Force_Field>
OPLS_2005

> <r_lp_Energy>
6.48942

> <b_lp_Chiralities_Consistent>
1

> <s_lp_Variant>
AV-unprocessed.smi:2243-9

> <Gold.Version>
5.8.1

> <Gold.Id.Protein>
6NUR|6NUR_protein|mol2

> <Gold.PLP.Fitness>
38.2626

> <Gold.PLP.PLP>
-28.2696

> <Gold.PLP.part.hbond>
-2.0000

> <Gold.PLP.part.metal>
0.0000

> <Gold.PLP.part.buried>
-0.8578

> <Gold.PLP.part.nonpolar>
-27.6322

> <Gold.PLP.part.repulsive>
1.0349

> <Gold.PLP.ligand.clash>
0.0000

> <Gold.PLP.ligand.torsion>
0.7819

> <Gold.PLP.Chemscore.Hbond>
1.9020

> <Gold.PLP.Chemscore.CHOScore>
1.9394

> <Gold.PLP.Chemscore.Metal>
0.0000

> <Gold.Chemscore.Hbonds>
donor molecule, donor type, donor heavy atom, donor atom, acceptor molecule, acceptor atom, score
      P1  H  7954  7966       L1     5  1.00
      P1  H  7989  7998       L1    15  0.75
      L1  C     9    23       P1  7921  0.74
      L1  C    10    24       P1 10186  1.00

> <Gold.PLP.Chemscore.Internal.Correction>
0.0326

> <Gold.Rescore>
     Score         DG    S(hbond)    S(metal)    S(lipo)     H(rot)  DE(clash)    DE(int)     intcor
      8.93     -11.88       0.84        0.00      59.19       1.31       0.47       2.48       ----

> <Gold.Chemscore.Fitness>
8.9291

> <Gold.Chemscore.DG>
-11.8786

> <Gold.Chemscore.ZeroCoef>
-5.4800

> <Gold.Chemscore.Hbond>
0.8437

> <Gold.Chemscore.Metal>
0.0000

> <Gold.Chemscore.Lipo>
59.1864

> <Gold.Chemscore.Internal_Hbond>
0.0000

> <Gold.Chemscore.DEClash>
0.4736

> <Gold.Chemscore.DEInternal>
2.4760

> <Gold.Chemscore.Rot>
1.3063

> <Gold.Chemscore.Internal.Correction>
   9.000000E+99

> <Gold.Chemscore.Hbonds>
donor molecule, donor type, donor heavy atom, donor atom, acceptor molecule, acceptor atom, score
      P1  H  7954  7966       L1     5  0.98
      P1  H  7989  7998       L1    15  0.03

> <Gold.Chemscore.Hbond.Weighted>
-2.8181

> <Gold.Chemscore.Metal.Weighted>
-0.0000

> <Gold.Chemscore.Lipo.Weighted>
-6.9248

> <Gold.Chemscore.Internal_Hbond.Weighted>
0.0000

> <Gold.Chemscore.DEClash.Weighted>
0.4736

> <Gold.Chemscore.DEInternal.Weighted>
2.4760

> <Gold.Chemscore.Rot.Weighted>
3.3443

> <Gold.Chemscore.Internal.Correction.Weighted>
   9.000000E+99

> <Gold.Protein.RotatedTorsions>
[ 6907 6896 6895 6894 ] final  157.11 input  -60.11 | X-H torsion
[ 7974 7965 7964 7962 ] final  -77.22 input  175.53 | X-H torsion
[ 8008 7997 7996 7995 ] final  130.94 input   59.86 | X-H torsion
[ 10167 10162 10161 10158 ] final  149.23 input  -65.29 | X-H torsion
[ 10718 10713 10712 10709 ] final  -62.28 input   66.30 | X-H torsion
[ 10763 10752 10751 10750 ] final  177.47 input  -60.55 | X-H torsion
[ 11005 11000 10999 10996 ] final  141.89 input  -57.11 | X-H torsion

> <Gold.Protein.ActiveResidues>
 VAL166  LYS551  ARG553  GLY616  TRP617  ASP618  TYR619  PRO620  LYS621  CYS622 
 ASP623  PHE694  ASN695  SER759  ASP760  ASP761  ALA762  ILE779  LEU786  VAL792 
 PHE793  MET794  SER795  GLU796  ALA797  LYS798  CYS799  TRP800  GLU811  SER814 

> <Gold.Protein.RotatedAtoms>
  152.0199  133.3894  159.4253 H   0  0  0  0  0  0  0  0  0  0  0  0  # atno 6907 bound_to 6896
  150.6891  134.3637  159.4971 H   0  0  0  0  0  0  0  0  0  0  0  0  # atno 6908 bound_to 6896
  152.1410  134.9062  160.0604 H   0  0  0  0  0  0  0  0  0  0  0  0  # atno 6909 bound_to 6896
  145.6025  140.9405  143.1233 H   0  0  0  0  0  0  0  0  0  0  0  0  # atno 7974 bound_to 7965
  156.2962  140.2583  156.2844 H   0  0  0  0  0  0  0  0  0  0  0  0  # atno 8008 bound_to 7997
  154.9570  140.0393  157.2190 H   0  0  0  0  0  0  0  0  0  0  0  0  # atno 8009 bound_to 7997
  154.7982  140.2823  155.5945 H   0  0  0  0  0  0  0  0  0  0  0  0  # atno 8010 bound_to 7997
  139.4864  144.5618  151.7217 H   0  0  0  0  0  0  0  0  0  0  0  0  # atno 10167 bound_to 10162
  156.0865  130.4207  150.1113 H   0  0  0  0  0  0  0  0  0  0  0  0  # atno 10718 bound_to 10713
  154.4948  135.2780  155.1467 H   0  0  0  0  0  0  0  0  0  0  0  0  # atno 10763 bound_to 10752
  154.3124  135.6226  153.5475 H   0  0  0  0  0  0  0  0  0  0  0  0  # atno 10764 bound_to 10752
  152.9893  135.5723  154.5378 H   0  0  0  0  0  0  0  0  0  0  0  0  # atno 10765 bound_to 10752
  140.0435  134.9292  157.0888 H   0  0  0  0  0  0  0  0  0  0  0  0  # atno 11005 bound_to 11000
  144.7304  139.7744  143.7349 LP  0  0  0  0  0  0  0  0  0  0  0  0  # atno 17320 bound_to 7965
  146.1565  139.4665  143.0015 LP  0  0  0  0  0  0  0  0  0  0  0  0  # atno 17321 bound_to 7965
  140.5189  144.0909  150.6016 LP  0  0  0  0  0  0  0  0  0  0  0  0  # atno 17342 bound_to 10162
  140.3861  143.2777  152.0115 LP  0  0  0  0  0  0  0  0  0  0  0  0  # atno 17343 bound_to 10162
  156.9133  130.9659  151.3560 LP  0  0  0  0  0  0  0  0  0  0  0  0  # atno 17370 bound_to 10713
  157.6001  130.8506  149.8789 LP  0  0  0  0  0  0  0  0  0  0  0  0  # atno 17371 bound_to 10713
  140.4030  134.2062  155.7163 LP  0  0  0  0  0  0  0  0  0  0  0  0  # atno 17394 bound_to 11000
  141.1895  133.8236  157.0953 LP  0  0  0  0  0  0  0  0  0  0  0  0  # atno 17395 bound_to 11000

$$$$
