AV-unprocessed.smi:504|AV-procd|sdf|2747|dock2
  -GOLD-   2262023213D 1   1.00000     0.00000
 Structure written by MMmdl.
 35 36  0  0  0  0  0  0  0  0  1 V2000
  152.6260  139.7010  155.9518 N   0  0  0  0  0  0  0  0  0  0  0  0
  151.9465  139.9714  156.8487 C   0  0  0  0  0  0  0  0  0  0  0  0
  151.0794  140.3153  157.9941 C   0  0  0  0  0  0  0  0  0  0  0  0
  149.8693  139.4898  158.0002 N   0  0  0  0  0  0  0  0  0  0  0  0
  149.8059  138.1497  158.0652 C   0  0  0  0  0  0  0  0  0  0  0  0
  150.7994  137.4279  158.1570 O   0  0  0  0  0  0  0  0  0  0  0  0
  148.3946  137.5446  158.0394 C   0  0  0  0  0  0  0  0  0  0  0  0
  148.0853  136.7299  159.2240 N   0  0  0  0  0  0  0  0  0  0  0  0
  147.7689  137.4689  160.3504 N   0  0  0  0  0  0  0  0  0  0  0  0
  147.4929  136.8596  161.4517 C   0  0  0  0  0  0  0  0  0  0  0  0
  147.4972  135.4172  161.5565 C   0  0  0  0  0  0  0  0  0  0  0  0
  147.1186  134.6563  163.0615 Cl  0  0  0  0  0  0  0  0  0  0  0  0
  147.8032  134.7018  160.4450 C   0  0  0  0  0  0  0  0  0  0  0  0
  147.8277  132.9722  160.4921 Cl  0  0  0  0  0  0  0  0  0  0  0  0
  148.1218  135.3625  159.1716 C   0  0  0  0  0  0  0  0  0  0  0  0
  148.3999  134.7497  158.1397 O   0  0  0  0  0  0  0  0  0  0  0  0
  151.8465  140.1422  159.3297 C   0  0  0  0  0  0  0  0  0  0  0  0
  153.0281  141.1196  159.4543 C   0  0  0  0  0  0  0  0  0  0  0  0
  152.5622  142.5743  159.3014 C   0  0  0  0  0  0  0  0  0  0  0  0
  151.7982  142.7774  157.9852 C   0  0  0  0  0  0  0  0  0  0  0  0
  150.6260  141.7879  157.8683 C   0  0  0  0  0  0  0  0  0  0  0  0
  148.9944  139.9887  157.9327 H   0  0  0  0  0  0  0  0  0  0  0  0
  147.6792  138.3637  157.9460 H   0  0  0  0  0  0  0  0  0  0  0  0
  148.2713  136.9445  157.1357 H   0  0  0  0  0  0  0  0  0  0  0  0
  147.2403  137.3997  162.3644 H   0  0  0  0  0  0  0  0  0  0  0  0
  151.1665  140.2982  160.1684 H   0  0  0  0  0  0  0  0  0  0  0  0
  152.2198  139.1224  159.4275 H   0  0  0  0  0  0  0  0  0  0  0  0
  153.5185  140.9872  160.4191 H   0  0  0  0  0  0  0  0  0  0  0  0
  153.7782  140.8928  158.6958 H   0  0  0  0  0  0  0  0  0  0  0  0
  151.9194  142.8415  160.1413 H   0  0  0  0  0  0  0  0  0  0  0  0
  153.4196  143.2466  159.3428 H   0  0  0  0  0  0  0  0  0  0  0  0
  151.4266  143.8009  157.9279 H   0  0  0  0  0  0  0  0  0  0  0  0
  152.4779  142.6502  157.1418 H   0  0  0  0  0  0  0  0  0  0  0  0
  150.1167  141.9414  156.9157 H   0  0  0  0  0  0  0  0  0  0  0  0
  149.8934  142.0170  158.6442 H   0  0  0  0  0  0  0  0  0  0  0  0
  1  2  3  0  0  0  0
  2  3  1  0  0  0  0
  3 21  1  0  0  0  0
  3  4  1  0  0  0  0
  3 17  1  0  0  0  0
  4  5  1  0  0  0  0
  4 22  1  0  0  0  0
  5  6  2  0  0  0  0
  5  7  1  0  0  0  0
  7  8  1  0  0  0  0
  7 23  1  0  0  0  0
  7 24  1  0  0  0  0
  8 15  1  0  0  0  0
  8  9  1  0  0  0  0
  9 10  2  0  0  0  0
 10 11  1  0  0  0  0
 10 25  1  0  0  0  0
 11 12  1  0  0  0  0
 11 13  2  0  0  0  0
 13 14  1  0  0  0  0
 13 15  1  0  0  0  0
 15 16  2  0  0  0  0
 17 18  1  0  0  0  0
 17 26  1  0  0  0  0
 17 27  1  0  0  0  0
 18 19  1  0  0  0  0
 18 28  1  0  0  0  0
 18 29  1  0  0  0  0
 19 20  1  0  0  0  0
 19 30  1  0  0  0  0
 19 31  1  0  0  0  0
 20 21  1  0  0  0  0
 20 32  1  0  0  0  0
 20 33  1  0  0  0  0
 21 34  1  0  0  0  0
 21 35  1  0  0  0  0
M  END
> <s_m_source_file>
AV-unprocessed.smi

> <i_m_source_file_index>
504

> <i_lp_mmshare_version>
43012

> <i_f3d_flags>
0

> <s_epik_input>
W0NIMl0xW0NIMl1bQ0gyXVtDSDJdW0NIMl1DMShDI04pW05IXUMoPU8pW0NIMl1uMm5bY0hdYyhDbCljKENsKWMyPU8=

> <s_epik_cmdline>
J2VwaWtfcHl0aG9uJywgJy1waCcsICc3LjAnLCAnLXRuJywgJzgnLCAnLW1hJywgJzIwMCcsICctbWV0YWxfYmluZGluZycsICctaW1hZScsICc8aW5maWxlLm1hZT4nLCAnLW9tYWUnLCAnPG91dGZpbGUubWFlPic=

> <r_lp_tautomer_probability>
1

> <r_epik_Ionization_Penalty>
4.52612e-07

> <r_epik_Ionization_Penalty_Charging>
2.33921e-11

> <r_epik_Ionization_Penalty_Neutral>
4.52589e-07

> <r_epik_State_Penalty>
-0

> <r_epik_Charging_Adjusted_Penalty>
2.33921e-11

> <i_epik_Tot_Q>
0

> <i_epik_Tot_abs_Q>
0

> <r_epik_Metal_State_Penalty>
-0

> <b_epik_Metal_Only>
0

> <s_lp_Force_Field>
OPLS_2005

> <r_lp_Energy>
21.394

> <b_lp_Chiralities_Consistent>
1

> <s_lp_Variant>
AV-unprocessed.smi:504-1

> <Gold.Version>
5.8.1

> <Gold.Id.Protein>
6NUR|6NUR_protein|mol2

> <Gold.PLP.Fitness>
38.5167

> <Gold.PLP.PLP>
-33.6655

> <Gold.PLP.part.hbond>
-3.0000

> <Gold.PLP.part.metal>
0.0000

> <Gold.PLP.part.buried>
-3.5662

> <Gold.PLP.part.nonpolar>
-27.3808

> <Gold.PLP.part.repulsive>
0.1488

> <Gold.PLP.ligand.clash>
0.0000

> <Gold.PLP.ligand.torsion>
0.2531

> <Gold.PLP.Chemscore.Hbond>
1.7840

> <Gold.PLP.Chemscore.CHOScore>
0.0000

> <Gold.PLP.Chemscore.Metal>
0.0000

> <Gold.Chemscore.Hbonds>
donor molecule, donor type, donor heavy atom, donor atom, acceptor molecule, acceptor atom, score
      P1  H  6934  6947       L1     9  0.61
      P1  H  7997  8010       L1     1  1.00

> <Gold.PLP.Chemscore.Internal.Correction>
0.0055

> <Gold.Rescore>
     Score         DG    S(hbond)    S(metal)    S(lipo)     H(rot)  DE(clash)    DE(int)     intcor
     14.48     -15.85       1.47        0.00      81.68       1.60       0.01       1.37       ----

> <Gold.Chemscore.Fitness>
14.4802

> <Gold.Chemscore.DG>
-15.8532

> <Gold.Chemscore.ZeroCoef>
-5.4800

> <Gold.Chemscore.Hbond>
1.4713

> <Gold.Chemscore.Metal>
0.0000

> <Gold.Chemscore.Lipo>
81.6827

> <Gold.Chemscore.Internal_Hbond>
0.0000

> <Gold.Chemscore.DEClash>
0.0073

> <Gold.Chemscore.DEInternal>
1.3657

> <Gold.Chemscore.Rot>
1.6007

> <Gold.Chemscore.Internal.Correction>
   9.000000E+99

> <Gold.Chemscore.Hbonds>
donor molecule, donor type, donor heavy atom, donor atom, acceptor molecule, acceptor atom, score
      P1  H  6934  6947       L1     9  0.08
      P1  H  7997  8010       L1     1  0.85

> <Gold.Chemscore.Hbond.Weighted>
-4.9142

> <Gold.Chemscore.Metal.Weighted>
-0.0000

> <Gold.Chemscore.Lipo.Weighted>
-9.5569

> <Gold.Chemscore.Internal_Hbond.Weighted>
0.0000

> <Gold.Chemscore.DEClash.Weighted>
0.0073

> <Gold.Chemscore.DEInternal.Weighted>
1.3657

> <Gold.Chemscore.Rot.Weighted>
4.0978

> <Gold.Chemscore.Internal.Correction.Weighted>
   9.000000E+99

> <Gold.Protein.RotatedTorsions>
[ 6907 6896 6895 6894 ] final  157.65 input  -60.11 | X-H torsion
[ 7974 7965 7964 7962 ] final -105.51 input  175.53 | X-H torsion
[ 8008 7997 7996 7995 ] final   85.43 input   59.86 | X-H torsion
[ 10167 10162 10161 10158 ] final   52.92 input  -65.29 | X-H torsion
[ 10718 10713 10712 10709 ] final   54.72 input   66.30 | X-H torsion
[ 10763 10752 10751 10750 ] final   39.32 input  -60.55 | X-H torsion
[ 11005 11000 10999 10996 ] final   -8.30 input  -57.11 | X-H torsion

> <Gold.Protein.ActiveResidues>
 VAL166  LYS551  ARG553  GLY616  TRP617  ASP618  TYR619  PRO620  LYS621  CYS622 
 ASP623  PHE694  ASN695  SER759  ASP760  ASP761  ALA762  ILE779  LEU786  VAL792 
 PHE793  MET794  SER795  GLU796  ALA797  LYS798  CYS799  TRP800  GLU811  SER814 

> <Gold.Protein.RotatedAtoms>
  152.0120  133.3865  159.4223 H   0  0  0  0  0  0  0  0  0  0  0  0  # atno 6907 bound_to 6896
  150.6898  134.3720  159.5005 H   0  0  0  0  0  0  0  0  0  0  0  0  # atno 6908 bound_to 6896
  152.1482  134.9009  160.0600 H   0  0  0  0  0  0  0  0  0  0  0  0  # atno 6909 bound_to 6896
  145.2296  140.9165  143.3212 H   0  0  0  0  0  0  0  0  0  0  0  0  # atno 7974 bound_to 7965
  155.9499  140.3401  155.6399 H   0  0  0  0  0  0  0  0  0  0  0  0  # atno 8008 bound_to 7997
  155.6932  140.0751  157.2458 H   0  0  0  0  0  0  0  0  0  0  0  0  # atno 8009 bound_to 7997
  154.4120  140.1653  156.2097 H   0  0  0  0  0  0  0  0  0  0  0  0  # atno 8010 bound_to 7997
  140.2463  144.3529  150.6363 H   0  0  0  0  0  0  0  0  0  0  0  0  # atno 10167 bound_to 10162
  157.5282  130.8612  149.8650 H   0  0  0  0  0  0  0  0  0  0  0  0  # atno 10718 bound_to 10713
  152.9971  135.6224  154.2447 H   0  0  0  0  0  0  0  0  0  0  0  0  # atno 10763 bound_to 10752
  154.2187  135.2797  155.2934 H   0  0  0  0  0  0  0  0  0  0  0  0  # atno 10764 bound_to 10752
  154.5547  135.5723  153.7011 H   0  0  0  0  0  0  0  0  0  0  0  0  # atno 10765 bound_to 10752
  140.7220  133.8820  155.8828 H   0  0  0  0  0  0  0  0  0  0  0  0  # atno 11005 bound_to 11000
  144.9689  139.3901  143.6319 LP  0  0  0  0  0  0  0  0  0  0  0  0  # atno 17320 bound_to 7965
  146.3356  139.8777  142.8829 LP  0  0  0  0  0  0  0  0  0  0  0  0  # atno 17321 bound_to 7965
  140.6075  143.2168  151.6951 LP  0  0  0  0  0  0  0  0  0  0  0  0  # atno 17342 bound_to 10162
  139.5061  144.3694  152.0484 LP  0  0  0  0  0  0  0  0  0  0  0  0  # atno 17343 bound_to 10162
  156.0402  130.3741  150.1454 LP  0  0  0  0  0  0  0  0  0  0  0  0  # atno 17370 bound_to 10713
  156.9640  130.9814  151.3473 LP  0  0  0  0  0  0  0  0  0  0  0  0  # atno 17371 bound_to 10713
  140.9995  134.1169  157.4331 LP  0  0  0  0  0  0  0  0  0  0  0  0  # atno 17394 bound_to 11000
  139.8846  135.0064  156.6378 LP  0  0  0  0  0  0  0  0  0  0  0  0  # atno 17395 bound_to 11000

$$$$
