AV-unprocessed.smi:2015|AV-procd|sdf|8164|dock3
  -GOLD-   2272010413D 1   1.00000     0.00000
 Structure written by MMmdl.
 47 48  0  0  0  0  0  0  0  0  1 V2000
  147.6125  130.9968  153.4284 C   0  0  0  0  0  0  0  0  0  0  0  0
  148.3830  131.9158  154.1827 O   0  0  0  0  0  0  0  0  0  0  0  0
  148.8303  133.0157  153.4075 C   0  0  0  0  0  0  0  0  0  0  0  0
  149.8498  133.8281  154.2156 C   0  0  0  0  0  0  0  0  0  0  0  0
  149.1833  134.8698  155.1331 C   0  0  0  0  0  0  0  0  0  0  0  0
  150.1695  135.9163  155.6605 C   0  0  0  0  0  0  0  0  0  0  0  0
  151.3643  135.8215  155.3829 O   0  0  0  0  0  0  0  0  0  0  0  0
  149.6324  136.8794  156.4324 N   0  0  0  0  0  0  0  0  0  0  0  0
  150.2616  137.9842  157.0703 C   0  0  0  0  0  0  0  0  0  0  0  0
  151.6573  138.1319  157.2474 C   0  0  0  0  0  0  0  0  0  0  0  0
  152.1454  139.2856  157.8909 C   0  0  0  0  0  0  0  0  0  0  0  0
  151.2334  140.2716  158.3356 C   0  0  0  0  0  0  0  0  0  0  0  0
  151.7025  141.4355  158.9831 N   0  0  0  0  0  0  0  0  0  0  0  0
  153.0895  141.3967  159.4387 C   0  0  0  0  0  0  0  0  0  0  0  0
  153.3824  142.5508  160.4173 C   0  0  2  0  0  0  0  0  0  0  0  0
  152.7894  142.3278  161.8199 C   0  0  0  0  0  0  0  0  0  0  0  0
  152.9748  143.7971  159.8485 O   0  0  0  0  0  0  0  0  0  0  0  0
  151.6056  143.8533  159.4502 C   0  0  1  0  0  0  0  0  0  0  0  0
  151.3419  145.2412  158.8569 C   0  0  0  0  0  0  0  0  0  0  0  0
  151.3148  142.7329  158.4359 C   0  0  0  0  0  0  0  0  0  0  0  0
  149.8973  140.1283  158.1599 N   0  0  0  0  0  0  0  0  0  0  0  0
  149.4337  139.0215  157.5434 C   0  0  0  0  0  0  0  0  0  0  0  0
  147.3067  130.1671  154.0655 H   0  0  0  0  0  0  0  0  0  0  0  0
  148.1870  130.5884  152.5962 H   0  0  0  0  0  0  0  0  0  0  0  0
  146.7116  131.4686  153.0342 H   0  0  0  0  0  0  0  0  0  0  0  0
  149.2946  132.6523  152.4895 H   0  0  0  0  0  0  0  0  0  0  0  0
  147.9883  133.6470  153.1193 H   0  0  0  0  0  0  0  0  0  0  0  0
  150.4690  133.1467  154.8006 H   0  0  0  0  0  0  0  0  0  0  0  0
  150.5223  134.3356  153.5224 H   0  0  0  0  0  0  0  0  0  0  0  0
  148.3770  135.3677  154.5921 H   0  0  0  0  0  0  0  0  0  0  0  0
  148.7236  134.3743  155.9888 H   0  0  0  0  0  0  0  0  0  0  0  0
  148.6433  136.7888  156.6145 H   0  0  0  0  0  0  0  0  0  0  0  0
  152.3666  137.3969  156.9028 H   0  0  0  0  0  0  0  0  0  0  0  0
  153.2087  139.3928  158.0455 H   0  0  0  0  0  0  0  0  0  0  0  0
  153.3418  140.4497  159.9131 H   0  0  0  0  0  0  0  0  0  0  0  0
  153.7358  141.4874  158.5645 H   0  0  0  0  0  0  0  0  0  0  0  0
  154.4640  142.6138  160.5398 H   0  0  0  0  0  0  0  0  0  0  0  0
  153.2207  141.4401  162.2832 H   0  0  0  0  0  0  0  0  0  0  0  0
  151.7094  142.1853  161.7955 H   0  0  0  0  0  0  0  0  0  0  0  0
  153.0016  143.1756  162.4715 H   0  0  0  0  0  0  0  0  0  0  0  0
  150.9638  143.7320  160.3230 H   0  0  0  0  0  0  0  0  0  0  0  0
  150.3040  145.3417  158.5382 H   0  0  0  0  0  0  0  0  0  0  0  0
  151.9771  145.4270  157.9903 H   0  0  0  0  0  0  0  0  0  0  0  0
  151.5419  146.0232  159.5896 H   0  0  0  0  0  0  0  0  0  0  0  0
  151.8648  142.9089  157.5104 H   0  0  0  0  0  0  0  0  0  0  0  0
  150.2520  142.7387  158.1901 H   0  0  0  0  0  0  0  0  0  0  0  0
  148.3614  138.9623  157.4276 H   0  0  0  0  0  0  0  0  0  0  0  0
  1  2  1  0  0  0  0
  1 23  1  0  0  0  0
  1 24  1  0  0  0  0
  1 25  1  0  0  0  0
  2  3  1  0  0  0  0
  3  4  1  0  0  0  0
  3 26  1  0  0  0  0
  3 27  1  0  0  0  0
  4  5  1  0  0  0  0
  4 28  1  0  0  0  0
  4 29  1  0  0  0  0
  5  6  1  0  0  0  0
  5 30  1  0  0  0  0
  5 31  1  0  0  0  0
  6  7  2  0  0  0  0
  6  8  1  0  0  0  0
  8  9  1  0  0  0  0
  8 32  1  0  0  0  0
  9 22  1  0  0  0  0
  9 10  2  0  0  0  0
 10 11  1  0  0  0  0
 10 33  1  0  0  0  0
 11 12  2  0  0  0  0
 11 34  1  0  0  0  0
 12 13  1  0  0  0  0
 12 21  1  0  0  0  0
 13 20  1  0  0  0  0
 13 14  1  0  0  0  0
 14 15  1  0  0  0  0
 14 35  1  0  0  0  0
 14 36  1  0  0  0  0
 15 16  1  0  0  0  0
 15 17  1  0  0  0  0
 15 37  1  0  0  0  0
 16 38  1  0  0  0  0
 16 39  1  0  0  0  0
 16 40  1  0  0  0  0
 17 18  1  0  0  0  0
 18 19  1  0  0  0  0
 18 20  1  0  0  0  0
 18 41  1  0  0  0  0
 19 42  1  0  0  0  0
 19 43  1  0  0  0  0
 19 44  1  0  0  0  0
 20 45  1  0  0  0  0
 20 46  1  0  0  0  0
 21 22  2  0  0  0  0
 22 47  1  0  0  0  0
M  END
> <s_m_source_file>
AV-unprocessed.smi

> <i_m_source_file_index>
2015

> <i_lp_mmshare_version>
43012

> <i_f3d_flags>
0

> <s_epik_input>
W0NIM11PW0NIMl1bQ0gyXVtDSDJdQyg9TylbTkhdYzFbY0hdW2NIXWMobltjSF0xKU4yW0NIMl1bQ0BASF0oW0NIM10pT1tDQEBIXShbQ0gzXSlbQ0gyXTI=

> <s_epik_cmdline>
J2VwaWtfcHl0aG9uJywgJy1waCcsICc3LjAnLCAnLXRuJywgJzgnLCAnLW1hJywgJzIwMCcsICctbWV0YWxfYmluZGluZycsICctaW1hZScsICc8aW5maWxlLm1hZT4nLCAnLW9tYWUnLCAnPG91dGZpbGUubWFlPic=

> <r_lp_tautomer_probability>
1

> <r_epik_Ionization_Penalty>
0.000816358

> <r_epik_Ionization_Penalty_Charging>
0

> <r_epik_Ionization_Penalty_Neutral>
0.000816358

> <r_epik_State_Penalty>
0.000521115

> <r_epik_Charging_Adjusted_Penalty>
0.000521115

> <i_epik_Tot_Q>
0

> <i_epik_Tot_abs_Q>
0

> <r_epik_Metal_State_Penalty>
-0

> <b_epik_Metal_Only>
0

> <s_lp_Force_Field>
OPLS_2005

> <r_lp_Energy>
24.9806

> <b_lp_Chiralities_Consistent>
1

> <s_lp_Variant>
AV-unprocessed.smi:2015-2

> <Gold.Version>
5.8.1

> <Gold.Id.Protein>
6NUR|6NUR_protein|mol2

> <Gold.PLP.Fitness>
39.6914

> <Gold.PLP.PLP>
-37.2709

> <Gold.PLP.part.hbond>
-1.0000

> <Gold.PLP.part.metal>
0.0000

> <Gold.PLP.part.buried>
-6.2717

> <Gold.PLP.part.nonpolar>
-29.9202

> <Gold.PLP.part.repulsive>
0.1485

> <Gold.PLP.ligand.clash>
0.0000

> <Gold.PLP.ligand.torsion>
0.4784

> <Gold.PLP.Chemscore.Hbond>
1.0000

> <Gold.PLP.Chemscore.CHOScore>
0.0000

> <Gold.PLP.Chemscore.Metal>
0.0000

> <Gold.Chemscore.Hbonds>
donor molecule, donor type, donor heavy atom, donor atom, acceptor molecule, acceptor atom, score
      P1  H 10752 10763       L1     7  1.00

> <Gold.PLP.Chemscore.Internal.Correction>
0.3773

> <Gold.Rescore>
     Score         DG    S(hbond)    S(metal)    S(lipo)     H(rot)  DE(clash)    DE(int)     intcor
     14.89     -16.50       1.00        0.00     102.56       1.68       0.03       1.58       ----

> <Gold.Chemscore.Fitness>
14.8905

> <Gold.Chemscore.DG>
-16.5048

> <Gold.Chemscore.ZeroCoef>
-5.4800

> <Gold.Chemscore.Hbond>
0.9978

> <Gold.Chemscore.Metal>
0.0000

> <Gold.Chemscore.Lipo>
102.5631

> <Gold.Chemscore.Internal_Hbond>
0.0000

> <Gold.Chemscore.DEClash>
0.0349

> <Gold.Chemscore.DEInternal>
1.5794

> <Gold.Chemscore.Rot>
1.6827

> <Gold.Chemscore.Internal.Correction>
   9.000000E+99

> <Gold.Chemscore.Hbonds>
donor molecule, donor type, donor heavy atom, donor atom, acceptor molecule, acceptor atom, score
      P1  H 10752 10763       L1     7  0.99

> <Gold.Chemscore.Hbond.Weighted>
-3.3327

> <Gold.Chemscore.Metal.Weighted>
-0.0000

> <Gold.Chemscore.Lipo.Weighted>
-11.9999

> <Gold.Chemscore.Internal_Hbond.Weighted>
0.0000

> <Gold.Chemscore.DEClash.Weighted>
0.0349

> <Gold.Chemscore.DEInternal.Weighted>
1.5794

> <Gold.Chemscore.Rot.Weighted>
4.3078

> <Gold.Chemscore.Internal.Correction.Weighted>
   9.000000E+99

> <Gold.Protein.RotatedTorsions>
[ 6907 6896 6895 6894 ] final  -98.54 input  -60.11 | X-H torsion
[ 7974 7965 7964 7962 ] final -167.43 input  175.53 | X-H torsion
[ 8008 7997 7996 7995 ] final  143.16 input   59.86 | X-H torsion
[ 10167 10162 10161 10158 ] final   89.25 input  -65.29 | X-H torsion
[ 10718 10713 10712 10709 ] final  174.59 input   66.30 | X-H torsion
[ 10763 10752 10751 10750 ] final   56.02 input  -60.55 | X-H torsion
[ 11005 11000 10999 10996 ] final  124.02 input  -57.11 | X-H torsion

> <Gold.Protein.ActiveResidues>
 VAL166  LYS551  ARG553  GLY616  TRP617  ASP618  TYR619  PRO620  LYS621  CYS622 
 ASP623  PHE694  ASN695  SER759  ASP760  ASP761  ALA762  ILE779  LEU786  VAL792 
 PHE793  MET794  SER795  GLU796  ALA797  LYS798  CYS799  TRP800  GLU811  SER814 

> <Gold.Protein.RotatedAtoms>
  150.7050  134.1179  159.4023 H   0  0  0  0  0  0  0  0  0  0  0  0  # atno 6907 bound_to 6896
  151.9165  135.0314  160.0528 H   0  0  0  0  0  0  0  0  0  0  0  0  # atno 6908 bound_to 6896
  152.2292  133.5009  159.5243 H   0  0  0  0  0  0  0  0  0  0  0  0  # atno 6909 bound_to 6896
  144.7223  140.2520  143.6277 H   0  0  0  0  0  0  0  0  0  0  0  0  # atno 7974 bound_to 7965
  156.2936  140.2270  156.4845 H   0  0  0  0  0  0  0  0  0  0  0  0  # atno 8008 bound_to 7997
  154.7824  140.0459  157.1159 H   0  0  0  0  0  0  0  0  0  0  0  0  # atno 8009 bound_to 7997
  154.9742  140.3070  155.4978 H   0  0  0  0  0  0  0  0  0  0  0  0  # atno 8010 bound_to 7997
  139.8592  144.6553  150.9079 H   0  0  0  0  0  0  0  0  0  0  0  0  # atno 10167 bound_to 10162
  156.9474  131.0020  151.2956 H   0  0  0  0  0  0  0  0  0  0  0  0  # atno 10718 bound_to 10713
  152.9825  135.5690  154.5162 H   0  0  0  0  0  0  0  0  0  0  0  0  # atno 10763 bound_to 10752
  154.4657  135.2783  155.1682 H   0  0  0  0  0  0  0  0  0  0  0  0  # atno 10764 bound_to 10752
  154.3251  135.6261  153.5579 H   0  0  0  0  0  0  0  0  0  0  0  0  # atno 10765 bound_to 10752
  139.9339  134.9640  156.8346 H   0  0  0  0  0  0  0  0  0  0  0  0  # atno 11005 bound_to 11000
  145.8219  139.2047  143.1933 LP  0  0  0  0  0  0  0  0  0  0  0  0  # atno 17320 bound_to 7965
  146.0507  140.8072  142.9783 LP  0  0  0  0  0  0  0  0  0  0  0  0  # atno 17321 bound_to 7965
  140.7777  143.3759  151.1563 LP  0  0  0  0  0  0  0  0  0  0  0  0  # atno 17342 bound_to 10162
  139.7390  143.8953  152.3044 LP  0  0  0  0  0  0  0  0  0  0  0  0  # atno 17343 bound_to 10162
  157.5744  130.8333  149.8436 LP  0  0  0  0  0  0  0  0  0  0  0  0  # atno 17370 bound_to 10713
  156.0377  130.3747  150.1516 LP  0  0  0  0  0  0  0  0  0  0  0  0  # atno 17371 bound_to 10713
  140.6128  134.0067  155.7584 LP  0  0  0  0  0  0  0  0  0  0  0  0  # atno 17394 bound_to 11000
  141.0943  133.9868  157.3186 LP  0  0  0  0  0  0  0  0  0  0  0  0  # atno 17395 bound_to 11000

$$$$
