AV-unprocessed.smi:897|AV-procd|sdf|4080|dock2
  -GOLD-   22720 1563D 1   1.00000     0.00000
 Structure written by MMmdl.
 35 37  0  0  0  0  0  0  0  0  1 V2000
  153.1958  143.8477  158.9628 C   0  0  0  0  0  0  0  0  0  0  0  0
  153.0368  142.3598  159.1945 C   0  0  0  0  0  0  0  0  0  0  0  0
  153.6445  141.7289  160.2958 C   0  0  0  0  0  0  0  0  0  0  0  0
  153.4634  140.3414  160.4652 C   0  0  0  0  0  0  0  0  0  0  0  0
  154.1186  139.6485  161.6507 C   0  0  0  0  0  0  0  0  0  0  0  0
  152.6734  139.6365  159.5198 C   0  0  0  0  0  0  0  0  0  0  0  0
  152.4551  138.1982  159.6616 C   0  0  0  0  0  0  0  0  0  0  0  0
  152.2816  137.0597  159.7736 N   0  0  0  0  0  0  0  0  0  0  0  0
  152.0998  140.3655  158.4414 C   0  0  0  0  0  0  0  0  0  0  0  0
  151.3119  139.7111  157.4762 N   0  0  0  0  0  0  0  0  0  0  0  0
  151.3629  140.0943  156.0683 C   0  0  1  0  0  0  0  0  0  0  0  0
  151.7019  138.9232  155.1430 C   0  0  0  0  0  0  0  0  0  0  0  0
  150.5446  138.9713  154.1354 C   0  0  1  0  0  0  0  0  0  0  0  0
  149.2417  138.4411  154.7475 C   0  0  0  0  0  0  0  0  0  0  0  0
  148.8621  139.5746  155.6983 C   0  0  0  0  0  0  0  0  0  0  0  0
  150.0166  140.5690  155.4851 C   0  0  2  0  0  0  0  0  0  0  0  0
  150.2685  140.3616  154.1054 O   0  0  0  0  0  0  0  0  0  0  0  0
  152.2864  141.6985  158.2911 N   0  0  0  0  0  0  0  0  0  0  0  0
  153.9237  144.2794  159.6504 H   0  0  0  0  0  0  0  0  0  0  0  0
  152.2431  144.3567  159.1101 H   0  0  0  0  0  0  0  0  0  0  0  0
  153.5357  144.0406  157.9448 H   0  0  0  0  0  0  0  0  0  0  0  0
  154.2377  142.2990  160.9960 H   0  0  0  0  0  0  0  0  0  0  0  0
  153.3652  139.1823  162.2865 H   0  0  0  0  0  0  0  0  0  0  0  0
  154.6813  140.3543  162.2624 H   0  0  0  0  0  0  0  0  0  0  0  0
  154.8096  138.8775  161.3087 H   0  0  0  0  0  0  0  0  0  0  0  0
  150.5094  139.1842  157.7894 H   0  0  0  0  0  0  0  0  0  0  0  0
  152.1159  140.8718  155.9310 H   0  0  0  0  0  0  0  0  0  0  0  0
  152.6573  139.0993  154.6476 H   0  0  0  0  0  0  0  0  0  0  0  0
  151.7587  137.9602  155.6526 H   0  0  0  0  0  0  0  0  0  0  0  0
  150.7847  138.5379  153.1641 H   0  0  0  0  0  0  0  0  0  0  0  0
  148.4761  138.3125  153.9815 H   0  0  0  0  0  0  0  0  0  0  0  0
  149.3794  137.4872  155.2577 H   0  0  0  0  0  0  0  0  0  0  0  0
  147.9139  140.0200  155.3957 H   0  0  0  0  0  0  0  0  0  0  0  0
  148.7626  139.2477  156.7335 H   0  0  0  0  0  0  0  0  0  0  0  0
  149.7619  141.5985  155.7384 H   0  0  0  0  0  0  0  0  0  0  0  0
  1  2  1  0  0  0  0
  1 19  1  0  0  0  0
  1 20  1  0  0  0  0
  1 21  1  0  0  0  0
  2 18  1  0  0  0  0
  2  3  2  0  0  0  0
  3  4  1  0  0  0  0
  3 22  1  0  0  0  0
  4  5  1  0  0  0  0
  4  6  2  0  0  0  0
  5 23  1  0  0  0  0
  5 24  1  0  0  0  0
  5 25  1  0  0  0  0
  6  7  1  0  0  0  0
  6  9  1  0  0  0  0
  7  8  3  0  0  0  0
  9 10  1  0  0  0  0
  9 18  2  0  0  0  0
 10 11  1  0  0  0  0
 10 26  1  0  0  0  0
 11 16  1  0  0  0  0
 11 12  1  0  0  0  0
 11 27  1  0  0  0  0
 12 13  1  0  0  0  0
 12 28  1  0  0  0  0
 12 29  1  0  0  0  0
 13 17  1  0  0  0  0
 13 14  1  0  0  0  0
 13 30  1  0  0  0  0
 14 15  1  0  0  0  0
 14 31  1  0  0  0  0
 14 32  1  0  0  0  0
 15 16  1  0  0  0  0
 15 33  1  0  0  0  0
 15 34  1  0  0  0  0
 16 17  1  0  0  0  0
 16 35  1  0  0  0  0
M  END
> <s_m_source_file>
AV-unprocessed.smi

> <i_m_source_file_index>
897

> <i_lp_mmshare_version>
43012

> <i_f3d_flags>
0

> <s_epik_input>
W0NIM11jMVtjSF1jKFtDSDNdKWMoQyNOKWMobjEpW05IXVtDQEhdKFtDSDJdW0NAQEhdMjMpW0NAQEhdKE8zKVtDSDJdW0NIMl0y

> <s_epik_cmdline>
J2VwaWtfcHl0aG9uJywgJy1waCcsICc3LjAnLCAnLXRuJywgJzgnLCAnLW1hJywgJzIwMCcsICctbWV0YWxfYmluZGluZycsICctaW1hZScsICc8aW5maWxlLm1hZT4nLCAnLW9tYWUnLCAnPG91dGZpbGUubWFlPic=

> <r_lp_tautomer_probability>
1

> <r_epik_Ionization_Penalty>
0.000502654

> <r_epik_Ionization_Penalty_Charging>
0

> <r_epik_Ionization_Penalty_Neutral>
0.000502654

> <r_epik_State_Penalty>
-0

> <r_epik_Charging_Adjusted_Penalty>
0

> <i_epik_Tot_Q>
0

> <i_epik_Tot_abs_Q>
0

> <r_epik_Metal_State_Penalty>
-0

> <b_epik_Metal_Only>
0

> <s_lp_Force_Field>
OPLS_2005

> <r_lp_Energy>
43.9226

> <b_lp_Chiralities_Consistent>
1

> <s_lp_Variant>
AV-unprocessed.smi:897-2

> <Gold.Version>
5.8.1

> <Gold.Id.Protein>
6NUR|6NUR_protein|mol2

> <Gold.PLP.Fitness>
41.3056

> <Gold.PLP.PLP>
-35.8566

> <Gold.PLP.part.hbond>
-1.8144

> <Gold.PLP.part.metal>
0.0000

> <Gold.PLP.part.buried>
-4.6341

> <Gold.PLP.part.nonpolar>
-29.5205

> <Gold.PLP.part.repulsive>
0.7409

> <Gold.PLP.ligand.clash>
0.0000

> <Gold.PLP.ligand.torsion>
0.2806

> <Gold.PLP.Chemscore.Hbond>
2.0000

> <Gold.PLP.Chemscore.CHOScore>
0.0000

> <Gold.PLP.Chemscore.Metal>
0.0000

> <Gold.Chemscore.Hbonds>
donor molecule, donor type, donor heavy atom, donor atom, acceptor molecule, acceptor atom, score
      P1  H  6896  6908       L1     8  1.00
      P1  H  7989  7998       L1    17  0.90

> <Gold.PLP.Chemscore.Internal.Correction>
0.0101

> <Gold.Rescore>
     Score         DG    S(hbond)    S(metal)    S(lipo)     H(rot)  DE(clash)    DE(int)     intcor
     19.73     -20.04       1.93        0.00      91.29       1.00       0.00       0.31       ----

> <Gold.Chemscore.Fitness>
19.7274

> <Gold.Chemscore.DG>
-20.0370

> <Gold.Chemscore.ZeroCoef>
-5.4800

> <Gold.Chemscore.Hbond>
1.9270

> <Gold.Chemscore.Metal>
0.0000

> <Gold.Chemscore.Lipo>
91.2885

> <Gold.Chemscore.Internal_Hbond>
0.0000

> <Gold.Chemscore.DEClash>
0.0000

> <Gold.Chemscore.DEInternal>
0.3095

> <Gold.Chemscore.Rot>
1.0000

> <Gold.Chemscore.Internal.Correction>
   9.000000E+99

> <Gold.Chemscore.Hbonds>
donor molecule, donor type, donor heavy atom, donor atom, acceptor molecule, acceptor atom, score
      P1  H  6896  6908       L1     8  0.96
      P1  H  7989  7998       L1    17  0.21

> <Gold.Chemscore.Hbond.Weighted>
-6.4362

> <Gold.Chemscore.Metal.Weighted>
-0.0000

> <Gold.Chemscore.Lipo.Weighted>
-10.6808

> <Gold.Chemscore.Internal_Hbond.Weighted>
0.0000

> <Gold.Chemscore.DEClash.Weighted>
0.0000

> <Gold.Chemscore.DEInternal.Weighted>
0.3095

> <Gold.Chemscore.Rot.Weighted>
2.5600

> <Gold.Chemscore.Internal.Correction.Weighted>
   9.000000E+99

> <Gold.Protein.RotatedTorsions>
[ 6907 6896 6895 6894 ] final -102.62 input  -60.11 | X-H torsion
[ 7974 7965 7964 7962 ] final  159.77 input  175.53 | X-H torsion
[ 8008 7997 7996 7995 ] final -102.00 input   59.86 | X-H torsion
[ 10167 10162 10161 10158 ] final  176.89 input  -65.29 | X-H torsion
[ 10718 10713 10712 10709 ] final  -58.33 input   66.30 | X-H torsion
[ 10763 10752 10751 10750 ] final   12.31 input  -60.55 | X-H torsion
[ 11005 11000 10999 10996 ] final -106.62 input  -57.11 | X-H torsion

> <Gold.Protein.ActiveResidues>
 VAL166  LYS551  ARG553  GLY616  TRP617  ASP618  TYR619  PRO620  LYS621  CYS622 
 ASP623  PHE694  ASN695  SER759  ASP760  ASP761  ALA762  ILE779  LEU786  VAL792 
 PHE793  MET794  SER795  GLU796  ALA797  LYS798  CYS799  TRP800  GLU811  SER814 

> <Gold.Protein.RotatedAtoms>
  150.7204  134.0553  159.3812 H   0  0  0  0  0  0  0  0  0  0  0  0  # atno 6907 bound_to 6896
  151.8532  135.0548  160.0470 H   0  0  0  0  0  0  0  0  0  0  0  0  # atno 6908 bound_to 6896
  152.2775  133.5403  159.5513 H   0  0  0  0  0  0  0  0  0  0  0  0  # atno 6909 bound_to 6896
  144.7772  139.7664  143.6274 H   0  0  0  0  0  0  0  0  0  0  0  0  # atno 7974 bound_to 7965
  154.8505  140.0431  157.1601 H   0  0  0  0  0  0  0  0  0  0  0  0  # atno 8008 bound_to 7997
  154.8948  140.2991  155.5330 H   0  0  0  0  0  0  0  0  0  0  0  0  # atno 8009 bound_to 7997
  156.2996  140.2387  156.3968 H   0  0  0  0  0  0  0  0  0  0  0  0  # atno 8010 bound_to 7997
  139.5232  144.2862  152.0504 H   0  0  0  0  0  0  0  0  0  0  0  0  # atno 10167 bound_to 10162
  156.1143  130.4172  150.0562 H   0  0  0  0  0  0  0  0  0  0  0  0  # atno 10718 bound_to 10713
  153.1835  135.6831  153.8446 H   0  0  0  0  0  0  0  0  0  0  0  0  # atno 10763 bound_to 10752
  153.7770  135.3188  155.3361 H   0  0  0  0  0  0  0  0  0  0  0  0  # atno 10764 bound_to 10752
  154.8074  135.4739  154.0524 H   0  0  0  0  0  0  0  0  0  0  0  0  # atno 10765 bound_to 10752
  141.0995  133.8909  157.1878 H   0  0  0  0  0  0  0  0  0  0  0  0  # atno 11005 bound_to 11000
  146.1959  139.5225  142.9775 LP  0  0  0  0  0  0  0  0  0  0  0  0  # atno 17320 bound_to 7965
  145.6152  141.0332  143.1945 LP  0  0  0  0  0  0  0  0  0  0  0  0  # atno 17321 bound_to 7965
  140.2315  144.4364  150.6298 LP  0  0  0  0  0  0  0  0  0  0  0  0  # atno 17342 bound_to 10162
  140.6352  143.2194  151.6410 LP  0  0  0  0  0  0  0  0  0  0  0  0  # atno 17343 bound_to 10162
  156.8517  130.9461  151.3625 LP  0  0  0  0  0  0  0  0  0  0  0  0  # atno 17370 bound_to 10713
  157.6326  130.8741  149.9301 LP  0  0  0  0  0  0  0  0  0  0  0  0  # atno 17371 bound_to 10713
  139.9842  135.0087  156.9823 LP  0  0  0  0  0  0  0  0  0  0  0  0  # atno 17394 bound_to 11000
  140.5056  134.1053  155.7259 LP  0  0  0  0  0  0  0  0  0  0  0  0  # atno 17395 bound_to 11000

$$$$
