AV-unprocessed.smi:2468|AV-procd|sdf|9730|dock2
  -GOLD-   2272013373D 1   1.00000     0.00000
 Structure written by MMmdl.
 32 33  0  0  0  0  0  0  0  0  1 V2000
  152.3033  144.5102  161.8530 C   0  0  0  0  0  0  0  0  0  0  0  0
  152.5446  143.2738  161.0072 C   0  0  0  0  0  0  0  0  0  0  0  0
  153.3841  142.3577  161.5371 N   0  0  0  0  0  0  0  0  0  0  0  0
  153.6264  141.2353  160.8298 C   0  0  0  0  0  0  0  0  0  0  0  0
  153.0546  140.9748  159.5700 C   0  0  0  0  0  0  0  0  0  0  0  0
  152.1876  141.9401  159.0036 C   0  0  0  0  0  0  0  0  0  0  0  0
  151.5388  141.7720  157.7485 N   0  0  0  0  0  0  0  0  0  0  0  0
  151.6831  140.7853  156.8451 C   0  0  0  0  0  0  0  0  0  0  0  0
  152.4750  139.8489  156.9535 O   0  0  0  0  0  0  0  0  0  0  0  0
  150.8059  140.9058  155.5870 C   0  0  1  0  0  0  0  0  0  0  0  0
  151.2362  139.9055  154.6619 O   0  0  0  0  0  0  0  0  0  0  0  0
  150.1994  138.9584  154.4149 C   0  0  0  0  0  0  0  0  0  0  0  0
  149.1967  139.1387  155.5491 C   0  0  0  0  0  0  0  0  0  0  0  0
  149.3021  140.6290  155.8000 C   0  0  1  0  0  0  0  0  0  0  0  0
  148.6810  141.0990  157.1280 C   0  0  0  0  0  0  0  0  0  0  0  0
  151.9176  143.1118  159.7495 C   0  0  0  0  0  0  0  0  0  0  0  0
  150.8457  144.3258  159.1349 Cl  0  0  0  0  0  0  0  0  0  0  0  0
  152.6125  145.4050  161.3123 H   0  0  0  0  0  0  0  0  0  0  0  0
  152.8616  144.4723  162.7893 H   0  0  0  0  0  0  0  0  0  0  0  0
  151.2443  144.6021  162.0957 H   0  0  0  0  0  0  0  0  0  0  0  0
  154.2917  140.5172  161.2858 H   0  0  0  0  0  0  0  0  0  0  0  0
  153.2812  140.0425  159.0766 H   0  0  0  0  0  0  0  0  0  0  0  0
  150.9264  142.5281  157.4780 H   0  0  0  0  0  0  0  0  0  0  0  0
  150.9441  141.8906  155.1376 H   0  0  0  0  0  0  0  0  0  0  0  0
  149.7346  139.1943  153.4569 H   0  0  0  0  0  0  0  0  0  0  0  0
  150.5914  137.9426  154.3604 H   0  0  0  0  0  0  0  0  0  0  0  0
  148.1898  138.8204  155.2778 H   0  0  0  0  0  0  0  0  0  0  0  0
  149.5088  138.5725  156.4275 H   0  0  0  0  0  0  0  0  0  0  0  0
  148.7662  141.1371  154.9963 H   0  0  0  0  0  0  0  0  0  0  0  0
  149.0994  140.5730  157.9865 H   0  0  0  0  0  0  0  0  0  0  0  0
  147.6052  140.9226  157.1333 H   0  0  0  0  0  0  0  0  0  0  0  0
  148.8407  142.1672  157.2772 H   0  0  0  0  0  0  0  0  0  0  0  0
  1  2  1  0  0  0  0
  1 18  1  0  0  0  0
  1 19  1  0  0  0  0
  1 20  1  0  0  0  0
  2 16  1  0  0  0  0
  2  3  2  0  0  0  0
  3  4  1  0  0  0  0
  4  5  2  0  0  0  0
  4 21  1  0  0  0  0
  5  6  1  0  0  0  0
  5 22  1  0  0  0  0
  6  7  1  0  0  0  0
  6 16  2  0  0  0  0
  7  8  1  0  0  0  0
  7 23  1  0  0  0  0
  8  9  2  0  0  0  0
  8 10  1  0  0  0  0
 10 14  1  0  0  0  0
 10 11  1  0  0  0  0
 10 24  1  0  0  0  0
 11 12  1  0  0  0  0
 12 13  1  0  0  0  0
 12 25  1  0  0  0  0
 12 26  1  0  0  0  0
 13 14  1  0  0  0  0
 13 27  1  0  0  0  0
 13 28  1  0  0  0  0
 14 15  1  0  0  0  0
 14 29  1  0  0  0  0
 15 30  1  0  0  0  0
 15 31  1  0  0  0  0
 15 32  1  0  0  0  0
 16 17  1  0  0  0  0
M  END
> <s_m_source_file>
AV-unprocessed.smi

> <i_m_source_file_index>
2468

> <i_lp_mmshare_version>
43012

> <i_f3d_flags>
0

> <s_epik_input>
W0NIM11jMW5bY0hdW2NIXWMoYzFDbClbTkhdQyg9TylbQ0BASF0yT1tDSDJdW0NIMl1bQ0BIXTJbQ0gzXQ==

> <s_epik_cmdline>
J2VwaWtfcHl0aG9uJywgJy1waCcsICc3LjAnLCAnLXRuJywgJzgnLCAnLW1hJywgJzIwMCcsICctbWV0YWxfYmluZGluZycsICctaW1hZScsICc8aW5maWxlLm1hZT4nLCAnLW9tYWUnLCAnPG91dGZpbGUubWFlPic=

> <r_epik_Ionization_Penalty>
0.000361027

> <r_epik_Ionization_Penalty_Charging>
0

> <r_epik_Ionization_Penalty_Neutral>
0.000361027

> <r_epik_State_Penalty>
0.000217849

> <r_epik_Charging_Adjusted_Penalty>
0.000217849

> <i_epik_Tot_Q>
0

> <i_epik_Tot_abs_Q>
0

> <r_epik_Metal_State_Penalty>
-0

> <b_epik_Metal_Only>
0

> <s_lp_Force_Field>
OPLS_2005

> <r_lp_Energy>
25.7151

> <b_lp_Chiralities_Consistent>
1

> <s_lp_Variant>
AV-unprocessed.smi:2468-2

> <Gold.Version>
5.8.1

> <Gold.Id.Protein>
6NUR|6NUR_protein|mol2

> <Gold.PLP.Fitness>
38.3228

> <Gold.PLP.PLP>
-32.6758

> <Gold.PLP.part.hbond>
-2.0000

> <Gold.PLP.part.metal>
0.0000

> <Gold.PLP.part.buried>
-3.3007

> <Gold.PLP.part.nonpolar>
-26.9929

> <Gold.PLP.part.repulsive>
0.1642

> <Gold.PLP.ligand.clash>
0.0000

> <Gold.PLP.ligand.torsion>
0.1843

> <Gold.PLP.Chemscore.Hbond>
2.0000

> <Gold.PLP.Chemscore.CHOScore>
0.0000

> <Gold.PLP.Chemscore.Metal>
0.0000

> <Gold.Chemscore.Hbonds>
donor molecule, donor type, donor heavy atom, donor atom, acceptor molecule, acceptor atom, score
      P1  H  7989  7998       L1    11  0.90
      P1  H  7997  8008       L1     9  1.00

> <Gold.PLP.Chemscore.Internal.Correction>
0.0155

> <Gold.Rescore>
     Score         DG    S(hbond)    S(metal)    S(lipo)     H(rot)  DE(clash)    DE(int)     intcor
     17.56     -20.19       1.82        0.00      95.71       1.00       0.13       2.49       ----

> <Gold.Chemscore.Fitness>
17.5633

> <Gold.Chemscore.DG>
-20.1915

> <Gold.Chemscore.ZeroCoef>
-5.4800

> <Gold.Chemscore.Hbond>
1.8186

> <Gold.Chemscore.Metal>
0.0000

> <Gold.Chemscore.Lipo>
95.7053

> <Gold.Chemscore.Internal_Hbond>
0.0000

> <Gold.Chemscore.DEClash>
0.1337

> <Gold.Chemscore.DEInternal>
2.4945

> <Gold.Chemscore.Rot>
1.0000

> <Gold.Chemscore.Internal.Correction>
   9.000000E+99

> <Gold.Chemscore.Hbonds>
donor molecule, donor type, donor heavy atom, donor atom, acceptor molecule, acceptor atom, score
      P1  H  7989  7998       L1    11  0.16
      P1  H  7997  8008       L1     9  0.97

> <Gold.Chemscore.Hbond.Weighted>
-6.0740

> <Gold.Chemscore.Metal.Weighted>
-0.0000

> <Gold.Chemscore.Lipo.Weighted>
-11.1975

> <Gold.Chemscore.Internal_Hbond.Weighted>
0.0000

> <Gold.Chemscore.DEClash.Weighted>
0.1337

> <Gold.Chemscore.DEInternal.Weighted>
2.4945

> <Gold.Chemscore.Rot.Weighted>
2.5600

> <Gold.Chemscore.Internal.Correction.Weighted>
   9.000000E+99

> <Gold.Protein.RotatedTorsions>
[ 6907 6896 6895 6894 ] final   20.18 input  -60.11 | X-H torsion
[ 7974 7965 7964 7962 ] final  -85.63 input  175.53 | X-H torsion
[ 8008 7997 7996 7995 ] final  -54.26 input   59.86 | X-H torsion
[ 10167 10162 10161 10158 ] final  -48.79 input  -65.29 | X-H torsion
[ 10718 10713 10712 10709 ] final   44.56 input   66.30 | X-H torsion
[ 10763 10752 10751 10750 ] final   40.10 input  -60.55 | X-H torsion
[ 11005 11000 10999 10996 ] final  101.15 input  -57.11 | X-H torsion

> <Gold.Protein.ActiveResidues>
 VAL166  LYS551  ARG553  GLY616  TRP617  ASP618  TYR619  PRO620  LYS621  CYS622 
 ASP623  PHE694  ASN695  SER759  ASP760  ASP761  ALA762  ILE779  LEU786  VAL792 
 PHE793  MET794  SER795  GLU796  ALA797  LYS798  CYS799  TRP800  GLU811  SER814 

> <Gold.Protein.RotatedAtoms>
  151.8924  135.0411  160.0498 H   0  0  0  0  0  0  0  0  0  0  0  0  # atno 6907 bound_to 6896
  152.2425  133.5142  159.5286 H   0  0  0  0  0  0  0  0  0  0  0  0  # atno 6908 bound_to 6896
  150.7058  134.0986  159.4000 H   0  0  0  0  0  0  0  0  0  0  0  0  # atno 6909 bound_to 6896
  145.4906  140.9553  143.1814 H   0  0  0  0  0  0  0  0  0  0  0  0  # atno 7974 bound_to 7965
  154.4157  140.1180  156.5286 H   0  0  0  0  0  0  0  0  0  0  0  0  # atno 8008 bound_to 7997
  155.6628  140.3496  155.4770 H   0  0  0  0  0  0  0  0  0  0  0  0  # atno 8009 bound_to 7997
  155.9698  140.1139  157.0812 H   0  0  0  0  0  0  0  0  0  0  0  0  # atno 8010 bound_to 7997
  140.6715  143.2725  151.4121 H   0  0  0  0  0  0  0  0  0  0  0  0  # atno 10167 bound_to 10162
  157.4281  130.8008  149.7577 H   0  0  0  0  0  0  0  0  0  0  0  0  # atno 10718 bound_to 10713
  152.9947  135.6201  154.2571 H   0  0  0  0  0  0  0  0  0  0  0  0  # atno 10763 bound_to 10752
  154.2308  135.2792  155.2892 H   0  0  0  0  0  0  0  0  0  0  0  0  # atno 10764 bound_to 10752
  154.5451  135.5749  153.6931 H   0  0  0  0  0  0  0  0  0  0  0  0  # atno 10765 bound_to 10752
  139.8772  134.9171  156.4864 H   0  0  0  0  0  0  0  0  0  0  0  0  # atno 11005 bound_to 11000
  144.7836  139.6474  143.7144 LP  0  0  0  0  0  0  0  0  0  0  0  0  # atno 17320 bound_to 7965
  146.2286  139.5770  142.9570 LP  0  0  0  0  0  0  0  0  0  0  0  0  # atno 17321 bound_to 7965
  139.5986  144.1344  152.2172 LP  0  0  0  0  0  0  0  0  0  0  0  0  # atno 17342 bound_to 10162
  140.0721  144.5770  150.7184 LP  0  0  0  0  0  0  0  0  0  0  0  0  # atno 17343 bound_to 10162
  155.9903  130.3945  150.3033 LP  0  0  0  0  0  0  0  0  0  0  0  0  # atno 17370 bound_to 10713
  157.1187  131.0241  151.3018 LP  0  0  0  0  0  0  0  0  0  0  0  0  # atno 17371 bound_to 10713
  140.8690  133.8002  155.9344 LP  0  0  0  0  0  0  0  0  0  0  0  0  # atno 17394 bound_to 11000
  140.8972  134.2423  157.5062 LP  0  0  0  0  0  0  0  0  0  0  0  0  # atno 17395 bound_to 11000

$$$$
