AV-unprocessed.smi:304|AV-procd|sdf|2276|dock8
  -GOLD-   2262022173D 1   1.00000     0.00000
 Structure written by MMmdl.
 36 38  0  0  0  0  0  0  0  0  1 V2000
  149.8092  140.7459  153.3622 O   0  0  0  0  0  0  0  0  0  0  0  0
  148.9369  140.6737  154.4732 C   0  0  2  0  0  0  0  0  0  0  0  0
  147.4974  140.8683  153.9723 C   0  0  0  0  0  0  0  0  0  0  0  0
  146.8646  141.8612  154.7619 O   0  0  0  0  0  0  0  0  0  0  0  0
  146.0733  142.7519  153.9921 C   0  0  0  0  0  0  0  0  0  0  0  0
  145.2537  143.5674  154.9401 C   0  0  0  0  0  0  0  0  0  0  0  0
  144.3476  144.5452  154.6168 C   0  0  0  0  0  0  0  0  0  0  0  0
  143.7159  145.1272  155.7549 C   0  0  0  0  0  0  0  0  0  0  0  0
  144.1406  144.5795  156.9358 C   0  0  0  0  0  0  0  0  0  0  0  0
  145.3283  143.3328  156.6713 S   0  0  0  0  0  0  0  0  0  0  0  0
  149.3378  141.7507  155.5000 C   0  0  0  0  0  0  0  0  0  0  0  0
  150.4489  141.3369  156.3389 N   0  0  0  0  0  0  0  0  0  0  0  0
  151.2917  140.3104  156.1165 C   0  0  0  0  0  0  0  0  0  0  0  0
  152.2471  140.0999  157.0176 N   0  0  0  0  0  0  0  0  0  0  0  0
  151.9961  141.1090  157.9315 C   0  0  0  0  0  0  0  0  0  0  0  0
  152.6589  141.4420  159.1344 C   0  0  0  0  0  0  0  0  0  0  0  0
  152.2189  142.5311  159.9152 C   0  0  0  0  0  0  0  0  0  0  0  0
  152.8654  142.8363  161.0654 F   0  0  0  0  0  0  0  0  0  0  0  0
  151.1115  143.3030  159.5053 C   0  0  0  0  0  0  0  0  0  0  0  0
  150.6967  144.3478  160.2602 F   0  0  0  0  0  0  0  0  0  0  0  0
  150.4351  142.9899  158.3109 C   0  0  0  0  0  0  0  0  0  0  0  0
  150.8766  141.9017  157.5358 C   0  0  0  0  0  0  0  0  0  0  0  0
  149.4980  140.1475  152.7000 H   0  0  0  0  0  0  0  0  0  0  0  0
  149.0338  139.6903  154.9358 H   0  0  0  0  0  0  0  0  0  0  0  0
  147.5128  141.2150  152.9377 H   0  0  0  0  0  0  0  0  0  0  0  0
  146.9418  139.9289  153.9898 H   0  0  0  0  0  0  0  0  0  0  0  0
  146.7086  143.4006  153.3868 H   0  0  0  0  0  0  0  0  0  0  0  0
  145.4210  142.1955  153.3178 H   0  0  0  0  0  0  0  0  0  0  0  0
  144.1199  144.8623  153.6099 H   0  0  0  0  0  0  0  0  0  0  0  0
  142.9812  145.9142  155.6685 H   0  0  0  0  0  0  0  0  0  0  0  0
  143.8287  144.8286  157.9393 H   0  0  0  0  0  0  0  0  0  0  0  0
  149.6059  142.6799  154.9956 H   0  0  0  0  0  0  0  0  0  0  0  0
  148.4928  141.9836  156.1495 H   0  0  0  0  0  0  0  0  0  0  0  0
  151.1981  139.6822  155.2426 H   0  0  0  0  0  0  0  0  0  0  0  0
  153.5082  140.8588  159.4575 H   0  0  0  0  0  0  0  0  0  0  0  0
  149.5890  143.5809  157.9931 H   0  0  0  0  0  0  0  0  0  0  0  0
  1  2  1  0  0  0  0
  1 23  1  0  0  0  0
  2  3  1  0  0  0  0
  2 11  1  0  0  0  0
  2 24  1  0  0  0  0
  3  4  1  0  0  0  0
  3 25  1  0  0  0  0
  3 26  1  0  0  0  0
  4  5  1  0  0  0  0
  5  6  1  0  0  0  0
  5 27  1  0  0  0  0
  5 28  1  0  0  0  0
  6 10  1  0  0  0  0
  6  7  2  0  0  0  0
  7  8  1  0  0  0  0
  7 29  1  0  0  0  0
  8  9  2  0  0  0  0
  8 30  1  0  0  0  0
  9 10  1  0  0  0  0
  9 31  1  0  0  0  0
 11 12  1  0  0  0  0
 11 32  1  0  0  0  0
 11 33  1  0  0  0  0
 12 22  1  0  0  0  0
 12 13  1  0  0  0  0
 13 14  2  0  0  0  0
 13 34  1  0  0  0  0
 14 15  1  0  0  0  0
 15 22  2  0  0  0  0
 15 16  1  0  0  0  0
 16 17  2  0  0  0  0
 16 35  1  0  0  0  0
 17 18  1  0  0  0  0
 17 19  1  0  0  0  0
 19 20  1  0  0  0  0
 19 21  2  0  0  0  0
 21 22  1  0  0  0  0
 21 36  1  0  0  0  0
M  END
> <s_m_source_file>
AV-unprocessed.smi

> <i_m_source_file_index>
304

> <i_lp_mmshare_version>
43012

> <i_f3d_flags>
0

> <s_epik_input>
W2NIXTFjKEYpYyhGKVtjSF1jKGMxMiluKFtjSF1uMilbQ0gyXVtDQEhdKFtPSF0pW0NIMl1PW0NIMl1jM1tjSF1bY0hdW2NIXXMz

> <s_epik_cmdline>
J2VwaWtfcHl0aG9uJywgJy1waCcsICc3LjAnLCAnLXRuJywgJzgnLCAnLW1hJywgJzIwMCcsICctbWV0YWxfYmluZGluZycsICctaW1hZScsICc8aW5maWxlLm1hZT4nLCAnLW9tYWUnLCAnPG91dGZpbGUubWFlPic=

> <r_epik_Ionization_Penalty>
0.0152118

> <r_epik_Ionization_Penalty_Charging>
0

> <r_epik_Ionization_Penalty_Neutral>
0.0152118

> <r_epik_State_Penalty>
0.0119413

> <r_epik_Charging_Adjusted_Penalty>
0.0119413

> <i_epik_Tot_Q>
0

> <i_epik_Tot_abs_Q>
0

> <r_epik_Metal_State_Penalty>
1.20623e-05

> <b_epik_Metal_Only>
0

> <s_lp_Force_Field>
OPLS_2005

> <r_lp_Energy>
8.33782

> <b_lp_Chiralities_Consistent>
1

> <s_lp_Variant>
AV-unprocessed.smi:304-1

> <Gold.Version>
5.8.1

> <Gold.Id.Protein>
6NUR|6NUR_protein|mol2

> <Gold.PLP.Fitness>
52.2883

> <Gold.PLP.PLP>
-46.2368

> <Gold.PLP.part.hbond>
-2.7306

> <Gold.PLP.part.metal>
0.0000

> <Gold.PLP.part.buried>
-4.4494

> <Gold.PLP.part.nonpolar>
-38.3492

> <Gold.PLP.part.repulsive>
0.1280

> <Gold.PLP.ligand.clash>
0.0000

> <Gold.PLP.ligand.torsion>
1.4386

> <Gold.PLP.Chemscore.Hbond>
2.9543

> <Gold.PLP.Chemscore.CHOScore>
0.0000

> <Gold.PLP.Chemscore.Metal>
0.0000

> <Gold.Chemscore.Hbonds>
donor molecule, donor type, donor heavy atom, donor atom, acceptor molecule, acceptor atom, score
      L1  H     1    23       P1  7957  0.70
      P1  H  7989  7998       L1     1  0.32
      P1  H  7997  8008       L1    14  0.70
      P1  H  8011  8017       L1     1  0.95

> <Gold.PLP.Chemscore.Internal.Correction>
0.0658

> <Gold.Rescore>
     Score         DG    S(hbond)    S(metal)    S(lipo)     H(rot)  DE(clash)    DE(int)     intcor
     15.48     -17.04       2.07        0.00      97.47       2.64       0.03       1.53       ----

> <Gold.Chemscore.Fitness>
15.4782

> <Gold.Chemscore.DG>
-17.0400

> <Gold.Chemscore.ZeroCoef>
-5.4800

> <Gold.Chemscore.Hbond>
2.0703

> <Gold.Chemscore.Metal>
0.0000

> <Gold.Chemscore.Lipo>
97.4738

> <Gold.Chemscore.Internal_Hbond>
0.0000

> <Gold.Chemscore.DEClash>
0.0269

> <Gold.Chemscore.DEInternal>
1.5349

> <Gold.Chemscore.Rot>
2.6403

> <Gold.Chemscore.Internal.Correction>
   9.000000E+99

> <Gold.Chemscore.Hbonds>
donor molecule, donor type, donor heavy atom, donor atom, acceptor molecule, acceptor atom, score
      L1  H     1    23       P1  7957  0.67
      P1  H  7989  7998       L1     1  0.28
      P1  H  7997  8008       L1    14  0.44
      P1  H  8011  8017       L1     1  0.20

> <Gold.Chemscore.Hbond.Weighted>
-6.9148

> <Gold.Chemscore.Metal.Weighted>
-0.0000

> <Gold.Chemscore.Lipo.Weighted>
-11.4044

> <Gold.Chemscore.Internal_Hbond.Weighted>
0.0000

> <Gold.Chemscore.DEClash.Weighted>
0.0269

> <Gold.Chemscore.DEInternal.Weighted>
1.5349

> <Gold.Chemscore.Rot.Weighted>
6.7592

> <Gold.Chemscore.Internal.Correction.Weighted>
   9.000000E+99

> <Gold.Protein.RotatedTorsions>
[ 6907 6896 6895 6894 ] final  -15.27 input  -60.11 | X-H torsion
[ 7974 7965 7964 7962 ] final   31.42 input  175.53 | X-H torsion
[ 8008 7997 7996 7995 ] final  -57.77 input   59.86 | X-H torsion
[ 10167 10162 10161 10158 ] final   76.98 input  -65.29 | X-H torsion
[ 10718 10713 10712 10709 ] final   85.95 input   66.30 | X-H torsion
[ 10763 10752 10751 10750 ] final  165.88 input  -60.55 | X-H torsion
[ 11005 11000 10999 10996 ] final  108.02 input  -57.11 | X-H torsion

> <Gold.Protein.ActiveResidues>
 VAL166  LYS551  ARG553  GLY616  TRP617  ASP618  TYR619  PRO620  LYS621  CYS622 
 ASP623  PHE694  ASN695  SER759  ASP760  ASP761  ALA762  ILE779  LEU786  VAL792 
 PHE793  MET794  SER795  GLU796  ALA797  LYS798  CYS799  TRP800  GLU811  SER814 

> <Gold.Protein.RotatedAtoms>
  151.3265  135.0831  159.9323 H   0  0  0  0  0  0  0  0  0  0  0  0  # atno 6907 bound_to 6896
  152.5244  133.9586  159.7716 H   0  0  0  0  0  0  0  0  0  0  0  0  # atno 6908 bound_to 6896
  150.9916  133.6091  159.2737 H   0  0  0  0  0  0  0  0  0  0  0  0  # atno 6909 bound_to 6896
  146.1551  139.6659  142.9072 H   0  0  0  0  0  0  0  0  0  0  0  0  # atno 7974 bound_to 7965
  154.4281  140.1099  156.5850 H   0  0  0  0  0  0  0  0  0  0  0  0  # atno 8008 bound_to 7997
  155.6072  140.3494  155.4592 H   0  0  0  0  0  0  0  0  0  0  0  0  # atno 8009 bound_to 7997
  156.0127  140.1222  157.0426 H   0  0  0  0  0  0  0  0  0  0  0  0  # atno 8010 bound_to 7997
  139.9865  144.5788  150.7855 H   0  0  0  0  0  0  0  0  0  0  0  0  # atno 10167 bound_to 10162
  157.6922  131.0196  150.2899 H   0  0  0  0  0  0  0  0  0  0  0  0  # atno 10718 bound_to 10713
  154.3306  135.2755  155.2474 H   0  0  0  0  0  0  0  0  0  0  0  0  # atno 10763 bound_to 10752
  154.4787  135.5864  153.6377 H   0  0  0  0  0  0  0  0  0  0  0  0  # atno 10764 bound_to 10752
  152.9867  135.6106  154.3498 H   0  0  0  0  0  0  0  0  0  0  0  0  # atno 10765 bound_to 10752
  139.8837  134.9418  156.5908 H   0  0  0  0  0  0  0  0  0  0  0  0  # atno 11005 bound_to 11000
  145.4728  141.0436  143.2689 LP  0  0  0  0  0  0  0  0  0  0  0  0  # atno 17320 bound_to 7965
  144.7953  139.6246  143.7095 LP  0  0  0  0  0  0  0  0  0  0  0  0  # atno 17321 bound_to 7965
  140.7470  143.2900  151.3357 LP  0  0  0  0  0  0  0  0  0  0  0  0  # atno 17342 bound_to 10162
  139.6371  144.0609  152.2525 LP  0  0  0  0  0  0  0  0  0  0  0  0  # atno 17343 bound_to 10162
  156.3432  130.3819  149.7391 LP  0  0  0  0  0  0  0  0  0  0  0  0  # atno 17370 bound_to 10713
  156.4893  130.8077  151.3088 LP  0  0  0  0  0  0  0  0  0  0  0  0  # atno 17371 bound_to 10713
  140.7957  133.8546  155.8684 LP  0  0  0  0  0  0  0  0  0  0  0  0  # atno 17394 bound_to 11000
  140.9637  134.1621  157.4633 LP  0  0  0  0  0  0  0  0  0  0  0  0  # atno 17395 bound_to 11000

$$$$
