AV-unprocessed.smi:1733|AV-procd|sdf|6978|dock3
  -GOLD-   22720 8193D 1   1.00000     0.00000
 Structure written by MMmdl.
 52 54  0  0  0  0  0  0  0  0  1 V2000
  144.5796  136.6410  152.5599 O   0  0  0  0  0  0  0  0  0  0  0  0
  145.7817  136.4778  152.3522 C   0  0  0  0  0  0  0  0  0  0  0  0
  146.3287  135.4154  151.7353 N   0  0  0  0  0  0  0  0  0  0  0  0
  145.6877  134.2700  151.1872 C   0  0  0  0  0  0  0  0  0  0  0  0
  146.5092  133.2161  150.7352 C   0  0  0  0  0  0  0  0  0  0  0  0
  145.9037  132.0732  150.1761 C   0  0  0  0  0  0  0  0  0  0  0  0
  144.5686  131.9333  150.0395 N   0  0  0  0  0  0  0  0  0  0  0  0
  143.7840  132.9484  150.4592 C   0  0  0  0  0  0  0  0  0  0  0  0
  144.2868  134.1336  151.0329 C   0  0  0  0  0  0  0  0  0  0  0  0
  146.7265  137.3479  152.7385 N   0  0  0  0  0  0  0  0  0  0  0  0
  146.4972  138.6000  153.4559 C   0  0  0  0  0  0  0  0  0  0  0  0
  147.0987  139.7790  152.6614 C   0  0  0  0  0  0  0  0  0  0  0  0
  147.0583  141.0825  153.4801 C   0  0  0  0  0  0  0  0  0  0  0  0
  147.7612  140.8659  154.7564 N   0  0  0  0  0  0  0  0  0  0  0  0
  149.0022  141.3158  155.0706 C   0  0  0  0  0  0  0  0  0  0  0  0
  149.8195  141.6856  154.2262 O   0  0  0  0  0  0  0  0  0  0  0  0
  149.2955  141.2783  156.3819 N   0  0  0  0  0  0  0  0  0  0  0  0
  150.5624  141.6825  156.9837 C   0  0  0  0  0  0  0  0  0  0  0  0
  151.1900  140.4835  157.7193 C   0  0  0  0  0  0  0  0  0  0  0  0
  152.4959  140.8788  158.4278 C   0  0  0  0  0  0  0  0  0  0  0  0
  152.2722  142.0552  159.3906 C   0  0  0  0  0  0  0  0  0  0  0  0
  151.6506  143.2572  158.6620 C   0  0  0  0  0  0  0  0  0  0  0  0
  150.3459  142.8659  157.9491 C   0  0  0  0  0  0  0  0  0  0  0  0
  147.0632  139.8740  155.5836 C   0  0  0  0  0  0  0  0  0  0  0  0
  147.1006  138.5086  154.8736 C   0  0  0  0  0  0  0  0  0  0  0  0
  147.3374  135.3978  151.7027 H   0  0  0  0  0  0  0  0  0  0  0  0
  147.5845  133.2752  150.8185 H   0  0  0  0  0  0  0  0  0  0  0  0
  146.5094  131.2494  149.8280 H   0  0  0  0  0  0  0  0  0  0  0  0
  142.7200  132.8152  150.3288 H   0  0  0  0  0  0  0  0  0  0  0  0
  143.5937  134.9061  151.3277 H   0  0  0  0  0  0  0  0  0  0  0  0
  147.6875  137.1235  152.5257 H   0  0  0  0  0  0  0  0  0  0  0  0
  145.4276  138.7880  153.5654 H   0  0  0  0  0  0  0  0  0  0  0  0
  148.1335  139.5580  152.3944 H   0  0  0  0  0  0  0  0  0  0  0  0
  146.5586  139.9112  151.7232 H   0  0  0  0  0  0  0  0  0  0  0  0
  147.4628  141.9006  152.8843 H   0  0  0  0  0  0  0  0  0  0  0  0
  146.0231  141.3598  153.6848 H   0  0  0  0  0  0  0  0  0  0  0  0
  148.5806  140.9451  157.0120 H   0  0  0  0  0  0  0  0  0  0  0  0
  151.2529  141.9913  156.1962 H   0  0  0  0  0  0  0  0  0  0  0  0
  150.4862  140.0902  158.4545 H   0  0  0  0  0  0  0  0  0  0  0  0
  151.3858  139.6740  157.0150 H   0  0  0  0  0  0  0  0  0  0  0  0
  152.8976  140.0237  158.9721 H   0  0  0  0  0  0  0  0  0  0  0  0
  153.2466  141.1524  157.6852 H   0  0  0  0  0  0  0  0  0  0  0  0
  151.6174  141.7420  160.2050 H   0  0  0  0  0  0  0  0  0  0  0  0
  153.2180  142.3461  159.8483 H   0  0  0  0  0  0  0  0  0  0  0  0
  151.4590  144.0634  159.3708 H   0  0  0  0  0  0  0  0  0  0  0  0
  152.3604  143.6489  157.9323 H   0  0  0  0  0  0  0  0  0  0  0  0
  149.9541  143.7274  157.4070 H   0  0  0  0  0  0  0  0  0  0  0  0
  149.5934  142.6019  158.6938 H   0  0  0  0  0  0  0  0  0  0  0  0
  147.4891  139.7879  156.5844 H   0  0  0  0  0  0  0  0  0  0  0  0
  146.0296  140.1901  155.7314 H   0  0  0  0  0  0  0  0  0  0  0  0
  146.5602  137.7677  155.4637 H   0  0  0  0  0  0  0  0  0  0  0  0
  148.1345  138.1646  154.8166 H   0  0  0  0  0  0  0  0  0  0  0  0
  1  2  2  0  0  0  0
  2  3  1  0  0  0  0
  2 10  1  0  0  0  0
  3  4  1  0  0  0  0
  3 26  1  0  0  0  0
  4  9  1  0  0  0  0
  4  5  2  0  0  0  0
  5  6  1  0  0  0  0
  5 27  1  0  0  0  0
  6  7  2  0  0  0  0
  6 28  1  0  0  0  0
  7  8  1  0  0  0  0
  8  9  2  0  0  0  0
  8 29  1  0  0  0  0
  9 30  1  0  0  0  0
 10 11  1  0  0  0  0
 10 31  1  0  0  0  0
 11 25  1  0  0  0  0
 11 12  1  0  0  0  0
 11 32  1  0  0  0  0
 12 13  1  0  0  0  0
 12 33  1  0  0  0  0
 12 34  1  0  0  0  0
 13 14  1  0  0  0  0
 13 35  1  0  0  0  0
 13 36  1  0  0  0  0
 14 15  1  0  0  0  0
 14 24  1  0  0  0  0
 15 16  2  0  0  0  0
 15 17  1  0  0  0  0
 17 18  1  0  0  0  0
 17 37  1  0  0  0  0
 18 23  1  0  0  0  0
 18 19  1  0  0  0  0
 18 38  1  0  0  0  0
 19 20  1  0  0  0  0
 19 39  1  0  0  0  0
 19 40  1  0  0  0  0
 20 21  1  0  0  0  0
 20 41  1  0  0  0  0
 20 42  1  0  0  0  0
 21 22  1  0  0  0  0
 21 43  1  0  0  0  0
 21 44  1  0  0  0  0
 22 23  1  0  0  0  0
 22 45  1  0  0  0  0
 22 46  1  0  0  0  0
 23 47  1  0  0  0  0
 23 48  1  0  0  0  0
 24 25  1  0  0  0  0
 24 49  1  0  0  0  0
 24 50  1  0  0  0  0
 25 51  1  0  0  0  0
 25 52  1  0  0  0  0
M  END
> <s_m_source_file>
AV-unprocessed.smi

> <i_m_source_file_index>
1733

> <i_lp_mmshare_version>
43012

> <i_f3d_flags>
0

> <s_epik_input>
W2NIXTFbY0hdbltjSF1bY0hdYzFbTkhdQyg9TylbTkhdW0NIXTJbQ0gyXVtDSDJdTihbQ0gyXVtDSDJdMilDKD1PKVtOSF1bQ0hdM1tDSDJdW0NIMl1bQ0gyXVtDSDJdW0NIMl0z

> <s_epik_cmdline>
J2VwaWtfcHl0aG9uJywgJy1waCcsICc3LjAnLCAnLXRuJywgJzgnLCAnLW1hJywgJzIwMCcsICctbWV0YWxfYmluZGluZycsICctaW1hZScsICc8aW5maWxlLm1hZT4nLCAnLW9tYWUnLCAnPG91dGZpbGUubWFlPic=

> <r_epik_Ionization_Penalty>
0.116111

> <r_epik_Ionization_Penalty_Charging>
0

> <r_epik_Ionization_Penalty_Neutral>
0.116111

> <r_epik_State_Penalty>
0.105631

> <r_epik_Charging_Adjusted_Penalty>
0.105631

> <i_epik_Tot_Q>
0

> <i_epik_Tot_abs_Q>
0

> <r_epik_Metal_State_Penalty>
0.0881896

> <b_epik_Metal_Only>
0

> <s_lp_Force_Field>
OPLS_2005

> <r_lp_Energy>
42.5008

> <b_lp_Chiralities_Consistent>
1

> <s_lp_Variant>
AV-unprocessed.smi:1733-1

> <Gold.Version>
5.8.1

> <Gold.Id.Protein>
6NUR|6NUR_protein|mol2

> <Gold.PLP.Fitness>
53.6637

> <Gold.PLP.PLP>
-40.2623

> <Gold.PLP.part.hbond>
-4.0776

> <Gold.PLP.part.metal>
0.0000

> <Gold.PLP.part.buried>
-1.6573

> <Gold.PLP.part.nonpolar>
-34.3188

> <Gold.PLP.part.repulsive>
0.6608

> <Gold.PLP.ligand.clash>
0.0000

> <Gold.PLP.ligand.torsion>
0.2836

> <Gold.PLP.Chemscore.Hbond>
2.6785

> <Gold.PLP.Chemscore.CHOScore>
1.9614

> <Gold.PLP.Chemscore.Metal>
0.0000

> <Gold.Chemscore.Hbonds>
donor molecule, donor type, donor heavy atom, donor atom, acceptor molecule, acceptor atom, score
      L1  H     3    26       P1  7948  1.00
      L1  H    10    31       P1  7948  1.00
      P1  H  7989  7998       L1    16  0.17
      P1  H  8011  8017       L1    16  0.50
      L1  C     6    28       P1 10747  0.96
      L1  C     8    29       P1 10186  1.00

> <Gold.PLP.Chemscore.Internal.Correction>
0.0488

> <Gold.Rescore>
     Score         DG    S(hbond)    S(metal)    S(lipo)     H(rot)  DE(clash)    DE(int)     intcor
     21.83     -24.07       2.77        0.00     106.83       1.23       0.78       1.46       ----

> <Gold.Chemscore.Fitness>
21.8297

> <Gold.Chemscore.DG>
-24.0725

> <Gold.Chemscore.ZeroCoef>
-5.4800

> <Gold.Chemscore.Hbond>
2.7670

> <Gold.Chemscore.Metal>
0.0000

> <Gold.Chemscore.Lipo>
106.8286

> <Gold.Chemscore.Internal_Hbond>
0.0000

> <Gold.Chemscore.DEClash>
0.7780

> <Gold.Chemscore.DEInternal>
1.4648

> <Gold.Chemscore.Rot>
1.2298

> <Gold.Chemscore.Internal.Correction>
   9.000000E+99

> <Gold.Chemscore.Hbonds>
donor molecule, donor type, donor heavy atom, donor atom, acceptor molecule, acceptor atom, score
      L1  H     3    26       P1  7948  0.94
      L1  H    10    31       P1  7948  0.98
      P1  H  7989  7998       L1    16  0.17
      P1  H  8011  8017       L1    16  0.45

> <Gold.Chemscore.Hbond.Weighted>
-9.2419

> <Gold.Chemscore.Metal.Weighted>
-0.0000

> <Gold.Chemscore.Lipo.Weighted>
-12.4989

> <Gold.Chemscore.Internal_Hbond.Weighted>
0.0000

> <Gold.Chemscore.DEClash.Weighted>
0.7780

> <Gold.Chemscore.DEInternal.Weighted>
1.4648

> <Gold.Chemscore.Rot.Weighted>
3.1483

> <Gold.Chemscore.Internal.Correction.Weighted>
   9.000000E+99

> <Gold.Protein.RotatedTorsions>
[ 6907 6896 6895 6894 ] final    9.89 input  -60.11 | X-H torsion
[ 7974 7965 7964 7962 ] final  -54.64 input  175.53 | X-H torsion
[ 8008 7997 7996 7995 ] final  -35.29 input   59.86 | X-H torsion
[ 10167 10162 10161 10158 ] final  -14.50 input  -65.29 | X-H torsion
[ 10718 10713 10712 10709 ] final  127.20 input   66.30 | X-H torsion
[ 10763 10752 10751 10750 ] final  -13.24 input  -60.55 | X-H torsion
[ 11005 11000 10999 10996 ] final  -84.83 input  -57.11 | X-H torsion

> <Gold.Protein.ActiveResidues>
 VAL166  LYS551  ARG553  GLY616  TRP617  ASP618  TYR619  PRO620  LYS621  CYS622 
 ASP623  PHE694  ASN695  SER759  ASP760  ASP761  ALA762  ILE779  LEU786  VAL792 
 PHE793  MET794  SER795  GLU796  ALA797  LYS798  CYS799  TRP800  GLU811  SER814 

> <Gold.Protein.RotatedAtoms>
  151.7294  135.0878  160.0297 H   0  0  0  0  0  0  0  0  0  0  0  0  # atno 6907 bound_to 6896
  152.3551  133.6223  159.5982 H   0  0  0  0  0  0  0  0  0  0  0  0  # atno 6908 bound_to 6896
  150.7566  133.9429  159.3503 H   0  0  0  0  0  0  0  0  0  0  0  0  # atno 6909 bound_to 6896
  145.8832  140.8128  142.9829 H   0  0  0  0  0  0  0  0  0  0  0  0  # atno 7974 bound_to 7965
  154.4099  140.1661  156.2188 H   0  0  0  0  0  0  0  0  0  0  0  0  # atno 8008 bound_to 7997
  155.9382  140.3410  155.6282 H   0  0  0  0  0  0  0  0  0  0  0  0  # atno 8009 bound_to 7997
  155.7023  140.0746  157.2396 H   0  0  0  0  0  0  0  0  0  0  0  0  # atno 8010 bound_to 7997
  140.7202  143.5315  150.9515 H   0  0  0  0  0  0  0  0  0  0  0  0  # atno 10167 bound_to 10162
  157.5353  131.1098  150.8945 H   0  0  0  0  0  0  0  0  0  0  0  0  # atno 10718 bound_to 10713
  153.5104  135.7016  153.5784 H   0  0  0  0  0  0  0  0  0  0  0  0  # atno 10763 bound_to 10752
  153.3877  135.3904  155.1901 H   0  0  0  0  0  0  0  0  0  0  0  0  # atno 10764 bound_to 10752
  154.8703  135.3850  154.4583 H   0  0  0  0  0  0  0  0  0  0  0  0  # atno 10765 bound_to 10752
  141.1647  133.7367  156.8925 H   0  0  0  0  0  0  0  0  0  0  0  0  # atno 11005 bound_to 11000
  144.6728  140.1416  143.7436 LP  0  0  0  0  0  0  0  0  0  0  0  0  # atno 17320 bound_to 7965
  145.8998  139.2424  143.1500 LP  0  0  0  0  0  0  0  0  0  0  0  0  # atno 17321 bound_to 7965
  139.9035  143.6807  152.3127 LP  0  0  0  0  0  0  0  0  0  0  0  0  # atno 17342 bound_to 10162
  139.7165  144.7611  151.1026 LP  0  0  0  0  0  0  0  0  0  0  0  0  # atno 17343 bound_to 10162
  156.9514  130.5421  149.5282 LP  0  0  0  0  0  0  0  0  0  0  0  0  # atno 17370 bound_to 10713
  156.0454  130.5531  150.8868 LP  0  0  0  0  0  0  0  0  0  0  0  0  # atno 17371 bound_to 10713
  140.1638  134.9147  157.2748 LP  0  0  0  0  0  0  0  0  0  0  0  0  # atno 17394 bound_to 11000
  140.2580  134.3605  155.7417 LP  0  0  0  0  0  0  0  0  0  0  0  0  # atno 17395 bound_to 11000

$$$$
