AV-unprocessed.smi:110|AV-procd|sdf|1073|dock7
  -GOLD-   2262018163D 1   1.00000     0.00000
 Structure written by MMmdl.
 46 50  0  0  0  0  0  0  0  0  1 V2000
  144.6461  143.5845  154.0034 O   0  0  0  0  0  0  0  0  0  0  0  0
  144.9333  142.5798  154.9527 C   0  0  0  0  0  0  0  0  0  0  0  0
  146.4522  142.3465  155.0320 C   0  0  1  0  0  0  0  0  0  0  0  0
  146.7745  141.3768  156.0283 O   0  0  0  0  0  0  0  0  0  0  0  0
  147.9470  140.6958  155.6911 C   0  0  2  0  0  0  0  0  0  0  0  0
  148.9896  140.9269  156.7446 N   0  0  0  0  0  0  0  0  0  0  0  0
  148.8359  141.6316  157.9166 C   0  0  0  0  0  0  0  0  0  0  0  0
  149.8933  141.6898  158.6784 N   0  0  0  0  0  0  0  0  0  0  0  0
  150.8616  140.9829  157.9758 C   0  0  0  0  0  0  0  0  0  0  0  0
  152.2263  140.6512  158.2164 C   0  0  0  0  0  0  0  0  0  0  0  0
  152.9267  141.0205  159.3143 N   0  0  0  0  0  0  0  0  0  0  0  0
  153.9288  140.1027  159.8748 C   0  0  0  0  0  0  0  0  0  0  0  0
  154.2240  140.5609  161.3155 C   0  0  0  0  0  0  0  0  0  0  0  0
  153.4163  141.8165  161.3869 C   0  0  0  0  0  0  0  0  0  0  0  0
  153.3502  142.7266  162.4560 C   0  0  0  0  0  0  0  0  0  0  0  0
  152.5389  143.8717  162.3052 C   0  0  0  0  0  0  0  0  0  0  0  0
  151.8267  144.0897  161.1028 C   0  0  0  0  0  0  0  0  0  0  0  0
  151.9105  143.1624  160.0407 C   0  0  0  0  0  0  0  0  0  0  0  0
  152.7044  142.0087  160.2068 C   0  0  0  0  0  0  0  0  0  0  0  0
  152.8529  139.8663  157.3036 N   0  0  0  0  0  0  0  0  0  0  0  0
  152.2062  139.4663  156.2061 C   0  0  0  0  0  0  0  0  0  0  0  0
  150.9491  139.7208  155.8411 N   0  0  0  0  0  0  0  0  0  0  0  0
  150.2990  140.4847  156.7654 C   0  0  0  0  0  0  0  0  0  0  0  0
  148.3818  141.1615  154.2868 C   0  0  2  0  0  0  0  0  0  0  0  0
  149.4405  142.1032  154.2953 O   0  0  0  0  0  0  0  0  0  0  0  0
  147.1054  141.7957  153.7571 C   0  0  1  0  0  0  0  0  0  0  0  0
  146.2840  140.8204  153.1399 O   0  0  0  0  0  0  0  0  0  0  0  0
  146.9538  143.2834  155.2776 H   0  0  0  0  0  0  0  0  0  0  0  0
  147.7497  139.6241  155.7345 H   0  0  0  0  0  0  0  0  0  0  0  0
  148.6999  140.3016  153.6959 H   0  0  0  0  0  0  0  0  0  0  0  0
  147.3008  142.5817  153.0261 H   0  0  0  0  0  0  0  0  0  0  0  0
  144.0133  143.2459  153.3889 H   0  0  0  0  0  0  0  0  0  0  0  0
  144.5193  142.8493  155.9247 H   0  0  0  0  0  0  0  0  0  0  0  0
  144.4302  141.6696  154.6249 H   0  0  0  0  0  0  0  0  0  0  0  0
  147.9042  142.1027  158.1946 H   0  0  0  0  0  0  0  0  0  0  0  0
  153.5668  139.0738  159.8579 H   0  0  0  0  0  0  0  0  0  0  0  0
  154.8340  140.1481  159.2681 H   0  0  0  0  0  0  0  0  0  0  0  0
  153.8715  139.8404  162.0539 H   0  0  0  0  0  0  0  0  0  0  0  0
  155.2836  140.7600  161.4783 H   0  0  0  0  0  0  0  0  0  0  0  0
  153.9084  142.5576  163.3651 H   0  0  0  0  0  0  0  0  0  0  0  0
  152.4688  144.5899  163.1087 H   0  0  0  0  0  0  0  0  0  0  0  0
  151.2176  144.9746  160.9933 H   0  0  0  0  0  0  0  0  0  0  0  0
  151.3774  143.3451  159.1196 H   0  0  0  0  0  0  0  0  0  0  0  0
  152.7763  138.8540  155.5232 H   0  0  0  0  0  0  0  0  0  0  0  0
  149.2235  142.7922  154.9049 H   0  0  0  0  0  0  0  0  0  0  0  0
  145.3913  141.1304  153.1489 H   0  0  0  0  0  0  0  0  0  0  0  0
  1  2  1  0  0  0  0
  1 32  1  0  0  0  0
  2  3  1  0  0  0  0
  2 33  1  0  0  0  0
  2 34  1  0  0  0  0
  3 28  1  0  0  0  0
  3 26  1  0  0  0  0
  3  4  1  0  0  0  0
  4  5  1  0  0  0  0
  5 29  1  0  0  0  0
  5  6  1  0  0  0  0
  5 24  1  0  0  0  0
  6 23  1  0  0  0  0
  6  7  1  0  0  0  0
  7  8  2  0  0  0  0
  7 35  1  0  0  0  0
  8  9  1  0  0  0  0
  9 23  2  0  0  0  0
  9 10  1  0  0  0  0
 10 11  1  0  0  0  0
 10 20  2  0  0  0  0
 11 19  1  0  0  0  0
 11 12  1  0  0  0  0
 12 13  1  0  0  0  0
 12 36  1  0  0  0  0
 12 37  1  0  0  0  0
 13 14  1  0  0  0  0
 13 38  1  0  0  0  0
 13 39  1  0  0  0  0
 14 19  2  0  0  0  0
 14 15  1  0  0  0  0
 15 16  2  0  0  0  0
 15 40  1  0  0  0  0
 16 17  1  0  0  0  0
 16 41  1  0  0  0  0
 17 18  2  0  0  0  0
 17 42  1  0  0  0  0
 18 19  1  0  0  0  0
 18 43  1  0  0  0  0
 20 21  1  0  0  0  0
 21 22  2  0  0  0  0
 21 44  1  0  0  0  0
 22 23  1  0  0  0  0
 24 30  1  0  0  0  0
 24 25  1  0  0  0  0
 24 26  1  0  0  0  0
 25 45  1  0  0  0  0
 26 31  1  0  0  0  0
 26 27  1  0  0  0  0
 27 46  1  0  0  0  0
M  END
> <s_m_source_file>
AV-unprocessed.smi

> <i_m_source_file_index>
110

> <i_lp_mmshare_version>
43012

> <i_f3d_flags>
0

> <s_epik_input>
W09IXVtDSDJdW0NASF0xT1tDQEhdKFtDQEhdKFtPSF0pW0NAQEhdMVtPSF0pbihbY0hdbjIpYyhjMjMpbltjSF1uYzNOKFtDSDJdW0NIMl00KWMoYzQ1KVtjSF1bY0hdW2NIXVtjSF01

> <s_epik_cmdline>
J2VwaWtfcHl0aG9uJywgJy1waCcsICc3LjAnLCAnLXRuJywgJzgnLCAnLW1hJywgJzIwMCcsICctbWV0YWxfYmluZGluZycsICctaW1hZScsICc8aW5maWxlLm1hZT4nLCAnLW9tYWUnLCAnPG91dGZpbGUubWFlPic=

> <r_lp_tautomer_probability>
1

> <r_epik_Ionization_Penalty>
0.00068475

> <r_epik_Ionization_Penalty_Charging>
0

> <r_epik_Ionization_Penalty_Neutral>
0.00068475

> <r_epik_State_Penalty>
0.000417442

> <r_epik_Charging_Adjusted_Penalty>
0.000417442

> <i_epik_Tot_Q>
0

> <i_epik_Tot_abs_Q>
0

> <r_epik_Metal_State_Penalty>
-0

> <b_epik_Metal_Only>
0

> <s_epik_Chemistry_Notes>
This compound contains an acetal/aminal-like group ( X-CH(R)-Y where X, Y are N, S, or O) that may be acid/base labile, releasing an aldehyde.

> <s_lp_Force_Field>
OPLS_2005

> <r_lp_Energy>
62.4803

> <b_lp_Chiralities_Consistent>
1

> <s_lp_Variant>
AV-unprocessed.smi:110-11

> <Gold.Version>
5.8.1

> <Gold.Id.Protein>
6NUR|6NUR_protein|mol2

> <Gold.PLP.Fitness>
65.0925

> <Gold.PLP.PLP>
-53.9137

> <Gold.PLP.part.hbond>
-6.5844

> <Gold.PLP.part.metal>
0.0000

> <Gold.PLP.part.buried>
-4.5205

> <Gold.PLP.part.nonpolar>
-42.8705

> <Gold.PLP.part.repulsive>
0.1048

> <Gold.PLP.ligand.clash>
0.0000

> <Gold.PLP.ligand.torsion>
0.3513

> <Gold.PLP.Chemscore.Hbond>
3.9394

> <Gold.PLP.Chemscore.CHOScore>
0.0000

> <Gold.PLP.Chemscore.Metal>
0.0000

> <Gold.Chemscore.Hbonds>
donor molecule, donor type, donor heavy atom, donor atom, acceptor molecule, acceptor atom, score
      L1  H     1    32       P1 10174  0.85
      L1  H    25    45       P1  8028  0.86
      L1  H    27    46       P1 10175  0.74
      P1  H  7997  8009       L1    20  1.00
      P1  H  8011  8017       L1    25  0.30

> <Gold.PLP.Chemscore.Internal.Correction>
0.0633

> <Gold.Rescore>
     Score         DG    S(hbond)    S(metal)    S(lipo)     H(rot)  DE(clash)    DE(int)     intcor
     16.26     -18.04       2.49        0.00     110.20       3.38       0.09       1.69       ----

> <Gold.Chemscore.Fitness>
16.2577

> <Gold.Chemscore.DG>
-18.0406

> <Gold.Chemscore.ZeroCoef>
-5.4800

> <Gold.Chemscore.Hbond>
2.4940

> <Gold.Chemscore.Metal>
0.0000

> <Gold.Chemscore.Lipo>
110.1950

> <Gold.Chemscore.Internal_Hbond>
0.0000

> <Gold.Chemscore.DEClash>
0.0920

> <Gold.Chemscore.DEInternal>
1.6909

> <Gold.Chemscore.Rot>
3.3837

> <Gold.Chemscore.Internal.Correction>
   9.000000E+99

> <Gold.Chemscore.Hbonds>
donor molecule, donor type, donor heavy atom, donor atom, acceptor molecule, acceptor atom, score
      L1  H     1    32       P1 10174  0.14
      L1  H    25    45       P1  8028  0.83
      L1  H    27    46       P1 10175  0.19
      P1  H  7997  8009       L1    20  0.62
      P1  H  8011  8017       L1    25  0.13

> <Gold.Chemscore.Hbond.Weighted>
-8.3299

> <Gold.Chemscore.Metal.Weighted>
-0.0000

> <Gold.Chemscore.Lipo.Weighted>
-12.8928

> <Gold.Chemscore.Internal_Hbond.Weighted>
0.0000

> <Gold.Chemscore.DEClash.Weighted>
0.0920

> <Gold.Chemscore.DEInternal.Weighted>
1.6909

> <Gold.Chemscore.Rot.Weighted>
8.6622

> <Gold.Chemscore.Internal.Correction.Weighted>
   9.000000E+99

> <Gold.Protein.RotatedTorsions>
[ 6907 6896 6895 6894 ] final  100.01 input  -60.11 | X-H torsion
[ 7974 7965 7964 7962 ] final  116.83 input  175.53 | X-H torsion
[ 8008 7997 7996 7995 ] final  161.22 input   59.86 | X-H torsion
[ 10167 10162 10161 10158 ] final   24.61 input  -65.29 | X-H torsion
[ 10718 10713 10712 10709 ] final  142.81 input   66.30 | X-H torsion
[ 10763 10752 10751 10750 ] final -160.18 input  -60.55 | X-H torsion
[ 11005 11000 10999 10996 ] final   57.36 input  -57.11 | X-H torsion

> <Gold.Protein.ActiveResidues>
 VAL166  LYS551  ARG553  GLY616  TRP617  ASP618  TYR619  PRO620  LYS621  CYS622 
 ASP623  PHE694  ASN695  SER759  ASP760  ASP761  ALA762  ILE779  LEU786  VAL792 
 PHE793  MET794  SER795  GLU796  ALA797  LYS798  CYS799  TRP800  GLU811  SER814 

> <Gold.Protein.RotatedAtoms>
  152.5381  134.0341  159.8037 H   0  0  0  0  0  0  0  0  0  0  0  0  # atno 6907 bound_to 6896
  151.0508  133.5618  159.2650 H   0  0  0  0  0  0  0  0  0  0  0  0  # atno 6908 bound_to 6896
  151.2554  135.0644  159.9131 H   0  0  0  0  0  0  0  0  0  0  0  0  # atno 6909 bound_to 6896
  145.1748  139.3082  143.4449 H   0  0  0  0  0  0  0  0  0  0  0  0  # atno 7974 bound_to 7965
  156.2118  140.1783  156.7677 H   0  0  0  0  0  0  0  0  0  0  0  0  # atno 8008 bound_to 7997
  154.5734  140.0678  156.9027 H   0  0  0  0  0  0  0  0  0  0  0  0  # atno 8009 bound_to 7997
  155.2632  140.3337  155.4274 H   0  0  0  0  0  0  0  0  0  0  0  0  # atno 8010 bound_to 7997
  140.5174  144.0060  150.6400 H   0  0  0  0  0  0  0  0  0  0  0  0  # atno 10167 bound_to 10162
  157.3763  131.0986  151.0781 H   0  0  0  0  0  0  0  0  0  0  0  0  # atno 10718 bound_to 10713
  154.7412  135.3069  154.8725 H   0  0  0  0  0  0  0  0  0  0  0  0  # atno 10763 bound_to 10752
  153.9539  135.6761  153.4748 H   0  0  0  0  0  0  0  0  0  0  0  0  # atno 10764 bound_to 10752
  153.1011  135.4912  154.8792 H   0  0  0  0  0  0  0  0  0  0  0  0  # atno 10765 bound_to 10752
  140.0458  134.5807  155.9324 H   0  0  0  0  0  0  0  0  0  0  0  0  # atno 11005 bound_to 11000
  146.3463  140.1906  142.8589 LP  0  0  0  0  0  0  0  0  0  0  0  0  # atno 17320 bound_to 7965
  145.0196  140.8782  143.5175 LP  0  0  0  0  0  0  0  0  0  0  0  0  # atno 17321 bound_to 7965
  140.3399  143.3026  152.0599 LP  0  0  0  0  0  0  0  0  0  0  0  0  # atno 17342 bound_to 10162
  139.4913  144.6450  151.6798 LP  0  0  0  0  0  0  0  0  0  0  0  0  # atno 17343 bound_to 10162
  157.1867  130.6333  149.5690 LP  0  0  0  0  0  0  0  0  0  0  0  0  # atno 17370 bound_to 10713
  155.9766  130.4735  150.6538 LP  0  0  0  0  0  0  0  0  0  0  0  0  # atno 17371 bound_to 10713
  141.1906  133.6569  156.5420 LP  0  0  0  0  0  0  0  0  0  0  0  0  # atno 17394 bound_to 11000
  140.3995  134.7369  157.4771 LP  0  0  0  0  0  0  0  0  0  0  0  0  # atno 17395 bound_to 11000

$$$$
