AV-unprocessed.smi:159|AV-procd|sdf|1341|dock3
  -GOLD-   2262019 33D 1   1.00000     0.00000
 Structure written by MMmdl.
 28 29  0  0  0  0  0  0  0  0  1 V2000
  150.1511  139.3114  153.9145 N   0  0  0  0  0  0  0  0  0  0  0  0
  150.4225  139.8998  155.0876 C   0  0  0  0  0  0  0  0  0  0  0  0
  150.0846  141.2882  155.3018 C   0  0  0  0  0  0  0  0  0  0  0  0
  150.3893  141.8124  156.5092 C   0  0  0  0  0  0  0  0  0  0  0  0
  151.0086  141.0670  157.5061 N   0  0  0  0  0  0  0  0  0  0  0  0
  151.3346  141.6432  158.8715 C   0  0  1  0  0  0  0  0  0  0  0  0
  152.8492  141.5812  159.1481 C   0  0  0  0  0  0  0  0  0  0  0  0
  153.1785  143.0165  159.5094 C   0  0  0  0  0  0  0  0  0  0  0  0
  152.1388  143.7935  158.7098 C   0  0  2  0  0  0  0  0  0  0  0  0
  151.9048  145.2211  159.2214 C   0  0  0  0  0  0  0  0  0  0  0  0
  151.5801  145.1894  160.5945 O   0  0  0  0  0  0  0  0  0  0  0  0
  150.9795  142.9951  158.9172 O   0  0  0  0  0  0  0  0  0  0  0  0
  151.3121  139.7043  157.2687 C   0  0  0  0  0  0  0  0  0  0  0  0
  151.8380  139.0001  158.1301 O   0  0  0  0  0  0  0  0  0  0  0  0
  150.9977  139.1909  156.0392 N   0  0  0  0  0  0  0  0  0  0  0  0
  150.7242  141.0812  159.5811 H   0  0  0  0  0  0  0  0  0  0  0  0
  152.4220  143.7947  157.6552 H   0  0  0  0  0  0  0  0  0  0  0  0
  150.3861  138.3404  153.7685 H   0  0  0  0  0  0  0  0  0  0  0  0
  149.7132  139.8434  153.1763 H   0  0  0  0  0  0  0  0  0  0  0  0
  149.6090  141.9064  154.5536 H   0  0  0  0  0  0  0  0  0  0  0  0
  150.1293  142.8476  156.6702 H   0  0  0  0  0  0  0  0  0  0  0  0
  153.0732  140.8756  159.9486 H   0  0  0  0  0  0  0  0  0  0  0  0
  153.3892  141.2819  158.2485 H   0  0  0  0  0  0  0  0  0  0  0  0
  153.0317  143.1743  160.5790 H   0  0  0  0  0  0  0  0  0  0  0  0
  154.2032  143.2929  159.2600 H   0  0  0  0  0  0  0  0  0  0  0  0
  152.7766  145.8534  159.0503 H   0  0  0  0  0  0  0  0  0  0  0  0
  151.0644  145.6749  158.6953 H   0  0  0  0  0  0  0  0  0  0  0  0
  150.7156  144.8203  160.6905 H   0  0  0  0  0  0  0  0  0  0  0  0
  1  2  1  0  0  0  0
  1 18  1  0  0  0  0
  1 19  1  0  0  0  0
  2 15  2  0  0  0  0
  2  3  1  0  0  0  0
  3  4  2  0  0  0  0
  3 20  1  0  0  0  0
  4  5  1  0  0  0  0
  4 21  1  0  0  0  0
  5  6  1  0  0  0  0
  5 13  1  0  0  0  0
  6 16  1  0  0  0  0
  6 12  1  0  0  0  0
  6  7  1  0  0  0  0
  7  8  1  0  0  0  0
  7 22  1  0  0  0  0
  7 23  1  0  0  0  0
  8  9  1  0  0  0  0
  8 24  1  0  0  0  0
  8 25  1  0  0  0  0
  9 17  1  0  0  0  0
  9 10  1  0  0  0  0
  9 12  1  0  0  0  0
 10 11  1  0  0  0  0
 10 26  1  0  0  0  0
 10 27  1  0  0  0  0
 11 28  1  0  0  0  0
 13 14  2  0  0  0  0
 13 15  1  0  0  0  0
M  END
> <s_m_source_file>
AV-unprocessed.smi

> <i_m_source_file_index>
159

> <i_lp_mmshare_version>
43012

> <i_f3d_flags>
0

> <s_epik_input>
W05IMl1jMVtjSF1bY0hdbihjKD1PKW4xKVtDQEhdMltDSDJdW0NIMl1bQ0BIXShPMilbQ0gyXVtPSF0=

> <s_epik_cmdline>
J2VwaWtfcHl0aG9uJywgJy1waCcsICc3LjAnLCAnLXRuJywgJzgnLCAnLW1hJywgJzIwMCcsICctbWV0YWxfYmluZGluZycsICctaW1hZScsICc8aW5maWxlLm1hZT4nLCAnLW9tYWUnLCAnPG91dGZpbGUubWFlPic=

> <r_lp_tautomer_probability>
0.99996

> <r_epik_Ionization_Penalty>
0.00126102

> <r_epik_Ionization_Penalty_Charging>
4.46248e-08

> <r_epik_Ionization_Penalty_Neutral>
0.00126097

> <r_epik_State_Penalty>
1.15523e-05

> <r_epik_Charging_Adjusted_Penalty>
1.1597e-05

> <i_epik_Tot_Q>
0

> <i_epik_Tot_abs_Q>
0

> <r_epik_Metal_State_Penalty>
-0

> <b_epik_Metal_Only>
0

> <s_epik_Chemistry_Notes>
This compound contains an acetal/aminal-like group ( X-CH(R)-Y where X, Y are N, S, or O) that may be acid/base labile, releasing an aldehyde.

> <s_lp_Force_Field>
OPLS_2005

> <r_lp_Energy>
23.8036

> <b_lp_Chiralities_Consistent>
1

> <s_lp_Variant>
AV-unprocessed.smi:159-3

> <Gold.Version>
5.8.1

> <Gold.Id.Protein>
6NUR|6NUR_protein|mol2

> <Gold.PLP.Fitness>
37.1477

> <Gold.PLP.PLP>
-31.5602

> <Gold.PLP.part.hbond>
-1.5435

> <Gold.PLP.part.metal>
0.0000

> <Gold.PLP.part.buried>
-3.9537

> <Gold.PLP.part.nonpolar>
-26.1201

> <Gold.PLP.part.repulsive>
0.4024

> <Gold.PLP.ligand.clash>
0.0000

> <Gold.PLP.ligand.torsion>
0.0143

> <Gold.PLP.Chemscore.Hbond>
0.8640

> <Gold.PLP.Chemscore.CHOScore>
1.0000

> <Gold.PLP.Chemscore.Metal>
0.0000

> <Gold.Chemscore.Hbonds>
donor molecule, donor type, donor heavy atom, donor atom, acceptor molecule, acceptor atom, score
      L1  H     1    19       P1  7957  0.85
      L1  C     4    21       P1  8028  1.00

> <Gold.PLP.Chemscore.Internal.Correction>
0.0241

> <Gold.Rescore>
     Score         DG    S(hbond)    S(metal)    S(lipo)     H(rot)  DE(clash)    DE(int)     intcor
      9.52     -10.74       0.96        0.00      63.44       2.09       0.05       1.16       ----

> <Gold.Chemscore.Fitness>
9.5236

> <Gold.Chemscore.DG>
-10.7361

> <Gold.Chemscore.ZeroCoef>
-5.4800

> <Gold.Chemscore.Hbond>
0.9560

> <Gold.Chemscore.Metal>
0.0000

> <Gold.Chemscore.Lipo>
63.4402

> <Gold.Chemscore.Internal_Hbond>
0.0000

> <Gold.Chemscore.DEClash>
0.0504

> <Gold.Chemscore.DEInternal>
1.1621

> <Gold.Chemscore.Rot>
2.0935

> <Gold.Chemscore.Internal.Correction>
   9.000000E+99

> <Gold.Chemscore.Hbonds>
donor molecule, donor type, donor heavy atom, donor atom, acceptor molecule, acceptor atom, score
      L1  H     1    19       P1  7957  0.79

> <Gold.Chemscore.Hbond.Weighted>
-3.1929

> <Gold.Chemscore.Metal.Weighted>
-0.0000

> <Gold.Chemscore.Lipo.Weighted>
-7.4225

> <Gold.Chemscore.Internal_Hbond.Weighted>
0.0000

> <Gold.Chemscore.DEClash.Weighted>
0.0504

> <Gold.Chemscore.DEInternal.Weighted>
1.1621

> <Gold.Chemscore.Rot.Weighted>
5.3594

> <Gold.Chemscore.Internal.Correction.Weighted>
   9.000000E+99

> <Gold.Protein.RotatedTorsions>
[ 6907 6896 6895 6894 ] final  -35.27 input  -60.11 | X-H torsion
[ 7974 7965 7964 7962 ] final  152.62 input  175.53 | X-H torsion
[ 8008 7997 7996 7995 ] final  -10.19 input   59.86 | X-H torsion
[ 10167 10162 10161 10158 ] final   47.57 input  -65.29 | X-H torsion
[ 10718 10713 10712 10709 ] final -115.61 input   66.30 | X-H torsion
[ 10763 10752 10751 10750 ] final  151.70 input  -60.55 | X-H torsion
[ 11005 11000 10999 10996 ] final  -68.45 input  -57.11 | X-H torsion

> <Gold.Protein.ActiveResidues>
 VAL166  LYS551  ARG553  GLY616  TRP617  ASP618  TYR619  PRO620  LYS621  CYS622 
 ASP623  PHE694  ASN695  SER759  ASP760  ASP761  ALA762  ILE779  LEU786  VAL792 
 PHE793  MET794  SER795  GLU796  ALA797  LYS798  CYS799  TRP800  GLU811  SER814 

> <Gold.Protein.RotatedAtoms>
  151.0420  134.9614  159.8166 H   0  0  0  0  0  0  0  0  0  0  0  0  # atno 6907 bound_to 6896
  152.5366  134.2646  159.8958 H   0  0  0  0  0  0  0  0  0  0  0  0  # atno 6908 bound_to 6896
  151.2658  133.4236  159.2652 H   0  0  0  0  0  0  0  0  0  0  0  0  # atno 6909 bound_to 6896
  144.8210  139.6693  143.6100 H   0  0  0  0  0  0  0  0  0  0  0  0  # atno 7974 bound_to 7965
  154.5577  140.2335  155.8384 H   0  0  0  0  0  0  0  0  0  0  0  0  # atno 8008 bound_to 7997
  156.2003  140.3054  155.9472 H   0  0  0  0  0  0  0  0  0  0  0  0  # atno 8009 bound_to 7997
  155.2948  140.0428  157.3016 H   0  0  0  0  0  0  0  0  0  0  0  0  # atno 8010 bound_to 7997
  140.3022  144.2920  150.6216 H   0  0  0  0  0  0  0  0  0  0  0  0  # atno 10167 bound_to 10162
  156.0907  130.6090  150.8928 H   0  0  0  0  0  0  0  0  0  0  0  0  # atno 10718 bound_to 10713
  154.1080  135.2841  155.3237 H   0  0  0  0  0  0  0  0  0  0  0  0  # atno 10763 bound_to 10752
  154.6509  135.5369  153.7904 H   0  0  0  0  0  0  0  0  0  0  0  0  # atno 10764 bound_to 10752
  153.0355  135.6510  154.1240 H   0  0  0  0  0  0  0  0  0  0  0  0  # atno 10765 bound_to 10752
  141.1532  133.6741  156.6447 H   0  0  0  0  0  0  0  0  0  0  0  0  # atno 11005 bound_to 11000
  146.2515  139.6210  142.9424 LP  0  0  0  0  0  0  0  0  0  0  0  0  # atno 17320 bound_to 7965
  145.5106  141.0435  143.2490 LP  0  0  0  0  0  0  0  0  0  0  0  0  # atno 17321 bound_to 7965
  140.5641  143.2188  151.7714 LP  0  0  0  0  0  0  0  0  0  0  0  0  # atno 17342 bound_to 10162
  139.4912  144.4308  151.9874 LP  0  0  0  0  0  0  0  0  0  0  0  0  # atno 17343 bound_to 10162
  157.6056  131.0939  150.8886 LP  0  0  0  0  0  0  0  0  0  0  0  0  # atno 17370 bound_to 10713
  156.9035  130.5255  149.5282 LP  0  0  0  0  0  0  0  0  0  0  0  0  # atno 17371 bound_to 10713
  140.3366  134.7884  157.4366 LP  0  0  0  0  0  0  0  0  0  0  0  0  # atno 17394 bound_to 11000
  140.0972  134.5521  155.8387 LP  0  0  0  0  0  0  0  0  0  0  0  0  # atno 17395 bound_to 11000

$$$$
