AV-unprocessed.smi:450|AV-procd|sdf|2607|dock2
  -GOLD-   2262023 03D 1   1.00000     0.00000
 Structure written by MMmdl.
 32 32  0  0  0  0  0  0  0  0  1 V2000
  146.2653  142.8387  153.3873 C   0  0  0  0  0  0  0  0  0  0  0  0
  146.2827  141.3295  153.6704 C   0  0  0  0  0  0  0  0  0  0  0  0
  147.2554  140.5382  152.7746 C   0  0  2  0  0  0  0  0  0  0  0  0
  146.8354  139.0679  152.6404 C   0  0  0  0  0  0  0  0  0  0  0  0
  148.6143  140.6030  153.3105 N   0  0  0  0  0  0  0  0  0  0  0  0
  148.9575  140.5191  154.6052 C   0  0  0  0  0  0  0  0  0  0  0  0
  148.1406  140.3784  155.5165 O   0  0  0  0  0  0  0  0  0  0  0  0
  150.4608  140.6036  154.8962 C   0  0  0  0  0  0  0  0  0  0  0  0
  150.9818  139.3990  155.5410 N   0  0  0  0  0  0  0  0  0  0  0  0
  151.1987  138.1872  154.9906 C   0  0  0  0  0  0  0  0  0  0  0  0
  150.9266  137.9515  153.6511 N   0  0  0  0  0  0  0  0  0  0  0  0
  151.6768  137.2772  155.8349 N   0  0  0  0  0  0  0  0  0  0  0  0
  151.7796  137.9369  157.0582 C   0  0  0  0  0  0  0  0  0  0  0  0
  152.2554  137.2813  158.2293 C   0  0  0  0  0  0  0  0  0  0  0  0
  152.6399  136.7503  159.1825 N   0  0  0  0  0  0  0  0  0  0  0  0
  151.3509  139.2338  156.8740 C   0  0  0  0  0  0  0  0  0  0  0  0
  151.2823  140.2416  157.8592 C   0  0  0  0  0  0  0  0  0  0  0  0
  151.2273  141.0681  158.6666 N   0  0  0  0  0  0  0  0  0  0  0  0
  145.5185  143.3387  154.0040 H   0  0  0  0  0  0  0  0  0  0  0  0
  146.0228  143.0403  152.3436 H   0  0  0  0  0  0  0  0  0  0  0  0
  147.2297  143.2992  153.6028 H   0  0  0  0  0  0  0  0  0  0  0  0
  146.5272  141.1633  154.7203 H   0  0  0  0  0  0  0  0  0  0  0  0
  145.2737  140.9401  153.5301 H   0  0  0  0  0  0  0  0  0  0  0  0
  147.2220  140.9768  151.7759 H   0  0  0  0  0  0  0  0  0  0  0  0
  145.8333  138.9833  152.2191 H   0  0  0  0  0  0  0  0  0  0  0  0
  146.8332  138.5642  153.6076 H   0  0  0  0  0  0  0  0  0  0  0  0
  147.5146  138.5239  151.9829 H   0  0  0  0  0  0  0  0  0  0  0  0
  149.3571  140.7171  152.6360 H   0  0  0  0  0  0  0  0  0  0  0  0
  151.0023  140.7757  153.9653 H   0  0  0  0  0  0  0  0  0  0  0  0
  150.6597  141.4671  155.5317 H   0  0  0  0  0  0  0  0  0  0  0  0
  150.5598  138.6795  153.0549 H   0  0  0  0  0  0  0  0  0  0  0  0
  151.1262  137.0614  153.2184 H   0  0  0  0  0  0  0  0  0  0  0  0
  1  2  1  0  0  0  0
  1 19  1  0  0  0  0
  1 20  1  0  0  0  0
  1 21  1  0  0  0  0
  2  3  1  0  0  0  0
  2 22  1  0  0  0  0
  2 23  1  0  0  0  0
  3  4  1  0  0  0  0
  3  5  1  0  0  0  0
  3 24  1  0  0  0  0
  4 25  1  0  0  0  0
  4 26  1  0  0  0  0
  4 27  1  0  0  0  0
  5  6  1  0  0  0  0
  5 28  1  0  0  0  0
  6  7  2  0  0  0  0
  6  8  1  0  0  0  0
  8  9  1  0  0  0  0
  8 29  1  0  0  0  0
  8 30  1  0  0  0  0
  9 16  1  0  0  0  0
  9 10  1  0  0  0  0
 10 11  1  0  0  0  0
 10 12  2  0  0  0  0
 11 31  1  0  0  0  0
 11 32  1  0  0  0  0
 12 13  1  0  0  0  0
 13 14  1  0  0  0  0
 13 16  2  0  0  0  0
 14 15  3  0  0  0  0
 16 17  1  0  0  0  0
 17 18  3  0  0  0  0
M  END
> <s_m_source_file>
AV-unprocessed.smi

> <i_m_source_file_index>
450

> <i_lp_mmshare_version>
43012

> <i_f3d_flags>
0

> <s_epik_input>
W0NIM11bQ0gyXVtDQEhdKFtDSDNdKVtOSF1DKD1PKVtDSDJdbjFjKFtOSDJdKW5jKEMjTiljMUMjTg==

> <s_epik_cmdline>
J2VwaWtfcHl0aG9uJywgJy1waCcsICc3LjAnLCAnLXRuJywgJzgnLCAnLW1hJywgJzIwMCcsICctbWV0YWxfYmluZGluZycsICctaW1hZScsICc8aW5maWxlLm1hZT4nLCAnLW9tYWUnLCAnPG91dGZpbGUubWFlPic=

> <r_epik_Ionization_Penalty>
0.000482749

> <r_epik_Ionization_Penalty_Charging>
7.71074e-10

> <r_epik_Ionization_Penalty_Neutral>
0.000482748

> <r_epik_State_Penalty>
0.000433536

> <r_epik_Charging_Adjusted_Penalty>
0.000433537

> <i_epik_Tot_Q>
0

> <i_epik_Tot_abs_Q>
0

> <r_epik_Metal_State_Penalty>
-0

> <b_epik_Metal_Only>
0

> <s_lp_Force_Field>
OPLS_2005

> <r_lp_Energy>
6.35239

> <b_lp_Chiralities_Consistent>
1

> <s_lp_Variant>
AV-unprocessed.smi:450-1

> <Gold.Version>
5.8.1

> <Gold.Id.Protein>
6NUR|6NUR_protein|mol2

> <Gold.PLP.Fitness>
37.1466

> <Gold.PLP.PLP>
-27.8615

> <Gold.PLP.part.hbond>
-4.9525

> <Gold.PLP.part.metal>
0.0000

> <Gold.PLP.part.buried>
-1.4177

> <Gold.PLP.part.nonpolar>
-22.3417

> <Gold.PLP.part.repulsive>
0.3311

> <Gold.PLP.ligand.clash>
0.0000

> <Gold.PLP.ligand.torsion>
0.7113

> <Gold.PLP.Chemscore.Hbond>
3.5600

> <Gold.PLP.Chemscore.CHOScore>
0.0000

> <Gold.PLP.Chemscore.Metal>
0.0000

> <Gold.Chemscore.Hbonds>
donor molecule, donor type, donor heavy atom, donor atom, acceptor molecule, acceptor atom, score
      L1  H     5    28       P1  7957  0.64
      L1  H    11    32       P1  7949  0.92
      P1  H  6896  6907       L1    15  0.88
      P1  H 10752 10764       L1    12  0.06

> <Gold.PLP.Chemscore.Internal.Correction>
0.0277

> <Gold.Rescore>
     Score         DG    S(hbond)    S(metal)    S(lipo)     H(rot)  DE(clash)    DE(int)     intcor
     12.61     -15.71       3.37        0.00      39.66       2.21       1.16       1.93       ----

> <Gold.Chemscore.Fitness>
12.6147

> <Gold.Chemscore.DG>
-15.7052

> <Gold.Chemscore.ZeroCoef>
-5.4800

> <Gold.Chemscore.Hbond>
3.3675

> <Gold.Chemscore.Metal>
0.0000

> <Gold.Chemscore.Lipo>
39.6640

> <Gold.Chemscore.Internal_Hbond>
0.0000

> <Gold.Chemscore.DEClash>
1.1644

> <Gold.Chemscore.DEInternal>
1.9261

> <Gold.Chemscore.Rot>
2.2121

> <Gold.Chemscore.Internal.Correction>
   9.000000E+99

> <Gold.Chemscore.Hbonds>
donor molecule, donor type, donor heavy atom, donor atom, acceptor molecule, acceptor atom, score
      L1  H     5    28       P1  7957  0.64
      L1  H    11    31       P1  7957  0.01
      L1  H    11    32       P1  7949  0.37
      P1  H  6896  6907       L1    15  0.81
      P1  H 10752 10764       L1    12  0.08

> <Gold.Chemscore.Hbond.Weighted>
-11.2474

> <Gold.Chemscore.Metal.Weighted>
-0.0000

> <Gold.Chemscore.Lipo.Weighted>
-4.6407

> <Gold.Chemscore.Internal_Hbond.Weighted>
0.0000

> <Gold.Chemscore.DEClash.Weighted>
1.1644

> <Gold.Chemscore.DEInternal.Weighted>
1.9261

> <Gold.Chemscore.Rot.Weighted>
5.6629

> <Gold.Chemscore.Internal.Correction.Weighted>
   9.000000E+99

> <Gold.Protein.RotatedTorsions>
[ 6907 6896 6895 6894 ] final   37.20 input  -60.11 | X-H torsion
[ 7974 7965 7964 7962 ] final  -58.23 input  175.53 | X-H torsion
[ 8008 7997 7996 7995 ] final   81.21 input   59.86 | X-H torsion
[ 10167 10162 10161 10158 ] final  -88.27 input  -65.29 | X-H torsion
[ 10718 10713 10712 10709 ] final  -12.94 input   66.30 | X-H torsion
[ 10763 10752 10751 10750 ] final  -50.09 input  -60.55 | X-H torsion
[ 11005 11000 10999 10996 ] final   31.50 input  -57.11 | X-H torsion

> <Gold.Protein.ActiveResidues>
 VAL166  LYS551  ARG553  GLY616  TRP617  ASP618  TYR619  PRO620  LYS621  CYS622 
 ASP623  PHE694  ASN695  SER759  ASP760  ASP761  ALA762  ILE779  LEU786  VAL792 
 PHE793  MET794  SER795  GLU796  ALA797  LYS798  CYS799  TRP800  GLU811  SER814 

> <Gold.Protein.RotatedAtoms>
  152.1400  134.9070  160.0554 H   0  0  0  0  0  0  0  0  0  0  0  0  # atno 6907 bound_to 6896
  152.0141  133.3868  159.4240 H   0  0  0  0  0  0  0  0  0  0  0  0  # atno 6908 bound_to 6896
  150.6864  134.3619  159.4998 H   0  0  0  0  0  0  0  0  0  0  0  0  # atno 6909 bound_to 6896
  145.8418  140.8412  143.0031 H   0  0  0  0  0  0  0  0  0  0  0  0  # atno 7974 bound_to 7965
  155.8940  140.3437  155.5977 H   0  0  0  0  0  0  0  0  0  0  0  0  # atno 8008 bound_to 7997
  155.7577  140.0828  157.2189 H   0  0  0  0  0  0  0  0  0  0  0  0  # atno 8009 bound_to 7997
  154.4036  140.1541  156.2784 H   0  0  0  0  0  0  0  0  0  0  0  0  # atno 8010 bound_to 7997
  140.3763  143.2770  151.9439 H   0  0  0  0  0  0  0  0  0  0  0  0  # atno 10167 bound_to 10162
  156.6374  130.4918  149.6107 H   0  0  0  0  0  0  0  0  0  0  0  0  # atno 10718 bound_to 10713
  154.1047  135.6558  153.4874 H   0  0  0  0  0  0  0  0  0  0  0  0  # atno 10763 bound_to 10752
  153.0276  135.5233  154.7251 H   0  0  0  0  0  0  0  0  0  0  0  0  # atno 10764 bound_to 10752
  154.6414  135.2989  155.0069 H   0  0  0  0  0  0  0  0  0  0  0  0  # atno 10765 bound_to 10752
  140.2832  134.2949  155.7795 H   0  0  0  0  0  0  0  0  0  0  0  0  # atno 11005 bound_to 11000
  144.6733  140.0823  143.7469 LP  0  0  0  0  0  0  0  0  0  0  0  0  # atno 17320 bound_to 7965
  145.9457  139.2699  143.1242 LP  0  0  0  0  0  0  0  0  0  0  0  0  # atno 17321 bound_to 7965
  139.4799  144.5860  151.7852 LP  0  0  0  0  0  0  0  0  0  0  0  0  # atno 17342 bound_to 10162
  140.4983  144.1208  150.5965 LP  0  0  0  0  0  0  0  0  0  0  0  0  # atno 17343 bound_to 10162
  156.2186  130.6723  151.1345 LP  0  0  0  0  0  0  0  0  0  0  0  0  # atno 17370 bound_to 10713
  157.7181  131.0698  150.6245 LP  0  0  0  0  0  0  0  0  0  0  0  0  # atno 17371 bound_to 10713
  141.2159  133.7538  156.9513 LP  0  0  0  0  0  0  0  0  0  0  0  0  # atno 17394 bound_to 11000
  140.1264  134.9384  157.2275 LP  0  0  0  0  0  0  0  0  0  0  0  0  # atno 17395 bound_to 11000

$$$$
