AV-unprocessed.smi:726|AV-procd|sdf|3513|dock2
  -GOLD-   22720 0513D 1   1.00000     0.00000
 Structure written by MMmdl.
 23 23  0  0  0  0  0  0  0  0  3 V2000
  153.1158  139.4590  158.5689 C   0  0  0  0  0  0  0  0  0  0  0  0
  152.2210  140.4420  157.8215 C   0  0  0  0  0  0  0  0  0  0  0  0
  152.0648  141.6935  158.3090 C   0  0  0  0  0  0  0  0  0  0  0  0
  151.2983  142.6457  157.6553 C   0  0  0  0  0  0  0  0  0  0  0  0
  151.1437  143.8012  158.1095 O   0  5  0  0  0  0  0  0  0  0  0  0
  150.7217  142.2375  156.4626 C   0  0  0  0  0  0  0  0  0  0  0  0
  150.8689  140.9124  155.8724 C   0  0  0  0  0  0  0  0  0  0  0  0
  150.3635  140.6449  154.7821 O   0  0  0  0  0  0  0  0  0  0  0  0
  151.5982  140.0181  156.6082 N   0  0  0  0  0  0  0  0  0  0  0  0
  151.6828  138.5891  156.1736 C   0  0  1  0  0  0  0  0  0  0  0  0
  150.3061  137.8824  156.0945 C   0  0  0  0  0  0  0  0  0  0  0  0
  152.5715  138.3996  154.9302 C   0  0  0  0  0  0  0  0  0  0  0  0
  153.6046  139.0989  154.8356 O   0  0  0  0  0  0  0  0  0  0  0  0
  152.1960  137.5587  154.0836 O   0  5  0  0  0  0  0  0  0  0  0  0
  153.6868  139.9664  159.3470 H   0  0  0  0  0  0  0  0  0  0  0  0
  153.8435  138.9922  157.9055 H   0  0  0  0  0  0  0  0  0  0  0  0
  152.5195  138.6871  159.0559 H   0  0  0  0  0  0  0  0  0  0  0  0
  152.5547  141.9602  159.2345 H   0  0  0  0  0  0  0  0  0  0  0  0
  150.1190  142.9484  155.9158 H   0  0  0  0  0  0  0  0  0  0  0  0
  152.1765  137.9877  156.9299 H   0  0  0  0  0  0  0  0  0  0  0  0
  150.4361  136.8082  155.9595 H   0  0  0  0  0  0  0  0  0  0  0  0
  149.6857  138.2253  155.2678 H   0  0  0  0  0  0  0  0  0  0  0  0
  149.7427  138.0256  157.0168 H   0  0  0  0  0  0  0  0  0  0  0  0
  1  2  1  0  0  0  0
  1 15  1  0  0  0  0
  1 16  1  0  0  0  0
  1 17  1  0  0  0  0
  2  9  1  0  0  0  0
  2  3  2  0  0  0  0
  3  4  1  0  0  0  0
  3 18  1  0  0  0  0
  4  5  1  0  0  0  0
  4  6  2  0  0  0  0
  6  7  1  0  0  0  0
  6 19  1  0  0  0  0
  7  8  2  0  0  0  0
  7  9  1  0  0  0  0
  9 10  1  0  0  0  0
 10 11  1  0  0  0  0
 10 12  1  0  0  0  0
 10 20  1  0  0  0  0
 11 21  1  0  0  0  0
 11 22  1  0  0  0  0
 11 23  1  0  0  0  0
 12 13  2  0  0  0  0
 12 14  1  0  0  0  0
M  CHG  1   5  -1
M  CHG  1  14  -1
M  END
> <s_m_source_file>
AV-unprocessed.smi

> <i_m_source_file_index>
726

> <i_lp_mmshare_version>
43012

> <i_f3d_flags>
0

> <s_epik_input>
W0NIM11jMVtjSF1jKFtPSF0pW2NIXWMoPU8pbjFbQ0BIXShbQ0gzXSlDKD1PKVtPSF0=

> <s_epik_cmdline>
J2VwaWtfcHl0aG9uJywgJy1waCcsICc3LjAnLCAnLXRuJywgJzgnLCAnLW1hJywgJzIwMCcsICctbWV0YWxfYmluZGluZycsICctaW1hZScsICc8aW5maWxlLm1hZT4nLCAnLW9tYWUnLCAnPG91dGZpbGUubWFlPic=

> <r_lp_tautomer_probability>
1

> <r_epik_Ionization_Penalty>
0.657059

> <r_epik_Ionization_Penalty_Charging>
0.657059

> <r_epik_Ionization_Penalty_Neutral>
1.59975e-13

> <r_epik_State_Penalty>
0.584419

> <r_epik_Charging_Adjusted_Penalty>
1.24148

> <i_epik_Tot_Q>
-2

> <i_epik_Tot_abs_Q>
2

> <r_epik_Metal_State_Penalty>
0.584419

> <b_epik_Metal_Only>
0

> <s_lp_Force_Field>
OPLS_2005

> <r_lp_Energy>
32.5185

> <b_lp_Chiralities_Consistent>
1

> <s_lp_Variant>
AV-unprocessed.smi:726-4

> <Gold.Version>
5.8.1

> <Gold.Id.Protein>
6NUR|6NUR_protein|mol2

> <Gold.PLP.Fitness>
37.0449

> <Gold.PLP.PLP>
-24.1339

> <Gold.PLP.part.hbond>
-3.0000

> <Gold.PLP.part.metal>
0.0000

> <Gold.PLP.part.buried>
-3.2458

> <Gold.PLP.part.nonpolar>
-17.9107

> <Gold.PLP.part.repulsive>
0.3983

> <Gold.PLP.ligand.clash>
0.0000

> <Gold.PLP.ligand.torsion>
0.5333

> <Gold.PLP.Chemscore.Hbond>
4.5600

> <Gold.PLP.Chemscore.CHOScore>
0.0000

> <Gold.PLP.Chemscore.Metal>
0.0000

> <Gold.Chemscore.Hbonds>
donor molecule, donor type, donor heavy atom, donor atom, acceptor molecule, acceptor atom, score
      P1  H  7989  7998       L1     8  0.91
      P1  H  7997  8009       L1    13  2.00
      P1  H 10752 10763       L1    14  1.63

> <Gold.PLP.Chemscore.Internal.Correction>
0.2976

> <Gold.Rescore>
     Score         DG    S(hbond)    S(metal)    S(lipo)     H(rot)  DE(clash)    DE(int)     intcor
     15.34     -15.83       2.55        0.00      47.52       1.45       0.00       0.48       ----

> <Gold.Chemscore.Fitness>
15.3442

> <Gold.Chemscore.DG>
-15.8259

> <Gold.Chemscore.ZeroCoef>
-5.4800

> <Gold.Chemscore.Hbond>
2.5481

> <Gold.Chemscore.Metal>
0.0000

> <Gold.Chemscore.Lipo>
47.5170

> <Gold.Chemscore.Internal_Hbond>
0.0000

> <Gold.Chemscore.DEClash>
0.0000

> <Gold.Chemscore.DEInternal>
0.4817

> <Gold.Chemscore.Rot>
1.4548

> <Gold.Chemscore.Internal.Correction>
   9.000000E+99

> <Gold.Chemscore.Hbonds>
donor molecule, donor type, donor heavy atom, donor atom, acceptor molecule, acceptor atom, score
      P1  H  7989  7998       L1     8  0.58
      P1  H  7997  8009       L1    13  0.98
      P1  H 10752 10763       L1    14  0.75

> <Gold.Chemscore.Hbond.Weighted>
-8.5106

> <Gold.Chemscore.Metal.Weighted>
-0.0000

> <Gold.Chemscore.Lipo.Weighted>
-5.5595

> <Gold.Chemscore.Internal_Hbond.Weighted>
0.0000

> <Gold.Chemscore.DEClash.Weighted>
0.0000

> <Gold.Chemscore.DEInternal.Weighted>
0.4817

> <Gold.Chemscore.Rot.Weighted>
3.7242

> <Gold.Chemscore.Internal.Correction.Weighted>
   9.000000E+99

> <Gold.Protein.RotatedTorsions>
[ 6907 6896 6895 6894 ] final  176.33 input  -60.11 | X-H torsion
[ 7974 7965 7964 7962 ] final   70.35 input  175.53 | X-H torsion
[ 8008 7997 7996 7995 ] final -131.94 input   59.86 | X-H torsion
[ 10167 10162 10161 10158 ] final  -95.19 input  -65.29 | X-H torsion
[ 10718 10713 10712 10709 ] final  172.66 input   66.30 | X-H torsion
[ 10763 10752 10751 10750 ] final   26.02 input  -60.55 | X-H torsion
[ 11005 11000 10999 10996 ] final  115.14 input  -57.11 | X-H torsion

> <Gold.Protein.ActiveResidues>
 VAL166  LYS551  ARG553  GLY616  TRP617  ASP618  TYR619  PRO620  LYS621  CYS622 
 ASP623  PHE694  ASN695  SER759  ASP760  ASP761  ALA762  ILE779  LEU786  VAL792 
 PHE793  MET794  SER795  GLU796  ALA797  LYS798  CYS799  TRP800  GLU811  SER814 

> <Gold.Protein.RotatedAtoms>
  151.7219  133.3315  159.3317 H   0  0  0  0  0  0  0  0  0  0  0  0  # atno 6907 bound_to 6896
  150.7649  134.6440  159.6262 H   0  0  0  0  0  0  0  0  0  0  0  0  # atno 6908 bound_to 6896
  152.3647  134.6824  160.0247 H   0  0  0  0  0  0  0  0  0  0  0  0  # atno 6909 bound_to 6896
  145.7793  139.2880  143.1275 H   0  0  0  0  0  0  0  0  0  0  0  0  # atno 7974 bound_to 7965
  155.3207  140.0462  157.3039 H   0  0  0  0  0  0  0  0  0  0  0  0  # atno 8008 bound_to 7997
  154.5382  140.2279  155.8652 H   0  0  0  0  0  0  0  0  0  0  0  0  # atno 8009 bound_to 7997
  156.1855  140.3063  155.9237 H   0  0  0  0  0  0  0  0  0  0  0  0  # atno 8010 bound_to 7997
  140.3067  143.3129  152.0191 H   0  0  0  0  0  0  0  0  0  0  0  0  # atno 10167 bound_to 10162
  156.9757  131.0103  151.2894 H   0  0  0  0  0  0  0  0  0  0  0  0  # atno 10718 bound_to 10713
  153.0651  135.6570  154.0373 H   0  0  0  0  0  0  0  0  0  0  0  0  # atno 10763 bound_to 10752
  154.0032  135.2935  155.3402 H   0  0  0  0  0  0  0  0  0  0  0  0  # atno 10764 bound_to 10752
  154.7005  135.5246  153.8589 H   0  0  0  0  0  0  0  0  0  0  0  0  # atno 10765 bound_to 10752
  139.9001  134.9579  156.7000 H   0  0  0  0  0  0  0  0  0  0  0  0  # atno 11005 bound_to 11000
  146.0091  140.8452  142.9980 LP  0  0  0  0  0  0  0  0  0  0  0  0  # atno 17320 bound_to 7965
  144.6799  140.2463  143.7337 LP  0  0  0  0  0  0  0  0  0  0  0  0  # atno 17321 bound_to 7965
  139.4903  144.6415  151.6866 LP  0  0  0  0  0  0  0  0  0  0  0  0  # atno 17342 bound_to 10162
  140.5604  144.0278  150.6167 LP  0  0  0  0  0  0  0  0  0  0  0  0  # atno 17343 bound_to 10162
  157.5561  130.8215  149.8206 LP  0  0  0  0  0  0  0  0  0  0  0  0  # atno 17370 bound_to 10713
  156.0264  130.3778  150.1810 LP  0  0  0  0  0  0  0  0  0  0  0  0  # atno 17371 bound_to 10713
  140.7158  133.9184  155.8114 LP  0  0  0  0  0  0  0  0  0  0  0  0  # atno 17394 bound_to 11000
  141.0266  134.0815  157.4062 LP  0  0  0  0  0  0  0  0  0  0  0  0  # atno 17395 bound_to 11000

$$$$
