AV-unprocessed.smi:109|AV-procd|sdf|1057|dock5
  -GOLD-   2262018123D 1   1.00000     0.00000
 Structure written by MMmdl.
 58 61  0  0  0  0  0  0  0  0  1 V2000
  152.1702  139.2945  154.8801 O   0  0  0  0  0  0  0  0  0  0  0  0
  151.7044  139.8966  156.0687 C   0  0  0  0  0  0  0  0  0  0  0  0
  150.5723  140.8858  155.7438 C   0  0  0  0  0  0  0  0  0  0  0  0
  149.7320  141.3259  156.9691 C   0  0  2  0  0  0  0  0  0  0  0  0
  148.5337  142.0354  156.5132 N   0  0  0  0  0  0  0  0  0  0  0  0
  147.4079  141.3872  156.1365 C   0  0  0  0  0  0  0  0  0  0  0  0
  146.2095  141.6448  156.7219 N   0  0  0  0  0  0  0  0  0  0  0  0
  145.1182  140.9766  156.3375 C   0  0  0  0  0  0  0  0  0  0  0  0
  145.0060  140.0295  155.4038 N   0  0  0  0  0  0  0  0  0  0  0  0
  146.2054  139.7698  154.8074 C   0  0  0  0  0  0  0  0  0  0  0  0
  147.4423  140.4027  155.1152 C   0  0  0  0  0  0  0  0  0  0  0  0
  148.4486  139.8840  154.3108 N   0  0  0  0  0  0  0  0  0  0  0  0
  147.8378  138.9947  153.5744 C   0  0  0  0  0  0  0  0  0  0  0  0
  146.4867  138.8621  153.8069 N   0  0  0  0  0  0  0  0  0  0  0  0
  145.5347  137.9228  153.1410 C   0  0  1  0  0  0  0  0  0  0  0  0
  146.2500  137.1917  152.1900 O   0  0  0  0  0  0  0  0  0  0  0  0
  145.8017  135.8413  152.1764 C   0  0  2  0  0  0  0  0  0  0  0  0
  144.6322  135.7180  151.1758 C   0  0  0  0  0  0  0  0  0  0  0  0
  145.0629  136.0144  149.8640 O   0  0  0  0  0  0  0  0  0  0  0  0
  145.4674  135.5921  153.6536 C   0  0  2  0  0  0  0  0  0  0  0  0
  144.6123  134.4893  153.8972 O   0  0  0  0  0  0  0  0  0  0  0  0
  144.9238  136.9318  154.1482 C   0  0  2  0  0  0  0  0  0  0  0  0
  143.5092  136.9766  154.1117 O   0  0  0  0  0  0  0  0  0  0  0  0
  150.5196  142.2268  157.9646 C   0  0  0  0  0  0  0  0  0  0  0  0
  151.2200  143.4279  157.2790 C   0  0  0  0  0  0  0  0  0  0  0  0
  152.0230  144.2862  158.2705 C   0  0  0  0  0  0  0  0  0  0  0  0
  153.0533  143.4463  159.0345 C   0  0  0  0  0  0  0  0  0  0  0  0
  152.3703  142.2706  159.7428 C   0  0  0  0  0  0  0  0  0  0  0  0
  151.5786  141.4081  158.7473 C   0  0  0  0  0  0  0  0  0  0  0  0
  144.7971  138.5650  152.6571 H   0  0  0  0  0  0  0  0  0  0  0  0
  146.6260  135.2058  151.8500 H   0  0  0  0  0  0  0  0  0  0  0  0
  146.4029  135.3908  154.1758 H   0  0  0  0  0  0  0  0  0  0  0  0
  145.2544  137.1439  155.1661 H   0  0  0  0  0  0  0  0  0  0  0  0
  151.9397  138.3783  154.8966 H   0  0  0  0  0  0  0  0  0  0  0  0
  151.3635  139.1108  156.7427 H   0  0  0  0  0  0  0  0  0  0  0  0
  152.5351  140.4094  156.5539 H   0  0  0  0  0  0  0  0  0  0  0  0
  151.0434  141.7548  155.2881 H   0  0  0  0  0  0  0  0  0  0  0  0
  149.9172  140.4577  154.9839 H   0  0  0  0  0  0  0  0  0  0  0  0
  149.4559  140.4273  157.5208 H   0  0  0  0  0  0  0  0  0  0  0  0
  148.6111  143.0423  156.4897 H   0  0  0  0  0  0  0  0  0  0  0  0
  144.2053  141.2361  156.8532 H   0  0  0  0  0  0  0  0  0  0  0  0
  148.3618  138.4049  152.8362 H   0  0  0  0  0  0  0  0  0  0  0  0
  144.1724  134.7307  151.2008 H   0  0  0  0  0  0  0  0  0  0  0  0
  143.8527  136.4359  151.4320 H   0  0  0  0  0  0  0  0  0  0  0  0
  144.7768  136.8881  149.6445 H   0  0  0  0  0  0  0  0  0  0  0  0
  145.1459  133.7375  154.1065 H   0  0  0  0  0  0  0  0  0  0  0  0
  143.1947  137.0622  154.9992 H   0  0  0  0  0  0  0  0  0  0  0  0
  149.8078  142.6298  158.6872 H   0  0  0  0  0  0  0  0  0  0  0  0
  151.8813  143.0670  156.4902 H   0  0  0  0  0  0  0  0  0  0  0  0
  150.4933  144.0824  156.8011 H   0  0  0  0  0  0  0  0  0  0  0  0
  152.5255  145.0945  157.7386 H   0  0  0  0  0  0  0  0  0  0  0  0
  151.3409  144.7598  158.9776 H   0  0  0  0  0  0  0  0  0  0  0  0
  153.8082  143.0712  158.3424 H   0  0  0  0  0  0  0  0  0  0  0  0
  153.5776  144.0676  159.7608 H   0  0  0  0  0  0  0  0  0  0  0  0
  153.1173  141.6602  160.2510 H   0  0  0  0  0  0  0  0  0  0  0  0
  151.6995  142.6466  160.5163 H   0  0  0  0  0  0  0  0  0  0  0  0
  151.1088  140.5947  159.3003 H   0  0  0  0  0  0  0  0  0  0  0  0
  152.2699  140.9386  158.0460 H   0  0  0  0  0  0  0  0  0  0  0  0
  1  2  1  0  0  0  0
  1 34  1  0  0  0  0
  2  3  1  0  0  0  0
  2 35  1  0  0  0  0
  2 36  1  0  0  0  0
  3  4  1  0  0  0  0
  3 37  1  0  0  0  0
  3 38  1  0  0  0  0
  4  5  1  0  0  0  0
  4 24  1  0  0  0  0
  4 39  1  0  0  0  0
  5  6  1  0  0  0  0
  5 40  1  0  0  0  0
  6 11  1  0  0  0  0
  6  7  2  0  0  0  0
  7  8  1  0  0  0  0
  8  9  2  0  0  0  0
  8 41  1  0  0  0  0
  9 10  1  0  0  0  0
 10 14  1  0  0  0  0
 10 11  2  0  0  0  0
 11 12  1  0  0  0  0
 12 13  2  0  0  0  0
 13 14  1  0  0  0  0
 13 42  1  0  0  0  0
 14 15  1  0  0  0  0
 15 30  1  0  0  0  0
 15 22  1  0  0  0  0
 15 16  1  0  0  0  0
 16 17  1  0  0  0  0
 17 31  1  0  0  0  0
 17 18  1  0  0  0  0
 17 20  1  0  0  0  0
 18 19  1  0  0  0  0
 18 43  1  0  0  0  0
 18 44  1  0  0  0  0
 19 45  1  0  0  0  0
 20 32  1  0  0  0  0
 20 21  1  0  0  0  0
 20 22  1  0  0  0  0
 21 46  1  0  0  0  0
 22 33  1  0  0  0  0
 22 23  1  0  0  0  0
 23 47  1  0  0  0  0
 24 29  1  0  0  0  0
 24 25  1  0  0  0  0
 24 48  1  0  0  0  0
 25 26  1  0  0  0  0
 25 49  1  0  0  0  0
 25 50  1  0  0  0  0
 26 27  1  0  0  0  0
 26 51  1  0  0  0  0
 26 52  1  0  0  0  0
 27 28  1  0  0  0  0
 27 53  1  0  0  0  0
 27 54  1  0  0  0  0
 28 29  1  0  0  0  0
 28 55  1  0  0  0  0
 28 56  1  0  0  0  0
 29 57  1  0  0  0  0
 29 58  1  0  0  0  0
M  END
> <s_m_source_file>
AV-unprocessed.smi

> <i_m_source_file_index>
109

> <i_lp_mmshare_version>
43012

> <i_f3d_flags>
0

> <s_epik_input>
W0NIMl0xW0NIMl1bQ0gyXVtDSDJdW0NIMl1bQ0hdMVtDQEhdKFtDSDJdW0NIMl1bT0hdKVtOSF1jKG5bY0hdbjIpYyhjMjMpbltjSF1uM1tDQEBIXTRPW0NASF0oW0NIMl1bT0hdKVtDQEBIXShbT0hdKVtDQEhdNFtPSF0=

> <s_epik_cmdline>
J2VwaWtfcHl0aG9uJywgJy1waCcsICc3LjAnLCAnLXRuJywgJzgnLCAnLW1hJywgJzIwMCcsICctbWV0YWxfYmluZGluZycsICctaW1hZScsICc8aW5maWxlLm1hZT4nLCAnLW9tYWUnLCAnPG91dGZpbGUubWFlPic=

> <r_lp_tautomer_probability>
1

> <r_epik_Ionization_Penalty>
0.000793976

> <r_epik_Ionization_Penalty_Charging>
0

> <r_epik_Ionization_Penalty_Neutral>
0.000793976

> <r_epik_State_Penalty>
-0

> <r_epik_Charging_Adjusted_Penalty>
0

> <i_epik_Tot_Q>
0

> <i_epik_Tot_abs_Q>
0

> <r_epik_Metal_State_Penalty>
-0

> <b_epik_Metal_Only>
0

> <s_epik_Chemistry_Notes>
This compound contains an acetal/aminal-like group ( X-CH(R)-Y where X, Y are N, S, or O) that may be acid/base labile, releasing an aldehyde.

> <s_lp_Force_Field>
OPLS_2005

> <r_lp_Energy>
58.5181

> <b_lp_Chiralities_Consistent>
1

> <s_lp_Variant>
AV-unprocessed.smi:109-27

> <Gold.Version>
5.8.1

> <Gold.Id.Protein>
6NUR|6NUR_protein|mol2

> <Gold.PLP.Fitness>
51.1612

> <Gold.PLP.PLP>
-39.6921

> <Gold.PLP.part.hbond>
-4.0000

> <Gold.PLP.part.metal>
0.0000

> <Gold.PLP.part.buried>
-2.3882

> <Gold.PLP.part.nonpolar>
-34.4013

> <Gold.PLP.part.repulsive>
2.0990

> <Gold.PLP.ligand.clash>
0.0000

> <Gold.PLP.ligand.torsion>
1.1354

> <Gold.PLP.Chemscore.Hbond>
2.8160

> <Gold.PLP.Chemscore.CHOScore>
1.6377

> <Gold.PLP.Chemscore.Metal>
0.0000

> <Gold.Chemscore.Hbonds>
donor molecule, donor type, donor heavy atom, donor atom, acceptor molecule, acceptor atom, score
      L1  H     5    40       P1  8028  1.00
      L1  H    19    45       P1 10171  1.00
      P1  H  7989  7998       L1     1  0.58
      L1  C    13    42       P1  7948  1.00
      L1  C    13    42       P1  7957  0.44

> <Gold.PLP.Chemscore.Internal.Correction>
0.3787

> <Gold.Rescore>
     Score         DG    S(hbond)    S(metal)    S(lipo)     H(rot)  DE(clash)    DE(int)     intcor
      7.75     -10.56       2.32        0.00      96.86       5.47       0.01       2.80       ----

> <Gold.Chemscore.Fitness>
7.7471

> <Gold.Chemscore.DG>
-10.5550

> <Gold.Chemscore.ZeroCoef>
-5.4800

> <Gold.Chemscore.Hbond>
2.3162

> <Gold.Chemscore.Metal>
0.0000

> <Gold.Chemscore.Lipo>
96.8578

> <Gold.Chemscore.Internal_Hbond>
0.0000

> <Gold.Chemscore.DEClash>
0.0077

> <Gold.Chemscore.DEInternal>
2.8002

> <Gold.Chemscore.Rot>
5.4662

> <Gold.Chemscore.Internal.Correction>
   9.000000E+99

> <Gold.Chemscore.Hbonds>
donor molecule, donor type, donor heavy atom, donor atom, acceptor molecule, acceptor atom, score
      L1  H     5    40       P1  8028  0.86
      L1  H    19    45       P1 10171  0.99
      P1  H  7989  7998       L1     1  0.13

> <Gold.Chemscore.Hbond.Weighted>
-7.7362

> <Gold.Chemscore.Metal.Weighted>
-0.0000

> <Gold.Chemscore.Lipo.Weighted>
-11.3324

> <Gold.Chemscore.Internal_Hbond.Weighted>
0.0000

> <Gold.Chemscore.DEClash.Weighted>
0.0077

> <Gold.Chemscore.DEInternal.Weighted>
2.8002

> <Gold.Chemscore.Rot.Weighted>
13.9935

> <Gold.Chemscore.Internal.Correction.Weighted>
   9.000000E+99

> <Gold.Protein.RotatedTorsions>
[ 6907 6896 6895 6894 ] final  -39.31 input  -60.11 | X-H torsion
[ 7974 7965 7964 7962 ] final   69.06 input  175.53 | X-H torsion
[ 8008 7997 7996 7995 ] final   72.21 input   59.86 | X-H torsion
[ 10167 10162 10161 10158 ] final -119.40 input  -65.29 | X-H torsion
[ 10718 10713 10712 10709 ] final   73.55 input   66.30 | X-H torsion
[ 10763 10752 10751 10750 ] final  100.48 input  -60.55 | X-H torsion
[ 11005 11000 10999 10996 ] final   76.29 input  -57.11 | X-H torsion

> <Gold.Protein.ActiveResidues>
 VAL166  LYS551  ARG553  GLY616  TRP617  ASP618  TYR619  PRO620  LYS621  CYS622 
 ASP623  PHE694  ASN695  SER759  ASP760  ASP761  ALA762  ILE779  LEU786  VAL792 
 PHE793  MET794  SER795  GLU796  ALA797  LYS798  CYS799  TRP800  GLU811  SER814 

> <Gold.Protein.RotatedAtoms>
  150.9919  134.9251  159.7903 H   0  0  0  0  0  0  0  0  0  0  0  0  # atno 6907 bound_to 6896
  152.5253  134.3270  159.9179 H   0  0  0  0  0  0  0  0  0  0  0  0  # atno 6908 bound_to 6896
  151.3276  133.3972  159.2694 H   0  0  0  0  0  0  0  0  0  0  0  0  # atno 6909 bound_to 6896
  145.7951  139.2953  143.1188 H   0  0  0  0  0  0  0  0  0  0  0  0  # atno 7974 bound_to 7965
  155.7654  140.3485  155.5219 H   0  0  0  0  0  0  0  0  0  0  0  0  # atno 8008 bound_to 7997
  155.8873  140.1012  157.1464 H   0  0  0  0  0  0  0  0  0  0  0  0  # atno 8009 bound_to 7997
  154.4030  140.1311  156.4259 H   0  0  0  0  0  0  0  0  0  0  0  0  # atno 8010 bound_to 7997
  140.0471  143.5096  152.2101 H   0  0  0  0  0  0  0  0  0  0  0  0  # atno 10167 bound_to 10162
  157.6553  130.9634  150.1086 H   0  0  0  0  0  0  0  0  0  0  0  0  # atno 10718 bound_to 10713
  153.3145  135.4077  155.1364 H   0  0  0  0  0  0  0  0  0  0  0  0  # atno 10763 bound_to 10752
  154.8585  135.3572  154.5679 H   0  0  0  0  0  0  0  0  0  0  0  0  # atno 10764 bound_to 10752
  153.6109  135.7068  153.5406 H   0  0  0  0  0  0  0  0  0  0  0  0  # atno 10765 bound_to 10752
  139.9305  134.7589  156.1377 H   0  0  0  0  0  0  0  0  0  0  0  0  # atno 11005 bound_to 11000
  145.9937  140.8581  143.0053 LP  0  0  0  0  0  0  0  0  0  0  0  0  # atno 17320 bound_to 7965
  144.6776  140.2252  143.7362 LP  0  0  0  0  0  0  0  0  0  0  0  0  # atno 17321 bound_to 7965
  139.5977  144.7572  151.3247 LP  0  0  0  0  0  0  0  0  0  0  0  0  # atno 17342 bound_to 10162
  140.7234  143.7073  150.7797 LP  0  0  0  0  0  0  0  0  0  0  0  0  # atno 17343 bound_to 10162
  156.1989  130.3659  149.8814 LP  0  0  0  0  0  0  0  0  0  0  0  0  # atno 17370 bound_to 10713
  156.6723  130.8825  151.3564 LP  0  0  0  0  0  0  0  0  0  0  0  0  # atno 17371 bound_to 10713
  141.0890  133.6722  156.2499 LP  0  0  0  0  0  0  0  0  0  0  0  0  # atno 17394 bound_to 11000
  140.6216  134.5356  157.5548 LP  0  0  0  0  0  0  0  0  0  0  0  0  # atno 17395 bound_to 11000

$$$$
