AV-unprocessed.smi:243|AV-procd|sdf|1856|dock6
  -GOLD-   2262020483D 1   1.00000     0.00000
 Structure written by MMmdl.
 58 61  0  0  0  0  0  0  0  0  2 V2000
  139.0817  136.9238  154.1584 C   0  0  0  0  0  0  0  0  0  0  0  0
  140.5032  137.4362  153.8836 C   0  0  0  0  0  0  0  0  0  0  0  0
  141.3074  136.4879  153.0712 N   0  3  2  0  0  0  0  0  0  0  0  0
  141.3712  135.1398  153.6886 C   0  0  0  0  0  0  0  0  0  0  0  0
  142.0528  134.1374  152.7476 C   0  0  0  0  0  0  0  0  0  0  0  0
  143.4643  134.6187  152.3463 C   0  0  1  0  0  0  0  0  0  0  0  0
  144.1781  133.6521  151.4971 N   0  0  0  0  0  0  0  0  0  0  0  0
  143.8410  133.5985  150.0792 C   0  0  0  0  0  0  0  0  0  0  0  0
  145.4469  133.2492  151.7671 C   0  0  0  0  0  0  0  0  0  0  0  0
  146.4521  134.1584  151.8593 N   0  0  0  0  0  0  0  0  0  0  0  0
  147.7018  133.7602  152.1151 C   0  0  0  0  0  0  0  0  0  0  0  0
  148.1594  132.5225  152.3105 N   0  0  0  0  0  0  0  0  0  0  0  0
  147.1562  131.6037  152.2151 C   0  0  0  0  0  0  0  0  0  0  0  0
  145.7856  131.8791  151.9479 C   0  0  0  0  0  0  0  0  0  0  0  0
  145.0579  130.6955  151.9426 N   0  0  0  0  0  0  0  0  0  0  0  0
  145.9474  129.7732  152.1891 C   0  0  0  0  0  0  0  0  0  0  0  0
  147.2359  130.2290  152.3572 N   0  0  0  0  0  0  0  0  0  0  0  0
  148.4168  129.4283  152.6434 C   0  0  0  0  0  0  0  0  0  0  0  0
  148.1966  127.9078  152.4607 C   0  0  1  0  0  0  0  0  0  0  0  0
  147.2855  127.4476  153.4440 O   0  0  0  0  0  0  0  0  0  0  0  0
  147.6381  127.5536  151.0881 C   0  0  0  0  0  0  0  0  0  0  0  0
  148.1755  126.1476  150.8587 C   0  0  0  0  0  0  0  0  0  0  0  0
  149.4899  126.2232  151.3836 O   0  0  0  0  0  0  0  0  0  0  0  0
  149.4780  127.0521  152.5427 C   0  0  0  0  0  0  0  0  0  0  0  0
  143.4115  136.0606  151.7728 C   0  0  2  0  0  0  0  0  0  0  0  0
  144.8141  136.6224  151.4783 C   0  0  0  0  0  0  0  0  0  0  0  0
  142.6672  136.9951  152.7494 C   0  0  0  0  0  0  0  0  0  0  0  0
  138.5607  137.5922  154.8443 H   0  0  0  0  0  0  0  0  0  0  0  0
  139.0999  135.9335  154.6145 H   0  0  0  0  0  0  0  0  0  0  0  0
  138.4821  136.8667  153.2506 H   0  0  0  0  0  0  0  0  0  0  0  0
  140.4741  138.4136  153.4000 H   0  0  0  0  0  0  0  0  0  0  0  0
  140.9916  137.5837  154.8477 H   0  0  0  0  0  0  0  0  0  0  0  0
  141.9078  135.1950  154.6373 H   0  0  0  0  0  0  0  0  0  0  0  0
  140.3642  134.7860  153.9136 H   0  0  0  0  0  0  0  0  0  0  0  0
  142.1111  133.1655  153.2386 H   0  0  0  0  0  0  0  0  0  0  0  0
  141.4212  133.9992  151.8712 H   0  0  0  0  0  0  0  0  0  0  0  0
  144.0479  134.6775  153.2663 H   0  0  0  0  0  0  0  0  0  0  0  0
  144.6468  134.0118  149.4709 H   0  0  0  0  0  0  0  0  0  0  0  0
  142.9366  134.1688  149.8675 H   0  0  0  0  0  0  0  0  0  0  0  0
  143.6636  132.5708  149.7630 H   0  0  0  0  0  0  0  0  0  0  0  0
  148.4415  134.5451  152.1704 H   0  0  0  0  0  0  0  0  0  0  0  0
  145.6837  128.7279  152.2576 H   0  0  0  0  0  0  0  0  0  0  0  0
  149.2268  129.7708  151.9977 H   0  0  0  0  0  0  0  0  0  0  0  0
  148.7318  129.6426  153.6655 H   0  0  0  0  0  0  0  0  0  0  0  0
  147.4668  127.8971  154.2551 H   0  0  0  0  0  0  0  0  0  0  0  0
  146.5507  127.6140  151.0267 H   0  0  0  0  0  0  0  0  0  0  0  0
  148.0509  128.2193  150.3288 H   0  0  0  0  0  0  0  0  0  0  0  0
  147.5979  125.4103  151.4184 H   0  0  0  0  0  0  0  0  0  0  0  0
  148.1769  125.8605  149.8070 H   0  0  0  0  0  0  0  0  0  0  0  0
  150.3827  127.6587  152.5284 H   0  0  0  0  0  0  0  0  0  0  0  0
  149.5100  126.4388  153.4446 H   0  0  0  0  0  0  0  0  0  0  0  0
  142.8494  136.0640  150.8391 H   0  0  0  0  0  0  0  0  0  0  0  0
  145.4312  136.6382  152.3772 H   0  0  0  0  0  0  0  0  0  0  0  0
  144.7557  137.6424  151.0978 H   0  0  0  0  0  0  0  0  0  0  0  0
  145.3377  136.0302  150.7279 H   0  0  0  0  0  0  0  0  0  0  0  0
  142.5987  137.9851  152.3000 H   0  0  0  0  0  0  0  0  0  0  0  0
  143.2377  137.1098  153.6726 H   0  0  0  0  0  0  0  0  0  0  0  0
  140.8177  136.3752  152.1949 H   0  0  0  0  0  0  0  0  0  0  0  0
  1  2  1  0  0  0  0
  1 28  1  0  0  0  0
  1 29  1  0  0  0  0
  1 30  1  0  0  0  0
  2  3  1  0  0  0  0
  2 31  1  0  0  0  0
  2 32  1  0  0  0  0
  3 27  1  0  0  0  0
  3  4  1  0  0  0  0
  3 58  1  0  0  0  0
  4  5  1  0  0  0  0
  4 33  1  0  0  0  0
  4 34  1  0  0  0  0
  5  6  1  0  0  0  0
  5 35  1  0  0  0  0
  5 36  1  0  0  0  0
  6  7  1  0  0  0  0
  6 25  1  0  0  0  0
  6 37  1  0  0  0  0
  7  8  1  0  0  0  0
  7  9  1  0  0  0  0
  8 38  1  0  0  0  0
  8 39  1  0  0  0  0
  8 40  1  0  0  0  0
  9 14  1  0  0  0  0
  9 10  2  0  0  0  0
 10 11  1  0  0  0  0
 11 12  2  0  0  0  0
 11 41  1  0  0  0  0
 12 13  1  0  0  0  0
 13 17  1  0  0  0  0
 13 14  2  0  0  0  0
 14 15  1  0  0  0  0
 15 16  2  0  0  0  0
 16 17  1  0  0  0  0
 16 42  1  0  0  0  0
 17 18  1  0  0  0  0
 18 19  1  0  0  0  0
 18 43  1  0  0  0  0
 18 44  1  0  0  0  0
 19 24  1  0  0  0  0
 19 20  1  0  0  0  0
 19 21  1  0  0  0  0
 20 45  1  0  0  0  0
 21 22  1  0  0  0  0
 21 46  1  0  0  0  0
 21 47  1  0  0  0  0
 22 23  1  0  0  0  0
 22 48  1  0  0  0  0
 22 49  1  0  0  0  0
 23 24  1  0  0  0  0
 24 50  1  0  0  0  0
 24 51  1  0  0  0  0
 25 26  1  0  0  0  0
 25 27  1  0  0  0  0
 25 52  1  0  0  0  0
 26 53  1  0  0  0  0
 26 54  1  0  0  0  0
 26 55  1  0  0  0  0
 27 56  1  0  0  0  0
 27 57  1  0  0  0  0
M  CHG  1   3   1
M  END
> <s_m_source_file>
AV-unprocessed.smi

> <i_m_source_file_index>
243

> <i_lp_mmshare_version>
43012

> <i_f3d_flags>
0

> <s_epik_input>
W0NIM11bQ0gyXU4xW0NIMl1bQ0gyXVtDQEhdKFtDQEBIXShbQ0gzXSlbQ0gyXTEpTihbQ0gzXSljKG5bY0hdbjIpYyhjMjMpbltjSF1uM1tDSDJdW0NAQF00KFtPSF0pW0NIMl1bQ0gyXU9bQ0gyXTQ=

> <s_epik_cmdline>
J2VwaWtfcHl0aG9uJywgJy1waCcsICc3LjAnLCAnLXRuJywgJzgnLCAnLW1hJywgJzIwMCcsICctbWV0YWxfYmluZGluZycsICctaW1hZScsICc8aW5maWxlLm1hZT4nLCAnLW9tYWUnLCAnPG91dGZpbGUubWFlPic=

> <r_lp_tautomer_probability>
1

> <r_epik_Ionization_Penalty>
0.00253099

> <r_epik_Ionization_Penalty_Charging>
0.00137877

> <r_epik_Ionization_Penalty_Neutral>
0.00115221

> <r_epik_State_Penalty>
-0

> <r_epik_Charging_Adjusted_Penalty>
0.00137877

> <i_epik_Tot_Q>
1

> <i_epik_Tot_abs_Q>
1

> <r_epik_Metal_State_Penalty>
-0

> <b_epik_Metal_Only>
0

> <s_lp_Force_Field>
OPLS_2005

> <r_lp_Energy>
45.5206

> <b_lp_Chiralities_Consistent>
1

> <s_lp_Variant>
AV-unprocessed.smi:243-9

> <Gold.Version>
5.8.1

> <Gold.Id.Protein>
6NUR|6NUR_protein|mol2

> <Gold.PLP.Fitness>
44.8703

> <Gold.PLP.PLP>
-46.6949

> <Gold.PLP.part.hbond>
-0.5086

> <Gold.PLP.part.metal>
0.0000

> <Gold.PLP.part.buried>
-4.5608

> <Gold.PLP.part.nonpolar>
-41.5248

> <Gold.PLP.part.repulsive>
1.4077

> <Gold.PLP.ligand.clash>
1.2771

> <Gold.PLP.ligand.torsion>
1.8136

> <Gold.PLP.Chemscore.Hbond>
0.0000

> <Gold.PLP.Chemscore.CHOScore>
0.7042

> <Gold.PLP.Chemscore.Metal>
0.0000

> <Gold.Chemscore.Hbonds>
donor molecule, donor type, donor heavy atom, donor atom, acceptor molecule, acceptor atom, score
      L1  C    11    41       P1  7948  0.12

> <Gold.PLP.Chemscore.Internal.Correction>
0.9671

> <Gold.Rescore>
     Score         DG    S(hbond)    S(metal)    S(lipo)     H(rot)  DE(clash)    DE(int)     intcor
      7.07     -10.22       0.00        0.00      89.49       2.24       0.08       3.07       ----

> <Gold.Chemscore.Fitness>
7.0656

> <Gold.Chemscore.DG>
-10.2210

> <Gold.Chemscore.ZeroCoef>
-5.4800

> <Gold.Chemscore.Hbond>
0.0000

> <Gold.Chemscore.Metal>
0.0000

> <Gold.Chemscore.Lipo>
89.4880

> <Gold.Chemscore.Internal_Hbond>
0.0000

> <Gold.Chemscore.DEClash>
0.0825

> <Gold.Chemscore.DEInternal>
3.0729

> <Gold.Chemscore.Rot>
2.2379

> <Gold.Chemscore.Internal.Correction>
   9.000000E+99

> <Gold.Chemscore.Hbond.Weighted>
-0.0000

> <Gold.Chemscore.Metal.Weighted>
-0.0000

> <Gold.Chemscore.Lipo.Weighted>
-10.4701

> <Gold.Chemscore.Internal_Hbond.Weighted>
0.0000

> <Gold.Chemscore.DEClash.Weighted>
0.0825

> <Gold.Chemscore.DEInternal.Weighted>
3.0729

> <Gold.Chemscore.Rot.Weighted>
5.7291

> <Gold.Chemscore.Internal.Correction.Weighted>
   9.000000E+99

> <Gold.Protein.RotatedTorsions>
[ 6907 6896 6895 6894 ] final  -15.11 input  -60.11 | X-H torsion
[ 7974 7965 7964 7962 ] final    2.19 input  175.53 | X-H torsion
[ 8008 7997 7996 7995 ] final  -70.90 input   59.86 | X-H torsion
[ 10167 10162 10161 10158 ] final  -11.69 input  -65.29 | X-H torsion
[ 10718 10713 10712 10709 ] final  114.89 input   66.30 | X-H torsion
[ 10763 10752 10751 10750 ] final   68.35 input  -60.55 | X-H torsion
[ 11005 11000 10999 10996 ] final   19.70 input  -57.11 | X-H torsion

> <Gold.Protein.ActiveResidues>
 VAL166  LYS551  ARG553  GLY616  TRP617  ASP618  TYR619  PRO620  LYS621  CYS622 
 ASP623  PHE694  ASN695  SER759  ASP760  ASP761  ALA762  ILE779  LEU786  VAL792 
 PHE793  MET794  SER795  GLU796  ALA797  LYS798  CYS799  TRP800  GLU811  SER814 

> <Gold.Protein.RotatedAtoms>
  151.3290  135.0837  159.9331 H   0  0  0  0  0  0  0  0  0  0  0  0  # atno 6907 bound_to 6896
  152.5239  133.9562  159.7706 H   0  0  0  0  0  0  0  0  0  0  0  0  # atno 6908 bound_to 6896
  150.9897  133.6109  159.2740 H   0  0  0  0  0  0  0  0  0  0  0  0  # atno 6909 bound_to 6896
  146.2443  140.0873  142.8354 H   0  0  0  0  0  0  0  0  0  0  0  0  # atno 7974 bound_to 7965
  154.5047  140.0826  156.7869 H   0  0  0  0  0  0  0  0  0  0  0  0  # atno 8008 bound_to 7997
  155.3922  140.3433  155.4234 H   0  0  0  0  0  0  0  0  0  0  0  0  # atno 8009 bound_to 7997
  156.1500  140.1555  156.8773 H   0  0  0  0  0  0  0  0  0  0  0  0  # atno 8010 bound_to 7997
  140.7144  143.5612  150.9193 H   0  0  0  0  0  0  0  0  0  0  0  0  # atno 10167 bound_to 10162
  157.6255  131.1005  150.7250 H   0  0  0  0  0  0  0  0  0  0  0  0  # atno 10718 bound_to 10713
  153.0231  135.5251  154.7120 H   0  0  0  0  0  0  0  0  0  0  0  0  # atno 10763 bound_to 10752
  154.6200  135.2888  155.0339 H   0  0  0  0  0  0  0  0  0  0  0  0  # atno 10764 bound_to 10752
  154.1330  135.6590  153.4978 H   0  0  0  0  0  0  0  0  0  0  0  0  # atno 10765 bound_to 10752
  140.4108  134.1620  155.7667 H   0  0  0  0  0  0  0  0  0  0  0  0  # atno 11005 bound_to 11000
  145.0681  140.9136  143.4898 LP  0  0  0  0  0  0  0  0  0  0  0  0  # atno 17320 bound_to 7965
  145.1001  139.2828  143.5690 LP  0  0  0  0  0  0  0  0  0  0  0  0  # atno 17321 bound_to 7965
  139.9338  143.6462  152.3070 LP  0  0  0  0  0  0  0  0  0  0  0  0  # atno 17342 bound_to 10162
  139.6922  144.7645  151.1418 LP  0  0  0  0  0  0  0  0  0  0  0  0  # atno 17343 bound_to 10162
  156.7599  130.4795  149.5439 LP  0  0  0  0  0  0  0  0  0  0  0  0  # atno 17370 bound_to 10713
  156.1424  130.6254  151.0485 LP  0  0  0  0  0  0  0  0  0  0  0  0  # atno 17371 bound_to 10713
  141.1822  133.8390  157.1218 LP  0  0  0  0  0  0  0  0  0  0  0  0  # atno 17394 bound_to 11000
  140.0269  134.9920  157.0703 LP  0  0  0  0  0  0  0  0  0  0  0  0  # atno 17395 bound_to 11000

$$$$
