AV-unprocessed.smi:1793|AV-procd|sdf|7226|dock3
  -GOLD-   22720 8473D 1   1.00000     0.00000
 Structure written by MMmdl.
 46 48  0  0  0  0  0  0  0  0  1 V2000
  151.7832  145.6862  158.7175 C   0  0  0  0  0  0  0  0  0  0  0  0
  152.0117  144.1863  158.4805 C   0  0  2  0  0  0  0  0  0  0  0  0
  151.1398  143.7453  157.3931 N   0  0  0  0  0  0  0  0  0  0  0  0
  151.0028  142.4844  156.9574 C   0  0  0  0  0  0  0  0  0  0  0  0
  151.6121  141.5263  157.4325 O   0  0  0  0  0  0  0  0  0  0  0  0
  150.1036  142.4130  155.9624 N   0  0  0  0  0  0  0  0  0  0  0  0
  149.5982  141.2469  155.3221 C   0  0  0  0  0  0  0  0  0  0  0  0
  150.2845  140.0099  155.3921 C   0  0  0  0  0  0  0  0  0  0  0  0
  149.7823  138.9010  154.6900 C   0  0  0  0  0  0  0  0  0  0  0  0
  148.6167  139.0720  153.9254 C   0  0  0  0  0  0  0  0  0  0  0  0
  147.9605  140.2459  153.8354 N   0  0  0  0  0  0  0  0  0  0  0  0
  148.4233  141.3216  154.5192 C   0  0  0  0  0  0  0  0  0  0  0  0
  147.6835  142.5209  154.3961 N   0  0  0  0  0  0  0  0  0  0  0  0
  147.1555  142.9350  153.1006 C   0  0  0  0  0  0  0  0  0  0  0  0
  146.1331  144.0217  153.4196 C   0  0  0  0  0  0  0  0  0  0  0  0
  145.5340  143.5284  154.7329 C   0  0  0  0  0  0  0  0  0  0  0  0
  146.7130  142.8484  155.4369 C   0  0  0  0  0  0  0  0  0  0  0  0
  151.7489  143.3608  159.7575 C   0  0  1  0  0  0  0  0  0  0  0  0
  152.7607  142.2490  160.0372 C   0  0  0  0  0  0  0  0  0  0  0  0
  152.6236  142.0217  161.5323 C   0  0  0  0  0  0  0  0  0  0  0  0
  151.9802  143.3131  162.0459 C   0  0  0  0  0  0  0  0  0  0  0  0
  151.8852  144.1703  160.9152 O   0  0  0  0  0  0  0  0  0  0  0  0
  152.4400  146.0662  159.5003 H   0  0  0  0  0  0  0  0  0  0  0  0
  150.7551  145.8894  159.0193 H   0  0  0  0  0  0  0  0  0  0  0  0
  151.9852  146.2618  157.8137 H   0  0  0  0  0  0  0  0  0  0  0  0
  153.0558  144.0552  158.1898 H   0  0  0  0  0  0  0  0  0  0  0  0
  150.5910  144.4614  156.9405 H   0  0  0  0  0  0  0  0  0  0  0  0
  149.6259  143.2725  155.7329 H   0  0  0  0  0  0  0  0  0  0  0  0
  151.1991  139.8993  155.9543 H   0  0  0  0  0  0  0  0  0  0  0  0
  150.2862  137.9465  154.7272 H   0  0  0  0  0  0  0  0  0  0  0  0
  148.2031  138.2464  153.3655 H   0  0  0  0  0  0  0  0  0  0  0  0
  147.9470  143.3018  152.4468 H   0  0  0  0  0  0  0  0  0  0  0  0
  146.6562  142.1026  152.6029 H   0  0  0  0  0  0  0  0  0  0  0  0
  146.6376  144.9765  153.5746 H   0  0  0  0  0  0  0  0  0  0  0  0
  145.3910  144.1522  152.6315 H   0  0  0  0  0  0  0  0  0  0  0  0
  145.0897  144.3278  155.3266 H   0  0  0  0  0  0  0  0  0  0  0  0
  144.7563  142.7920  154.5255 H   0  0  0  0  0  0  0  0  0  0  0  0
  146.3912  141.9660  155.9919 H   0  0  0  0  0  0  0  0  0  0  0  0
  147.1730  143.5423  156.1408 H   0  0  0  0  0  0  0  0  0  0  0  0
  150.7403  142.9427  159.7380 H   0  0  0  0  0  0  0  0  0  0  0  0
  152.5758  141.3473  159.4524 H   0  0  0  0  0  0  0  0  0  0  0  0
  153.7706  142.5958  159.8134 H   0  0  0  0  0  0  0  0  0  0  0  0
  151.9766  141.1685  161.7391 H   0  0  0  0  0  0  0  0  0  0  0  0
  153.5918  141.8302  161.9962 H   0  0  0  0  0  0  0  0  0  0  0  0
  150.9807  143.1155  162.4354 H   0  0  0  0  0  0  0  0  0  0  0  0
  152.5656  143.7839  162.8359 H   0  0  0  0  0  0  0  0  0  0  0  0
  1  2  1  0  0  0  0
  1 23  1  0  0  0  0
  1 24  1  0  0  0  0
  1 25  1  0  0  0  0
  2  3  1  0  0  0  0
  2 18  1  0  0  0  0
  2 26  1  0  0  0  0
  3  4  1  0  0  0  0
  3 27  1  0  0  0  0
  4  5  2  0  0  0  0
  4  6  1  0  0  0  0
  6  7  1  0  0  0  0
  6 28  1  0  0  0  0
  7 12  1  0  0  0  0
  7  8  2  0  0  0  0
  8  9  1  0  0  0  0
  8 29  1  0  0  0  0
  9 10  2  0  0  0  0
  9 30  1  0  0  0  0
 10 11  1  0  0  0  0
 10 31  1  0  0  0  0
 11 12  2  0  0  0  0
 12 13  1  0  0  0  0
 13 17  1  0  0  0  0
 13 14  1  0  0  0  0
 14 15  1  0  0  0  0
 14 32  1  0  0  0  0
 14 33  1  0  0  0  0
 15 16  1  0  0  0  0
 15 34  1  0  0  0  0
 15 35  1  0  0  0  0
 16 17  1  0  0  0  0
 16 36  1  0  0  0  0
 16 37  1  0  0  0  0
 17 38  1  0  0  0  0
 17 39  1  0  0  0  0
 18 22  1  0  0  0  0
 18 19  1  0  0  0  0
 18 40  1  0  0  0  0
 19 20  1  0  0  0  0
 19 41  1  0  0  0  0
 19 42  1  0  0  0  0
 20 21  1  0  0  0  0
 20 43  1  0  0  0  0
 20 44  1  0  0  0  0
 21 22  1  0  0  0  0
 21 45  1  0  0  0  0
 21 46  1  0  0  0  0
M  END
> <s_m_source_file>
AV-unprocessed.smi

> <i_m_source_file_index>
1793

> <i_lp_mmshare_version>
43012

> <i_f3d_flags>
0

> <s_epik_input>
TzFbQ0gyXVtDSDJdW0NIMl1bQ0BIXTFbQ0BIXShbQ0gzXSlbTkhdQyg9TylbTkhdYzJbY0hdW2NIXVtjSF1uYzJOM1tDSDJdW0NIMl1bQ0gyXVtDSDJdMw==

> <s_epik_cmdline>
J2VwaWtfcHl0aG9uJywgJy1waCcsICc3LjAnLCAnLXRuJywgJzgnLCAnLW1hJywgJzIwMCcsICctbWV0YWxfYmluZGluZycsICctaW1hZScsICc8aW5maWxlLm1hZT4nLCAnLW9tYWUnLCAnPG91dGZpbGUubWFlPic=

> <r_lp_tautomer_probability>
1

> <r_epik_Ionization_Penalty>
0.0992086

> <r_epik_Ionization_Penalty_Charging>
0

> <r_epik_Ionization_Penalty_Neutral>
0.0992086

> <r_epik_State_Penalty>
0.0887141

> <r_epik_Charging_Adjusted_Penalty>
0.0887141

> <i_epik_Tot_Q>
0

> <i_epik_Tot_abs_Q>
0

> <r_epik_Metal_State_Penalty>
0.075945

> <b_epik_Metal_Only>
0

> <s_lp_Force_Field>
OPLS_2005

> <r_lp_Energy>
46.1922

> <b_lp_Chiralities_Consistent>
1

> <s_lp_Variant>
AV-unprocessed.smi:1793-3

> <Gold.Version>
5.8.1

> <Gold.Id.Protein>
6NUR|6NUR_protein|mol2

> <Gold.PLP.Fitness>
53.9551

> <Gold.PLP.PLP>
-48.8785

> <Gold.PLP.part.hbond>
-2.0000

> <Gold.PLP.part.metal>
0.0000

> <Gold.PLP.part.buried>
-4.1093

> <Gold.PLP.part.nonpolar>
-42.9939

> <Gold.PLP.part.repulsive>
0.8591

> <Gold.PLP.ligand.clash>
0.0000

> <Gold.PLP.ligand.torsion>
1.7612

> <Gold.PLP.Chemscore.Hbond>
1.7436

> <Gold.PLP.Chemscore.CHOScore>
1.0000

> <Gold.PLP.Chemscore.Metal>
0.0000

> <Gold.Chemscore.Hbonds>
donor molecule, donor type, donor heavy atom, donor atom, acceptor molecule, acceptor atom, score
      L1  H     3    27       P1  8028  0.67
      L1  H     6    28       P1  8028  1.00
      L1  C    10    31       P1  7948  0.80

> <Gold.PLP.Chemscore.Internal.Correction>
0.3683

> <Gold.Rescore>
     Score         DG    S(hbond)    S(metal)    S(lipo)     H(rot)  DE(clash)    DE(int)     intcor
     13.64     -17.71       0.76        0.00     112.43       1.36       1.37       2.70       ----

> <Gold.Chemscore.Fitness>
13.6418

> <Gold.Chemscore.DG>
-17.7093

> <Gold.Chemscore.ZeroCoef>
-5.4800

> <Gold.Chemscore.Hbond>
0.7640

> <Gold.Chemscore.Metal>
0.0000

> <Gold.Chemscore.Lipo>
112.4320

> <Gold.Chemscore.Internal_Hbond>
0.0000

> <Gold.Chemscore.DEClash>
1.3663

> <Gold.Chemscore.DEInternal>
2.7013

> <Gold.Chemscore.Rot>
1.3582

> <Gold.Chemscore.Internal.Correction>
   9.000000E+99

> <Gold.Chemscore.Hbonds>
donor molecule, donor type, donor heavy atom, donor atom, acceptor molecule, acceptor atom, score
      L1  H     3    27       P1  8028  0.60
      L1  H     6    28       P1  8028  0.99

> <Gold.Chemscore.Hbond.Weighted>
-2.5518

> <Gold.Chemscore.Metal.Weighted>
-0.0000

> <Gold.Chemscore.Lipo.Weighted>
-13.1545

> <Gold.Chemscore.Internal_Hbond.Weighted>
0.0000

> <Gold.Chemscore.DEClash.Weighted>
1.3663

> <Gold.Chemscore.DEInternal.Weighted>
2.7013

> <Gold.Chemscore.Rot.Weighted>
3.4771

> <Gold.Chemscore.Internal.Correction.Weighted>
   9.000000E+99

> <Gold.Protein.RotatedTorsions>
[ 6907 6896 6895 6894 ] final  147.44 input  -60.11 | X-H torsion
[ 7974 7965 7964 7962 ] final  -56.01 input  175.53 | X-H torsion
[ 8008 7997 7996 7995 ] final -116.85 input   59.86 | X-H torsion
[ 10167 10162 10161 10158 ] final  -64.55 input  -65.29 | X-H torsion
[ 10718 10713 10712 10709 ] final  138.69 input   66.30 | X-H torsion
[ 10763 10752 10751 10750 ] final   89.91 input  -60.55 | X-H torsion
[ 11005 11000 10999 10996 ] final  136.65 input  -57.11 | X-H torsion

> <Gold.Protein.ActiveResidues>
 VAL166  LYS551  ARG553  GLY616  TRP617  ASP618  TYR619  PRO620  LYS621  CYS622 
 ASP623  PHE694  ASN695  SER759  ASP760  ASP761  ALA762  ILE779  LEU786  VAL792 
 PHE793  MET794  SER795  GLU796  ALA797  LYS798  CYS799  TRP800  GLU811  SER814 

> <Gold.Protein.RotatedAtoms>
  152.1547  133.4544  159.4830 H   0  0  0  0  0  0  0  0  0  0  0  0  # atno 6907 bound_to 6896
  150.6899  134.2145  159.4381 H   0  0  0  0  0  0  0  0  0  0  0  0  # atno 6908 bound_to 6896
  152.0044  134.9910  160.0617 H   0  0  0  0  0  0  0  0  0  0  0  0  # atno 6909 bound_to 6896
  145.8675  140.8240  142.9905 H   0  0  0  0  0  0  0  0  0  0  0  0  # atno 7974 bound_to 7965
  155.0743  140.0393  157.2619 H   0  0  0  0  0  0  0  0  0  0  0  0  # atno 8008 bound_to 7997
  154.6957  140.2663  155.6744 H   0  0  0  0  0  0  0  0  0  0  0  0  # atno 8009 bound_to 7997
  156.2744  140.2750  156.1550 H   0  0  0  0  0  0  0  0  0  0  0  0  # atno 8010 bound_to 7997
  140.5793  143.2325  151.6376 H   0  0  0  0  0  0  0  0  0  0  0  0  # atno 10167 bound_to 10162
  157.4226  131.1040  151.0337 H   0  0  0  0  0  0  0  0  0  0  0  0  # atno 10718 bound_to 10713
  153.1921  135.4453  155.0162 H   0  0  0  0  0  0  0  0  0  0  0  0  # atno 10763 bound_to 10752
  154.8096  135.3289  154.7342 H   0  0  0  0  0  0  0  0  0  0  0  0  # atno 10764 bound_to 10752
  153.7795  135.6978  153.4946 H   0  0  0  0  0  0  0  0  0  0  0  0  # atno 10765 bound_to 10752
  140.0061  134.9459  157.0177 H   0  0  0  0  0  0  0  0  0  0  0  0  # atno 11005 bound_to 11000
  144.6726  140.1189  143.7451 LP  0  0  0  0  0  0  0  0  0  0  0  0  # atno 17320 bound_to 7965
  145.9175  139.2525  143.1401 LP  0  0  0  0  0  0  0  0  0  0  0  0  # atno 17321 bound_to 7965
  139.5160  144.3359  152.0784 LP  0  0  0  0  0  0  0  0  0  0  0  0  # atno 17342 bound_to 10162
  140.2507  144.4172  150.6223 LP  0  0  0  0  0  0  0  0  0  0  0  0  # atno 17343 bound_to 10162
  157.1262  130.6083  149.5517 LP  0  0  0  0  0  0  0  0  0  0  0  0  # atno 17370 bound_to 10713
  155.9885  130.4929  150.7175 LP  0  0  0  0  0  0  0  0  0  0  0  0  # atno 17371 bound_to 10713
  140.4640  134.1455  155.7194 LP  0  0  0  0  0  0  0  0  0  0  0  0  # atno 17394 bound_to 11000
  141.1677  133.8670  157.1664 LP  0  0  0  0  0  0  0  0  0  0  0  0  # atno 17395 bound_to 11000

$$$$
