AV-unprocessed.smi:242|AV-procd|sdf|1846|dock2
  -GOLD-   2262020463D 1   1.00000     0.00000
 Structure written by MMmdl.
 58 61  0  0  0  0  0  0  0  0  2 V2000
  146.2003  133.5649  154.8789 C   0  0  0  0  0  0  0  0  0  0  0  0
  146.5973  134.0891  153.4861 C   0  0  0  0  0  0  0  0  0  0  0  0
  146.2068  133.0510  152.4162 C   0  0  0  0  0  0  0  0  0  0  0  0
  148.0491  134.4214  153.4349 N   0  3  2  0  0  0  0  0  0  0  0  0
  148.9671  133.2787  153.6776 C   0  0  0  0  0  0  0  0  0  0  0  0
  150.0871  133.7870  154.5946 C   0  0  0  0  0  0  0  0  0  0  0  0
  149.9979  135.3084  154.4902 C   0  0  2  0  0  0  0  0  0  0  0  0
  150.5878  136.0150  155.6291 N   0  0  0  0  0  0  0  0  0  0  0  0
  151.5379  135.2634  156.4411 C   0  0  0  0  0  0  0  0  0  0  0  0
  151.0646  137.2455  155.3366 C   0  0  0  0  0  0  0  0  0  0  0  0
  152.0704  137.3859  154.4336 N   0  0  0  0  0  0  0  0  0  0  0  0
  152.5453  138.6036  154.1521 C   0  0  0  0  0  0  0  0  0  0  0  0
  152.1650  139.7834  154.6482 N   0  0  0  0  0  0  0  0  0  0  0  0
  151.1544  139.6403  155.5535 C   0  0  0  0  0  0  0  0  0  0  0  0
  150.5466  138.4164  155.9474 C   0  0  0  0  0  0  0  0  0  0  0  0
  149.5415  138.6557  156.8749 N   0  0  0  0  0  0  0  0  0  0  0  0
  149.5591  139.9521  157.0284 C   0  0  0  0  0  0  0  0  0  0  0  0
  150.5065  140.6205  156.2844 N   0  0  0  0  0  0  0  0  0  0  0  0
  150.7555  142.0539  156.2752 C   0  0  0  0  0  0  0  0  0  0  0  0
  151.1071  142.6388  157.6664 C   0  0  0  0  0  0  0  0  0  0  0  0
  149.9486  142.5539  158.4780 O   0  0  0  0  0  0  0  0  0  0  0  0
  152.2256  141.8107  158.3298 C   0  0  0  0  0  0  0  0  0  0  0  0
  152.7270  142.4528  159.6355 C   0  0  0  0  0  0  0  0  0  0  0  0
  153.1500  143.7883  159.3893 O   0  0  0  0  0  0  0  0  0  0  0  0
  152.0914  144.6267  158.9426 C   0  0  0  0  0  0  0  0  0  0  0  0
  151.5442  144.1189  157.5969 C   0  0  0  0  0  0  0  0  0  0  0  0
  148.4880  135.5122  154.3320 C   0  0  0  0  0  0  0  0  0  0  0  0
  145.1396  133.3144  154.9142 H   0  0  0  0  0  0  0  0  0  0  0  0
  146.3776  134.3011  155.6627 H   0  0  0  0  0  0  0  0  0  0  0  0
  146.7597  132.6648  155.1362 H   0  0  0  0  0  0  0  0  0  0  0  0
  146.0338  135.0026  153.2884 H   0  0  0  0  0  0  0  0  0  0  0  0
  145.1534  132.7825  152.5009 H   0  0  0  0  0  0  0  0  0  0  0  0
  146.7890  132.1347  152.5193 H   0  0  0  0  0  0  0  0  0  0  0  0
  146.3525  133.4299  151.4046 H   0  0  0  0  0  0  0  0  0  0  0  0
  148.4618  132.4326  154.1452 H   0  0  0  0  0  0  0  0  0  0  0  0
  149.3657  132.9405  152.7207 H   0  0  0  0  0  0  0  0  0  0  0  0
  149.8858  133.4709  155.6196 H   0  0  0  0  0  0  0  0  0  0  0  0
  151.0672  133.4000  154.3141 H   0  0  0  0  0  0  0  0  0  0  0  0
  150.4974  135.6257  153.5729 H   0  0  0  0  0  0  0  0  0  0  0  0
  152.0290  135.9033  157.1760 H   0  0  0  0  0  0  0  0  0  0  0  0
  152.3068  134.8072  155.8166 H   0  0  0  0  0  0  0  0  0  0  0  0
  151.0263  134.4708  156.9869 H   0  0  0  0  0  0  0  0  0  0  0  0
  153.3467  138.6378  153.4289 H   0  0  0  0  0  0  0  0  0  0  0  0
  148.8846  140.4599  157.7026 H   0  0  0  0  0  0  0  0  0  0  0  0
  151.5568  142.2586  155.5638 H   0  0  0  0  0  0  0  0  0  0  0  0
  149.8659  142.5450  155.8783 H   0  0  0  0  0  0  0  0  0  0  0  0
  150.1403  142.9410  159.3185 H   0  0  0  0  0  0  0  0  0  0  0  0
  151.8859  140.7919  158.5204 H   0  0  0  0  0  0  0  0  0  0  0  0
  153.0688  141.7265  157.6427 H   0  0  0  0  0  0  0  0  0  0  0  0
  151.9531  142.4389  160.4045 H   0  0  0  0  0  0  0  0  0  0  0  0
  153.5707  141.8856  160.0287 H   0  0  0  0  0  0  0  0  0  0  0  0
  151.3035  144.6703  159.6959 H   0  0  0  0  0  0  0  0  0  0  0  0
  152.4730  145.6414  158.8286 H   0  0  0  0  0  0  0  0  0  0  0  0
  152.3240  144.2276  156.8420 H   0  0  0  0  0  0  0  0  0  0  0  0
  150.7176  144.7552  157.2787 H   0  0  0  0  0  0  0  0  0  0  0  0
  148.2427  136.4919  153.9202 H   0  0  0  0  0  0  0  0  0  0  0  0
  147.9926  135.4130  155.3000 H   0  0  0  0  0  0  0  0  0  0  0  0
  148.2462  134.7417  152.4975 H   0  0  0  0  0  0  0  0  0  0  0  0
  1  2  1  0  0  0  0
  1 28  1  0  0  0  0
  1 29  1  0  0  0  0
  1 30  1  0  0  0  0
  2  3  1  0  0  0  0
  2  4  1  0  0  0  0
  2 31  1  0  0  0  0
  3 32  1  0  0  0  0
  3 33  1  0  0  0  0
  3 34  1  0  0  0  0
  4 27  1  0  0  0  0
  4  5  1  0  0  0  0
  4 58  1  0  0  0  0
  5  6  1  0  0  0  0
  5 35  1  0  0  0  0
  5 36  1  0  0  0  0
  6  7  1  0  0  0  0
  6 37  1  0  0  0  0
  6 38  1  0  0  0  0
  7  8  1  0  0  0  0
  7 27  1  0  0  0  0
  7 39  1  0  0  0  0
  8  9  1  0  0  0  0
  8 10  1  0  0  0  0
  9 40  1  0  0  0  0
  9 41  1  0  0  0  0
  9 42  1  0  0  0  0
 10 15  1  0  0  0  0
 10 11  2  0  0  0  0
 11 12  1  0  0  0  0
 12 13  2  0  0  0  0
 12 43  1  0  0  0  0
 13 14  1  0  0  0  0
 14 18  1  0  0  0  0
 14 15  2  0  0  0  0
 15 16  1  0  0  0  0
 16 17  2  0  0  0  0
 17 18  1  0  0  0  0
 17 44  1  0  0  0  0
 18 19  1  0  0  0  0
 19 20  1  0  0  0  0
 19 45  1  0  0  0  0
 19 46  1  0  0  0  0
 20 26  1  0  0  0  0
 20 21  1  0  0  0  0
 20 22  1  0  0  0  0
 21 47  1  0  0  0  0
 22 23  1  0  0  0  0
 22 48  1  0  0  0  0
 22 49  1  0  0  0  0
 23 24  1  0  0  0  0
 23 50  1  0  0  0  0
 23 51  1  0  0  0  0
 24 25  1  0  0  0  0
 25 26  1  0  0  0  0
 25 52  1  0  0  0  0
 25 53  1  0  0  0  0
 26 54  1  0  0  0  0
 26 55  1  0  0  0  0
 27 56  1  0  0  0  0
 27 57  1  0  0  0  0
M  CHG  1   4   1
M  END
> <s_m_source_file>
AV-unprocessed.smi

> <i_m_source_file_index>
242

> <i_lp_mmshare_version>
43012

> <i_f3d_flags>
0

> <s_epik_input>
W0NIM11bQ0hdKFtDSDNdKU4xW0NIMl1bQ0gyXVtDQEhdKFtDSDJdMSlOKFtDSDNdKWMobltjSF1uMiljKGMyMyluW2NIXW4zW0NIMl1DNChbT0hdKVtDSDJdW0NIMl1PW0NIMl1bQ0gyXTQ=

> <s_epik_cmdline>
J2VwaWtfcHl0aG9uJywgJy1waCcsICc3LjAnLCAnLXRuJywgJzgnLCAnLW1hJywgJzIwMCcsICctbWV0YWxfYmluZGluZycsICctaW1hZScsICc8aW5maWxlLm1hZT4nLCAnLW9tYWUnLCAnPG91dGZpbGUubWFlPic=

> <r_lp_tautomer_probability>
1

> <r_epik_Ionization_Penalty>
0.000825961

> <r_epik_Ionization_Penalty_Charging>
0.00034898

> <r_epik_Ionization_Penalty_Neutral>
0.000476981

> <r_epik_State_Penalty>
-0

> <r_epik_Charging_Adjusted_Penalty>
0.00034898

> <i_epik_Tot_Q>
1

> <i_epik_Tot_abs_Q>
1

> <r_epik_Metal_State_Penalty>
-0

> <b_epik_Metal_Only>
0

> <s_lp_Force_Field>
OPLS_2005

> <r_lp_Energy>
47.5475

> <b_lp_Chiralities_Consistent>
1

> <s_lp_Variant>
AV-unprocessed.smi:242-3

> <Gold.Version>
5.8.1

> <Gold.Id.Protein>
6NUR|6NUR_protein|mol2

> <Gold.PLP.Fitness>
51.4252

> <Gold.PLP.PLP>
-43.3774

> <Gold.PLP.part.hbond>
-3.0000

> <Gold.PLP.part.metal>
0.0000

> <Gold.PLP.part.buried>
-4.5850

> <Gold.PLP.part.nonpolar>
-36.8847

> <Gold.PLP.part.repulsive>
0.2221

> <Gold.PLP.ligand.clash>
0.0000

> <Gold.PLP.ligand.torsion>
1.1972

> <Gold.PLP.Chemscore.Hbond>
3.3440

> <Gold.PLP.Chemscore.CHOScore>
0.0000

> <Gold.PLP.Chemscore.Metal>
0.0000

> <Gold.Chemscore.Hbonds>
donor molecule, donor type, donor heavy atom, donor atom, acceptor molecule, acceptor atom, score
      L1  H     4    58       P1  7948  1.38
      P1  H  7989  7998       L1    13  0.78
      P1  H 10752 10763       L1    11  0.80

> <Gold.PLP.Chemscore.Internal.Correction>
0.4102

> <Gold.Rescore>
     Score         DG    S(hbond)    S(metal)    S(lipo)     H(rot)  DE(clash)    DE(int)     intcor
     14.75     -16.98       2.02        0.00      95.23       2.50       1.10       1.13       ----

> <Gold.Chemscore.Fitness>
14.7474

> <Gold.Chemscore.DG>
-16.9793

> <Gold.Chemscore.ZeroCoef>
-5.4800

> <Gold.Chemscore.Hbond>
2.0230

> <Gold.Chemscore.Metal>
0.0000

> <Gold.Chemscore.Lipo>
95.2252

> <Gold.Chemscore.Internal_Hbond>
0.0000

> <Gold.Chemscore.DEClash>
1.0971

> <Gold.Chemscore.DEInternal>
1.1348

> <Gold.Chemscore.Rot>
2.4996

> <Gold.Chemscore.Internal.Correction>
   9.000000E+99

> <Gold.Chemscore.Hbonds>
donor molecule, donor type, donor heavy atom, donor atom, acceptor molecule, acceptor atom, score
      L1  H     4    58       P1  7948  0.27
      P1  H  7989  7998       L1    13  0.45
      P1  H 10752 10763       L1    11  0.31

> <Gold.Chemscore.Hbond.Weighted>
-6.7569

> <Gold.Chemscore.Metal.Weighted>
-0.0000

> <Gold.Chemscore.Lipo.Weighted>
-11.1413

> <Gold.Chemscore.Internal_Hbond.Weighted>
0.0000

> <Gold.Chemscore.DEClash.Weighted>
1.0971

> <Gold.Chemscore.DEInternal.Weighted>
1.1348

> <Gold.Chemscore.Rot.Weighted>
6.3990

> <Gold.Chemscore.Internal.Correction.Weighted>
   9.000000E+99

> <Gold.Protein.RotatedTorsions>
[ 6907 6896 6895 6894 ] final  -56.71 input  -60.11 | X-H torsion
[ 7974 7965 7964 7962 ] final -173.15 input  175.53 | X-H torsion
[ 8008 7997 7996 7995 ] final  123.24 input   59.86 | X-H torsion
[ 10167 10162 10161 10158 ] final    9.97 input  -65.29 | X-H torsion
[ 10718 10713 10712 10709 ] final  -33.56 input   66.30 | X-H torsion
[ 10763 10752 10751 10750 ] final   53.48 input  -60.55 | X-H torsion
[ 11005 11000 10999 10996 ] final  -68.13 input  -57.11 | X-H torsion

> <Gold.Protein.ActiveResidues>
 VAL166  LYS551  ARG553  GLY616  TRP617  ASP618  TYR619  PRO620  LYS621  CYS622 
 ASP623  PHE694  ASN695  SER759  ASP760  ASP761  ALA762  ILE779  LEU786  VAL792 
 PHE793  MET794  SER795  GLU796  ALA797  LYS798  CYS799  TRP800  GLU811  SER814 

> <Gold.Protein.RotatedAtoms>
  150.8145  134.7319  159.6717 H   0  0  0  0  0  0  0  0  0  0  0  0  # atno 6907 bound_to 6896
  152.4264  134.5856  159.9970 H   0  0  0  0  0  0  0  0  0  0  0  0  # atno 6908 bound_to 6896
  151.6057  133.3315  159.3092 H   0  0  0  0  0  0  0  0  0  0  0  0  # atno 6909 bound_to 6896
  144.7140  140.1666  143.6371 H   0  0  0  0  0  0  0  0  0  0  0  0  # atno 7974 bound_to 7965
  156.2758  140.2767  156.1596 H   0  0  0  0  0  0  0  0  0  0  0  0  # atno 8008 bound_to 7997
  155.0767  140.0387  157.2644 H   0  0  0  0  0  0  0  0  0  0  0  0  # atno 8009 bound_to 7997
  154.6996  140.2646  155.6738 H   0  0  0  0  0  0  0  0  0  0  0  0  # atno 8010 bound_to 7997
  140.6223  143.8178  150.7190 H   0  0  0  0  0  0  0  0  0  0  0  0  # atno 10167 bound_to 10162
  156.3611  130.4324  149.7623 H   0  0  0  0  0  0  0  0  0  0  0  0  # atno 10718 bound_to 10713
  152.9796  135.5777  154.4748 H   0  0  0  0  0  0  0  0  0  0  0  0  # atno 10763 bound_to 10752
  154.4305  135.2773  155.1917 H   0  0  0  0  0  0  0  0  0  0  0  0  # atno 10764 bound_to 10752
  154.3628  135.6185  153.5753 H   0  0  0  0  0  0  0  0  0  0  0  0  # atno 10765 bound_to 10752
  141.1524  133.6734  156.6398 H   0  0  0  0  0  0  0  0  0  0  0  0  # atno 11005 bound_to 11000
  145.8982  139.2415  143.1509 LP  0  0  0  0  0  0  0  0  0  0  0  0  # atno 17320 bound_to 7965
  145.9837  140.8661  143.0101 LP  0  0  0  0  0  0  0  0  0  0  0  0  # atno 17321 bound_to 7965
  140.1771  143.4146  152.1959 LP  0  0  0  0  0  0  0  0  0  0  0  0  # atno 17342 bound_to 10162
  139.5449  144.7289  151.4615 LP  0  0  0  0  0  0  0  0  0  0  0  0  # atno 17343 bound_to 10162
  156.4786  130.8030  151.3046 LP  0  0  0  0  0  0  0  0  0  0  0  0  # atno 17370 bound_to 10713
  157.7473  131.0013  150.2958 LP  0  0  0  0  0  0  0  0  0  0  0  0  # atno 17371 bound_to 10713
  140.3402  134.7855  157.4392 LP  0  0  0  0  0  0  0  0  0  0  0  0  # atno 17394 bound_to 11000
  140.0944  134.5557  155.8412 LP  0  0  0  0  0  0  0  0  0  0  0  0  # atno 17395 bound_to 11000

$$$$
