AV-unprocessed.smi:2499|AV-procd|sdf|9835|dock3
  -GOLD-   2272013463D 1   1.00000     0.00000
 Structure written by MMmdl.
 27 28  0  0  0  0  0  0  0  0  1 V2000
  153.0486  142.3205  160.8755 C   0  0  0  0  0  0  0  0  0  0  0  0
  152.4495  142.5749  159.4855 C   0  0  2  0  0  0  0  0  0  0  0  0
  152.7533  141.4308  158.6313 N   0  0  0  0  0  0  0  0  0  0  0  0
  151.8552  140.6753  157.9806 C   0  0  0  0  0  0  0  0  0  0  0  0
  150.6414  140.8852  158.0701 O   0  0  0  0  0  0  0  0  0  0  0  0
  152.4978  139.6727  157.2711 N   0  0  0  0  0  0  0  0  0  0  0  0
  151.8755  139.1020  156.2866 C   0  0  0  0  0  0  0  0  0  0  0  0
  152.3490  138.1048  155.4489 N   0  0  0  0  0  0  0  0  0  0  0  0
  151.3585  137.7904  154.5598 C   0  0  0  0  0  0  0  0  0  0  0  0
  150.3042  138.5558  154.8267 C   0  0  0  0  0  0  0  0  0  0  0  0
  150.5883  139.3708  155.8806 O   0  0  0  0  0  0  0  0  0  0  0  0
  152.9382  143.8979  158.9196 C   0  0  0  0  0  0  0  0  0  0  0  0
  152.1176  145.1574  159.0685 C   0  0  0  0  0  0  0  0  0  0  0  0
  152.2903  144.5244  157.7072 C   0  0  0  0  0  0  0  0  0  0  0  0
  152.7994  143.1281  161.5645 H   0  0  0  0  0  0  0  0  0  0  0  0
  154.1356  142.2446  160.8319 H   0  0  0  0  0  0  0  0  0  0  0  0
  152.6662  141.3941  161.3058 H   0  0  0  0  0  0  0  0  0  0  0  0
  151.3666  142.6393  159.6089 H   0  0  0  0  0  0  0  0  0  0  0  0
  153.7292  141.1957  158.5207 H   0  0  0  0  0  0  0  0  0  0  0  0
  153.2554  137.6597  155.4563 H   0  0  0  0  0  0  0  0  0  0  0  0
  151.5186  137.0299  153.8097 H   0  0  0  0  0  0  0  0  0  0  0  0
  149.3241  138.6369  154.3806 H   0  0  0  0  0  0  0  0  0  0  0  0
  154.0152  144.0325  159.0038 H   0  0  0  0  0  0  0  0  0  0  0  0
  151.1397  145.0742  159.5385 H   0  0  0  0  0  0  0  0  0  0  0  0
  152.6526  146.0843  159.2648 H   0  0  0  0  0  0  0  0  0  0  0  0
  152.9418  145.0269  156.9953 H   0  0  0  0  0  0  0  0  0  0  0  0
  151.4256  144.0247  157.2754 H   0  0  0  0  0  0  0  0  0  0  0  0
  1  2  1  0  0  0  0
  1 15  1  0  0  0  0
  1 16  1  0  0  0  0
  1 17  1  0  0  0  0
  2  3  1  0  0  0  0
  2 12  1  0  0  0  0
  2 18  1  0  0  0  0
  3 19  1  0  0  0  0
  3  4  1  0  0  0  0
  4  6  1  0  0  0  0
  4  5  2  0  0  0  0
  6  7  2  0  0  0  0
  7 11  1  0  0  0  0
  7  8  1  0  0  0  0
  8 20  1  0  0  0  0
  8  9  1  0  0  0  0
  9 21  1  0  0  0  0
  9 10  2  0  0  0  0
 10 22  1  0  0  0  0
 10 11  1  0  0  0  0
 12 14  1  0  0  0  0
 12 13  1  0  0  0  0
 12 23  1  0  0  0  0
 13 14  1  0  0  0  0
 13 24  1  0  0  0  0
 13 25  1  0  0  0  0
 14 26  1  0  0  0  0
 14 27  1  0  0  0  0
M  END
> <s_m_source_file>
AV-unprocessed.smi

> <i_m_source_file_index>
2499

> <i_lp_mmshare_version>
43012

> <i_f3d_flags>
0

> <s_epik_input>
W0NIMl0xW0NIMl1bQ0hdMVtDQEhdKFtDSDNdKVtOSF1DKD1PKVtOSF1jMm5bY0hdW2NIXW8y

> <s_epik_cmdline>
J2VwaWtfcHl0aG9uJywgJy1waCcsICc3LjAnLCAnLXRuJywgJzgnLCAnLW1hJywgJzIwMCcsICctbWV0YWxfYmluZGluZycsICctaW1hZScsICc8aW5maWxlLm1hZT4nLCAnLW9tYWUnLCAnPG91dGZpbGUubWFlPic=

> <r_lp_tautomer_probability>
0.107061

> <r_epik_Ionization_Penalty>
1.51515

> <r_epik_Ionization_Penalty_Charging>
1.51478

> <r_epik_Ionization_Penalty_Neutral>
0.000369309

> <r_epik_State_Penalty>
2.62718

> <r_epik_Charging_Adjusted_Penalty>
4.14196

> <i_epik_Tot_Q>
0

> <i_epik_Tot_abs_Q>
0

> <r_epik_Metal_State_Penalty>
3.5378

> <b_epik_Metal_Only>
0

> <s_lp_Force_Field>
OPLS_2005

> <r_lp_Energy>
35.8345

> <b_lp_Chiralities_Consistent>
1

> <s_lp_Variant>
AV-unprocessed.smi:2499-5

> <Gold.Version>
5.8.1

> <Gold.Id.Protein>
6NUR|6NUR_protein|mol2

> <Gold.PLP.Fitness>
39.6260

> <Gold.PLP.PLP>
-33.9634

> <Gold.PLP.part.hbond>
-1.0000

> <Gold.PLP.part.metal>
0.0000

> <Gold.PLP.part.buried>
-4.4715

> <Gold.PLP.part.nonpolar>
-28.3828

> <Gold.PLP.part.repulsive>
0.3223

> <Gold.PLP.ligand.clash>
0.0000

> <Gold.PLP.ligand.torsion>
0.7003

> <Gold.PLP.Chemscore.Hbond>
1.0000

> <Gold.PLP.Chemscore.CHOScore>
1.0000

> <Gold.PLP.Chemscore.Metal>
0.0000

> <Gold.Chemscore.Hbonds>
donor molecule, donor type, donor heavy atom, donor atom, acceptor molecule, acceptor atom, score
      P1  H  7997  8010       L1     6  0.84
      L1  C     9    21       P1  7949  0.91

> <Gold.PLP.Chemscore.Internal.Correction>
1.0631

> <Gold.Rescore>
     Score         DG    S(hbond)    S(metal)    S(lipo)     H(rot)  DE(clash)    DE(int)     intcor
     11.46     -14.14       0.94        0.00      75.31       1.29       0.10       2.58       ----

> <Gold.Chemscore.Fitness>
11.4633

> <Gold.Chemscore.DG>
-14.1384

> <Gold.Chemscore.ZeroCoef>
-5.4800

> <Gold.Chemscore.Hbond>
0.9442

> <Gold.Chemscore.Metal>
0.0000

> <Gold.Chemscore.Lipo>
75.3074

> <Gold.Chemscore.Internal_Hbond>
0.0000

> <Gold.Chemscore.DEClash>
0.0990

> <Gold.Chemscore.DEInternal>
2.5762

> <Gold.Chemscore.Rot>
1.2915

> <Gold.Chemscore.Internal.Correction>
   9.000000E+99

> <Gold.Chemscore.Hbonds>
donor molecule, donor type, donor heavy atom, donor atom, acceptor molecule, acceptor atom, score
      P1  H  7997  8010       L1     6  0.22

> <Gold.Chemscore.Hbond.Weighted>
-3.1537

> <Gold.Chemscore.Metal.Weighted>
-0.0000

> <Gold.Chemscore.Lipo.Weighted>
-8.8110

> <Gold.Chemscore.Internal_Hbond.Weighted>
0.0000

> <Gold.Chemscore.DEClash.Weighted>
0.0990

> <Gold.Chemscore.DEInternal.Weighted>
2.5762

> <Gold.Chemscore.Rot.Weighted>
3.3062

> <Gold.Chemscore.Internal.Correction.Weighted>
   9.000000E+99

> <Gold.Protein.RotatedTorsions>
[ 6907 6896 6895 6894 ] final   -0.70 input  -60.11 | X-H torsion
[ 7974 7965 7964 7962 ] final  -62.63 input  175.53 | X-H torsion
[ 8008 7997 7996 7995 ] final   76.38 input   59.86 | X-H torsion
[ 10167 10162 10161 10158 ] final -147.81 input  -65.29 | X-H torsion
[ 10718 10713 10712 10709 ] final  127.26 input   66.30 | X-H torsion
[ 10763 10752 10751 10750 ] final  -60.30 input  -60.55 | X-H torsion
[ 11005 11000 10999 10996 ] final  -48.43 input  -57.11 | X-H torsion

> <Gold.Protein.ActiveResidues>
 VAL166  LYS551  ARG553  GLY616  TRP617  ASP618  TYR619  PRO620  LYS621  CYS622 
 ASP623  PHE694  ASN695  SER759  ASP760  ASP761  ALA762  ILE779  LEU786  VAL792 
 PHE793  MET794  SER795  GLU796  ALA797  LYS798  CYS799  TRP800  GLU811  SER814 

> <Gold.Protein.RotatedAtoms>
  151.5581  135.1066  159.9965 H   0  0  0  0  0  0  0  0  0  0  0  0  # atno 6907 bound_to 6896
  152.4460  133.7533  159.6716 H   0  0  0  0  0  0  0  0  0  0  0  0  # atno 6908 bound_to 6896
  150.8375  133.7921  159.3097 H   0  0  0  0  0  0  0  0  0  0  0  0  # atno 6909 bound_to 6896
  145.7890  140.8720  143.0291 H   0  0  0  0  0  0  0  0  0  0  0  0  # atno 7974 bound_to 7965
  155.8265  140.3468  155.5546 H   0  0  0  0  0  0  0  0  0  0  0  0  # atno 8008 bound_to 7997
  155.8287  140.0924  157.1825 H   0  0  0  0  0  0  0  0  0  0  0  0  # atno 8009 bound_to 7997
  154.4004  140.1416  156.3575 H   0  0  0  0  0  0  0  0  0  0  0  0  # atno 8010 bound_to 7997
  139.7589  143.8407  152.2603 H   0  0  0  0  0  0  0  0  0  0  0  0  # atno 10167 bound_to 10162
  157.5348  131.1098  150.8952 H   0  0  0  0  0  0  0  0  0  0  0  0  # atno 10718 bound_to 10713
  154.2671  135.6297  153.5296 H   0  0  0  0  0  0  0  0  0  0  0  0  # atno 10763 bound_to 10752
  152.9886  135.5601  154.5640 H   0  0  0  0  0  0  0  0  0  0  0  0  # atno 10764 bound_to 10752
  154.5202  135.2882  155.1244 H   0  0  0  0  0  0  0  0  0  0  0  0  # atno 10765 bound_to 10752
  141.0700  133.6682  156.3439 H   0  0  0  0  0  0  0  0  0  0  0  0  # atno 11005 bound_to 11000
  144.6784  140.0096  143.7484 LP  0  0  0  0  0  0  0  0  0  0  0  0  # atno 17320 bound_to 7965
  145.9996  139.3080  143.0935 LP  0  0  0  0  0  0  0  0  0  0  0  0  # atno 17321 bound_to 7965
  139.8407  144.7211  150.9334 LP  0  0  0  0  0  0  0  0  0  0  0  0  # atno 17342 bound_to 10162
  140.7805  143.3986  151.1188 LP  0  0  0  0  0  0  0  0  0  0  0  0  # atno 17343 bound_to 10162
  156.9522  130.5424  149.5283 LP  0  0  0  0  0  0  0  0  0  0  0  0  # atno 17370 bound_to 10713
  156.0450  130.5528  150.8860 LP  0  0  0  0  0  0  0  0  0  0  0  0  # atno 17371 bound_to 10713
  140.5694  134.5856  157.5453 LP  0  0  0  0  0  0  0  0  0  0  0  0  # atno 17394 bound_to 11000
  139.9514  134.7611  156.0440 LP  0  0  0  0  0  0  0  0  0  0  0  0  # atno 17395 bound_to 11000

$$$$
