AV-unprocessed.smi:1551|AV-procd|sdf|6233|dock1
  -GOLD-   22720 6413D 1   1.00000     0.00000
 Structure written by MMmdl.
 38 39  0  0  0  0  0  0  0  0  1 V2000
  151.8205  138.5096  154.7486 C   0  0  0  0  0  0  0  0  0  0  0  0
  150.4880  138.2946  154.2968 O   0  0  0  0  0  0  0  0  0  0  0  0
  149.6181  139.3682  154.2713 C   0  0  0  0  0  0  0  0  0  0  0  0
  150.0602  140.5676  154.7263 N   0  0  0  0  0  0  0  0  0  0  0  0
  149.2113  141.6157  154.7052 C   0  0  0  0  0  0  0  0  0  0  0  0
  147.8864  141.5247  154.2410 C   0  0  0  0  0  0  0  0  0  0  0  0
  147.4253  140.2819  153.7693 C   0  0  0  0  0  0  0  0  0  0  0  0
  148.3095  139.1758  153.7698 C   0  0  0  0  0  0  0  0  0  0  0  0
  147.9391  137.8736  153.3340 N   0  0  0  0  0  0  0  0  0  0  0  0
  146.7155  137.4123  153.0242 C   0  0  0  0  0  0  0  0  0  0  0  0
  145.6804  138.0781  153.0432 O   0  0  0  0  0  0  0  0  0  0  0  0
  146.7643  136.1212  152.6655 N   0  0  0  0  0  0  0  0  0  0  0  0
  145.6271  135.3029  152.2523 C   0  0  2  0  0  0  0  0  0  0  0  0
  145.9855  133.8120  152.3875 C   0  0  0  0  0  0  0  0  0  0  0  0
  144.8394  132.9096  151.8981 C   0  0  0  0  0  0  0  0  0  0  0  0
  144.4020  133.2482  150.4603 C   0  0  2  0  0  0  0  0  0  0  0  0
  145.4076  132.8631  149.5438 O   0  0  0  0  0  0  0  0  0  0  0  0
  144.0884  134.7482  150.3007 C   0  0  0  0  0  0  0  0  0  0  0  0
  145.2365  135.6425  150.8018 C   0  0  0  0  0  0  0  0  0  0  0  0
  152.3723  137.5710  154.7009 H   0  0  0  0  0  0  0  0  0  0  0  0
  151.8405  138.8523  155.7842 H   0  0  0  0  0  0  0  0  0  0  0  0
  152.3438  139.2324  154.1209 H   0  0  0  0  0  0  0  0  0  0  0  0
  149.5978  142.5535  155.0756 H   0  0  0  0  0  0  0  0  0  0  0  0
  147.2369  142.3874  154.2513 H   0  0  0  0  0  0  0  0  0  0  0  0
  146.4036  140.1988  153.4327 H   0  0  0  0  0  0  0  0  0  0  0  0
  148.7074  137.2373  153.1781 H   0  0  0  0  0  0  0  0  0  0  0  0
  147.6646  135.6646  152.6754 H   0  0  0  0  0  0  0  0  0  0  0  0
  144.7660  135.5003  152.8934 H   0  0  0  0  0  0  0  0  0  0  0  0
  146.8894  133.5947  151.8164 H   0  0  0  0  0  0  0  0  0  0  0  0
  146.2156  133.5772  153.4275 H   0  0  0  0  0  0  0  0  0  0  0  0
  145.1313  131.8610  151.9690 H   0  0  0  0  0  0  0  0  0  0  0  0
  143.9858  133.0316  152.5662 H   0  0  0  0  0  0  0  0  0  0  0  0
  143.5106  132.6706  150.2138 H   0  0  0  0  0  0  0  0  0  0  0  0
  145.4252  133.4896  148.8366 H   0  0  0  0  0  0  0  0  0  0  0  0
  143.8611  134.9785  149.2592 H   0  0  0  0  0  0  0  0  0  0  0  0
  143.1862  134.9837  150.8667 H   0  0  0  0  0  0  0  0  0  0  0  0
  144.9407  136.6898  150.7303 H   0  0  0  0  0  0  0  0  0  0  0  0
  146.1015  135.5229  150.1477 H   0  0  0  0  0  0  0  0  0  0  0  0
  1  2  1  0  0  0  0
  1 20  1  0  0  0  0
  1 21  1  0  0  0  0
  1 22  1  0  0  0  0
  2  3  1  0  0  0  0
  3  8  1  0  0  0  0
  3  4  2  0  0  0  0
  4  5  1  0  0  0  0
  5  6  2  0  0  0  0
  5 23  1  0  0  0  0
  6  7  1  0  0  0  0
  6 24  1  0  0  0  0
  7  8  2  0  0  0  0
  7 25  1  0  0  0  0
  8  9  1  0  0  0  0
  9 10  1  0  0  0  0
  9 26  1  0  0  0  0
 10 11  2  0  0  0  0
 10 12  1  0  0  0  0
 12 13  1  0  0  0  0
 12 27  1  0  0  0  0
 13 19  1  0  0  0  0
 13 14  1  0  0  0  0
 13 28  1  0  0  0  0
 14 15  1  0  0  0  0
 14 29  1  0  0  0  0
 14 30  1  0  0  0  0
 15 16  1  0  0  0  0
 15 31  1  0  0  0  0
 15 32  1  0  0  0  0
 16 17  1  0  0  0  0
 16 18  1  0  0  0  0
 16 33  1  0  0  0  0
 17 34  1  0  0  0  0
 18 19  1  0  0  0  0
 18 35  1  0  0  0  0
 18 36  1  0  0  0  0
 19 37  1  0  0  0  0
 19 38  1  0  0  0  0
M  END
> <s_m_source_file>
AV-unprocessed.smi

> <i_m_source_file_index>
1551

> <i_lp_mmshare_version>
43012

> <i_f3d_flags>
0

> <s_epik_input>
W0NIM11PYzFuW2NIXVtjSF1bY0hdYzFbTkhdQyg9TylbTkhdW0NAQEhdMltDSDJdW0NIMl1bQ0BASF0oW09IXSlbQ0gyXVtDSDJdMg==

> <s_epik_cmdline>
J2VwaWtfcHl0aG9uJywgJy1waCcsICc3LjAnLCAnLXRuJywgJzgnLCAnLW1hJywgJzIwMCcsICctbWV0YWxfYmluZGluZycsICctaW1hZScsICc8aW5maWxlLm1hZT4nLCAnLW9tYWUnLCAnPG91dGZpbGUubWFlPic=

> <r_lp_tautomer_probability>
1

> <r_epik_Ionization_Penalty>
9.95655e-05

> <r_epik_Ionization_Penalty_Charging>
0

> <r_epik_Ionization_Penalty_Neutral>
9.95655e-05

> <r_epik_State_Penalty>
-0

> <r_epik_Charging_Adjusted_Penalty>
0

> <i_epik_Tot_Q>
0

> <i_epik_Tot_abs_Q>
0

> <r_epik_Metal_State_Penalty>
-0

> <b_epik_Metal_Only>
0

> <s_lp_Force_Field>
OPLS_2005

> <r_lp_Energy>
13.9049

> <b_lp_Chiralities_Consistent>
1

> <s_lp_Variant>
AV-unprocessed.smi:1551-2

> <Gold.Version>
5.8.1

> <Gold.Id.Protein>
6NUR|6NUR_protein|mol2

> <Gold.PLP.Fitness>
42.0388

> <Gold.PLP.PLP>
-30.6871

> <Gold.PLP.part.hbond>
-2.8730

> <Gold.PLP.part.metal>
0.0000

> <Gold.PLP.part.buried>
0.0746

> <Gold.PLP.part.nonpolar>
-28.1807

> <Gold.PLP.part.repulsive>
0.6132

> <Gold.PLP.ligand.clash>
0.0000

> <Gold.PLP.ligand.torsion>
0.2788

> <Gold.PLP.Chemscore.Hbond>
2.9680

> <Gold.PLP.Chemscore.CHOScore>
1.0000

> <Gold.PLP.Chemscore.Metal>
0.0000

> <Gold.Chemscore.Hbonds>
donor molecule, donor type, donor heavy atom, donor atom, acceptor molecule, acceptor atom, score
      L1  H     9    26       P1  7948  0.56
      L1  H    12    27       P1  7948  0.46
      L1  H    17    34       P1  7921  1.00
      P1  H  7989  7998       L1     4  0.88
      L1  C     5    23       P1  8028  1.00

> <Gold.PLP.Chemscore.Internal.Correction>
0.0054

> <Gold.Rescore>
     Score         DG    S(hbond)    S(metal)    S(lipo)     H(rot)  DE(clash)    DE(int)     intcor
     13.51     -16.84       2.28        0.00      70.80       1.77       1.84       1.49       ----

> <Gold.Chemscore.Fitness>
13.5132

> <Gold.Chemscore.DG>
-16.8403

> <Gold.Chemscore.ZeroCoef>
-5.4800

> <Gold.Chemscore.Hbond>
2.2789

> <Gold.Chemscore.Metal>
0.0000

> <Gold.Chemscore.Lipo>
70.7998

> <Gold.Chemscore.Internal_Hbond>
0.0000

> <Gold.Chemscore.DEClash>
1.8368

> <Gold.Chemscore.DEInternal>
1.4902

> <Gold.Chemscore.Rot>
1.7714

> <Gold.Chemscore.Internal.Correction>
   9.000000E+99

> <Gold.Chemscore.Hbonds>
donor molecule, donor type, donor heavy atom, donor atom, acceptor molecule, acceptor atom, score
      L1  H     9    26       P1  7948  0.56
      L1  H    12    27       P1  7948  0.47
      L1  H    17    34       P1  7921  0.34
      P1  H  7989  7998       L1     4  0.18

> <Gold.Chemscore.Hbond.Weighted>
-7.6114

> <Gold.Chemscore.Metal.Weighted>
-0.0000

> <Gold.Chemscore.Lipo.Weighted>
-8.2836

> <Gold.Chemscore.Internal_Hbond.Weighted>
0.0000

> <Gold.Chemscore.DEClash.Weighted>
1.8368

> <Gold.Chemscore.DEInternal.Weighted>
1.4902

> <Gold.Chemscore.Rot.Weighted>
4.5347

> <Gold.Chemscore.Internal.Correction.Weighted>
   9.000000E+99

> <Gold.Protein.RotatedTorsions>
[ 6907 6896 6895 6894 ] final  -94.06 input  -60.11 | X-H torsion
[ 7974 7965 7964 7962 ] final   71.52 input  175.53 | X-H torsion
[ 8008 7997 7996 7995 ] final  -89.56 input   59.86 | X-H torsion
[ 10167 10162 10161 10158 ] final   89.14 input  -65.29 | X-H torsion
[ 10718 10713 10712 10709 ] final  109.36 input   66.30 | X-H torsion
[ 10763 10752 10751 10750 ] final  156.67 input  -60.55 | X-H torsion
[ 11005 11000 10999 10996 ] final  -42.34 input  -57.11 | X-H torsion

> <Gold.Protein.ActiveResidues>
 VAL166  LYS551  ARG553  GLY616  TRP617  ASP618  TYR619  PRO620  LYS621  CYS622 
 ASP623  PHE694  ASN695  SER759  ASP760  ASP761  ALA762  ILE779  LEU786  VAL792 
 PHE793  MET794  SER795  GLU796  ALA797  LYS798  CYS799  TRP800  GLU811  SER814 

> <Gold.Protein.RotatedAtoms>
  150.6934  134.1871  159.4270 H   0  0  0  0  0  0  0  0  0  0  0  0  # atno 6907 bound_to 6896
  151.9843  135.0010  160.0568 H   0  0  0  0  0  0  0  0  0  0  0  0  # atno 6908 bound_to 6896
  152.1726  133.4618  159.4954 H   0  0  0  0  0  0  0  0  0  0  0  0  # atno 6909 bound_to 6896
  145.7648  139.2817  143.1355 H   0  0  0  0  0  0  0  0  0  0  0  0  # atno 7974 bound_to 7965
  154.6881  140.0540  157.0335 H   0  0  0  0  0  0  0  0  0  0  0  0  # atno 8008 bound_to 7997
  155.0856  140.3214  155.4570 H   0  0  0  0  0  0  0  0  0  0  0  0  # atno 8009 bound_to 7997
  156.2718  140.2057  156.5984 H   0  0  0  0  0  0  0  0  0  0  0  0  # atno 8010 bound_to 7997
  139.8602  144.6548  150.9067 H   0  0  0  0  0  0  0  0  0  0  0  0  # atno 10167 bound_to 10162
  157.6545  131.0912  150.6443 H   0  0  0  0  0  0  0  0  0  0  0  0  # atno 10718 bound_to 10713
  154.1880  135.2796  155.3031 H   0  0  0  0  0  0  0  0  0  0  0  0  # atno 10763 bound_to 10752
  154.5951  135.5547  153.7320 H   0  0  0  0  0  0  0  0  0  0  0  0  # atno 10764 bound_to 10752
  153.0120  135.6378  154.2019 H   0  0  0  0  0  0  0  0  0  0  0  0  # atno 10765 bound_to 10752
  141.0308  133.6821  156.2581 H   0  0  0  0  0  0  0  0  0  0  0  0  # atno 11005 bound_to 11000
  146.0228  140.8332  142.9915 LP  0  0  0  0  0  0  0  0  0  0  0  0  # atno 17320 bound_to 7965
  144.6823  140.2654  143.7313 LP  0  0  0  0  0  0  0  0  0  0  0  0  # atno 17321 bound_to 7965
  140.7776  143.3751  151.1579 LP  0  0  0  0  0  0  0  0  0  0  0  0  # atno 17342 bound_to 10162
  139.7381  143.8968  152.3041 LP  0  0  0  0  0  0  0  0  0  0  0  0  # atno 17343 bound_to 10162
  156.6750  130.4550  149.5645 LP  0  0  0  0  0  0  0  0  0  0  0  0  # atno 17370 bound_to 10713
  156.1970  130.6596  151.1125 LP  0  0  0  0  0  0  0  0  0  0  0  0  # atno 17371 bound_to 10713
  140.6409  134.5167  157.5569 LP  0  0  0  0  0  0  0  0  0  0  0  0  # atno 17394 bound_to 11000
  139.9207  134.8155  156.1221 LP  0  0  0  0  0  0  0  0  0  0  0  0  # atno 17395 bound_to 11000

$$$$
