AV-unprocessed.smi:3050|AV-procd|sdf|11631|dock4
  -GOLD-   2272017 23D 1   1.00000     0.00000
 Structure written by MMmdl.
 45 46  0  0  0  0  0  0  0  0  1 V2000
  154.3297  137.3899  159.6883 C   0  0  0  0  0  0  0  0  0  0  0  0
  153.0043  137.8158  159.0442 C   0  0  0  0  0  0  0  0  0  0  0  0
  153.1861  138.9012  157.9665 C   0  0  2  0  0  0  0  0  0  0  0  0
  153.8469  140.0115  158.5730 O   0  0  0  0  0  0  0  0  0  0  0  0
  153.1254  140.7029  159.5885 C   0  0  0  0  0  0  0  0  0  0  0  0
  152.5246  141.9889  159.0247 C   0  0  0  0  0  0  0  0  0  0  0  0
  152.2832  142.8710  160.2529 C   0  0  0  0  0  0  0  0  0  0  0  0
  153.3069  142.4199  161.3069 C   0  0  0  0  0  0  0  0  0  0  0  0
  154.0368  141.2106  160.7092 C   0  0  0  0  0  0  0  0  0  0  0  0
  151.8344  139.3339  157.3748 C   0  0  0  0  0  0  0  0  0  0  0  0
  150.7845  138.8617  157.8114 O   0  0  0  0  0  0  0  0  0  0  0  0
  151.8785  140.2454  156.3908 N   0  0  0  0  0  0  0  0  0  0  0  0
  150.7178  140.7950  155.7009 C   0  0  0  0  0  0  0  0  0  0  0  0
  149.7288  139.6943  155.2847 C   0  0  0  0  0  0  0  0  0  0  0  0
  148.4935  140.2740  154.6556 C   0  0  0  0  0  0  0  0  0  0  0  0
  147.8365  139.8462  153.4667 C   0  0  0  0  0  0  0  0  0  0  0  0
  146.7689  140.5727  153.1790 N   0  0  0  0  0  0  0  0  0  0  0  0
  146.7069  141.4857  154.1699 N   0  0  0  0  0  0  0  0  0  0  0  0
  145.6394  142.4628  154.1736 C   0  0  0  0  0  0  0  0  0  0  0  0
  147.7339  141.3292  155.0758 C   0  0  0  0  0  0  0  0  0  0  0  0
  154.1657  136.6137  160.4360 H   0  0  0  0  0  0  0  0  0  0  0  0
  154.8163  138.2301  160.1843 H   0  0  0  0  0  0  0  0  0  0  0  0
  155.0204  136.9941  158.9435 H   0  0  0  0  0  0  0  0  0  0  0  0
  152.5335  136.9354  158.6043 H   0  0  0  0  0  0  0  0  0  0  0  0
  152.3257  138.1705  159.8213 H   0  0  0  0  0  0  0  0  0  0  0  0
  153.8164  138.4964  157.1718 H   0  0  0  0  0  0  0  0  0  0  0  0
  152.3180  140.0971  160.0046 H   0  0  0  0  0  0  0  0  0  0  0  0
  153.2458  142.4746  158.3656 H   0  0  0  0  0  0  0  0  0  0  0  0
  151.6165  141.8106  158.4478 H   0  0  0  0  0  0  0  0  0  0  0  0
  152.3774  143.9306  160.0135 H   0  0  0  0  0  0  0  0  0  0  0  0
  151.2732  142.7099  160.6317 H   0  0  0  0  0  0  0  0  0  0  0  0
  154.0097  143.2163  161.5538 H   0  0  0  0  0  0  0  0  0  0  0  0
  152.7945  142.1405  162.2285 H   0  0  0  0  0  0  0  0  0  0  0  0
  154.2555  140.4481  161.4554 H   0  0  0  0  0  0  0  0  0  0  0  0
  154.9877  141.5364  160.2854 H   0  0  0  0  0  0  0  0  0  0  0  0
  152.7845  140.5821  156.0987 H   0  0  0  0  0  0  0  0  0  0  0  0
  150.2284  141.4962  156.3774 H   0  0  0  0  0  0  0  0  0  0  0  0
  151.0372  141.3729  154.8318 H   0  0  0  0  0  0  0  0  0  0  0  0
  150.2169  139.0099  154.5900 H   0  0  0  0  0  0  0  0  0  0  0  0
  149.4675  139.0945  156.1573 H   0  0  0  0  0  0  0  0  0  0  0  0
  148.1045  139.0335  152.8076 H   0  0  0  0  0  0  0  0  0  0  0  0
  145.7889  143.1769  154.9839 H   0  0  0  0  0  0  0  0  0  0  0  0
  144.6816  141.9612  154.3145 H   0  0  0  0  0  0  0  0  0  0  0  0
  145.6269  143.0012  153.2255 H   0  0  0  0  0  0  0  0  0  0  0  0
  147.8396  141.9752  155.9349 H   0  0  0  0  0  0  0  0  0  0  0  0
  1  2  1  0  0  0  0
  1 21  1  0  0  0  0
  1 22  1  0  0  0  0
  1 23  1  0  0  0  0
  2  3  1  0  0  0  0
  2 24  1  0  0  0  0
  2 25  1  0  0  0  0
  3  4  1  0  0  0  0
  3 10  1  0  0  0  0
  3 26  1  0  0  0  0
  4  5  1  0  0  0  0
  5  9  1  0  0  0  0
  5  6  1  0  0  0  0
  5 27  1  0  0  0  0
  6  7  1  0  0  0  0
  6 28  1  0  0  0  0
  6 29  1  0  0  0  0
  7  8  1  0  0  0  0
  7 30  1  0  0  0  0
  7 31  1  0  0  0  0
  8  9  1  0  0  0  0
  8 32  1  0  0  0  0
  8 33  1  0  0  0  0
  9 34  1  0  0  0  0
  9 35  1  0  0  0  0
 10 11  2  0  0  0  0
 10 12  1  0  0  0  0
 12 13  1  0  0  0  0
 12 36  1  0  0  0  0
 13 14  1  0  0  0  0
 13 37  1  0  0  0  0
 13 38  1  0  0  0  0
 14 15  1  0  0  0  0
 14 39  1  0  0  0  0
 14 40  1  0  0  0  0
 15 20  2  0  0  0  0
 15 16  1  0  0  0  0
 16 17  2  0  0  0  0
 16 41  1  0  0  0  0
 17 18  1  0  0  0  0
 18 19  1  0  0  0  0
 18 20  1  0  0  0  0
 19 42  1  0  0  0  0
 19 43  1  0  0  0  0
 19 44  1  0  0  0  0
 20 45  1  0  0  0  0
M  END
> <s_m_source_file>
AV-unprocessed.smi

> <i_m_source_file_index>
3050

> <i_lp_mmshare_version>
43012

> <i_f3d_flags>
0

> <s_epik_input>
W0NIMl0xW0NIMl1bQ0gyXVtDSDJdW0NIXTFPW0NAQEhdKFtDSDJdW0NIM10pQyg9TylbTkhdW0NIMl1bQ0gyXWMyW2NIXW5uKFtDSDNdKVtjSF0y

> <s_epik_cmdline>
J2VwaWtfcHl0aG9uJywgJy1waCcsICc3LjAnLCAnLXRuJywgJzgnLCAnLW1hJywgJzIwMCcsICctbWV0YWxfYmluZGluZycsICctaW1hZScsICc8aW5maWxlLm1hZT4nLCAnLW9tYWUnLCAnPG91dGZpbGUubWFlPic=

> <r_lp_tautomer_probability>
1

> <r_epik_Ionization_Penalty>
0.000440265

> <r_epik_Ionization_Penalty_Charging>
0

> <r_epik_Ionization_Penalty_Neutral>
0.000440265

> <r_epik_State_Penalty>
-0

> <r_epik_Charging_Adjusted_Penalty>
0

> <i_epik_Tot_Q>
0

> <i_epik_Tot_abs_Q>
0

> <r_epik_Metal_State_Penalty>
-0

> <b_epik_Metal_Only>
0

> <s_lp_Force_Field>
OPLS_2005

> <r_lp_Energy>
20.5357

> <b_lp_Chiralities_Consistent>
1

> <s_lp_Variant>
AV-unprocessed.smi:3050-1

> <Gold.Version>
5.8.1

> <Gold.Id.Protein>
6NUR|6NUR_protein|mol2

> <Gold.PLP.Fitness>
45.7039

> <Gold.PLP.PLP>
-39.8213

> <Gold.PLP.part.hbond>
-1.0000

> <Gold.PLP.part.metal>
0.0000

> <Gold.PLP.part.buried>
-2.0333

> <Gold.PLP.part.nonpolar>
-35.4097

> <Gold.PLP.part.repulsive>
0.3415

> <Gold.PLP.ligand.clash>
0.0000

> <Gold.PLP.ligand.torsion>
0.8154

> <Gold.PLP.Chemscore.Hbond>
1.0000

> <Gold.PLP.Chemscore.CHOScore>
1.4396

> <Gold.PLP.Chemscore.Metal>
0.0000

> <Gold.Chemscore.Hbonds>
donor molecule, donor type, donor heavy atom, donor atom, acceptor molecule, acceptor atom, score
      P1  H  7997  8008       L1     4  0.44
      L1  C    16    41       P1  7957  0.51

> <Gold.PLP.Chemscore.Internal.Correction>
0.1948

> <Gold.Rescore>
     Score         DG    S(hbond)    S(metal)    S(lipo)     H(rot)  DE(clash)    DE(int)     intcor
     12.45     -14.64       0.74        0.00      97.05       1.83       0.06       2.13       ----

> <Gold.Chemscore.Fitness>
12.4503

> <Gold.Chemscore.DG>
-14.6403

> <Gold.Chemscore.ZeroCoef>
-5.4800

> <Gold.Chemscore.Hbond>
0.7445

> <Gold.Chemscore.Metal>
0.0000

> <Gold.Chemscore.Lipo>
97.0500

> <Gold.Chemscore.Internal_Hbond>
0.0000

> <Gold.Chemscore.DEClash>
0.0588

> <Gold.Chemscore.DEInternal>
2.1312

> <Gold.Chemscore.Rot>
1.8286

> <Gold.Chemscore.Internal.Correction>
   9.000000E+99

> <Gold.Chemscore.Hbonds>
donor molecule, donor type, donor heavy atom, donor atom, acceptor molecule, acceptor atom, score
      P1  H  7997  8008       L1     4  0.01

> <Gold.Chemscore.Hbond.Weighted>
-2.4866

> <Gold.Chemscore.Metal.Weighted>
-0.0000

> <Gold.Chemscore.Lipo.Weighted>
-11.3549

> <Gold.Chemscore.Internal_Hbond.Weighted>
0.0000

> <Gold.Chemscore.DEClash.Weighted>
0.0588

> <Gold.Chemscore.DEInternal.Weighted>
2.1312

> <Gold.Chemscore.Rot.Weighted>
4.6811

> <Gold.Chemscore.Internal.Correction.Weighted>
   9.000000E+99

> <Gold.Protein.RotatedTorsions>
[ 6907 6896 6895 6894 ] final   50.79 input  -60.11 | X-H torsion
[ 7974 7965 7964 7962 ] final  -11.29 input  175.53 | X-H torsion
[ 8008 7997 7996 7995 ] final -109.58 input   59.86 | X-H torsion
[ 10167 10162 10161 10158 ] final   46.37 input  -65.29 | X-H torsion
[ 10718 10713 10712 10709 ] final  119.43 input   66.30 | X-H torsion
[ 10763 10752 10751 10750 ] final  -92.85 input  -60.55 | X-H torsion
[ 11005 11000 10999 10996 ] final  124.69 input  -57.11 | X-H torsion

> <Gold.Protein.ActiveResidues>
 VAL166  LYS551  ARG553  GLY616  TRP617  ASP618  TYR619  PRO620  LYS621  CYS622 
 ASP623  PHE694  ASN695  SER759  ASP760  ASP761  ALA762  ILE779  LEU786  VAL792 
 PHE793  MET794  SER795  GLU796  ALA797  LYS798  CYS799  TRP800  GLU811  SER814 

> <Gold.Protein.RotatedAtoms>
  152.3057  134.7558  160.0347 H   0  0  0  0  0  0  0  0  0  0  0  0  # atno 6907 bound_to 6896
  151.8056  133.3370  159.3548 H   0  0  0  0  0  0  0  0  0  0  0  0  # atno 6908 bound_to 6896
  150.7295  134.5642  159.5902 H   0  0  0  0  0  0  0  0  0  0  0  0  # atno 6909 bound_to 6896
  146.2192  140.2889  142.8367 H   0  0  0  0  0  0  0  0  0  0  0  0  # atno 7974 bound_to 7965
  154.9615  140.0399  157.2192 H   0  0  0  0  0  0  0  0  0  0  0  0  # atno 8008 bound_to 7997
  154.7884  140.2831  155.5988 H   0  0  0  0  0  0  0  0  0  0  0  0  # atno 8009 bound_to 7997
  156.2946  140.2578  156.2726 H   0  0  0  0  0  0  0  0  0  0  0  0  # atno 8010 bound_to 7997
  140.3146  144.2779  150.6193 H   0  0  0  0  0  0  0  0  0  0  0  0  # atno 10167 bound_to 10162
  157.5962  131.1057  150.7895 H   0  0  0  0  0  0  0  0  0  0  0  0  # atno 10718 bound_to 10713
  154.6902  135.5216  153.8381 H   0  0  0  0  0  0  0  0  0  0  0  0  # atno 10763 bound_to 10752
  153.0626  135.6574  154.0436 H   0  0  0  0  0  0  0  0  0  0  0  0  # atno 10764 bound_to 10752
  154.0311  135.2985  155.3348 H   0  0  0  0  0  0  0  0  0  0  0  0  # atno 10765 bound_to 10752
  139.9371  134.9639  156.8447 H   0  0  0  0  0  0  0  0  0  0  0  0  # atno 11005 bound_to 11000
  144.9141  140.7792  143.5789 LP  0  0  0  0  0  0  0  0  0  0  0  0  # atno 17320 bound_to 7965
  145.2821  139.1914  143.4785 LP  0  0  0  0  0  0  0  0  0  0  0  0  # atno 17321 bound_to 7965
  140.5538  143.2202  151.7882 LP  0  0  0  0  0  0  0  0  0  0  0  0  # atno 17342 bound_to 10162
  139.4886  144.4441  151.9730 LP  0  0  0  0  0  0  0  0  0  0  0  0  # atno 17343 bound_to 10162
  156.8305  130.5014  149.5332 LP  0  0  0  0  0  0  0  0  0  0  0  0  # atno 17370 bound_to 10713
  156.1025  130.5980  150.9918 LP  0  0  0  0  0  0  0  0  0  0  0  0  # atno 17371 bound_to 10713
  140.6048  134.0138  155.7552 LP  0  0  0  0  0  0  0  0  0  0  0  0  # atno 17394 bound_to 11000
  141.0989  133.9799  157.3112 LP  0  0  0  0  0  0  0  0  0  0  0  0  # atno 17395 bound_to 11000

$$$$
