AV-unprocessed.smi:1830|AV-procd|sdf|7447|dock4
  -GOLD-   22720 9133D 1   1.00000     0.00000
 Structure written by MMmdl.
 54 57  0  0  0  0  0  0  0  0  3 V2000
  150.6224  134.3920  155.3749 O   0  0  0  0  0  0  0  0  0  0  0  0
  149.9110  134.9244  154.5237 C   0  0  0  0  0  0  0  0  0  0  0  0
  149.8928  136.2446  154.2948 N   0  0  0  0  0  0  0  0  0  0  0  0
  150.6754  137.2327  155.0318 C   0  0  0  0  0  0  0  0  0  0  0  0
  150.5253  138.6603  154.4696 C   0  0  1  0  0  0  0  0  0  0  0  0
  149.1497  138.9192  153.8281 C   0  0  0  0  0  0  0  0  0  0  0  0
  149.0238  140.3221  153.3569 N   0  3  1  0  0  0  0  0  0  0  0  0
  147.6275  140.6755  153.0162 C   0  0  0  0  0  0  0  0  0  0  0  0
  147.0488  141.4182  154.2345 C   0  0  0  0  0  0  0  0  0  0  0  0
  148.2058  141.5433  155.2319 C   0  0  0  0  0  0  0  0  0  0  0  0
  149.4461  141.3156  154.3684 C   0  0  1  0  0  0  0  0  0  0  0  0
  150.7309  140.9145  155.1207 C   0  0  0  0  0  0  0  0  0  0  0  0
  150.6715  139.5639  155.5565 O   0  0  0  0  0  0  0  0  0  0  0  0
  149.0782  134.2725  153.6955 N   0  0  0  0  0  0  0  0  0  0  0  0
  148.8628  132.8681  153.6025 C   0  0  0  0  0  0  0  0  0  0  0  0
  149.6938  131.9380  154.2785 C   0  0  0  0  0  0  0  0  0  0  0  0
  149.4180  130.5601  154.1907 C   0  0  0  0  0  0  0  0  0  0  0  0
  148.3096  130.1328  153.4384 C   0  0  0  0  0  0  0  0  0  0  0  0
  147.5293  131.0438  152.8206 N   0  3  0  0  0  0  0  0  0  0  0  0
  147.7450  132.3817  152.8699 C   0  0  0  0  0  0  0  0  0  0  0  0
  146.8744  133.2395  152.1639 N   0  0  0  0  0  0  0  0  0  0  0  0
  146.9007  133.0663  150.7140 C   0  0  0  0  0  0  0  0  0  0  0  0
  145.4779  133.3352  150.2212 C   0  0  0  0  0  0  0  0  0  0  0  0
  144.6211  132.9573  151.4231 C   0  0  0  0  0  0  0  0  0  0  0  0
  145.4878  133.3981  152.6016 C   0  0  0  0  0  0  0  0  0  0  0  0
  149.2781  136.5973  153.5754 H   0  0  0  0  0  0  0  0  0  0  0  0
  150.3525  137.2090  156.0731 H   0  0  0  0  0  0  0  0  0  0  0  0
  151.7261  136.9378  155.0303 H   0  0  0  0  0  0  0  0  0  0  0  0
  151.3164  138.8420  153.7399 H   0  0  0  0  0  0  0  0  0  0  0  0
  148.9885  138.2523  152.9804 H   0  0  0  0  0  0  0  0  0  0  0  0
  148.3660  138.7010  154.5556 H   0  0  0  0  0  0  0  0  0  0  0  0
  147.6439  141.3440  152.1546 H   0  0  0  0  0  0  0  0  0  0  0  0
  147.0320  139.8049  152.7370 H   0  0  0  0  0  0  0  0  0  0  0  0
  146.6880  142.4032  153.9363 H   0  0  0  0  0  0  0  0  0  0  0  0
  146.2088  140.8807  154.6753 H   0  0  0  0  0  0  0  0  0  0  0  0
  148.2198  142.5069  155.7422 H   0  0  0  0  0  0  0  0  0  0  0  0
  148.1265  140.7649  155.9922 H   0  0  0  0  0  0  0  0  0  0  0  0
  149.6454  142.2478  153.8366 H   0  0  0  0  0  0  0  0  0  0  0  0
  151.6021  141.0466  154.4773 H   0  0  0  0  0  0  0  0  0  0  0  0
  150.8822  141.5637  155.9832 H   0  0  0  0  0  0  0  0  0  0  0  0
  148.6241  134.8309  152.9874 H   0  0  0  0  0  0  0  0  0  0  0  0
  150.5310  132.2614  154.8785 H   0  0  0  0  0  0  0  0  0  0  0  0
  150.0446  129.8422  154.6998 H   0  0  0  0  0  0  0  0  0  0  0  0
  148.0224  129.0986  153.3161 H   0  0  0  0  0  0  0  0  0  0  0  0
  147.6138  133.7447  150.2455 H   0  0  0  0  0  0  0  0  0  0  0  0
  147.1954  132.0455  150.4652 H   0  0  0  0  0  0  0  0  0  0  0  0
  145.3553  134.3967  150.0012 H   0  0  0  0  0  0  0  0  0  0  0  0
  145.2262  132.7724  149.3219 H   0  0  0  0  0  0  0  0  0  0  0  0
  143.6400  133.4325  151.4163 H   0  0  0  0  0  0  0  0  0  0  0  0
  144.4759  131.8766  151.4508 H   0  0  0  0  0  0  0  0  0  0  0  0
  145.2298  132.8597  153.5132 H   0  0  0  0  0  0  0  0  0  0  0  0
  145.3251  134.4570  152.8048 H   0  0  0  0  0  0  0  0  0  0  0  0
  149.6081  140.4211  152.5390 H   0  0  0  0  0  0  0  0  0  0  0  0
  146.7321  130.7042  152.2821 H   0  0  0  0  0  0  0  0  0  0  0  0
  1  2  2  0  0  0  0
  2  3  1  0  0  0  0
  2 14  1  0  0  0  0
  3  4  1  0  0  0  0
  3 26  1  0  0  0  0
  4  5  1  0  0  0  0
  4 27  1  0  0  0  0
  4 28  1  0  0  0  0
  5 13  1  0  0  0  0
  5  6  1  0  0  0  0
  5 29  1  0  0  0  0
  6  7  1  0  0  0  0
  6 30  1  0  0  0  0
  6 31  1  0  0  0  0
  7 11  1  0  0  0  0
  7  8  1  0  0  0  0
  7 53  1  0  0  0  0
  8  9  1  0  0  0  0
  8 32  1  0  0  0  0
  8 33  1  0  0  0  0
  9 10  1  0  0  0  0
  9 34  1  0  0  0  0
  9 35  1  0  0  0  0
 10 11  1  0  0  0  0
 10 36  1  0  0  0  0
 10 37  1  0  0  0  0
 11 12  1  0  0  0  0
 11 38  1  0  0  0  0
 12 13  1  0  0  0  0
 12 39  1  0  0  0  0
 12 40  1  0  0  0  0
 14 15  1  0  0  0  0
 14 41  1  0  0  0  0
 15 20  1  0  0  0  0
 15 16  2  0  0  0  0
 16 17  1  0  0  0  0
 16 42  1  0  0  0  0
 17 18  2  0  0  0  0
 17 43  1  0  0  0  0
 18 19  1  0  0  0  0
 18 44  1  0  0  0  0
 19 20  2  0  0  0  0
 19 54  1  0  0  0  0
 20 21  1  0  0  0  0
 21 25  1  0  0  0  0
 21 22  1  0  0  0  0
 22 23  1  0  0  0  0
 22 45  1  0  0  0  0
 22 46  1  0  0  0  0
 23 24  1  0  0  0  0
 23 47  1  0  0  0  0
 23 48  1  0  0  0  0
 24 25  1  0  0  0  0
 24 49  1  0  0  0  0
 24 50  1  0  0  0  0
 25 51  1  0  0  0  0
 25 52  1  0  0  0  0
M  CHG  1   7   1
M  CHG  1  19   1
M  END
> <s_m_source_file>
AV-unprocessed.smi

> <i_m_source_file_index>
1830

> <i_lp_mmshare_version>
43012

> <i_f3d_flags>
0

> <s_epik_input>
W0NIMl0xW0NIMl1bQ0gyXVtDQEhdKE4xMilbQ0gyXU9bQ0BASF0oW0NIMl0yKVtDSDJdW05IXUMoPU8pW05IXWMzW2NIXVtjSF1bY0hdbmMzTjRbQ0gyXVtDSDJdW0NIMl1bQ0gyXTQ=

> <s_epik_cmdline>
J2VwaWtfcHl0aG9uJywgJy1waCcsICc3LjAnLCAnLXRuJywgJzgnLCAnLW1hJywgJzIwMCcsICctbWV0YWxfYmluZGluZycsICctaW1hZScsICc8aW5maWxlLm1hZT4nLCAnLW9tYWUnLCAnPG91dGZpbGUubWFlPic=

> <r_lp_tautomer_probability>
0.999994

> <r_epik_Ionization_Penalty>
1.29113

> <r_epik_Ionization_Penalty_Charging>
1.29111

> <r_epik_Ionization_Penalty_Neutral>
1.88144e-05

> <r_epik_State_Penalty>
1.32676

> <r_epik_Charging_Adjusted_Penalty>
2.61787

> <i_epik_Tot_Q>
2

> <i_epik_Tot_abs_Q>
2

> <r_epik_Metal_State_Penalty>
1.40425

> <b_epik_Metal_Only>
0

> <s_lp_Force_Field>
OPLS_2005

> <r_lp_Energy>
75.2676

> <b_lp_Chiralities_Consistent>
1

> <s_lp_Variant>
AV-unprocessed.smi:1830-16

> <Gold.Version>
5.8.1

> <Gold.Id.Protein>
6NUR|6NUR_protein|mol2

> <Gold.PLP.Fitness>
49.7539

> <Gold.PLP.PLP>
-43.5305

> <Gold.PLP.part.hbond>
-4.1169

> <Gold.PLP.part.metal>
0.0000

> <Gold.PLP.part.buried>
-4.0918

> <Gold.PLP.part.nonpolar>
-36.0799

> <Gold.PLP.part.repulsive>
0.3988

> <Gold.PLP.ligand.clash>
0.0000

> <Gold.PLP.ligand.torsion>
0.5045

> <Gold.PLP.Chemscore.Hbond>
2.3520

> <Gold.PLP.Chemscore.CHOScore>
0.0000

> <Gold.PLP.Chemscore.Metal>
0.0000

> <Gold.Chemscore.Hbonds>
donor molecule, donor type, donor heavy atom, donor atom, acceptor molecule, acceptor atom, score
      L1  H     3    26       P1  7948  0.70
      L1  H     7    53       P1  7957  0.60
      L1  H    14    41       P1  7948  0.80

> <Gold.PLP.Chemscore.Internal.Correction>
0.1764

> <Gold.Rescore>
     Score         DG    S(hbond)    S(metal)    S(lipo)     H(rot)  DE(clash)    DE(int)     intcor
     16.90     -19.02       1.85        0.00      94.05       1.43       0.14       1.99       ----

> <Gold.Chemscore.Fitness>
16.8986

> <Gold.Chemscore.DG>
-19.0223

> <Gold.Chemscore.ZeroCoef>
-5.4800

> <Gold.Chemscore.Hbond>
1.8544

> <Gold.Chemscore.Metal>
0.0000

> <Gold.Chemscore.Lipo>
94.0487

> <Gold.Chemscore.Internal_Hbond>
0.0000

> <Gold.Chemscore.DEClash>
0.1376

> <Gold.Chemscore.DEInternal>
1.9861

> <Gold.Chemscore.Rot>
1.4278

> <Gold.Chemscore.Internal.Correction>
   9.000000E+99

> <Gold.Chemscore.Hbonds>
donor molecule, donor type, donor heavy atom, donor atom, acceptor molecule, acceptor atom, score
      L1  H     3    26       P1  7948  0.66
      L1  H     7    53       P1  7957  0.58
      L1  H    14    41       P1  7948  0.28

> <Gold.Chemscore.Hbond.Weighted>
-6.1937

> <Gold.Chemscore.Metal.Weighted>
-0.0000

> <Gold.Chemscore.Lipo.Weighted>
-11.0037

> <Gold.Chemscore.Internal_Hbond.Weighted>
0.0000

> <Gold.Chemscore.DEClash.Weighted>
0.1376

> <Gold.Chemscore.DEInternal.Weighted>
1.9861

> <Gold.Chemscore.Rot.Weighted>
3.6551

> <Gold.Chemscore.Internal.Correction.Weighted>
   9.000000E+99

> <Gold.Protein.RotatedTorsions>
[ 6907 6896 6895 6894 ] final   55.60 input  -60.11 | X-H torsion
[ 7974 7965 7964 7962 ] final  140.36 input  175.53 | X-H torsion
[ 8008 7997 7996 7995 ] final   40.15 input   59.86 | X-H torsion
[ 10167 10162 10161 10158 ] final -138.46 input  -65.29 | X-H torsion
[ 10718 10713 10712 10709 ] final  -52.08 input   66.30 | X-H torsion
[ 10763 10752 10751 10750 ] final   78.36 input  -60.55 | X-H torsion
[ 11005 11000 10999 10996 ] final   90.24 input  -57.11 | X-H torsion

> <Gold.Protein.ActiveResidues>
 VAL166  LYS551  ARG553  GLY616  TRP617  ASP618  TYR619  PRO620  LYS621  CYS622 
 ASP623  PHE694  ASN695  SER759  ASP760  ASP761  ALA762  ILE779  LEU786  VAL792 
 PHE793  MET794  SER795  GLU796  ALA797  LYS798  CYS799  TRP800  GLU811  SER814 

> <Gold.Protein.RotatedAtoms>
  152.3554  134.6947  160.0223 H   0  0  0  0  0  0  0  0  0  0  0  0  # atno 6907 bound_to 6896
  151.7287  133.3311  159.3342 H   0  0  0  0  0  0  0  0  0  0  0  0  # atno 6908 bound_to 6896
  150.7568  134.6316  159.6234 H   0  0  0  0  0  0  0  0  0  0  0  0  # atno 6909 bound_to 6896
  144.9193  139.5188  143.5671 H   0  0  0  0  0  0  0  0  0  0  0  0  # atno 7974 bound_to 7965
  155.2485  140.3350  155.4284 H   0  0  0  0  0  0  0  0  0  0  0  0  # atno 8008 bound_to 7997
  156.2226  140.1815  156.7485 H   0  0  0  0  0  0  0  0  0  0  0  0  # atno 8009 bound_to 7997
  154.5848  140.0647  156.9141 H   0  0  0  0  0  0  0  0  0  0  0  0  # atno 8010 bound_to 7997
  139.8476  143.7240  152.2660 H   0  0  0  0  0  0  0  0  0  0  0  0  # atno 10167 bound_to 10162
  156.1653  130.4149  149.9730 H   0  0  0  0  0  0  0  0  0  0  0  0  # atno 10718 bound_to 10713
  153.0869  135.4880  154.8614 H   0  0  0  0  0  0  0  0  0  0  0  0  # atno 10763 bound_to 10752
  154.7221  135.3041  154.9032 H   0  0  0  0  0  0  0  0  0  0  0  0  # atno 10764 bound_to 10752
  153.9694  135.6803  153.4800 H   0  0  0  0  0  0  0  0  0  0  0  0  # atno 10765 bound_to 10752
  139.8860  134.8602  156.3257 H   0  0  0  0  0  0  0  0  0  0  0  0  # atno 11005 bound_to 11000
  146.3197  139.8061  142.8955 LP  0  0  0  0  0  0  0  0  0  0  0  0  # atno 17320 bound_to 7965
  145.3322  141.0269  143.3440 LP  0  0  0  0  0  0  0  0  0  0  0  0  # atno 17321 bound_to 7965
  139.7497  144.7537  151.0526 LP  0  0  0  0  0  0  0  0  0  0  0  0  # atno 17342 bound_to 10162
  140.7791  143.4875  150.9937 LP  0  0  0  0  0  0  0  0  0  0  0  0  # atno 17343 bound_to 10162
  156.7547  130.9128  151.3639 LP  0  0  0  0  0  0  0  0  0  0  0  0  # atno 17370 bound_to 10713
  157.6763  130.9097  150.0158 LP  0  0  0  0  0  0  0  0  0  0  0  0  # atno 17371 bound_to 10713
  140.9757  133.7299  156.0598 LP  0  0  0  0  0  0  0  0  0  0  0  0  # atno 17394 bound_to 11000
  140.7814  134.3721  157.5486 LP  0  0  0  0  0  0  0  0  0  0  0  0  # atno 17395 bound_to 11000

$$$$
