AV-unprocessed.smi:835|AV-procd|sdf|3886|dock8
  -GOLD-   22720 1343D 1   1.00000     0.00000
 Structure written by MMmdl.
 41 43  0  0  0  0  0  0  0  0  2 V2000
  147.0591  138.6580  152.5500 C   0  0  0  0  0  0  0  0  0  0  0  0
  147.3200  139.9159  153.3248 C   0  0  0  0  0  0  0  0  0  0  0  0
  148.3779  140.1776  154.2434 C   0  0  0  0  0  0  0  0  0  0  0  0
  148.1214  141.4618  154.6394 C   0  0  0  0  0  0  0  0  0  0  0  0
  148.8194  142.2425  155.5064 N   0  0  0  0  0  0  0  0  0  0  0  0
  149.4489  141.8798  156.6374 C   0  0  0  0  0  0  0  0  0  0  0  0
  149.4892  140.7391  157.0989 O   0  0  0  0  0  0  0  0  0  0  0  0
  150.0336  142.9316  157.2282 N   0  0  0  0  0  0  0  0  0  0  0  0
  150.7731  142.8688  158.4844 C   0  0  2  0  0  0  0  0  0  0  0  0
  151.3872  144.1942  158.9251 C   0  0  0  0  0  0  0  0  0  0  0  0
  152.4798  143.7461  159.9019 C   0  0  0  0  0  0  0  0  0  0  0  0
  152.9008  142.3872  159.4781 N   0  3  1  0  0  0  0  0  0  0  0  0
  152.9772  141.4181  160.5928 C   0  0  0  0  0  0  0  0  0  0  0  0
  153.5637  141.9990  161.8572 C   0  0  0  0  0  0  0  0  0  0  0  0
  154.3906  141.0699  160.9950 C   0  0  0  0  0  0  0  0  0  0  0  0
  151.9996  141.9631  158.3836 C   0  0  0  0  0  0  0  0  0  0  0  0
  146.9953  141.9127  153.9879 N   0  0  0  0  0  0  0  0  0  0  0  0
  146.3358  143.2012  154.0717 C   0  0  0  0  0  0  0  0  0  0  0  0
  146.5014  140.9516  153.1775 N   0  0  0  0  0  0  0  0  0  0  0  0
  147.7876  137.8853  152.7966 H   0  0  0  0  0  0  0  0  0  0  0  0
  147.1183  138.8387  151.4767 H   0  0  0  0  0  0  0  0  0  0  0  0
  146.0676  138.2605  152.7681 H   0  0  0  0  0  0  0  0  0  0  0  0
  149.1810  139.5214  154.5429 H   0  0  0  0  0  0  0  0  0  0  0  0
  148.8434  143.2247  155.2754 H   0  0  0  0  0  0  0  0  0  0  0  0
  149.9562  143.8344  156.7829 H   0  0  0  0  0  0  0  0  0  0  0  0
  150.1217  142.4904  159.2752 H   0  0  0  0  0  0  0  0  0  0  0  0
  151.8366  144.7072  158.0731 H   0  0  0  0  0  0  0  0  0  0  0  0
  150.6629  144.8690  159.3825 H   0  0  0  0  0  0  0  0  0  0  0  0
  153.3262  144.4333  159.9123 H   0  0  0  0  0  0  0  0  0  0  0  0
  152.0702  143.7152  160.9129 H   0  0  0  0  0  0  0  0  0  0  0  0
  152.1878  140.6697  160.6411 H   0  0  0  0  0  0  0  0  0  0  0  0
  153.8339  143.0535  161.8626 H   0  0  0  0  0  0  0  0  0  0  0  0
  153.2018  141.6075  162.8058 H   0  0  0  0  0  0  0  0  0  0  0  0
  154.5719  140.0669  161.3762 H   0  0  0  0  0  0  0  0  0  0  0  0
  155.2101  141.5064  160.4264 H   0  0  0  0  0  0  0  0  0  0  0  0
  151.7410  140.9040  158.4331 H   0  0  0  0  0  0  0  0  0  0  0  0
  152.5202  142.1303  157.4392 H   0  0  0  0  0  0  0  0  0  0  0  0
  146.1170  143.4346  155.1141 H   0  0  0  0  0  0  0  0  0  0  0  0
  145.4008  143.1913  153.5097 H   0  0  0  0  0  0  0  0  0  0  0  0
  146.9879  143.9729  153.6620 H   0  0  0  0  0  0  0  0  0  0  0  0
  153.8281  142.4601  159.0845 H   0  0  0  0  0  0  0  0  0  0  0  0
  1  2  1  0  0  0  0
  1 20  1  0  0  0  0
  1 21  1  0  0  0  0
  1 22  1  0  0  0  0
  2 19  2  0  0  0  0
  2  3  1  0  0  0  0
  3  4  2  0  0  0  0
  3 23  1  0  0  0  0
  4  5  1  0  0  0  0
  4 17  1  0  0  0  0
  5  6  1  0  0  0  0
  5 24  1  0  0  0  0
  6  7  2  0  0  0  0
  6  8  1  0  0  0  0
  8  9  1  0  0  0  0
  8 25  1  0  0  0  0
  9 16  1  0  0  0  0
  9 10  1  0  0  0  0
  9 26  1  0  0  0  0
 10 11  1  0  0  0  0
 10 27  1  0  0  0  0
 10 28  1  0  0  0  0
 11 12  1  0  0  0  0
 11 29  1  0  0  0  0
 11 30  1  0  0  0  0
 12 13  1  0  0  0  0
 12 16  1  0  0  0  0
 12 41  1  0  0  0  0
 13 15  1  0  0  0  0
 13 14  1  0  0  0  0
 13 31  1  0  0  0  0
 14 15  1  0  0  0  0
 14 32  1  0  0  0  0
 14 33  1  0  0  0  0
 15 34  1  0  0  0  0
 15 35  1  0  0  0  0
 16 36  1  0  0  0  0
 16 37  1  0  0  0  0
 17 18  1  0  0  0  0
 17 19  1  0  0  0  0
 18 38  1  0  0  0  0
 18 39  1  0  0  0  0
 18 40  1  0  0  0  0
M  CHG  1  12   1
M  END
> <s_m_source_file>
AV-unprocessed.smi

> <i_m_source_file_index>
835

> <i_lp_mmshare_version>
43012

> <i_f3d_flags>
0

> <s_epik_input>
W0NIM11jMVtjSF1jKG4objEpW0NIM10pW05IXUMoPU8pW05IXVtDQEBIXTJbQ0gyXVtDSDJdTihbQ0gyXTIpW0NIXTNbQ0gyXVtDSDJdMw==

> <s_epik_cmdline>
J2VwaWtfcHl0aG9uJywgJy1waCcsICc3LjAnLCAnLXRuJywgJzgnLCAnLW1hJywgJzIwMCcsICctbWV0YWxfYmluZGluZycsICctaW1hZScsICc8aW5maWxlLm1hZT4nLCAnLW9tYWUnLCAnPG91dGZpbGUubWFlPic=

> <r_lp_tautomer_probability>
1

> <r_epik_Ionization_Penalty>
0.000700689

> <r_epik_Ionization_Penalty_Charging>
0.000627528

> <r_epik_Ionization_Penalty_Neutral>
7.31611e-05

> <r_epik_State_Penalty>
0.00039643

> <r_epik_Charging_Adjusted_Penalty>
0.00102396

> <i_epik_Tot_Q>
1

> <i_epik_Tot_abs_Q>
1

> <r_epik_Metal_State_Penalty>
-0

> <b_epik_Metal_Only>
0

> <s_lp_Force_Field>
OPLS_2005

> <r_lp_Energy>
38.9836

> <b_lp_Chiralities_Consistent>
1

> <s_lp_Variant>
AV-unprocessed.smi:835-1

> <Gold.Version>
5.8.1

> <Gold.Id.Protein>
6NUR|6NUR_protein|mol2

> <Gold.PLP.Fitness>
44.2535

> <Gold.PLP.PLP>
-39.7429

> <Gold.PLP.part.hbond>
-1.8182

> <Gold.PLP.part.metal>
0.0000

> <Gold.PLP.part.buried>
-2.0579

> <Gold.PLP.part.nonpolar>
-36.9791

> <Gold.PLP.part.repulsive>
1.6998

> <Gold.PLP.ligand.clash>
0.0000

> <Gold.PLP.ligand.torsion>
1.1021

> <Gold.PLP.Chemscore.Hbond>
1.8160

> <Gold.PLP.Chemscore.CHOScore>
0.0000

> <Gold.PLP.Chemscore.Metal>
0.0000

> <Gold.Chemscore.Hbonds>
donor molecule, donor type, donor heavy atom, donor atom, acceptor molecule, acceptor atom, score
      L1  H     5    24       P1  8028  1.00
      L1  H     8    25       P1  8028  0.82

> <Gold.PLP.Chemscore.Internal.Correction>
1.2668

> <Gold.Rescore>
     Score         DG    S(hbond)    S(metal)    S(lipo)     H(rot)  DE(clash)    DE(int)     intcor
     17.60     -20.19       1.93        0.00      97.41       1.22       1.53       1.06       ----

> <Gold.Chemscore.Fitness>
17.6010

> <Gold.Chemscore.DG>
-20.1900

> <Gold.Chemscore.ZeroCoef>
-5.4800

> <Gold.Chemscore.Hbond>
1.9267

> <Gold.Chemscore.Metal>
0.0000

> <Gold.Chemscore.Lipo>
97.4102

> <Gold.Chemscore.Internal_Hbond>
0.0000

> <Gold.Chemscore.DEClash>
1.5257

> <Gold.Chemscore.DEInternal>
1.0633

> <Gold.Chemscore.Rot>
1.2196

> <Gold.Chemscore.Internal.Correction>
   9.000000E+99

> <Gold.Chemscore.Hbonds>
donor molecule, donor type, donor heavy atom, donor atom, acceptor molecule, acceptor atom, score
      L1  H     5    24       P1  8028  0.91
      L1  H     8    25       P1  8028  0.81

> <Gold.Chemscore.Hbond.Weighted>
-6.4353

> <Gold.Chemscore.Metal.Weighted>
-0.0000

> <Gold.Chemscore.Lipo.Weighted>
-11.3970

> <Gold.Chemscore.Internal_Hbond.Weighted>
0.0000

> <Gold.Chemscore.DEClash.Weighted>
1.5257

> <Gold.Chemscore.DEInternal.Weighted>
1.0633

> <Gold.Chemscore.Rot.Weighted>
3.1223

> <Gold.Chemscore.Internal.Correction.Weighted>
   9.000000E+99

> <Gold.Protein.RotatedTorsions>
[ 6907 6896 6895 6894 ] final   74.78 input  -60.11 | X-H torsion
[ 7974 7965 7964 7962 ] final   26.26 input  175.53 | X-H torsion
[ 8008 7997 7996 7995 ] final  -13.53 input   59.86 | X-H torsion
[ 10167 10162 10161 10158 ] final    1.15 input  -65.29 | X-H torsion
[ 10718 10713 10712 10709 ] final  175.45 input   66.30 | X-H torsion
[ 10763 10752 10751 10750 ] final -170.69 input  -60.55 | X-H torsion
[ 11005 11000 10999 10996 ] final  -84.00 input  -57.11 | X-H torsion

> <Gold.Protein.ActiveResidues>
 VAL166  LYS551  ARG553  GLY616  TRP617  ASP618  TYR619  PRO620  LYS621  CYS622 
 ASP623  PHE694  ASN695  SER759  ASP760  ASP761  ALA762  ILE779  LEU786  VAL792 
 PHE793  MET794  SER795  GLU796  ALA797  LYS798  CYS799  TRP800  GLU811  SER814 

> <Gold.Protein.RotatedAtoms>
  152.4993  134.4220  159.9483 H   0  0  0  0  0  0  0  0  0  0  0  0  # atno 6907 bound_to 6896
  151.4194  133.3697  159.2762 H   0  0  0  0  0  0  0  0  0  0  0  0  # atno 6908 bound_to 6896
  150.9234  134.8673  159.7563 H   0  0  0  0  0  0  0  0  0  0  0  0  # atno 6909 bound_to 6896
  146.1846  139.7352  142.8875 H   0  0  0  0  0  0  0  0  0  0  0  0  # atno 7974 bound_to 7965
  154.5284  140.2247  155.8848 H   0  0  0  0  0  0  0  0  0  0  0  0  # atno 8008 bound_to 7997
  156.1738  140.3116  155.8986 H   0  0  0  0  0  0  0  0  0  0  0  0  # atno 8009 bound_to 7997
  155.3502  140.0455  157.3036 H   0  0  0  0  0  0  0  0  0  0  0  0  # atno 8010 bound_to 7997
  140.6696  143.7085  150.7896 H   0  0  0  0  0  0  0  0  0  0  0  0  # atno 10167 bound_to 10162
  156.9348  130.9982  151.2980 H   0  0  0  0  0  0  0  0  0  0  0  0  # atno 10718 bound_to 10713
  154.6387  135.2896  155.0129 H   0  0  0  0  0  0  0  0  0  0  0  0  # atno 10763 bound_to 10752
  154.1264  135.6540  153.4917 H   0  0  0  0  0  0  0  0  0  0  0  0  # atno 10764 bound_to 10752
  153.0315  135.5300  154.7245 H   0  0  0  0  0  0  0  0  0  0  0  0  # atno 10765 bound_to 10752
  141.1654  133.7323  156.8803 H   0  0  0  0  0  0  0  0  0  0  0  0  # atno 11005 bound_to 11000
  145.3975  141.0381  143.3089 LP  0  0  0  0  0  0  0  0  0  0  0  0  # atno 17320 bound_to 7965
  144.8375  139.5526  143.6915 LP  0  0  0  0  0  0  0  0  0  0  0  0  # atno 17321 bound_to 7965
  140.0768  143.5007  152.2551 LP  0  0  0  0  0  0  0  0  0  0  0  0  # atno 17342 bound_to 10162
  139.5958  144.7566  151.3289 LP  0  0  0  0  0  0  0  0  0  0  0  0  # atno 17343 bound_to 10162
  157.5824  130.8385  149.8541 LP  0  0  0  0  0  0  0  0  0  0  0  0  # atno 17370 bound_to 10713
  156.0431  130.3734  150.1385 LP  0  0  0  0  0  0  0  0  0  0  0  0  # atno 17371 bound_to 10713
  140.1720  134.9093  157.2844 LP  0  0  0  0  0  0  0  0  0  0  0  0  # atno 17394 bound_to 11000
  140.2492  134.3704  155.7449 LP  0  0  0  0  0  0  0  0  0  0  0  0  # atno 17395 bound_to 11000

$$$$
