AV-unprocessed.smi:2288|AV-procd|sdf|9207|dock3
  -GOLD-   2272012423D 1   1.00000     0.00000
 Structure written by MMmdl.
 40 41  0  0  0  0  0  0  0  0  1 V2000
  154.0999  141.2491  160.2604 C   0  0  0  0  0  0  0  0  0  0  0  0
  152.9869  142.1400  159.7483 C   0  0  0  0  0  0  0  0  0  0  0  0
  152.9531  143.5077  160.0891 C   0  0  0  0  0  0  0  0  0  0  0  0
  151.9124  144.3308  159.6140 C   0  0  0  0  0  0  0  0  0  0  0  0
  151.8811  145.7984  159.9877 C   0  0  0  0  0  0  0  0  0  0  0  0
  150.9064  143.7838  158.7914 C   0  0  0  0  0  0  0  0  0  0  0  0
  150.9353  142.4174  158.4412 C   0  0  0  0  0  0  0  0  0  0  0  0
  149.8343  141.8400  157.5640 C   0  0  1  0  0  0  0  0  0  0  0  0
  148.6828  142.6612  157.5701 O   0  0  0  0  0  0  0  0  0  0  0  0
  150.3200  141.6784  156.1066 C   0  0  0  0  0  0  0  0  0  0  0  0
  149.4583  140.7751  155.3254 N   0  0  0  0  0  0  0  0  0  0  0  0
  148.7342  141.3606  154.2741 C   0  0  0  0  0  0  0  0  0  0  0  0
  147.9503  140.6633  153.5184 N   0  0  0  0  0  0  0  0  0  0  0  0
  147.8060  139.2909  153.7417 C   0  0  0  0  0  0  0  0  0  0  0  0
  146.8645  138.5677  152.7949 C   0  0  0  0  0  0  0  0  0  0  0  0
  148.4741  138.6641  154.7483 C   0  0  0  0  0  0  0  0  0  0  0  0
  148.3551  137.1733  155.0396 C   0  0  0  0  0  0  0  0  0  0  0  0
  149.3668  139.4458  155.6191 C   0  0  0  0  0  0  0  0  0  0  0  0
  149.9939  138.9454  156.5552 O   0  0  0  0  0  0  0  0  0  0  0  0
  151.9776  141.5979  158.9274 C   0  0  0  0  0  0  0  0  0  0  0  0
  154.8223  141.8131  160.8512 H   0  0  0  0  0  0  0  0  0  0  0  0
  154.6288  140.7881  159.4260 H   0  0  0  0  0  0  0  0  0  0  0  0
  153.6907  140.4570  160.8880 H   0  0  0  0  0  0  0  0  0  0  0  0
  153.7245  143.9283  160.7178 H   0  0  0  0  0  0  0  0  0  0  0  0
  150.9225  146.2522  159.7343 H   0  0  0  0  0  0  0  0  0  0  0  0
  152.6665  146.3384  159.4585 H   0  0  0  0  0  0  0  0  0  0  0  0
  152.0407  145.9222  161.0592 H   0  0  0  0  0  0  0  0  0  0  0  0
  150.1068  144.4140  158.4297 H   0  0  0  0  0  0  0  0  0  0  0  0
  149.5467  140.8721  157.9764 H   0  0  0  0  0  0  0  0  0  0  0  0
  148.8434  143.4045  157.0086 H   0  0  0  0  0  0  0  0  0  0  0  0
  150.4414  142.6548  155.6324 H   0  0  0  0  0  0  0  0  0  0  0  0
  151.3273  141.2570  156.1104 H   0  0  0  0  0  0  0  0  0  0  0  0
  148.8773  142.4349  154.1456 H   0  0  0  0  0  0  0  0  0  0  0  0
  147.3984  137.7945  152.2418 H   0  0  0  0  0  0  0  0  0  0  0  0
  146.4251  139.2543  152.0701 H   0  0  0  0  0  0  0  0  0  0  0  0
  146.0494  138.1016  153.3490 H   0  0  0  0  0  0  0  0  0  0  0  0
  147.9675  137.0172  156.0469 H   0  0  0  0  0  0  0  0  0  0  0  0
  149.3347  136.6983  154.9763 H   0  0  0  0  0  0  0  0  0  0  0  0
  147.6942  136.6520  154.3491 H   0  0  0  0  0  0  0  0  0  0  0  0
  152.0036  140.5480  158.6731 H   0  0  0  0  0  0  0  0  0  0  0  0
  1  2  1  0  0  0  0
  1 21  1  0  0  0  0
  1 22  1  0  0  0  0
  1 23  1  0  0  0  0
  2 20  1  0  0  0  0
  2  3  2  0  0  0  0
  3  4  1  0  0  0  0
  3 24  1  0  0  0  0
  4  5  1  0  0  0  0
  4  6  2  0  0  0  0
  5 25  1  0  0  0  0
  5 26  1  0  0  0  0
  5 27  1  0  0  0  0
  6  7  1  0  0  0  0
  6 28  1  0  0  0  0
  7  8  1  0  0  0  0
  7 20  2  0  0  0  0
  8  9  1  0  0  0  0
  8 10  1  0  0  0  0
  8 29  1  0  0  0  0
  9 30  1  0  0  0  0
 10 11  1  0  0  0  0
 10 31  1  0  0  0  0
 10 32  1  0  0  0  0
 11 18  1  0  0  0  0
 11 12  1  0  0  0  0
 12 13  2  0  0  0  0
 12 33  1  0  0  0  0
 13 14  1  0  0  0  0
 14 15  1  0  0  0  0
 14 16  2  0  0  0  0
 15 34  1  0  0  0  0
 15 35  1  0  0  0  0
 15 36  1  0  0  0  0
 16 17  1  0  0  0  0
 16 18  1  0  0  0  0
 17 37  1  0  0  0  0
 17 38  1  0  0  0  0
 17 39  1  0  0  0  0
 18 19  2  0  0  0  0
 20 40  1  0  0  0  0
M  END
> <s_m_source_file>
AV-unprocessed.smi

> <i_m_source_file_index>
2288

> <i_lp_mmshare_version>
43012

> <i_f3d_flags>
0

> <s_epik_input>
W0NIM11jMVtjSF1jKFtDSDNdKVtjSF1jKFtjSF0xKVtDQEhdKFtPSF0pW0NIMl1uMltjSF1uYyhbQ0gzXSljKFtDSDNdKWMyPU8=

> <s_epik_cmdline>
J2VwaWtfcHl0aG9uJywgJy1waCcsICc3LjAnLCAnLXRuJywgJzgnLCAnLW1hJywgJzIwMCcsICctbWV0YWxfYmluZGluZycsICctaW1hZScsICc8aW5maWxlLm1hZT4nLCAnLW9tYWUnLCAnPG91dGZpbGUubWFlPic=

> <r_lp_tautomer_probability>
1

> <r_epik_Ionization_Penalty>
5.07027e-05

> <r_epik_Ionization_Penalty_Charging>
7.56727e-08

> <r_epik_Ionization_Penalty_Neutral>
5.06271e-05

> <r_epik_State_Penalty>
-0

> <r_epik_Charging_Adjusted_Penalty>
7.56727e-08

> <i_epik_Tot_Q>
0

> <i_epik_Tot_abs_Q>
0

> <r_epik_Metal_State_Penalty>
-0

> <b_epik_Metal_Only>
0

> <s_lp_Force_Field>
OPLS_2005

> <r_lp_Energy>
19.2499

> <b_lp_Chiralities_Consistent>
1

> <s_lp_Variant>
AV-unprocessed.smi:2288-2

> <Gold.Version>
5.8.1

> <Gold.Id.Protein>
6NUR|6NUR_protein|mol2

> <Gold.PLP.Fitness>
46.0947

> <Gold.PLP.PLP>
-41.4753

> <Gold.PLP.part.hbond>
-1.1759

> <Gold.PLP.part.metal>
0.0000

> <Gold.PLP.part.buried>
-4.0682

> <Gold.PLP.part.nonpolar>
-37.5175

> <Gold.PLP.part.repulsive>
0.6794

> <Gold.PLP.ligand.clash>
0.0000

> <Gold.PLP.ligand.torsion>
0.6928

> <Gold.PLP.Chemscore.Hbond>
1.0000

> <Gold.PLP.Chemscore.CHOScore>
1.0000

> <Gold.PLP.Chemscore.Metal>
0.0000

> <Gold.Chemscore.Hbonds>
donor molecule, donor type, donor heavy atom, donor atom, acceptor molecule, acceptor atom, score
      L1  H     9    30       P1  8028  1.00
      L1  C    12    33       P1  8028  0.54

> <Gold.PLP.Chemscore.Internal.Correction>
0.0050

> <Gold.Rescore>
     Score         DG    S(hbond)    S(metal)    S(lipo)     H(rot)  DE(clash)    DE(int)     intcor
     15.28     -15.95       0.55        0.00     115.10       1.89       0.05       0.63       ----

> <Gold.Chemscore.Fitness>
15.2757

> <Gold.Chemscore.DG>
-15.9508

> <Gold.Chemscore.ZeroCoef>
-5.4800

> <Gold.Chemscore.Hbond>
0.5521

> <Gold.Chemscore.Metal>
0.0000

> <Gold.Chemscore.Lipo>
115.1003

> <Gold.Chemscore.Internal_Hbond>
0.0000

> <Gold.Chemscore.DEClash>
0.0487

> <Gold.Chemscore.DEInternal>
0.6264

> <Gold.Chemscore.Rot>
1.8907

> <Gold.Chemscore.Internal.Correction>
   9.000000E+99

> <Gold.Chemscore.Hbonds>
donor molecule, donor type, donor heavy atom, donor atom, acceptor molecule, acceptor atom, score
      L1  H     9    30       P1  8028  0.55

> <Gold.Chemscore.Hbond.Weighted>
-1.8441

> <Gold.Chemscore.Metal.Weighted>
-0.0000

> <Gold.Chemscore.Lipo.Weighted>
-13.4667

> <Gold.Chemscore.Internal_Hbond.Weighted>
0.0000

> <Gold.Chemscore.DEClash.Weighted>
0.0487

> <Gold.Chemscore.DEInternal.Weighted>
0.6264

> <Gold.Chemscore.Rot.Weighted>
4.8401

> <Gold.Chemscore.Internal.Correction.Weighted>
   9.000000E+99

> <Gold.Protein.RotatedTorsions>
[ 6907 6896 6895 6894 ] final  -45.37 input  -60.11 | X-H torsion
[ 7974 7965 7964 7962 ] final  124.62 input  175.53 | X-H torsion
[ 8008 7997 7996 7995 ] final  -17.69 input   59.86 | X-H torsion
[ 10167 10162 10161 10158 ] final   56.54 input  -65.29 | X-H torsion
[ 10718 10713 10712 10709 ] final  152.02 input   66.30 | X-H torsion
[ 10763 10752 10751 10750 ] final  -13.57 input  -60.55 | X-H torsion
[ 11005 11000 10999 10996 ] final -142.63 input  -57.11 | X-H torsion

> <Gold.Protein.ActiveResidues>
 VAL166  LYS551  ARG553  GLY616  TRP617  ASP618  TYR619  PRO620  LYS621  CYS622 
 ASP623  PHE694  ASN695  SER759  ASP760  ASP761  ALA762  ILE779  LEU786  VAL792 
 PHE793  MET794  SER795  GLU796  ALA797  LYS798  CYS799  TRP800  GLU811  SER814 

> <Gold.Protein.RotatedAtoms>
  150.9227  134.8644  159.7499 H   0  0  0  0  0  0  0  0  0  0  0  0  # atno 6907 bound_to 6896
  152.5000  134.4195  159.9485 H   0  0  0  0  0  0  0  0  0  0  0  0  # atno 6908 bound_to 6896
  151.4228  133.3653  159.2793 H   0  0  0  0  0  0  0  0  0  0  0  0  # atno 6909 bound_to 6896
  145.0824  139.3647  143.4902 H   0  0  0  0  0  0  0  0  0  0  0  0  # atno 7974 bound_to 7965
  154.4960  140.2136  155.9447 H   0  0  0  0  0  0  0  0  0  0  0  0  # atno 8008 bound_to 7997
  156.1370  140.3186  155.8404 H   0  0  0  0  0  0  0  0  0  0  0  0  # atno 8009 bound_to 7997
  155.4191  140.0495  157.3017 H   0  0  0  0  0  0  0  0  0  0  0  0  # atno 8010 bound_to 7997
  140.2077  144.3922  150.6502 H   0  0  0  0  0  0  0  0  0  0  0  0  # atno 10167 bound_to 10162
  157.2631  131.0802  151.1652 H   0  0  0  0  0  0  0  0  0  0  0  0  # atno 10718 bound_to 10713
  153.5152  135.7016  153.5760 H   0  0  0  0  0  0  0  0  0  0  0  0  # atno 10763 bound_to 10752
  153.3833  135.3914  155.1872 H   0  0  0  0  0  0  0  0  0  0  0  0  # atno 10764 bound_to 10752
  154.8699  135.3840  154.4636 H   0  0  0  0  0  0  0  0  0  0  0  0  # atno 10765 bound_to 10752
  140.8206  134.2636  157.4902 H   0  0  0  0  0  0  0  0  0  0  0  0  # atno 11005 bound_to 11000
  146.3531  140.0620  142.8628 LP  0  0  0  0  0  0  0  0  0  0  0  0  # atno 17320 bound_to 7965
  145.1163  140.9435  143.4627 LP  0  0  0  0  0  0  0  0  0  0  0  0  # atno 17321 bound_to 7965
  140.6346  143.2193  151.6423 LP  0  0  0  0  0  0  0  0  0  0  0  0  # atno 17342 bound_to 10162
  139.5192  144.3260  152.0868 LP  0  0  0  0  0  0  0  0  0  0  0  0  # atno 17343 bound_to 10162
  157.3153  130.6910  149.6238 LP  0  0  0  0  0  0  0  0  0  0  0  0  # atno 17370 bound_to 10713
  155.9664  130.4351  150.5078 LP  0  0  0  0  0  0  0  0  0  0  0  0  # atno 17371 bound_to 10713
  139.8709  134.9533  156.4141 LP  0  0  0  0  0  0  0  0  0  0  0  0  # atno 17394 bound_to 11000
  140.9103  133.7716  155.9784 LP  0  0  0  0  0  0  0  0  0  0  0  0  # atno 17395 bound_to 11000

$$$$
