AV-unprocessed.smi:2675|AV-procd|sdf|10361|dock7
  -GOLD-   2272014383D 1   1.00000     0.00000
 Structure written by MMmdl.
 37 38  0  0  0  0  0  0  0  0  2 V2000
  151.1124  144.8518  159.7301 C   0  0  0  0  0  0  0  0  0  0  0  0
  151.1476  143.5827  158.9459 C   0  0  0  0  0  0  0  0  0  0  0  0
  150.7001  143.5235  157.6527 N   0  3  0  0  0  0  0  0  0  0  0  0
  150.8304  142.2891  157.1663 C   0  0  0  0  0  0  0  0  0  0  0  0
  151.3633  141.5436  158.1409 N   0  0  0  0  0  0  0  0  0  0  0  0
  151.6381  140.1118  157.9542 C   0  0  0  0  0  0  0  0  0  0  0  0
  151.5357  139.7173  156.4807 C   0  0  0  0  0  0  0  0  0  0  0  0
  152.5082  139.8629  155.7427 O   0  0  0  0  0  0  0  0  0  0  0  0
  150.3535  139.2181  156.0791 N   0  0  0  0  0  0  0  0  0  0  0  0
  149.9792  138.7146  154.7508 C   0  0  2  0  0  0  0  0  0  0  0  0
  148.5490  138.1674  154.8929 C   0  0  0  0  0  0  0  0  0  0  0  0
  150.8446  137.5960  154.3275 C   0  0  0  0  0  0  0  0  0  0  0  0
  151.5244  136.7206  153.9944 N   0  0  0  0  0  0  0  0  0  0  0  0
  149.9891  139.7574  153.6312 C   0  0  0  0  0  0  0  0  0  0  0  0
  149.1835  141.0378  153.6554 C   0  0  0  0  0  0  0  0  0  0  0  0
  148.8244  139.9360  152.6834 C   0  0  0  0  0  0  0  0  0  0  0  0
  151.5756  142.3131  159.2644 C   0  0  0  0  0  0  0  0  0  0  0  0
  152.1603  141.7657  160.5268 C   0  0  0  0  0  0  0  0  0  0  0  0
  151.4840  144.6942  160.7422 H   0  0  0  0  0  0  0  0  0  0  0  0
  150.0906  145.2269  159.7930 H   0  0  0  0  0  0  0  0  0  0  0  0
  151.7325  145.6087  159.2491 H   0  0  0  0  0  0  0  0  0  0  0  0
  150.5547  141.9594  156.1804 H   0  0  0  0  0  0  0  0  0  0  0  0
  152.6331  139.8898  158.3436 H   0  0  0  0  0  0  0  0  0  0  0  0
  150.9276  139.5373  158.5495 H   0  0  0  0  0  0  0  0  0  0  0  0
  149.6270  139.1635  156.7776 H   0  0  0  0  0  0  0  0  0  0  0  0
  148.1955  137.7355  153.9558 H   0  0  0  0  0  0  0  0  0  0  0  0
  147.8482  138.9534  155.1768 H   0  0  0  0  0  0  0  0  0  0  0  0
  148.4959  137.3850  155.6513 H   0  0  0  0  0  0  0  0  0  0  0  0
  150.9723  139.8608  153.1746 H   0  0  0  0  0  0  0  0  0  0  0  0
  148.4951  141.2176  154.4762 H   0  0  0  0  0  0  0  0  0  0  0  0
  149.6541  141.9302  153.2476 H   0  0  0  0  0  0  0  0  0  0  0  0
  149.0553  140.0971  151.6323 H   0  0  0  0  0  0  0  0  0  0  0  0
  147.9101  139.3787  152.8765 H   0  0  0  0  0  0  0  0  0  0  0  0
  152.2570  142.5474  161.2795 H   0  0  0  0  0  0  0  0  0  0  0  0
  153.1502  141.3500  160.3379 H   0  0  0  0  0  0  0  0  0  0  0  0
  151.5213  140.9811  160.9318 H   0  0  0  0  0  0  0  0  0  0  0  0
  150.3211  144.3072  157.1359 H   0  0  0  0  0  0  0  0  0  0  0  0
  1  2  1  0  0  0  0
  1 19  1  0  0  0  0
  1 20  1  0  0  0  0
  1 21  1  0  0  0  0
  2 17  2  0  0  0  0
  2  3  1  0  0  0  0
  3  4  2  0  0  0  0
  3 37  1  0  0  0  0
  4  5  1  0  0  0  0
  4 22  1  0  0  0  0
  5  6  1  0  0  0  0
  5 17  1  0  0  0  0
  6  7  1  0  0  0  0
  6 23  1  0  0  0  0
  6 24  1  0  0  0  0
  7  8  2  0  0  0  0
  7  9  1  0  0  0  0
  9 10  1  0  0  0  0
  9 25  1  0  0  0  0
 10 11  1  0  0  0  0
 10 12  1  0  0  0  0
 10 14  1  0  0  0  0
 11 26  1  0  0  0  0
 11 27  1  0  0  0  0
 11 28  1  0  0  0  0
 12 13  3  0  0  0  0
 14 16  1  0  0  0  0
 14 15  1  0  0  0  0
 14 29  1  0  0  0  0
 15 16  1  0  0  0  0
 15 30  1  0  0  0  0
 15 31  1  0  0  0  0
 16 32  1  0  0  0  0
 16 33  1  0  0  0  0
 17 18  1  0  0  0  0
 18 34  1  0  0  0  0
 18 35  1  0  0  0  0
 18 36  1  0  0  0  0
M  CHG  1   3   1
M  END
> <s_m_source_file>
AV-unprocessed.smi

> <i_m_source_file_index>
2675

> <i_lp_mmshare_version>
43012

> <i_f3d_flags>
0

> <s_epik_input>
W0NIM11jMW5bY0hdbihjMVtDSDNdKVtDSDJdQyg9TylbTkhdW0NAQF0oW0NIM10pKEMjTilbQ0hdMltDSDJdW0NIMl0y

> <s_epik_cmdline>
J2VwaWtfcHl0aG9uJywgJy1waCcsICc3LjAnLCAnLXRuJywgJzgnLCAnLW1hJywgJzIwMCcsICctbWV0YWxfYmluZGluZycsICctaW1hZScsICc8aW5maWxlLm1hZT4nLCAnLW9tYWUnLCAnPG91dGZpbGUubWFlPic=

> <r_lp_tautomer_probability>
1

> <r_epik_Ionization_Penalty>
0.153253

> <r_epik_Ionization_Penalty_Charging>
0

> <r_epik_Ionization_Penalty_Neutral>
0.153253

> <r_epik_State_Penalty>
0.14254

> <r_epik_Charging_Adjusted_Penalty>
0.14254

> <i_epik_Tot_Q>
1

> <i_epik_Tot_abs_Q>
1

> <r_epik_Metal_State_Penalty>
0.466899

> <b_epik_Metal_Only>
0

> <s_lp_Force_Field>
OPLS_2005

> <r_lp_Energy>
18.2942

> <b_lp_Chiralities_Consistent>
1

> <s_lp_Variant>
AV-unprocessed.smi:2675-2

> <Gold.Version>
5.8.1

> <Gold.Id.Protein>
6NUR|6NUR_protein|mol2

> <Gold.PLP.Fitness>
46.4912

> <Gold.PLP.PLP>
-36.0265

> <Gold.PLP.part.hbond>
-3.0000

> <Gold.PLP.part.metal>
0.0000

> <Gold.PLP.part.buried>
-4.6806

> <Gold.PLP.part.nonpolar>
-29.3724

> <Gold.PLP.part.repulsive>
0.1686

> <Gold.PLP.ligand.clash>
0.0000

> <Gold.PLP.ligand.torsion>
1.5157

> <Gold.PLP.Chemscore.Hbond>
4.0000

> <Gold.PLP.Chemscore.CHOScore>
0.0000

> <Gold.PLP.Chemscore.Metal>
0.0000

> <Gold.Chemscore.Hbonds>
donor molecule, donor type, donor heavy atom, donor atom, acceptor molecule, acceptor atom, score
      L1  H     3    37       P1  8028  1.49
      P1  H  7997  8008       L1     8  1.00
      P1  H 10752 10763       L1    13  0.64

> <Gold.PLP.Chemscore.Internal.Correction>
1.4962

> <Gold.Rescore>
     Score         DG    S(hbond)    S(metal)    S(lipo)     H(rot)  DE(clash)    DE(int)     intcor
     16.43     -18.05       2.60        0.00      72.45       1.80       0.19       1.44       ----

> <Gold.Chemscore.Fitness>
16.4251

> <Gold.Chemscore.DG>
-18.0493

> <Gold.Chemscore.ZeroCoef>
-5.4800

> <Gold.Chemscore.Hbond>
2.6014

> <Gold.Chemscore.Metal>
0.0000

> <Gold.Chemscore.Lipo>
72.4525

> <Gold.Chemscore.Internal_Hbond>
0.0000

> <Gold.Chemscore.DEClash>
0.1865

> <Gold.Chemscore.DEInternal>
1.4377

> <Gold.Chemscore.Rot>
1.7955

> <Gold.Chemscore.Internal.Correction>
   9.000000E+99

> <Gold.Chemscore.Hbonds>
donor molecule, donor type, donor heavy atom, donor atom, acceptor molecule, acceptor atom, score
      L1  H     3    37       P1  8028  0.59
      P1  H  7997  8008       L1     8  0.97
      P1  H 10752 10763       L1    13  0.61

> <Gold.Chemscore.Hbond.Weighted>
-8.6888

> <Gold.Chemscore.Metal.Weighted>
-0.0000

> <Gold.Chemscore.Lipo.Weighted>
-8.4769

> <Gold.Chemscore.Internal_Hbond.Weighted>
0.0000

> <Gold.Chemscore.DEClash.Weighted>
0.1865

> <Gold.Chemscore.DEInternal.Weighted>
1.4377

> <Gold.Chemscore.Rot.Weighted>
4.5965

> <Gold.Chemscore.Internal.Correction.Weighted>
   9.000000E+99

> <Gold.Protein.RotatedTorsions>
[ 6907 6896 6895 6894 ] final   36.74 input  -60.11 | X-H torsion
[ 7974 7965 7964 7962 ] final   23.09 input  175.53 | X-H torsion
[ 8008 7997 7996 7995 ] final  -17.20 input   59.86 | X-H torsion
[ 10167 10162 10161 10158 ] final  177.84 input  -65.29 | X-H torsion
[ 10718 10713 10712 10709 ] final  -37.15 input   66.30 | X-H torsion
[ 10763 10752 10751 10750 ] final   71.16 input  -60.55 | X-H torsion
[ 11005 11000 10999 10996 ] final   67.61 input  -57.11 | X-H torsion

> <Gold.Protein.ActiveResidues>
 VAL166  LYS551  ARG553  GLY616  TRP617  ASP618  TYR619  PRO620  LYS621  CYS622 
 ASP623  PHE694  ASN695  SER759  ASP760  ASP761  ALA762  ILE779  LEU786  VAL792 
 PHE793  MET794  SER795  GLU796  ALA797  LYS798  CYS799  TRP800  GLU811  SER814 

> <Gold.Protein.RotatedAtoms>
  152.1338  134.9115  160.0557 H   0  0  0  0  0  0  0  0  0  0  0  0  # atno 6907 bound_to 6896
  152.0209  133.3893  159.4266 H   0  0  0  0  0  0  0  0  0  0  0  0  # atno 6908 bound_to 6896
  150.6858  134.3549  159.4968 H   0  0  0  0  0  0  0  0  0  0  0  0  # atno 6909 bound_to 6896
  146.2000  139.7794  142.8768 H   0  0  0  0  0  0  0  0  0  0  0  0  # atno 7974 bound_to 7965
  154.4995  140.2149  155.9375 H   0  0  0  0  0  0  0  0  0  0  0  0  # atno 8008 bound_to 7997
  156.1416  140.3178  155.8471 H   0  0  0  0  0  0  0  0  0  0  0  0  # atno 8009 bound_to 7997
  155.4110  140.0490  157.3022 H   0  0  0  0  0  0  0  0  0  0  0  0  # atno 8010 bound_to 7997
  139.5269  144.2751  152.0594 H   0  0  0  0  0  0  0  0  0  0  0  0  # atno 10167 bound_to 10162
  156.3186  130.4262  149.7982 H   0  0  0  0  0  0  0  0  0  0  0  0  # atno 10718 bound_to 10713
  153.0382  135.5147  154.7550 H   0  0  0  0  0  0  0  0  0  0  0  0  # atno 10763 bound_to 10752
  154.6509  135.2925  154.9990 H   0  0  0  0  0  0  0  0  0  0  0  0  # atno 10764 bound_to 10752
  154.0875  135.6655  153.4900 H   0  0  0  0  0  0  0  0  0  0  0  0  # atno 10765 bound_to 10752
  139.9760  134.6821  156.0352 H   0  0  0  0  0  0  0  0  0  0  0  0  # atno 11005 bound_to 11000
  145.3516  141.0308  143.3335 LP  0  0  0  0  0  0  0  0  0  0  0  0  # atno 17320 bound_to 7965
  144.8662  139.5104  143.6789 LP  0  0  0  0  0  0  0  0  0  0  0  0  # atno 17321 bound_to 7965
  140.2209  144.4467  150.6342 LP  0  0  0  0  0  0  0  0  0  0  0  0  # atno 17342 bound_to 10162
  140.6419  143.2205  151.6271 LP  0  0  0  0  0  0  0  0  0  0  0  0  # atno 17343 bound_to 10162
  156.5298  130.8252  151.3233 LP  0  0  0  0  0  0  0  0  0  0  0  0  # atno 17370 bound_to 10713
  157.7407  130.9855  150.2394 LP  0  0  0  0  0  0  0  0  0  0  0  0  # atno 17371 bound_to 10713
  141.1437  133.6560  156.3805 LP  0  0  0  0  0  0  0  0  0  0  0  0  # atno 17394 bound_to 11000
  140.5193  134.6319  157.5312 LP  0  0  0  0  0  0  0  0  0  0  0  0  # atno 17395 bound_to 11000

$$$$
