AV-unprocessed.smi:13|AV-procd|sdf|72|dock5
  -GOLD-   2262015193D 1   1.00000     0.00000
 Structure written by MMmdl.
 54 58  0  0  0  0  0  0  0  0  1 V2000
  152.2375  145.4355  159.1609 C   0  0  0  0  0  0  0  0  0  0  0  0
  151.3390  144.2166  159.3676 C   0  0  0  0  0  0  0  0  0  0  0  0
  150.6119  144.4257  160.7034 C   0  0  0  0  0  0  0  0  0  0  0  0
  150.4406  143.8384  158.1774 C   0  0  0  0  0  0  0  0  0  0  0  0
  150.7431  142.4527  158.4904 N   0  0  0  0  0  0  0  0  0  0  0  0
  150.8180  141.6031  157.3536 C   0  0  0  0  0  0  0  0  0  0  0  0
  151.9518  140.9146  157.0506 N   0  0  0  0  0  0  0  0  0  0  0  0
  152.0016  140.1110  155.9844 C   0  0  0  0  0  0  0  0  0  0  0  0
  151.0469  139.8537  155.0896 N   0  0  0  0  0  0  0  0  0  0  0  0
  149.9084  140.5466  155.3760 C   0  0  0  0  0  0  0  0  0  0  0  0
  149.7147  141.4293  156.4756 C   0  0  0  0  0  0  0  0  0  0  0  0
  148.4255  141.9443  156.4486 N   0  0  0  0  0  0  0  0  0  0  0  0
  147.8863  141.3949  155.3947 C   0  0  0  0  0  0  0  0  0  0  0  0
  148.7105  140.5524  154.6817 N   0  0  0  0  0  0  0  0  0  0  0  0
  148.3713  139.8013  153.4815 C   0  0  0  0  0  0  0  0  0  0  0  0
  147.3597  138.6455  153.6949 C   0  0  2  0  0  0  0  0  0  0  0  0
  147.1478  138.0532  152.4261 O   0  0  0  0  0  0  0  0  0  0  0  0
  145.9988  139.0579  154.2580 C   0  0  0  0  0  0  0  0  0  0  0  0
  145.5662  137.8275  155.0432 C   0  0  0  0  0  0  0  0  0  0  0  0
  146.7810  137.4045  155.6361 O   0  0  0  0  0  0  0  0  0  0  0  0
  147.8160  137.5364  154.6683 C   0  0  0  0  0  0  0  0  0  0  0  0
  152.0011  142.8442  159.1170 C   0  0  2  0  0  0  0  0  0  0  0  0
  152.3835  141.8938  160.2520 C   0  0  2  0  0  0  0  0  0  0  0  0
  152.9604  142.5962  161.4834 C   0  0  0  0  0  0  0  0  0  0  0  0
  153.9524  141.5925  162.0554 C   0  0  0  0  0  0  0  0  0  0  0  0
  153.9895  140.4682  161.0193 C   0  0  0  0  0  0  0  0  0  0  0  0
  153.4543  141.0560  159.8449 O   0  0  0  0  0  0  0  0  0  0  0  0
  151.6607  146.3608  159.1467 H   0  0  0  0  0  0  0  0  0  0  0  0
  152.7773  145.3778  158.2152 H   0  0  0  0  0  0  0  0  0  0  0  0
  152.9826  145.5211  159.9524 H   0  0  0  0  0  0  0  0  0  0  0  0
  149.9725  143.5786  160.9539 H   0  0  0  0  0  0  0  0  0  0  0  0
  149.9727  145.3085  160.6729 H   0  0  0  0  0  0  0  0  0  0  0  0
  151.3116  144.5583  161.5285 H   0  0  0  0  0  0  0  0  0  0  0  0
  149.3885  144.0972  158.2992 H   0  0  0  0  0  0  0  0  0  0  0  0
  150.8358  144.1586  157.2111 H   0  0  0  0  0  0  0  0  0  0  0  0
  152.9406  139.6013  155.8271 H   0  0  0  0  0  0  0  0  0  0  0  0
  146.8620  141.5898  155.1124 H   0  0  0  0  0  0  0  0  0  0  0  0
  147.9779  140.5058  152.7471 H   0  0  0  0  0  0  0  0  0  0  0  0
  149.2974  139.4111  153.0571 H   0  0  0  0  0  0  0  0  0  0  0  0
  147.8688  137.4701  152.2437 H   0  0  0  0  0  0  0  0  0  0  0  0
  146.0920  139.8840  154.9604 H   0  0  0  0  0  0  0  0  0  0  0  0
  145.2783  139.3565  153.4955 H   0  0  0  0  0  0  0  0  0  0  0  0
  144.8066  138.0493  155.7932 H   0  0  0  0  0  0  0  0  0  0  0  0
  145.1849  137.0490  154.3805 H   0  0  0  0  0  0  0  0  0  0  0  0
  147.9519  136.5798  154.1608 H   0  0  0  0  0  0  0  0  0  0  0  0
  148.7544  137.7613  155.1713 H   0  0  0  0  0  0  0  0  0  0  0  0
  152.8092  142.9652  158.3933 H   0  0  0  0  0  0  0  0  0  0  0  0
  151.5407  141.2666  160.5500 H   0  0  0  0  0  0  0  0  0  0  0  0
  153.4876  143.5060  161.1926 H   0  0  0  0  0  0  0  0  0  0  0  0
  152.1875  142.8739  162.2002 H   0  0  0  0  0  0  0  0  0  0  0  0
  154.9344  142.0543  162.1650 H   0  0  0  0  0  0  0  0  0  0  0  0
  153.6451  141.2193  163.0328 H   0  0  0  0  0  0  0  0  0  0  0  0
  154.9951  140.0819  160.8509 H   0  0  0  0  0  0  0  0  0  0  0  0
  153.3518  139.6383  161.3275 H   0  0  0  0  0  0  0  0  0  0  0  0
  1  2  1  0  0  0  0
  1 28  1  0  0  0  0
  1 29  1  0  0  0  0
  1 30  1  0  0  0  0
  2 22  1  0  0  0  0
  2  3  1  0  0  0  0
  2  4  1  0  0  0  0
  3 31  1  0  0  0  0
  3 32  1  0  0  0  0
  3 33  1  0  0  0  0
  4  5  1  0  0  0  0
  4 34  1  0  0  0  0
  4 35  1  0  0  0  0
  5  6  1  0  0  0  0
  5 22  1  0  0  0  0
  6 11  1  0  0  0  0
  6  7  2  0  0  0  0
  7  8  1  0  0  0  0
  8  9  2  0  0  0  0
  8 36  1  0  0  0  0
  9 10  1  0  0  0  0
 10 14  1  0  0  0  0
 10 11  2  0  0  0  0
 11 12  1  0  0  0  0
 12 13  2  0  0  0  0
 13 14  1  0  0  0  0
 13 37  1  0  0  0  0
 14 15  1  0  0  0  0
 15 16  1  0  0  0  0
 15 38  1  0  0  0  0
 15 39  1  0  0  0  0
 16 21  1  0  0  0  0
 16 17  1  0  0  0  0
 16 18  1  0  0  0  0
 17 40  1  0  0  0  0
 18 19  1  0  0  0  0
 18 41  1  0  0  0  0
 18 42  1  0  0  0  0
 19 20  1  0  0  0  0
 19 43  1  0  0  0  0
 19 44  1  0  0  0  0
 20 21  1  0  0  0  0
 21 45  1  0  0  0  0
 21 46  1  0  0  0  0
 22 23  1  0  0  0  0
 22 47  1  0  0  0  0
 23 27  1  0  0  0  0
 23 24  1  0  0  0  0
 23 48  1  0  0  0  0
 24 25  1  0  0  0  0
 24 49  1  0  0  0  0
 24 50  1  0  0  0  0
 25 26  1  0  0  0  0
 25 51  1  0  0  0  0
 25 52  1  0  0  0  0
 26 27  1  0  0  0  0
 26 53  1  0  0  0  0
 26 54  1  0  0  0  0
M  END
> <s_m_source_file>
AV-unprocessed.smi

> <i_m_source_file_index>
13

> <i_lp_mmshare_version>
43012

> <i_f3d_flags>
0

> <s_epik_input>
TzFbQ0gyXVtDSDJdW0NIMl1bQ0BIXTFbQ0BASF0yTihbQ0gyXUMyKFtDSDNdKVtDSDNdKWMobltjSF1uMyljKGMzNCluW2NIXW40W0NIMl1bQ0BAXTUoW09IXSlbQ0gyXVtDSDJdT1tDSDJdNQ==

> <s_epik_cmdline>
J2VwaWtfcHl0aG9uJywgJy1waCcsICc3LjAnLCAnLXRuJywgJzgnLCAnLW1hJywgJzIwMCcsICctbWV0YWxfYmluZGluZycsICctaW1hZScsICc8aW5maWxlLm1hZT4nLCAnLW9tYWUnLCAnPG91dGZpbGUubWFlPic=

> <r_lp_tautomer_probability>
1

> <r_epik_Ionization_Penalty>
0.00202764

> <r_epik_Ionization_Penalty_Charging>
0

> <r_epik_Ionization_Penalty_Neutral>
0.00202764

> <r_epik_State_Penalty>
0.00134017

> <r_epik_Charging_Adjusted_Penalty>
0.00134017

> <i_epik_Tot_Q>
0

> <i_epik_Tot_abs_Q>
0

> <r_epik_Metal_State_Penalty>
-0

> <b_epik_Metal_Only>
0

> <s_lp_Force_Field>
OPLS_2005

> <r_lp_Energy>
64.4217

> <b_lp_Chiralities_Consistent>
1

> <s_lp_Variant>
AV-unprocessed.smi:13-4

> <Gold.Version>
5.8.1

> <Gold.Id.Protein>
6NUR|6NUR_protein|mol2

> <Gold.PLP.Fitness>
45.7303

> <Gold.PLP.PLP>
-41.5964

> <Gold.PLP.part.hbond>
-2.0000

> <Gold.PLP.part.metal>
0.0000

> <Gold.PLP.part.buried>
-0.9000

> <Gold.PLP.part.nonpolar>
-40.4229

> <Gold.PLP.part.repulsive>
1.3854

> <Gold.PLP.ligand.clash>
0.0000

> <Gold.PLP.ligand.torsion>
1.1628

> <Gold.PLP.Chemscore.Hbond>
2.0000

> <Gold.PLP.Chemscore.CHOScore>
0.0000

> <Gold.PLP.Chemscore.Metal>
0.0000

> <Gold.Chemscore.Hbonds>
donor molecule, donor type, donor heavy atom, donor atom, acceptor molecule, acceptor atom, score
      L1  H    17    40       P1  7948  1.00
      P1  H  7989  7998       L1     9  0.95

> <Gold.PLP.Chemscore.Internal.Correction>
0.4595

> <Gold.Rescore>
     Score         DG    S(hbond)    S(metal)    S(lipo)     H(rot)  DE(clash)    DE(int)     intcor
     14.39     -16.29       1.15        0.00     109.74       2.30       0.88       1.01       ----

> <Gold.Chemscore.Fitness>
14.3903

> <Gold.Chemscore.DG>
-16.2860

> <Gold.Chemscore.ZeroCoef>
-5.4800

> <Gold.Chemscore.Hbond>
1.1537

> <Gold.Chemscore.Metal>
0.0000

> <Gold.Chemscore.Lipo>
109.7411

> <Gold.Chemscore.Internal_Hbond>
0.0000

> <Gold.Chemscore.DEClash>
0.8842

> <Gold.Chemscore.DEInternal>
1.0115

> <Gold.Chemscore.Rot>
2.2996

> <Gold.Chemscore.Internal.Correction>
   9.000000E+99

> <Gold.Chemscore.Hbonds>
donor molecule, donor type, donor heavy atom, donor atom, acceptor molecule, acceptor atom, score
      L1  H    17    40       P1  7948  1.00
      P1  H  7989  7998       L1     9  0.08

> <Gold.Chemscore.Hbond.Weighted>
-3.8532

> <Gold.Chemscore.Metal.Weighted>
-0.0000

> <Gold.Chemscore.Lipo.Weighted>
-12.8397

> <Gold.Chemscore.Internal_Hbond.Weighted>
0.0000

> <Gold.Chemscore.DEClash.Weighted>
0.8842

> <Gold.Chemscore.DEInternal.Weighted>
1.0115

> <Gold.Chemscore.Rot.Weighted>
5.8869

> <Gold.Chemscore.Internal.Correction.Weighted>
   9.000000E+99

> <Gold.Protein.RotatedTorsions>
[ 6907 6896 6895 6894 ] final  -38.65 input  -60.11 | X-H torsion
[ 7974 7965 7964 7962 ] final  122.11 input  175.53 | X-H torsion
[ 8008 7997 7996 7995 ] final  -90.86 input   59.86 | X-H torsion
[ 10167 10162 10161 10158 ] final  162.23 input  -65.29 | X-H torsion
[ 10718 10713 10712 10709 ] final   85.30 input   66.30 | X-H torsion
[ 10763 10752 10751 10750 ] final -112.59 input  -60.55 | X-H torsion
[ 11005 11000 10999 10996 ] final  -91.45 input  -57.11 | X-H torsion

> <Gold.Protein.ActiveResidues>
 VAL166  LYS551  ARG553  GLY616  TRP617  ASP618  TYR619  PRO620  LYS621  CYS622 
 ASP623  PHE694  ASN695  SER759  ASP760  ASP761  ALA762  ILE779  LEU786  VAL792 
 PHE793  MET794  SER795  GLU796  ALA797  LYS798  CYS799  TRP800  GLU811  SER814 

> <Gold.Protein.RotatedAtoms>
  150.9998  134.9313  159.7947 H   0  0  0  0  0  0  0  0  0  0  0  0  # atno 6907 bound_to 6896
  152.5275  134.3169  159.9144 H   0  0  0  0  0  0  0  0  0  0  0  0  # atno 6908 bound_to 6896
  151.3174  133.4013  159.2686 H   0  0  0  0  0  0  0  0  0  0  0  0  # atno 6909 bound_to 6896
  145.1114  139.3450  143.4761 H   0  0  0  0  0  0  0  0  0  0  0  0  # atno 7974 bound_to 7965
  154.7037  140.0526  157.0483 H   0  0  0  0  0  0  0  0  0  0  0  0  # atno 8008 bound_to 7997
  155.0650  140.3193  155.4629 H   0  0  0  0  0  0  0  0  0  0  0  0  # atno 8009 bound_to 7997
  156.2768  140.2092  156.5777 H   0  0  0  0  0  0  0  0  0  0  0  0  # atno 8010 bound_to 7997
  139.4858  144.4458  151.8893 H   0  0  0  0  0  0  0  0  0  0  0  0  # atno 10167 bound_to 10162
  157.6912  131.0169  150.2802 H   0  0  0  0  0  0  0  0  0  0  0  0  # atno 10718 bound_to 10713
  154.8357  135.4485  154.1218 H   0  0  0  0  0  0  0  0  0  0  0  0  # atno 10763 bound_to 10752
  153.2452  135.6920  153.7746 H   0  0  0  0  0  0  0  0  0  0  0  0  # atno 10764 bound_to 10752
  153.7079  135.3361  155.3215 H   0  0  0  0  0  0  0  0  0  0  0  0  # atno 10765 bound_to 10752
  141.1544  133.7756  156.9881 H   0  0  0  0  0  0  0  0  0  0  0  0  # atno 11005 bound_to 11000
  146.3526  140.1034  142.8607 LP  0  0  0  0  0  0  0  0  0  0  0  0  # atno 17320 bound_to 7965
  145.0843  140.9242  143.4807 LP  0  0  0  0  0  0  0  0  0  0  0  0  # atno 17321 bound_to 7965
  140.3912  144.2612  150.5899 LP  0  0  0  0  0  0  0  0  0  0  0  0  # atno 17342 bound_to 10162
  140.5144  143.2282  151.8486 LP  0  0  0  0  0  0  0  0  0  0  0  0  # atno 17343 bound_to 10162
  156.3350  130.3806  149.7458 LP  0  0  0  0  0  0  0  0  0  0  0  0  # atno 17370 bound_to 10713
  156.4985  130.8118  151.3123 LP  0  0  0  0  0  0  0  0  0  0  0  0  # atno 17371 bound_to 10713
  140.1021  134.9529  157.1939 LP  0  0  0  0  0  0  0  0  0  0  0  0  # atno 17394 bound_to 11000
  140.3305  134.2815  155.7229 LP  0  0  0  0  0  0  0  0  0  0  0  0  # atno 17395 bound_to 11000

$$$$
