AV-unprocessed.smi:1051|AV-procd|sdf|4615|dock1
  -GOLD-   22720 3113D 1   1.00000     0.00000
 Structure written by MMmdl.
 45 47  0  0  0  0  0  0  0  0  1 V2000
  145.9689  135.4563  160.3503 C   0  0  0  0  0  0  0  0  0  0  0  0
  146.8935  136.6084  159.9594 C   0  0  0  0  0  0  0  0  0  0  0  0
  146.8192  137.6630  160.5896 O   0  0  0  0  0  0  0  0  0  0  0  0
  147.8417  136.3910  158.8292 C   0  0  0  0  0  0  0  0  0  0  0  0
  147.7854  135.1792  158.1049 C   0  0  0  0  0  0  0  0  0  0  0  0
  148.6660  134.9474  157.0330 C   0  0  0  0  0  0  0  0  0  0  0  0
  149.6128  135.9238  156.6761 C   0  0  0  0  0  0  0  0  0  0  0  0
  149.6925  137.1394  157.3830 C   0  0  0  0  0  0  0  0  0  0  0  0
  150.6512  138.0377  156.9667 O   0  0  0  0  0  0  0  0  0  0  0  0
  150.4906  139.4085  157.3081 C   0  0  0  0  0  0  0  0  0  0  0  0
  151.5982  140.2198  156.6198 C   0  0  1  0  0  0  0  0  0  0  0  0
  151.1939  140.4310  155.2820 O   0  0  0  0  0  0  0  0  0  0  0  0
  151.8192  141.5909  157.2910 C   0  0  0  0  0  0  0  0  0  0  0  0
  152.2142  141.4481  158.6906 N   0  0  0  0  0  0  0  0  0  0  0  0
  152.8621  140.3932  159.2401 C   0  0  0  0  0  0  0  0  0  0  0  0
  153.2228  139.3785  158.6437 O   0  0  0  0  0  0  0  0  0  0  0  0
  153.0466  140.6542  160.5555 N   0  0  0  0  0  0  0  0  0  0  0  0
  153.6919  139.7941  161.5401 C   0  0  0  0  0  0  0  0  0  0  0  0
  152.5088  141.9127  160.8542 C   0  0  0  0  0  0  0  0  0  0  0  0
  152.4551  142.6298  162.0616 C   0  0  0  0  0  0  0  0  0  0  0  0
  151.8365  143.9018  162.0299 C   0  0  0  0  0  0  0  0  0  0  0  0
  151.2981  144.4187  160.8227 C   0  0  0  0  0  0  0  0  0  0  0  0
  151.3664  143.6749  159.6213 C   0  0  0  0  0  0  0  0  0  0  0  0
  151.9850  142.4138  159.6809 C   0  0  0  0  0  0  0  0  0  0  0  0
  148.7994  137.3669  158.4610 C   0  0  0  0  0  0  0  0  0  0  0  0
  145.3313  135.1757  159.5118 H   0  0  0  0  0  0  0  0  0  0  0  0
  145.3279  135.7477  161.1825 H   0  0  0  0  0  0  0  0  0  0  0  0
  146.5506  134.5866  160.6567 H   0  0  0  0  0  0  0  0  0  0  0  0
  147.0664  134.4150  158.3622 H   0  0  0  0  0  0  0  0  0  0  0  0
  148.6151  134.0187  156.4842 H   0  0  0  0  0  0  0  0  0  0  0  0
  150.2864  135.7375  155.8524 H   0  0  0  0  0  0  0  0  0  0  0  0
  149.5138  139.7526  156.9635 H   0  0  0  0  0  0  0  0  0  0  0  0
  150.5395  139.5489  158.3895 H   0  0  0  0  0  0  0  0  0  0  0  0
  152.5168  139.6312  156.6185 H   0  0  0  0  0  0  0  0  0  0  0  0
  150.2834  140.1899  155.2022 H   0  0  0  0  0  0  0  0  0  0  0  0
  152.5408  142.1925  156.7371 H   0  0  0  0  0  0  0  0  0  0  0  0
  150.8914  142.1649  157.2707 H   0  0  0  0  0  0  0  0  0  0  0  0
  152.9728  139.4915  162.3018 H   0  0  0  0  0  0  0  0  0  0  0  0
  154.5069  140.3264  162.0315 H   0  0  0  0  0  0  0  0  0  0  0  0
  154.1045  138.8911  161.0883 H   0  0  0  0  0  0  0  0  0  0  0  0
  152.8689  142.2302  162.9757 H   0  0  0  0  0  0  0  0  0  0  0  0
  151.7740  144.4875  162.9353 H   0  0  0  0  0  0  0  0  0  0  0  0
  150.8307  145.3923  160.8204 H   0  0  0  0  0  0  0  0  0  0  0  0
  150.9605  144.0648  158.6997 H   0  0  0  0  0  0  0  0  0  0  0  0
  148.8465  138.2948  159.0083 H   0  0  0  0  0  0  0  0  0  0  0  0
  1  2  1  0  0  0  0
  1 26  1  0  0  0  0
  1 27  1  0  0  0  0
  1 28  1  0  0  0  0
  2  3  2  0  0  0  0
  2  4  1  0  0  0  0
  4 25  1  0  0  0  0
  4  5  2  0  0  0  0
  5  6  1  0  0  0  0
  5 29  1  0  0  0  0
  6  7  2  0  0  0  0
  6 30  1  0  0  0  0
  7  8  1  0  0  0  0
  7 31  1  0  0  0  0
  8  9  1  0  0  0  0
  8 25  2  0  0  0  0
  9 10  1  0  0  0  0
 10 11  1  0  0  0  0
 10 32  1  0  0  0  0
 10 33  1  0  0  0  0
 11 12  1  0  0  0  0
 11 13  1  0  0  0  0
 11 34  1  0  0  0  0
 12 35  1  0  0  0  0
 13 14  1  0  0  0  0
 13 36  1  0  0  0  0
 13 37  1  0  0  0  0
 14 24  1  0  0  0  0
 14 15  1  0  0  0  0
 15 16  2  0  0  0  0
 15 17  1  0  0  0  0
 17 18  1  0  0  0  0
 17 19  1  0  0  0  0
 18 38  1  0  0  0  0
 18 39  1  0  0  0  0
 18 40  1  0  0  0  0
 19 24  2  0  0  0  0
 19 20  1  0  0  0  0
 20 21  2  0  0  0  0
 20 41  1  0  0  0  0
 21 22  1  0  0  0  0
 21 42  1  0  0  0  0
 22 23  2  0  0  0  0
 22 43  1  0  0  0  0
 23 24  1  0  0  0  0
 23 44  1  0  0  0  0
 25 45  1  0  0  0  0
M  END
> <s_m_source_file>
AV-unprocessed.smi

> <i_m_source_file_index>
1051

> <i_lp_mmshare_version>
43012

> <i_f3d_flags>
0

> <s_epik_input>
W0NIM11DKD1PKWMxW2NIXVtjSF1bY0hdYyhbY0hdMSlPW0NIMl1bQ0BIXShbT0hdKVtDSDJdbihjKD1PKW4yW0NIM10pYyhjMjMpW2NIXVtjSF1bY0hdW2NIXTM=

> <s_epik_cmdline>
J2VwaWtfcHl0aG9uJywgJy1waCcsICc3LjAnLCAnLXRuJywgJzgnLCAnLW1hJywgJzIwMCcsICctbWV0YWxfYmluZGluZycsICctaW1hZScsICc8aW5maWxlLm1hZT4nLCAnLW9tYWUnLCAnPG91dGZpbGUubWFlPic=

> <r_lp_tautomer_probability>
1

> <r_epik_Ionization_Penalty>
2.40143e-06

> <r_epik_Ionization_Penalty_Charging>
2.1343e-09

> <r_epik_Ionization_Penalty_Neutral>
2.3993e-06

> <r_epik_State_Penalty>
-0

> <r_epik_Charging_Adjusted_Penalty>
2.1343e-09

> <i_epik_Tot_Q>
0

> <i_epik_Tot_abs_Q>
0

> <r_epik_Metal_State_Penalty>
-0

> <b_epik_Metal_Only>
0

> <s_lp_Force_Field>
OPLS_2005

> <r_lp_Energy>
51.4738

> <b_lp_Chiralities_Consistent>
1

> <s_lp_Variant>
AV-unprocessed.smi:1051-2

> <Gold.Version>
5.8.1

> <Gold.Id.Protein>
6NUR|6NUR_protein|mol2

> <Gold.PLP.Fitness>
55.9666

> <Gold.PLP.PLP>
-47.6349

> <Gold.PLP.part.hbond>
-4.0000

> <Gold.PLP.part.metal>
0.0000

> <Gold.PLP.part.buried>
-5.3163

> <Gold.PLP.part.nonpolar>
-36.5311

> <Gold.PLP.part.repulsive>
0.0000

> <Gold.PLP.ligand.clash>
0.7900

> <Gold.PLP.ligand.torsion>
0.8754

> <Gold.PLP.Chemscore.Hbond>
3.5033

> <Gold.PLP.Chemscore.CHOScore>
0.0000

> <Gold.PLP.Chemscore.Metal>
0.0000

> <Gold.Chemscore.Hbonds>
donor molecule, donor type, donor heavy atom, donor atom, acceptor molecule, acceptor atom, score
      P1  H  6934  6947       L1     3  0.78
      P1  H  7989  7998       L1    12  0.98
      P1  H  7997  8008       L1    16  0.07

> <Gold.PLP.Chemscore.Internal.Correction>
0.3626

> <Gold.Rescore>
     Score         DG    S(hbond)    S(metal)    S(lipo)     H(rot)  DE(clash)    DE(int)     intcor
     17.46     -20.10       2.56        0.00     102.29       2.30       0.46       2.18       ----

> <Gold.Chemscore.Fitness>
17.4627

> <Gold.Chemscore.DG>
-20.1028

> <Gold.Chemscore.ZeroCoef>
-5.4800

> <Gold.Chemscore.Hbond>
2.5566

> <Gold.Chemscore.Metal>
0.0000

> <Gold.Chemscore.Lipo>
102.2876

> <Gold.Chemscore.Internal_Hbond>
0.0000

> <Gold.Chemscore.DEClash>
0.4584

> <Gold.Chemscore.DEInternal>
2.1817

> <Gold.Chemscore.Rot>
2.2984

> <Gold.Chemscore.Internal.Correction>
   9.000000E+99

> <Gold.Chemscore.Hbonds>
donor molecule, donor type, donor heavy atom, donor atom, acceptor molecule, acceptor atom, score
      P1  H  6934  6947       L1     3  0.77
      P1  H  7989  7998       L1    12  0.32
      P1  H  7997  8008       L1    16  0.05

> <Gold.Chemscore.Hbond.Weighted>
-8.5391

> <Gold.Chemscore.Metal.Weighted>
-0.0000

> <Gold.Chemscore.Lipo.Weighted>
-11.9677

> <Gold.Chemscore.Internal_Hbond.Weighted>
0.0000

> <Gold.Chemscore.DEClash.Weighted>
0.4584

> <Gold.Chemscore.DEInternal.Weighted>
2.1817

> <Gold.Chemscore.Rot.Weighted>
5.8839

> <Gold.Chemscore.Internal.Correction.Weighted>
   9.000000E+99

> <Gold.Protein.RotatedTorsions>
[ 6907 6896 6895 6894 ] final  -14.93 input  -60.11 | X-H torsion
[ 7974 7965 7964 7962 ] final  133.44 input  175.53 | X-H torsion
[ 8008 7997 7996 7995 ] final -122.29 input   59.86 | X-H torsion
[ 10167 10162 10161 10158 ] final  -33.49 input  -65.29 | X-H torsion
[ 10718 10713 10712 10709 ] final   19.97 input   66.30 | X-H torsion
[ 10763 10752 10751 10750 ] final  172.78 input  -60.55 | X-H torsion
[ 11005 11000 10999 10996 ] final  -50.31 input  -57.11 | X-H torsion

> <Gold.Protein.ActiveResidues>
 VAL166  LYS551  ARG553  GLY616  TRP617  ASP618  TYR619  PRO620  LYS621  CYS622 
 ASP623  PHE694  ASN695  SER759  ASP760  ASP761  ALA762  ILE779  LEU786  VAL792 
 PHE793  MET794  SER795  GLU796  ALA797  LYS798  CYS799  TRP800  GLU811  SER814 

> <Gold.Protein.RotatedAtoms>
  151.3318  135.0843  159.9340 H   0  0  0  0  0  0  0  0  0  0  0  0  # atno 6907 bound_to 6896
  152.5233  133.9535  159.7694 H   0  0  0  0  0  0  0  0  0  0  0  0  # atno 6908 bound_to 6896
  150.9875  133.6130  159.2743 H   0  0  0  0  0  0  0  0  0  0  0  0  # atno 6909 bound_to 6896
  144.9865  139.4450  143.5360 H   0  0  0  0  0  0  0  0  0  0  0  0  # atno 7974 bound_to 7965
  155.1618  140.0406  157.2844 H   0  0  0  0  0  0  0  0  0  0  0  0  # atno 8008 bound_to 7997
  154.6331  140.2529  155.7383 H   0  0  0  0  0  0  0  0  0  0  0  0  # atno 8009 bound_to 7997
  156.2495  140.2871  156.0691 H   0  0  0  0  0  0  0  0  0  0  0  0  # atno 8010 bound_to 7997
  140.7203  143.3617  151.1950 H   0  0  0  0  0  0  0  0  0  0  0  0  # atno 10167 bound_to 10162
  157.1180  130.6537  149.5916 H   0  0  0  0  0  0  0  0  0  0  0  0  # atno 10718 bound_to 10713
  154.4309  135.2760  155.1913 H   0  0  0  0  0  0  0  0  0  0  0  0  # atno 10763 bound_to 10752
  154.3819  135.6085  153.5799 H   0  0  0  0  0  0  0  0  0  0  0  0  # atno 10764 bound_to 10752
  152.9836  135.5882  154.4620 H   0  0  0  0  0  0  0  0  0  0  0  0  # atno 10765 bound_to 10752
  141.0809  133.6654  156.3713 H   0  0  0  0  0  0  0  0  0  0  0  0  # atno 11005 bound_to 11000
  146.3421  139.9171  142.8772 LP  0  0  0  0  0  0  0  0  0  0  0  0  # atno 17320 bound_to 7965
  145.2346  140.9986  143.3971 LP  0  0  0  0  0  0  0  0  0  0  0  0  # atno 17321 bound_to 7965
  139.7170  143.9284  152.2970 LP  0  0  0  0  0  0  0  0  0  0  0  0  # atno 17342 bound_to 10162
  139.9028  144.6901  150.8646 LP  0  0  0  0  0  0  0  0  0  0  0  0  # atno 17343 bound_to 10162
  155.9835  130.4855  150.6936 LP  0  0  0  0  0  0  0  0  0  0  0  0  # atno 17370 bound_to 10713
  157.4502  131.0871  151.0854 LP  0  0  0  0  0  0  0  0  0  0  0  0  # atno 17371 bound_to 10713
  140.5471  134.6064  157.5397 LP  0  0  0  0  0  0  0  0  0  0  0  0  # atno 17394 bound_to 11000
  139.9623  134.7432  156.0211 LP  0  0  0  0  0  0  0  0  0  0  0  0  # atno 17395 bound_to 11000

$$$$
