AV-unprocessed.smi:1587|AV-procd|sdf|6388|dock6
  -GOLD-   22720 7 23D 1   1.00000     0.00000
 Structure written by MMmdl.
 37 38  0  0  0  0  0  0  0  0  2 V2000
  144.6151  136.4974  152.8722 O   0  0  0  0  0  0  0  0  0  0  0  0
  145.8054  136.3912  152.5747 C   0  0  0  0  0  0  0  0  0  0  0  0
  146.7428  137.2622  152.9762 N   0  0  0  0  0  0  0  0  0  0  0  0
  146.4867  138.4311  153.8101 C   0  0  0  0  0  0  0  0  0  0  0  0
  147.4478  139.5874  153.4725 C   0  0  0  0  0  0  0  0  0  0  0  0
  148.5774  139.6827  154.4301 N   0  3  0  0  0  0  0  0  0  0  0  0
  149.6758  138.7427  154.1010 C   0  0  0  0  0  0  0  0  0  0  0  0
  150.8026  138.8430  155.1427 C   0  0  0  0  0  0  0  0  0  0  0  0
  151.2751  140.1825  155.2060 O   0  0  0  0  0  0  0  0  0  0  0  0
  150.2545  141.0873  155.6081 C   0  0  0  0  0  0  0  0  0  0  0  0
  149.1061  141.0612  154.5852 C   0  0  0  0  0  0  0  0  0  0  0  0
  146.3364  135.4133  151.8195 N   0  0  0  0  0  0  0  0  0  0  0  0
  145.6694  134.3196  151.2056 C   0  0  0  0  0  0  0  0  0  0  0  0
  146.5157  133.3757  150.5809 C   0  0  0  0  0  0  0  0  0  0  0  0
  145.9509  132.2552  149.9412 C   0  0  0  0  0  0  0  0  0  0  0  0
  144.5524  132.1073  149.9430 C   0  0  0  0  0  0  0  0  0  0  0  0
  143.7823  133.0925  150.5878 C   0  0  0  0  0  0  0  0  0  0  0  0
  144.3214  134.1672  151.2011 N   0  0  0  0  0  0  0  0  0  0  0  0
  147.6980  137.1030  152.6903 H   0  0  0  0  0  0  0  0  0  0  0  0
  145.4445  138.7298  153.6939 H   0  0  0  0  0  0  0  0  0  0  0  0
  146.6108  138.1374  154.8528 H   0  0  0  0  0  0  0  0  0  0  0  0
  147.8426  139.4162  152.4699 H   0  0  0  0  0  0  0  0  0  0  0  0
  146.9208  140.5421  153.4355 H   0  0  0  0  0  0  0  0  0  0  0  0
  149.2949  137.7210  154.0730 H   0  0  0  0  0  0  0  0  0  0  0  0
  150.0652  138.9677  153.1067 H   0  0  0  0  0  0  0  0  0  0  0  0
  150.4561  138.5190  156.1254 H   0  0  0  0  0  0  0  0  0  0  0  0
  151.6298  138.1894  154.8653 H   0  0  0  0  0  0  0  0  0  0  0  0
  149.8948  140.8297  156.6056 H   0  0  0  0  0  0  0  0  0  0  0  0
  150.6776  142.0901  155.6716 H   0  0  0  0  0  0  0  0  0  0  0  0
  149.4609  141.4281  153.6208 H   0  0  0  0  0  0  0  0  0  0  0  0
  148.3189  141.7389  154.9138 H   0  0  0  0  0  0  0  0  0  0  0  0
  147.3326  135.4553  151.6636 H   0  0  0  0  0  0  0  0  0  0  0  0
  147.5883  133.5040  150.5890 H   0  0  0  0  0  0  0  0  0  0  0  0
  146.5804  131.5227  149.4581 H   0  0  0  0  0  0  0  0  0  0  0  0
  144.0824  131.2617  149.4632 H   0  0  0  0  0  0  0  0  0  0  0  0
  142.7051  133.0167  150.6118 H   0  0  0  0  0  0  0  0  0  0  0  0
  148.2202  139.3972  155.3308 H   0  0  0  0  0  0  0  0  0  0  0  0
  1  2  2  0  0  0  0
  2  3  1  0  0  0  0
  2 12  1  0  0  0  0
  3  4  1  0  0  0  0
  3 19  1  0  0  0  0
  4  5  1  0  0  0  0
  4 20  1  0  0  0  0
  4 21  1  0  0  0  0
  5  6  1  0  0  0  0
  5 22  1  0  0  0  0
  5 23  1  0  0  0  0
  6 11  1  0  0  0  0
  6  7  1  0  0  0  0
  6 37  1  0  0  0  0
  7  8  1  0  0  0  0
  7 24  1  0  0  0  0
  7 25  1  0  0  0  0
  8  9  1  0  0  0  0
  8 26  1  0  0  0  0
  8 27  1  0  0  0  0
  9 10  1  0  0  0  0
 10 11  1  0  0  0  0
 10 28  1  0  0  0  0
 10 29  1  0  0  0  0
 11 30  1  0  0  0  0
 11 31  1  0  0  0  0
 12 13  1  0  0  0  0
 12 32  1  0  0  0  0
 13 18  1  0  0  0  0
 13 14  2  0  0  0  0
 14 15  1  0  0  0  0
 14 33  1  0  0  0  0
 15 16  2  0  0  0  0
 15 34  1  0  0  0  0
 16 17  1  0  0  0  0
 16 35  1  0  0  0  0
 17 18  2  0  0  0  0
 17 36  1  0  0  0  0
M  CHG  1   6   1
M  END
> <s_m_source_file>
AV-unprocessed.smi

> <i_m_source_file_index>
1587

> <i_lp_mmshare_version>
43012

> <i_f3d_flags>
0

> <s_epik_input>
bjFbY0hdW2NIXVtjSF1bY0hdYzFbTkhdQyg9TylbTkhdW0NIMl1bQ0gyXU4yW0NIMl1bQ0gyXU9bQ0gyXVtDSDJdMg==

> <s_epik_cmdline>
J2VwaWtfcHl0aG9uJywgJy1waCcsICc3LjAnLCAnLXRuJywgJzgnLCAnLW1hJywgJzIwMCcsICctbWV0YWxfYmluZGluZycsICctaW1hZScsICc8aW5maWxlLm1hZT4nLCAnLW9tYWUnLCAnPG91dGZpbGUubWFlPic=

> <r_epik_Ionization_Penalty>
0.602565

> <r_epik_Ionization_Penalty_Charging>
0.602531

> <r_epik_Ionization_Penalty_Neutral>
3.41998e-05

> <r_epik_State_Penalty>
0.617039

> <r_epik_Charging_Adjusted_Penalty>
1.21957

> <i_epik_Tot_Q>
1

> <i_epik_Tot_abs_Q>
1

> <r_epik_Metal_State_Penalty>
0.617041

> <b_epik_Metal_Only>
0

> <s_lp_Force_Field>
OPLS_2005

> <r_lp_Energy>
15.9912

> <b_lp_Chiralities_Consistent>
1

> <s_lp_Variant>
AV-unprocessed.smi:1587-2

> <Gold.Version>
5.8.1

> <Gold.Id.Protein>
6NUR|6NUR_protein|mol2

> <Gold.PLP.Fitness>
43.7560

> <Gold.PLP.PLP>
-33.2691

> <Gold.PLP.part.hbond>
-3.0000

> <Gold.PLP.part.metal>
0.0000

> <Gold.PLP.part.buried>
-4.5288

> <Gold.PLP.part.nonpolar>
-26.2535

> <Gold.PLP.part.repulsive>
0.4571

> <Gold.PLP.ligand.clash>
0.0000

> <Gold.PLP.ligand.torsion>
0.7653

> <Gold.PLP.Chemscore.Hbond>
3.0000

> <Gold.PLP.Chemscore.CHOScore>
1.0000

> <Gold.PLP.Chemscore.Metal>
0.0000

> <Gold.Chemscore.Hbonds>
donor molecule, donor type, donor heavy atom, donor atom, acceptor molecule, acceptor atom, score
      L1  H     3    19       P1  7948  1.00
      L1  H    12    32       P1  7948  1.00
      P1  H  7989  7998       L1     9  0.95
      L1  C    17    36       P1 10186  1.00

> <Gold.PLP.Chemscore.Internal.Correction>
0.0175

> <Gold.Rescore>
     Score         DG    S(hbond)    S(metal)    S(lipo)     H(rot)  DE(clash)    DE(int)     intcor
     16.83     -19.17       2.53        0.00      79.66       1.60       0.23       2.11       ----

> <Gold.Chemscore.Fitness>
16.8330

> <Gold.Chemscore.DG>
-19.1688

> <Gold.Chemscore.ZeroCoef>
-5.4800

> <Gold.Chemscore.Hbond>
2.5328

> <Gold.Chemscore.Metal>
0.0000

> <Gold.Chemscore.Lipo>
79.6610

> <Gold.Chemscore.Internal_Hbond>
0.0000

> <Gold.Chemscore.DEClash>
0.2269

> <Gold.Chemscore.DEInternal>
2.1090

> <Gold.Chemscore.Rot>
1.5981

> <Gold.Chemscore.Internal.Correction>
   9.000000E+99

> <Gold.Chemscore.Hbonds>
donor molecule, donor type, donor heavy atom, donor atom, acceptor molecule, acceptor atom, score
      L1  H     3    19       P1  7948  0.98
      L1  H    12    32       P1  7948  0.96
      P1  H  7989  7998       L1     9  0.17

> <Gold.Chemscore.Hbond.Weighted>
-8.4596

> <Gold.Chemscore.Metal.Weighted>
-0.0000

> <Gold.Chemscore.Lipo.Weighted>
-9.3203

> <Gold.Chemscore.Internal_Hbond.Weighted>
0.0000

> <Gold.Chemscore.DEClash.Weighted>
0.2269

> <Gold.Chemscore.DEInternal.Weighted>
2.1090

> <Gold.Chemscore.Rot.Weighted>
4.0911

> <Gold.Chemscore.Internal.Correction.Weighted>
   9.000000E+99

> <Gold.Protein.RotatedTorsions>
[ 6907 6896 6895 6894 ] final -115.37 input  -60.11 | X-H torsion
[ 7974 7965 7964 7962 ] final  -60.22 input  175.53 | X-H torsion
[ 8008 7997 7996 7995 ] final   75.58 input   59.86 | X-H torsion
[ 10167 10162 10161 10158 ] final  130.28 input  -65.29 | X-H torsion
[ 10718 10713 10712 10709 ] final  133.84 input   66.30 | X-H torsion
[ 10763 10752 10751 10750 ] final -152.10 input  -60.55 | X-H torsion
[ 11005 11000 10999 10996 ] final   83.33 input  -57.11 | X-H torsion

> <Gold.Protein.ActiveResidues>
 VAL166  LYS551  ARG553  GLY616  TRP617  ASP618  TYR619  PRO620  LYS621  CYS622 
 ASP623  PHE694  ASN695  SER759  ASP760  ASP761  ALA762  ILE779  LEU786  VAL792 
 PHE793  MET794  SER795  GLU796  ALA797  LYS798  CYS799  TRP800  GLU811  SER814 

> <Gold.Protein.RotatedAtoms>
  150.7972  133.8669  159.3247 H   0  0  0  0  0  0  0  0  0  0  0  0  # atno 6907 bound_to 6896
  151.6490  135.1002  160.0166 H   0  0  0  0  0  0  0  0  0  0  0  0  # atno 6908 bound_to 6896
  152.4055  133.6844  159.6388 H   0  0  0  0  0  0  0  0  0  0  0  0  # atno 6909 bound_to 6896
  145.8181  140.8557  143.0147 H   0  0  0  0  0  0  0  0  0  0  0  0  # atno 7974 bound_to 7965
  155.8150  140.3472  155.5480 H   0  0  0  0  0  0  0  0  0  0  0  0  # atno 8008 bound_to 7997
  155.8401  140.0940  157.1760 H   0  0  0  0  0  0  0  0  0  0  0  0  # atno 8009 bound_to 7997
  154.4005  140.1396  156.3706 H   0  0  0  0  0  0  0  0  0  0  0  0  # atno 8010 bound_to 7997
  139.5437  144.6754  151.4540 H   0  0  0  0  0  0  0  0  0  0  0  0  # atno 10167 bound_to 10162
  157.4733  131.1081  150.9775 H   0  0  0  0  0  0  0  0  0  0  0  0  # atno 10718 bound_to 10713
  154.8016  135.3244  154.7536 H   0  0  0  0  0  0  0  0  0  0  0  0  # atno 10763 bound_to 10752
  153.8203  135.6888  153.4832 H   0  0  0  0  0  0  0  0  0  0  0  0  # atno 10764 bound_to 10752
  153.1736  135.4613  154.9879 H   0  0  0  0  0  0  0  0  0  0  0  0  # atno 10765 bound_to 10752
  139.9034  134.8137  156.2295 H   0  0  0  0  0  0  0  0  0  0  0  0  # atno 11005 bound_to 11000
  144.6750  140.0494  143.7479 LP  0  0  0  0  0  0  0  0  0  0  0  0  # atno 17320 bound_to 7965
  145.9704  139.2866  143.1102 LP  0  0  0  0  0  0  0  0  0  0  0  0  # atno 17321 bound_to 7965
  140.6678  143.8360  150.6962 LP  0  0  0  0  0  0  0  0  0  0  0  0  # atno 17342 bound_to 10162
  140.1775  143.4143  152.1957 LP  0  0  0  0  0  0  0  0  0  0  0  0  # atno 17343 bound_to 10162
  157.0533  130.5796  149.5374 LP  0  0  0  0  0  0  0  0  0  0  0  0  # atno 17370 bound_to 10713
  156.0084  130.5173  150.7907 LP  0  0  0  0  0  0  0  0  0  0  0  0  # atno 17371 bound_to 10713
  141.0354  133.6966  156.1504 LP  0  0  0  0  0  0  0  0  0  0  0  0  # atno 17394 bound_to 11000
  140.7034  134.4539  157.5585 LP  0  0  0  0  0  0  0  0  0  0  0  0  # atno 17395 bound_to 11000

$$$$
