AV-unprocessed.smi:2739|AV-procd|sdf|10553|dock2
  -GOLD-   2272015 03D 1   1.00000     0.00000
 Structure written by MMmdl.
 35 35  0  0  0  0  0  0  0  0  1 V2000
  151.9934  144.5246  161.1536 C   0  0  0  0  0  0  0  0  0  0  0  0
  151.4239  143.6196  160.0516 C   0  0  0  0  0  0  0  0  0  0  0  0
  151.4386  144.2639  158.6528 C   0  0  1  0  0  0  0  0  0  0  0  0
  152.8728  144.5293  158.1679 C   0  0  0  0  0  0  0  0  0  0  0  0
  150.7423  143.4077  157.6962 N   0  0  0  0  0  0  0  0  0  0  0  0
  150.8540  142.0719  157.6178 C   0  0  0  0  0  0  0  0  0  0  0  0
  151.5917  141.4076  158.3451 O   0  0  0  0  0  0  0  0  0  0  0  0
  150.0002  141.3774  156.5552 C   0  0  0  0  0  0  0  0  0  0  0  0
  150.3401  139.9698  156.4442 N   0  0  0  0  0  0  0  0  0  0  0  0
  150.5614  139.2280  155.3037 C   0  0  0  0  0  0  0  0  0  0  0  0
  150.8306  137.9490  155.6978 C   0  0  0  0  0  0  0  0  0  0  0  0
  150.7532  138.0011  157.1202 C   0  0  0  0  0  0  0  0  0  0  0  0
  150.9433  136.8855  158.1147 C   0  0  1  0  0  0  0  0  0  0  0  0
  149.9266  135.7575  157.8921 C   0  0  0  0  0  0  0  0  0  0  0  0
  152.2410  136.3307  158.0517 O   0  0  0  0  0  0  0  0  0  0  0  0
  150.4614  139.2172  157.5589 N   0  0  0  0  0  0  0  0  0  0  0  0
  152.0004  144.0070  162.1130 H   0  0  0  0  0  0  0  0  0  0  0  0
  151.4021  145.4325  161.2746 H   0  0  0  0  0  0  0  0  0  0  0  0
  153.0186  144.8196  160.9284 H   0  0  0  0  0  0  0  0  0  0  0  0
  152.0050  142.6970  160.0264 H   0  0  0  0  0  0  0  0  0  0  0  0
  150.4058  143.3287  160.3143 H   0  0  0  0  0  0  0  0  0  0  0  0
  150.9196  145.2218  158.7216 H   0  0  0  0  0  0  0  0  0  0  0  0
  153.4067  145.1799  158.8609 H   0  0  0  0  0  0  0  0  0  0  0  0
  152.8768  145.0174  157.1927 H   0  0  0  0  0  0  0  0  0  0  0  0
  153.4397  143.6019  158.0779 H   0  0  0  0  0  0  0  0  0  0  0  0
  150.1127  143.8660  157.0538 H   0  0  0  0  0  0  0  0  0  0  0  0
  148.9438  141.4689  156.8114 H   0  0  0  0  0  0  0  0  0  0  0  0
  150.1389  141.8579  155.5853 H   0  0  0  0  0  0  0  0  0  0  0  0
  150.5035  139.6657  154.3179 H   0  0  0  0  0  0  0  0  0  0  0  0
  151.0456  137.1008  155.0649 H   0  0  0  0  0  0  0  0  0  0  0  0
  150.8146  137.2749  159.1255 H   0  0  0  0  0  0  0  0  0  0  0  0
  148.9046  136.1263  157.9868 H   0  0  0  0  0  0  0  0  0  0  0  0
  150.0565  134.9595  158.6238 H   0  0  0  0  0  0  0  0  0  0  0  0
  150.0304  135.3199  156.8984 H   0  0  0  0  0  0  0  0  0  0  0  0
  152.8442  137.0116  157.7956 H   0  0  0  0  0  0  0  0  0  0  0  0
  1  2  1  0  0  0  0
  1 17  1  0  0  0  0
  1 18  1  0  0  0  0
  1 19  1  0  0  0  0
  2  3  1  0  0  0  0
  2 20  1  0  0  0  0
  2 21  1  0  0  0  0
  3  4  1  0  0  0  0
  3  5  1  0  0  0  0
  3 22  1  0  0  0  0
  4 23  1  0  0  0  0
  4 24  1  0  0  0  0
  4 25  1  0  0  0  0
  5  6  1  0  0  0  0
  5 26  1  0  0  0  0
  6  7  2  0  0  0  0
  6  8  1  0  0  0  0
  8  9  1  0  0  0  0
  8 27  1  0  0  0  0
  8 28  1  0  0  0  0
  9 16  1  0  0  0  0
  9 10  1  0  0  0  0
 10 11  2  0  0  0  0
 10 29  1  0  0  0  0
 11 12  1  0  0  0  0
 11 30  1  0  0  0  0
 12 13  1  0  0  0  0
 12 16  2  0  0  0  0
 13 14  1  0  0  0  0
 13 15  1  0  0  0  0
 13 31  1  0  0  0  0
 14 32  1  0  0  0  0
 14 33  1  0  0  0  0
 14 34  1  0  0  0  0
 15 35  1  0  0  0  0
M  END
> <s_m_source_file>
AV-unprocessed.smi

> <i_m_source_file_index>
2739

> <i_lp_mmshare_version>
43012

> <i_f3d_flags>
0

> <s_epik_input>
W0NIM11bQ0gyXVtDQEhdKFtDSDNdKVtOSF1DKD1PKVtDSDJdbjFbY0hdW2NIXWMobjEpW0NASF0oW0NIM10pW09IXQ==

> <s_epik_cmdline>
J2VwaWtfcHl0aG9uJywgJy1waCcsICc3LjAnLCAnLXRuJywgJzgnLCAnLW1hJywgJzIwMCcsICctbWV0YWxfYmluZGluZycsICctaW1hZScsICc8aW5maWxlLm1hZT4nLCAnLW9tYWUnLCAnPG91dGZpbGUubWFlPic=

> <r_lp_tautomer_probability>
1

> <r_epik_Ionization_Penalty>
5.22246e-06

> <r_epik_Ionization_Penalty_Charging>
0

> <r_epik_Ionization_Penalty_Neutral>
5.22246e-06

> <r_epik_State_Penalty>
-0

> <r_epik_Charging_Adjusted_Penalty>
0

> <i_epik_Tot_Q>
0

> <i_epik_Tot_abs_Q>
0

> <r_epik_Metal_State_Penalty>
-0

> <b_epik_Metal_Only>
0

> <s_lp_Force_Field>
OPLS_2005

> <r_lp_Energy>
1.19937

> <b_lp_Chiralities_Consistent>
1

> <s_lp_Variant>
AV-unprocessed.smi:2739-4

> <Gold.Version>
5.8.1

> <Gold.Id.Protein>
6NUR|6NUR_protein|mol2

> <Gold.PLP.Fitness>
40.0450

> <Gold.PLP.PLP>
-32.0691

> <Gold.PLP.part.hbond>
-2.0000

> <Gold.PLP.part.metal>
0.0000

> <Gold.PLP.part.buried>
-1.4890

> <Gold.PLP.part.nonpolar>
-28.0417

> <Gold.PLP.part.repulsive>
0.0064

> <Gold.PLP.ligand.clash>
0.0000

> <Gold.PLP.ligand.torsion>
0.4999

> <Gold.PLP.Chemscore.Hbond>
1.9920

> <Gold.PLP.Chemscore.CHOScore>
0.9870

> <Gold.PLP.Chemscore.Metal>
0.0000

> <Gold.Chemscore.Hbonds>
donor molecule, donor type, donor heavy atom, donor atom, acceptor molecule, acceptor atom, score
      L1  H     5    26       P1  8028  1.00

> <Gold.PLP.Chemscore.Internal.Correction>
0.0387

> <Gold.Rescore>
     Score         DG    S(hbond)    S(metal)    S(lipo)     H(rot)  DE(clash)    DE(int)     intcor
     11.79     -15.88       1.86        0.00      87.18       2.34       1.65       2.43       ----

> <Gold.Chemscore.Fitness>
11.7944

> <Gold.Chemscore.DG>
-15.8759

> <Gold.Chemscore.ZeroCoef>
-5.4800

> <Gold.Chemscore.Hbond>
1.8559

> <Gold.Chemscore.Metal>
0.0000

> <Gold.Chemscore.Lipo>
87.1797

> <Gold.Chemscore.Internal_Hbond>
0.0000

> <Gold.Chemscore.DEClash>
1.6539

> <Gold.Chemscore.DEInternal>
2.4277

> <Gold.Chemscore.Rot>
2.3448

> <Gold.Chemscore.Internal.Correction>
   9.000000E+99

> <Gold.Chemscore.Hbonds>
donor molecule, donor type, donor heavy atom, donor atom, acceptor molecule, acceptor atom, score
      L1  H     5    26       P1  8028  0.91

> <Gold.Chemscore.Hbond.Weighted>
-6.1986

> <Gold.Chemscore.Metal.Weighted>
-0.0000

> <Gold.Chemscore.Lipo.Weighted>
-10.2000

> <Gold.Chemscore.Internal_Hbond.Weighted>
0.0000

> <Gold.Chemscore.DEClash.Weighted>
1.6539

> <Gold.Chemscore.DEInternal.Weighted>
2.4277

> <Gold.Chemscore.Rot.Weighted>
6.0027

> <Gold.Chemscore.Internal.Correction.Weighted>
   9.000000E+99

> <Gold.Protein.RotatedTorsions>
[ 6907 6896 6895 6894 ] final  -18.62 input  -60.11 | X-H torsion
[ 7974 7965 7964 7962 ] final  -22.15 input  175.53 | X-H torsion
[ 8008 7997 7996 7995 ] final  -16.21 input   59.86 | X-H torsion
[ 10167 10162 10161 10158 ] final -169.57 input  -65.29 | X-H torsion
[ 10718 10713 10712 10709 ] final   32.27 input   66.30 | X-H torsion
[ 10763 10752 10751 10750 ] final  107.58 input  -60.55 | X-H torsion
[ 11005 11000 10999 10996 ] final    3.49 input  -57.11 | X-H torsion

> <Gold.Protein.ActiveResidues>
 VAL166  LYS551  ARG553  GLY616  TRP617  ASP618  TYR619  PRO620  LYS621  CYS622 
 ASP623  PHE694  ASN695  SER759  ASP760  ASP761  ALA762  ILE779  LEU786  VAL792 
 PHE793  MET794  SER795  GLU796  ALA797  LYS798  CYS799  TRP800  GLU811  SER814 

> <Gold.Protein.RotatedAtoms>
  151.2755  135.0698  159.9149 H   0  0  0  0  0  0  0  0  0  0  0  0  # atno 6907 bound_to 6896
  152.5343  134.0086  159.7938 H   0  0  0  0  0  0  0  0  0  0  0  0  # atno 6908 bound_to 6896
  151.0331  133.5722  159.2689 H   0  0  0  0  0  0  0  0  0  0  0  0  # atno 6909 bound_to 6896
  146.1692  140.4440  142.8539 H   0  0  0  0  0  0  0  0  0  0  0  0  # atno 7974 bound_to 7965
  154.5070  140.2175  155.9231 H   0  0  0  0  0  0  0  0  0  0  0  0  # atno 8008 bound_to 7997
  156.1506  140.3162  155.8608 H   0  0  0  0  0  0  0  0  0  0  0  0  # atno 8009 bound_to 7997
  155.3946  140.0480  157.3030 H   0  0  0  0  0  0  0  0  0  0  0  0  # atno 8010 bound_to 7997
  139.5915  144.1204  152.1639 H   0  0  0  0  0  0  0  0  0  0  0  0  # atno 10167 bound_to 10162
  157.2830  130.7265  149.6567 H   0  0  0  0  0  0  0  0  0  0  0  0  # atno 10718 bound_to 10713
  153.4087  135.3839  155.2036 H   0  0  0  0  0  0  0  0  0  0  0  0  # atno 10763 bound_to 10752
  154.8736  135.3789  154.4527 H   0  0  0  0  0  0  0  0  0  0  0  0  # atno 10764 bound_to 10752
  153.5033  135.7088  153.5882 H   0  0  0  0  0  0  0  0  0  0  0  0  # atno 10765 bound_to 10752
  140.5925  133.9911  155.8095 H   0  0  0  0  0  0  0  0  0  0  0  0  # atno 11005 bound_to 11000
  144.8137  140.6431  143.6398 LP  0  0  0  0  0  0  0  0  0  0  0  0  # atno 17320 bound_to 7965
  145.4386  139.1539  143.3983 LP  0  0  0  0  0  0  0  0  0  0  0  0  # atno 17321 bound_to 7965
  140.0779  144.5725  150.7144 LP  0  0  0  0  0  0  0  0  0  0  0  0  # atno 17342 bound_to 10162
  140.7177  143.2559  151.4382 LP  0  0  0  0  0  0  0  0  0  0  0  0  # atno 17343 bound_to 10162
  155.9665  130.4332  150.4996 LP  0  0  0  0  0  0  0  0  0  0  0  0  # atno 17370 bound_to 10713
  157.2944  131.0632  151.2112 LP  0  0  0  0  0  0  0  0  0  0  0  0  # atno 17371 bound_to 10713
  141.0925  133.9894  157.3213 LP  0  0  0  0  0  0  0  0  0  0  0  0  # atno 17394 bound_to 11000
  139.9268  135.0201  156.8261 LP  0  0  0  0  0  0  0  0  0  0  0  0  # atno 17395 bound_to 11000

$$$$
