AV-unprocessed.smi:1075|AV-procd|sdf|4696|dock6
  -GOLD-   22720 3213D 1   1.00000     0.00000
 Structure written by MMmdl.
 50 51  0  0  0  0  0  0  0  0  1 V2000
  150.9926  145.4547  160.4089 C   0  0  0  0  0  0  0  0  0  0  0  0
  151.7226  144.1477  160.2846 C   0  0  0  0  0  0  0  0  0  0  0  0
  152.4316  143.7052  161.3087 N   0  0  0  0  0  0  0  0  0  0  0  0
  152.9438  142.5315  160.8908 N   0  0  0  0  0  0  0  0  0  0  0  0
  153.7855  141.7668  161.7909 C   0  0  0  0  0  0  0  0  0  0  0  0
  152.5547  142.2284  159.5997 C   0  0  0  0  0  0  0  0  0  0  0  0
  152.9893  140.9689  158.9177 C   0  0  0  0  0  0  0  0  0  0  0  0
  151.7626  143.2626  159.1664 C   0  0  0  0  0  0  0  0  0  0  0  0
  151.0599  143.4566  157.8373 C   0  0  1  0  0  0  0  0  0  0  0  0
  152.0325  143.8963  156.7265 C   0  0  0  0  0  0  0  0  0  0  0  0
  150.2702  142.1853  157.4874 C   0  0  0  0  0  0  0  0  0  0  0  0
  150.3368  141.1863  158.2042 O   0  0  0  0  0  0  0  0  0  0  0  0
  149.5167  142.2573  156.3745 N   0  0  0  0  0  0  0  0  0  0  0  0
  148.5973  141.2577  155.8185 C   0  0  1  0  0  0  0  0  0  0  0  0
  147.9331  140.4606  156.9659 C   0  0  0  0  0  0  0  0  0  0  0  0
  147.5442  141.9617  154.9190 C   0  0  0  0  0  0  0  0  0  0  0  0
  146.7454  140.9916  154.0312 C   0  0  0  0  0  0  0  0  0  0  0  0
  147.6678  140.1181  153.1653 C   0  0  2  0  0  0  0  0  0  0  0  0
  146.8647  139.1575  152.2768 C   0  0  0  0  0  0  0  0  0  0  0  0
  148.6638  139.3607  154.0584 C   0  0  0  0  0  0  0  0  0  0  0  0
  149.4725  140.3223  154.9463 C   0  0  0  0  0  0  0  0  0  0  0  0
  149.9480  145.3470  160.1155 H   0  0  0  0  0  0  0  0  0  0  0  0
  151.4424  146.2133  159.7682 H   0  0  0  0  0  0  0  0  0  0  0  0
  151.0087  145.8322  161.4320 H   0  0  0  0  0  0  0  0  0  0  0  0
  153.2601  140.8643  162.1037 H   0  0  0  0  0  0  0  0  0  0  0  0
  154.0380  142.3534  162.6755 H   0  0  0  0  0  0  0  0  0  0  0  0
  154.7076  141.4848  161.2826 H   0  0  0  0  0  0  0  0  0  0  0  0
  152.2734  140.6633  158.1560 H   0  0  0  0  0  0  0  0  0  0  0  0
  153.0798  140.1438  159.6241 H   0  0  0  0  0  0  0  0  0  0  0  0
  153.9564  141.1082  158.4342 H   0  0  0  0  0  0  0  0  0  0  0  0
  150.3185  144.2515  157.9251 H   0  0  0  0  0  0  0  0  0  0  0  0
  152.8111  143.1561  156.5433 H   0  0  0  0  0  0  0  0  0  0  0  0
  152.5248  144.8320  156.9928 H   0  0  0  0  0  0  0  0  0  0  0  0
  151.5077  144.0627  155.7851 H   0  0  0  0  0  0  0  0  0  0  0  0
  149.5534  143.1322  155.8716 H   0  0  0  0  0  0  0  0  0  0  0  0
  147.3085  139.6506  156.5915 H   0  0  0  0  0  0  0  0  0  0  0  0
  147.2909  141.0900  157.5817 H   0  0  0  0  0  0  0  0  0  0  0  0
  148.6817  140.0151  157.6217 H   0  0  0  0  0  0  0  0  0  0  0  0
  146.8472  142.5423  155.5237 H   0  0  0  0  0  0  0  0  0  0  0  0
  148.0478  142.6809  154.2704 H   0  0  0  0  0  0  0  0  0  0  0  0
  146.1101  140.3598  154.6529 H   0  0  0  0  0  0  0  0  0  0  0  0
  146.0707  141.5622  153.3921 H   0  0  0  0  0  0  0  0  0  0  0  0
  148.2371  140.7767  152.5076 H   0  0  0  0  0  0  0  0  0  0  0  0
  146.2701  138.4663  152.8751 H   0  0  0  0  0  0  0  0  0  0  0  0
  147.5248  138.5658  151.6421 H   0  0  0  0  0  0  0  0  0  0  0  0
  146.1836  139.7038  151.6241 H   0  0  0  0  0  0  0  0  0  0  0  0
  148.1333  138.6367  154.6775 H   0  0  0  0  0  0  0  0  0  0  0  0
  149.3493  138.7818  153.4384 H   0  0  0  0  0  0  0  0  0  0  0  0
  150.1055  140.9263  154.2935 H   0  0  0  0  0  0  0  0  0  0  0  0
  150.1560  139.7506  155.5756 H   0  0  0  0  0  0  0  0  0  0  0  0
  1  2  1  0  0  0  0
  1 22  1  0  0  0  0
  1 23  1  0  0  0  0
  1 24  1  0  0  0  0
  2  8  1  0  0  0  0
  2  3  2  0  0  0  0
  3  4  1  0  0  0  0
  4  5  1  0  0  0  0
  4  6  1  0  0  0  0
  5 25  1  0  0  0  0
  5 26  1  0  0  0  0
  5 27  1  0  0  0  0
  6  7  1  0  0  0  0
  6  8  2  0  0  0  0
  7 28  1  0  0  0  0
  7 29  1  0  0  0  0
  7 30  1  0  0  0  0
  8  9  1  0  0  0  0
  9 10  1  0  0  0  0
  9 11  1  0  0  0  0
  9 31  1  0  0  0  0
 10 32  1  0  0  0  0
 10 33  1  0  0  0  0
 10 34  1  0  0  0  0
 11 12  2  0  0  0  0
 11 13  1  0  0  0  0
 13 14  1  0  0  0  0
 13 35  1  0  0  0  0
 14 21  1  0  0  0  0
 14 15  1  0  0  0  0
 14 16  1  0  0  0  0
 15 36  1  0  0  0  0
 15 37  1  0  0  0  0
 15 38  1  0  0  0  0
 16 17  1  0  0  0  0
 16 39  1  0  0  0  0
 16 40  1  0  0  0  0
 17 18  1  0  0  0  0
 17 41  1  0  0  0  0
 17 42  1  0  0  0  0
 18 19  1  0  0  0  0
 18 20  1  0  0  0  0
 18 43  1  0  0  0  0
 19 44  1  0  0  0  0
 19 45  1  0  0  0  0
 19 46  1  0  0  0  0
 20 21  1  0  0  0  0
 20 47  1  0  0  0  0
 20 48  1  0  0  0  0
 21 49  1  0  0  0  0
 21 50  1  0  0  0  0
M  END
> <s_m_source_file>
AV-unprocessed.smi

> <i_m_source_file_index>
1075

> <i_lp_mmshare_version>
43012

> <i_f3d_flags>
0

> <s_epik_input>
W0NIM11jMW5uKFtDSDNdKWMoW0NIM10pYzFbQ0BIXShbQ0gzXSlDKD1PKVtOSF1bQ0BAXTIoW0NIM10pW0NIMl1bQ0gyXVtDQEBIXShbQ0gzXSlbQ0gyXVtDSDJdMg==

> <s_epik_cmdline>
J2VwaWtfcHl0aG9uJywgJy1waCcsICc3LjAnLCAnLXRuJywgJzgnLCAnLW1hJywgJzIwMCcsICctbWV0YWxfYmluZGluZycsICctaW1hZScsICc8aW5maWxlLm1hZT4nLCAnLW9tYWUnLCAnPG91dGZpbGUubWFlPic=

> <r_lp_tautomer_probability>
1

> <r_epik_Ionization_Penalty>
0.00502928

> <r_epik_Ionization_Penalty_Charging>
0

> <r_epik_Ionization_Penalty_Neutral>
0.00502928

> <r_epik_State_Penalty>
0.0036576

> <r_epik_Charging_Adjusted_Penalty>
0.0036576

> <i_epik_Tot_Q>
0

> <i_epik_Tot_abs_Q>
0

> <r_epik_Metal_State_Penalty>
-0

> <b_epik_Metal_Only>
0

> <s_lp_Force_Field>
OPLS_2005

> <r_lp_Energy>
7.42101

> <b_lp_Chiralities_Consistent>
1

> <s_lp_Variant>
AV-unprocessed.smi:1075-4

> <Gold.Version>
5.8.1

> <Gold.Id.Protein>
6NUR|6NUR_protein|mol2

> <Gold.PLP.Fitness>
41.8744

> <Gold.PLP.PLP>
-40.7041

> <Gold.PLP.part.hbond>
-1.0000

> <Gold.PLP.part.metal>
0.0000

> <Gold.PLP.part.buried>
-0.0834

> <Gold.PLP.part.nonpolar>
-41.0892

> <Gold.PLP.part.repulsive>
0.2042

> <Gold.PLP.ligand.clash>
0.0000

> <Gold.PLP.ligand.torsion>
0.8509

> <Gold.PLP.Chemscore.Hbond>
0.9280

> <Gold.PLP.Chemscore.CHOScore>
0.0000

> <Gold.PLP.Chemscore.Metal>
0.0000

> <Gold.Chemscore.Hbonds>
donor molecule, donor type, donor heavy atom, donor atom, acceptor molecule, acceptor atom, score
      L1  H    13    35       P1  8028  0.94

> <Gold.PLP.Chemscore.Internal.Correction>
0.0881

> <Gold.Rescore>
     Score         DG    S(hbond)    S(metal)    S(lipo)     H(rot)  DE(clash)    DE(int)     intcor
     14.56     -20.96       0.98        0.00     131.23       1.23       1.60       4.80       ----

> <Gold.Chemscore.Fitness>
14.5569

> <Gold.Chemscore.DG>
-20.9611

> <Gold.Chemscore.ZeroCoef>
-5.4800

> <Gold.Chemscore.Hbond>
0.9824

> <Gold.Chemscore.Metal>
0.0000

> <Gold.Chemscore.Lipo>
131.2305

> <Gold.Chemscore.Internal_Hbond>
0.0000

> <Gold.Chemscore.DEClash>
1.6035

> <Gold.Chemscore.DEInternal>
4.8007

> <Gold.Chemscore.Rot>
1.2321

> <Gold.Chemscore.Internal.Correction>
   9.000000E+99

> <Gold.Chemscore.Hbonds>
donor molecule, donor type, donor heavy atom, donor atom, acceptor molecule, acceptor atom, score
      L1  H    13    35       P1  8028  0.91

> <Gold.Chemscore.Hbond.Weighted>
-3.2813

> <Gold.Chemscore.Metal.Weighted>
-0.0000

> <Gold.Chemscore.Lipo.Weighted>
-15.3540

> <Gold.Chemscore.Internal_Hbond.Weighted>
0.0000

> <Gold.Chemscore.DEClash.Weighted>
1.6035

> <Gold.Chemscore.DEInternal.Weighted>
4.8007

> <Gold.Chemscore.Rot.Weighted>
3.1541

> <Gold.Chemscore.Internal.Correction.Weighted>
   9.000000E+99

> <Gold.Protein.RotatedTorsions>
[ 6907 6896 6895 6894 ] final  135.78 input  -60.11 | X-H torsion
[ 7974 7965 7964 7962 ] final  -57.10 input  175.53 | X-H torsion
[ 8008 7997 7996 7995 ] final  147.30 input   59.86 | X-H torsion
[ 10167 10162 10161 10158 ] final   96.18 input  -65.29 | X-H torsion
[ 10718 10713 10712 10709 ] final  -80.42 input   66.30 | X-H torsion
[ 10763 10752 10751 10750 ] final   73.03 input  -60.55 | X-H torsion
[ 11005 11000 10999 10996 ] final -170.77 input  -57.11 | X-H torsion

> <Gold.Protein.ActiveResidues>
 VAL166  LYS551  ARG553  GLY616  TRP617  ASP618  TYR619  PRO620  LYS621  CYS622 
 ASP623  PHE694  ASN695  SER759  ASP760  ASP761  ALA762  ILE779  LEU786  VAL792 
 PHE793  MET794  SER795  GLU796  ALA797  LYS798  CYS799  TRP800  GLU811  SER814 

> <Gold.Protein.RotatedAtoms>
  152.2967  133.5614  159.5591 H   0  0  0  0  0  0  0  0  0  0  0  0  # atno 6907 bound_to 6896
  150.7259  134.0351  159.3755 H   0  0  0  0  0  0  0  0  0  0  0  0  # atno 6908 bound_to 6896
  151.8253  135.0639  160.0481 H   0  0  0  0  0  0  0  0  0  0  0  0  # atno 6909 bound_to 6896
  145.8550  140.8326  142.9966 H   0  0  0  0  0  0  0  0  0  0  0  0  # atno 7974 bound_to 7965
  156.2829  140.2159  156.5516 H   0  0  0  0  0  0  0  0  0  0  0  0  # atno 8008 bound_to 7997
  154.7286  140.0497  157.0728 H   0  0  0  0  0  0  0  0  0  0  0  0  # atno 8009 bound_to 7997
  155.0383  140.3143  155.4736 H   0  0  0  0  0  0  0  0  0  0  0  0  # atno 8010 bound_to 7997
  139.7919  144.6849  150.9881 H   0  0  0  0  0  0  0  0  0  0  0  0  # atno 10167 bound_to 10162
  156.0070  130.4574  150.3797 H   0  0  0  0  0  0  0  0  0  0  0  0  # atno 10718 bound_to 10713
  153.0496  135.5078  154.7833 H   0  0  0  0  0  0  0  0  0  0  0  0  # atno 10763 bound_to 10752
  154.6706  135.2952  154.9750 H   0  0  0  0  0  0  0  0  0  0  0  0  # atno 10764 bound_to 10752
  154.0569  135.6696  153.4859 H   0  0  0  0  0  0  0  0  0  0  0  0  # atno 10765 bound_to 10752
  140.5157  134.5758  157.5032 H   0  0  0  0  0  0  0  0  0  0  0  0  # atno 11005 bound_to 11000
  144.6728  140.1010  143.7460 LP  0  0  0  0  0  0  0  0  0  0  0  0  # atno 17320 bound_to 7965
  145.9314  139.2609  143.1323 LP  0  0  0  0  0  0  0  0  0  0  0  0  # atno 17321 bound_to 7965
  140.7820  143.4372  151.0606 LP  0  0  0  0  0  0  0  0  0  0  0  0  # atno 17342 bound_to 10162
  139.8048  143.8033  152.3166 LP  0  0  0  0  0  0  0  0  0  0  0  0  # atno 17343 bound_to 10162
  157.1878  131.0408  151.2716 LP  0  0  0  0  0  0  0  0  0  0  0  0  # atno 17370 bound_to 10713
  157.4088  130.7374  149.6823 LP  0  0  0  0  0  0  0  0  0  0  0  0  # atno 17371 bound_to 10713
  139.9634  134.7414  156.0189 LP  0  0  0  0  0  0  0  0  0  0  0  0  # atno 17394 bound_to 11000
  141.1361  133.6575  156.3599 LP  0  0  0  0  0  0  0  0  0  0  0  0  # atno 17395 bound_to 11000

$$$$
