AV-unprocessed.smi:2556|AV-procd|sdf|10024|dock4
  -GOLD-   2272014 73D 1   1.00000     0.00000
 Structure written by MMmdl.
 35 37  0  0  0  0  0  0  0  0  1 V2000
  152.1087  137.9406  154.2091 C   0  0  0  0  0  0  0  0  0  0  0  0
  151.3975  138.1253  155.4757 N   0  0  0  0  0  0  0  0  0  0  0  0
  151.2964  137.1196  156.4063 C   0  0  0  0  0  0  0  0  0  0  0  0
  151.7969  136.0079  156.2400 O   0  0  0  0  0  0  0  0  0  0  0  0
  150.6076  137.3862  157.5593 N   0  0  0  0  0  0  0  0  0  0  0  0
  150.0017  138.5472  157.9084 C   0  0  0  0  0  0  0  0  0  0  0  0
  149.3989  138.7127  158.9670 O   0  0  0  0  0  0  0  0  0  0  0  0
  150.1418  139.5920  156.8899 C   0  0  0  0  0  0  0  0  0  0  0  0
  150.8089  139.3967  155.7230 C   0  0  0  0  0  0  0  0  0  0  0  0
  150.7940  140.5444  154.9380 N   0  0  0  0  0  0  0  0  0  0  0  0
  150.0991  141.3931  155.6988 C   0  0  0  0  0  0  0  0  0  0  0  0
  149.6745  140.9027  156.8819 N   0  0  0  0  0  0  0  0  0  0  0  0
  148.9047  141.6106  157.8927 C   0  0  0  0  0  0  0  0  0  0  0  0
  149.5403  142.9578  158.2906 C   0  0  1  0  0  0  0  0  0  0  0  0
  148.6232  143.7163  159.0562 O   0  0  0  0  0  0  0  0  0  0  0  0
  150.8631  142.7503  159.0117 C   0  0  0  0  0  0  0  0  0  0  0  0
  151.5776  143.8486  159.5400 C   0  0  0  0  0  0  0  0  0  0  0  0
  152.7971  143.6443  160.2144 C   0  0  0  0  0  0  0  0  0  0  0  0
  153.3080  142.3413  160.3679 C   0  0  0  0  0  0  0  0  0  0  0  0
  152.5981  141.2425  159.8470 C   0  0  0  0  0  0  0  0  0  0  0  0
  151.3786  141.4461  159.1721 C   0  0  0  0  0  0  0  0  0  0  0  0
  150.5447  136.6307  158.2260 H   0  0  0  0  0  0  0  0  0  0  0  0
  152.5015  136.9340  154.0620 H   0  0  0  0  0  0  0  0  0  0  0  0
  152.9498  138.6321  154.1503 H   0  0  0  0  0  0  0  0  0  0  0  0
  151.4418  138.1531  153.3728 H   0  0  0  0  0  0  0  0  0  0  0  0
  149.8946  142.4069  155.3865 H   0  0  0  0  0  0  0  0  0  0  0  0
  147.8948  141.7679  157.5109 H   0  0  0  0  0  0  0  0  0  0  0  0
  148.8033  140.9636  158.7646 H   0  0  0  0  0  0  0  0  0  0  0  0
  149.7362  143.5372  157.3879 H   0  0  0  0  0  0  0  0  0  0  0  0
  148.5119  144.5579  158.6407 H   0  0  0  0  0  0  0  0  0  0  0  0
  151.1919  144.8520  159.4327 H   0  0  0  0  0  0  0  0  0  0  0  0
  153.3394  144.4876  160.6158 H   0  0  0  0  0  0  0  0  0  0  0  0
  154.2424  142.1849  160.8866 H   0  0  0  0  0  0  0  0  0  0  0  0
  152.9883  140.2426  159.9670 H   0  0  0  0  0  0  0  0  0  0  0  0
  150.8389  140.5963  158.7801 H   0  0  0  0  0  0  0  0  0  0  0  0
  1  2  1  0  0  0  0
  1 23  1  0  0  0  0
  1 24  1  0  0  0  0
  1 25  1  0  0  0  0
  2  9  1  0  0  0  0
  2  3  1  0  0  0  0
  3  4  2  0  0  0  0
  3  5  1  0  0  0  0
  5 22  1  0  0  0  0
  5  6  1  0  0  0  0
  6  7  2  0  0  0  0
  6  8  1  0  0  0  0
  8 12  1  0  0  0  0
  8  9  2  0  0  0  0
  9 10  1  0  0  0  0
 10 11  2  0  0  0  0
 11 12  1  0  0  0  0
 11 26  1  0  0  0  0
 12 13  1  0  0  0  0
 13 14  1  0  0  0  0
 13 27  1  0  0  0  0
 13 28  1  0  0  0  0
 14 15  1  0  0  0  0
 14 16  1  0  0  0  0
 14 29  1  0  0  0  0
 15 30  1  0  0  0  0
 16 21  1  0  0  0  0
 16 17  2  0  0  0  0
 17 18  1  0  0  0  0
 17 31  1  0  0  0  0
 18 19  2  0  0  0  0
 18 32  1  0  0  0  0
 19 20  1  0  0  0  0
 19 33  1  0  0  0  0
 20 21  2  0  0  0  0
 20 34  1  0  0  0  0
 21 35  1  0  0  0  0
M  END
> <s_m_source_file>
AV-unprocessed.smi

> <i_m_source_file_index>
2556

> <i_lp_mmshare_version>
43012

> <i_f3d_flags>
0

> <s_epik_input>
Tz1jMVtuSF1jKD1PKW4oW0NIM10pYyhjMTIpbltjSF1uMltDSDJdW0NASF0oW09IXSljM1tjSF1bY0hdW2NIXVtjSF1bY0hdMw==

> <s_epik_cmdline>
J2VwaWtfcHl0aG9uJywgJy1waCcsICc3LjAnLCAnLXRuJywgJzgnLCAnLW1hJywgJzIwMCcsICctbWV0YWxfYmluZGluZycsICctaW1hZScsICc8aW5maWxlLm1hZT4nLCAnLW9tYWUnLCAnPG91dGZpbGUubWFlPic=

> <r_lp_tautomer_probability>
1

> <r_epik_Ionization_Penalty>
0.000177505

> <r_epik_Ionization_Penalty_Charging>
0.000176585

> <r_epik_Ionization_Penalty_Neutral>
9.19728e-07

> <r_epik_State_Penalty>
-0

> <r_epik_Charging_Adjusted_Penalty>
0.000176585

> <i_epik_Tot_Q>
0

> <i_epik_Tot_abs_Q>
0

> <r_epik_Metal_State_Penalty>
0.122509

> <b_epik_Metal_Only>
0

> <s_lp_Force_Field>
OPLS_2005

> <r_lp_Energy>
28.4521

> <b_lp_Chiralities_Consistent>
1

> <s_lp_Variant>
AV-unprocessed.smi:2556-2

> <Gold.Version>
5.8.1

> <Gold.Id.Protein>
6NUR|6NUR_protein|mol2

> <Gold.PLP.Fitness>
46.0865

> <Gold.PLP.PLP>
-34.4336

> <Gold.PLP.part.hbond>
-4.3587

> <Gold.PLP.part.metal>
0.0000

> <Gold.PLP.part.buried>
-3.5752

> <Gold.PLP.part.nonpolar>
-26.4497

> <Gold.PLP.part.repulsive>
0.1415

> <Gold.PLP.ligand.clash>
0.0000

> <Gold.PLP.ligand.torsion>
0.1717

> <Gold.PLP.Chemscore.Hbond>
2.9913

> <Gold.PLP.Chemscore.CHOScore>
1.0000

> <Gold.PLP.Chemscore.Metal>
0.0000

> <Gold.Chemscore.Hbonds>
donor molecule, donor type, donor heavy atom, donor atom, acceptor molecule, acceptor atom, score
      L1  H    15    30       P1  8029  0.98
      P1  H  7989  7998       L1    10  1.00
      P1  H 10752 10764       L1     4  1.00
      L1  C    11    26       P1  8028  0.99

> <Gold.PLP.Chemscore.Internal.Correction>
0.0224

> <Gold.Rescore>
     Score         DG    S(hbond)    S(metal)    S(lipo)     H(rot)  DE(clash)    DE(int)     intcor
     16.53     -17.95       2.77        0.00      78.19       2.31       0.15       1.27       ----

> <Gold.Chemscore.Fitness>
16.5267

> <Gold.Chemscore.DG>
-17.9492

> <Gold.Chemscore.ZeroCoef>
-5.4800

> <Gold.Chemscore.Hbond>
2.7661

> <Gold.Chemscore.Metal>
0.0000

> <Gold.Chemscore.Lipo>
78.1855

> <Gold.Chemscore.Internal_Hbond>
0.0000

> <Gold.Chemscore.DEClash>
0.1511

> <Gold.Chemscore.DEInternal>
1.2714

> <Gold.Chemscore.Rot>
2.3115

> <Gold.Chemscore.Internal.Correction>
   9.000000E+99

> <Gold.Chemscore.Hbonds>
donor molecule, donor type, donor heavy atom, donor atom, acceptor molecule, acceptor atom, score
      L1  H    15    30       P1  8029  0.82
      P1  H  7989  7998       L1    10  0.95
      P1  H 10752 10764       L1     4  1.00

> <Gold.Chemscore.Hbond.Weighted>
-9.2389

> <Gold.Chemscore.Metal.Weighted>
-0.0000

> <Gold.Chemscore.Lipo.Weighted>
-9.1477

> <Gold.Chemscore.Internal_Hbond.Weighted>
0.0000

> <Gold.Chemscore.DEClash.Weighted>
0.1511

> <Gold.Chemscore.DEInternal.Weighted>
1.2714

> <Gold.Chemscore.Rot.Weighted>
5.9174

> <Gold.Chemscore.Internal.Correction.Weighted>
   9.000000E+99

> <Gold.Protein.RotatedTorsions>
[ 6907 6896 6895 6894 ] final  138.98 input  -60.11 | X-H torsion
[ 7974 7965 7964 7962 ] final -155.91 input  175.53 | X-H torsion
[ 8008 7997 7996 7995 ] final -178.66 input   59.86 | X-H torsion
[ 10167 10162 10161 10158 ] final -150.08 input  -65.29 | X-H torsion
[ 10718 10713 10712 10709 ] final   52.35 input   66.30 | X-H torsion
[ 10763 10752 10751 10750 ] final  -29.66 input  -60.55 | X-H torsion
[ 11005 11000 10999 10996 ] final  146.14 input  -57.11 | X-H torsion

> <Gold.Protein.ActiveResidues>
 VAL166  LYS551  ARG553  GLY616  TRP617  ASP618  TYR619  PRO620  LYS621  CYS622 
 ASP623  PHE694  ASN695  SER759  ASP760  ASP761  ALA762  ILE779  LEU786  VAL792 
 PHE793  MET794  SER795  GLU796  ALA797  LYS798  CYS799  TRP800  GLU811  SER814 

> <Gold.Protein.RotatedAtoms>
  152.2603  133.5291  159.5377 H   0  0  0  0  0  0  0  0  0  0  0  0  # atno 6907 bound_to 6896
  150.7123  134.0839  159.3916 H   0  0  0  0  0  0  0  0  0  0  0  0  # atno 6908 bound_to 6896
  151.8757  135.0473  160.0534 H   0  0  0  0  0  0  0  0  0  0  0  0  # atno 6909 bound_to 6896
  144.7618  140.4184  143.5971 H   0  0  0  0  0  0  0  0  0  0  0  0  # atno 7974 bound_to 7965
  156.0214  140.1262  157.0353 H   0  0  0  0  0  0  0  0  0  0  0  0  # atno 8008 bound_to 7997
  154.4313  140.1068  156.6039 H   0  0  0  0  0  0  0  0  0  0  0  0  # atno 8009 bound_to 7997
  155.5939  140.3469  155.4576 H   0  0  0  0  0  0  0  0  0  0  0  0  # atno 8010 bound_to 7997
  139.7386  143.8697  152.2556 H   0  0  0  0  0  0  0  0  0  0  0  0  # atno 10167 bound_to 10162
  157.5067  130.8473  149.8383 H   0  0  0  0  0  0  0  0  0  0  0  0  # atno 10718 bound_to 10713
  153.7683  135.6914  153.4911 H   0  0  0  0  0  0  0  0  0  0  0  0  # atno 10763 bound_to 10752
  153.1891  135.4477  155.0125 H   0  0  0  0  0  0  0  0  0  0  0  0  # atno 10764 bound_to 10752
  154.8127  135.3385  154.7194 H   0  0  0  0  0  0  0  0  0  0  0  0  # atno 10765 bound_to 10752
  140.0769  134.9120  157.1437 H   0  0  0  0  0  0  0  0  0  0  0  0  # atno 11005 bound_to 11000
  145.6596  139.1579  143.2816 LP  0  0  0  0  0  0  0  0  0  0  0  0  # atno 17320 bound_to 7965
  146.1688  140.6677  142.9243 LP  0  0  0  0  0  0  0  0  0  0  0  0  # atno 17321 bound_to 7965
  139.8641  144.7102  150.9064 LP  0  0  0  0  0  0  0  0  0  0  0  0  # atno 17342 bound_to 10162
  140.7782  143.3793  151.1506 LP  0  0  0  0  0  0  0  0  0  0  0  0  # atno 17343 bound_to 10162
  156.0262  130.3778  150.1815 LP  0  0  0  0  0  0  0  0  0  0  0  0  # atno 17370 bound_to 10713
  157.0005  130.9921  151.3392 LP  0  0  0  0  0  0  0  0  0  0  0  0  # atno 17371 bound_to 10713
  140.3545  134.2562  155.7194 LP  0  0  0  0  0  0  0  0  0  0  0  0  # atno 17394 bound_to 11000
  141.2033  133.7916  157.0348 LP  0  0  0  0  0  0  0  0  0  0  0  0  # atno 17395 bound_to 11000

$$$$
