AV-unprocessed.smi:2171|AV-procd|sdf|8828|dock1
  -GOLD-   2272012 23D 1   1.00000     0.00000
 Structure written by MMmdl.
 39 41  0  0  0  0  0  0  0  0  2 V2000
  144.1376  135.5176  152.4588 O   0  0  0  0  0  0  0  0  0  0  0  0
  145.3551  135.3567  152.3833 C   0  0  0  0  0  0  0  0  0  0  0  0
  145.9394  133.9421  152.3598 C   0  0  0  0  0  0  0  0  0  0  0  0
  145.3820  133.1463  151.2793 N   0  0  0  0  0  0  0  0  0  0  0  0
  146.0418  132.5494  150.2250 C   0  0  0  0  0  0  0  0  0  0  0  0
  145.1026  131.9136  149.4647 C   0  0  0  0  0  0  0  0  0  0  0  0
  143.8808  132.1794  150.1442 C   0  0  0  0  0  0  0  0  0  0  0  0
  144.0511  132.9173  151.2294 N   0  0  0  0  0  0  0  0  0  0  0  0
  146.2310  136.3730  152.3309 N   0  0  0  0  0  0  0  0  0  0  0  0
  145.8779  137.7891  152.3224 C   0  0  2  0  0  0  0  0  0  0  0  0
  146.4046  138.5287  151.0798 C   0  0  0  0  0  0  0  0  0  0  0  0
  146.8335  139.9208  151.5839 C   0  0  0  0  0  0  0  0  0  0  0  0
  146.4550  139.9543  153.0095 N   0  3  2  0  0  0  0  0  0  0  0  0
  147.1961  140.8911  153.8818 C   0  0  0  0  0  0  0  0  0  0  0  0
  146.6000  140.8417  155.3030 C   0  0  0  0  0  0  0  0  0  0  0  0
  146.5456  139.4007  155.8504 C   0  0  0  0  0  0  0  0  0  0  0  0
  145.8459  138.4532  154.8568 C   0  0  0  0  0  0  0  0  0  0  0  0
  146.5197  138.5615  153.4782 C   0  0  1  0  0  0  0  0  0  0  0  0
  147.0221  133.9957  152.2395 H   0  0  0  0  0  0  0  0  0  0  0  0
  145.7464  133.4384  153.3085 H   0  0  0  0  0  0  0  0  0  0  0  0
  147.1123  132.6269  150.1043 H   0  0  0  0  0  0  0  0  0  0  0  0
  145.2633  131.3438  148.5616 H   0  0  0  0  0  0  0  0  0  0  0  0
  142.8825  131.8607  149.8830 H   0  0  0  0  0  0  0  0  0  0  0  0
  147.2131  136.1457  152.2718 H   0  0  0  0  0  0  0  0  0  0  0  0
  144.7935  137.9141  152.3596 H   0  0  0  0  0  0  0  0  0  0  0  0
  147.2631  138.0157  150.6434 H   0  0  0  0  0  0  0  0  0  0  0  0
  145.6371  138.5948  150.3078 H   0  0  0  0  0  0  0  0  0  0  0  0
  147.9131  140.0393  151.4790 H   0  0  0  0  0  0  0  0  0  0  0  0
  146.3490  140.7294  151.0362 H   0  0  0  0  0  0  0  0  0  0  0  0
  148.2536  140.6237  153.9011 H   0  0  0  0  0  0  0  0  0  0  0  0
  147.1251  141.9019  153.4787 H   0  0  0  0  0  0  0  0  0  0  0  0
  147.1804  141.4750  155.9745 H   0  0  0  0  0  0  0  0  0  0  0  0
  145.5911  141.2563  155.2852 H   0  0  0  0  0  0  0  0  0  0  0  0
  147.5601  139.0458  156.0364 H   0  0  0  0  0  0  0  0  0  0  0  0
  146.0313  139.3833  156.8117 H   0  0  0  0  0  0  0  0  0  0  0  0
  145.8953  137.4286  155.2258 H   0  0  0  0  0  0  0  0  0  0  0  0
  144.7881  138.7086  154.7802 H   0  0  0  0  0  0  0  0  0  0  0  0
  147.5699  138.2718  153.5633 H   0  0  0  0  0  0  0  0  0  0  0  0
  145.4809  140.2200  153.0412 H   0  0  0  0  0  0  0  0  0  0  0  0
  1  2  2  0  0  0  0
  2  3  1  0  0  0  0
  2  9  1  0  0  0  0
  3  4  1  0  0  0  0
  3 19  1  0  0  0  0
  3 20  1  0  0  0  0
  4  8  1  0  0  0  0
  4  5  1  0  0  0  0
  5  6  2  0  0  0  0
  5 21  1  0  0  0  0
  6  7  1  0  0  0  0
  6 22  1  0  0  0  0
  7  8  2  0  0  0  0
  7 23  1  0  0  0  0
  9 10  1  0  0  0  0
  9 24  1  0  0  0  0
 10 18  1  0  0  0  0
 10 11  1  0  0  0  0
 10 25  1  0  0  0  0
 11 12  1  0  0  0  0
 11 26  1  0  0  0  0
 11 27  1  0  0  0  0
 12 13  1  0  0  0  0
 12 28  1  0  0  0  0
 12 29  1  0  0  0  0
 13 18  1  0  0  0  0
 13 14  1  0  0  0  0
 13 39  1  0  0  0  0
 14 15  1  0  0  0  0
 14 30  1  0  0  0  0
 14 31  1  0  0  0  0
 15 16  1  0  0  0  0
 15 32  1  0  0  0  0
 15 33  1  0  0  0  0
 16 17  1  0  0  0  0
 16 34  1  0  0  0  0
 16 35  1  0  0  0  0
 17 18  1  0  0  0  0
 17 36  1  0  0  0  0
 17 37  1  0  0  0  0
 18 38  1  0  0  0  0
M  CHG  1  13   1
M  END
> <s_m_source_file>
AV-unprocessed.smi

> <i_m_source_file_index>
2171

> <i_lp_mmshare_version>
43012

> <i_f3d_flags>
0

> <s_epik_input>
bjFbY0hdW2NIXVtjSF1uMVtDSDJdQyg9TylbTkhdW0NASF0oW0NIMl1bQ0gyXTIpW0NAQEhdKE4yMylbQ0gyXVtDSDJdW0NIMl1bQ0gyXTM=

> <s_epik_cmdline>
J2VwaWtfcHl0aG9uJywgJy1waCcsICc3LjAnLCAnLXRuJywgJzgnLCAnLW1hJywgJzIwMCcsICctbWV0YWxfYmluZGluZycsICctaW1hZScsICc8aW5maWxlLm1hZT4nLCAnLW9tYWUnLCAnPG91dGZpbGUubWFlPic=

> <r_lp_tautomer_probability>
1

> <r_epik_Ionization_Penalty>
0.00204179

> <r_epik_Ionization_Penalty_Charging>
0.00203239

> <r_epik_Ionization_Penalty_Neutral>
9.40205e-06

> <r_epik_State_Penalty>
0.00138983

> <r_epik_Charging_Adjusted_Penalty>
0.00342221

> <i_epik_Tot_Q>
1

> <i_epik_Tot_abs_Q>
1

> <r_epik_Metal_State_Penalty>
-0

> <b_epik_Metal_Only>
0

> <s_lp_Force_Field>
OPLS_2005

> <r_lp_Energy>
34.6158

> <b_lp_Chiralities_Consistent>
1

> <s_lp_Variant>
AV-unprocessed.smi:2171-3

> <Gold.Version>
5.8.1

> <Gold.Id.Protein>
6NUR|6NUR_protein|mol2

> <Gold.PLP.Fitness>
41.3481

> <Gold.PLP.PLP>
-26.8828

> <Gold.PLP.part.hbond>
-2.0000

> <Gold.PLP.part.metal>
0.0000

> <Gold.PLP.part.buried>
1.1347

> <Gold.PLP.part.nonpolar>
-28.8032

> <Gold.PLP.part.repulsive>
0.2891

> <Gold.PLP.ligand.clash>
0.0000

> <Gold.PLP.ligand.torsion>
0.0220

> <Gold.PLP.Chemscore.Hbond>
3.0000

> <Gold.PLP.Chemscore.CHOScore>
1.8333

> <Gold.PLP.Chemscore.Metal>
0.0000

> <Gold.Chemscore.Hbonds>
donor molecule, donor type, donor heavy atom, donor atom, acceptor molecule, acceptor atom, score
      L1  H     9    24       P1  7948  1.00
      L1  H    13    39       P1 10175  2.00
      L1  C     5    21       P1 10747  0.92
      L1  C     7    23       P1 10952  0.89

> <Gold.PLP.Chemscore.Internal.Correction>
0.0095

> <Gold.Rescore>
     Score         DG    S(hbond)    S(metal)    S(lipo)     H(rot)  DE(clash)    DE(int)     intcor
     14.83     -17.83       1.97        0.00      80.87       1.44       1.69       1.30       ----

> <Gold.Chemscore.Fitness>
14.8343

> <Gold.Chemscore.DG>
-17.8288

> <Gold.Chemscore.ZeroCoef>
-5.4800

> <Gold.Chemscore.Hbond>
1.9690

> <Gold.Chemscore.Metal>
0.0000

> <Gold.Chemscore.Lipo>
80.8670

> <Gold.Chemscore.Internal_Hbond>
0.0000

> <Gold.Chemscore.DEClash>
1.6929

> <Gold.Chemscore.DEInternal>
1.3016

> <Gold.Chemscore.Rot>
1.4410

> <Gold.Chemscore.Internal.Correction>
   9.000000E+99

> <Gold.Chemscore.Hbonds>
donor molecule, donor type, donor heavy atom, donor atom, acceptor molecule, acceptor atom, score
      L1  H     9    24       P1  7948  1.00
      L1  H    13    39       P1 10175  0.98

> <Gold.Chemscore.Hbond.Weighted>
-6.5763

> <Gold.Chemscore.Metal.Weighted>
-0.0000

> <Gold.Chemscore.Lipo.Weighted>
-9.4614

> <Gold.Chemscore.Internal_Hbond.Weighted>
0.0000

> <Gold.Chemscore.DEClash.Weighted>
1.6929

> <Gold.Chemscore.DEInternal.Weighted>
1.3016

> <Gold.Chemscore.Rot.Weighted>
3.6889

> <Gold.Chemscore.Internal.Correction.Weighted>
   9.000000E+99

> <Gold.Protein.RotatedTorsions>
[ 6907 6896 6895 6894 ] final   -0.77 input  -60.11 | X-H torsion
[ 7974 7965 7964 7962 ] final  -34.91 input  175.53 | X-H torsion
[ 8008 7997 7996 7995 ] final -109.48 input   59.86 | X-H torsion
[ 10167 10162 10161 10158 ] final  107.11 input  -65.29 | X-H torsion
[ 10718 10713 10712 10709 ] final   59.78 input   66.30 | X-H torsion
[ 10763 10752 10751 10750 ] final  165.72 input  -60.55 | X-H torsion
[ 11005 11000 10999 10996 ] final  124.63 input  -57.11 | X-H torsion

> <Gold.Protein.ActiveResidues>
 VAL166  LYS551  ARG553  GLY616  TRP617  ASP618  TYR619  PRO620  LYS621  CYS622 
 ASP623  PHE694  ASN695  SER759  ASP760  ASP761  ALA762  ILE779  LEU786  VAL792 
 PHE793  MET794  SER795  GLU796  ALA797  LYS798  CYS799  TRP800  GLU811  SER814 

> <Gold.Protein.RotatedAtoms>
  151.5569  135.1066  159.9962 H   0  0  0  0  0  0  0  0  0  0  0  0  # atno 6907 bound_to 6896
  152.4465  133.7542  159.6721 H   0  0  0  0  0  0  0  0  0  0  0  0  # atno 6908 bound_to 6896
  150.8382  133.7911  159.3095 H   0  0  0  0  0  0  0  0  0  0  0  0  # atno 6909 bound_to 6896
  146.0790  140.6096  142.8917 H   0  0  0  0  0  0  0  0  0  0  0  0  # atno 7974 bound_to 7965
  154.9599  140.0399  157.2185 H   0  0  0  0  0  0  0  0  0  0  0  0  # atno 8008 bound_to 7997
  154.7899  140.2833  155.5977 H   0  0  0  0  0  0  0  0  0  0  0  0  # atno 8009 bound_to 7997
  156.2948  140.2575  156.2744 H   0  0  0  0  0  0  0  0  0  0  0  0  # atno 8010 bound_to 7997
  139.6954  144.7102  151.1276 H   0  0  0  0  0  0  0  0  0  0  0  0  # atno 10167 bound_to 10162
  157.5702  130.8902  149.9254 H   0  0  0  0  0  0  0  0  0  0  0  0  # atno 10718 bound_to 10713
  154.3282  135.2755  155.2485 H   0  0  0  0  0  0  0  0  0  0  0  0  # atno 10763 bound_to 10752
  154.4808  135.5859  153.6392 H   0  0  0  0  0  0  0  0  0  0  0  0  # atno 10764 bound_to 10752
  152.9869  135.6111  154.3473 H   0  0  0  0  0  0  0  0  0  0  0  0  # atno 10765 bound_to 10752
  139.9368  134.9639  156.8438 H   0  0  0  0  0  0  0  0  0  0  0  0  # atno 11005 bound_to 11000
  144.7280  140.4586  143.6958 LP  0  0  0  0  0  0  0  0  0  0  0  0  # atno 17320 bound_to 7965
  145.6253  139.1529  143.2999 LP  0  0  0  0  0  0  0  0  0  0  0  0  # atno 17321 bound_to 7965
  140.7695  143.5499  150.9216 LP  0  0  0  0  0  0  0  0  0  0  0  0  # atno 17342 bound_to 10162
  139.9179  143.6642  152.3102 LP  0  0  0  0  0  0  0  0  0  0  0  0  # atno 17343 bound_to 10162
  156.0748  130.3680  150.0701 LP  0  0  0  0  0  0  0  0  0  0  0  0  # atno 17370 bound_to 10713
  156.8854  130.9571  151.3594 LP  0  0  0  0  0  0  0  0  0  0  0  0  # atno 17371 bound_to 10713
  140.6055  134.0131  155.7555 LP  0  0  0  0  0  0  0  0  0  0  0  0  # atno 17394 bound_to 11000
  141.0985  133.9805  157.3119 LP  0  0  0  0  0  0  0  0  0  0  0  0  # atno 17395 bound_to 11000

$$$$
