AV-unprocessed.smi:3303|AV-procd|sdf|12662|dock2
  -GOLD-   2272018593D 1   1.00000     0.00000
 Structure written by MMmdl.
 45 46  0  0  0  0  0  0  0  0  3 V2000
  145.9146  135.8965  150.8242 C   0  0  0  0  0  0  0  0  0  0  0  0
  145.3064  134.7293  151.6304 C   0  0  1  0  0  0  0  0  0  0  0  0
  144.2070  134.0110  150.8199 C   0  0  0  0  0  0  0  0  0  0  0  0
  144.7844  133.2233  149.6996 N   0  3  2  0  0  0  0  0  0  0  0  0
  143.7547  132.7047  148.7704 C   0  0  0  0  0  0  0  0  0  0  0  0
  145.7829  132.2051  150.1385 C   0  0  2  0  0  0  0  0  0  0  0  0
  145.1544  130.9999  150.8718 C   0  0  0  0  0  0  0  0  0  0  0  0
  146.9042  132.8720  150.9653 C   0  0  0  0  0  0  0  0  0  0  0  0
  146.3447  133.7023  152.1417 C   0  0  1  0  0  0  0  0  0  0  0  0
  147.4104  134.3661  152.9300 N   0  3  0  0  0  0  0  0  0  0  0  0
  148.5407  133.5008  153.3284 C   0  0  0  0  0  0  0  0  0  0  0  0
  148.0378  132.2039  153.9772 C   0  0  0  0  0  0  0  0  0  0  0  0
  149.1783  131.3046  154.4144 C   0  0  0  0  0  0  0  0  0  0  0  0
  150.0247  131.6773  155.4804 C   0  0  0  0  0  0  0  0  0  0  0  0
  151.0708  130.8057  155.8417 C   0  0  0  0  0  0  0  0  0  0  0  0
  151.2300  129.6038  155.1257 C   0  0  0  0  0  0  0  0  0  0  0  0
  150.3326  129.3247  154.0757 C   0  0  0  0  0  0  0  0  0  0  0  0
  149.3261  130.1532  153.7215 N   0  0  0  0  0  0  0  0  0  0  0  0
  146.4158  135.5536  149.9192 H   0  0  0  0  0  0  0  0  0  0  0  0
  146.6393  136.4594  151.4124 H   0  0  0  0  0  0  0  0  0  0  0  0
  145.1400  136.6003  150.5181 H   0  0  0  0  0  0  0  0  0  0  0  0
  144.8251  135.1737  152.5029 H   0  0  0  0  0  0  0  0  0  0  0  0
  143.6245  133.3569  151.4695 H   0  0  0  0  0  0  0  0  0  0  0  0
  143.5049  134.7461  150.4239 H   0  0  0  0  0  0  0  0  0  0  0  0
  143.0491  132.0472  149.2791 H   0  0  0  0  0  0  0  0  0  0  0  0
  144.2147  132.1519  147.9506 H   0  0  0  0  0  0  0  0  0  0  0  0
  143.1886  133.5291  148.3354 H   0  0  0  0  0  0  0  0  0  0  0  0
  146.2497  131.8123  149.2339 H   0  0  0  0  0  0  0  0  0  0  0  0
  145.9246  130.2897  151.1737 H   0  0  0  0  0  0  0  0  0  0  0  0
  144.4604  130.4546  150.2323 H   0  0  0  0  0  0  0  0  0  0  0  0
  144.6150  131.2925  151.7720 H   0  0  0  0  0  0  0  0  0  0  0  0
  147.5853  132.1011  151.3255 H   0  0  0  0  0  0  0  0  0  0  0  0
  147.5009  133.5120  150.3146 H   0  0  0  0  0  0  0  0  0  0  0  0
  145.8245  133.0292  152.8247 H   0  0  0  0  0  0  0  0  0  0  0  0
  147.7659  135.1542  152.4075 H   0  0  0  0  0  0  0  0  0  0  0  0
  149.1417  133.2656  152.4488 H   0  0  0  0  0  0  0  0  0  0  0  0
  149.1851  134.0313  154.0293 H   0  0  0  0  0  0  0  0  0  0  0  0
  147.4121  132.4359  154.8403 H   0  0  0  0  0  0  0  0  0  0  0  0
  147.4050  131.6552  153.2781 H   0  0  0  0  0  0  0  0  0  0  0  0
  149.8787  132.6064  156.0116 H   0  0  0  0  0  0  0  0  0  0  0  0
  151.7390  131.0548  156.6527 H   0  0  0  0  0  0  0  0  0  0  0  0
  152.0212  128.9122  155.3747 H   0  0  0  0  0  0  0  0  0  0  0  0
  150.4259  128.4124  153.5053 H   0  0  0  0  0  0  0  0  0  0  0  0
  146.9883  134.7128  153.7798 H   0  0  0  0  0  0  0  0  0  0  0  0
  145.3129  133.8888  149.1535 H   0  0  0  0  0  0  0  0  0  0  0  0
  1  2  1  0  0  0  0
  1 19  1  0  0  0  0
  1 20  1  0  0  0  0
  1 21  1  0  0  0  0
  2  9  1  0  0  0  0
  2  3  1  0  0  0  0
  2 22  1  0  0  0  0
  3  4  1  0  0  0  0
  3 23  1  0  0  0  0
  3 24  1  0  0  0  0
  4  5  1  0  0  0  0
  4  6  1  0  0  0  0
  4 45  1  0  0  0  0
  5 25  1  0  0  0  0
  5 26  1  0  0  0  0
  5 27  1  0  0  0  0
  6  7  1  0  0  0  0
  6  8  1  0  0  0  0
  6 28  1  0  0  0  0
  7 29  1  0  0  0  0
  7 30  1  0  0  0  0
  7 31  1  0  0  0  0
  8  9  1  0  0  0  0
  8 32  1  0  0  0  0
  8 33  1  0  0  0  0
  9 10  1  0  0  0  0
  9 34  1  0  0  0  0
 10 11  1  0  0  0  0
 10 35  1  0  0  0  0
 10 44  1  0  0  0  0
 11 12  1  0  0  0  0
 11 36  1  0  0  0  0
 11 37  1  0  0  0  0
 12 13  1  0  0  0  0
 12 38  1  0  0  0  0
 12 39  1  0  0  0  0
 13 18  1  0  0  0  0
 13 14  2  0  0  0  0
 14 15  1  0  0  0  0
 14 40  1  0  0  0  0
 15 16  2  0  0  0  0
 15 41  1  0  0  0  0
 16 17  1  0  0  0  0
 16 42  1  0  0  0  0
 17 18  2  0  0  0  0
 17 43  1  0  0  0  0
M  CHG  1   4   1
M  CHG  1  10   1
M  END
> <s_m_source_file>
AV-unprocessed.smi

> <i_m_source_file_index>
3303

> <i_lp_mmshare_version>
43012

> <i_f3d_flags>
0

> <s_epik_input>
W0NIM11bQ0BASF0xW0NIMl1OKFtDSDNdKVtDQEBIXShbQ0gzXSlbQ0gyXVtDQEhdMVtOSF1bQ0gyXVtDSDJdYzJbY0hdW2NIXVtjSF1bY0hdbjI=

> <s_epik_cmdline>
J2VwaWtfcHl0aG9uJywgJy1waCcsICc3LjAnLCAnLXRuJywgJzgnLCAnLW1hJywgJzIwMCcsICctbWV0YWxfYmluZGluZycsICctaW1hZScsICc8aW5maWxlLm1hZT4nLCAnLW9tYWUnLCAnPG91dGZpbGUubWFlPic=

> <r_epik_Ionization_Penalty>
0.0769462

> <r_epik_Ionization_Penalty_Charging>
0.0759813

> <r_epik_Ionization_Penalty_Neutral>
0.000964829

> <r_epik_State_Penalty>
0.0654373

> <r_epik_Charging_Adjusted_Penalty>
0.141419

> <i_epik_Tot_Q>
2

> <i_epik_Tot_abs_Q>
2

> <r_epik_Metal_State_Penalty>
0.0656439

> <b_epik_Metal_Only>
0

> <s_lp_Force_Field>
OPLS_2005

> <r_lp_Energy>
31.8094

> <b_lp_Chiralities_Consistent>
1

> <s_lp_Variant>
AV-unprocessed.smi:3303-6

> <Gold.Version>
5.8.1

> <Gold.Id.Protein>
6NUR|6NUR_protein|mol2

> <Gold.PLP.Fitness>
47.1399

> <Gold.PLP.PLP>
-35.4054

> <Gold.PLP.part.hbond>
-2.0000

> <Gold.PLP.part.metal>
0.0000

> <Gold.PLP.part.buried>
-0.7871

> <Gold.PLP.part.nonpolar>
-31.8389

> <Gold.PLP.part.repulsive>
0.2441

> <Gold.PLP.ligand.clash>
0.0000

> <Gold.PLP.ligand.torsion>
0.1406

> <Gold.PLP.Chemscore.Hbond>
3.0000

> <Gold.PLP.Chemscore.CHOScore>
1.0000

> <Gold.PLP.Chemscore.Metal>
0.0000

> <Gold.Chemscore.Hbonds>
donor molecule, donor type, donor heavy atom, donor atom, acceptor molecule, acceptor atom, score
      L1  H     4    45       P1  7921  1.00
      L1  H    10    35       P1  7948  2.00
      L1  C    17    43       P1 10737  1.00

> <Gold.PLP.Chemscore.Internal.Correction>
0.0156

> <Gold.Rescore>
     Score         DG    S(hbond)    S(metal)    S(lipo)     H(rot)  DE(clash)    DE(int)     intcor
     19.80     -20.10       1.89        0.00     101.15       1.37       0.13       0.17       ----

> <Gold.Chemscore.Fitness>
19.8020

> <Gold.Chemscore.DG>
-20.1026

> <Gold.Chemscore.ZeroCoef>
-5.4800

> <Gold.Chemscore.Hbond>
1.8881

> <Gold.Chemscore.Metal>
0.0000

> <Gold.Chemscore.Lipo>
101.1525

> <Gold.Chemscore.Internal_Hbond>
0.0000

> <Gold.Chemscore.DEClash>
0.1268

> <Gold.Chemscore.DEInternal>
0.1738

> <Gold.Chemscore.Rot>
1.3744

> <Gold.Chemscore.Internal.Correction>
   9.000000E+99

> <Gold.Chemscore.Hbonds>
donor molecule, donor type, donor heavy atom, donor atom, acceptor molecule, acceptor atom, score
      L1  H     4    45       P1  7921  0.81
      L1  H    10    35       P1  7948  0.96

> <Gold.Chemscore.Hbond.Weighted>
-6.3062

> <Gold.Chemscore.Metal.Weighted>
-0.0000

> <Gold.Chemscore.Lipo.Weighted>
-11.8348

> <Gold.Chemscore.Internal_Hbond.Weighted>
0.0000

> <Gold.Chemscore.DEClash.Weighted>
0.1268

> <Gold.Chemscore.DEInternal.Weighted>
0.1738

> <Gold.Chemscore.Rot.Weighted>
3.5185

> <Gold.Chemscore.Internal.Correction.Weighted>
   9.000000E+99

> <Gold.Protein.RotatedTorsions>
[ 6907 6896 6895 6894 ] final  -26.02 input  -60.11 | X-H torsion
[ 7974 7965 7964 7962 ] final -112.98 input  175.53 | X-H torsion
[ 8008 7997 7996 7995 ] final   61.86 input   59.86 | X-H torsion
[ 10167 10162 10161 10158 ] final  144.67 input  -65.29 | X-H torsion
[ 10718 10713 10712 10709 ] final -137.28 input   66.30 | X-H torsion
[ 10763 10752 10751 10750 ] final  -37.43 input  -60.55 | X-H torsion
[ 11005 11000 10999 10996 ] final -174.52 input  -57.11 | X-H torsion

> <Gold.Protein.ActiveResidues>
 VAL166  LYS551  ARG553  GLY616  TRP617  ASP618  TYR619  PRO620  LYS621  CYS622 
 ASP623  PHE694  ASN695  SER759  ASP760  ASP761  ALA762  ILE779  LEU786  VAL792 
 PHE793  MET794  SER795  GLU796  ALA797  LYS798  CYS799  TRP800  GLU811  SER814 

> <Gold.Protein.RotatedAtoms>
  151.1669  135.0300  159.8734 H   0  0  0  0  0  0  0  0  0  0  0  0  # atno 6907 bound_to 6896
  152.5450  134.1215  159.8411 H   0  0  0  0  0  0  0  0  0  0  0  0  # atno 6908 bound_to 6896
  151.1316  133.4986  159.2631 H   0  0  0  0  0  0  0  0  0  0  0  0  # atno 6909 bound_to 6896
  145.1375  140.8759  143.3721 H   0  0  0  0  0  0  0  0  0  0  0  0  # atno 7974 bound_to 7965
  155.6052  140.3494  155.4605 H   0  0  0  0  0  0  0  0  0  0  0  0  # atno 8008 bound_to 7997
  156.0197  140.1251  157.0394 H   0  0  0  0  0  0  0  0  0  0  0  0  # atno 8009 bound_to 7997
  154.4311  140.1065  156.5933 H   0  0  0  0  0  0  0  0  0  0  0  0  # atno 8010 bound_to 7997
  139.4942  144.5956  151.6591 H   0  0  0  0  0  0  0  0  0  0  0  0  # atno 10167 bound_to 10162
  156.2863  130.7349  151.1362 H   0  0  0  0  0  0  0  0  0  0  0  0  # atno 10718 bound_to 10713
  153.8961  135.6807  153.4758 H   0  0  0  0  0  0  0  0  0  0  0  0  # atno 10763 bound_to 10752
  153.1155  135.4763  154.9105 H   0  0  0  0  0  0  0  0  0  0  0  0  # atno 10764 bound_to 10752
  154.7598  135.3207  154.8353 H   0  0  0  0  0  0  0  0  0  0  0  0  # atno 10765 bound_to 10752
  140.4736  134.6142  157.4892 H   0  0  0  0  0  0  0  0  0  0  0  0  # atno 11005 bound_to 11000
  145.0568  139.3137  143.5900 LP  0  0  0  0  0  0  0  0  0  0  0  0  # atno 17320 bound_to 7965
  146.3508  139.9996  142.8677 LP  0  0  0  0  0  0  0  0  0  0  0  0  # atno 17321 bound_to 7965
  140.5593  144.0296  150.6162 LP  0  0  0  0  0  0  0  0  0  0  0  0  # atno 17342 bound_to 10162
  140.3376  143.3039  152.0622 LP  0  0  0  0  0  0  0  0  0  0  0  0  # atno 17343 bound_to 10162
  157.7329  131.0595  150.5602 LP  0  0  0  0  0  0  0  0  0  0  0  0  # atno 17370 bound_to 10713
  156.5713  130.4280  149.6018 LP  0  0  0  0  0  0  0  0  0  0  0  0  # atno 17371 bound_to 10713
  139.9870  134.7046  155.9757 LP  0  0  0  0  0  0  0  0  0  0  0  0  # atno 17394 bound_to 11000
  141.1565  133.6542  156.4178 LP  0  0  0  0  0  0  0  0  0  0  0  0  # atno 17395 bound_to 11000

$$$$
