AV-unprocessed.smi:2702|AV-procd|sdf|10430|dock10
  -GOLD-   2272014473D 1   1.00000     0.00000
 Structure written by MMmdl.
 47 48  0  0  0  0  0  0  0  0  1 V2000
  148.8328  133.2460  153.7580 C   0  0  0  0  0  0  0  0  0  0  0  0
  149.6623  134.0130  154.6126 O   0  0  0  0  0  0  0  0  0  0  0  0
  148.9270  134.9345  155.3996 C   0  0  0  0  0  0  0  0  0  0  0  0
  149.8615  135.7499  156.2697 C   0  0  0  0  0  0  0  0  0  0  0  0
  151.2018  135.5647  156.2457 C   0  0  0  0  0  0  0  0  0  0  0  0
  152.0800  136.3553  157.1081 C   0  0  0  0  0  0  0  0  0  0  0  0
  153.3045  136.2256  157.1052 O   0  0  0  0  0  0  0  0  0  0  0  0
  151.4381  137.2488  157.9174 N   0  0  0  0  0  0  0  0  0  0  0  0
  152.1862  138.1246  158.8383 C   0  0  0  0  0  0  0  0  0  0  0  0
  152.2023  139.5992  158.4077 C   0  0  0  0  0  0  0  0  0  0  0  0
  152.7909  139.9546  157.3856 O   0  0  0  0  0  0  0  0  0  0  0  0
  151.5230  140.4430  159.2002 N   0  0  0  0  0  0  0  0  0  0  0  0
  151.3726  141.8832  158.9938 C   0  0  2  0  0  0  0  0  0  0  0  0
  151.1052  142.1419  157.4984 C   0  0  0  0  0  0  0  0  0  0  0  0
  151.0121  143.6415  157.1847 C   0  0  0  0  0  0  0  0  0  0  0  0
  152.2703  144.3851  157.6592 C   0  0  0  0  0  0  0  0  0  0  0  0
  152.5468  144.1632  159.1601 C   0  0  1  0  0  0  0  0  0  0  0  0
  151.5442  144.9347  160.0430 C   0  0  0  0  0  0  0  0  0  0  0  0
  152.6350  142.6460  159.4772 C   0  0  1  0  0  0  0  0  0  0  0  0
  152.9789  142.3766  160.9557 C   0  0  0  0  0  0  0  0  0  0  0  0
  150.0365  137.3955  157.9080 C   0  0  0  0  0  0  0  0  0  0  0  0
  149.2810  136.6852  157.1323 N   0  0  0  0  0  0  0  0  0  0  0  0
  149.4450  132.5594  153.1736 H   0  0  0  0  0  0  0  0  0  0  0  0
  148.2849  133.8837  153.0630 H   0  0  0  0  0  0  0  0  0  0  0  0
  148.1167  132.6545  154.3301 H   0  0  0  0  0  0  0  0  0  0  0  0
  148.3563  135.6059  154.7556 H   0  0  0  0  0  0  0  0  0  0  0  0
  148.2100  134.4054  156.0296 H   0  0  0  0  0  0  0  0  0  0  0  0
  151.6344  134.8303  155.5820 H   0  0  0  0  0  0  0  0  0  0  0  0
  151.7806  138.0689  159.8503 H   0  0  0  0  0  0  0  0  0  0  0  0
  153.2161  137.7748  158.9319 H   0  0  0  0  0  0  0  0  0  0  0  0
  151.0679  140.0563  160.0143 H   0  0  0  0  0  0  0  0  0  0  0  0
  150.5099  142.2477  159.5531 H   0  0  0  0  0  0  0  0  0  0  0  0
  151.9034  141.7012  156.8991 H   0  0  0  0  0  0  0  0  0  0  0  0
  150.1825  141.6471  157.1928 H   0  0  0  0  0  0  0  0  0  0  0  0
  150.8793  143.7867  156.1123 H   0  0  0  0  0  0  0  0  0  0  0  0
  150.1261  144.0629  157.6602 H   0  0  0  0  0  0  0  0  0  0  0  0
  153.1271  144.0358  157.0813 H   0  0  0  0  0  0  0  0  0  0  0  0
  152.1778  145.4503  157.4446 H   0  0  0  0  0  0  0  0  0  0  0  0
  153.5272  144.5958  159.3649 H   0  0  0  0  0  0  0  0  0  0  0  0
  150.5315  144.5423  159.9569 H   0  0  0  0  0  0  0  0  0  0  0  0
  151.5115  145.9881  159.7636 H   0  0  0  0  0  0  0  0  0  0  0  0
  151.8248  144.8958  161.0953 H   0  0  0  0  0  0  0  0  0  0  0  0
  153.4774  142.2627  158.8986 H   0  0  0  0  0  0  0  0  0  0  0  0
  152.1366  142.6002  161.6107 H   0  0  0  0  0  0  0  0  0  0  0  0
  153.8261  142.9816  161.2792 H   0  0  0  0  0  0  0  0  0  0  0  0
  153.2501  141.3334  161.1190 H   0  0  0  0  0  0  0  0  0  0  0  0
  149.6395  138.1470  158.5926 H   0  0  0  0  0  0  0  0  0  0  0  0
  1  2  1  0  0  0  0
  1 23  1  0  0  0  0
  1 24  1  0  0  0  0
  1 25  1  0  0  0  0
  2  3  1  0  0  0  0
  3  4  1  0  0  0  0
  3 26  1  0  0  0  0
  3 27  1  0  0  0  0
  4 22  1  0  0  0  0
  4  5  2  0  0  0  0
  5  6  1  0  0  0  0
  5 28  1  0  0  0  0
  6  7  2  0  0  0  0
  6  8  1  0  0  0  0
  8  9  1  0  0  0  0
  8 21  1  0  0  0  0
  9 10  1  0  0  0  0
  9 29  1  0  0  0  0
  9 30  1  0  0  0  0
 10 11  2  0  0  0  0
 10 12  1  0  0  0  0
 12 13  1  0  0  0  0
 12 31  1  0  0  0  0
 13 19  1  0  0  0  0
 13 14  1  0  0  0  0
 13 32  1  0  0  0  0
 14 15  1  0  0  0  0
 14 33  1  0  0  0  0
 14 34  1  0  0  0  0
 15 16  1  0  0  0  0
 15 35  1  0  0  0  0
 15 36  1  0  0  0  0
 16 17  1  0  0  0  0
 16 37  1  0  0  0  0
 16 38  1  0  0  0  0
 17 18  1  0  0  0  0
 17 19  1  0  0  0  0
 17 39  1  0  0  0  0
 18 40  1  0  0  0  0
 18 41  1  0  0  0  0
 18 42  1  0  0  0  0
 19 20  1  0  0  0  0
 19 43  1  0  0  0  0
 20 44  1  0  0  0  0
 20 45  1  0  0  0  0
 20 46  1  0  0  0  0
 21 22  2  0  0  0  0
 21 47  1  0  0  0  0
M  END
> <s_m_source_file>
AV-unprocessed.smi

> <i_m_source_file_index>
2702

> <i_lp_mmshare_version>
43012

> <i_f3d_flags>
0

> <s_epik_input>
W0NIM11PW0NIMl1jMVtjSF1jKD1PKW4oW2NIXW4xKVtDSDJdQyg9TylbTkhdW0NAQEhdMltDSDJdW0NIMl1bQ0gyXVtDQEBIXShbQ0gzXSlbQ0BIXTJbQ0gzXQ==

> <s_epik_cmdline>
J2VwaWtfcHl0aG9uJywgJy1waCcsICc3LjAnLCAnLXRuJywgJzgnLCAnLW1hJywgJzIwMCcsICctbWV0YWxfYmluZGluZycsICctaW1hZScsICc8aW5maWxlLm1hZT4nLCAnLW9tYWUnLCAnPG91dGZpbGUubWFlPic=

> <r_lp_tautomer_probability>
1

> <r_epik_Ionization_Penalty>
1.22164e-06

> <r_epik_Ionization_Penalty_Charging>
3.17988e-07

> <r_epik_Ionization_Penalty_Neutral>
9.03656e-07

> <r_epik_State_Penalty>
-0

> <r_epik_Charging_Adjusted_Penalty>
3.17988e-07

> <i_epik_Tot_Q>
0

> <i_epik_Tot_abs_Q>
0

> <r_epik_Metal_State_Penalty>
-0

> <b_epik_Metal_Only>
0

> <s_lp_Force_Field>
OPLS_2005

> <r_lp_Energy>
19.3371

> <b_lp_Chiralities_Consistent>
1

> <s_lp_Variant>
AV-unprocessed.smi:2702-1

> <Gold.Version>
5.8.1

> <Gold.Id.Protein>
6NUR|6NUR_protein|mol2

> <Gold.PLP.Fitness>
45.2022

> <Gold.PLP.PLP>
-40.0533

> <Gold.PLP.part.hbond>
-2.0000

> <Gold.PLP.part.metal>
0.0000

> <Gold.PLP.part.buried>
-1.8932

> <Gold.PLP.part.nonpolar>
-36.2112

> <Gold.PLP.part.repulsive>
0.3365

> <Gold.PLP.ligand.clash>
0.0000

> <Gold.PLP.ligand.torsion>
0.4306

> <Gold.PLP.Chemscore.Hbond>
2.0000

> <Gold.PLP.Chemscore.CHOScore>
0.0000

> <Gold.PLP.Chemscore.Metal>
0.0000

> <Gold.Chemscore.Hbonds>
donor molecule, donor type, donor heavy atom, donor atom, acceptor molecule, acceptor atom, score
      P1  H  7997  8009       L1    11  1.00
      P1  H 10752 10764       L1     7  1.00

> <Gold.PLP.Chemscore.Internal.Correction>
0.0102

> <Gold.Rescore>
     Score         DG    S(hbond)    S(metal)    S(lipo)     H(rot)  DE(clash)    DE(int)     intcor
     18.07     -19.85       1.95        0.00     109.19       1.93       0.01       1.76       ----

> <Gold.Chemscore.Fitness>
18.0706

> <Gold.Chemscore.DG>
-19.8476

> <Gold.Chemscore.ZeroCoef>
-5.4800

> <Gold.Chemscore.Hbond>
1.9548

> <Gold.Chemscore.Metal>
0.0000

> <Gold.Chemscore.Lipo>
109.1906

> <Gold.Chemscore.Internal_Hbond>
0.0000

> <Gold.Chemscore.DEClash>
0.0129

> <Gold.Chemscore.DEInternal>
1.7640

> <Gold.Chemscore.Rot>
1.9284

> <Gold.Chemscore.Internal.Correction>
   9.000000E+99

> <Gold.Chemscore.Hbonds>
donor molecule, donor type, donor heavy atom, donor atom, acceptor molecule, acceptor atom, score
      P1  H  7997  8009       L1    11  0.99
      P1  H 10752 10764       L1     7  0.58

> <Gold.Chemscore.Hbond.Weighted>
-6.5291

> <Gold.Chemscore.Metal.Weighted>
-0.0000

> <Gold.Chemscore.Lipo.Weighted>
-12.7753

> <Gold.Chemscore.Internal_Hbond.Weighted>
0.0000

> <Gold.Chemscore.DEClash.Weighted>
0.0129

> <Gold.Chemscore.DEInternal.Weighted>
1.7640

> <Gold.Chemscore.Rot.Weighted>
4.9368

> <Gold.Chemscore.Internal.Correction.Weighted>
   9.000000E+99

> <Gold.Protein.RotatedTorsions>
[ 6907 6896 6895 6894 ] final  135.20 input  -60.11 | X-H torsion
[ 7974 7965 7964 7962 ] final  164.76 input  175.53 | X-H torsion
[ 8008 7997 7996 7995 ] final  175.51 input   59.86 | X-H torsion
[ 10167 10162 10161 10158 ] final  108.99 input  -65.29 | X-H torsion
[ 10718 10713 10712 10709 ] final  -14.27 input   66.30 | X-H torsion
[ 10763 10752 10751 10750 ] final   14.67 input  -60.55 | X-H torsion
[ 11005 11000 10999 10996 ] final -144.34 input  -57.11 | X-H torsion

> <Gold.Protein.ActiveResidues>
 VAL166  LYS551  ARG553  GLY616  TRP617  ASP618  TYR619  PRO620  LYS621  CYS622 
 ASP623  PHE694  ASN695  SER759  ASP760  ASP761  ALA762  ILE779  LEU786  VAL792 
 PHE793  MET794  SER795  GLU796  ALA797  LYS798  CYS799  TRP800  GLU811  SER814 

> <Gold.Protein.RotatedAtoms>
  152.3030  133.5675  159.5630 H   0  0  0  0  0  0  0  0  0  0  0  0  # atno 6907 bound_to 6896
  150.7286  134.0263  159.3727 H   0  0  0  0  0  0  0  0  0  0  0  0  # atno 6908 bound_to 6896
  151.8162  135.0666  160.0470 H   0  0  0  0  0  0  0  0  0  0  0  0  # atno 6909 bound_to 6896
  144.7531  139.8372  143.6359 H   0  0  0  0  0  0  0  0  0  0  0  0  # atno 7974 bound_to 7965
  156.0863  140.1407  156.9649 H   0  0  0  0  0  0  0  0  0  0  0  0  # atno 8008 bound_to 7997
  154.4614  140.0941  156.6952 H   0  0  0  0  0  0  0  0  0  0  0  0  # atno 8009 bound_to 7997
  155.4994  140.3450  155.4370 H   0  0  0  0  0  0  0  0  0  0  0  0  # atno 8010 bound_to 7997
  139.6802  144.7119  151.1530 H   0  0  0  0  0  0  0  0  0  0  0  0  # atno 10167 bound_to 10162
  156.6184  130.4868  149.6174 H   0  0  0  0  0  0  0  0  0  0  0  0  # atno 10718 bound_to 10713
  153.1599  135.6794  153.8757 H   0  0  0  0  0  0  0  0  0  0  0  0  # atno 10763 bound_to 10752
  153.8156  135.3137  155.3406 H   0  0  0  0  0  0  0  0  0  0  0  0  # atno 10764 bound_to 10752
  154.7925  135.4826  154.0174 H   0  0  0  0  0  0  0  0  0  0  0  0  # atno 10765 bound_to 10752
  140.8034  134.2830  157.4970 H   0  0  0  0  0  0  0  0  0  0  0  0  # atno 11005 bound_to 11000
  146.1508  139.4590  143.0050 LP  0  0  0  0  0  0  0  0  0  0  0  0  # atno 17320 bound_to 7965
  145.6873  141.0174  143.1574 LP  0  0  0  0  0  0  0  0  0  0  0  0  # atno 17321 bound_to 7965
  140.7649  143.5711  150.8995 LP  0  0  0  0  0  0  0  0  0  0  0  0  # atno 17342 bound_to 10162
  139.9382  143.6412  152.3060 LP  0  0  0  0  0  0  0  0  0  0  0  0  # atno 17343 bound_to 10162
  156.2332  130.6807  151.1484 LP  0  0  0  0  0  0  0  0  0  0  0  0  # atno 17370 bound_to 10713
  157.7235  131.0666  150.6036 LP  0  0  0  0  0  0  0  0  0  0  0  0  # atno 17371 bound_to 10713
  139.8720  134.9442  156.3875 LP  0  0  0  0  0  0  0  0  0  0  0  0  # atno 17394 bound_to 11000
  140.9272  133.7604  155.9979 LP  0  0  0  0  0  0  0  0  0  0  0  0  # atno 17395 bound_to 11000

$$$$
