AV-unprocessed.smi:381|AV-procd|sdf|2461|dock9
  -GOLD-   2262022403D 1   1.00000     0.00000
 Structure written by MMmdl.
 45 46  0  0  0  0  0  0  0  0  1 V2000
  150.8956  140.6991  155.4287 O   0  0  0  0  0  0  0  0  0  0  0  0
  150.2472  141.7304  155.5956 C   0  0  0  0  0  0  0  0  0  0  0  0
  149.0984  141.9916  154.9517 N   0  0  0  0  0  0  0  0  0  0  0  0
  148.4684  141.0938  153.9943 C   0  0  0  0  0  0  0  0  0  0  0  0
  147.0277  140.7766  154.4165 C   0  0  0  0  0  0  0  0  0  0  0  0
  146.2103  142.0333  154.6429 C   0  0  0  0  0  0  0  0  0  0  0  0
  145.9234  142.9098  153.5759 C   0  0  0  0  0  0  0  0  0  0  0  0
  145.1536  144.0609  153.8316 C   0  0  0  0  0  0  0  0  0  0  0  0
  144.7038  144.2878  155.1477 C   0  0  0  0  0  0  0  0  0  0  0  0
  144.9732  143.4564  156.1773 N   0  0  0  0  0  0  0  0  0  0  0  0
  145.7107  142.3539  155.9233 C   0  0  0  0  0  0  0  0  0  0  0  0
  150.6461  142.6869  156.4540 N   0  0  0  0  0  0  0  0  0  0  0  0
  151.8387  142.7193  157.3065 C   0  0  0  0  0  0  0  0  0  0  0  0
  151.7661  141.5205  158.2810 C   0  0  0  0  0  0  0  0  0  0  0  0
  152.8594  141.4489  159.3634 C   0  0  0  0  0  0  0  0  0  0  0  0
  152.4816  142.0730  160.7262 C   0  0  0  0  0  0  0  0  0  0  0  0
  152.8063  143.5703  160.8834 C   0  0  0  0  0  0  0  0  0  0  0  0
  151.6836  144.5606  160.5073 C   0  0  0  0  0  0  0  0  0  0  0  0
  151.0109  144.3661  159.1363 C   0  0  0  0  0  0  0  0  0  0  0  0
  151.9881  144.1061  157.9731 C   0  0  0  0  0  0  0  0  0  0  0  0
  148.6266  142.8625  155.1477 H   0  0  0  0  0  0  0  0  0  0  0  0
  148.4738  141.5503  153.0029 H   0  0  0  0  0  0  0  0  0  0  0  0
  149.0539  140.1754  153.9306 H   0  0  0  0  0  0  0  0  0  0  0  0
  146.5408  140.1630  153.6573 H   0  0  0  0  0  0  0  0  0  0  0  0
  147.0274  140.1884  155.3354 H   0  0  0  0  0  0  0  0  0  0  0  0
  146.2829  142.7029  152.5785 H   0  0  0  0  0  0  0  0  0  0  0  0
  144.9127  144.7525  153.0381 H   0  0  0  0  0  0  0  0  0  0  0  0
  144.1111  145.1604  155.3791 H   0  0  0  0  0  0  0  0  0  0  0  0
  145.9050  141.7083  156.7671 H   0  0  0  0  0  0  0  0  0  0  0  0
  150.0466  143.4967  156.5218 H   0  0  0  0  0  0  0  0  0  0  0  0
  152.7197  142.5601  156.6824 H   0  0  0  0  0  0  0  0  0  0  0  0
  150.7835  141.4507  158.7485 H   0  0  0  0  0  0  0  0  0  0  0  0
  151.8429  140.6160  157.6757 H   0  0  0  0  0  0  0  0  0  0  0  0
  153.0457  140.3901  159.5483 H   0  0  0  0  0  0  0  0  0  0  0  0
  153.8067  141.8422  158.9931 H   0  0  0  0  0  0  0  0  0  0  0  0
  151.4413  141.8703  160.9819 H   0  0  0  0  0  0  0  0  0  0  0  0
  153.0661  141.5464  161.4818 H   0  0  0  0  0  0  0  0  0  0  0  0
  153.0445  143.7521  161.9321 H   0  0  0  0  0  0  0  0  0  0  0  0
  153.7275  143.8084  160.3518 H   0  0  0  0  0  0  0  0  0  0  0  0
  150.9094  144.5288  161.2748 H   0  0  0  0  0  0  0  0  0  0  0  0
  152.0971  145.5686  160.5528 H   0  0  0  0  0  0  0  0  0  0  0  0
  150.2678  143.5733  159.2076 H   0  0  0  0  0  0  0  0  0  0  0  0
  150.4287  145.2606  158.9130 H   0  0  0  0  0  0  0  0  0  0  0  0
  153.0194  144.2398  158.2944 H   0  0  0  0  0  0  0  0  0  0  0  0
  151.8500  144.8842  157.2217 H   0  0  0  0  0  0  0  0  0  0  0  0
  1  2  2  0  0  0  0
  2  3  1  0  0  0  0
  2 12  1  0  0  0  0
  3  4  1  0  0  0  0
  3 21  1  0  0  0  0
  4  5  1  0  0  0  0
  4 22  1  0  0  0  0
  4 23  1  0  0  0  0
  5  6  1  0  0  0  0
  5 24  1  0  0  0  0
  5 25  1  0  0  0  0
  6 11  1  0  0  0  0
  6  7  2  0  0  0  0
  7  8  1  0  0  0  0
  7 26  1  0  0  0  0
  8  9  2  0  0  0  0
  8 27  1  0  0  0  0
  9 10  1  0  0  0  0
  9 28  1  0  0  0  0
 10 11  2  0  0  0  0
 11 29  1  0  0  0  0
 12 13  1  0  0  0  0
 12 30  1  0  0  0  0
 13 20  1  0  0  0  0
 13 14  1  0  0  0  0
 13 31  1  0  0  0  0
 14 15  1  0  0  0  0
 14 32  1  0  0  0  0
 14 33  1  0  0  0  0
 15 16  1  0  0  0  0
 15 34  1  0  0  0  0
 15 35  1  0  0  0  0
 16 17  1  0  0  0  0
 16 36  1  0  0  0  0
 16 37  1  0  0  0  0
 17 18  1  0  0  0  0
 17 38  1  0  0  0  0
 17 39  1  0  0  0  0
 18 19  1  0  0  0  0
 18 40  1  0  0  0  0
 18 41  1  0  0  0  0
 19 20  1  0  0  0  0
 19 42  1  0  0  0  0
 19 43  1  0  0  0  0
 20 44  1  0  0  0  0
 20 45  1  0  0  0  0
M  END
> <s_m_source_file>
AV-unprocessed.smi

> <i_m_source_file_index>
381

> <i_lp_mmshare_version>
43012

> <i_f3d_flags>
0

> <s_epik_input>
W0NIMl0xW0NIMl1bQ0gyXVtDSDJdW0NIMl1bQ0gyXVtDSDJdW0NIXTFbTkhdQyg9TylbTkhdW0NIMl1bQ0gyXWMyW2NIXVtjSF1bY0hdbltjSF0y

> <s_epik_cmdline>
J2VwaWtfcHl0aG9uJywgJy1waCcsICc3LjAnLCAnLXRuJywgJzgnLCAnLW1hJywgJzIwMCcsICctbWV0YWxfYmluZGluZycsICctaW1hZScsICc8aW5maWxlLm1hZT4nLCAnLW9tYWUnLCAnPG91dGZpbGUubWFlPic=

> <r_epik_Ionization_Penalty>
0.0144395

> <r_epik_Ionization_Penalty_Charging>
0

> <r_epik_Ionization_Penalty_Neutral>
0.0144395

> <r_epik_State_Penalty>
0.0112394

> <r_epik_Charging_Adjusted_Penalty>
0.0112394

> <i_epik_Tot_Q>
0

> <i_epik_Tot_abs_Q>
0

> <r_epik_Metal_State_Penalty>
0.0109727

> <b_epik_Metal_Only>
0

> <s_lp_Force_Field>
OPLS_2005

> <r_lp_Energy>
29.8357

> <b_lp_Chiralities_Consistent>
1

> <s_lp_Variant>
AV-unprocessed.smi:381-1

> <Gold.Version>
5.8.1

> <Gold.Id.Protein>
6NUR|6NUR_protein|mol2

> <Gold.PLP.Fitness>
52.8034

> <Gold.PLP.PLP>
-44.7672

> <Gold.PLP.part.hbond>
-3.0000

> <Gold.PLP.part.metal>
0.0000

> <Gold.PLP.part.buried>
-7.8830

> <Gold.PLP.part.nonpolar>
-33.3158

> <Gold.PLP.part.repulsive>
0.4502

> <Gold.PLP.ligand.clash>
0.0000

> <Gold.PLP.ligand.torsion>
0.0719

> <Gold.PLP.Chemscore.Hbond>
2.7124

> <Gold.PLP.Chemscore.CHOScore>
0.0000

> <Gold.PLP.Chemscore.Metal>
0.0000

> <Gold.Chemscore.Hbonds>
donor molecule, donor type, donor heavy atom, donor atom, acceptor molecule, acceptor atom, score
      L1  H     3    21       P1  8028  0.91
      L1  H    12    30       P1  8028  0.98
      P1  H  7989  7998       L1     1  0.79

> <Gold.PLP.Chemscore.Internal.Correction>
0.0427

> <Gold.Rescore>
     Score         DG    S(hbond)    S(metal)    S(lipo)     H(rot)  DE(clash)    DE(int)     intcor
     23.12     -24.55       2.30        0.00     128.52       1.42       1.32       0.10       ----

> <Gold.Chemscore.Fitness>
23.1248

> <Gold.Chemscore.DG>
-24.5494

> <Gold.Chemscore.ZeroCoef>
-5.4800

> <Gold.Chemscore.Hbond>
2.2966

> <Gold.Chemscore.Metal>
0.0000

> <Gold.Chemscore.Lipo>
128.5227

> <Gold.Chemscore.Internal_Hbond>
0.0000

> <Gold.Chemscore.DEClash>
1.3222

> <Gold.Chemscore.DEInternal>
0.1024

> <Gold.Chemscore.Rot>
1.4213

> <Gold.Chemscore.Internal.Correction>
   9.000000E+99

> <Gold.Chemscore.Hbonds>
donor molecule, donor type, donor heavy atom, donor atom, acceptor molecule, acceptor atom, score
      L1  H     3    21       P1  8028  0.88
      L1  H    12    30       P1  8028  0.93
      P1  H  7989  7998       L1     1  0.33

> <Gold.Chemscore.Hbond.Weighted>
-7.6708

> <Gold.Chemscore.Metal.Weighted>
-0.0000

> <Gold.Chemscore.Lipo.Weighted>
-15.0372

> <Gold.Chemscore.Internal_Hbond.Weighted>
0.0000

> <Gold.Chemscore.DEClash.Weighted>
1.3222

> <Gold.Chemscore.DEInternal.Weighted>
0.1024

> <Gold.Chemscore.Rot.Weighted>
3.6385

> <Gold.Chemscore.Internal.Correction.Weighted>
   9.000000E+99

> <Gold.Protein.RotatedTorsions>
[ 6907 6896 6895 6894 ] final  -56.20 input  -60.11 | X-H torsion
[ 7974 7965 7964 7962 ] final   46.38 input  175.53 | X-H torsion
[ 8008 7997 7996 7995 ] final  130.95 input   59.86 | X-H torsion
[ 10167 10162 10161 10158 ] final  -67.38 input  -65.29 | X-H torsion
[ 10718 10713 10712 10709 ] final  -62.31 input   66.30 | X-H torsion
[ 10763 10752 10751 10750 ] final  -39.53 input  -60.55 | X-H torsion
[ 11005 11000 10999 10996 ] final   -4.08 input  -57.11 | X-H torsion

> <Gold.Protein.ActiveResidues>
 VAL166  LYS551  ARG553  GLY616  TRP617  ASP618  TYR619  PRO620  LYS621  CYS622 
 ASP623  PHE694  ASN695  SER759  ASP760  ASP761  ALA762  ILE779  LEU786  VAL792 
 PHE793  MET794  SER795  GLU796  ALA797  LYS798  CYS799  TRP800  GLU811  SER814 

> <Gold.Protein.RotatedAtoms>
  150.8187  134.7383  159.6752 H   0  0  0  0  0  0  0  0  0  0  0  0  # atno 6907 bound_to 6896
  152.4304  134.5785  159.9951 H   0  0  0  0  0  0  0  0  0  0  0  0  # atno 6908 bound_to 6896
  151.5975  133.3322  159.3076 H   0  0  0  0  0  0  0  0  0  0  0  0  # atno 6909 bound_to 6896
  146.0395  139.4862  142.9787 H   0  0  0  0  0  0  0  0  0  0  0  0  # atno 7974 bound_to 7965
  156.2962  140.2583  156.2845 H   0  0  0  0  0  0  0  0  0  0  0  0  # atno 8008 bound_to 7997
  154.9569  140.0393  157.2190 H   0  0  0  0  0  0  0  0  0  0  0  0  # atno 8009 bound_to 7997
  154.7983  140.2824  155.5945 H   0  0  0  0  0  0  0  0  0  0  0  0  # atno 8010 bound_to 7997
  140.5587  143.2312  151.6770 H   0  0  0  0  0  0  0  0  0  0  0  0  # atno 10167 bound_to 10162
  156.0864  130.4207  150.1117 H   0  0  0  0  0  0  0  0  0  0  0  0  # atno 10718 bound_to 10713
  153.9309  135.6772  153.4745 H   0  0  0  0  0  0  0  0  0  0  0  0  # atno 10763 bound_to 10752
  153.0980  135.4842  154.8811 H   0  0  0  0  0  0  0  0  0  0  0  0  # atno 10764 bound_to 10752
  154.7428  135.3165  154.8655 H   0  0  0  0  0  0  0  0  0  0  0  0  # atno 10765 bound_to 10752
  140.6763  133.9192  155.8526 H   0  0  0  0  0  0  0  0  0  0  0  0  # atno 11005 bound_to 11000
  145.6908  141.0164  143.1556 LP  0  0  0  0  0  0  0  0  0  0  0  0  # atno 17320 bound_to 7965
  144.7067  139.8531  143.7427 LP  0  0  0  0  0  0  0  0  0  0  0  0  # atno 17321 bound_to 7965
  139.5060  144.3697  152.0482 LP  0  0  0  0  0  0  0  0  0  0  0  0  # atno 17342 bound_to 10162
  140.2822  144.3847  150.6115 LP  0  0  0  0  0  0  0  0  0  0  0  0  # atno 17343 bound_to 10162
  156.9137  130.9660  151.3559 LP  0  0  0  0  0  0  0  0  0  0  0  0  # atno 17370 bound_to 10713
  157.5999  130.8505  149.8786 LP  0  0  0  0  0  0  0  0  0  0  0  0  # atno 17371 bound_to 10713
  141.0353  134.0699  157.3967 LP  0  0  0  0  0  0  0  0  0  0  0  0  # atno 17394 bound_to 11000
  139.8965  135.0146  156.7057 LP  0  0  0  0  0  0  0  0  0  0  0  0  # atno 17395 bound_to 11000

$$$$
