AV-unprocessed.smi:370|AV-procd|sdf|2438|dock9
  -GOLD-   2262022373D 1   1.00000     0.00000
 Structure written by MMmdl.
 41 42  0  0  0  0  0  0  0  0  2 V2000
  144.9012  133.7510  162.8054 C   0  0  0  0  0  0  0  0  0  0  0  0
  145.5771  134.8756  162.0985 C   0  0  0  0  0  0  0  0  0  0  0  0
  146.8838  135.2639  162.0109 C   0  0  0  0  0  0  0  0  0  0  0  0
  146.8273  136.4076  161.1681 C   0  0  0  0  0  0  0  0  0  0  0  0
  147.8712  137.1585  160.7847 N   0  5  0  0  0  0  0  0  0  0  0  0
  148.6852  136.7333  159.7908 C   0  0  0  0  0  0  0  0  0  0  0  0
  148.8902  135.5620  159.4640 O   0  0  0  0  0  0  0  0  0  0  0  0
  149.3007  137.7243  159.1328 N   0  0  0  0  0  0  0  0  0  0  0  0
  150.2272  137.5463  158.0182 C   0  0  0  0  0  0  0  0  0  0  0  0
  150.4507  138.8601  157.2160 C   0  0  0  0  0  0  0  0  0  0  0  0
  151.3821  138.5159  156.0285 C   0  0  0  0  0  0  0  0  0  0  0  0
  149.0716  139.2474  156.6235 C   0  0  0  0  0  0  0  0  0  0  0  0
  150.9860  139.9506  158.0788 N   0  0  0  0  0  0  0  0  0  0  0  0
  151.0739  141.2648  157.4320 C   0  0  0  0  0  0  0  0  0  0  0  0
  151.5168  142.3639  158.4125 C   0  0  0  0  0  0  0  0  0  0  0  0
  152.7637  142.0104  158.9988 O   0  0  0  0  0  0  0  0  0  0  0  0
  152.7026  140.7695  159.6912 C   0  0  0  0  0  0  0  0  0  0  0  0
  152.2720  139.6559  158.7216 C   0  0  0  0  0  0  0  0  0  0  0  0
  145.5925  136.6994  160.7943 N   0  0  0  0  0  0  0  0  0  0  0  0
  144.7855  135.7171  161.3805 O   0  0  0  0  0  0  0  0  0  0  0  0
  145.1092  133.7877  163.8747 H   0  0  0  0  0  0  0  0  0  0  0  0
  145.2518  132.7916  162.4247 H   0  0  0  0  0  0  0  0  0  0  0  0
  143.8202  133.7932  162.6700 H   0  0  0  0  0  0  0  0  0  0  0  0
  147.7445  134.8011  162.4700 H   0  0  0  0  0  0  0  0  0  0  0  0
  149.1146  138.6719  159.4271 H   0  0  0  0  0  0  0  0  0  0  0  0
  151.1705  137.1472  158.3925 H   0  0  0  0  0  0  0  0  0  0  0  0
  149.8285  136.7699  157.3627 H   0  0  0  0  0  0  0  0  0  0  0  0
  150.9578  137.7175  155.4185 H   0  0  0  0  0  0  0  0  0  0  0  0
  152.3606  138.1701  156.3606 H   0  0  0  0  0  0  0  0  0  0  0  0
  151.5377  139.3665  155.3652 H   0  0  0  0  0  0  0  0  0  0  0  0
  148.5933  138.3977  156.1350 H   0  0  0  0  0  0  0  0  0  0  0  0
  149.1502  140.0273  155.8665 H   0  0  0  0  0  0  0  0  0  0  0  0
  148.3881  139.6044  157.3950 H   0  0  0  0  0  0  0  0  0  0  0  0
  151.7796  141.2307  156.6022 H   0  0  0  0  0  0  0  0  0  0  0  0
  150.1111  141.5594  157.0182 H   0  0  0  0  0  0  0  0  0  0  0  0
  151.6254  143.3150  157.8909 H   0  0  0  0  0  0  0  0  0  0  0  0
  150.7677  142.5100  159.1922 H   0  0  0  0  0  0  0  0  0  0  0  0
  153.6835  140.5473  160.1116 H   0  0  0  0  0  0  0  0  0  0  0  0
  152.0054  140.8439  160.5273 H   0  0  0  0  0  0  0  0  0  0  0  0
  152.2201  138.7284  159.2886 H   0  0  0  0  0  0  0  0  0  0  0  0
  153.0491  139.5249  157.9687 H   0  0  0  0  0  0  0  0  0  0  0  0
  1  2  1  0  0  0  0
  1 21  1  0  0  0  0
  1 22  1  0  0  0  0
  1 23  1  0  0  0  0
  2 20  1  0  0  0  0
  2  3  2  0  0  0  0
  3  4  1  0  0  0  0
  3 24  1  0  0  0  0
  4  5  1  0  0  0  0
  4 19  2  0  0  0  0
  5  6  1  0  0  0  0
  6  7  2  0  0  0  0
  6  8  1  0  0  0  0
  8  9  1  0  0  0  0
  8 25  1  0  0  0  0
  9 10  1  0  0  0  0
  9 26  1  0  0  0  0
  9 27  1  0  0  0  0
 10 11  1  0  0  0  0
 10 12  1  0  0  0  0
 10 13  1  0  0  0  0
 11 28  1  0  0  0  0
 11 29  1  0  0  0  0
 11 30  1  0  0  0  0
 12 31  1  0  0  0  0
 12 32  1  0  0  0  0
 12 33  1  0  0  0  0
 13 18  1  0  0  0  0
 13 14  1  0  0  0  0
 14 15  1  0  0  0  0
 14 34  1  0  0  0  0
 14 35  1  0  0  0  0
 15 16  1  0  0  0  0
 15 36  1  0  0  0  0
 15 37  1  0  0  0  0
 16 17  1  0  0  0  0
 17 18  1  0  0  0  0
 17 38  1  0  0  0  0
 17 39  1  0  0  0  0
 18 40  1  0  0  0  0
 18 41  1  0  0  0  0
 19 20  1  0  0  0  0
M  CHG  1   5  -1
M  END
> <s_m_source_file>
AV-unprocessed.smi

> <i_m_source_file_index>
370

> <i_lp_mmshare_version>
43012

> <i_f3d_flags>
0

> <s_epik_input>
W0NIM11jMVtjSF1jKG5vMSlbTkhdQyg9TylbTkhdW0NIMl1DKFtDSDNdKShbQ0gzXSlOMltDSDJdW0NIMl1PW0NIMl1bQ0gyXTI=

> <s_epik_cmdline>
J2VwaWtfcHl0aG9uJywgJy1waCcsICc3LjAnLCAnLXRuJywgJzgnLCAnLW1hJywgJzIwMCcsICctbWV0YWxfYmluZGluZycsICctaW1hZScsICc8aW5maWxlLm1hZT4nLCAnLW9tYWUnLCAnPG91dGZpbGUubWFlPic=

> <r_epik_Ionization_Penalty>
6.88367

> <r_epik_Ionization_Penalty_Charging>
6.57198

> <r_epik_Ionization_Penalty_Neutral>
0.311685

> <r_epik_State_Penalty>
6.77619

> <r_epik_Charging_Adjusted_Penalty>
13.3482

> <i_epik_Tot_Q>
-1

> <i_epik_Tot_abs_Q>
1

> <r_epik_Metal_State_Penalty>
2.70533

> <b_epik_Metal_Only>
1

> <s_lp_Force_Field>
OPLS_2005

> <r_lp_Energy>
34.5841

> <b_lp_Chiralities_Consistent>
1

> <s_lp_Variant>
AV-unprocessed.smi:370-3

> <Gold.Version>
5.8.1

> <Gold.Id.Protein>
6NUR|6NUR_protein|mol2

> <Gold.PLP.Fitness>
38.1751

> <Gold.PLP.PLP>
-26.9301

> <Gold.PLP.part.hbond>
-3.0000

> <Gold.PLP.part.metal>
0.0000

> <Gold.PLP.part.buried>
-5.2675

> <Gold.PLP.part.nonpolar>
-19.6644

> <Gold.PLP.part.repulsive>
0.2340

> <Gold.PLP.ligand.clash>
0.0000

> <Gold.PLP.ligand.torsion>
1.0065

> <Gold.PLP.Chemscore.Hbond>
4.3920

> <Gold.PLP.Chemscore.CHOScore>
0.0000

> <Gold.PLP.Chemscore.Metal>
0.0000

> <Gold.Chemscore.Hbonds>
donor molecule, donor type, donor heavy atom, donor atom, acceptor molecule, acceptor atom, score
      P1  H  6896  6907       L1     7  0.88
      P1  H  6931  6943       L1     5  1.73
      P1  H  6934  6947       L1     5  1.66

> <Gold.PLP.Chemscore.Internal.Correction>
0.0821

> <Gold.Rescore>
     Score         DG    S(hbond)    S(metal)    S(lipo)     H(rot)  DE(clash)    DE(int)     intcor
     14.32     -15.34       1.81        0.00      65.94       1.53       0.01       1.01       ----

> <Gold.Chemscore.Fitness>
14.3159

> <Gold.Chemscore.DG>
-15.3366

> <Gold.Chemscore.ZeroCoef>
-5.4800

> <Gold.Chemscore.Hbond>
1.8114

> <Gold.Chemscore.Metal>
0.0000

> <Gold.Chemscore.Lipo>
65.9437

> <Gold.Chemscore.Internal_Hbond>
0.0000

> <Gold.Chemscore.DEClash>
0.0089

> <Gold.Chemscore.DEInternal>
1.0118

> <Gold.Chemscore.Rot>
1.5269

> <Gold.Chemscore.Internal.Correction>
   9.000000E+99

> <Gold.Chemscore.Hbonds>
donor molecule, donor type, donor heavy atom, donor atom, acceptor molecule, acceptor atom, score
      P1  H  6896  6907       L1     7  0.82
      P1  H  6931  6943       L1     5  0.38
      P1  H  6934  6947       L1     5  0.35

> <Gold.Chemscore.Hbond.Weighted>
-6.0502

> <Gold.Chemscore.Metal.Weighted>
-0.0000

> <Gold.Chemscore.Lipo.Weighted>
-7.7154

> <Gold.Chemscore.Internal_Hbond.Weighted>
0.0000

> <Gold.Chemscore.DEClash.Weighted>
0.0089

> <Gold.Chemscore.DEInternal.Weighted>
1.0118

> <Gold.Chemscore.Rot.Weighted>
3.9090

> <Gold.Chemscore.Internal.Correction.Weighted>
   9.000000E+99

> <Gold.Protein.RotatedTorsions>
[ 6907 6896 6895 6894 ] final  -80.90 input  -60.11 | X-H torsion
[ 7974 7965 7964 7962 ] final -172.03 input  175.53 | X-H torsion
[ 8008 7997 7996 7995 ] final  -62.39 input   59.86 | X-H torsion
[ 10167 10162 10161 10158 ] final -143.52 input  -65.29 | X-H torsion
[ 10718 10713 10712 10709 ] final  170.84 input   66.30 | X-H torsion
[ 10763 10752 10751 10750 ] final  -66.85 input  -60.55 | X-H torsion
[ 11005 11000 10999 10996 ] final   98.39 input  -57.11 | X-H torsion

> <Gold.Protein.ActiveResidues>
 VAL166  LYS551  ARG553  GLY616  TRP617  ASP618  TYR619  PRO620  LYS621  CYS622 
 ASP623  PHE694  ASN695  SER759  ASP760  ASP761  ALA762  ILE779  LEU786  VAL792 
 PHE793  MET794  SER795  GLU796  ALA797  LYS798  CYS799  TRP800  GLU811  SER814 

> <Gold.Protein.RotatedAtoms>
  150.6921  134.3899  159.5071 H   0  0  0  0  0  0  0  0  0  0  0  0  # atno 6907 bound_to 6896
  152.1689  134.8848  160.0545 H   0  0  0  0  0  0  0  0  0  0  0  0  # atno 6908 bound_to 6896
  151.9881  133.3746  159.4171 H   0  0  0  0  0  0  0  0  0  0  0  0  # atno 6909 bound_to 6896
  144.7150  140.1833  143.6356 H   0  0  0  0  0  0  0  0  0  0  0  0  # atno 7974 bound_to 7965
  154.4497  140.0997  156.6579 H   0  0  0  0  0  0  0  0  0  0  0  0  # atno 8008 bound_to 7997
  155.5325  140.3481  155.4411 H   0  0  0  0  0  0  0  0  0  0  0  0  # atno 8009 bound_to 7997
  156.0654  140.1336  156.9881 H   0  0  0  0  0  0  0  0  0  0  0  0  # atno 8010 bound_to 7997
  139.7986  143.7865  152.2656 H   0  0  0  0  0  0  0  0  0  0  0  0  # atno 10167 bound_to 10162
  157.0022  131.0179  151.2827 H   0  0  0  0  0  0  0  0  0  0  0  0  # atno 10718 bound_to 10713
  154.3659  135.6106  153.5714 H   0  0  0  0  0  0  0  0  0  0  0  0  # atno 10763 bound_to 10752
  152.9792  135.5826  154.4579 H   0  0  0  0  0  0  0  0  0  0  0  0  # atno 10764 bound_to 10752
  154.4324  135.2848  155.1881 H   0  0  0  0  0  0  0  0  0  0  0  0  # atno 10765 bound_to 10752
  139.8772  134.9046  156.4448 H   0  0  0  0  0  0  0  0  0  0  0  0  # atno 11005 bound_to 11000
  145.8836  139.2336  143.1591 LP  0  0  0  0  0  0  0  0  0  0  0  0  # atno 17320 bound_to 7965
  145.9971  140.8552  143.0037 LP  0  0  0  0  0  0  0  0  0  0  0  0  # atno 17321 bound_to 7965
  139.7978  144.7385  150.9866 LP  0  0  0  0  0  0  0  0  0  0  0  0  # atno 17342 bound_to 10162
  140.7820  143.4375  151.0601 LP  0  0  0  0  0  0  0  0  0  0  0  0  # atno 17343 bound_to 10162
  157.5382  130.8102  149.7997 LP  0  0  0  0  0  0  0  0  0  0  0  0  # atno 17370 bound_to 10713
  156.0167  130.3811  150.2089 LP  0  0  0  0  0  0  0  0  0  0  0  0  # atno 17371 bound_to 10713
  140.8973  133.7804  155.9640 LP  0  0  0  0  0  0  0  0  0  0  0  0  # atno 17394 bound_to 11000
  140.8689  134.2751  157.5200 LP  0  0  0  0  0  0  0  0  0  0  0  0  # atno 17395 bound_to 11000

$$$$
