AV-unprocessed.smi:311|AV-procd|sdf|2297|dock9
  -GOLD-   2262022193D 1   1.00000     0.00000
 Structure written by MMmdl.
 44 46  0  0  0  0  0  0  0  0  2 V2000
  151.0256  145.5165  160.1556 C   0  0  0  0  0  0  0  0  0  0  0  0
  151.7890  144.2703  160.5024 C   0  0  0  0  0  0  0  0  0  0  0  0
  152.0746  144.0069  161.7664 N   0  0  0  0  0  0  0  0  0  0  0  0
  152.7885  142.8049  161.7558 O   0  0  0  0  0  0  0  0  0  0  0  0
  152.9058  142.3863  160.4702 C   0  0  0  0  0  0  0  0  0  0  0  0
  153.6542  141.1158  160.2469 C   0  0  0  0  0  0  0  0  0  0  0  0
  152.2937  143.2696  159.6233 C   0  0  0  0  0  0  0  0  0  0  0  0
  152.1850  143.2187  158.1213 C   0  0  0  0  0  0  0  0  0  0  0  0
  151.5245  141.9031  157.7150 C   0  0  0  0  0  0  0  0  0  0  0  0
  151.4145  140.9907  158.5337 O   0  0  0  0  0  0  0  0  0  0  0  0
  151.0598  141.8324  156.4582 N   0  0  0  0  0  0  0  0  0  0  0  0
  150.2954  140.7194  155.9060 C   0  0  2  0  0  0  0  0  0  0  0  0
  151.1658  139.5516  155.4568 C   0  0  0  0  0  0  0  0  0  0  0  0
  150.2338  138.8093  154.4975 C   0  0  0  0  0  0  0  0  0  0  0  0
  149.4282  139.8555  153.8279 N   0  3  1  0  0  0  0  0  0  0  0  0
  148.0465  139.4473  153.4754 C   0  0  0  0  0  0  0  0  0  0  0  0
  147.3027  140.6062  152.7870 C   0  0  0  0  0  0  0  0  0  0  0  0
  147.3539  141.9197  153.5956 C   0  0  0  0  0  0  0  0  0  0  0  0
  148.1815  141.7879  154.8843 C   0  0  0  0  0  0  0  0  0  0  0  0
  149.5461  141.1122  154.6204 C   0  0  1  0  0  0  0  0  0  0  0  0
  151.6487  146.2069  159.5869 H   0  0  0  0  0  0  0  0  0  0  0  0
  150.6778  146.0404  161.0469 H   0  0  0  0  0  0  0  0  0  0  0  0
  150.1511  145.2822  159.5487 H   0  0  0  0  0  0  0  0  0  0  0  0
  153.2348  140.5594  159.4087 H   0  0  0  0  0  0  0  0  0  0  0  0
  153.6123  140.4766  161.1292 H   0  0  0  0  0  0  0  0  0  0  0  0
  154.7019  141.3208  160.0268 H   0  0  0  0  0  0  0  0  0  0  0  0
  151.6068  144.0587  157.7339 H   0  0  0  0  0  0  0  0  0  0  0  0
  153.1646  143.2818  157.6464 H   0  0  0  0  0  0  0  0  0  0  0  0
  151.2061  142.6302  155.8565 H   0  0  0  0  0  0  0  0  0  0  0  0
  149.5877  140.3391  156.6460 H   0  0  0  0  0  0  0  0  0  0  0  0
  152.0451  139.9120  154.9202 H   0  0  0  0  0  0  0  0  0  0  0  0
  151.5039  138.9284  156.2852 H   0  0  0  0  0  0  0  0  0  0  0  0
  150.7752  138.1980  153.7751 H   0  0  0  0  0  0  0  0  0  0  0  0
  149.5808  138.1490  155.0707 H   0  0  0  0  0  0  0  0  0  0  0  0
  148.0826  138.5810  152.8141 H   0  0  0  0  0  0  0  0  0  0  0  0
  147.5102  139.1357  154.3733 H   0  0  0  0  0  0  0  0  0  0  0  0
  147.7415  140.7774  151.8030 H   0  0  0  0  0  0  0  0  0  0  0  0
  146.2659  140.3206  152.6061 H   0  0  0  0  0  0  0  0  0  0  0  0
  147.7813  142.7065  152.9729 H   0  0  0  0  0  0  0  0  0  0  0  0
  146.3436  142.2474  153.8430 H   0  0  0  0  0  0  0  0  0  0  0  0
  148.3284  142.7721  155.3303 H   0  0  0  0  0  0  0  0  0  0  0  0
  147.6150  141.2092  155.6155 H   0  0  0  0  0  0  0  0  0  0  0  0
  150.1672  141.7848  154.0262 H   0  0  0  0  0  0  0  0  0  0  0  0
  149.8922  140.0523  152.9527 H   0  0  0  0  0  0  0  0  0  0  0  0
  1  2  1  0  0  0  0
  1 21  1  0  0  0  0
  1 22  1  0  0  0  0
  1 23  1  0  0  0  0
  2  7  1  0  0  0  0
  2  3  2  0  0  0  0
  3  4  1  0  0  0  0
  4  5  1  0  0  0  0
  5  6  1  0  0  0  0
  5  7  2  0  0  0  0
  6 24  1  0  0  0  0
  6 25  1  0  0  0  0
  6 26  1  0  0  0  0
  7  8  1  0  0  0  0
  8  9  1  0  0  0  0
  8 27  1  0  0  0  0
  8 28  1  0  0  0  0
  9 10  2  0  0  0  0
  9 11  1  0  0  0  0
 11 12  1  0  0  0  0
 11 29  1  0  0  0  0
 12 20  1  0  0  0  0
 12 13  1  0  0  0  0
 12 30  1  0  0  0  0
 13 14  1  0  0  0  0
 13 31  1  0  0  0  0
 13 32  1  0  0  0  0
 14 15  1  0  0  0  0
 14 33  1  0  0  0  0
 14 34  1  0  0  0  0
 15 20  1  0  0  0  0
 15 16  1  0  0  0  0
 15 44  1  0  0  0  0
 16 17  1  0  0  0  0
 16 35  1  0  0  0  0
 16 36  1  0  0  0  0
 17 18  1  0  0  0  0
 17 37  1  0  0  0  0
 17 38  1  0  0  0  0
 18 19  1  0  0  0  0
 18 39  1  0  0  0  0
 18 40  1  0  0  0  0
 19 20  1  0  0  0  0
 19 41  1  0  0  0  0
 19 42  1  0  0  0  0
 20 43  1  0  0  0  0
M  CHG  1  15   1
M  END
> <s_m_source_file>
AV-unprocessed.smi

> <i_m_source_file_index>
311

> <i_lp_mmshare_version>
43012

> <i_f3d_flags>
0

> <s_epik_input>
W0NIM11jMW5vYyhbQ0gzXSljMVtDSDJdQyg9TylbTkhdW0NASF0oW0NIMl1bQ0gyXTIpW0NAQEhdKE4yMylbQ0gyXVtDSDJdW0NIMl1bQ0gyXTM=

> <s_epik_cmdline>
J2VwaWtfcHl0aG9uJywgJy1waCcsICc3LjAnLCAnLXRuJywgJzgnLCAnLW1hJywgJzIwMCcsICctbWV0YWxfYmluZGluZycsICctaW1hZScsICc8aW5maWxlLm1hZT4nLCAnLW9tYWUnLCAnPG91dGZpbGUubWFlPic=

> <r_epik_Ionization_Penalty>
0.00173669

> <r_epik_Ionization_Penalty_Charging>
0.0017366

> <r_epik_Ionization_Penalty_Neutral>
9.2145e-08

> <r_epik_State_Penalty>
0.00117499

> <r_epik_Charging_Adjusted_Penalty>
0.00291159

> <i_epik_Tot_Q>
1

> <i_epik_Tot_abs_Q>
1

> <r_epik_Metal_State_Penalty>
-0

> <b_epik_Metal_Only>
0

> <s_lp_Force_Field>
OPLS_2005

> <r_lp_Energy>
32.9133

> <b_lp_Chiralities_Consistent>
1

> <s_lp_Variant>
AV-unprocessed.smi:311-1

> <Gold.Version>
5.8.1

> <Gold.Id.Protein>
6NUR|6NUR_protein|mol2

> <Gold.PLP.Fitness>
47.7956

> <Gold.PLP.PLP>
-45.7494

> <Gold.PLP.part.hbond>
-1.0000

> <Gold.PLP.part.metal>
0.0000

> <Gold.PLP.part.buried>
-3.6351

> <Gold.PLP.part.nonpolar>
-40.7048

> <Gold.PLP.part.repulsive>
0.4792

> <Gold.PLP.ligand.clash>
0.0000

> <Gold.PLP.ligand.torsion>
0.4697

> <Gold.PLP.Chemscore.Hbond>
0.9920

> <Gold.PLP.Chemscore.CHOScore>
0.0000

> <Gold.PLP.Chemscore.Metal>
0.0000

> <Gold.Chemscore.Hbonds>
donor molecule, donor type, donor heavy atom, donor atom, acceptor molecule, acceptor atom, score
      L1  H    15    44       P1  7957  0.85

> <Gold.PLP.Chemscore.Internal.Correction>
0.0096

> <Gold.Rescore>
     Score         DG    S(hbond)    S(metal)    S(lipo)     H(rot)  DE(clash)    DE(int)     intcor
     15.41     -18.44       1.00        0.00     112.01       1.36       0.16       2.87       ----

> <Gold.Chemscore.Fitness>
15.4109

> <Gold.Chemscore.DG>
-18.4413

> <Gold.Chemscore.ZeroCoef>
-5.4800

> <Gold.Chemscore.Hbond>
0.9968

> <Gold.Chemscore.Metal>
0.0000

> <Gold.Chemscore.Lipo>
112.0084

> <Gold.Chemscore.Internal_Hbond>
0.0000

> <Gold.Chemscore.DEClash>
0.1634

> <Gold.Chemscore.DEInternal>
2.8670

> <Gold.Chemscore.Rot>
1.3567

> <Gold.Chemscore.Internal.Correction>
   9.000000E+99

> <Gold.Chemscore.Hbonds>
donor molecule, donor type, donor heavy atom, donor atom, acceptor molecule, acceptor atom, score
      L1  H    15    44       P1  7957  0.83

> <Gold.Chemscore.Hbond.Weighted>
-3.3294

> <Gold.Chemscore.Metal.Weighted>
-0.0000

> <Gold.Chemscore.Lipo.Weighted>
-13.1050

> <Gold.Chemscore.Internal_Hbond.Weighted>
0.0000

> <Gold.Chemscore.DEClash.Weighted>
0.1634

> <Gold.Chemscore.DEInternal.Weighted>
2.8670

> <Gold.Chemscore.Rot.Weighted>
3.4731

> <Gold.Chemscore.Internal.Correction.Weighted>
   9.000000E+99

> <Gold.Protein.RotatedTorsions>
[ 6907 6896 6895 6894 ] final  150.26 input  -60.11 | X-H torsion
[ 7974 7965 7964 7962 ] final  155.62 input  175.53 | X-H torsion
[ 8008 7997 7996 7995 ] final  173.66 input   59.86 | X-H torsion
[ 10167 10162 10161 10158 ] final -168.38 input  -65.29 | X-H torsion
[ 10718 10713 10712 10709 ] final   37.02 input   66.30 | X-H torsion
[ 10763 10752 10751 10750 ] final -142.95 input  -60.55 | X-H torsion
[ 11005 11000 10999 10996 ] final  -97.47 input  -57.11 | X-H torsion

> <Gold.Protein.ActiveResidues>
 VAL166  LYS551  ARG553  GLY616  TRP617  ASP618  TYR619  PRO620  LYS621  CYS622 
 ASP623  PHE694  ASN695  SER759  ASP760  ASP761  ALA762  ILE779  LEU786  VAL792 
 PHE793  MET794  SER795  GLU796  ALA797  LYS798  CYS799  TRP800  GLU811  SER814 

> <Gold.Protein.RotatedAtoms>
  152.1168  133.4331  159.4656 H   0  0  0  0  0  0  0  0  0  0  0  0  # atno 6907 bound_to 6896
  150.6870  134.2582  159.4548 H   0  0  0  0  0  0  0  0  0  0  0  0  # atno 6908 bound_to 6896
  152.0456  134.9685  160.0625 H   0  0  0  0  0  0  0  0  0  0  0  0  # atno 6909 bound_to 6896
  144.8014  139.7092  143.6180 H   0  0  0  0  0  0  0  0  0  0  0  0  # atno 7974 bound_to 7965
  156.1053  140.1454  156.9412 H   0  0  0  0  0  0  0  0  0  0  0  0  # atno 8008 bound_to 7997
  154.4730  140.0903  156.7236 H   0  0  0  0  0  0  0  0  0  0  0  0  # atno 8009 bound_to 7997
  155.4689  140.3441  155.4325 H   0  0  0  0  0  0  0  0  0  0  0  0  # atno 8010 bound_to 7997
  139.5989  144.1053  152.1720 H   0  0  0  0  0  0  0  0  0  0  0  0  # atno 10167 bound_to 10162
  157.3419  130.7552  149.6917 H   0  0  0  0  0  0  0  0  0  0  0  0  # atno 10718 bound_to 10713
  154.8489  135.3481  154.6109 H   0  0  0  0  0  0  0  0  0  0  0  0  # atno 10763 bound_to 10752
  153.6717  135.6984  153.5149 H   0  0  0  0  0  0  0  0  0  0  0  0  # atno 10764 bound_to 10752
  153.2737  135.4285  155.0969 H   0  0  0  0  0  0  0  0  0  0  0  0  # atno 10765 bound_to 10752
  141.1378  133.8173  157.0710 H   0  0  0  0  0  0  0  0  0  0  0  0  # atno 11005 bound_to 11000
  146.2296  139.5788  142.9564 LP  0  0  0  0  0  0  0  0  0  0  0  0  # atno 17320 bound_to 7965
  145.5545  141.0410  143.2260 LP  0  0  0  0  0  0  0  0  0  0  0  0  # atno 17321 bound_to 7965
  140.0645  144.5830  150.7238 LP  0  0  0  0  0  0  0  0  0  0  0  0  # atno 17342 bound_to 10162
  140.7234  143.2611  151.4203 LP  0  0  0  0  0  0  0  0  0  0  0  0  # atno 17343 bound_to 10162
  155.9709  130.4165  150.4235 LP  0  0  0  0  0  0  0  0  0  0  0  0  # atno 17370 bound_to 10713
  157.2284  131.0498  151.2506 LP  0  0  0  0  0  0  0  0  0  0  0  0  # atno 17371 bound_to 10713
  140.0511  134.9805  157.1138 LP  0  0  0  0  0  0  0  0  0  0  0  0  # atno 17394 bound_to 11000
  140.3989  134.2104  155.7164 LP  0  0  0  0  0  0  0  0  0  0  0  0  # atno 17395 bound_to 11000

$$$$
