AV-unprocessed.smi:3000|AV-procd|sdf|11429|dock8
  -GOLD-   2272016353D 1   1.00000     0.00000
 Structure written by MMmdl.
 44 45  0  0  0  0  0  0  0  0  1 V2000
  150.0537  141.9194  155.9951 C   0  0  0  0  0  0  0  0  0  0  0  0
  149.9705  140.6719  155.2661 N   0  0  0  0  0  0  0  0  0  0  0  0
  148.8440  140.0277  154.7952 C   0  0  0  0  0  0  0  0  0  0  0  0
  149.2931  138.8996  154.1770 C   0  0  0  0  0  0  0  0  0  0  0  0
  148.4640  137.9396  153.5451 N   0  0  0  0  0  0  0  0  0  0  0  0
  147.2074  137.6045  153.8783 C   0  0  0  0  0  0  0  0  0  0  0  0
  146.5711  138.0990  154.8081 O   0  0  0  0  0  0  0  0  0  0  0  0
  146.7310  136.6550  153.0558 N   0  0  0  0  0  0  0  0  0  0  0  0
  145.4085  136.0100  153.0541 C   0  0  1  0  0  0  0  0  0  0  0  0
  145.1530  135.3355  154.4264 C   0  0  0  0  0  0  0  0  0  0  0  0
  144.3112  137.0903  152.8217 C   0  0  0  0  0  0  0  0  0  0  0  0
  144.6936  138.0452  151.8521 O   0  0  0  0  0  0  0  0  0  0  0  0
  145.4134  134.9352  151.9088 C   0  0  0  0  0  0  0  0  0  0  0  0
  144.0653  134.1778  151.7614 C   0  0  0  0  0  0  0  0  0  0  0  0
  144.0854  133.1721  150.5992 C   0  0  0  0  0  0  0  0  0  0  0  0
  145.2318  132.1651  150.7526 C   0  0  0  0  0  0  0  0  0  0  0  0
  146.5761  132.8919  150.8776 C   0  0  0  0  0  0  0  0  0  0  0  0
  146.5622  133.8980  152.0392 C   0  0  0  0  0  0  0  0  0  0  0  0
  150.7104  138.9214  154.3104 C   0  0  0  0  0  0  0  0  0  0  0  0
  151.1088  139.9990  154.9701 N   0  0  0  0  0  0  0  0  0  0  0  0
  149.0580  142.2399  156.3029 H   0  0  0  0  0  0  0  0  0  0  0  0
  150.4935  142.6880  155.3591 H   0  0  0  0  0  0  0  0  0  0  0  0
  150.6736  141.7907  156.8832 H   0  0  0  0  0  0  0  0  0  0  0  0
  147.8474  140.4190  154.9372 H   0  0  0  0  0  0  0  0  0  0  0  0
  148.8691  137.4591  152.7554 H   0  0  0  0  0  0  0  0  0  0  0  0
  147.3584  136.3347  152.3329 H   0  0  0  0  0  0  0  0  0  0  0  0
  144.2770  134.6873  154.3913 H   0  0  0  0  0  0  0  0  0  0  0  0
  144.9718  136.0681  155.2128 H   0  0  0  0  0  0  0  0  0  0  0  0
  145.9989  134.7311  154.7525 H   0  0  0  0  0  0  0  0  0  0  0  0
  143.3795  136.6382  152.4820 H   0  0  0  0  0  0  0  0  0  0  0  0
  144.0671  137.6130  153.7465 H   0  0  0  0  0  0  0  0  0  0  0  0
  144.0553  138.7422  151.8500 H   0  0  0  0  0  0  0  0  0  0  0  0
  145.5697  135.4628  150.9668 H   0  0  0  0  0  0  0  0  0  0  0  0
  143.8235  133.6492  152.6841 H   0  0  0  0  0  0  0  0  0  0  0  0
  143.2479  134.8748  151.5830 H   0  0  0  0  0  0  0  0  0  0  0  0
  143.1328  132.6439  150.5486 H   0  0  0  0  0  0  0  0  0  0  0  0
  144.1915  133.7072  149.6546 H   0  0  0  0  0  0  0  0  0  0  0  0
  145.0637  131.5469  151.6354 H   0  0  0  0  0  0  0  0  0  0  0  0
  145.2511  131.4884  149.8979 H   0  0  0  0  0  0  0  0  0  0  0  0
  147.3768  132.1665  151.0250 H   0  0  0  0  0  0  0  0  0  0  0  0
  146.7994  133.4131  149.9458 H   0  0  0  0  0  0  0  0  0  0  0  0
  147.5312  134.3944  152.0602 H   0  0  0  0  0  0  0  0  0  0  0  0
  146.4749  133.3536  152.9801 H   0  0  0  0  0  0  0  0  0  0  0  0
  151.4528  138.2183  153.9635 H   0  0  0  0  0  0  0  0  0  0  0  0
  1  2  1  0  0  0  0
  1 21  1  0  0  0  0
  1 22  1  0  0  0  0
  1 23  1  0  0  0  0
  2 20  1  0  0  0  0
  2  3  1  0  0  0  0
  3  4  2  0  0  0  0
  3 24  1  0  0  0  0
  4  5  1  0  0  0  0
  4 19  1  0  0  0  0
  5  6  1  0  0  0  0
  5 25  1  0  0  0  0
  6  7  2  0  0  0  0
  6  8  1  0  0  0  0
  8  9  1  0  0  0  0
  8 26  1  0  0  0  0
  9 10  1  0  0  0  0
  9 11  1  0  0  0  0
  9 13  1  0  0  0  0
 10 27  1  0  0  0  0
 10 28  1  0  0  0  0
 10 29  1  0  0  0  0
 11 12  1  0  0  0  0
 11 30  1  0  0  0  0
 11 31  1  0  0  0  0
 12 32  1  0  0  0  0
 13 18  1  0  0  0  0
 13 14  1  0  0  0  0
 13 33  1  0  0  0  0
 14 15  1  0  0  0  0
 14 34  1  0  0  0  0
 14 35  1  0  0  0  0
 15 16  1  0  0  0  0
 15 36  1  0  0  0  0
 15 37  1  0  0  0  0
 16 17  1  0  0  0  0
 16 38  1  0  0  0  0
 16 39  1  0  0  0  0
 17 18  1  0  0  0  0
 17 40  1  0  0  0  0
 17 41  1  0  0  0  0
 18 42  1  0  0  0  0
 18 43  1  0  0  0  0
 19 20  2  0  0  0  0
 19 44  1  0  0  0  0
M  END
> <s_m_source_file>
AV-unprocessed.smi

> <i_m_source_file_index>
3000

> <i_lp_mmshare_version>
43012

> <i_f3d_flags>
0

> <s_epik_input>
W0NIM11uMVtjSF1jKFtjSF1uMSlbTkhdQyg9TylbTkhdW0NAQF0oW0NIM10pKFtDSDJdW09IXSlbQ0hdMltDSDJdW0NIMl1bQ0gyXVtDSDJdW0NIMl0y

> <s_epik_cmdline>
J2VwaWtfcHl0aG9uJywgJy1waCcsICc3LjAnLCAnLXRuJywgJzgnLCAnLW1hJywgJzIwMCcsICctbWV0YWxfYmluZGluZycsICctaW1hZScsICc8aW5maWxlLm1hZT4nLCAnLW9tYWUnLCAnPG91dGZpbGUubWFlPic=

> <r_lp_tautomer_probability>
1

> <r_epik_Ionization_Penalty>
0.000189471

> <r_epik_Ionization_Penalty_Charging>
0

> <r_epik_Ionization_Penalty_Neutral>
0.000189471

> <r_epik_State_Penalty>
-0

> <r_epik_Charging_Adjusted_Penalty>
0

> <i_epik_Tot_Q>
0

> <i_epik_Tot_abs_Q>
0

> <r_epik_Metal_State_Penalty>
-0

> <b_epik_Metal_Only>
0

> <s_lp_Force_Field>
OPLS_2005

> <r_lp_Energy>
20.4121

> <b_lp_Chiralities_Consistent>
1

> <s_lp_Variant>
AV-unprocessed.smi:3000-1

> <Gold.Version>
5.8.1

> <Gold.Id.Protein>
6NUR|6NUR_protein|mol2

> <Gold.PLP.Fitness>
42.2942

> <Gold.PLP.PLP>
-32.3977

> <Gold.PLP.part.hbond>
-4.3071

> <Gold.PLP.part.metal>
0.0000

> <Gold.PLP.part.buried>
-3.1663

> <Gold.PLP.part.nonpolar>
-24.8126

> <Gold.PLP.part.repulsive>
0.1466

> <Gold.PLP.ligand.clash>
0.0000

> <Gold.PLP.ligand.torsion>
0.4776

> <Gold.PLP.Chemscore.Hbond>
3.6090

> <Gold.PLP.Chemscore.CHOScore>
0.0000

> <Gold.PLP.Chemscore.Metal>
0.0000

> <Gold.Chemscore.Hbonds>
donor molecule, donor type, donor heavy atom, donor atom, acceptor molecule, acceptor atom, score
      L1  H     5    25       P1  7948  0.93
      L1  H     8    26       P1  7948  0.93
      L1  H    12    32       P1 10175  0.93
      P1  H  7989  7998       L1    20  0.70

> <Gold.PLP.Chemscore.Internal.Correction>
0.0246

> <Gold.Rescore>
     Score         DG    S(hbond)    S(metal)    S(lipo)     H(rot)  DE(clash)    DE(int)     intcor
     17.80     -18.62       2.91        0.00      73.38       2.02       0.27       0.55       ----

> <Gold.Chemscore.Fitness>
17.8014

> <Gold.Chemscore.DG>
-18.6196

> <Gold.Chemscore.ZeroCoef>
-5.4800

> <Gold.Chemscore.Hbond>
2.9091

> <Gold.Chemscore.Metal>
0.0000

> <Gold.Chemscore.Lipo>
73.3793

> <Gold.Chemscore.Internal_Hbond>
0.0000

> <Gold.Chemscore.DEClash>
0.2729

> <Gold.Chemscore.DEInternal>
0.5452

> <Gold.Chemscore.Rot>
2.0165

> <Gold.Chemscore.Internal.Correction>
   9.000000E+99

> <Gold.Chemscore.Hbonds>
donor molecule, donor type, donor heavy atom, donor atom, acceptor molecule, acceptor atom, score
      L1  H     5    25       P1  7948  0.85
      L1  H     8    26       P1  7948  0.89
      L1  H    12    32       P1 10175  0.89
      P1  H  7989  7998       L1    20  0.02

> <Gold.Chemscore.Hbond.Weighted>
-9.7164

> <Gold.Chemscore.Metal.Weighted>
-0.0000

> <Gold.Chemscore.Lipo.Weighted>
-8.5854

> <Gold.Chemscore.Internal_Hbond.Weighted>
0.0000

> <Gold.Chemscore.DEClash.Weighted>
0.2729

> <Gold.Chemscore.DEInternal.Weighted>
0.5452

> <Gold.Chemscore.Rot.Weighted>
5.1622

> <Gold.Chemscore.Internal.Correction.Weighted>
   9.000000E+99

> <Gold.Protein.RotatedTorsions>
[ 6907 6896 6895 6894 ] final  -89.88 input  -60.11 | X-H torsion
[ 7974 7965 7964 7962 ] final -108.17 input  175.53 | X-H torsion
[ 8008 7997 7996 7995 ] final    4.44 input   59.86 | X-H torsion
[ 10167 10162 10161 10158 ] final  156.32 input  -65.29 | X-H torsion
[ 10718 10713 10712 10709 ] final -168.80 input   66.30 | X-H torsion
[ 10763 10752 10751 10750 ] final -149.26 input  -60.55 | X-H torsion
[ 11005 11000 10999 10996 ] final  124.05 input  -57.11 | X-H torsion

> <Gold.Protein.ActiveResidues>
 VAL166  LYS551  ARG553  GLY616  TRP617  ASP618  TYR619  PRO620  LYS621  CYS622 
 ASP623  PHE694  ASN695  SER759  ASP760  ASP761  ALA762  ILE779  LEU786  VAL792 
 PHE793  MET794  SER795  GLU796  ALA797  LYS798  CYS799  TRP800  GLU811  SER814 

> <Gold.Protein.RotatedAtoms>
  150.6877  134.2518  159.4513 H   0  0  0  0  0  0  0  0  0  0  0  0  # atno 6907 bound_to 6896
  152.0454  134.9683  160.0583 H   0  0  0  0  0  0  0  0  0  0  0  0  # atno 6908 bound_to 6896
  152.1168  133.4296  159.4694 H   0  0  0  0  0  0  0  0  0  0  0  0  # atno 6909 bound_to 6896
  145.1962  140.9036  143.3396 H   0  0  0  0  0  0  0  0  0  0  0  0  # atno 7974 bound_to 7965
  154.7160  140.2702  155.6585 H   0  0  0  0  0  0  0  0  0  0  0  0  # atno 8008 bound_to 7997
  156.2809  140.2744  156.1741 H   0  0  0  0  0  0  0  0  0  0  0  0  # atno 8009 bound_to 7997
  155.0571  140.0371  157.2554 H   0  0  0  0  0  0  0  0  0  0  0  0  # atno 8010 bound_to 7997
  139.4821  144.5019  151.8155 H   0  0  0  0  0  0  0  0  0  0  0  0  # atno 10167 bound_to 10162
  156.7022  130.9201  151.3081 H   0  0  0  0  0  0  0  0  0  0  0  0  # atno 10718 bound_to 10713
  154.8187  135.3313  154.7101 H   0  0  0  0  0  0  0  0  0  0  0  0  # atno 10763 bound_to 10752
  153.7737  135.6923  153.4906 H   0  0  0  0  0  0  0  0  0  0  0  0  # atno 10764 bound_to 10752
  153.2027  135.4510  155.0234 H   0  0  0  0  0  0  0  0  0  0  0  0  # atno 10765 bound_to 10752
  139.9341  134.9640  156.8351 H   0  0  0  0  0  0  0  0  0  0  0  0  # atno 11005 bound_to 11000
  144.9992  139.3614  143.6176 LP  0  0  0  0  0  0  0  0  0  0  0  0  # atno 17320 bound_to 7965
  146.3426  139.9208  142.8767 LP  0  0  0  0  0  0  0  0  0  0  0  0  # atno 17321 bound_to 7965
  140.4513  144.1850  150.5898 LP  0  0  0  0  0  0  0  0  0  0  0  0  # atno 17342 bound_to 10162
  140.4581  143.2459  151.9257 LP  0  0  0  0  0  0  0  0  0  0  0  0  # atno 17343 bound_to 10162
  157.6968  130.9291  150.0669 LP  0  0  0  0  0  0  0  0  0  0  0  0  # atno 17370 bound_to 10713
  156.1720  130.3647  149.9152 LP  0  0  0  0  0  0  0  0  0  0  0  0  # atno 17371 bound_to 10713
  140.6124  134.0070  155.7582 LP  0  0  0  0  0  0  0  0  0  0  0  0  # atno 17394 bound_to 11000
  141.0945  133.9865  157.3183 LP  0  0  0  0  0  0  0  0  0  0  0  0  # atno 17395 bound_to 11000

$$$$
