AV-unprocessed.smi:937|AV-procd|sdf|4216|dock1
  -GOLD-   22720 2123D 1   1.00000     0.00000
 Structure written by MMmdl.
 46 47  0  0  0  0  0  0  0  0  2 V2000
  153.3978  143.8557  163.7496 C   0  0  0  0  0  0  0  0  0  0  0  0
  152.8619  143.6936  162.3430 C   0  0  0  0  0  0  0  0  0  0  0  0
  153.2221  142.6063  161.5180 C   0  0  0  0  0  0  0  0  0  0  0  0
  152.6871  142.5232  160.2155 C   0  0  0  0  0  0  0  0  0  0  0  0
  151.8024  143.5275  159.7647 C   0  0  0  0  0  0  0  0  0  0  0  0
  151.2187  143.4759  158.3662 C   0  0  0  0  0  0  0  0  0  0  0  0
  149.9530  142.6107  158.3038 C   0  0  0  0  0  0  0  0  0  0  0  0
  148.7712  143.4395  158.1127 N   0  0  0  0  0  0  0  0  0  0  0  0
  147.5091  143.0187  158.2948 C   0  0  0  0  0  0  0  0  0  0  0  0
  147.2225  141.8788  158.6551 O   0  0  0  0  0  0  0  0  0  0  0  0
  146.5635  143.9408  158.0398 N   0  0  0  0  0  0  0  0  0  0  0  0
  145.1061  143.8097  158.1379 C   0  0  1  0  0  0  0  0  0  0  0  0
  144.4789  144.9608  158.9544 C   0  0  0  0  0  0  0  0  0  0  0  0
  144.5545  146.3042  158.2113 C   0  0  0  0  0  0  0  0  0  0  0  0
  143.9145  146.2072  156.8179 C   0  0  0  0  0  0  0  0  0  0  0  0
  144.5575  145.0886  155.9715 C   0  0  2  0  0  0  0  0  0  0  0  0
  143.9296  144.9937  154.5656 C   0  0  0  0  0  0  0  0  0  0  0  0
  143.8465  146.1984  153.9998 F   0  0  0  0  0  0  0  0  0  0  0  0
  144.6681  144.2024  153.7874 F   0  0  0  0  0  0  0  0  0  0  0  0
  142.7060  144.4707  154.6475 F   0  0  0  0  0  0  0  0  0  0  0  0
  144.4872  143.7409  156.7270 C   0  0  0  0  0  0  0  0  0  0  0  0
  151.4770  144.5900  160.6348 C   0  0  0  0  0  0  0  0  0  0  0  0
  152.0113  144.6342  161.8747 N   0  3  0  0  0  0  0  0  0  0  0  0
  154.0647  143.0344  164.0138 H   0  0  0  0  0  0  0  0  0  0  0  0
  152.5790  143.8746  164.4693 H   0  0  0  0  0  0  0  0  0  0  0  0
  153.9558  144.7884  163.8374 H   0  0  0  0  0  0  0  0  0  0  0  0
  153.9016  141.8456  161.8748 H   0  0  0  0  0  0  0  0  0  0  0  0
  152.9571  141.6990  159.5713 H   0  0  0  0  0  0  0  0  0  0  0  0
  150.9974  144.4902  158.0305 H   0  0  0  0  0  0  0  0  0  0  0  0
  151.9745  143.0835  157.6843 H   0  0  0  0  0  0  0  0  0  0  0  0
  150.0382  141.8927  157.4861 H   0  0  0  0  0  0  0  0  0  0  0  0
  149.8389  142.0382  159.2254 H   0  0  0  0  0  0  0  0  0  0  0  0
  148.9174  144.3930  157.8142 H   0  0  0  0  0  0  0  0  0  0  0  0
  146.8959  144.8367  157.7133 H   0  0  0  0  0  0  0  0  0  0  0  0
  144.8810  142.8648  158.6353 H   0  0  0  0  0  0  0  0  0  0  0  0
  143.4324  144.7250  159.1523 H   0  0  0  0  0  0  0  0  0  0  0  0
  144.9541  145.0497  159.9316 H   0  0  0  0  0  0  0  0  0  0  0  0
  144.0535  147.0772  158.7947 H   0  0  0  0  0  0  0  0  0  0  0  0
  145.5951  146.6175  158.1176 H   0  0  0  0  0  0  0  0  0  0  0  0
  142.8445  146.0234  156.9224 H   0  0  0  0  0  0  0  0  0  0  0  0
  144.0130  147.1665  156.3093 H   0  0  0  0  0  0  0  0  0  0  0  0
  145.6099  145.3428  155.8353 H   0  0  0  0  0  0  0  0  0  0  0  0
  144.9803  142.9590  156.1481 H   0  0  0  0  0  0  0  0  0  0  0  0
  143.4441  143.4346  156.8150 H   0  0  0  0  0  0  0  0  0  0  0  0
  150.8143  145.4033  160.3769 H   0  0  0  0  0  0  0  0  0  0  0  0
  151.7636  145.4141  162.4839 H   0  0  0  0  0  0  0  0  0  0  0  0
  1  2  1  0  0  0  0
  1 24  1  0  0  0  0
  1 25  1  0  0  0  0
  1 26  1  0  0  0  0
  2 23  1  0  0  0  0
  2  3  2  0  0  0  0
  3  4  1  0  0  0  0
  3 27  1  0  0  0  0
  4  5  2  0  0  0  0
  4 28  1  0  0  0  0
  5  6  1  0  0  0  0
  5 22  1  0  0  0  0
  6  7  1  0  0  0  0
  6 29  1  0  0  0  0
  6 30  1  0  0  0  0
  7  8  1  0  0  0  0
  7 31  1  0  0  0  0
  7 32  1  0  0  0  0
  8  9  1  0  0  0  0
  8 33  1  0  0  0  0
  9 10  2  0  0  0  0
  9 11  1  0  0  0  0
 11 12  1  0  0  0  0
 11 34  1  0  0  0  0
 12 21  1  0  0  0  0
 12 13  1  0  0  0  0
 12 35  1  0  0  0  0
 13 14  1  0  0  0  0
 13 36  1  0  0  0  0
 13 37  1  0  0  0  0
 14 15  1  0  0  0  0
 14 38  1  0  0  0  0
 14 39  1  0  0  0  0
 15 16  1  0  0  0  0
 15 40  1  0  0  0  0
 15 41  1  0  0  0  0
 16 17  1  0  0  0  0
 16 21  1  0  0  0  0
 16 42  1  0  0  0  0
 17 18  1  0  0  0  0
 17 19  1  0  0  0  0
 17 20  1  0  0  0  0
 21 43  1  0  0  0  0
 21 44  1  0  0  0  0
 22 23  2  0  0  0  0
 22 45  1  0  0  0  0
 23 46  1  0  0  0  0
M  CHG  1  23   1
M  END
> <s_m_source_file>
AV-unprocessed.smi

> <i_m_source_file_index>
937

> <i_lp_mmshare_version>
43012

> <i_f3d_flags>
0

> <s_epik_input>
W0NIM11jMVtjSF1bY0hdYyhbY0hdbjEpW0NIMl1bQ0gyXVtOSF1DKD1PKVtOSF1bQ0BASF0yW0NIMl1bQ0gyXVtDSDJdW0NAQEhdKEMoRikoRilGKVtDSDJdMg==

> <s_epik_cmdline>
J2VwaWtfcHl0aG9uJywgJy1waCcsICc3LjAnLCAnLXRuJywgJzgnLCAnLW1hJywgJzIwMCcsICctbWV0YWxfYmluZGluZycsICctaW1hZScsICc8aW5maWxlLm1hZT4nLCAnLW9tYWUnLCAnPG91dGZpbGUubWFlPic=

> <r_epik_Ionization_Penalty>
1.4226

> <r_epik_Ionization_Penalty_Charging>
1.42255

> <r_epik_Ionization_Penalty_Neutral>
5.16456e-05

> <r_epik_State_Penalty>
1.50646

> <r_epik_Charging_Adjusted_Penalty>
2.92901

> <i_epik_Tot_Q>
1

> <i_epik_Tot_abs_Q>
1

> <r_epik_Metal_State_Penalty>
1.55846

> <b_epik_Metal_Only>
0

> <s_lp_Force_Field>
OPLS_2005

> <r_lp_Energy>
25.1059

> <b_lp_Chiralities_Consistent>
1

> <s_lp_Variant>
AV-unprocessed.smi:937-8

> <Gold.Version>
5.8.1

> <Gold.Id.Protein>
6NUR|6NUR_protein|mol2

> <Gold.PLP.Fitness>
51.1189

> <Gold.PLP.PLP>
-47.1422

> <Gold.PLP.part.hbond>
-5.3334

> <Gold.PLP.part.metal>
0.0000

> <Gold.PLP.part.buried>
-5.4441

> <Gold.PLP.part.nonpolar>
-35.0052

> <Gold.PLP.part.repulsive>
0.2175

> <Gold.PLP.ligand.clash>
0.0000

> <Gold.PLP.ligand.torsion>
1.0683

> <Gold.PLP.Chemscore.Hbond>
2.0202

> <Gold.PLP.Chemscore.CHOScore>
0.0000

> <Gold.PLP.Chemscore.Metal>
0.0000

> <Gold.Chemscore.Hbonds>
donor molecule, donor type, donor heavy atom, donor atom, acceptor molecule, acceptor atom, score
      L1  H     8    33       P1  8029  0.40
      L1  H    11    34       P1  8029  0.98
      P1  H  6934  6946       L1    10  0.16

> <Gold.PLP.Chemscore.Internal.Correction>
0.0525

> <Gold.Rescore>
     Score         DG    S(hbond)    S(metal)    S(lipo)     H(rot)  DE(clash)    DE(int)     intcor
     17.77     -19.25       1.74        0.00     104.48       1.66       0.12       1.37       ----

> <Gold.Chemscore.Fitness>
17.7667

> <Gold.Chemscore.DG>
-19.2542

> <Gold.Chemscore.ZeroCoef>
-5.4800

> <Gold.Chemscore.Hbond>
1.7354

> <Gold.Chemscore.Metal>
0.0000

> <Gold.Chemscore.Lipo>
104.4764

> <Gold.Chemscore.Internal_Hbond>
0.0000

> <Gold.Chemscore.DEClash>
0.1159

> <Gold.Chemscore.DEInternal>
1.3716

> <Gold.Chemscore.Rot>
1.6585

> <Gold.Chemscore.Internal.Correction>
   9.000000E+99

> <Gold.Chemscore.Hbonds>
donor molecule, donor type, donor heavy atom, donor atom, acceptor molecule, acceptor atom, score
      L1  H     8    33       P1  8029  0.02
      L1  H    11    34       P1  8029  0.27
      P1  H  6934  6946       L1    10  0.16

> <Gold.Chemscore.Hbond.Weighted>
-5.7961

> <Gold.Chemscore.Metal.Weighted>
-0.0000

> <Gold.Chemscore.Lipo.Weighted>
-12.2237

> <Gold.Chemscore.Internal_Hbond.Weighted>
0.0000

> <Gold.Chemscore.DEClash.Weighted>
0.1159

> <Gold.Chemscore.DEInternal.Weighted>
1.3716

> <Gold.Chemscore.Rot.Weighted>
4.2457

> <Gold.Chemscore.Internal.Correction.Weighted>
   9.000000E+99

> <Gold.Protein.RotatedTorsions>
[ 6907 6896 6895 6894 ] final -122.48 input  -60.11 | X-H torsion
[ 7974 7965 7964 7962 ] final  162.42 input  175.53 | X-H torsion
[ 8008 7997 7996 7995 ] final  112.78 input   59.86 | X-H torsion
[ 10167 10162 10161 10158 ] final   12.66 input  -65.29 | X-H torsion
[ 10718 10713 10712 10709 ] final   29.78 input   66.30 | X-H torsion
[ 10763 10752 10751 10750 ] final   65.81 input  -60.55 | X-H torsion
[ 11005 11000 10999 10996 ] final   68.41 input  -57.11 | X-H torsion

> <Gold.Protein.ActiveResidues>
 VAL166  LYS551  ARG553  GLY616  TRP617  ASP618  TYR619  PRO620  LYS621  CYS622 
 ASP623  PHE694  ASN695  SER759  ASP760  ASP761  ALA762  ILE779  LEU786  VAL792 
 PHE793  MET794  SER795  GLU796  ALA797  LYS798  CYS799  TRP800  GLU811  SER814 

> <Gold.Protein.RotatedAtoms>
  150.8580  133.7687  159.3002 H   0  0  0  0  0  0  0  0  0  0  0  0  # atno 6907 bound_to 6896
  151.5338  135.1067  159.9919 H   0  0  0  0  0  0  0  0  0  0  0  0  # atno 6908 bound_to 6896
  152.4604  133.7767  159.6884 H   0  0  0  0  0  0  0  0  0  0  0  0  # atno 6909 bound_to 6896
  144.7637  139.8037  143.6323 H   0  0  0  0  0  0  0  0  0  0  0  0  # atno 7974 bound_to 7965
  156.2215  140.2992  155.9964 H   0  0  0  0  0  0  0  0  0  0  0  0  # atno 8008 bound_to 7997
  155.2469  140.0424  157.2999 H   0  0  0  0  0  0  0  0  0  0  0  0  # atno 8009 bound_to 7997
  154.5848  140.2385  155.8011 H   0  0  0  0  0  0  0  0  0  0  0  0  # atno 8010 bound_to 7997
  140.6053  143.8520  150.7008 H   0  0  0  0  0  0  0  0  0  0  0  0  # atno 10167 bound_to 10162
  157.2511  130.7115  149.6406 H   0  0  0  0  0  0  0  0  0  0  0  0  # atno 10718 bound_to 10713
  153.0112  135.5343  154.6726 H   0  0  0  0  0  0  0  0  0  0  0  0  # atno 10763 bound_to 10752
  154.5906  135.2858  155.0641 H   0  0  0  0  0  0  0  0  0  0  0  0  # atno 10764 bound_to 10752
  154.1735  135.6528  153.5068 H   0  0  0  0  0  0  0  0  0  0  0  0  # atno 10765 bound_to 10752
  139.9713  134.6895  156.0441 H   0  0  0  0  0  0  0  0  0  0  0  0  # atno 11005 bound_to 11000
  146.1725  139.4882  142.9918 LP  0  0  0  0  0  0  0  0  0  0  0  0  # atno 17320 bound_to 7965
  145.6536  141.0257  143.1747 LP  0  0  0  0  0  0  0  0  0  0  0  0  # atno 17321 bound_to 7965
  140.2075  143.3910  152.1744 LP  0  0  0  0  0  0  0  0  0  0  0  0  # atno 17342 bound_to 10162
  139.5321  144.7170  151.5021 LP  0  0  0  0  0  0  0  0  0  0  0  0  # atno 17343 bound_to 10162
  155.9666  130.4427  150.5393 LP  0  0  0  0  0  0  0  0  0  0  0  0  # atno 17370 bound_to 10713
  157.3277  131.0693  151.1884 LP  0  0  0  0  0  0  0  0  0  0  0  0  # atno 17371 bound_to 10713
  141.1392  133.6568  156.3682 LP  0  0  0  0  0  0  0  0  0  0  0  0  # atno 17394 bound_to 11000
  140.5287  134.6233  157.5343 LP  0  0  0  0  0  0  0  0  0  0  0  0  # atno 17395 bound_to 11000

$$$$
