AV-unprocessed.smi:249|AV-procd|sdf|1915|dock7
  -GOLD-   2262021 13D 1   1.00000     0.00000
 Structure written by MMmdl.
 64 67  0  0  0  0  0  0  0  0  2 V2000
  143.9977  132.8362  151.1530 C   0  0  0  0  0  0  0  0  0  0  0  0
  144.3074  133.8956  152.2231 C   0  0  0  0  0  0  0  0  0  0  0  0
  144.8764  133.3202  153.4763 N   0  3  1  0  0  0  0  0  0  0  0  0
  146.1791  132.6394  153.2222 C   0  0  0  0  0  0  0  0  0  0  0  0
  146.7447  131.9705  154.4849 C   0  0  0  0  0  0  0  0  0  0  0  0
  146.9426  132.9894  155.6195 C   0  0  1  0  0  0  0  0  0  0  0  0
  148.0047  133.9637  155.3190 N   0  0  0  0  0  0  0  0  0  0  0  0
  149.2292  133.4542  154.7097 C   0  0  0  0  0  0  0  0  0  0  0  0
  148.3000  134.8282  156.3151 C   0  0  0  0  0  0  0  0  0  0  0  0
  147.6464  134.6673  157.4916 N   0  0  0  0  0  0  0  0  0  0  0  0
  147.9052  135.4874  158.5148 C   0  0  0  0  0  0  0  0  0  0  0  0
  148.7614  136.5103  158.5695 N   0  0  0  0  0  0  0  0  0  0  0  0
  149.4132  136.6772  157.3826 C   0  0  0  0  0  0  0  0  0  0  0  0
  149.2445  135.8873  156.2117 C   0  0  0  0  0  0  0  0  0  0  0  0
  150.0762  136.3518  155.1999 N   0  0  0  0  0  0  0  0  0  0  0  0
  150.7039  137.3591  155.7435 C   0  0  0  0  0  0  0  0  0  0  0  0
  150.3709  137.6201  157.0534 N   0  0  0  0  0  0  0  0  0  0  0  0
  150.9132  138.6768  157.8902 C   0  0  0  0  0  0  0  0  0  0  0  0
  150.8072  140.0833  157.2484 C   0  0  2  0  0  0  0  0  0  0  0  0
  151.6872  140.1841  155.9759 C   0  0  0  0  0  0  0  0  0  0  0  0
  152.8953  139.4670  156.1171 O   0  0  0  0  0  0  0  0  0  0  0  0
  151.1548  141.1767  158.2960 C   0  0  2  0  0  0  0  0  0  0  0  0
  151.1394  142.6036  157.7534 C   0  0  0  0  0  0  0  0  0  0  0  0
  152.1713  143.3552  158.5998 C   0  0  0  0  0  0  0  0  0  0  0  0
  152.7347  142.3884  159.4754 O   0  0  0  0  0  0  0  0  0  0  0  0
  152.5624  141.1092  158.8909 C   0  0  0  0  0  0  0  0  0  0  0  0
  145.5618  133.6334  155.8705 C   0  0  0  0  0  0  0  0  0  0  0  0
  144.9691  134.3014  154.6070 C   0  0  2  0  0  0  0  0  0  0  0  0
  143.6086  134.9269  154.9800 C   0  0  0  0  0  0  0  0  0  0  0  0
  143.4552  133.2854  150.3206 H   0  0  0  0  0  0  0  0  0  0  0  0
  143.3745  132.0375  151.5567 H   0  0  0  0  0  0  0  0  0  0  0  0
  144.8985  132.3886  150.7349 H   0  0  0  0  0  0  0  0  0  0  0  0
  144.9797  134.6565  151.8241 H   0  0  0  0  0  0  0  0  0  0  0  0
  143.3636  134.3960  152.4240 H   0  0  0  0  0  0  0  0  0  0  0  0
  146.0622  131.8662  152.4649 H   0  0  0  0  0  0  0  0  0  0  0  0
  146.8957  133.3598  152.8243 H   0  0  0  0  0  0  0  0  0  0  0  0
  146.0547  131.1925  154.8148 H   0  0  0  0  0  0  0  0  0  0  0  0
  147.6754  131.4523  154.2536 H   0  0  0  0  0  0  0  0  0  0  0  0
  147.2397  132.4435  156.5157 H   0  0  0  0  0  0  0  0  0  0  0  0
  150.0466  134.1754  154.7691 H   0  0  0  0  0  0  0  0  0  0  0  0
  149.0644  133.2403  153.6539 H   0  0  0  0  0  0  0  0  0  0  0  0
  149.5522  132.5352  155.1998 H   0  0  0  0  0  0  0  0  0  0  0  0
  147.3466  135.2969  159.4195 H   0  0  0  0  0  0  0  0  0  0  0  0
  151.4347  137.9425  155.2019 H   0  0  0  0  0  0  0  0  0  0  0  0
  150.3758  138.6390  158.8375 H   0  0  0  0  0  0  0  0  0  0  0  0
  151.9544  138.4463  158.1194 H   0  0  0  0  0  0  0  0  0  0  0  0
  149.7674  140.2207  156.9466 H   0  0  0  0  0  0  0  0  0  0  0  0
  151.1457  139.8242  155.1006 H   0  0  0  0  0  0  0  0  0  0  0  0
  151.9730  141.2135  155.7647 H   0  0  0  0  0  0  0  0  0  0  0  0
  152.8526  138.9592  156.9132 H   0  0  0  0  0  0  0  0  0  0  0  0
  150.4424  141.1200  159.1209 H   0  0  0  0  0  0  0  0  0  0  0  0
  151.4427  142.6265  156.7059 H   0  0  0  0  0  0  0  0  0  0  0  0
  150.1488  143.0543  157.8231 H   0  0  0  0  0  0  0  0  0  0  0  0
  152.9528  143.7805  157.9688 H   0  0  0  0  0  0  0  0  0  0  0  0
  151.7216  144.1646  159.1751 H   0  0  0  0  0  0  0  0  0  0  0  0
  152.6699  140.3260  159.6416 H   0  0  0  0  0  0  0  0  0  0  0  0
  153.3156  140.9558  158.1160 H   0  0  0  0  0  0  0  0  0  0  0  0
  144.8743  132.8597  156.2160 H   0  0  0  0  0  0  0  0  0  0  0  0
  145.6128  134.3501  156.6908 H   0  0  0  0  0  0  0  0  0  0  0  0
  145.6342  135.1085  154.2964 H   0  0  0  0  0  0  0  0  0  0  0  0
  143.6855  135.5014  155.9037 H   0  0  0  0  0  0  0  0  0  0  0  0
  142.8468  134.1618  155.1334 H   0  0  0  0  0  0  0  0  0  0  0  0
  143.2472  135.6249  154.2260 H   0  0  0  0  0  0  0  0  0  0  0  0
  144.2316  132.6053  153.7814 H   0  0  0  0  0  0  0  0  0  0  0  0
  1  2  1  0  0  0  0
  1 30  1  0  0  0  0
  1 31  1  0  0  0  0
  1 32  1  0  0  0  0
  2  3  1  0  0  0  0
  2 33  1  0  0  0  0
  2 34  1  0  0  0  0
  3 28  1  0  0  0  0
  3  4  1  0  0  0  0
  3 64  1  0  0  0  0
  4  5  1  0  0  0  0
  4 35  1  0  0  0  0
  4 36  1  0  0  0  0
  5  6  1  0  0  0  0
  5 37  1  0  0  0  0
  5 38  1  0  0  0  0
  6  7  1  0  0  0  0
  6 27  1  0  0  0  0
  6 39  1  0  0  0  0
  7  8  1  0  0  0  0
  7  9  1  0  0  0  0
  8 40  1  0  0  0  0
  8 41  1  0  0  0  0
  8 42  1  0  0  0  0
  9 14  1  0  0  0  0
  9 10  2  0  0  0  0
 10 11  1  0  0  0  0
 11 12  2  0  0  0  0
 11 43  1  0  0  0  0
 12 13  1  0  0  0  0
 13 17  1  0  0  0  0
 13 14  2  0  0  0  0
 14 15  1  0  0  0  0
 15 16  2  0  0  0  0
 16 17  1  0  0  0  0
 16 44  1  0  0  0  0
 17 18  1  0  0  0  0
 18 19  1  0  0  0  0
 18 45  1  0  0  0  0
 18 46  1  0  0  0  0
 19 20  1  0  0  0  0
 19 22  1  0  0  0  0
 19 47  1  0  0  0  0
 20 21  1  0  0  0  0
 20 48  1  0  0  0  0
 20 49  1  0  0  0  0
 21 50  1  0  0  0  0
 22 26  1  0  0  0  0
 22 23  1  0  0  0  0
 22 51  1  0  0  0  0
 23 24  1  0  0  0  0
 23 52  1  0  0  0  0
 23 53  1  0  0  0  0
 24 25  1  0  0  0  0
 24 54  1  0  0  0  0
 24 55  1  0  0  0  0
 25 26  1  0  0  0  0
 26 56  1  0  0  0  0
 26 57  1  0  0  0  0
 27 28  1  0  0  0  0
 27 58  1  0  0  0  0
 27 59  1  0  0  0  0
 28 29  1  0  0  0  0
 28 60  1  0  0  0  0
 29 61  1  0  0  0  0
 29 62  1  0  0  0  0
 29 63  1  0  0  0  0
M  CHG  1   3   1
M  END
> <s_m_source_file>
AV-unprocessed.smi

> <i_m_source_file_index>
249

> <i_lp_mmshare_version>
43012

> <i_f3d_flags>
0

> <s_epik_input>
W0NIM11bQ0gyXU4xW0NIMl1bQ0gyXVtDQEhdKFtDSDJdW0NASF0xW0NIM10pTihbQ0gzXSljKG5bY0hdbjIpYyhjMjMpbltjSF1uM1tDSDJdW0NASF0oW0NIMl1bT0hdKVtDQEBIXTRbQ0gyXVtDSDJdT1tDSDJdNA==

> <s_epik_cmdline>
J2VwaWtfcHl0aG9uJywgJy1waCcsICc3LjAnLCAnLXRuJywgJzgnLCAnLW1hJywgJzIwMCcsICctbWV0YWxfYmluZGluZycsICctaW1hZScsICc8aW5maWxlLm1hZT4nLCAnLW9tYWUnLCAnPG91dGZpbGUubWFlPic=

> <r_lp_tautomer_probability>
1

> <r_epik_Ionization_Penalty>
0.00294688

> <r_epik_Ionization_Penalty_Charging>
0.00169971

> <r_epik_Ionization_Penalty_Neutral>
0.00124717

> <r_epik_State_Penalty>
-0

> <r_epik_Charging_Adjusted_Penalty>
0.00169971

> <i_epik_Tot_Q>
1

> <i_epik_Tot_abs_Q>
1

> <r_epik_Metal_State_Penalty>
-0

> <b_epik_Metal_Only>
0

> <s_lp_Force_Field>
OPLS_2005

> <r_lp_Energy>
57.0606

> <b_lp_Chiralities_Consistent>
1

> <s_lp_Variant>
AV-unprocessed.smi:249-18

> <Gold.Version>
5.8.1

> <Gold.Id.Protein>
6NUR|6NUR_protein|mol2

> <Gold.PLP.Fitness>
40.4019

> <Gold.PLP.PLP>
-32.2222

> <Gold.PLP.part.hbond>
-2.0000

> <Gold.PLP.part.metal>
0.0000

> <Gold.PLP.part.buried>
-7.1495

> <Gold.PLP.part.nonpolar>
-23.5075

> <Gold.PLP.part.repulsive>
0.1954

> <Gold.PLP.ligand.clash>
0.0000

> <Gold.PLP.ligand.torsion>
0.7081

> <Gold.PLP.Chemscore.Hbond>
3.0000

> <Gold.PLP.Chemscore.CHOScore>
0.0000

> <Gold.PLP.Chemscore.Metal>
0.0000

> <Gold.Chemscore.Hbonds>
donor molecule, donor type, donor heavy atom, donor atom, acceptor molecule, acceptor atom, score
      L1  H     3    64       P1 10957  2.00
      P1  H  7997  8008       L1    21  1.00

> <Gold.PLP.Chemscore.Internal.Correction>
0.5960

> <Gold.Rescore>
     Score         DG    S(hbond)    S(metal)    S(lipo)     H(rot)  DE(clash)    DE(int)     intcor
     11.78     -13.67       1.91        0.00      79.01       2.90       0.00       1.89       ----

> <Gold.Chemscore.Fitness>
11.7785

> <Gold.Chemscore.DG>
-13.6705

> <Gold.Chemscore.ZeroCoef>
-5.4800

> <Gold.Chemscore.Hbond>
1.9077

> <Gold.Chemscore.Metal>
0.0000

> <Gold.Chemscore.Lipo>
79.0119

> <Gold.Chemscore.Internal_Hbond>
0.0000

> <Gold.Chemscore.DEClash>
0.0000

> <Gold.Chemscore.DEInternal>
1.8920

> <Gold.Chemscore.Rot>
2.9006

> <Gold.Chemscore.Internal.Correction>
   9.000000E+99

> <Gold.Chemscore.Hbonds>
donor molecule, donor type, donor heavy atom, donor atom, acceptor molecule, acceptor atom, score
      L1  H     3    64       P1 10957  0.51
      P1  H  7997  8008       L1    21  0.59

> <Gold.Chemscore.Hbond.Weighted>
-6.3717

> <Gold.Chemscore.Metal.Weighted>
-0.0000

> <Gold.Chemscore.Lipo.Weighted>
-9.2444

> <Gold.Chemscore.Internal_Hbond.Weighted>
0.0000

> <Gold.Chemscore.DEClash.Weighted>
0.0000

> <Gold.Chemscore.DEInternal.Weighted>
1.8920

> <Gold.Chemscore.Rot.Weighted>
7.4256

> <Gold.Chemscore.Internal.Correction.Weighted>
   9.000000E+99

> <Gold.Protein.RotatedTorsions>
[ 6907 6896 6895 6894 ] final  -85.79 input  -60.11 | X-H torsion
[ 7974 7965 7964 7962 ] final  -93.20 input  175.53 | X-H torsion
[ 8008 7997 7996 7995 ] final  -26.06 input   59.86 | X-H torsion
[ 10167 10162 10161 10158 ] final   -4.82 input  -65.29 | X-H torsion
[ 10718 10713 10712 10709 ] final  -83.72 input   66.30 | X-H torsion
[ 10763 10752 10751 10750 ] final -128.53 input  -60.55 | X-H torsion
[ 11005 11000 10999 10996 ] final -105.76 input  -57.11 | X-H torsion

> <Gold.Protein.ActiveResidues>
 VAL166  LYS551  ARG553  GLY616  TRP617  ASP618  TYR619  PRO620  LYS621  CYS622 
 ASP623  PHE694  ASN695  SER759  ASP760  ASP761  ALA762  ILE779  LEU786  VAL792 
 PHE793  MET794  SER795  GLU796  ALA797  LYS798  CYS799  TRP800  GLU811  SER814 

> <Gold.Protein.RotatedAtoms>
  150.6869  134.3150  159.4762 H   0  0  0  0  0  0  0  0  0  0  0  0  # atno 6907 bound_to 6896
  152.1032  134.9324  160.0578 H   0  0  0  0  0  0  0  0  0  0  0  0  # atno 6908 bound_to 6896
  152.0596  133.4021  159.4449 H   0  0  0  0  0  0  0  0  0  0  0  0  # atno 6909 bound_to 6896
  145.3897  140.9527  143.2347 H   0  0  0  0  0  0  0  0  0  0  0  0  # atno 7974 bound_to 7965
  154.4444  140.1909  156.0717 H   0  0  0  0  0  0  0  0  0  0  0  0  # atno 8008 bound_to 7997
  156.0506  140.3309  155.7320 H   0  0  0  0  0  0  0  0  0  0  0  0  # atno 8009 bound_to 7997
  155.5562  140.0599  157.2830 H   0  0  0  0  0  0  0  0  0  0  0  0  # atno 8010 bound_to 7997
  140.6941  143.6379  150.8462 H   0  0  0  0  0  0  0  0  0  0  0  0  # atno 10167 bound_to 10162
  156.0015  130.4675  150.4301 H   0  0  0  0  0  0  0  0  0  0  0  0  # atno 10718 bound_to 10713
  154.8756  135.3925  154.3772 H   0  0  0  0  0  0  0  0  0  0  0  0  # atno 10763 bound_to 10752
  153.4524  135.7028  153.6106 H   0  0  0  0  0  0  0  0  0  0  0  0  # atno 10764 bound_to 10752
  153.4640  135.3805  155.2323 H   0  0  0  0  0  0  0  0  0  0  0  0  # atno 10765 bound_to 10752
  141.1037  133.8836  157.1774 H   0  0  0  0  0  0  0  0  0  0  0  0  # atno 11005 bound_to 11000
  144.8449  139.5413  143.6883 LP  0  0  0  0  0  0  0  0  0  0  0  0  # atno 17320 bound_to 7965
  146.2803  139.6860  142.9233 LP  0  0  0  0  0  0  0  0  0  0  0  0  # atno 17321 bound_to 7965
  140.0095  143.5658  152.2844 LP  0  0  0  0  0  0  0  0  0  0  0  0  # atno 17342 bound_to 10162
  139.6376  144.7651  151.2405 LP  0  0  0  0  0  0  0  0  0  0  0  0  # atno 17343 bound_to 10162
  157.2350  131.0513  151.2470 LP  0  0  0  0  0  0  0  0  0  0  0  0  # atno 17370 bound_to 10713
  157.3675  130.7163  149.6542 LP  0  0  0  0  0  0  0  0  0  0  0  0  # atno 17371 bound_to 10713
  139.9899  135.0068  156.9950 LP  0  0  0  0  0  0  0  0  0  0  0  0  # atno 17394 bound_to 11000
  140.4956  134.1149  155.7240 LP  0  0  0  0  0  0  0  0  0  0  0  0  # atno 17395 bound_to 11000

$$$$
