AV-unprocessed.smi:3061|AV-procd|sdf|11679|dock6
  -GOLD-   2272017 83D 1   1.00000     0.00000
 Structure written by MMmdl.
 35 36  0  0  0  0  0  0  0  0  1 V2000
  149.1529  140.2010  157.3688 C   0  0  0  0  0  0  0  0  0  0  0  0
  149.6355  141.5640  156.8496 C   0  0  2  0  0  0  0  0  0  0  0  0
  149.8162  141.5545  155.3194 C   0  0  0  0  0  0  0  0  0  0  0  0
  148.5683  141.3120  154.6179 N   0  0  0  0  0  0  0  0  0  0  0  0
  147.4883  142.0820  154.4757 C   0  0  0  0  0  0  0  0  0  0  0  0
  146.5191  141.5190  153.7679 N   0  0  0  0  0  0  0  0  0  0  0  0
  147.1117  140.3212  153.4824 C   0  0  0  0  0  0  0  0  0  0  0  0
  148.3402  140.1462  153.9696 N   0  0  0  0  0  0  0  0  0  0  0  0
  150.8943  141.9255  157.4983 N   0  0  0  0  0  0  0  0  0  0  0  0
  151.0188  142.7243  158.5689 C   0  0  0  0  0  0  0  0  0  0  0  0
  150.0593  143.2322  159.1501 O   0  0  0  0  0  0  0  0  0  0  0  0
  152.4511  142.9949  159.0547 C   0  0  2  0  0  0  0  0  0  0  0  0
  153.2365  141.6837  159.2619 C   0  0  0  0  0  0  0  0  0  0  0  0
  153.4725  141.6271  160.7620 C   0  0  0  0  0  0  0  0  0  0  0  0
  154.0079  140.6696  161.3187 O   0  0  0  0  0  0  0  0  0  0  0  0
  153.0199  142.7327  161.3594 N   0  0  0  0  0  0  0  0  0  0  0  0
  153.0811  143.0147  162.7871 C   0  0  0  0  0  0  0  0  0  0  0  0
  152.4818  143.7068  160.4253 C   0  0  0  0  0  0  0  0  0  0  0  0
  148.2064  139.9192  156.9067 H   0  0  0  0  0  0  0  0  0  0  0  0
  148.9963  140.2221  158.4480 H   0  0  0  0  0  0  0  0  0  0  0  0
  149.8761  139.4141  157.1521 H   0  0  0  0  0  0  0  0  0  0  0  0
  148.8742  142.3073  157.0948 H   0  0  0  0  0  0  0  0  0  0  0  0
  150.2328  142.5020  154.9747 H   0  0  0  0  0  0  0  0  0  0  0  0
  150.5255  140.7784  155.0280 H   0  0  0  0  0  0  0  0  0  0  0  0
  147.4072  143.0705  154.9037 H   0  0  0  0  0  0  0  0  0  0  0  0
  146.6227  139.5552  152.8989 H   0  0  0  0  0  0  0  0  0  0  0  0
  151.7383  141.5494  157.0915 H   0  0  0  0  0  0  0  0  0  0  0  0
  152.9648  143.6144  158.3173 H   0  0  0  0  0  0  0  0  0  0  0  0
  152.7010  140.7931  158.9286 H   0  0  0  0  0  0  0  0  0  0  0  0
  154.1951  141.7133  158.7432 H   0  0  0  0  0  0  0  0  0  0  0  0
  154.1173  143.1173  163.1111 H   0  0  0  0  0  0  0  0  0  0  0  0
  152.6198  142.2085  163.3589 H   0  0  0  0  0  0  0  0  0  0  0  0
  152.5574  143.9405  163.0271 H   0  0  0  0  0  0  0  0  0  0  0  0
  153.1364  144.5788  160.3945 H   0  0  0  0  0  0  0  0  0  0  0  0
  151.4976  144.0467  160.7534 H   0  0  0  0  0  0  0  0  0  0  0  0
  1  2  1  0  0  0  0
  1 19  1  0  0  0  0
  1 20  1  0  0  0  0
  1 21  1  0  0  0  0
  2  3  1  0  0  0  0
  2  9  1  0  0  0  0
  2 22  1  0  0  0  0
  3  4  1  0  0  0  0
  3 23  1  0  0  0  0
  3 24  1  0  0  0  0
  4  8  1  0  0  0  0
  4  5  1  0  0  0  0
  5  6  2  0  0  0  0
  5 25  1  0  0  0  0
  6  7  1  0  0  0  0
  7  8  2  0  0  0  0
  7 26  1  0  0  0  0
  9 10  1  0  0  0  0
  9 27  1  0  0  0  0
 10 11  2  0  0  0  0
 10 12  1  0  0  0  0
 12 18  1  0  0  0  0
 12 13  1  0  0  0  0
 12 28  1  0  0  0  0
 13 14  1  0  0  0  0
 13 29  1  0  0  0  0
 13 30  1  0  0  0  0
 14 15  2  0  0  0  0
 14 16  1  0  0  0  0
 16 17  1  0  0  0  0
 16 18  1  0  0  0  0
 17 31  1  0  0  0  0
 17 32  1  0  0  0  0
 17 33  1  0  0  0  0
 18 34  1  0  0  0  0
 18 35  1  0  0  0  0
M  END
> <s_m_source_file>
AV-unprocessed.smi

> <i_m_source_file_index>
3061

> <i_lp_mmshare_version>
43012

> <i_f3d_flags>
0

> <s_epik_input>
bjFbY0hdbltjSF1uMVtDSDJdW0NAQEhdKFtDSDNdKVtOSF1DKD1PKVtDQEBIXTJbQ0gyXUMoPU8pTihbQ0gzXSlbQ0gyXTI=

> <s_epik_cmdline>
J2VwaWtfcHl0aG9uJywgJy1waCcsICc3LjAnLCAnLXRuJywgJzgnLCAnLW1hJywgJzIwMCcsICctbWV0YWxfYmluZGluZycsICctaW1hZScsICc8aW5maWxlLm1hZT4nLCAnLW9tYWUnLCAnPG91dGZpbGUubWFlPic=

> <r_lp_tautomer_probability>
1

> <r_epik_Ionization_Penalty>
4.97611e-05

> <r_epik_Ionization_Penalty_Charging>
0

> <r_epik_Ionization_Penalty_Neutral>
4.97611e-05

> <r_epik_State_Penalty>
-0

> <r_epik_Charging_Adjusted_Penalty>
0

> <i_epik_Tot_Q>
0

> <i_epik_Tot_abs_Q>
0

> <r_epik_Metal_State_Penalty>
-0

> <b_epik_Metal_Only>
0

> <s_lp_Force_Field>
OPLS_2005

> <r_lp_Energy>
14.0738

> <b_lp_Chiralities_Consistent>
1

> <s_lp_Variant>
AV-unprocessed.smi:3061-1

> <Gold.Version>
5.8.1

> <Gold.Id.Protein>
6NUR|6NUR_protein|mol2

> <Gold.PLP.Fitness>
42.1913

> <Gold.PLP.PLP>
-40.3241

> <Gold.PLP.part.hbond>
-0.7385

> <Gold.PLP.part.metal>
0.0000

> <Gold.PLP.part.buried>
-6.8464

> <Gold.PLP.part.nonpolar>
-33.8146

> <Gold.PLP.part.repulsive>
1.0321

> <Gold.PLP.ligand.clash>
0.0000

> <Gold.PLP.ligand.torsion>
0.5766

> <Gold.PLP.Chemscore.Hbond>
0.0000

> <Gold.PLP.Chemscore.CHOScore>
1.0000

> <Gold.PLP.Chemscore.Metal>
0.0000

> <Gold.Chemscore.Hbonds>
donor molecule, donor type, donor heavy atom, donor atom, acceptor molecule, acceptor atom, score
      L1  C     5    25       P1  8028  1.00

> <Gold.PLP.Chemscore.Internal.Correction>
0.0204

> <Gold.Rescore>
     Score         DG    S(hbond)    S(metal)    S(lipo)     H(rot)  DE(clash)    DE(int)     intcor
      6.06      -6.45       0.00        0.00      61.24       2.42       0.01       0.37       ----

> <Gold.Chemscore.Fitness>
6.0649

> <Gold.Chemscore.DG>
-6.4503

> <Gold.Chemscore.ZeroCoef>
-5.4800

> <Gold.Chemscore.Hbond>
0.0000

> <Gold.Chemscore.Metal>
0.0000

> <Gold.Chemscore.Lipo>
61.2375

> <Gold.Chemscore.Internal_Hbond>
0.0000

> <Gold.Chemscore.DEClash>
0.0121

> <Gold.Chemscore.DEInternal>
0.3733

> <Gold.Chemscore.Rot>
2.4197

> <Gold.Chemscore.Internal.Correction>
   9.000000E+99

> <Gold.Chemscore.Hbond.Weighted>
-0.0000

> <Gold.Chemscore.Metal.Weighted>
-0.0000

> <Gold.Chemscore.Lipo.Weighted>
-7.1648

> <Gold.Chemscore.Internal_Hbond.Weighted>
0.0000

> <Gold.Chemscore.DEClash.Weighted>
0.0121

> <Gold.Chemscore.DEInternal.Weighted>
0.3733

> <Gold.Chemscore.Rot.Weighted>
6.1945

> <Gold.Chemscore.Internal.Correction.Weighted>
   9.000000E+99

> <Gold.Protein.RotatedTorsions>
[ 6907 6896 6895 6894 ] final   69.61 input  -60.11 | X-H torsion
[ 7974 7965 7964 7962 ] final  -85.48 input  175.53 | X-H torsion
[ 8008 7997 7996 7995 ] final    3.58 input   59.86 | X-H torsion
[ 10167 10162 10161 10158 ] final   26.40 input  -65.29 | X-H torsion
[ 10718 10713 10712 10709 ] final -133.84 input   66.30 | X-H torsion
[ 10763 10752 10751 10750 ] final  143.38 input  -60.55 | X-H torsion
[ 11005 11000 10999 10996 ] final  161.25 input  -57.11 | X-H torsion

> <Gold.Protein.ActiveResidues>
 VAL166  LYS551  ARG553  GLY616  TRP617  ASP618  TYR619  PRO620  LYS621  CYS622 
 ASP623  PHE694  ASN695  SER759  ASP760  ASP761  ALA762  ILE779  LEU786  VAL792 
 PHE793  MET794  SER795  GLU796  ALA797  LYS798  CYS799  TRP800  GLU811  SER814 

> <Gold.Protein.RotatedAtoms>
  152.4697  134.4990  159.9718 H   0  0  0  0  0  0  0  0  0  0  0  0  # atno 6907 bound_to 6896
  151.5020  133.3496  159.2878 H   0  0  0  0  0  0  0  0  0  0  0  0  # atno 6908 bound_to 6896
  150.8700  134.8100  159.7209 H   0  0  0  0  0  0  0  0  0  0  0  0  # atno 6909 bound_to 6896
  145.4927  140.9552  143.1803 H   0  0  0  0  0  0  0  0  0  0  0  0  # atno 7974 bound_to 7965
  154.7054  140.2681  155.6680 H   0  0  0  0  0  0  0  0  0  0  0  0  # atno 8008 bound_to 7997
  156.2778  140.2764  156.1602 H   0  0  0  0  0  0  0  0  0  0  0  0  # atno 8009 bound_to 7997
  155.0708  140.0372  157.2598 H   0  0  0  0  0  0  0  0  0  0  0  0  # atno 8010 bound_to 7997
  140.5026  144.0291  150.6339 H   0  0  0  0  0  0  0  0  0  0  0  0  # atno 10167 bound_to 10162
  156.2492  130.7142  151.1035 H   0  0  0  0  0  0  0  0  0  0  0  0  # atno 10718 bound_to 10713
  153.9714  135.2950  155.3427 H   0  0  0  0  0  0  0  0  0  0  0  0  # atno 10763 bound_to 10752
  154.7320  135.5063  153.8983 H   0  0  0  0  0  0  0  0  0  0  0  0  # atno 10764 bound_to 10752
  153.0898  135.6704  153.9989 H   0  0  0  0  0  0  0  0  0  0  0  0  # atno 10765 bound_to 10752
  140.2139  134.8247  157.3150 H   0  0  0  0  0  0  0  0  0  0  0  0  # atno 11005 bound_to 11000
  144.7825  139.6496  143.7148 LP  0  0  0  0  0  0  0  0  0  0  0  0  # atno 17320 bound_to 7965
  146.2274  139.5749  142.9578 LP  0  0  0  0  0  0  0  0  0  0  0  0  # atno 17321 bound_to 7965
  140.3591  143.2918  152.0403 LP  0  0  0  0  0  0  0  0  0  0  0  0  # atno 17342 bound_to 10162
  139.4876  144.6316  151.7058 LP  0  0  0  0  0  0  0  0  0  0  0  0  # atno 17343 bound_to 10162
  157.7207  131.0683  150.6146 LP  0  0  0  0  0  0  0  0  0  0  0  0  # atno 17370 bound_to 10713
  156.6224  130.4409  149.5817 LP  0  0  0  0  0  0  0  0  0  0  0  0  # atno 17371 bound_to 10713
  140.1921  134.4359  155.7710 LP  0  0  0  0  0  0  0  0  0  0  0  0  # atno 17394 bound_to 11000
  141.2225  133.7032  156.8044 LP  0  0  0  0  0  0  0  0  0  0  0  0  # atno 17395 bound_to 11000

$$$$
