AV-unprocessed.smi:1235|AV-procd|sdf|5175|dock9
  -GOLD-   22720 4253D 1   1.00000     0.00000
 Structure written by MMmdl.
 50 51  0  0  0  0  0  0  0  0  2 V2000
  144.1971  134.3902  162.9893 C   0  0  0  0  0  0  0  0  0  0  0  0
  145.1813  133.3946  163.2083 O   0  0  0  0  0  0  0  0  0  0  0  0
  146.1304  133.3294  162.1575 C   0  0  0  0  0  0  0  0  0  0  0  0
  146.9948  134.5988  162.1887 C   0  0  0  0  0  0  0  0  0  0  0  0
  147.4431  134.9785  160.8452 N   0  0  0  0  0  0  0  0  0  0  0  0
  147.0584  134.0942  159.8512 N   0  0  0  0  0  0  0  0  0  0  0  0
  147.3921  134.3141  158.6205 C   0  0  0  0  0  0  0  0  0  0  0  0
  146.9946  133.3890  157.5227 C   0  0  0  0  0  0  0  0  0  0  0  0
  146.6781  132.2180  157.7391 O   0  0  0  0  0  0  0  0  0  0  0  0
  147.0084  133.9203  156.2867 N   0  0  0  0  0  0  0  0  0  0  0  0
  146.6534  133.2084  155.0647 C   0  0  0  0  0  0  0  0  0  0  0  0
  145.5115  133.9201  154.3101 C   0  0  0  0  0  0  0  0  0  0  0  0
  144.9044  133.0716  153.2447 N   0  3  2  0  0  0  0  0  0  0  0  0
  145.9258  132.1845  152.6143 C   0  0  0  0  0  0  0  0  0  0  0  0
  145.3026  131.2077  151.6084 C   0  0  0  0  0  0  0  0  0  0  0  0
  144.5503  131.9723  150.5203 C   0  0  0  0  0  0  0  0  0  0  0  0
  143.5038  132.8783  151.1729 C   0  0  0  0  0  0  0  0  0  0  0  0
  144.1257  133.8364  152.2143 C   0  0  1  0  0  0  0  0  0  0  0  0
  142.9937  134.6957  152.8173 C   0  0  0  0  0  0  0  0  0  0  0  0
  148.1740  135.4843  158.2589 C   0  0  0  0  0  0  0  0  0  0  0  0
  148.5472  136.3345  159.2405 C   0  0  0  0  0  0  0  0  0  0  0  0
  148.1853  136.1083  160.6408 C   0  0  0  0  0  0  0  0  0  0  0  0
  148.5202  136.8633  161.5530 O   0  0  0  0  0  0  0  0  0  0  0  0
  143.5003  134.4069  163.8275 H   0  0  0  0  0  0  0  0  0  0  0  0
  143.6267  134.1882  162.0815 H   0  0  0  0  0  0  0  0  0  0  0  0
  144.6479  135.3802  162.9069 H   0  0  0  0  0  0  0  0  0  0  0  0
  146.7541  132.4416  162.2742 H   0  0  0  0  0  0  0  0  0  0  0  0
  145.6168  133.2482  161.1980 H   0  0  0  0  0  0  0  0  0  0  0  0
  146.4224  135.4153  162.6327 H   0  0  0  0  0  0  0  0  0  0  0  0
  147.8507  134.4526  162.8501 H   0  0  0  0  0  0  0  0  0  0  0  0
  147.2764  134.8899  156.1926 H   0  0  0  0  0  0  0  0  0  0  0  0
  147.5486  133.1014  154.4528 H   0  0  0  0  0  0  0  0  0  0  0  0
  146.3433  132.1999  155.3395 H   0  0  0  0  0  0  0  0  0  0  0  0
  144.7771  134.1915  155.0637 H   0  0  0  0  0  0  0  0  0  0  0  0
  145.8541  134.8591  153.8729 H   0  0  0  0  0  0  0  0  0  0  0  0
  146.6805  132.7963  152.1170 H   0  0  0  0  0  0  0  0  0  0  0  0
  146.4495  131.5992  153.3674 H   0  0  0  0  0  0  0  0  0  0  0  0
  146.0797  130.5893  151.1581 H   0  0  0  0  0  0  0  0  0  0  0  0
  144.6232  130.5274  152.1240 H   0  0  0  0  0  0  0  0  0  0  0  0
  145.2480  132.5699  149.9320 H   0  0  0  0  0  0  0  0  0  0  0  0
  144.0717  131.2763  149.8305 H   0  0  0  0  0  0  0  0  0  0  0  0
  142.9939  133.4495  150.3962 H   0  0  0  0  0  0  0  0  0  0  0  0
  142.7402  132.2613  151.6495 H   0  0  0  0  0  0  0  0  0  0  0  0
  144.8181  134.5017  151.6958 H   0  0  0  0  0  0  0  0  0  0  0  0
  142.3397  135.0814  152.0343 H   0  0  0  0  0  0  0  0  0  0  0  0
  143.3670  135.5709  153.3476 H   0  0  0  0  0  0  0  0  0  0  0  0
  142.3747  134.1161  153.5028 H   0  0  0  0  0  0  0  0  0  0  0  0
  148.4558  135.6762  157.2337 H   0  0  0  0  0  0  0  0  0  0  0  0
  149.1299  137.2077  158.9865 H   0  0  0  0  0  0  0  0  0  0  0  0
  144.2372  132.4691  153.7047 H   0  0  0  0  0  0  0  0  0  0  0  0
  1  2  1  0  0  0  0
  1 24  1  0  0  0  0
  1 25  1  0  0  0  0
  1 26  1  0  0  0  0
  2  3  1  0  0  0  0
  3  4  1  0  0  0  0
  3 27  1  0  0  0  0
  3 28  1  0  0  0  0
  4  5  1  0  0  0  0
  4 29  1  0  0  0  0
  4 30  1  0  0  0  0
  5 22  1  0  0  0  0
  5  6  1  0  0  0  0
  6  7  2  0  0  0  0
  7  8  1  0  0  0  0
  7 20  1  0  0  0  0
  8  9  2  0  0  0  0
  8 10  1  0  0  0  0
 10 11  1  0  0  0  0
 10 31  1  0  0  0  0
 11 12  1  0  0  0  0
 11 32  1  0  0  0  0
 11 33  1  0  0  0  0
 12 13  1  0  0  0  0
 12 34  1  0  0  0  0
 12 35  1  0  0  0  0
 13 18  1  0  0  0  0
 13 14  1  0  0  0  0
 13 50  1  0  0  0  0
 14 15  1  0  0  0  0
 14 36  1  0  0  0  0
 14 37  1  0  0  0  0
 15 16  1  0  0  0  0
 15 38  1  0  0  0  0
 15 39  1  0  0  0  0
 16 17  1  0  0  0  0
 16 40  1  0  0  0  0
 16 41  1  0  0  0  0
 17 18  1  0  0  0  0
 17 42  1  0  0  0  0
 17 43  1  0  0  0  0
 18 19  1  0  0  0  0
 18 44  1  0  0  0  0
 19 45  1  0  0  0  0
 19 46  1  0  0  0  0
 19 47  1  0  0  0  0
 20 21  2  0  0  0  0
 20 48  1  0  0  0  0
 21 22  1  0  0  0  0
 21 49  1  0  0  0  0
 22 23  2  0  0  0  0
M  CHG  1  13   1
M  END
> <s_m_source_file>
AV-unprocessed.smi

> <i_m_source_file_index>
1235

> <i_lp_mmshare_version>
43012

> <i_f3d_flags>
0

> <s_epik_input>
W0NIM11PW0NIMl1bQ0gyXW4xbmMoW2NIXVtjSF1jMT1PKUMoPU8pW05IXVtDSDJdW0NIMl1OMltDSDJdW0NIMl1bQ0gyXVtDSDJdW0NASF0yW0NIM10=

> <s_epik_cmdline>
J2VwaWtfcHl0aG9uJywgJy1waCcsICc3LjAnLCAnLXRuJywgJzgnLCAnLW1hJywgJzIwMCcsICctbWV0YWxfYmluZGluZycsICctaW1hZScsICc8aW5maWxlLm1hZT4nLCAnLW9tYWUnLCAnPG91dGZpbGUubWFlPic=

> <r_lp_tautomer_probability>
1

> <r_epik_Ionization_Penalty>
0.00271975

> <r_epik_Ionization_Penalty_Charging>
0.00271407

> <r_epik_Ionization_Penalty_Neutral>
5.6803e-06

> <r_epik_State_Penalty>
0.00189271

> <r_epik_Charging_Adjusted_Penalty>
0.00460678

> <i_epik_Tot_Q>
1

> <i_epik_Tot_abs_Q>
1

> <r_epik_Metal_State_Penalty>
-0

> <b_epik_Metal_Only>
0

> <s_lp_Force_Field>
OPLS_2005

> <r_lp_Energy>
40.0899

> <b_lp_Chiralities_Consistent>
1

> <s_lp_Variant>
AV-unprocessed.smi:1235-1

> <Gold.Version>
5.8.1

> <Gold.Id.Protein>
6NUR|6NUR_protein|mol2

> <Gold.PLP.Fitness>
43.4612

> <Gold.PLP.PLP>
-35.9326

> <Gold.PLP.part.hbond>
-3.0537

> <Gold.PLP.part.metal>
0.0000

> <Gold.PLP.part.buried>
-6.8627

> <Gold.PLP.part.nonpolar>
-26.4481

> <Gold.PLP.part.repulsive>
0.0920

> <Gold.PLP.ligand.clash>
0.0000

> <Gold.PLP.ligand.torsion>
0.6999

> <Gold.PLP.Chemscore.Hbond>
2.9425

> <Gold.PLP.Chemscore.CHOScore>
0.0000

> <Gold.PLP.Chemscore.Metal>
0.0000

> <Gold.Chemscore.Hbonds>
donor molecule, donor type, donor heavy atom, donor atom, acceptor molecule, acceptor atom, score
      L1  H    13    50       P1 10957  2.00
      P1  H  6931  6943       L1    23  0.96

> <Gold.PLP.Chemscore.Internal.Correction>
0.1009

> <Gold.Rescore>
     Score         DG    S(hbond)    S(metal)    S(lipo)     H(rot)  DE(clash)    DE(int)     intcor
     14.26     -15.08       1.96        0.00      70.06       2.00       0.01       0.82       ----

> <Gold.Chemscore.Fitness>
14.2571

> <Gold.Chemscore.DG>
-15.0843

> <Gold.Chemscore.ZeroCoef>
-5.4800

> <Gold.Chemscore.Hbond>
1.9558

> <Gold.Chemscore.Metal>
0.0000

> <Gold.Chemscore.Lipo>
70.0598

> <Gold.Chemscore.Internal_Hbond>
0.0000

> <Gold.Chemscore.DEClash>
0.0060

> <Gold.Chemscore.DEInternal>
0.8212

> <Gold.Chemscore.Rot>
2.0020

> <Gold.Chemscore.Internal.Correction>
   9.000000E+99

> <Gold.Chemscore.Hbonds>
donor molecule, donor type, donor heavy atom, donor atom, acceptor molecule, acceptor atom, score
      L1  H    13    50       P1 10957  0.33
      P1  H  6931  6943       L1    23  0.91

> <Gold.Chemscore.Hbond.Weighted>
-6.5325

> <Gold.Chemscore.Metal.Weighted>
-0.0000

> <Gold.Chemscore.Lipo.Weighted>
-8.1970

> <Gold.Chemscore.Internal_Hbond.Weighted>
0.0000

> <Gold.Chemscore.DEClash.Weighted>
0.0060

> <Gold.Chemscore.DEInternal.Weighted>
0.8212

> <Gold.Chemscore.Rot.Weighted>
5.1252

> <Gold.Chemscore.Internal.Correction.Weighted>
   9.000000E+99

> <Gold.Protein.RotatedTorsions>
[ 6907 6896 6895 6894 ] final  -58.70 input  -60.11 | X-H torsion
[ 7974 7965 7964 7962 ] final   82.00 input  175.53 | X-H torsion
[ 8008 7997 7996 7995 ] final  159.86 input   59.86 | X-H torsion
[ 10167 10162 10161 10158 ] final   -7.15 input  -65.29 | X-H torsion
[ 10718 10713 10712 10709 ] final -112.85 input   66.30 | X-H torsion
[ 10763 10752 10751 10750 ] final  -56.88 input  -60.55 | X-H torsion
[ 11005 11000 10999 10996 ] final  -39.11 input  -57.11 | X-H torsion

> <Gold.Protein.ActiveResidues>
 VAL166  LYS551  ARG553  GLY616  TRP617  ASP618  TYR619  PRO620  LYS621  CYS622 
 ASP623  PHE694  ASN695  SER759  ASP760  ASP761  ALA762  ILE779  LEU786  VAL792 
 PHE793  MET794  SER795  GLU796  ALA797  LYS798  CYS799  TRP800  GLU811  SER814 

> <Gold.Protein.RotatedAtoms>
  150.7986  134.7064  159.6578 H   0  0  0  0  0  0  0  0  0  0  0  0  # atno 6907 bound_to 6896
  152.4101  134.6136  160.0042 H   0  0  0  0  0  0  0  0  0  0  0  0  # atno 6908 bound_to 6896
  151.6381  133.3290  159.3160 H   0  0  0  0  0  0  0  0  0  0  0  0  # atno 6909 bound_to 6896
  145.6307  139.2404  143.2086 H   0  0  0  0  0  0  0  0  0  0  0  0  # atno 7974 bound_to 7965
  156.2211  140.1820  156.7475 H   0  0  0  0  0  0  0  0  0  0  0  0  # atno 8008 bound_to 7997
  154.5867  140.0657  156.9209 H   0  0  0  0  0  0  0  0  0  0  0  0  # atno 8009 bound_to 7997
  155.2408  140.3322  155.4295 H   0  0  0  0  0  0  0  0  0  0  0  0  # atno 8010 bound_to 7997
  140.7020  143.6113  150.8701 H   0  0  0  0  0  0  0  0  0  0  0  0  # atno 10167 bound_to 10162
  156.0730  130.5942  150.8563 H   0  0  0  0  0  0  0  0  0  0  0  0  # atno 10718 bound_to 10713
  154.2136  135.6390  153.5123 H   0  0  0  0  0  0  0  0  0  0  0  0  # atno 10763 bound_to 10752
  152.9984  135.5480  154.6189 H   0  0  0  0  0  0  0  0  0  0  0  0  # atno 10764 bound_to 10752
  154.5632  135.2910  155.0873 H   0  0  0  0  0  0  0  0  0  0  0  0  # atno 10765 bound_to 10752
  141.0078  133.6923  156.2143 H   0  0  0  0  0  0  0  0  0  0  0  0  # atno 11005 bound_to 11000
  146.1358  140.7124  142.9390 LP  0  0  0  0  0  0  0  0  0  0  0  0  # atno 17320 bound_to 7965
  144.7194  140.4323  143.7019 LP  0  0  0  0  0  0  0  0  0  0  0  0  # atno 17321 bound_to 7965
  139.9836  143.5924  152.2934 LP  0  0  0  0  0  0  0  0  0  0  0  0  # atno 17342 bound_to 10162
  139.6554  144.7662  151.2066 LP  0  0  0  0  0  0  0  0  0  0  0  0  # atno 17343 bound_to 10162
  157.5811  131.0946  150.9269 LP  0  0  0  0  0  0  0  0  0  0  0  0  # atno 17370 bound_to 10713
  156.9464  130.5403  149.5281 LP  0  0  0  0  0  0  0  0  0  0  0  0  # atno 17371 bound_to 10713
  140.6784  134.4793  157.5588 LP  0  0  0  0  0  0  0  0  0  0  0  0  # atno 17394 bound_to 11000
  139.9073  134.8422  156.1659 LP  0  0  0  0  0  0  0  0  0  0  0  0  # atno 17395 bound_to 11000

$$$$
