AV-unprocessed.smi:561|AV-procd|sdf|2936|dock9
  -GOLD-   2262023433D 1   1.00000     0.00000
 Structure written by MMmdl.
 37 38  0  0  0  0  0  0  0  0  2 V2000
  151.4355  137.4582  155.6184 C   0  0  0  0  0  0  0  0  0  0  0  0
  150.3701  138.5607  155.6748 C   0  0  2  0  0  0  0  0  0  0  0  0
  150.1936  139.2417  154.3010 C   0  0  0  0  0  0  0  0  0  0  0  0
  149.2170  140.3355  154.3248 N   0  0  0  0  0  0  0  0  0  0  0  0
  147.9347  140.3155  153.8386 C   0  0  0  0  0  0  0  0  0  0  0  0
  147.4093  141.5601  154.0719 C   0  0  0  0  0  0  0  0  0  0  0  0
  148.3904  142.2849  154.6938 N   0  3  0  0  0  0  0  0  0  0  0  0
  149.4876  141.5372  154.8504 C   0  0  0  0  0  0  0  0  0  0  0  0
  150.7490  139.5365  156.6958 N   0  0  0  0  0  0  0  0  0  0  0  0
  151.9751  140.0677  156.8616 C   0  0  0  0  0  0  0  0  0  0  0  0
  152.9366  139.7781  156.1489 O   0  0  0  0  0  0  0  0  0  0  0  0
  152.1158  141.0372  157.9783 C   0  0  0  0  0  0  0  0  0  0  0  0
  151.8096  142.2835  157.7973 N   0  0  0  0  0  0  0  0  0  0  0  0
  151.9122  143.2182  158.8077 N   0  0  0  0  0  0  0  0  0  0  0  0
  151.2502  144.4862  158.5020 C   0  0  0  0  0  0  0  0  0  0  0  0
  152.5826  143.0192  159.9724 C   0  0  0  0  0  0  0  0  0  0  0  0
  152.6656  143.8534  160.8735 O   0  0  0  0  0  0  0  0  0  0  0  0
  153.2915  141.6701  160.1287 C   0  0  0  0  0  0  0  0  0  0  0  0
  152.5974  140.5503  159.3292 C   0  0  0  0  0  0  0  0  0  0  0  0
  151.1696  136.6935  154.8879 H   0  0  0  0  0  0  0  0  0  0  0  0
  151.5422  136.9647  156.5853 H   0  0  0  0  0  0  0  0  0  0  0  0
  152.4103  137.8598  155.3393 H   0  0  0  0  0  0  0  0  0  0  0  0
  149.4296  138.0814  155.9523 H   0  0  0  0  0  0  0  0  0  0  0  0
  151.1429  139.6427  153.9424 H   0  0  0  0  0  0  0  0  0  0  0  0
  149.8555  138.5183  153.5575 H   0  0  0  0  0  0  0  0  0  0  0  0
  147.5056  139.4421  153.3690 H   0  0  0  0  0  0  0  0  0  0  0  0
  146.4368  141.9733  153.8475 H   0  0  0  0  0  0  0  0  0  0  0  0
  150.4129  141.8461  155.3034 H   0  0  0  0  0  0  0  0  0  0  0  0
  150.0208  139.8374  157.3278 H   0  0  0  0  0  0  0  0  0  0  0  0
  151.3129  145.2226  159.3042 H   0  0  0  0  0  0  0  0  0  0  0  0
  150.1918  144.3160  158.3006 H   0  0  0  0  0  0  0  0  0  0  0  0
  151.6925  144.9346  157.6117 H   0  0  0  0  0  0  0  0  0  0  0  0
  154.3153  141.7946  159.7740 H   0  0  0  0  0  0  0  0  0  0  0  0
  153.3551  141.3994  161.1831 H   0  0  0  0  0  0  0  0  0  0  0  0
  151.7509  140.1582  159.8941 H   0  0  0  0  0  0  0  0  0  0  0  0
  153.2987  139.7233  159.2106 H   0  0  0  0  0  0  0  0  0  0  0  0
  148.3016  143.2482  154.9922 H   0  0  0  0  0  0  0  0  0  0  0  0
  1  2  1  0  0  0  0
  1 20  1  0  0  0  0
  1 21  1  0  0  0  0
  1 22  1  0  0  0  0
  2  3  1  0  0  0  0
  2  9  1  0  0  0  0
  2 23  1  0  0  0  0
  3  4  1  0  0  0  0
  3 24  1  0  0  0  0
  3 25  1  0  0  0  0
  4  8  1  0  0  0  0
  4  5  1  0  0  0  0
  5  6  2  0  0  0  0
  5 26  1  0  0  0  0
  6  7  1  0  0  0  0
  6 27  1  0  0  0  0
  7  8  2  0  0  0  0
  7 37  1  0  0  0  0
  8 28  1  0  0  0  0
  9 10  1  0  0  0  0
  9 29  1  0  0  0  0
 10 11  2  0  0  0  0
 10 12  1  0  0  0  0
 12 19  1  0  0  0  0
 12 13  2  0  0  0  0
 13 14  1  0  0  0  0
 14 15  1  0  0  0  0
 14 16  1  0  0  0  0
 15 30  1  0  0  0  0
 15 31  1  0  0  0  0
 15 32  1  0  0  0  0
 16 17  2  0  0  0  0
 16 18  1  0  0  0  0
 18 19  1  0  0  0  0
 18 33  1  0  0  0  0
 18 34  1  0  0  0  0
 19 35  1  0  0  0  0
 19 36  1  0  0  0  0
M  CHG  1   7   1
M  END
> <s_m_source_file>
AV-unprocessed.smi

> <i_m_source_file_index>
561

> <i_lp_mmshare_version>
43012

> <i_f3d_flags>
0

> <s_epik_input>
W2NIXTFuW2NIXVtjSF1uMVtDSDJdW0NAQEhdKFtDSDNdKVtOSF1DKD1PKUMyPU5OKFtDSDNdKUMoPU8pW0NIMl1bQ0gyXTI=

> <s_epik_cmdline>
J2VwaWtfcHl0aG9uJywgJy1waCcsICc3LjAnLCAnLXRuJywgJzgnLCAnLW1hJywgJzIwMCcsICctbWV0YWxfYmluZGluZycsICctaW1hZScsICc8aW5maWxlLm1hZT4nLCAnLW9tYWUnLCAnPG91dGZpbGUubWFlPic=

> <r_lp_tautomer_probability>
1

> <r_epik_Ionization_Penalty>
0.358595

> <r_epik_Ionization_Penalty_Charging>
0

> <r_epik_Ionization_Penalty_Neutral>
0.358595

> <r_epik_State_Penalty>
0.355181

> <r_epik_Charging_Adjusted_Penalty>
0.355181

> <i_epik_Tot_Q>
1

> <i_epik_Tot_abs_Q>
1

> <r_epik_Metal_State_Penalty>
0.718565

> <b_epik_Metal_Only>
0

> <s_epik_Chemistry_Notes>
This compound has an imine and may undergo hydrolysis.

> <s_lp_Force_Field>
OPLS_2005

> <r_lp_Energy>
20.1569

> <b_lp_Chiralities_Consistent>
1

> <s_lp_Variant>
AV-unprocessed.smi:561-1

> <Gold.Version>
5.8.1

> <Gold.Id.Protein>
6NUR|6NUR_protein|mol2

> <Gold.PLP.Fitness>
43.5640

> <Gold.PLP.PLP>
-38.3547

> <Gold.PLP.part.hbond>
-2.0000

> <Gold.PLP.part.metal>
0.0000

> <Gold.PLP.part.buried>
-4.5785

> <Gold.PLP.part.nonpolar>
-33.1316

> <Gold.PLP.part.repulsive>
0.3537

> <Gold.PLP.ligand.clash>
0.0043

> <Gold.PLP.ligand.torsion>
1.8969

> <Gold.PLP.Chemscore.Hbond>
3.0000

> <Gold.PLP.Chemscore.CHOScore>
0.0000

> <Gold.PLP.Chemscore.Metal>
0.0000

> <Gold.Chemscore.Hbonds>
donor molecule, donor type, donor heavy atom, donor atom, acceptor molecule, acceptor atom, score
      L1  H     7    37       P1  8028  2.00
      P1  H  7997  8008       L1    11  0.83

> <Gold.PLP.Chemscore.Internal.Correction>
0.0072

> <Gold.Rescore>
     Score         DG    S(hbond)    S(metal)    S(lipo)     H(rot)  DE(clash)    DE(int)     intcor
     11.72     -14.88       1.95        0.00      63.11       1.76       0.03       3.13       ----

> <Gold.Chemscore.Fitness>
11.7203

> <Gold.Chemscore.DG>
-14.8827

> <Gold.Chemscore.ZeroCoef>
-5.4800

> <Gold.Chemscore.Hbond>
1.9525

> <Gold.Chemscore.Metal>
0.0000

> <Gold.Chemscore.Lipo>
63.1124

> <Gold.Chemscore.Internal_Hbond>
0.0000

> <Gold.Chemscore.DEClash>
0.0307

> <Gold.Chemscore.DEInternal>
3.1317

> <Gold.Chemscore.Rot>
1.7589

> <Gold.Chemscore.Internal.Correction>
   9.000000E+99

> <Gold.Chemscore.Hbonds>
donor molecule, donor type, donor heavy atom, donor atom, acceptor molecule, acceptor atom, score
      L1  H     7    37       P1  8028  0.97
      P1  H  7997  8008       L1    11  0.79

> <Gold.Chemscore.Hbond.Weighted>
-6.5214

> <Gold.Chemscore.Metal.Weighted>
-0.0000

> <Gold.Chemscore.Lipo.Weighted>
-7.3842

> <Gold.Chemscore.Internal_Hbond.Weighted>
0.0000

> <Gold.Chemscore.DEClash.Weighted>
0.0307

> <Gold.Chemscore.DEInternal.Weighted>
3.1317

> <Gold.Chemscore.Rot.Weighted>
4.5028

> <Gold.Chemscore.Internal.Correction.Weighted>
   9.000000E+99

> <Gold.Protein.RotatedTorsions>
[ 6907 6896 6895 6894 ] final  120.41 input  -60.11 | X-H torsion
[ 7974 7965 7964 7962 ] final -112.67 input  175.53 | X-H torsion
[ 8008 7997 7996 7995 ] final  -64.71 input   59.86 | X-H torsion
[ 10167 10162 10161 10158 ] final  -45.52 input  -65.29 | X-H torsion
[ 10718 10713 10712 10709 ] final   69.11 input   66.30 | X-H torsion
[ 10763 10752 10751 10750 ] final  171.96 input  -60.55 | X-H torsion
[ 11005 11000 10999 10996 ] final  -30.30 input  -57.11 | X-H torsion

> <Gold.Protein.ActiveResidues>
 VAL166  LYS551  ARG553  GLY616  TRP617  ASP618  TYR619  PRO620  LYS621  CYS622 
 ASP623  PHE694  ASN695  SER759  ASP760  ASP761  ALA762  ILE779  LEU786  VAL792 
 PHE793  MET794  SER795  GLU796  ALA797  LYS798  CYS799  TRP800  GLU811  SER814 

> <Gold.Protein.RotatedAtoms>
  152.4400  133.7431  159.6651 H   0  0  0  0  0  0  0  0  0  0  0  0  # atno 6907 bound_to 6896
  150.8289  133.8114  159.3113 H   0  0  0  0  0  0  0  0  0  0  0  0  # atno 6908 bound_to 6896
  151.5773  135.1062  160.0061 H   0  0  0  0  0  0  0  0  0  0  0  0  # atno 6909 bound_to 6896
  145.1412  140.8779  143.3701 H   0  0  0  0  0  0  0  0  0  0  0  0  # atno 7974 bound_to 7965
  154.4628  140.0948  156.6939 H   0  0  0  0  0  0  0  0  0  0  0  0  # atno 8008 bound_to 7997
  155.4945  140.3472  155.4342 H   0  0  0  0  0  0  0  0  0  0  0  0  # atno 8009 bound_to 7997
  156.0902  140.1395  156.9591 H   0  0  0  0  0  0  0  0  0  0  0  0  # atno 8010 bound_to 7997
  140.6854  143.2875  151.3651 H   0  0  0  0  0  0  0  0  0  0  0  0  # atno 10167 bound_to 10162
  157.6327  130.9409  150.0469 H   0  0  0  0  0  0  0  0  0  0  0  0  # atno 10718 bound_to 10713
  154.4192  135.2757  155.1986 H   0  0  0  0  0  0  0  0  0  0  0  0  # atno 10763 bound_to 10752
  154.3939  135.6060  153.5862 H   0  0  0  0  0  0  0  0  0  0  0  0  # atno 10764 bound_to 10752
  152.9832  135.5910  154.4486 H   0  0  0  0  0  0  0  0  0  0  0  0  # atno 10765 bound_to 10752
  140.9370  133.7302  156.1020 H   0  0  0  0  0  0  0  0  0  0  0  0  # atno 11005 bound_to 11000
  145.0530  139.3166  143.5919 LP  0  0  0  0  0  0  0  0  0  0  0  0  # atno 17320 bound_to 7965
  146.3505  139.9945  142.8682 LP  0  0  0  0  0  0  0  0  0  0  0  0  # atno 17321 bound_to 7965
  139.6209  144.0909  152.2390 LP  0  0  0  0  0  0  0  0  0  0  0  0  # atno 17342 bound_to 10162
  140.0353  144.6049  150.7455 LP  0  0  0  0  0  0  0  0  0  0  0  0  # atno 17343 bound_to 10162
  156.1543  130.3643  149.9392 LP  0  0  0  0  0  0  0  0  0  0  0  0  # atno 17370 bound_to 10713
  156.7405  130.9077  151.3632 LP  0  0  0  0  0  0  0  0  0  0  0  0  # atno 17371 bound_to 10713
  140.7785  134.3752  157.5492 LP  0  0  0  0  0  0  0  0  0  0  0  0  # atno 17394 bound_to 11000
  139.8810  134.9067  156.2928 LP  0  0  0  0  0  0  0  0  0  0  0  0  # atno 17395 bound_to 11000

$$$$
