AV-unprocessed.smi:1897|AV-procd|sdf|7691|dock4
  -GOLD-   22720 9433D 1   1.00000     0.00000
 Structure written by MMmdl.
 39 41  0  0  0  0  0  0  0  0  2 V2000
  157.1963  133.7272  157.9947 C   0  0  0  0  0  0  0  0  0  0  0  0
  156.0525  134.5243  158.5223 C   0  0  0  0  0  0  0  0  0  0  0  0
  155.2585  134.0846  159.5057 N   0  0  0  0  0  0  0  0  0  0  0  0
  154.2642  134.9976  159.8258 N   0  0  0  0  0  0  0  0  0  0  0  0
  154.3291  136.1011  159.0663 C   0  0  0  0  0  0  0  0  0  0  0  0
  153.4447  137.2142  159.1767 N   0  0  0  0  0  0  0  0  0  0  0  0
  153.4223  138.4086  158.5471 C   0  0  0  0  0  0  0  0  0  0  0  0
  154.2683  138.6955  157.7022 O   0  0  0  0  0  0  0  0  0  0  0  0
  152.4311  139.2465  158.8930 N   0  0  0  0  0  0  0  0  0  0  0  0
  152.2189  140.5842  158.3504 C   0  0  1  0  0  0  0  0  0  0  0  0
  151.0127  140.6665  157.4227 C   0  0  0  0  0  0  0  0  0  0  0  0
  150.7165  142.1670  157.4119 C   0  0  0  0  0  0  0  0  0  0  0  0
  151.0674  142.6609  158.7634 N   0  3  2  0  0  0  0  0  0  0  0  0
  151.6292  144.0335  158.7923 C   0  0  0  0  0  0  0  0  0  0  0  0
  151.9465  144.4615  160.2373 C   0  0  0  0  0  0  0  0  0  0  0  0
  152.7783  143.4161  161.0097 C   0  0  0  0  0  0  0  0  0  0  0  0
  153.1361  142.1965  160.1460 C   0  0  0  0  0  0  0  0  0  0  0  0
  151.8885  141.6172  159.4410 C   0  0  2  0  0  0  0  0  0  0  0  0
  155.6387  136.1158  157.8964 S   0  0  0  0  0  0  0  0  0  0  0  0
  157.6729  133.1681  158.8004 H   0  0  0  0  0  0  0  0  0  0  0  0
  157.9387  134.3846  157.5418 H   0  0  0  0  0  0  0  0  0  0  0  0
  156.8436  133.0245  157.2397 H   0  0  0  0  0  0  0  0  0  0  0  0
  152.6836  137.0734  159.8254 H   0  0  0  0  0  0  0  0  0  0  0  0
  151.7755  138.9301  159.5938 H   0  0  0  0  0  0  0  0  0  0  0  0
  153.0956  140.9086  157.7856 H   0  0  0  0  0  0  0  0  0  0  0  0
  151.2118  140.2670  156.4278 H   0  0  0  0  0  0  0  0  0  0  0  0
  150.1667  140.1215  157.8451 H   0  0  0  0  0  0  0  0  0  0  0  0
  151.3464  142.6513  156.6637 H   0  0  0  0  0  0  0  0  0  0  0  0
  149.6776  142.3864  157.1645 H   0  0  0  0  0  0  0  0  0  0  0  0
  152.5327  144.0750  158.1815 H   0  0  0  0  0  0  0  0  0  0  0  0
  150.9166  144.7272  158.3450 H   0  0  0  0  0  0  0  0  0  0  0  0
  152.4697  145.4183  160.2260 H   0  0  0  0  0  0  0  0  0  0  0  0
  151.0129  144.6377  160.7733 H   0  0  0  0  0  0  0  0  0  0  0  0
  153.6888  143.8729  161.3992 H   0  0  0  0  0  0  0  0  0  0  0  0
  152.2126  143.0824  161.8805 H   0  0  0  0  0  0  0  0  0  0  0  0
  153.8832  142.4876  159.4062 H   0  0  0  0  0  0  0  0  0  0  0  0
  153.6075  141.4319  160.7641 H   0  0  0  0  0  0  0  0  0  0  0  0
  151.2372  141.1606  160.1882 H   0  0  0  0  0  0  0  0  0  0  0  0
  150.2040  142.7000  159.2862 H   0  0  0  0  0  0  0  0  0  0  0  0
  1  2  1  0  0  0  0
  1 20  1  0  0  0  0
  1 21  1  0  0  0  0
  1 22  1  0  0  0  0
  2 19  1  0  0  0  0
  2  3  2  0  0  0  0
  3  4  1  0  0  0  0
  4  5  2  0  0  0  0
  5  6  1  0  0  0  0
  5 19  1  0  0  0  0
  6  7  1  0  0  0  0
  6 23  1  0  0  0  0
  7  8  2  0  0  0  0
  7  9  1  0  0  0  0
  9 10  1  0  0  0  0
  9 24  1  0  0  0  0
 10 18  1  0  0  0  0
 10 11  1  0  0  0  0
 10 25  1  0  0  0  0
 11 12  1  0  0  0  0
 11 26  1  0  0  0  0
 11 27  1  0  0  0  0
 12 13  1  0  0  0  0
 12 28  1  0  0  0  0
 12 29  1  0  0  0  0
 13 18  1  0  0  0  0
 13 14  1  0  0  0  0
 13 39  1  0  0  0  0
 14 15  1  0  0  0  0
 14 30  1  0  0  0  0
 14 31  1  0  0  0  0
 15 16  1  0  0  0  0
 15 32  1  0  0  0  0
 15 33  1  0  0  0  0
 16 17  1  0  0  0  0
 16 34  1  0  0  0  0
 16 35  1  0  0  0  0
 17 18  1  0  0  0  0
 17 36  1  0  0  0  0
 17 37  1  0  0  0  0
 18 38  1  0  0  0  0
M  CHG  1  13   1
M  END
> <s_m_source_file>
AV-unprocessed.smi

> <i_m_source_file_index>
1897

> <i_lp_mmshare_version>
43012

> <i_f3d_flags>
0

> <s_epik_input>
W0NIM11jMW5uYyhzMSlbTkhdQyg9TylbTkhdW0NASF0oW0NIMl1bQ0gyXTIpW0NAQEhdKE4yMylbQ0gyXVtDSDJdW0NIMl1bQ0gyXTM=

> <s_epik_cmdline>
J2VwaWtfcHl0aG9uJywgJy1waCcsICc3LjAnLCAnLXRuJywgJzgnLCAnLW1hJywgJzIwMCcsICctbWV0YWxfYmluZGluZycsICctaW1hZScsICc8aW5maWxlLm1hZT4nLCAnLW9tYWUnLCAnPG91dGZpbGUubWFlPic=

> <r_lp_tautomer_probability>
1

> <r_epik_Ionization_Penalty>
0.00228891

> <r_epik_Ionization_Penalty_Charging>
0.00107044

> <r_epik_Ionization_Penalty_Neutral>
0.00121847

> <r_epik_State_Penalty>
-0

> <r_epik_Charging_Adjusted_Penalty>
0.00107044

> <i_epik_Tot_Q>
1

> <i_epik_Tot_abs_Q>
1

> <r_epik_Metal_State_Penalty>
0.304057

> <b_epik_Metal_Only>
0

> <s_lp_Force_Field>
OPLS_2005

> <r_lp_Energy>
41.04

> <b_lp_Chiralities_Consistent>
1

> <s_lp_Variant>
AV-unprocessed.smi:1897-8

> <Gold.Version>
5.8.1

> <Gold.Id.Protein>
6NUR|6NUR_protein|mol2

> <Gold.PLP.Fitness>
33.7150

> <Gold.PLP.PLP>
-28.2748

> <Gold.PLP.part.hbond>
-1.6531

> <Gold.PLP.part.metal>
0.0000

> <Gold.PLP.part.buried>
-5.3065

> <Gold.PLP.part.nonpolar>
-21.8089

> <Gold.PLP.part.repulsive>
0.2499

> <Gold.PLP.ligand.clash>
0.0000

> <Gold.PLP.ligand.torsion>
0.1646

> <Gold.PLP.Chemscore.Hbond>
1.9204

> <Gold.PLP.Chemscore.CHOScore>
0.0000

> <Gold.PLP.Chemscore.Metal>
0.0000

> <Gold.Chemscore.Hbonds>
donor molecule, donor type, donor heavy atom, donor atom, acceptor molecule, acceptor atom, score
      P1  H  6896  6909       L1     4  1.00
      P1  H  7997  8009       L1     8  0.86

> <Gold.PLP.Chemscore.Internal.Correction>
0.0080

> <Gold.Rescore>
     Score         DG    S(hbond)    S(metal)    S(lipo)     H(rot)  DE(clash)    DE(int)     intcor
     16.65     -18.04       1.80        0.00      78.01       1.00       0.01       1.38       ----

> <Gold.Chemscore.Fitness>
16.6473

> <Gold.Chemscore.DG>
-18.0431

> <Gold.Chemscore.ZeroCoef>
-5.4800

> <Gold.Chemscore.Hbond>
1.7951

> <Gold.Chemscore.Metal>
0.0000

> <Gold.Chemscore.Lipo>
78.0131

> <Gold.Chemscore.Internal_Hbond>
0.0000

> <Gold.Chemscore.DEClash>
0.0126

> <Gold.Chemscore.DEInternal>
1.3831

> <Gold.Chemscore.Rot>
1.0000

> <Gold.Chemscore.Internal.Correction>
   9.000000E+99

> <Gold.Chemscore.Hbonds>
donor molecule, donor type, donor heavy atom, donor atom, acceptor molecule, acceptor atom, score
      P1  H  6896  6909       L1     4  0.73
      P1  H  7997  8009       L1     8  0.80

> <Gold.Chemscore.Hbond.Weighted>
-5.9955

> <Gold.Chemscore.Metal.Weighted>
-0.0000

> <Gold.Chemscore.Lipo.Weighted>
-9.1275

> <Gold.Chemscore.Internal_Hbond.Weighted>
0.0000

> <Gold.Chemscore.DEClash.Weighted>
0.0126

> <Gold.Chemscore.DEInternal.Weighted>
1.3831

> <Gold.Chemscore.Rot.Weighted>
2.5600

> <Gold.Chemscore.Internal.Correction.Weighted>
   9.000000E+99

> <Gold.Protein.RotatedTorsions>
[ 6907 6896 6895 6894 ] final -152.75 input  -60.11 | X-H torsion
[ 7974 7965 7964 7962 ] final   15.22 input  175.53 | X-H torsion
[ 8008 7997 7996 7995 ] final  145.33 input   59.86 | X-H torsion
[ 10167 10162 10161 10158 ] final   34.65 input  -65.29 | X-H torsion
[ 10718 10713 10712 10709 ] final  170.03 input   66.30 | X-H torsion
[ 10763 10752 10751 10750 ] final  -36.91 input  -60.55 | X-H torsion
[ 11005 11000 10999 10996 ] final  -49.33 input  -57.11 | X-H torsion

> <Gold.Protein.ActiveResidues>
 VAL166  LYS551  ARG553  GLY616  TRP617  ASP618  TYR619  PRO620  LYS621  CYS622 
 ASP623  PHE694  ASN695  SER759  ASP760  ASP761  ALA762  ILE779  LEU786  VAL792 
 PHE793  MET794  SER795  GLU796  ALA797  LYS798  CYS799  TRP800  GLU811  SER814 

> <Gold.Protein.RotatedAtoms>
  151.2324  133.4443  159.2604 H   0  0  0  0  0  0  0  0  0  0  0  0  # atno 6907 bound_to 6896
  151.0782  134.9841  159.8353 H   0  0  0  0  0  0  0  0  0  0  0  0  # atno 6908 bound_to 6896
  152.5421  134.2265  159.8861 H   0  0  0  0  0  0  0  0  0  0  0  0  # atno 6909 bound_to 6896
  146.2284  139.8926  142.8552 H   0  0  0  0  0  0  0  0  0  0  0  0  # atno 7974 bound_to 7965
  156.2886  140.2212  156.5197 H   0  0  0  0  0  0  0  0  0  0  0  0  # atno 8008 bound_to 7997
  154.7539  140.0478  157.0938 H   0  0  0  0  0  0  0  0  0  0  0  0  # atno 8009 bound_to 7997
  155.0075  140.3109  155.4846 H   0  0  0  0  0  0  0  0  0  0  0  0  # atno 8010 bound_to 7997
  140.4296  144.1344  150.6157 H   0  0  0  0  0  0  0  0  0  0  0  0  # atno 10167 bound_to 10162
  157.0140  131.0212  151.2794 H   0  0  0  0  0  0  0  0  0  0  0  0  # atno 10718 bound_to 10713
  153.8875  135.6815  153.4763 H   0  0  0  0  0  0  0  0  0  0  0  0  # atno 10763 bound_to 10752
  153.1199  135.4744  154.9176 H   0  0  0  0  0  0  0  0  0  0  0  0  # atno 10764 bound_to 10752
  154.7639  135.3218  154.8278 H   0  0  0  0  0  0  0  0  0  0  0  0  # atno 10765 bound_to 10752
  141.0753  133.6667  156.3570 H   0  0  0  0  0  0  0  0  0  0  0  0  # atno 11005 bound_to 11000
  145.2403  141.0006  143.3940 LP  0  0  0  0  0  0  0  0  0  0  0  0  # atno 17320 bound_to 7965
  144.9457  139.4138  143.6427 LP  0  0  0  0  0  0  0  0  0  0  0  0  # atno 17321 bound_to 7965
  140.4443  143.2513  151.9432 LP  0  0  0  0  0  0  0  0  0  0  0  0  # atno 17342 bound_to 10162
  139.4784  144.5624  151.8217 LP  0  0  0  0  0  0  0  0  0  0  0  0  # atno 17343 bound_to 10162
  157.5299  130.8052  149.7905 LP  0  0  0  0  0  0  0  0  0  0  0  0  # atno 17370 bound_to 10713
  156.0126  130.3827  150.2215 LP  0  0  0  0  0  0  0  0  0  0  0  0  # atno 17371 bound_to 10713
  140.5587  134.5956  157.5427 LP  0  0  0  0  0  0  0  0  0  0  0  0  # atno 17394 bound_to 11000
  139.9565  134.7526  156.0330 LP  0  0  0  0  0  0  0  0  0  0  0  0  # atno 17395 bound_to 11000

$$$$
