AV-unprocessed.smi:1843|AV-procd|sdf|7503|dock6
  -GOLD-   22720 9203D 1   1.00000     0.00000
 Structure written by MMmdl.
 37 39  0  0  0  0  0  0  0  0  1 V2000
  145.7262  136.1101  154.6782 O   0  0  0  0  0  0  0  0  0  0  0  0
  146.6721  136.1160  153.8901 C   0  0  0  0  0  0  0  0  0  0  0  0
  147.7004  136.9820  153.9149 N   0  0  0  0  0  0  0  0  0  0  0  0
  147.9289  138.0516  154.8205 C   0  0  0  0  0  0  0  0  0  0  0  0
  147.1108  138.3548  155.8375 N   0  0  0  0  0  0  0  0  0  0  0  0
  147.5692  139.4448  156.5637 N   0  0  0  0  0  0  0  0  0  0  0  0
  148.7172  139.9326  156.0782 C   0  0  0  0  0  0  0  0  0  0  0  0
  149.4060  141.1060  156.6918 C   0  0  0  0  0  0  0  0  0  0  0  0
  150.6399  141.7190  156.0658 C   0  0  0  0  0  0  0  0  0  0  0  0
  150.7540  140.9491  157.3569 C   0  0  0  0  0  0  0  0  0  0  0  0
  149.3405  139.0834  154.6673 S   0  0  0  0  0  0  0  0  0  0  0  0
  146.8004  135.2412  152.8822 N   0  0  0  0  0  0  0  0  0  0  0  0
  145.8613  134.1636  152.5759 C   0  0  1  0  0  0  0  0  0  0  0  0
  144.4987  134.7824  152.1919 C   0  0  0  0  0  0  0  0  0  0  0  0
  143.4981  133.7279  151.6974 C   0  0  0  0  0  0  0  0  0  0  0  0
  144.0768  132.9318  150.5206 C   0  0  0  0  0  0  0  0  0  0  0  0
  145.4028  132.2692  150.9169 C   0  0  0  0  0  0  0  0  0  0  0  0
  146.4278  133.3017  151.4231 C   0  0  2  0  0  0  0  0  0  0  0  0
  147.5583  132.5856  151.8791 O   0  0  0  0  0  0  0  0  0  0  0  0
  148.4031  136.8632  153.2004 H   0  0  0  0  0  0  0  0  0  0  0  0
  148.6842  141.7756  157.1556 H   0  0  0  0  0  0  0  0  0  0  0  0
  151.0522  141.2531  155.1729 H   0  0  0  0  0  0  0  0  0  0  0  0
  150.7424  142.8009  156.1156 H   0  0  0  0  0  0  0  0  0  0  0  0
  150.9320  141.5165  158.2681 H   0  0  0  0  0  0  0  0  0  0  0  0
  151.2266  139.9694  157.3172 H   0  0  0  0  0  0  0  0  0  0  0  0
  147.6068  135.3229  152.2808 H   0  0  0  0  0  0  0  0  0  0  0  0
  145.7217  133.5272  153.4526 H   0  0  0  0  0  0  0  0  0  0  0  0
  144.0749  135.3137  153.0452 H   0  0  0  0  0  0  0  0  0  0  0  0
  144.6420  135.5281  151.4082 H   0  0  0  0  0  0  0  0  0  0  0  0
  143.2470  133.0491  152.5134 H   0  0  0  0  0  0  0  0  0  0  0  0
  142.5673  134.2101  151.3976 H   0  0  0  0  0  0  0  0  0  0  0  0
  143.3636  132.1732  150.1974 H   0  0  0  0  0  0  0  0  0  0  0  0
  144.2351  133.5936  149.6681 H   0  0  0  0  0  0  0  0  0  0  0  0
  145.2107  131.5277  151.6943 H   0  0  0  0  0  0  0  0  0  0  0  0
  145.8111  131.7230  150.0657 H   0  0  0  0  0  0  0  0  0  0  0  0
  146.7299  133.9427  150.5935 H   0  0  0  0  0  0  0  0  0  0  0  0
  147.8716  132.0394  151.1745 H   0  0  0  0  0  0  0  0  0  0  0  0
  1  2  2  0  0  0  0
  2  3  1  0  0  0  0
  2 12  1  0  0  0  0
  3  4  1  0  0  0  0
  3 20  1  0  0  0  0
  4 11  1  0  0  0  0
  4  5  2  0  0  0  0
  5  6  1  0  0  0  0
  6  7  2  0  0  0  0
  7  8  1  0  0  0  0
  7 11  1  0  0  0  0
  8 10  1  0  0  0  0
  8  9  1  0  0  0  0
  8 21  1  0  0  0  0
  9 10  1  0  0  0  0
  9 22  1  0  0  0  0
  9 23  1  0  0  0  0
 10 24  1  0  0  0  0
 10 25  1  0  0  0  0
 12 13  1  0  0  0  0
 12 26  1  0  0  0  0
 13 18  1  0  0  0  0
 13 14  1  0  0  0  0
 13 27  1  0  0  0  0
 14 15  1  0  0  0  0
 14 28  1  0  0  0  0
 14 29  1  0  0  0  0
 15 16  1  0  0  0  0
 15 30  1  0  0  0  0
 15 31  1  0  0  0  0
 16 17  1  0  0  0  0
 16 32  1  0  0  0  0
 16 33  1  0  0  0  0
 17 18  1  0  0  0  0
 17 34  1  0  0  0  0
 17 35  1  0  0  0  0
 18 19  1  0  0  0  0
 18 36  1  0  0  0  0
 19 37  1  0  0  0  0
M  END
> <s_m_source_file>
AV-unprocessed.smi

> <i_m_source_file_index>
1843

> <i_lp_mmshare_version>
43012

> <i_f3d_flags>
0

> <s_epik_input>
W09IXVtDQEBIXTFbQ0gyXVtDSDJdW0NIMl1bQ0gyXVtDQEhdMVtOSF1DKD1PKVtOSF1jMm5uYyhzMilbQ0hdM1tDSDJdW0NIMl0z

> <s_epik_cmdline>
J2VwaWtfcHl0aG9uJywgJy1waCcsICc3LjAnLCAnLXRuJywgJzgnLCAnLW1hJywgJzIwMCcsICctbWV0YWxfYmluZGluZycsICctaW1hZScsICc8aW5maWxlLm1hZT4nLCAnLW9tYWUnLCAnPG91dGZpbGUubWFlPic=

> <r_lp_tautomer_probability>
1

> <r_epik_Ionization_Penalty>
0.000257313

> <r_epik_Ionization_Penalty_Charging>
0

> <r_epik_Ionization_Penalty_Neutral>
0.000257313

> <r_epik_State_Penalty>
-0

> <r_epik_Charging_Adjusted_Penalty>
0

> <i_epik_Tot_Q>
0

> <i_epik_Tot_abs_Q>
0

> <r_epik_Metal_State_Penalty>
0.147479

> <b_epik_Metal_Only>
0

> <s_lp_Force_Field>
OPLS_2005

> <r_lp_Energy>
8.53895

> <b_lp_Chiralities_Consistent>
1

> <s_lp_Variant>
AV-unprocessed.smi:1843-4

> <Gold.Version>
5.8.1

> <Gold.Id.Protein>
6NUR|6NUR_protein|mol2

> <Gold.PLP.Fitness>
34.3131

> <Gold.PLP.PLP>
-25.4209

> <Gold.PLP.part.hbond>
-2.9587

> <Gold.PLP.part.metal>
0.0000

> <Gold.PLP.part.buried>
-4.2626

> <Gold.PLP.part.nonpolar>
-18.3654

> <Gold.PLP.part.repulsive>
0.0397

> <Gold.PLP.ligand.clash>
0.0000

> <Gold.PLP.ligand.torsion>
0.0821

> <Gold.PLP.Chemscore.Hbond>
2.9760

> <Gold.PLP.Chemscore.CHOScore>
0.0000

> <Gold.PLP.Chemscore.Metal>
0.0000

> <Gold.Chemscore.Hbonds>
donor molecule, donor type, donor heavy atom, donor atom, acceptor molecule, acceptor atom, score
      L1  H     3    20       P1  7948  1.00
      L1  H    12    26       P1  7948  0.98
      L1  H    19    37       P1 10747  1.00

> <Gold.PLP.Chemscore.Internal.Correction>
0.1285

> <Gold.Rescore>
     Score         DG    S(hbond)    S(metal)    S(lipo)     H(rot)  DE(clash)    DE(int)     intcor
     16.47     -17.91       2.89        0.00      61.82       1.74       0.01       1.42       ----

> <Gold.Chemscore.Fitness>
16.4705

> <Gold.Chemscore.DG>
-17.9096

> <Gold.Chemscore.ZeroCoef>
-5.4800

> <Gold.Chemscore.Hbond>
2.8899

> <Gold.Chemscore.Metal>
0.0000

> <Gold.Chemscore.Lipo>
61.8190

> <Gold.Chemscore.Internal_Hbond>
0.0000

> <Gold.Chemscore.DEClash>
0.0149

> <Gold.Chemscore.DEInternal>
1.4243

> <Gold.Chemscore.Rot>
1.7404

> <Gold.Chemscore.Internal.Correction>
   9.000000E+99

> <Gold.Chemscore.Hbonds>
donor molecule, donor type, donor heavy atom, donor atom, acceptor molecule, acceptor atom, score
      L1  H     3    20       P1  7948  0.95
      L1  H    12    26       P1  7948  0.92
      L1  H    19    37       P1 10747  0.99

> <Gold.Chemscore.Hbond.Weighted>
-9.6522

> <Gold.Chemscore.Metal.Weighted>
-0.0000

> <Gold.Chemscore.Lipo.Weighted>
-7.2328

> <Gold.Chemscore.Internal_Hbond.Weighted>
0.0000

> <Gold.Chemscore.DEClash.Weighted>
0.0149

> <Gold.Chemscore.DEInternal.Weighted>
1.4243

> <Gold.Chemscore.Rot.Weighted>
4.4555

> <Gold.Chemscore.Internal.Correction.Weighted>
   9.000000E+99

> <Gold.Protein.RotatedTorsions>
[ 6907 6896 6895 6894 ] final   -3.93 input  -60.11 | X-H torsion
[ 7974 7965 7964 7962 ] final  149.79 input  175.53 | X-H torsion
[ 8008 7997 7996 7995 ] final -116.47 input   59.86 | X-H torsion
[ 10167 10162 10161 10158 ] final  -69.13 input  -65.29 | X-H torsion
[ 10718 10713 10712 10709 ] final -172.60 input   66.30 | X-H torsion
[ 10763 10752 10751 10750 ] final  -79.07 input  -60.55 | X-H torsion
[ 11005 11000 10999 10996 ] final  -28.98 input  -57.11 | X-H torsion

> <Gold.Protein.ActiveResidues>
 VAL166  LYS551  ARG553  GLY616  TRP617  ASP618  TYR619  PRO620  LYS621  CYS622 
 ASP623  PHE694  ASN695  SER759  ASP760  ASP761  ALA762  ILE779  LEU786  VAL792 
 PHE793  MET794  SER795  GLU796  ALA797  LYS798  CYS799  TRP800  GLU811  SER814 

> <Gold.Protein.RotatedAtoms>
  151.5059  135.1063  159.9840 H   0  0  0  0  0  0  0  0  0  0  0  0  # atno 6907 bound_to 6896
  152.4682  133.7966  159.6941 H   0  0  0  0  0  0  0  0  0  0  0  0  # atno 6908 bound_to 6896
  150.8677  133.7487  159.2997 H   0  0  0  0  0  0  0  0  0  0  0  0  # atno 6909 bound_to 6896
  144.8412  139.6325  143.6016 H   0  0  0  0  0  0  0  0  0  0  0  0  # atno 7974 bound_to 7965
  155.0683  140.0393  157.2600 H   0  0  0  0  0  0  0  0  0  0  0  0  # atno 8008 bound_to 7997
  154.7003  140.2672  155.6701 H   0  0  0  0  0  0  0  0  0  0  0  0  # atno 8009 bound_to 7997
  156.2758  140.2742  156.1611 H   0  0  0  0  0  0  0  0  0  0  0  0  # atno 8010 bound_to 7997
  140.5454  143.2313  151.7011 H   0  0  0  0  0  0  0  0  0  0  0  0  # atno 10167 bound_to 10162
  156.7579  130.9402  151.3117 H   0  0  0  0  0  0  0  0  0  0  0  0  # atno 10718 bound_to 10713
  154.5340  135.5708  153.6783 H   0  0  0  0  0  0  0  0  0  0  0  0  # atno 10763 bound_to 10752
  152.9946  135.6211  154.2591 H   0  0  0  0  0  0  0  0  0  0  0  0  # atno 10764 bound_to 10752
  154.2518  135.2859  155.2793 H   0  0  0  0  0  0  0  0  0  0  0  0  # atno 10765 bound_to 10752
  140.9256  133.7371  156.0862 H   0  0  0  0  0  0  0  0  0  0  0  0  # atno 11005 bound_to 11000
  146.2704  139.6621  142.9300 LP  0  0  0  0  0  0  0  0  0  0  0  0  # atno 17320 bound_to 7965
  145.4690  141.0435  143.2709 LP  0  0  0  0  0  0  0  0  0  0  0  0  # atno 17321 bound_to 7965
  139.5005  144.3902  152.0287 LP  0  0  0  0  0  0  0  0  0  0  0  0  # atno 17342 bound_to 10162
  140.3014  144.3642  150.6059 LP  0  0  0  0  0  0  0  0  0  0  0  0  # atno 17343 bound_to 10162
  157.6748  130.9084  150.0124 LP  0  0  0  0  0  0  0  0  0  0  0  0  # atno 17370 bound_to 10713
  156.1358  130.3642  149.9659 LP  0  0  0  0  0  0  0  0  0  0  0  0  # atno 17371 bound_to 10713
  140.7931  134.3595  157.5459 LP  0  0  0  0  0  0  0  0  0  0  0  0  # atno 17394 bound_to 11000
  139.8784  134.9152  156.3125 LP  0  0  0  0  0  0  0  0  0  0  0  0  # atno 17395 bound_to 11000

$$$$
