AV-unprocessed.smi:3315|AV-procd|sdf|12752|dock6
  -GOLD-   2272019 93D 1   1.00000     0.00000
 Structure written by MMmdl.
 37 38  0  0  0  0  0  0  0  0  1 V2000
  143.9612  132.7825  150.5266 C   0  0  0  0  0  0  0  0  0  0  0  0
  144.1129  134.1952  150.5835 O   0  0  0  0  0  0  0  0  0  0  0  0
  144.1492  134.7767  151.8880 C   0  0  2  0  0  0  0  0  0  0  0  0
  142.8403  134.4733  152.6340 C   0  0  0  0  0  0  0  0  0  0  0  0
  144.6440  136.2345  151.8619 C   0  0  0  0  0  0  0  0  0  0  0  0
  145.4934  135.8757  153.0793 C   0  0  2  0  0  0  0  0  0  0  0  0
  146.7914  136.5422  153.0765 N   0  0  0  0  0  0  0  0  0  0  0  0
  147.0582  137.6825  153.7276 C   0  0  0  0  0  0  0  0  0  0  0  0
  146.2244  138.2933  154.3971 O   0  0  0  0  0  0  0  0  0  0  0  0
  148.3375  138.0557  153.5540 N   0  0  0  0  0  0  0  0  0  0  0  0
  148.9831  139.2026  154.0827 C   0  0  0  0  0  0  0  0  0  0  0  0
  148.3317  140.4649  154.0946 C   0  0  0  0  0  0  0  0  0  0  0  0
  149.2641  141.2814  154.6691 C   0  0  0  0  0  0  0  0  0  0  0  0
  150.3876  140.5827  154.9821 O   0  0  0  0  0  0  0  0  0  0  0  0
  150.2009  139.2480  154.6024 N   0  0  0  0  0  0  0  0  0  0  0  0
  145.5096  134.4124  152.5681 C   0  0  0  0  0  0  0  0  0  0  0  0
  145.4739  133.3287  153.6504 C   0  0  0  0  0  0  0  0  0  0  0  0
  146.6597  134.0203  151.6185 C   0  0  0  0  0  0  0  0  0  0  0  0
  143.8479  132.4788  149.4860 H   0  0  0  0  0  0  0  0  0  0  0  0
  143.0771  132.4434  151.0668 H   0  0  0  0  0  0  0  0  0  0  0  0
  144.8342  132.2630  150.9208 H   0  0  0  0  0  0  0  0  0  0  0  0
  142.8871  134.7809  153.6783 H   0  0  0  0  0  0  0  0  0  0  0  0
  142.6131  133.4071  152.6176 H   0  0  0  0  0  0  0  0  0  0  0  0
  141.9917  135.0000  152.1983 H   0  0  0  0  0  0  0  0  0  0  0  0
  145.2301  136.4831  150.9752 H   0  0  0  0  0  0  0  0  0  0  0  0
  143.8744  136.9826  152.0532 H   0  0  0  0  0  0  0  0  0  0  0  0
  144.9360  135.9973  154.0111 H   0  0  0  0  0  0  0  0  0  0  0  0
  147.5319  136.1029  152.5496 H   0  0  0  0  0  0  0  0  0  0  0  0
  148.9109  137.4561  152.9796 H   0  0  0  0  0  0  0  0  0  0  0  0
  147.3461  140.7304  153.7426 H   0  0  0  0  0  0  0  0  0  0  0  0
  149.2782  142.3336  154.9125 H   0  0  0  0  0  0  0  0  0  0  0  0
  146.4480  133.2042  154.1246 H   0  0  0  0  0  0  0  0  0  0  0  0
  145.1827  132.3627  153.2371 H   0  0  0  0  0  0  0  0  0  0  0  0
  144.7694  133.5683  154.4464 H   0  0  0  0  0  0  0  0  0  0  0  0
  147.6161  133.9756  152.1404 H   0  0  0  0  0  0  0  0  0  0  0  0
  146.7774  134.7266  150.7966 H   0  0  0  0  0  0  0  0  0  0  0  0
  146.4905  133.0393  151.1732 H   0  0  0  0  0  0  0  0  0  0  0  0
  1  2  1  0  0  0  0
  1 19  1  0  0  0  0
  1 20  1  0  0  0  0
  1 21  1  0  0  0  0
  2  3  1  0  0  0  0
  3 16  1  0  0  0  0
  3  4  1  0  0  0  0
  3  5  1  0  0  0  0
  4 22  1  0  0  0  0
  4 23  1  0  0  0  0
  4 24  1  0  0  0  0
  5  6  1  0  0  0  0
  5 25  1  0  0  0  0
  5 26  1  0  0  0  0
  6  7  1  0  0  0  0
  6 16  1  0  0  0  0
  6 27  1  0  0  0  0
  7  8  1  0  0  0  0
  7 28  1  0  0  0  0
  8  9  2  0  0  0  0
  8 10  1  0  0  0  0
 10 11  1  0  0  0  0
 10 29  1  0  0  0  0
 11 15  2  0  0  0  0
 11 12  1  0  0  0  0
 12 13  2  0  0  0  0
 12 30  1  0  0  0  0
 13 14  1  0  0  0  0
 13 31  1  0  0  0  0
 14 15  1  0  0  0  0
 16 17  1  0  0  0  0
 16 18  1  0  0  0  0
 17 32  1  0  0  0  0
 17 33  1  0  0  0  0
 17 34  1  0  0  0  0
 18 35  1  0  0  0  0
 18 36  1  0  0  0  0
 18 37  1  0  0  0  0
M  END
> <s_m_source_file>
AV-unprocessed.smi

> <i_m_source_file_index>
3315

> <i_lp_mmshare_version>
43012

> <i_f3d_flags>
0

> <s_epik_input>
W0NIM11PW0NAQF0xKFtDSDNdKVtDSDJdW0NASF0oQzEoW0NIM10pW0NIM10pW05IXUMoPU8pW05IXWMyW2NIXVtjSF1vbjI=

> <s_epik_cmdline>
J2VwaWtfcHl0aG9uJywgJy1waCcsICc3LjAnLCAnLXRuJywgJzgnLCAnLW1hJywgJzIwMCcsICctbWV0YWxfYmluZGluZycsICctaW1hZScsICc8aW5maWxlLm1hZT4nLCAnLW9tYWUnLCAnPG91dGZpbGUubWFlPic=

> <r_lp_tautomer_probability>
1

> <r_epik_Ionization_Penalty>
2.28875e-05

> <r_epik_Ionization_Penalty_Charging>
0

> <r_epik_Ionization_Penalty_Neutral>
2.28875e-05

> <r_epik_State_Penalty>
-0

> <r_epik_Charging_Adjusted_Penalty>
0

> <i_epik_Tot_Q>
0

> <i_epik_Tot_abs_Q>
0

> <r_epik_Metal_State_Penalty>
-0

> <b_epik_Metal_Only>
0

> <s_lp_Force_Field>
OPLS_2005

> <r_lp_Energy>
21.6117

> <b_lp_Chiralities_Consistent>
1

> <s_lp_Variant>
AV-unprocessed.smi:3315-4

> <Gold.Version>
5.8.1

> <Gold.Id.Protein>
6NUR|6NUR_protein|mol2

> <Gold.PLP.Fitness>
33.7486

> <Gold.PLP.PLP>
-24.1092

> <Gold.PLP.part.hbond>
-2.8792

> <Gold.PLP.part.metal>
0.0000

> <Gold.PLP.part.buried>
-1.8079

> <Gold.PLP.part.nonpolar>
-19.8610

> <Gold.PLP.part.repulsive>
0.5411

> <Gold.PLP.ligand.clash>
0.0000

> <Gold.PLP.ligand.torsion>
0.6799

> <Gold.PLP.Chemscore.Hbond>
2.5440

> <Gold.PLP.Chemscore.CHOScore>
0.9995

> <Gold.PLP.Chemscore.Metal>
0.0000

> <Gold.Chemscore.Hbonds>
donor molecule, donor type, donor heavy atom, donor atom, acceptor molecule, acceptor atom, score
      L1  H     7    28       P1  7948  0.98
      L1  H    10    29       P1  7948  0.96
      P1  H  7989  7998       L1    14  0.57
      L1  C    13    31       P1  8028  1.00

> <Gold.PLP.Chemscore.Internal.Correction>
0.3688

> <Gold.Rescore>
     Score         DG    S(hbond)    S(metal)    S(lipo)     H(rot)  DE(clash)    DE(int)     intcor
     13.83     -14.64       1.93        0.00      51.82       1.30       0.05       0.75       ----

> <Gold.Chemscore.Fitness>
13.8334

> <Gold.Chemscore.DG>
-14.6400

> <Gold.Chemscore.ZeroCoef>
-5.4800

> <Gold.Chemscore.Hbond>
1.9266

> <Gold.Chemscore.Metal>
0.0000

> <Gold.Chemscore.Lipo>
51.8195

> <Gold.Chemscore.Internal_Hbond>
0.0000

> <Gold.Chemscore.DEClash>
0.0539

> <Gold.Chemscore.DEInternal>
0.7527

> <Gold.Chemscore.Rot>
1.3038

> <Gold.Chemscore.Internal.Correction>
   9.000000E+99

> <Gold.Chemscore.Hbonds>
donor molecule, donor type, donor heavy atom, donor atom, acceptor molecule, acceptor atom, score
      L1  H     7    28       P1  7948  0.91
      L1  H    10    29       P1  7948  0.92
      P1  H  7989  7998       L1    14  0.02

> <Gold.Chemscore.Hbond.Weighted>
-6.4349

> <Gold.Chemscore.Metal.Weighted>
-0.0000

> <Gold.Chemscore.Lipo.Weighted>
-6.0629

> <Gold.Chemscore.Internal_Hbond.Weighted>
0.0000

> <Gold.Chemscore.DEClash.Weighted>
0.0539

> <Gold.Chemscore.DEInternal.Weighted>
0.7527

> <Gold.Chemscore.Rot.Weighted>
3.3377

> <Gold.Chemscore.Internal.Correction.Weighted>
   9.000000E+99

> <Gold.Protein.RotatedTorsions>
[ 6907 6896 6895 6894 ] final   26.25 input  -60.11 | X-H torsion
[ 7974 7965 7964 7962 ] final   63.37 input  175.53 | X-H torsion
[ 8008 7997 7996 7995 ] final -134.16 input   59.86 | X-H torsion
[ 10167 10162 10161 10158 ] final  147.11 input  -65.29 | X-H torsion
[ 10718 10713 10712 10709 ] final   88.75 input   66.30 | X-H torsion
[ 10763 10752 10751 10750 ] final   71.43 input  -60.55 | X-H torsion
[ 11005 11000 10999 10996 ] final  -77.74 input  -57.11 | X-H torsion

> <Gold.Protein.ActiveResidues>
 VAL166  LYS551  ARG553  GLY616  TRP617  ASP618  TYR619  PRO620  LYS621  CYS622 
 ASP623  PHE694  ASN695  SER759  ASP760  ASP761  ALA762  ILE779  LEU786  VAL792 
 PHE793  MET794  SER795  GLU796  ALA797  LYS798  CYS799  TRP800  GLU811  SER814 

> <Gold.Protein.RotatedAtoms>
  151.9847  135.0010  160.0558 H   0  0  0  0  0  0  0  0  0  0  0  0  # atno 6907 bound_to 6896
  152.1664  133.4610  159.4895 H   0  0  0  0  0  0  0  0  0  0  0  0  # atno 6908 bound_to 6896
  150.6895  134.1926  159.4334 H   0  0  0  0  0  0  0  0  0  0  0  0  # atno 6909 bound_to 6896
  145.8626  139.3325  143.0810 H   0  0  0  0  0  0  0  0  0  0  0  0  # atno 7974 bound_to 7965
  155.3575  140.0481  157.3046 H   0  0  0  0  0  0  0  0  0  0  0  0  # atno 8008 bound_to 7997
  154.5195  140.2220  155.8966 H   0  0  0  0  0  0  0  0  0  0  0  0  # atno 8009 bound_to 7997
  156.1674  140.3103  155.8918 H   0  0  0  0  0  0  0  0  0  0  0  0  # atno 8010 bound_to 7997
  139.4895  144.5779  151.6928 H   0  0  0  0  0  0  0  0  0  0  0  0  # atno 10167 bound_to 10162
  157.6951  131.0307  150.3322 H   0  0  0  0  0  0  0  0  0  0  0  0  # atno 10718 bound_to 10713
  153.0398  135.5137  154.7592 H   0  0  0  0  0  0  0  0  0  0  0  0  # atno 10763 bound_to 10752
  154.6538  135.2929  154.9956 H   0  0  0  0  0  0  0  0  0  0  0  0  # atno 10764 bound_to 10752
  154.0830  135.6661  153.4893 H   0  0  0  0  0  0  0  0  0  0  0  0  # atno 10765 bound_to 10752
  141.1662  133.7034  156.7865 H   0  0  0  0  0  0  0  0  0  0  0  0  # atno 11005 bound_to 11000
  145.9230  140.9102  143.0395 LP  0  0  0  0  0  0  0  0  0  0  0  0  # atno 17320 bound_to 7965
  144.6726  140.1315  143.7443 LP  0  0  0  0  0  0  0  0  0  0  0  0  # atno 17321 bound_to 7965
  140.5380  144.0625  150.6077 LP  0  0  0  0  0  0  0  0  0  0  0  0  # atno 17342 bound_to 10162
  140.3638  143.2893  152.0355 LP  0  0  0  0  0  0  0  0  0  0  0  0  # atno 17343 bound_to 10162
  156.3794  130.3878  149.7113 LP  0  0  0  0  0  0  0  0  0  0  0  0  # atno 17370 bound_to 10713
  156.4501  130.7902  151.2924 LP  0  0  0  0  0  0  0  0  0  0  0  0  # atno 17371 bound_to 10713
  140.2356  134.8652  157.3521 LP  0  0  0  0  0  0  0  0  0  0  0  0  # atno 17394 bound_to 11000
  140.1847  134.4446  155.7751 LP  0  0  0  0  0  0  0  0  0  0  0  0  # atno 17395 bound_to 11000

$$$$
