AV-unprocessed.smi:2424|AV-procd|sdf|9563|dock3
  -GOLD-   2272013193D 1   1.00000     0.00000
 Structure written by MMmdl.
 50 51  0  0  0  0  0  0  0  0  1 V2000
  150.6822  139.2698  154.7962 C   0  0  0  0  0  0  0  0  0  0  0  0
  149.5095  138.9986  153.8385 C   0  0  0  0  0  0  0  0  0  0  0  0
  148.1860  139.7095  154.2092 C   0  0  0  0  0  0  0  0  0  0  0  0
  148.4175  141.2447  154.2145 C   0  0  0  0  0  0  0  0  0  0  0  0
  147.1603  142.1275  154.3270 C   0  0  0  0  0  0  0  0  0  0  0  0
  146.9065  139.2952  153.4211 C   0  0  1  0  0  0  0  0  0  0  0  0
  146.9639  137.9388  152.8674 N   0  0  0  0  0  0  0  0  0  0  0  0
  145.9297  137.2695  152.3413 C   0  0  0  0  0  0  0  0  0  0  0  0
  144.7952  137.7380  152.2523 O   0  0  0  0  0  0  0  0  0  0  0  0
  146.3118  136.0421  151.9428 N   0  0  0  0  0  0  0  0  0  0  0  0
  145.5592  135.0386  151.3156 C   0  0  0  0  0  0  0  0  0  0  0  0
  144.2213  135.0601  151.1349 C   0  0  0  0  0  0  0  0  0  0  0  0
  143.5604  134.0135  150.4863 N   0  0  0  0  0  0  0  0  0  0  0  0
  144.1733  132.9150  149.9891 C   0  0  0  0  0  0  0  0  0  0  0  0
  143.5204  132.0351  149.4308 O   0  0  0  0  0  0  0  0  0  0  0  0
  145.6333  132.8703  150.1691 C   0  0  0  0  0  0  0  0  0  0  0  0
  146.3847  131.6650  149.6333 C   0  0  0  0  0  0  0  0  0  0  0  0
  146.2699  133.8844  150.7982 C   0  0  0  0  0  0  0  0  0  0  0  0
  146.1035  139.3282  154.7339 C   0  0  1  0  0  0  0  0  0  0  0  0
  144.9567  138.3468  154.9673 C   0  0  0  0  0  0  0  0  0  0  0  0
  147.4499  139.1292  155.4476 C   0  0  2  0  0  0  0  0  0  0  0  0
  147.6143  139.8996  156.6281 O   0  0  0  0  0  0  0  0  0  0  0  0
  146.7992  139.4625  157.7011 C   0  0  0  0  0  0  0  0  0  0  0  0
  142.5587  134.0953  150.3894 H   0  0  0  0  0  0  0  0  0  0  0  0
  151.5985  138.8173  154.4170 H   0  0  0  0  0  0  0  0  0  0  0  0
  150.5030  138.8514  155.7861 H   0  0  0  0  0  0  0  0  0  0  0  0
  150.8678  140.3367  154.9142 H   0  0  0  0  0  0  0  0  0  0  0  0
  149.8233  139.2934  152.8371 H   0  0  0  0  0  0  0  0  0  0  0  0
  149.3570  137.9230  153.7540 H   0  0  0  0  0  0  0  0  0  0  0  0
  149.1040  141.5152  155.0171 H   0  0  0  0  0  0  0  0  0  0  0  0
  148.9376  141.5430  153.3043 H   0  0  0  0  0  0  0  0  0  0  0  0
  147.4202  143.1765  154.1849 H   0  0  0  0  0  0  0  0  0  0  0  0
  146.6945  142.0485  155.3089 H   0  0  0  0  0  0  0  0  0  0  0  0
  146.4106  141.8744  153.5788 H   0  0  0  0  0  0  0  0  0  0  0  0
  146.5721  140.0546  152.7118 H   0  0  0  0  0  0  0  0  0  0  0  0
  147.8611  137.4775  152.8960 H   0  0  0  0  0  0  0  0  0  0  0  0
  147.2754  135.7976  152.1175 H   0  0  0  0  0  0  0  0  0  0  0  0
  143.5505  135.8458  151.4443 H   0  0  0  0  0  0  0  0  0  0  0  0
  147.4556  131.7466  149.8219 H   0  0  0  0  0  0  0  0  0  0  0  0
  146.2378  131.5723  148.5568 H   0  0  0  0  0  0  0  0  0  0  0  0
  146.0272  130.7514  150.1096 H   0  0  0  0  0  0  0  0  0  0  0  0
  147.3423  133.8348  150.9224 H   0  0  0  0  0  0  0  0  0  0  0  0
  145.7538  140.3490  154.8967 H   0  0  0  0  0  0  0  0  0  0  0  0
  145.3073  137.3154  155.0071 H   0  0  0  0  0  0  0  0  0  0  0  0
  144.2153  138.4137  154.1709 H   0  0  0  0  0  0  0  0  0  0  0  0
  144.4430  138.5524  155.9061 H   0  0  0  0  0  0  0  0  0  0  0  0
  147.6884  138.0742  155.6016 H   0  0  0  0  0  0  0  0  0  0  0  0
  147.0134  140.0602  158.5870 H   0  0  0  0  0  0  0  0  0  0  0  0
  146.9938  138.4177  157.9460 H   0  0  0  0  0  0  0  0  0  0  0  0
  145.7404  139.5782  157.4705 H   0  0  0  0  0  0  0  0  0  0  0  0
  1  2  1  0  0  0  0
  1 25  1  0  0  0  0
  1 26  1  0  0  0  0
  1 27  1  0  0  0  0
  2  3  1  0  0  0  0
  2 28  1  0  0  0  0
  2 29  1  0  0  0  0
  3 21  1  0  0  0  0
  3  4  1  0  0  0  0
  3  6  1  0  0  0  0
  4  5  1  0  0  0  0
  4 30  1  0  0  0  0
  4 31  1  0  0  0  0
  5 32  1  0  0  0  0
  5 33  1  0  0  0  0
  5 34  1  0  0  0  0
  6  7  1  0  0  0  0
  6 19  1  0  0  0  0
  6 35  1  0  0  0  0
  7  8  1  0  0  0  0
  7 36  1  0  0  0  0
  8  9  2  0  0  0  0
  8 10  1  0  0  0  0
 10 11  1  0  0  0  0
 10 37  1  0  0  0  0
 11 18  1  0  0  0  0
 11 12  2  0  0  0  0
 12 13  1  0  0  0  0
 12 38  1  0  0  0  0
 13 24  1  0  0  0  0
 13 14  1  0  0  0  0
 14 15  2  0  0  0  0
 14 16  1  0  0  0  0
 16 17  1  0  0  0  0
 16 18  2  0  0  0  0
 17 39  1  0  0  0  0
 17 40  1  0  0  0  0
 17 41  1  0  0  0  0
 18 42  1  0  0  0  0
 19 20  1  0  0  0  0
 19 21  1  0  0  0  0
 19 43  1  0  0  0  0
 20 44  1  0  0  0  0
 20 45  1  0  0  0  0
 20 46  1  0  0  0  0
 21 22  1  0  0  0  0
 21 47  1  0  0  0  0
 22 23  1  0  0  0  0
 23 48  1  0  0  0  0
 23 49  1  0  0  0  0
 23 50  1  0  0  0  0
M  END
> <s_m_source_file>
AV-unprocessed.smi

> <i_m_source_file_index>
2424

> <i_lp_mmshare_version>
43012

> <i_f3d_flags>
0

> <s_epik_input>
W0NIM11PW0NAQEhdMVtDQEhdKFtDSDNdKVtDQEBIXShDMShbQ0gyXVtDSDNdKVtDSDJdW0NIM10pW05IXUMoPU8pW05IXWMyW2NIXVtuSF1jKD1PKWMoW0NIM10pW2NIXTI=

> <s_epik_cmdline>
J2VwaWtfcHl0aG9uJywgJy1waCcsICc3LjAnLCAnLXRuJywgJzgnLCAnLW1hJywgJzIwMCcsICctbWV0YWxfYmluZGluZycsICctaW1hZScsICc8aW5maWxlLm1hZT4nLCAnLW9tYWUnLCAnPG91dGZpbGUubWFlPic=

> <r_lp_tautomer_probability>
1

> <r_epik_Ionization_Penalty>
4.7326e-05

> <r_epik_Ionization_Penalty_Charging>
2.70169e-05

> <r_epik_Ionization_Penalty_Neutral>
2.0309e-05

> <r_epik_State_Penalty>
-0

> <r_epik_Charging_Adjusted_Penalty>
2.70169e-05

> <i_epik_Tot_Q>
0

> <i_epik_Tot_abs_Q>
0

> <r_epik_Metal_State_Penalty>
0.0198736

> <b_epik_Metal_Only>
0

> <s_lp_Force_Field>
OPLS_2005

> <r_lp_Energy>
37.0133

> <b_lp_Chiralities_Consistent>
1

> <s_lp_Variant>
AV-unprocessed.smi:2424-5

> <Gold.Version>
5.8.1

> <Gold.Id.Protein>
6NUR|6NUR_protein|mol2

> <Gold.PLP.Fitness>
45.3958

> <Gold.PLP.PLP>
-34.1905

> <Gold.PLP.part.hbond>
-4.0000

> <Gold.PLP.part.metal>
0.0000

> <Gold.PLP.part.buried>
-1.3750

> <Gold.PLP.part.nonpolar>
-33.3848

> <Gold.PLP.part.repulsive>
4.0785

> <Gold.PLP.ligand.clash>
0.0000

> <Gold.PLP.ligand.torsion>
0.3659

> <Gold.PLP.Chemscore.Hbond>
3.7760

> <Gold.PLP.Chemscore.CHOScore>
0.0000

> <Gold.PLP.Chemscore.Metal>
0.0000

> <Gold.Chemscore.Hbonds>
donor molecule, donor type, donor heavy atom, donor atom, acceptor molecule, acceptor atom, score
      L1  H     7    36       P1  7948  0.82
      L1  H    10    37       P1  7948  0.91
      L1  H    13    24       P1 10186  1.00
      P1  H 10785 10796       L1    15  0.97

> <Gold.PLP.Chemscore.Internal.Correction>
0.6091

> <Gold.Rescore>
     Score         DG    S(hbond)    S(metal)    S(lipo)     H(rot)  DE(clash)    DE(int)     intcor
     14.90     -24.33       3.69        0.00      89.77       1.55       4.71       4.72       ----

> <Gold.Chemscore.Fitness>
14.9012

> <Gold.Chemscore.DG>
-24.3316

> <Gold.Chemscore.ZeroCoef>
-5.4800

> <Gold.Chemscore.Hbond>
3.6878

> <Gold.Chemscore.Metal>
0.0000

> <Gold.Chemscore.Lipo>
89.7690

> <Gold.Chemscore.Internal_Hbond>
0.0000

> <Gold.Chemscore.DEClash>
4.7107

> <Gold.Chemscore.DEInternal>
4.7197

> <Gold.Chemscore.Rot>
1.5502

> <Gold.Chemscore.Internal.Correction>
   9.000000E+99

> <Gold.Chemscore.Hbonds>
donor molecule, donor type, donor heavy atom, donor atom, acceptor molecule, acceptor atom, score
      L1  H     7    36       P1  7948  0.79
      L1  H    10    37       P1  7948  0.90
      L1  H    13    24       P1 10186  0.87
      P1  H 10785 10796       L1    15  0.87

> <Gold.Chemscore.Hbond.Weighted>
-12.3171

> <Gold.Chemscore.Metal.Weighted>
-0.0000

> <Gold.Chemscore.Lipo.Weighted>
-10.5030

> <Gold.Chemscore.Internal_Hbond.Weighted>
0.0000

> <Gold.Chemscore.DEClash.Weighted>
4.7107

> <Gold.Chemscore.DEInternal.Weighted>
4.7197

> <Gold.Chemscore.Rot.Weighted>
3.9685

> <Gold.Chemscore.Internal.Correction.Weighted>
   9.000000E+99

> <Gold.Protein.RotatedTorsions>
[ 6907 6896 6895 6894 ] final   -6.28 input  -60.11 | X-H torsion
[ 7974 7965 7964 7962 ] final  141.83 input  175.53 | X-H torsion
[ 8008 7997 7996 7995 ] final -145.05 input   59.86 | X-H torsion
[ 10167 10162 10161 10158 ] final   19.02 input  -65.29 | X-H torsion
[ 10718 10713 10712 10709 ] final  154.10 input   66.30 | X-H torsion
[ 10763 10752 10751 10750 ] final   24.26 input  -60.55 | X-H torsion
[ 11005 11000 10999 10996 ] final  153.35 input  -57.11 | X-H torsion

> <Gold.Protein.ActiveResidues>
 VAL166  LYS551  ARG553  GLY616  TRP617  ASP618  TYR619  PRO620  LYS621  CYS622 
 ASP623  PHE694  ASN695  SER759  ASP760  ASP761  ALA762  ILE779  LEU786  VAL792 
 PHE793  MET794  SER795  GLU796  ALA797  LYS798  CYS799  TRP800  GLU811  SER814 

> <Gold.Protein.RotatedAtoms>
  151.4680  135.1043  159.9743 H   0  0  0  0  0  0  0  0  0  0  0  0  # atno 6907 bound_to 6896
  152.4827  133.8291  159.7104 H   0  0  0  0  0  0  0  0  0  0  0  0  # atno 6908 bound_to 6896
  150.8912  133.7180  159.2931 H   0  0  0  0  0  0  0  0  0  0  0  0  # atno 6909 bound_to 6896
  144.9061  139.5356  143.5730 H   0  0  0  0  0  0  0  0  0  0  0  0  # atno 7974 bound_to 7965
  155.5369  140.0604  157.2878 H   0  0  0  0  0  0  0  0  0  0  0  0  # atno 8008 bound_to 7997
  154.4465  140.1926  156.0595 H   0  0  0  0  0  0  0  0  0  0  0  0  # atno 8009 bound_to 7997
  156.0612  140.3272  155.7468 H   0  0  0  0  0  0  0  0  0  0  0  0  # atno 8010 bound_to 7997
  140.5610  143.9337  150.6643 H   0  0  0  0  0  0  0  0  0  0  0  0  # atno 10167 bound_to 10162
  157.2361  131.0749  151.1822 H   0  0  0  0  0  0  0  0  0  0  0  0  # atno 10718 bound_to 10713
  153.0777  135.6609  154.0111 H   0  0  0  0  0  0  0  0  0  0  0  0  # atno 10763 bound_to 10752
  153.9740  135.2961  155.3426 H   0  0  0  0  0  0  0  0  0  0  0  0  # atno 10764 bound_to 10752
  154.7169  135.5181  153.8823 H   0  0  0  0  0  0  0  0  0  0  0  0  # atno 10765 bound_to 10752
  140.1390  134.8752  157.2305 H   0  0  0  0  0  0  0  0  0  0  0  0  # atno 11005 bound_to 11000
  146.3134  139.7831  142.9002 LP  0  0  0  0  0  0  0  0  0  0  0  0  # atno 17320 bound_to 7965
  145.3533  141.0311  143.3326 LP  0  0  0  0  0  0  0  0  0  0  0  0  # atno 17321 bound_to 7965
  140.2788  143.3404  152.1171 LP  0  0  0  0  0  0  0  0  0  0  0  0  # atno 17342 bound_to 10162
  139.5070  144.6824  151.5974 LP  0  0  0  0  0  0  0  0  0  0  0  0  # atno 17343 bound_to 10162
  157.3428  130.7042  149.6392 LP  0  0  0  0  0  0  0  0  0  0  0  0  # atno 17370 bound_to 10713
  155.9672  130.4275  150.4746 LP  0  0  0  0  0  0  0  0  0  0  0  0  # atno 17371 bound_to 10713
  140.2746  134.3420  155.7362 LP  0  0  0  0  0  0  0  0  0  0  0  0  # atno 17394 bound_to 11000
  141.2183  133.7443  156.9274 LP  0  0  0  0  0  0  0  0  0  0  0  0  # atno 17395 bound_to 11000

$$$$
