AV-unprocessed.smi:1841|AV-procd|sdf|7497|dock2
  -GOLD-   22720 9193D 1   1.00000     0.00000
 Structure written by MMmdl.
 40 41  0  0  0  0  0  0  0  0  1 V2000
  145.7878  136.9032  150.8353 C   0  0  0  0  0  0  0  0  0  0  0  0
  146.5594  138.0342  151.1996 O   0  0  0  0  0  0  0  0  0  0  0  0
  146.3755  138.4037  152.5561 C   0  0  0  0  0  0  0  0  0  0  0  0
  147.4476  139.4253  152.9468 C   0  0  0  0  0  0  0  0  0  0  0  0
  148.5034  138.7454  153.6191 O   0  0  0  0  0  0  0  0  0  0  0  0
  149.3416  139.4735  154.4377 C   0  0  0  0  0  0  0  0  0  0  0  0
  150.5986  138.9295  154.7677 C   0  0  0  0  0  0  0  0  0  0  0  0
  151.4589  139.6616  155.6080 C   0  0  0  0  0  0  0  0  0  0  0  0
  151.0289  140.9167  156.1010 C   0  0  0  0  0  0  0  0  0  0  0  0
  151.8073  141.7550  156.9441 N   0  0  0  0  0  0  0  0  0  0  0  0
  151.3930  142.7480  157.7528 C   0  0  0  0  0  0  0  0  0  0  0  0
  150.2207  143.1018  157.8801 O   0  0  0  0  0  0  0  0  0  0  0  0
  152.4958  143.4797  158.5355 C   0  0  1  0  0  0  0  0  0  0  0  0
  151.8994  144.4510  159.5751 C   0  0  0  0  0  0  0  0  0  0  0  0
  152.2732  143.8347  160.9128 C   0  0  0  0  0  0  0  0  0  0  0  0
  151.8774  144.2816  161.9882 O   0  0  0  0  0  0  0  0  0  0  0  0
  153.0580  142.7668  160.7443 N   0  0  0  0  0  0  0  0  0  0  0  0
  153.5800  141.9157  161.8050 C   0  0  0  0  0  0  0  0  0  0  0  0
  153.3814  142.5114  159.3512 C   0  0  0  0  0  0  0  0  0  0  0  0
  149.7599  141.3802  155.6961 C   0  0  0  0  0  0  0  0  0  0  0  0
  148.9302  140.6834  154.8912 N   0  0  0  0  0  0  0  0  0  0  0  0
  145.9692  136.6578  149.7889 H   0  0  0  0  0  0  0  0  0  0  0  0
  144.7214  137.0991  150.9549 H   0  0  0  0  0  0  0  0  0  0  0  0
  146.0542  136.0330  151.4366 H   0  0  0  0  0  0  0  0  0  0  0  0
  145.3783  138.8154  152.7193 H   0  0  0  0  0  0  0  0  0  0  0  0
  146.4715  137.5172  153.1844 H   0  0  0  0  0  0  0  0  0  0  0  0
  147.8392  139.8976  152.0443 H   0  0  0  0  0  0  0  0  0  0  0  0
  147.0120  140.2057  153.5732 H   0  0  0  0  0  0  0  0  0  0  0  0
  150.8988  137.9667  154.3811 H   0  0  0  0  0  0  0  0  0  0  0  0
  152.4288  139.2528  155.8450 H   0  0  0  0  0  0  0  0  0  0  0  0
  152.8068  141.6297  156.8744 H   0  0  0  0  0  0  0  0  0  0  0  0
  153.1217  144.0350  157.8345 H   0  0  0  0  0  0  0  0  0  0  0  0
  152.3489  145.4410  159.4924 H   0  0  0  0  0  0  0  0  0  0  0  0
  150.8167  144.5660  159.4985 H   0  0  0  0  0  0  0  0  0  0  0  0
  154.0079  142.5145  162.6103 H   0  0  0  0  0  0  0  0  0  0  0  0
  154.3597  141.2537  161.4272 H   0  0  0  0  0  0  0  0  0  0  0  0
  152.7826  141.2995  162.2213 H   0  0  0  0  0  0  0  0  0  0  0  0
  153.2088  141.4619  159.1053 H   0  0  0  0  0  0  0  0  0  0  0  0
  154.4390  142.7189  159.1825 H   0  0  0  0  0  0  0  0  0  0  0  0
  149.3932  142.3387  156.0335 H   0  0  0  0  0  0  0  0  0  0  0  0
  1  2  1  0  0  0  0
  1 22  1  0  0  0  0
  1 23  1  0  0  0  0
  1 24  1  0  0  0  0
  2  3  1  0  0  0  0
  3  4  1  0  0  0  0
  3 25  1  0  0  0  0
  3 26  1  0  0  0  0
  4  5  1  0  0  0  0
  4 27  1  0  0  0  0
  4 28  1  0  0  0  0
  5  6  1  0  0  0  0
  6 21  1  0  0  0  0
  6  7  2  0  0  0  0
  7  8  1  0  0  0  0
  7 29  1  0  0  0  0
  8  9  2  0  0  0  0
  8 30  1  0  0  0  0
  9 10  1  0  0  0  0
  9 20  1  0  0  0  0
 10 11  1  0  0  0  0
 10 31  1  0  0  0  0
 11 12  2  0  0  0  0
 11 13  1  0  0  0  0
 13 19  1  0  0  0  0
 13 14  1  0  0  0  0
 13 32  1  0  0  0  0
 14 15  1  0  0  0  0
 14 33  1  0  0  0  0
 14 34  1  0  0  0  0
 15 16  2  0  0  0  0
 15 17  1  0  0  0  0
 17 18  1  0  0  0  0
 17 19  1  0  0  0  0
 18 35  1  0  0  0  0
 18 36  1  0  0  0  0
 18 37  1  0  0  0  0
 19 38  1  0  0  0  0
 19 39  1  0  0  0  0
 20 21  2  0  0  0  0
 20 40  1  0  0  0  0
M  END
> <s_m_source_file>
AV-unprocessed.smi

> <i_m_source_file_index>
1841

> <i_lp_mmshare_version>
43012

> <i_f3d_flags>
0

> <s_epik_input>
W0NIM11PW0NIMl1bQ0gyXU9jMVtjSF1bY0hdYyhbY0hdbjEpW05IXUMoPU8pW0NAQEhdMltDSDJdQyg9TylOKFtDSDNdKVtDSDJdMg==

> <s_epik_cmdline>
J2VwaWtfcHl0aG9uJywgJy1waCcsICc3LjAnLCAnLXRuJywgJzgnLCAnLW1hJywgJzIwMCcsICctbWV0YWxfYmluZGluZycsICctaW1hZScsICc8aW5maWxlLm1hZT4nLCAnLW9tYWUnLCAnPG91dGZpbGUubWFlPic=

> <r_lp_tautomer_probability>
1

> <r_epik_Ionization_Penalty>
1.70347e-05

> <r_epik_Ionization_Penalty_Charging>
0

> <r_epik_Ionization_Penalty_Neutral>
1.70347e-05

> <r_epik_State_Penalty>
-0

> <r_epik_Charging_Adjusted_Penalty>
0

> <i_epik_Tot_Q>
0

> <i_epik_Tot_abs_Q>
0

> <r_epik_Metal_State_Penalty>
-0

> <b_epik_Metal_Only>
0

> <s_lp_Force_Field>
OPLS_2005

> <r_lp_Energy>
17.1342

> <b_lp_Chiralities_Consistent>
1

> <s_lp_Variant>
AV-unprocessed.smi:1841-2

> <Gold.Version>
5.8.1

> <Gold.Id.Protein>
6NUR|6NUR_protein|mol2

> <Gold.PLP.Fitness>
42.9971

> <Gold.PLP.PLP>
-38.7077

> <Gold.PLP.part.hbond>
-1.0000

> <Gold.PLP.part.metal>
0.0000

> <Gold.PLP.part.buried>
0.7336

> <Gold.PLP.part.nonpolar>
-45.5519

> <Gold.PLP.part.repulsive>
5.7872

> <Gold.PLP.ligand.clash>
0.0000

> <Gold.PLP.ligand.torsion>
0.8865

> <Gold.PLP.Chemscore.Hbond>
1.0000

> <Gold.PLP.Chemscore.CHOScore>
1.0000

> <Gold.PLP.Chemscore.Metal>
0.0000

> <Gold.Chemscore.Hbonds>
donor molecule, donor type, donor heavy atom, donor atom, acceptor molecule, acceptor atom, score
      P1  H  7954  7966       L1     2  0.89
      L1  C    20    40       P1  8028  1.00

> <Gold.PLP.Chemscore.Internal.Correction>
0.0624

> <Gold.Rescore>
     Score         DG    S(hbond)    S(metal)    S(lipo)     H(rot)  DE(clash)    DE(int)     intcor
      7.95     -10.55       0.00        0.00      85.91       1.95       0.21       2.39       ----

> <Gold.Chemscore.Fitness>
7.9545

> <Gold.Chemscore.DG>
-10.5476

> <Gold.Chemscore.ZeroCoef>
-5.4800

> <Gold.Chemscore.Hbond>
0.0000

> <Gold.Chemscore.Metal>
0.0000

> <Gold.Chemscore.Lipo>
85.9098

> <Gold.Chemscore.Internal_Hbond>
0.0000

> <Gold.Chemscore.DEClash>
0.2076

> <Gold.Chemscore.DEInternal>
2.3855

> <Gold.Chemscore.Rot>
1.9468

> <Gold.Chemscore.Internal.Correction>
   9.000000E+99

> <Gold.Chemscore.Hbonds>
donor molecule, donor type, donor heavy atom, donor atom, acceptor molecule, acceptor atom, score
      P1  H  7954  7966       L1     2  0.26

> <Gold.Chemscore.Hbond.Weighted>
-0.0000

> <Gold.Chemscore.Metal.Weighted>
-0.0000

> <Gold.Chemscore.Lipo.Weighted>
-10.0514

> <Gold.Chemscore.Internal_Hbond.Weighted>
0.0000

> <Gold.Chemscore.DEClash.Weighted>
0.2076

> <Gold.Chemscore.DEInternal.Weighted>
2.3855

> <Gold.Chemscore.Rot.Weighted>
4.9839

> <Gold.Chemscore.Internal.Correction.Weighted>
   9.000000E+99

> <Gold.Protein.RotatedTorsions>
[ 6907 6896 6895 6894 ] final -131.34 input  -60.11 | X-H torsion
[ 7974 7965 7964 7962 ] final  127.64 input  175.53 | X-H torsion
[ 8008 7997 7996 7995 ] final  165.44 input   59.86 | X-H torsion
[ 10167 10162 10161 10158 ] final   -0.92 input  -65.29 | X-H torsion
[ 10718 10713 10712 10709 ] final -123.78 input   66.30 | X-H torsion
[ 10763 10752 10751 10750 ] final   20.47 input  -60.55 | X-H torsion
[ 11005 11000 10999 10996 ] final  178.69 input  -57.11 | X-H torsion

> <Gold.Protein.ActiveResidues>
 VAL166  LYS551  ARG553  GLY616  TRP617  ASP618  TYR619  PRO620  LYS621  CYS622 
 ASP623  PHE694  ASN695  SER759  ASP760  ASP761  ALA762  ILE779  LEU786  VAL792 
 PHE793  MET794  SER795  GLU796  ALA797  LYS798  CYS799  TRP800  GLU811  SER814 

> <Gold.Protein.RotatedAtoms>
  150.9498  133.6562  159.2773 H   0  0  0  0  0  0  0  0  0  0  0  0  # atno 6907 bound_to 6896
  151.3921  135.0956  159.9539 H   0  0  0  0  0  0  0  0  0  0  0  0  # atno 6908 bound_to 6896
  152.5105  133.9010  159.7496 H   0  0  0  0  0  0  0  0  0  0  0  0  # atno 6909 bound_to 6896
  145.0483  139.3904  143.5067 H   0  0  0  0  0  0  0  0  0  0  0  0  # atno 7974 bound_to 7965
  156.1800  140.1670  156.8292 H   0  0  0  0  0  0  0  0  0  0  0  0  # atno 8008 bound_to 7997
  154.5349  140.0749  156.8443 H   0  0  0  0  0  0  0  0  0  0  0  0  # atno 8009 bound_to 7997
  155.3331  140.3380  155.4241 H   0  0  0  0  0  0  0  0  0  0  0  0  # atno 8010 bound_to 7997
  140.6788  143.6837  150.8084 H   0  0  0  0  0  0  0  0  0  0  0  0  # atno 10167 bound_to 10162
  156.1532  130.6549  150.9943 H   0  0  0  0  0  0  0  0  0  0  0  0  # atno 10718 bound_to 10713
  153.1074  135.6688  153.9561 H   0  0  0  0  0  0  0  0  0  0  0  0  # atno 10763 bound_to 10752
  153.9114  135.3024  155.3450 H   0  0  0  0  0  0  0  0  0  0  0  0  # atno 10764 bound_to 10752
  154.7495  135.5041  153.9340 H   0  0  0  0  0  0  0  0  0  0  0  0  # atno 10765 bound_to 10752
  140.3979  134.6803  157.4545 H   0  0  0  0  0  0  0  0  0  0  0  0  # atno 11005 bound_to 11000
  146.3516  140.0120  142.8666 LP  0  0  0  0  0  0  0  0  0  0  0  0  # atno 17320 bound_to 7965
  145.1559  140.9648  143.4405 LP  0  0  0  0  0  0  0  0  0  0  0  0  # atno 17321 bound_to 7965
  140.0534  143.5226  152.2662 LP  0  0  0  0  0  0  0  0  0  0  0  0  # atno 17342 bound_to 10162
  139.6097  144.7605  151.2981 LP  0  0  0  0  0  0  0  0  0  0  0  0  # atno 17343 bound_to 10162
  157.6673  131.0869  150.7696 LP  0  0  0  0  0  0  0  0  0  0  0  0  # atno 17370 bound_to 10713
  156.7763  130.4845  149.5409 LP  0  0  0  0  0  0  0  0  0  0  0  0  # atno 17371 bound_to 10713
  140.0358  134.6340  155.9046 LP  0  0  0  0  0  0  0  0  0  0  0  0  # atno 17394 bound_to 11000
  141.1867  133.6558  156.5251 LP  0  0  0  0  0  0  0  0  0  0  0  0  # atno 17395 bound_to 11000

$$$$
