AV-unprocessed.smi:1101|AV-procd|sdf|4765|dock10
  -GOLD-   22720 3303D 1   1.00000     0.00000
 Structure written by MMmdl.
 41 42  0  0  0  0  0  0  0  0  1 V2000
  154.2027  141.1935  162.3745 C   0  0  0  0  0  0  0  0  0  0  0  0
  153.3291  142.4213  162.6604 C   0  0  0  0  0  0  0  0  0  0  0  0
  152.4834  142.8501  161.4510 C   0  0  2  0  0  0  0  0  0  0  0  0
  153.2086  142.5885  160.1145 C   0  0  0  0  0  0  0  0  0  0  0  0
  152.3470  143.0624  159.0214 N   0  0  0  0  0  0  0  0  0  0  0  0
  151.6758  142.2957  158.1264 C   0  0  0  0  0  0  0  0  0  0  0  0
  150.9139  142.7575  157.2758 O   0  0  0  0  0  0  0  0  0  0  0  0
  151.9340  140.9819  158.2129 N   0  0  0  0  0  0  0  0  0  0  0  0
  151.3802  139.9596  157.3344 C   0  0  0  0  0  0  0  0  0  0  0  0
  151.5605  140.3398  155.8557 C   0  0  0  0  0  0  0  0  0  0  0  0
  150.2916  140.1784  155.0603 C   0  0  0  0  0  0  0  0  0  0  0  0
  149.6913  138.9684  154.6091 C   0  0  0  0  0  0  0  0  0  0  0  0
  148.5657  139.1692  153.9434 N   0  0  0  0  0  0  0  0  0  0  0  0
  148.4093  140.5089  153.9448 N   0  0  0  0  0  0  0  0  0  0  0  0
  147.2574  141.0926  153.2914 C   0  0  0  0  0  0  0  0  0  0  0  0
  149.4363  141.1441  154.6091 C   0  0  0  0  0  0  0  0  0  0  0  0
  152.1179  144.5030  159.1512 C   0  0  0  0  0  0  0  0  0  0  0  0
  151.4126  144.7585  160.4943 C   0  0  0  0  0  0  0  0  0  0  0  0
  152.2135  144.2486  161.5581 O   0  0  0  0  0  0  0  0  0  0  0  0
  154.7939  140.9262  163.2505 H   0  0  0  0  0  0  0  0  0  0  0  0
  154.8930  141.3836  161.5525 H   0  0  0  0  0  0  0  0  0  0  0  0
  153.5950  140.3282  162.1089 H   0  0  0  0  0  0  0  0  0  0  0  0
  152.6778  142.2156  163.5106 H   0  0  0  0  0  0  0  0  0  0  0  0
  153.9750  143.2468  162.9612 H   0  0  0  0  0  0  0  0  0  0  0  0
  151.5405  142.2999  161.4651 H   0  0  0  0  0  0  0  0  0  0  0  0
  154.1534  143.1335  160.0863 H   0  0  0  0  0  0  0  0  0  0  0  0
  153.4778  141.5349  160.0395 H   0  0  0  0  0  0  0  0  0  0  0  0
  152.5785  140.6711  158.9252 H   0  0  0  0  0  0  0  0  0  0  0  0
  151.8597  139.0006  157.5363 H   0  0  0  0  0  0  0  0  0  0  0  0
  150.3184  139.8397  157.5562 H   0  0  0  0  0  0  0  0  0  0  0  0
  151.9156  141.3694  155.7983 H   0  0  0  0  0  0  0  0  0  0  0  0
  152.3590  139.7321  155.4290 H   0  0  0  0  0  0  0  0  0  0  0  0
  150.0371  137.9550  154.7504 H   0  0  0  0  0  0  0  0  0  0  0  0
  147.2467  142.1721  153.4456 H   0  0  0  0  0  0  0  0  0  0  0  0
  146.3425  140.6668  153.7047 H   0  0  0  0  0  0  0  0  0  0  0  0
  147.2976  140.8871  152.2210 H   0  0  0  0  0  0  0  0  0  0  0  0
  149.4716  142.2190  154.7096 H   0  0  0  0  0  0  0  0  0  0  0  0
  153.0743  145.0269  159.1222 H   0  0  0  0  0  0  0  0  0  0  0  0
  151.5249  144.9143  158.3332 H   0  0  0  0  0  0  0  0  0  0  0  0
  151.2631  145.8278  160.6456 H   0  0  0  0  0  0  0  0  0  0  0  0
  150.4268  144.2911  160.5123 H   0  0  0  0  0  0  0  0  0  0  0  0
  1  2  1  0  0  0  0
  1 20  1  0  0  0  0
  1 21  1  0  0  0  0
  1 22  1  0  0  0  0
  2  3  1  0  0  0  0
  2 23  1  0  0  0  0
  2 24  1  0  0  0  0
  3 19  1  0  0  0  0
  3  4  1  0  0  0  0
  3 25  1  0  0  0  0
  4  5  1  0  0  0  0
  4 26  1  0  0  0  0
  4 27  1  0  0  0  0
  5  6  1  0  0  0  0
  5 17  1  0  0  0  0
  6  7  2  0  0  0  0
  6  8  1  0  0  0  0
  8  9  1  0  0  0  0
  8 28  1  0  0  0  0
  9 10  1  0  0  0  0
  9 29  1  0  0  0  0
  9 30  1  0  0  0  0
 10 11  1  0  0  0  0
 10 31  1  0  0  0  0
 10 32  1  0  0  0  0
 11 16  2  0  0  0  0
 11 12  1  0  0  0  0
 12 13  2  0  0  0  0
 12 33  1  0  0  0  0
 13 14  1  0  0  0  0
 14 15  1  0  0  0  0
 14 16  1  0  0  0  0
 15 34  1  0  0  0  0
 15 35  1  0  0  0  0
 15 36  1  0  0  0  0
 16 37  1  0  0  0  0
 17 18  1  0  0  0  0
 17 38  1  0  0  0  0
 17 39  1  0  0  0  0
 18 19  1  0  0  0  0
 18 40  1  0  0  0  0
 18 41  1  0  0  0  0
M  END
> <s_m_source_file>
AV-unprocessed.smi

> <i_m_source_file_index>
1101

> <i_lp_mmshare_version>
43012

> <i_f3d_flags>
0

> <s_epik_input>
W0NIM11bQ0gyXVtDQEBIXTFbQ0gyXU4oW0NIMl1bQ0gyXU8xKUMoPU8pW05IXVtDSDJdW0NIMl1jMltjSF1ubihbQ0gzXSlbY0hdMg==

> <s_epik_cmdline>
J2VwaWtfcHl0aG9uJywgJy1waCcsICc3LjAnLCAnLXRuJywgJzgnLCAnLW1hJywgJzIwMCcsICctbWV0YWxfYmluZGluZycsICctaW1hZScsICc8aW5maWxlLm1hZT4nLCAnLW9tYWUnLCAnPG91dGZpbGUubWFlPic=

> <r_lp_tautomer_probability>
1

> <r_epik_Ionization_Penalty>
0.000536373

> <r_epik_Ionization_Penalty_Charging>
0

> <r_epik_Ionization_Penalty_Neutral>
0.000536373

> <r_epik_State_Penalty>
-0

> <r_epik_Charging_Adjusted_Penalty>
0

> <i_epik_Tot_Q>
0

> <i_epik_Tot_abs_Q>
0

> <r_epik_Metal_State_Penalty>
-0

> <b_epik_Metal_Only>
0

> <s_lp_Force_Field>
OPLS_2005

> <r_lp_Energy>
25.5817

> <b_lp_Chiralities_Consistent>
1

> <s_lp_Variant>
AV-unprocessed.smi:1101-1

> <Gold.Version>
5.8.1

> <Gold.Id.Protein>
6NUR|6NUR_protein|mol2

> <Gold.PLP.Fitness>
47.6089

> <Gold.PLP.PLP>
-46.3395

> <Gold.PLP.part.hbond>
0.0000

> <Gold.PLP.part.metal>
0.0000

> <Gold.PLP.part.buried>
-4.0977

> <Gold.PLP.part.nonpolar>
-43.3090

> <Gold.PLP.part.repulsive>
0.5966

> <Gold.PLP.ligand.clash>
0.0000

> <Gold.PLP.ligand.torsion>
0.9005

> <Gold.PLP.Chemscore.Hbond>
0.0000

> <Gold.PLP.Chemscore.CHOScore>
1.0000

> <Gold.PLP.Chemscore.Metal>
0.0000

> <Gold.Chemscore.Hbonds>
donor molecule, donor type, donor heavy atom, donor atom, acceptor molecule, acceptor atom, score
      L1  C    16    37       P1  8028  0.51

> <Gold.PLP.Chemscore.Internal.Correction>
0.0704

> <Gold.Rescore>
     Score         DG    S(hbond)    S(metal)    S(lipo)     H(rot)  DE(clash)    DE(int)     intcor
     12.55     -14.35       0.00        0.00     108.75       1.51       0.06       1.74       ----

> <Gold.Chemscore.Fitness>
12.5500

> <Gold.Chemscore.DG>
-14.3474

> <Gold.Chemscore.ZeroCoef>
-5.4800

> <Gold.Chemscore.Hbond>
0.0000

> <Gold.Chemscore.Metal>
0.0000

> <Gold.Chemscore.Lipo>
108.7459

> <Gold.Chemscore.Internal_Hbond>
0.0000

> <Gold.Chemscore.DEClash>
0.0623

> <Gold.Chemscore.DEInternal>
1.7352

> <Gold.Chemscore.Rot>
1.5062

> <Gold.Chemscore.Internal.Correction>
   9.000000E+99

> <Gold.Chemscore.Hbond.Weighted>
-0.0000

> <Gold.Chemscore.Metal.Weighted>
-0.0000

> <Gold.Chemscore.Lipo.Weighted>
-12.7233

> <Gold.Chemscore.Internal_Hbond.Weighted>
0.0000

> <Gold.Chemscore.DEClash.Weighted>
0.0623

> <Gold.Chemscore.DEInternal.Weighted>
1.7352

> <Gold.Chemscore.Rot.Weighted>
3.8558

> <Gold.Chemscore.Internal.Correction.Weighted>
   9.000000E+99

> <Gold.Protein.RotatedTorsions>
[ 6907 6896 6895 6894 ] final   74.87 input  -60.11 | X-H torsion
[ 7974 7965 7964 7962 ] final  -30.75 input  175.53 | X-H torsion
[ 8008 7997 7996 7995 ] final   99.97 input   59.86 | X-H torsion
[ 10167 10162 10161 10158 ] final   95.54 input  -65.29 | X-H torsion
[ 10718 10713 10712 10709 ] final   45.94 input   66.30 | X-H torsion
[ 10763 10752 10751 10750 ] final  -98.20 input  -60.55 | X-H torsion
[ 11005 11000 10999 10996 ] final    3.67 input  -57.11 | X-H torsion

> <Gold.Protein.ActiveResidues>
 VAL166  LYS551  ARG553  GLY616  TRP617  ASP618  TYR619  PRO620  LYS621  CYS622 
 ASP623  PHE694  ASN695  SER759  ASP760  ASP761  ALA762  ILE779  LEU786  VAL792 
 PHE793  MET794  SER795  GLU796  ALA797  LYS798  CYS799  TRP800  GLU811  SER814 

> <Gold.Protein.RotatedAtoms>
  152.4998  134.4206  159.9479 H   0  0  0  0  0  0  0  0  0  0  0  0  # atno 6907 bound_to 6896
  151.4179  133.3701  159.2760 H   0  0  0  0  0  0  0  0  0  0  0  0  # atno 6908 bound_to 6896
  150.9244  134.8683  159.7570 H   0  0  0  0  0  0  0  0  0  0  0  0  # atno 6909 bound_to 6896
  146.1119  140.5580  142.8774 H   0  0  0  0  0  0  0  0  0  0  0  0  # atno 7974 bound_to 7965
  156.1157  140.3220  155.8136 H   0  0  0  0  0  0  0  0  0  0  0  0  # atno 8008 bound_to 7997
  155.4594  140.0538  157.3010 H   0  0  0  0  0  0  0  0  0  0  0  0  # atno 8009 bound_to 7997
  154.4791  140.2045  155.9820 H   0  0  0  0  0  0  0  0  0  0  0  0  # atno 8010 bound_to 7997
  139.7979  144.6826  150.9804 H   0  0  0  0  0  0  0  0  0  0  0  0  # atno 10167 bound_to 10162
  157.4429  130.8092  149.7711 H   0  0  0  0  0  0  0  0  0  0  0  0  # atno 10718 bound_to 10713
  154.7394  135.5018  153.9096 H   0  0  0  0  0  0  0  0  0  0  0  0  # atno 10763 bound_to 10752
  153.1027  135.6689  153.9650 H   0  0  0  0  0  0  0  0  0  0  0  0  # atno 10764 bound_to 10752
  153.9432  135.3065  155.3421 H   0  0  0  0  0  0  0  0  0  0  0  0  # atno 10765 bound_to 10752
  140.5905  133.9929  155.8086 H   0  0  0  0  0  0  0  0  0  0  0  0  # atno 11005 bound_to 11000
  144.7519  140.5212  143.6796 LP  0  0  0  0  0  0  0  0  0  0  0  0  # atno 17320 bound_to 7965
  145.5645  139.1481  143.3322 LP  0  0  0  0  0  0  0  0  0  0  0  0  # atno 17321 bound_to 7965
  140.7820  143.4312  151.0692 LP  0  0  0  0  0  0  0  0  0  0  0  0  # atno 17342 bound_to 10162
  139.7985  143.8117  152.3160 LP  0  0  0  0  0  0  0  0  0  0  0  0  # atno 17343 bound_to 10162
  155.9955  130.3911  150.2814 LP  0  0  0  0  0  0  0  0  0  0  0  0  # atno 17370 bound_to 10713
  157.0980  131.0188  151.3096 LP  0  0  0  0  0  0  0  0  0  0  0  0  # atno 17371 bound_to 10713
  141.0938  133.9875  157.3194 LP  0  0  0  0  0  0  0  0  0  0  0  0  # atno 17394 bound_to 11000
  139.9276  135.0201  156.8290 LP  0  0  0  0  0  0  0  0  0  0  0  0  # atno 17395 bound_to 11000

$$$$
