AV-unprocessed.smi:2893|AV-procd|sdf|11125|dock3
  -GOLD-   2272015593D 1   1.00000     0.00000
 Structure written by MMmdl.
 37 39  0  0  0  0  0  0  0  0  1 V2000
  150.2501  134.1389  155.6208 C   0  0  0  0  0  0  0  0  0  0  0  0
  149.2240  135.0862  154.9851 C   0  0  0  0  0  0  0  0  0  0  0  0
  149.5059  136.4792  155.3106 N   0  0  0  0  0  0  0  0  0  0  0  0
  150.6523  137.1243  155.0341 C   0  0  0  0  0  0  0  0  0  0  0  0
  151.6014  136.5945  154.4544 O   0  0  0  0  0  0  0  0  0  0  0  0
  150.7060  138.5731  155.4402 C   0  0  0  0  0  0  0  0  0  0  0  0
  151.9486  139.2363  155.5375 C   0  0  0  0  0  0  0  0  0  0  0  0
  151.9441  140.5848  155.9332 C   0  0  0  0  0  0  0  0  0  0  0  0
  150.6997  141.1815  156.2105 C   0  0  0  0  0  0  0  0  0  0  0  0
  150.6660  142.5251  156.6089 N   0  0  0  0  0  0  0  0  0  0  0  0
  151.6028  143.0410  157.6013 C   0  0  1  0  0  0  0  0  0  0  0  0
  151.3245  144.4983  157.9921 C   0  0  0  0  0  0  0  0  0  0  0  0
  151.1671  144.3941  159.5138 C   0  0  2  0  0  0  0  0  0  0  0  0
  152.4913  144.0608  160.2146 C   0  0  0  0  0  0  0  0  0  0  0  0
  152.6761  142.5883  159.8494 C   0  0  0  0  0  0  0  0  0  0  0  0
  151.4554  142.3285  158.9564 C   0  0  1  0  0  0  0  0  0  0  0  0
  150.4984  143.1489  159.6071 O   0  0  0  0  0  0  0  0  0  0  0  0
  149.5373  140.4926  156.1008 N   0  0  0  0  0  0  0  0  0  0  0  0
  149.5414  139.2094  155.7256 N   0  0  0  0  0  0  0  0  0  0  0  0
  150.0097  133.1001  155.3939 H   0  0  0  0  0  0  0  0  0  0  0  0
  150.2668  134.2465  156.7058 H   0  0  0  0  0  0  0  0  0  0  0  0
  151.2560  134.3341  155.2479 H   0  0  0  0  0  0  0  0  0  0  0  0
  149.1972  134.9476  153.9031 H   0  0  0  0  0  0  0  0  0  0  0  0
  148.2261  134.8470  155.3530 H   0  0  0  0  0  0  0  0  0  0  0  0
  148.7775  136.9973  155.7813 H   0  0  0  0  0  0  0  0  0  0  0  0
  152.8795  138.7346  155.3167 H   0  0  0  0  0  0  0  0  0  0  0  0
  152.8670  141.1391  156.0220 H   0  0  0  0  0  0  0  0  0  0  0  0
  150.1222  143.1866  156.0738 H   0  0  0  0  0  0  0  0  0  0  0  0
  152.6207  142.9149  157.2297 H   0  0  0  0  0  0  0  0  0  0  0  0
  152.1308  145.1720  157.7008 H   0  0  0  0  0  0  0  0  0  0  0  0
  150.3998  144.8661  157.5444 H   0  0  0  0  0  0  0  0  0  0  0  0
  150.6264  145.2287  159.9606 H   0  0  0  0  0  0  0  0  0  0  0  0
  153.3120  144.6901  159.8684 H   0  0  0  0  0  0  0  0  0  0  0  0
  152.4014  144.1782  161.2950 H   0  0  0  0  0  0  0  0  0  0  0  0
  153.6189  142.3922  159.3375 H   0  0  0  0  0  0  0  0  0  0  0  0
  152.6384  141.9665  160.7446 H   0  0  0  0  0  0  0  0  0  0  0  0
  151.1818  141.2748  158.8887 H   0  0  0  0  0  0  0  0  0  0  0  0
  1  2  1  0  0  0  0
  1 20  1  0  0  0  0
  1 21  1  0  0  0  0
  1 22  1  0  0  0  0
  2  3  1  0  0  0  0
  2 23  1  0  0  0  0
  2 24  1  0  0  0  0
  3  4  1  0  0  0  0
  3 25  1  0  0  0  0
  4  5  2  0  0  0  0
  4  6  1  0  0  0  0
  6 19  1  0  0  0  0
  6  7  2  0  0  0  0
  7  8  1  0  0  0  0
  7 26  1  0  0  0  0
  8  9  2  0  0  0  0
  8 27  1  0  0  0  0
  9 10  1  0  0  0  0
  9 18  1  0  0  0  0
 10 11  1  0  0  0  0
 10 28  1  0  0  0  0
 11 16  1  0  0  0  0
 11 12  1  0  0  0  0
 11 29  1  0  0  0  0
 12 13  1  0  0  0  0
 12 30  1  0  0  0  0
 12 31  1  0  0  0  0
 13 17  1  0  0  0  0
 13 14  1  0  0  0  0
 13 32  1  0  0  0  0
 14 15  1  0  0  0  0
 14 33  1  0  0  0  0
 14 34  1  0  0  0  0
 15 16  1  0  0  0  0
 15 35  1  0  0  0  0
 15 36  1  0  0  0  0
 16 17  1  0  0  0  0
 16 37  1  0  0  0  0
 18 19  2  0  0  0  0
M  END
> <s_m_source_file>
AV-unprocessed.smi

> <i_m_source_file_index>
2893

> <i_lp_mmshare_version>
43012

> <i_f3d_flags>
0

> <s_epik_input>
W0NIM11bQ0gyXVtOSF1DKD1PKWMxW2NIXVtjSF1jKG5uMSlbTkhdW0NASF0oW0NIMl1bQ0BASF0yMylbQ0BASF0oTzMpW0NIMl1bQ0gyXTI=

> <s_epik_cmdline>
J2VwaWtfcHl0aG9uJywgJy1waCcsICc3LjAnLCAnLXRuJywgJzgnLCAnLW1hJywgJzIwMCcsICctbWV0YWxfYmluZGluZycsICctaW1hZScsICc8aW5maWxlLm1hZT4nLCAnLW9tYWUnLCAnPG91dGZpbGUubWFlPic=

> <r_lp_tautomer_probability>
1

> <r_epik_Ionization_Penalty>
0.00432031

> <r_epik_Ionization_Penalty_Charging>
0

> <r_epik_Ionization_Penalty_Neutral>
0.00432031

> <r_epik_State_Penalty>
-0

> <r_epik_Charging_Adjusted_Penalty>
0

> <i_epik_Tot_Q>
0

> <i_epik_Tot_abs_Q>
0

> <r_epik_Metal_State_Penalty>
-0

> <b_epik_Metal_Only>
0

> <s_lp_Force_Field>
OPLS_2005

> <r_lp_Energy>
49.39

> <b_lp_Chiralities_Consistent>
1

> <s_lp_Variant>
AV-unprocessed.smi:2893-4

> <Gold.Version>
5.8.1

> <Gold.Id.Protein>
6NUR|6NUR_protein|mol2

> <Gold.PLP.Fitness>
40.8669

> <Gold.PLP.PLP>
-35.8942

> <Gold.PLP.part.hbond>
-3.0000

> <Gold.PLP.part.metal>
0.0000

> <Gold.PLP.part.buried>
-5.3313

> <Gold.PLP.part.nonpolar>
-27.9752

> <Gold.PLP.part.repulsive>
1.0794

> <Gold.PLP.ligand.clash>
0.0000

> <Gold.PLP.ligand.torsion>
0.5248

> <Gold.PLP.Chemscore.Hbond>
2.0000

> <Gold.PLP.Chemscore.CHOScore>
0.0000

> <Gold.PLP.Chemscore.Metal>
0.0000

> <Gold.Chemscore.Hbonds>
donor molecule, donor type, donor heavy atom, donor atom, acceptor molecule, acceptor atom, score
      L1  H    10    28       P1  8028  1.00
      P1  H 10752 10765       L1     5  1.00

> <Gold.PLP.Chemscore.Internal.Correction>
0.0224

> <Gold.Rescore>
     Score         DG    S(hbond)    S(metal)    S(lipo)     H(rot)  DE(clash)    DE(int)     intcor
     19.04     -20.14       2.00        0.00      94.74       1.21       0.42       0.68       ----

> <Gold.Chemscore.Fitness>
19.0394

> <Gold.Chemscore.DG>
-20.1437

> <Gold.Chemscore.ZeroCoef>
-5.4800

> <Gold.Chemscore.Hbond>
1.9961

> <Gold.Chemscore.Metal>
0.0000

> <Gold.Chemscore.Lipo>
94.7380

> <Gold.Chemscore.Internal_Hbond>
0.0000

> <Gold.Chemscore.DEClash>
0.4201

> <Gold.Chemscore.DEInternal>
0.6843

> <Gold.Chemscore.Rot>
1.2061

> <Gold.Chemscore.Internal.Correction>
   9.000000E+99

> <Gold.Chemscore.Hbonds>
donor molecule, donor type, donor heavy atom, donor atom, acceptor molecule, acceptor atom, score
      L1  H    10    28       P1  8028  0.95
      P1  H 10752 10765       L1     5  0.98

> <Gold.Chemscore.Hbond.Weighted>
-6.6670

> <Gold.Chemscore.Metal.Weighted>
-0.0000

> <Gold.Chemscore.Lipo.Weighted>
-11.0843

> <Gold.Chemscore.Internal_Hbond.Weighted>
0.0000

> <Gold.Chemscore.DEClash.Weighted>
0.4201

> <Gold.Chemscore.DEInternal.Weighted>
0.6843

> <Gold.Chemscore.Rot.Weighted>
3.0876

> <Gold.Chemscore.Internal.Correction.Weighted>
   9.000000E+99

> <Gold.Protein.RotatedTorsions>
[ 6907 6896 6895 6894 ] final  -59.07 input  -60.11 | X-H torsion
[ 7974 7965 7964 7962 ] final -138.64 input  175.53 | X-H torsion
[ 8008 7997 7996 7995 ] final   17.78 input   59.86 | X-H torsion
[ 10167 10162 10161 10158 ] final   55.38 input  -65.29 | X-H torsion
[ 10718 10713 10712 10709 ] final   71.88 input   66.30 | X-H torsion
[ 10763 10752 10751 10750 ] final -178.03 input  -60.55 | X-H torsion
[ 11005 11000 10999 10996 ] final  -83.36 input  -57.11 | X-H torsion

> <Gold.Protein.ActiveResidues>
 VAL166  LYS551  ARG553  GLY616  TRP617  ASP618  TYR619  PRO620  LYS621  CYS622 
 ASP623  PHE694  ASN695  SER759  ASP760  ASP761  ALA762  ILE779  LEU786  VAL792 
 PHE793  MET794  SER795  GLU796  ALA797  LYS798  CYS799  TRP800  GLU811  SER814 

> <Gold.Protein.RotatedAtoms>
  150.7958  134.7017  159.6553 H   0  0  0  0  0  0  0  0  0  0  0  0  # atno 6907 bound_to 6896
  152.4070  134.6186  160.0054 H   0  0  0  0  0  0  0  0  0  0  0  0  # atno 6908 bound_to 6896
  151.6440  133.3287  159.3173 H   0  0  0  0  0  0  0  0  0  0  0  0  # atno 6909 bound_to 6896
  144.8742  140.6412  143.5247 H   0  0  0  0  0  0  0  0  0  0  0  0  # atno 7974 bound_to 7965
  154.8964  140.2994  155.5342 H   0  0  0  0  0  0  0  0  0  0  0  0  # atno 8008 bound_to 7997
  156.3020  140.2415  156.3921 H   0  0  0  0  0  0  0  0  0  0  0  0  # atno 8009 bound_to 7997
  154.8566  140.0407  157.1627 H   0  0  0  0  0  0  0  0  0  0  0  0  # atno 8010 bound_to 7997
  140.2201  144.3798  150.6454 H   0  0  0  0  0  0  0  0  0  0  0  0  # atno 10167 bound_to 10162
  157.6473  130.9550  150.0850 H   0  0  0  0  0  0  0  0  0  0  0  0  # atno 10718 bound_to 10713
  154.5527  135.2814  155.0993 H   0  0  0  0  0  0  0  0  0  0  0  0  # atno 10763 bound_to 10752
  154.2432  135.6353  153.5218 H   0  0  0  0  0  0  0  0  0  0  0  0  # atno 10764 bound_to 10752
  153.0007  135.5565  154.6098 H   0  0  0  0  0  0  0  0  0  0  0  0  # atno 10765 bound_to 10752
  141.1658  133.7290  156.8708 H   0  0  0  0  0  0  0  0  0  0  0  0  # atno 11005 bound_to 11000
  145.4073  139.1586  143.4145 LP  0  0  0  0  0  0  0  0  0  0  0  0  # atno 17320 bound_to 7965
  146.2951  140.4175  142.8725 LP  0  0  0  0  0  0  0  0  0  0  0  0  # atno 17321 bound_to 7965
  140.6261  143.2181  151.6593 LP  0  0  0  0  0  0  0  0  0  0  0  0  # atno 17342 bound_to 10162
  139.5147  144.3401  152.0748 LP  0  0  0  0  0  0  0  0  0  0  0  0  # atno 17343 bound_to 10162
  156.1816  130.3650  149.9028 LP  0  0  0  0  0  0  0  0  0  0  0  0  # atno 17370 bound_to 10713
  156.6979  130.8921  151.3596 LP  0  0  0  0  0  0  0  0  0  0  0  0  # atno 17371 bound_to 10713
  140.1783  134.9051  157.2917 LP  0  0  0  0  0  0  0  0  0  0  0  0  # atno 17394 bound_to 11000
  140.2424  134.3780  155.7475 LP  0  0  0  0  0  0  0  0  0  0  0  0  # atno 17395 bound_to 11000

$$$$
