AV-unprocessed.smi:3354|AV-procd|sdf|12959|dock8
  -GOLD-   2272019393D 1   1.00000     0.00000
 Structure written by MMmdl.
 38 40  0  0  0  0  0  0  0  0  1 V2000
  143.7705  132.7324  148.9504 C   0  0  0  0  0  0  0  0  0  0  0  0
  144.5679  133.5645  149.9308 C   0  0  2  0  0  0  0  0  0  0  0  0
  145.0610  132.9453  151.2185 C   0  0  0  0  0  0  0  0  0  0  0  0
  143.9702  133.9892  151.2601 C   0  0  1  0  0  0  0  0  0  0  0  0
  144.2818  135.2610  151.8392 N   0  0  0  0  0  0  0  0  0  0  0  0
  145.4253  136.0009  151.3325 C   0  0  0  0  0  0  0  0  0  0  0  0
  145.4942  137.2833  152.1792 C   0  0  2  0  0  0  0  0  0  0  0  0
  146.8688  137.5699  152.5800 N   0  0  0  0  0  0  0  0  0  0  0  0
  147.2346  138.5601  153.4055 C   0  0  0  0  0  0  0  0  0  0  0  0
  146.4346  139.3365  153.9273 O   0  0  0  0  0  0  0  0  0  0  0  0
  148.5655  138.5690  153.5936 N   0  0  0  0  0  0  0  0  0  0  0  0
  149.3448  139.4671  154.3720 C   0  0  0  0  0  0  0  0  0  0  0  0
  150.6513  139.1887  154.8421 C   0  0  0  0  0  0  0  0  0  0  0  0
  151.3125  140.1552  155.6241 C   0  0  0  0  0  0  0  0  0  0  0  0
  150.6434  141.3605  155.9121 C   0  0  0  0  0  0  0  0  0  0  0  0
  149.3940  141.6342  155.4812 N   0  0  0  0  0  0  0  0  0  0  0  0
  148.7658  140.7022  154.7332 C   0  0  0  0  0  0  0  0  0  0  0  0
  144.5707  137.0265  153.3807 C   0  0  0  0  0  0  0  0  0  0  0  0
  143.8614  135.7321  153.0213 C   0  0  0  0  0  0  0  0  0  0  0  0
  143.0303  135.2096  153.7626 O   0  0  0  0  0  0  0  0  0  0  0  0
  143.0933  132.0573  149.4744 H   0  0  0  0  0  0  0  0  0  0  0  0
  144.4425  132.1389  148.3304 H   0  0  0  0  0  0  0  0  0  0  0  0
  143.1817  133.3821  148.3031 H   0  0  0  0  0  0  0  0  0  0  0  0
  145.2642  134.2498  149.4514 H   0  0  0  0  0  0  0  0  0  0  0  0
  144.7761  131.9167  151.4307 H   0  0  0  0  0  0  0  0  0  0  0  0
  146.0536  133.2321  151.5610 H   0  0  0  0  0  0  0  0  0  0  0  0
  142.9679  133.6200  151.4697 H   0  0  0  0  0  0  0  0  0  0  0  0
  146.3212  135.3876  151.4460 H   0  0  0  0  0  0  0  0  0  0  0  0
  145.3056  136.2276  150.2721 H   0  0  0  0  0  0  0  0  0  0  0  0
  145.0996  138.1155  151.5927 H   0  0  0  0  0  0  0  0  0  0  0  0
  147.5896  136.9730  152.2011 H   0  0  0  0  0  0  0  0  0  0  0  0
  149.0791  137.8137  153.1635 H   0  0  0  0  0  0  0  0  0  0  0  0
  151.1519  138.2559  154.6350 H   0  0  0  0  0  0  0  0  0  0  0  0
  152.3090  139.9742  155.9990 H   0  0  0  0  0  0  0  0  0  0  0  0
  151.1225  142.1217  156.5099 H   0  0  0  0  0  0  0  0  0  0  0  0
  147.7666  140.9544  154.4095 H   0  0  0  0  0  0  0  0  0  0  0  0
  145.1243  136.8858  154.3101 H   0  0  0  0  0  0  0  0  0  0  0  0
  143.8552  137.8371  153.5239 H   0  0  0  0  0  0  0  0  0  0  0  0
  1  2  1  0  0  0  0
  1 21  1  0  0  0  0
  1 22  1  0  0  0  0
  1 23  1  0  0  0  0
  2  4  1  0  0  0  0
  2  3  1  0  0  0  0
  2 24  1  0  0  0  0
  3  4  1  0  0  0  0
  3 25  1  0  0  0  0
  3 26  1  0  0  0  0
  4  5  1  0  0  0  0
  4 27  1  0  0  0  0
  5 19  1  0  0  0  0
  5  6  1  0  0  0  0
  6  7  1  0  0  0  0
  6 28  1  0  0  0  0
  6 29  1  0  0  0  0
  7  8  1  0  0  0  0
  7 18  1  0  0  0  0
  7 30  1  0  0  0  0
  8  9  1  0  0  0  0
  8 31  1  0  0  0  0
  9 10  2  0  0  0  0
  9 11  1  0  0  0  0
 11 12  1  0  0  0  0
 11 32  1  0  0  0  0
 12 17  1  0  0  0  0
 12 13  2  0  0  0  0
 13 14  1  0  0  0  0
 13 33  1  0  0  0  0
 14 15  2  0  0  0  0
 14 34  1  0  0  0  0
 15 16  1  0  0  0  0
 15 35  1  0  0  0  0
 16 17  2  0  0  0  0
 17 36  1  0  0  0  0
 18 19  1  0  0  0  0
 18 37  1  0  0  0  0
 18 38  1  0  0  0  0
 19 20  2  0  0  0  0
M  END
> <s_m_source_file>
AV-unprocessed.smi

> <i_m_source_file_index>
3354

> <i_lp_mmshare_version>
43012

> <i_f3d_flags>
0

> <s_epik_input>
W0NIM11bQ0BASF0xW0NIMl1bQ0BIXTFOMltDSDJdW0NASF0oW0NIMl1DMj1PKVtOSF1DKD1PKVtOSF1jM1tjSF1bY0hdW2NIXW5bY0hdMw==

> <s_epik_cmdline>
J2VwaWtfcHl0aG9uJywgJy1waCcsICc3LjAnLCAnLXRuJywgJzgnLCAnLW1hJywgJzIwMCcsICctbWV0YWxfYmluZGluZycsICctaW1hZScsICc8aW5maWxlLm1hZT4nLCAnLW9tYWUnLCAnPG91dGZpbGUubWFlPic=

> <r_epik_Ionization_Penalty>
0.00456191

> <r_epik_Ionization_Penalty_Charging>
0

> <r_epik_Ionization_Penalty_Neutral>
0.00456191

> <r_epik_State_Penalty>
0.00327094

> <r_epik_Charging_Adjusted_Penalty>
0.00327094

> <i_epik_Tot_Q>
0

> <i_epik_Tot_abs_Q>
0

> <r_epik_Metal_State_Penalty>
-0

> <b_epik_Metal_Only>
0

> <s_lp_Force_Field>
OPLS_2005

> <r_lp_Energy>
40.1113

> <b_lp_Chiralities_Consistent>
1

> <s_lp_Variant>
AV-unprocessed.smi:3354-5

> <Gold.Version>
5.8.1

> <Gold.Id.Protein>
6NUR|6NUR_protein|mol2

> <Gold.PLP.Fitness>
42.8535

> <Gold.PLP.PLP>
-37.3142

> <Gold.PLP.part.hbond>
-3.0000

> <Gold.PLP.part.metal>
0.0000

> <Gold.PLP.part.buried>
-3.7984

> <Gold.PLP.part.nonpolar>
-31.8568

> <Gold.PLP.part.repulsive>
0.6256

> <Gold.PLP.ligand.clash>
0.0000

> <Gold.PLP.ligand.torsion>
0.2865

> <Gold.PLP.Chemscore.Hbond>
1.9120

> <Gold.PLP.Chemscore.CHOScore>
0.0000

> <Gold.PLP.Chemscore.Metal>
0.0000

> <Gold.Chemscore.Hbonds>
donor molecule, donor type, donor heavy atom, donor atom, acceptor molecule, acceptor atom, score
      L1  H     8    31       P1  7948  1.00
      L1  H    11    32       P1  7948  0.91

> <Gold.PLP.Chemscore.Internal.Correction>
0.3763

> <Gold.Rescore>
     Score         DG    S(hbond)    S(metal)    S(lipo)     H(rot)  DE(clash)    DE(int)     intcor
     15.98     -18.80       1.94        0.00      85.55       1.24       0.09       2.73       ----

> <Gold.Chemscore.Fitness>
15.9775

> <Gold.Chemscore.DG>
-18.7969

> <Gold.Chemscore.ZeroCoef>
-5.4800

> <Gold.Chemscore.Hbond>
1.9377

> <Gold.Chemscore.Metal>
0.0000

> <Gold.Chemscore.Lipo>
85.5499

> <Gold.Chemscore.Internal_Hbond>
0.0000

> <Gold.Chemscore.DEClash>
0.0931

> <Gold.Chemscore.DEInternal>
2.7264

> <Gold.Chemscore.Rot>
1.2361

> <Gold.Chemscore.Internal.Correction>
   9.000000E+99

> <Gold.Chemscore.Hbonds>
donor molecule, donor type, donor heavy atom, donor atom, acceptor molecule, acceptor atom, score
      L1  H     8    31       P1  7948  0.97
      L1  H    11    32       P1  7948  0.84

> <Gold.Chemscore.Hbond.Weighted>
-6.4719

> <Gold.Chemscore.Metal.Weighted>
-0.0000

> <Gold.Chemscore.Lipo.Weighted>
-10.0093

> <Gold.Chemscore.Internal_Hbond.Weighted>
0.0000

> <Gold.Chemscore.DEClash.Weighted>
0.0931

> <Gold.Chemscore.DEInternal.Weighted>
2.7264

> <Gold.Chemscore.Rot.Weighted>
3.1643

> <Gold.Chemscore.Internal.Correction.Weighted>
   9.000000E+99

> <Gold.Protein.RotatedTorsions>
[ 6907 6896 6895 6894 ] final -154.56 input  -60.11 | X-H torsion
[ 7974 7965 7964 7962 ] final  -79.56 input  175.53 | X-H torsion
[ 8008 7997 7996 7995 ] final  -52.31 input   59.86 | X-H torsion
[ 10167 10162 10161 10158 ] final  -71.06 input  -65.29 | X-H torsion
[ 10718 10713 10712 10709 ] final  -87.51 input   66.30 | X-H torsion
[ 10763 10752 10751 10750 ] final  -50.16 input  -60.55 | X-H torsion
[ 11005 11000 10999 10996 ] final   65.35 input  -57.11 | X-H torsion

> <Gold.Protein.ActiveResidues>
 VAL166  LYS551  ARG553  GLY616  TRP617  ASP618  TYR619  PRO620  LYS621  CYS622 
 ASP623  PHE694  ASN695  SER759  ASP760  ASP761  ALA762  ILE779  LEU786  VAL792 
 PHE793  MET794  SER795  GLU796  ALA797  LYS798  CYS799  TRP800  GLU811  SER814 

> <Gold.Protein.RotatedAtoms>
  151.2593  133.4310  159.2615 H   0  0  0  0  0  0  0  0  0  0  0  0  # atno 6907 bound_to 6896
  151.0545  134.9696  159.8239 H   0  0  0  0  0  0  0  0  0  0  0  0  # atno 6908 bound_to 6896
  152.5388  134.2546  159.8964 H   0  0  0  0  0  0  0  0  0  0  0  0  # atno 6909 bound_to 6896
  145.5716  140.9465  143.1392 H   0  0  0  0  0  0  0  0  0  0  0  0  # atno 7974 bound_to 7965
  154.4103  140.1227  156.4971 H   0  0  0  0  0  0  0  0  0  0  0  0  # atno 8008 bound_to 7997
  155.6932  140.3495  155.4882 H   0  0  0  0  0  0  0  0  0  0  0  0  # atno 8009 bound_to 7997
  155.9451  140.1094  157.1014 H   0  0  0  0  0  0  0  0  0  0  0  0  # atno 8010 bound_to 7997
  140.5303  143.2322  151.7274 H   0  0  0  0  0  0  0  0  0  0  0  0  # atno 10167 bound_to 10162
  155.9985  130.4802  150.4878 H   0  0  0  0  0  0  0  0  0  0  0  0  # atno 10718 bound_to 10713
  154.1059  135.6556  153.4876 H   0  0  0  0  0  0  0  0  0  0  0  0  # atno 10763 bound_to 10752
  153.0273  135.5236  154.7240 H   0  0  0  0  0  0  0  0  0  0  0  0  # atno 10764 bound_to 10752
  154.6406  135.2988  155.0078 H   0  0  0  0  0  0  0  0  0  0  0  0  # atno 10765 bound_to 10752
  139.9900  134.6607  156.0108 H   0  0  0  0  0  0  0  0  0  0  0  0  # atno 11005 bound_to 11000
  144.7435  139.7383  143.7301 LP  0  0  0  0  0  0  0  0  0  0  0  0  # atno 17320 bound_to 7965
  146.1780  139.4960  142.9884 LP  0  0  0  0  0  0  0  0  0  0  0  0  # atno 17321 bound_to 7965
  139.4952  144.4124  152.0066 LP  0  0  0  0  0  0  0  0  0  0  0  0  # atno 17342 bound_to 10162
  140.3226  144.3410  150.6006 LP  0  0  0  0  0  0  0  0  0  0  0  0  # atno 17343 bound_to 10162
  157.2876  131.0619  151.2156 LP  0  0  0  0  0  0  0  0  0  0  0  0  # atno 17370 bound_to 10713
  157.3180  130.6923  149.6253 LP  0  0  0  0  0  0  0  0  0  0  0  0  # atno 17371 bound_to 10713
  141.1557  133.6543  156.4155 LP  0  0  0  0  0  0  0  0  0  0  0  0  # atno 17394 bound_to 11000
  140.4927  134.6560  157.5217 LP  0  0  0  0  0  0  0  0  0  0  0  0  # atno 17395 bound_to 11000

$$$$
