AV-unprocessed.smi:1021|AV-procd|sdf|4456|dock1
  -GOLD-   22720 2423D 1   1.00000     0.00000
 Structure written by MMmdl.
 43 45  0  0  0  0  0  0  0  0  2 V2000
  146.3405  137.3824  150.6612 O   0  0  0  0  0  0  0  0  0  0  0  0
  145.6907  137.0328  151.8647 C   0  0  0  0  0  0  0  0  0  0  0  0
  146.5293  137.4688  153.0742 C   0  0  0  0  0  0  0  0  0  0  0  0
  147.0275  138.9187  152.9707 C   0  0  0  0  0  0  0  0  0  0  0  0
  148.3063  139.1153  153.7177 C   0  0  0  0  0  0  0  0  0  0  0  0
  149.4577  138.4139  153.5190 N   0  3  0  0  0  0  0  0  0  0  0  0
  150.4417  138.8600  154.4020 C   0  0  0  0  0  0  0  0  0  0  0  0
  151.7629  138.4588  154.5736 C   0  0  0  0  0  0  0  0  0  0  0  0
  152.5017  139.1248  155.5736 C   0  0  0  0  0  0  0  0  0  0  0  0
  151.9237  140.1447  156.3574 C   0  0  0  0  0  0  0  0  0  0  0  0
  150.5827  140.5423  156.1746 C   0  0  0  0  0  0  0  0  0  0  0  0
  149.8604  139.8797  155.1826 C   0  0  0  0  0  0  0  0  0  0  0  0
  148.5441  140.0047  154.7257 N   0  0  0  0  0  0  0  0  0  0  0  0
  147.6642  141.0074  155.3467 C   0  0  0  0  0  0  0  0  0  0  0  0
  147.1732  142.0733  154.3457 C   0  0  2  0  0  0  0  0  0  0  0  0
  148.2662  142.9056  154.0184 O   0  0  0  0  0  0  0  0  0  0  0  0
  145.9826  142.8589  154.8781 C   0  0  0  0  0  0  0  0  0  0  0  0
  145.3327  143.7960  154.0461 C   0  0  0  0  0  0  0  0  0  0  0  0
  144.2131  144.5084  154.5176 C   0  0  0  0  0  0  0  0  0  0  0  0
  143.7372  144.2888  155.8243 C   0  0  0  0  0  0  0  0  0  0  0  0
  142.6595  144.9723  156.2765 F   0  0  0  0  0  0  0  0  0  0  0  0
  144.3818  143.3565  156.6597 C   0  0  0  0  0  0  0  0  0  0  0  0
  145.5009  142.6430  156.1885 C   0  0  0  0  0  0  0  0  0  0  0  0
  145.6925  137.7034  150.0524 H   0  0  0  0  0  0  0  0  0  0  0  0
  144.7013  137.4903  151.8918 H   0  0  0  0  0  0  0  0  0  0  0  0
  145.5469  135.9524  151.8783 H   0  0  0  0  0  0  0  0  0  0  0  0
  145.9183  137.3667  153.9717 H   0  0  0  0  0  0  0  0  0  0  0  0
  147.3739  136.7907  153.2026 H   0  0  0  0  0  0  0  0  0  0  0  0
  147.1838  139.1936  151.9271 H   0  0  0  0  0  0  0  0  0  0  0  0
  146.2758  139.6037  153.3607 H   0  0  0  0  0  0  0  0  0  0  0  0
  152.2074  137.6771  153.9751 H   0  0  0  0  0  0  0  0  0  0  0  0
  153.5321  138.8476  155.7429 H   0  0  0  0  0  0  0  0  0  0  0  0
  152.5205  140.6322  157.1146 H   0  0  0  0  0  0  0  0  0  0  0  0
  150.1483  141.3243  156.7797 H   0  0  0  0  0  0  0  0  0  0  0  0
  146.8189  140.4868  155.7982 H   0  0  0  0  0  0  0  0  0  0  0  0
  148.2118  141.4695  156.1693 H   0  0  0  0  0  0  0  0  0  0  0  0
  146.8749  141.5862  153.4167 H   0  0  0  0  0  0  0  0  0  0  0  0
  149.0644  142.4639  154.2655 H   0  0  0  0  0  0  0  0  0  0  0  0
  145.6857  143.9645  153.0393 H   0  0  0  0  0  0  0  0  0  0  0  0
  143.7178  145.2221  153.8760 H   0  0  0  0  0  0  0  0  0  0  0  0
  144.0161  143.1862  157.6616 H   0  0  0  0  0  0  0  0  0  0  0  0
  145.9812  141.9228  156.8347 H   0  0  0  0  0  0  0  0  0  0  0  0
  149.5595  137.6822  152.8274 H   0  0  0  0  0  0  0  0  0  0  0  0
  1  2  1  0  0  0  0
  1 24  1  0  0  0  0
  2  3  1  0  0  0  0
  2 25  1  0  0  0  0
  2 26  1  0  0  0  0
  3  4  1  0  0  0  0
  3 27  1  0  0  0  0
  3 28  1  0  0  0  0
  4  5  1  0  0  0  0
  4 29  1  0  0  0  0
  4 30  1  0  0  0  0
  5 13  1  0  0  0  0
  5  6  2  0  0  0  0
  6  7  1  0  0  0  0
  6 43  1  0  0  0  0
  7 12  2  0  0  0  0
  7  8  1  0  0  0  0
  8  9  2  0  0  0  0
  8 31  1  0  0  0  0
  9 10  1  0  0  0  0
  9 32  1  0  0  0  0
 10 11  2  0  0  0  0
 10 33  1  0  0  0  0
 11 12  1  0  0  0  0
 11 34  1  0  0  0  0
 12 13  1  0  0  0  0
 13 14  1  0  0  0  0
 14 15  1  0  0  0  0
 14 35  1  0  0  0  0
 14 36  1  0  0  0  0
 15 16  1  0  0  0  0
 15 17  1  0  0  0  0
 15 37  1  0  0  0  0
 16 38  1  0  0  0  0
 17 23  1  0  0  0  0
 17 18  2  0  0  0  0
 18 19  1  0  0  0  0
 18 39  1  0  0  0  0
 19 20  2  0  0  0  0
 19 40  1  0  0  0  0
 20 21  1  0  0  0  0
 20 22  1  0  0  0  0
 22 23  2  0  0  0  0
 22 41  1  0  0  0  0
 23 42  1  0  0  0  0
M  CHG  1   6   1
M  END
> <s_m_source_file>
AV-unprocessed.smi

> <i_m_source_file_index>
1021

> <i_lp_mmshare_version>
43012

> <i_f3d_flags>
0

> <s_epik_input>
W09IXVtDSDJdW0NIMl1bQ0gyXWMobjEpbihjKGMxMilbY0hdW2NIXVtjSF1bY0hdMilbQ0gyXVtDQEhdKFtPSF0pYzNbY0hdW2NIXWMoRilbY0hdW2NIXTM=

> <s_epik_cmdline>
J2VwaWtfcHl0aG9uJywgJy1waCcsICc3LjAnLCAnLXRuJywgJzgnLCAnLW1hJywgJzIwMCcsICctbWV0YWxfYmluZGluZycsICctaW1hZScsICc8aW5maWxlLm1hZT4nLCAnLW9tYWUnLCAnPG91dGZpbGUubWFlPic=

> <r_epik_Ionization_Penalty>
0.786441

> <r_epik_Ionization_Penalty_Charging>
0.786439

> <r_epik_Ionization_Penalty_Neutral>
1.96029e-06

> <r_epik_State_Penalty>
0.816472

> <r_epik_Charging_Adjusted_Penalty>
1.60291

> <i_epik_Tot_Q>
1

> <i_epik_Tot_abs_Q>
1

> <r_epik_Metal_State_Penalty>
4.73733

> <b_epik_Metal_Only>
0

> <s_lp_Force_Field>
OPLS_2005

> <r_lp_Energy>
17.0058

> <b_lp_Chiralities_Consistent>
1

> <s_lp_Variant>
AV-unprocessed.smi:1021-3

> <Gold.Version>
5.8.1

> <Gold.Id.Protein>
6NUR|6NUR_protein|mol2

> <Gold.PLP.Fitness>
59.5916

> <Gold.PLP.PLP>
-45.3017

> <Gold.PLP.part.hbond>
-7.7831

> <Gold.PLP.part.metal>
0.0000

> <Gold.PLP.part.buried>
-1.6876

> <Gold.PLP.part.nonpolar>
-37.6489

> <Gold.PLP.part.repulsive>
0.0713

> <Gold.PLP.ligand.clash>
0.0000

> <Gold.PLP.ligand.torsion>
0.3408

> <Gold.PLP.Chemscore.Hbond>
4.9280

> <Gold.PLP.Chemscore.CHOScore>
0.0000

> <Gold.PLP.Chemscore.Metal>
0.0000

> <Gold.Chemscore.Hbonds>
donor molecule, donor type, donor heavy atom, donor atom, acceptor molecule, acceptor atom, score
      L1  H     1    24       P1 10171  0.96
      L1  H     6    43       P1  7948  2.00
      P1  H  7954  7966       L1     1  0.99
      P1  H  8022  8030       L1    16  0.98

> <Gold.PLP.Chemscore.Internal.Correction>
0.1875

> <Gold.Rescore>
     Score         DG    S(hbond)    S(metal)    S(lipo)     H(rot)  DE(clash)    DE(int)     intcor
     16.98     -17.51       2.91        0.00      89.02       3.16       0.00       0.53       ----

> <Gold.Chemscore.Fitness>
16.9826

> <Gold.Chemscore.DG>
-17.5119

> <Gold.Chemscore.ZeroCoef>
-5.4800

> <Gold.Chemscore.Hbond>
2.9063

> <Gold.Chemscore.Metal>
0.0000

> <Gold.Chemscore.Lipo>
89.0203

> <Gold.Chemscore.Internal_Hbond>
0.0000

> <Gold.Chemscore.DEClash>
0.0009

> <Gold.Chemscore.DEInternal>
0.5284

> <Gold.Chemscore.Rot>
3.1604

> <Gold.Chemscore.Internal.Correction>
   9.000000E+99

> <Gold.Chemscore.Hbonds>
donor molecule, donor type, donor heavy atom, donor atom, acceptor molecule, acceptor atom, score
      L1  H     1    24       P1 10171  0.87
      L1  H     6    43       P1  7948  0.73
      P1  H  7954  7966       L1     1  0.48
      P1  H  8022  8030       L1    16  0.76

> <Gold.Chemscore.Hbond.Weighted>
-9.7072

> <Gold.Chemscore.Metal.Weighted>
-0.0000

> <Gold.Chemscore.Lipo.Weighted>
-10.4154

> <Gold.Chemscore.Internal_Hbond.Weighted>
0.0000

> <Gold.Chemscore.DEClash.Weighted>
0.0009

> <Gold.Chemscore.DEInternal.Weighted>
0.5284

> <Gold.Chemscore.Rot.Weighted>
8.0907

> <Gold.Chemscore.Internal.Correction.Weighted>
   9.000000E+99

> <Gold.Protein.RotatedTorsions>
[ 6907 6896 6895 6894 ] final  -19.82 input  -60.11 | X-H torsion
[ 7974 7965 7964 7962 ] final -121.26 input  175.53 | X-H torsion
[ 8008 7997 7996 7995 ] final  144.23 input   59.86 | X-H torsion
[ 10167 10162 10161 10158 ] final   70.12 input  -65.29 | X-H torsion
[ 10718 10713 10712 10709 ] final  -94.46 input   66.30 | X-H torsion
[ 10763 10752 10751 10750 ] final -163.41 input  -60.55 | X-H torsion
[ 11005 11000 10999 10996 ] final  -93.56 input  -57.11 | X-H torsion

> <Gold.Protein.ActiveResidues>
 VAL166  LYS551  ARG553  GLY616  TRP617  ASP618  TYR619  PRO620  LYS621  CYS622 
 ASP623  PHE694  ASN695  SER759  ASP760  ASP761  ALA762  ILE779  LEU786  VAL792 
 PHE793  MET794  SER795  GLU796  ALA797  LYS798  CYS799  TRP800  GLU811  SER814 

> <Gold.Protein.RotatedAtoms>
  151.2574  135.0642  159.9084 H   0  0  0  0  0  0  0  0  0  0  0  0  # atno 6907 bound_to 6896
  152.5371  134.0267  159.8016 H   0  0  0  0  0  0  0  0  0  0  0  0  # atno 6908 bound_to 6896
  151.0485  133.5595  159.2675 H   0  0  0  0  0  0  0  0  0  0  0  0  # atno 6909 bound_to 6896
  145.0423  140.8154  143.4259 H   0  0  0  0  0  0  0  0  0  0  0  0  # atno 7974 bound_to 7965
  156.2913  140.2241  156.5020 H   0  0  0  0  0  0  0  0  0  0  0  0  # atno 8008 bound_to 7997
  154.7682  140.0468  157.1051 H   0  0  0  0  0  0  0  0  0  0  0  0  # atno 8009 bound_to 7997
  154.9907  140.3090  155.4911 H   0  0  0  0  0  0  0  0  0  0  0  0  # atno 8010 bound_to 7997
  140.0604  144.5238  150.7299 H   0  0  0  0  0  0  0  0  0  0  0  0  # atno 10167 bound_to 10162
  156.0027  130.5069  150.5930 H   0  0  0  0  0  0  0  0  0  0  0  0  # atno 10718 bound_to 10713
  154.7125  135.3009  154.9175 H   0  0  0  0  0  0  0  0  0  0  0  0  # atno 10763 bound_to 10752
  154.0072  135.6699  153.4767 H   0  0  0  0  0  0  0  0  0  0  0  0  # atno 10764 bound_to 10752
  153.0767  135.5031  154.8332 H   0  0  0  0  0  0  0  0  0  0  0  0  # atno 10765 bound_to 10752
  141.1494  133.7896  157.0176 H   0  0  0  0  0  0  0  0  0  0  0  0  # atno 11005 bound_to 11000
  145.1632  139.2446  143.5380 LP  0  0  0  0  0  0  0  0  0  0  0  0  # atno 17320 bound_to 7965
  146.3510  140.1365  142.8595 LP  0  0  0  0  0  0  0  0  0  0  0  0  # atno 17321 bound_to 7965
  140.7175  143.2557  151.4388 LP  0  0  0  0  0  0  0  0  0  0  0  0  # atno 17342 bound_to 10162
  139.5897  144.1525  152.2073 LP  0  0  0  0  0  0  0  0  0  0  0  0  # atno 17343 bound_to 10162
  157.3792  131.0778  151.1492 LP  0  0  0  0  0  0  0  0  0  0  0  0  # atno 17370 bound_to 10713
  157.2220  130.6485  149.5815 LP  0  0  0  0  0  0  0  0  0  0  0  0  # atno 17371 bound_to 10713
  140.0836  134.9633  157.1665 LP  0  0  0  0  0  0  0  0  0  0  0  0  # atno 17394 bound_to 11000
  140.3542  134.2565  155.7194 LP  0  0  0  0  0  0  0  0  0  0  0  0  # atno 17395 bound_to 11000

$$$$
