AV-unprocessed.smi:867|AV-procd|sdf|4000|dock2
  -GOLD-   22720 1483D 1   1.00000     0.00000
 Structure written by MMmdl.
 54 57  0  0  0  0  0  0  0  0  3 V2000
  148.5558  138.8367  154.1986 O   0  0  0  0  0  0  0  0  0  0  0  0
  147.8082  139.6150  154.7917 C   0  0  0  0  0  0  0  0  0  0  0  0
  146.5773  139.2562  155.1948 N   0  0  0  0  0  0  0  0  0  0  0  0
  145.9840  137.9377  155.0054 C   0  0  0  0  0  0  0  0  0  0  0  0
  144.5269  137.8979  155.4939 C   0  0  0  0  0  0  0  0  0  0  0  0
  143.6740  136.9555  154.6676 C   0  0  0  0  0  0  0  0  0  0  0  0
  142.8949  137.4472  153.5967 C   0  0  0  0  0  0  0  0  0  0  0  0
  142.1065  136.5500  152.8464 C   0  0  0  0  0  0  0  0  0  0  0  0
  142.1144  135.1812  153.1844 C   0  0  0  0  0  0  0  0  0  0  0  0
  142.8717  134.7478  154.2163 N   0  3  0  0  0  0  0  0  0  0  0  0
  143.6404  135.5745  154.9590 C   0  0  0  0  0  0  0  0  0  0  0  0
  148.1265  140.9114  155.0313 N   0  0  0  0  0  0  0  0  0  0  0  0
  147.3991  141.8322  155.9122 C   0  0  0  0  0  0  0  0  0  0  0  0
  148.2039  142.0125  157.2116 C   0  0  0  0  0  0  0  0  0  0  0  0
  149.5927  142.4983  156.9509 N   0  3  0  0  0  0  0  0  0  0  0  0
  150.3685  142.6758  158.2177 C   0  0  2  0  0  0  0  0  0  0  0  0
  149.8569  143.8787  159.0558 C   0  0  0  0  0  0  0  0  0  0  0  0
  151.1226  144.7143  159.3061 C   0  0  1  0  0  0  0  0  0  0  0  0
  152.0576  143.9617  160.2672 C   0  0  0  0  0  0  0  0  0  0  0  0
  152.5958  142.8234  159.3831 C   0  0  0  0  0  0  0  0  0  0  0  0
  151.8685  143.0510  158.0427 C   0  0  2  0  0  0  0  0  0  0  0  0
  151.8427  144.5737  157.9719 C   0  0  0  0  0  0  0  0  0  0  0  0
  150.2849  141.6668  155.9218 C   0  0  0  0  0  0  0  0  0  0  0  0
  149.4243  141.4752  154.6592 C   0  0  0  0  0  0  0  0  0  0  0  0
  146.0053  139.9531  155.6496 H   0  0  0  0  0  0  0  0  0  0  0  0
  146.0275  137.6962  153.9430 H   0  0  0  0  0  0  0  0  0  0  0  0
  146.5824  137.1832  155.5191 H   0  0  0  0  0  0  0  0  0  0  0  0
  144.4848  137.5836  156.5378 H   0  0  0  0  0  0  0  0  0  0  0  0
  144.0924  138.8977  155.4569 H   0  0  0  0  0  0  0  0  0  0  0  0
  142.8989  138.5000  153.3530 H   0  0  0  0  0  0  0  0  0  0  0  0
  141.5038  136.9075  152.0242 H   0  0  0  0  0  0  0  0  0  0  0  0
  141.5417  134.4264  152.6656 H   0  0  0  0  0  0  0  0  0  0  0  0
  144.1985  135.1089  155.7586 H   0  0  0  0  0  0  0  0  0  0  0  0
  147.2817  142.7932  155.4088 H   0  0  0  0  0  0  0  0  0  0  0  0
  146.3876  141.5051  156.1532 H   0  0  0  0  0  0  0  0  0  0  0  0
  147.6645  142.7023  157.8591 H   0  0  0  0  0  0  0  0  0  0  0  0
  148.2513  141.0610  157.7442 H   0  0  0  0  0  0  0  0  0  0  0  0
  150.2891  141.7495  158.7895 H   0  0  0  0  0  0  0  0  0  0  0  0
  149.1426  144.4897  158.5029 H   0  0  0  0  0  0  0  0  0  0  0  0
  149.3756  143.5637  159.9825 H   0  0  0  0  0  0  0  0  0  0  0  0
  150.9153  145.7403  159.6118 H   0  0  0  0  0  0  0  0  0  0  0  0
  152.8723  144.6044  160.6034 H   0  0  0  0  0  0  0  0  0  0  0  0
  151.5337  143.5935  161.1502 H   0  0  0  0  0  0  0  0  0  0  0  0
  153.6752  142.9193  159.2566 H   0  0  0  0  0  0  0  0  0  0  0  0
  152.3989  141.8374  159.8052 H   0  0  0  0  0  0  0  0  0  0  0  0
  152.3983  142.5659  157.2264 H   0  0  0  0  0  0  0  0  0  0  0  0
  151.2719  144.9595  157.1256 H   0  0  0  0  0  0  0  0  0  0  0  0
  152.8368  145.0249  157.9689 H   0  0  0  0  0  0  0  0  0  0  0  0
  151.2150  142.1333  155.6055 H   0  0  0  0  0  0  0  0  0  0  0  0
  150.5386  140.6959  156.3505 H   0  0  0  0  0  0  0  0  0  0  0  0
  149.9573  140.8583  153.9338 H   0  0  0  0  0  0  0  0  0  0  0  0
  149.2680  142.4357  154.1654 H   0  0  0  0  0  0  0  0  0  0  0  0
  149.4987  143.4174  156.5431 H   0  0  0  0  0  0  0  0  0  0  0  0
  142.8618  133.7532  154.4448 H   0  0  0  0  0  0  0  0  0  0  0  0
  1  2  2  0  0  0  0
  2  3  1  0  0  0  0
  2 12  1  0  0  0  0
  3  4  1  0  0  0  0
  3 25  1  0  0  0  0
  4  5  1  0  0  0  0
  4 26  1  0  0  0  0
  4 27  1  0  0  0  0
  5  6  1  0  0  0  0
  5 28  1  0  0  0  0
  5 29  1  0  0  0  0
  6 11  1  0  0  0  0
  6  7  2  0  0  0  0
  7  8  1  0  0  0  0
  7 30  1  0  0  0  0
  8  9  2  0  0  0  0
  8 31  1  0  0  0  0
  9 10  1  0  0  0  0
  9 32  1  0  0  0  0
 10 11  2  0  0  0  0
 10 54  1  0  0  0  0
 11 33  1  0  0  0  0
 12 24  1  0  0  0  0
 12 13  1  0  0  0  0
 13 14  1  0  0  0  0
 13 34  1  0  0  0  0
 13 35  1  0  0  0  0
 14 15  1  0  0  0  0
 14 36  1  0  0  0  0
 14 37  1  0  0  0  0
 15 16  1  0  0  0  0
 15 23  1  0  0  0  0
 15 53  1  0  0  0  0
 16 21  1  0  0  0  0
 16 17  1  0  0  0  0
 16 38  1  0  0  0  0
 17 18  1  0  0  0  0
 17 39  1  0  0  0  0
 17 40  1  0  0  0  0
 18 22  1  0  0  0  0
 18 19  1  0  0  0  0
 18 41  1  0  0  0  0
 19 20  1  0  0  0  0
 19 42  1  0  0  0  0
 19 43  1  0  0  0  0
 20 21  1  0  0  0  0
 20 44  1  0  0  0  0
 20 45  1  0  0  0  0
 21 22  1  0  0  0  0
 21 46  1  0  0  0  0
 22 47  1  0  0  0  0
 22 48  1  0  0  0  0
 23 24  1  0  0  0  0
 23 49  1  0  0  0  0
 23 50  1  0  0  0  0
 24 51  1  0  0  0  0
 24 52  1  0  0  0  0
M  CHG  1  10   1
M  CHG  1  15   1
M  END
> <s_m_source_file>
AV-unprocessed.smi

> <i_m_source_file_index>
867

> <i_lp_mmshare_version>
43012

> <i_f3d_flags>
0

> <s_epik_input>
W0NIMl0xW0NIMl1bQ0BASF0oW0NIMl0yKVtDQEBIXShbQ0gyXVtDQEhdMTIpTihbQ0gyXVtDSDJdMylbQ0gyXVtDSDJdTjNDKD1PKVtOSF1bQ0gyXVtDSDJdYzRbY0hdW2NIXVtjSF1uW2NIXTQ=

> <s_epik_cmdline>
J2VwaWtfcHl0aG9uJywgJy1waCcsICc3LjAnLCAnLXRuJywgJzgnLCAnLW1hJywgJzIwMCcsICctbWV0YWxfYmluZGluZycsICctaW1hZScsICc8aW5maWxlLm1hZT4nLCAnLW9tYWUnLCAnPG91dGZpbGUubWFlPic=

> <r_epik_Ionization_Penalty>
2.25108

> <r_epik_Ionization_Penalty_Charging>
2.25105

> <r_epik_Ionization_Penalty_Neutral>
2.64641e-05

> <r_epik_State_Penalty>
2.39519

> <r_epik_Charging_Adjusted_Penalty>
4.64625

> <i_epik_Tot_Q>
2

> <i_epik_Tot_abs_Q>
2

> <r_epik_Metal_State_Penalty>
2.40865

> <b_epik_Metal_Only>
0

> <s_lp_Force_Field>
OPLS_2005

> <r_lp_Energy>
104.696

> <b_lp_Chiralities_Consistent>
1

> <s_lp_Variant>
AV-unprocessed.smi:867-7

> <Gold.Version>
5.8.1

> <Gold.Id.Protein>
6NUR|6NUR_protein|mol2

> <Gold.PLP.Fitness>
51.9904

> <Gold.PLP.PLP>
-41.3983

> <Gold.PLP.part.hbond>
-2.4830

> <Gold.PLP.part.metal>
0.0000

> <Gold.PLP.part.buried>
-6.8403

> <Gold.PLP.part.nonpolar>
-32.1558

> <Gold.PLP.part.repulsive>
0.1893

> <Gold.PLP.ligand.clash>
0.0000

> <Gold.PLP.ligand.torsion>
0.7628

> <Gold.PLP.Chemscore.Hbond>
4.0000

> <Gold.PLP.Chemscore.CHOScore>
0.0000

> <Gold.PLP.Chemscore.Metal>
0.0000

> <Gold.Chemscore.Hbonds>
donor molecule, donor type, donor heavy atom, donor atom, acceptor molecule, acceptor atom, score
      L1  H    10    54       P1 10957  2.00
      L1  H    15    53       P1  8028  2.00

> <Gold.PLP.Chemscore.Internal.Correction>
0.1178

> <Gold.Rescore>
     Score         DG    S(hbond)    S(metal)    S(lipo)     H(rot)  DE(clash)    DE(int)     intcor
     20.90     -21.58       2.00        0.00     112.49       1.46       0.14       0.54       ----

> <Gold.Chemscore.Fitness>
20.9050

> <Gold.Chemscore.DG>
-21.5803

> <Gold.Chemscore.ZeroCoef>
-5.4800

> <Gold.Chemscore.Hbond>
1.9968

> <Gold.Chemscore.Metal>
0.0000

> <Gold.Chemscore.Lipo>
112.4914

> <Gold.Chemscore.Internal_Hbond>
0.0000

> <Gold.Chemscore.DEClash>
0.1361

> <Gold.Chemscore.DEInternal>
0.5392

> <Gold.Chemscore.Rot>
1.4572

> <Gold.Chemscore.Internal.Correction>
   9.000000E+99

> <Gold.Chemscore.Hbonds>
donor molecule, donor type, donor heavy atom, donor atom, acceptor molecule, acceptor atom, score
      L1  H    10    54       P1 10957  0.93
      L1  H    15    53       P1  8028  1.00

> <Gold.Chemscore.Hbond.Weighted>
-6.6693

> <Gold.Chemscore.Metal.Weighted>
-0.0000

> <Gold.Chemscore.Lipo.Weighted>
-13.1615

> <Gold.Chemscore.Internal_Hbond.Weighted>
0.0000

> <Gold.Chemscore.DEClash.Weighted>
0.1361

> <Gold.Chemscore.DEInternal.Weighted>
0.5392

> <Gold.Chemscore.Rot.Weighted>
3.7305

> <Gold.Chemscore.Internal.Correction.Weighted>
   9.000000E+99

> <Gold.Protein.RotatedTorsions>
[ 6907 6896 6895 6894 ] final  126.57 input  -60.11 | X-H torsion
[ 7974 7965 7964 7962 ] final   23.29 input  175.53 | X-H torsion
[ 8008 7997 7996 7995 ] final  124.04 input   59.86 | X-H torsion
[ 10167 10162 10161 10158 ] final -133.42 input  -65.29 | X-H torsion
[ 10718 10713 10712 10709 ] final -169.05 input   66.30 | X-H torsion
[ 10763 10752 10751 10750 ] final   26.45 input  -60.55 | X-H torsion
[ 11005 11000 10999 10996 ] final   89.15 input  -57.11 | X-H torsion

> <Gold.Protein.ActiveResidues>
 VAL166  LYS551  ARG553  GLY616  TRP617  ASP618  TYR619  PRO620  LYS621  CYS622 
 ASP623  PHE694  ASN695  SER759  ASP760  ASP761  ALA762  ILE779  LEU786  VAL792 
 PHE793  MET794  SER795  GLU796  ALA797  LYS798  CYS799  TRP800  GLU811  SER814 

> <Gold.Protein.RotatedAtoms>
  152.3891  133.6653  159.6222 H   0  0  0  0  0  0  0  0  0  0  0  0  # atno 6907 bound_to 6896
  150.7803  133.8984  159.3343 H   0  0  0  0  0  0  0  0  0  0  0  0  # atno 6908 bound_to 6896
  151.6775  135.0968  160.0261 H   0  0  0  0  0  0  0  0  0  0  0  0  # atno 6909 bound_to 6896
  146.1991  139.7765  142.8775 H   0  0  0  0  0  0  0  0  0  0  0  0  # atno 7974 bound_to 7965
  156.2787  140.2749  156.1725 H   0  0  0  0  0  0  0  0  0  0  0  0  # atno 8008 bound_to 7997
  155.0640  140.0387  157.2604 H   0  0  0  0  0  0  0  0  0  0  0  0  # atno 8009 bound_to 7997
  154.7094  140.2665  155.6649 H   0  0  0  0  0  0  0  0  0  0  0  0  # atno 8010 bound_to 7997
  139.8985  143.6637  152.2599 H   0  0  0  0  0  0  0  0  0  0  0  0  # atno 10167 bound_to 10162
  156.7059  130.9215  151.3084 H   0  0  0  0  0  0  0  0  0  0  0  0  # atno 10718 bound_to 10713
  153.0622  135.6560  154.0437 H   0  0  0  0  0  0  0  0  0  0  0  0  # atno 10763 bound_to 10752
  154.0102  135.2929  155.3394 H   0  0  0  0  0  0  0  0  0  0  0  0  # atno 10764 bound_to 10752
  154.6965  135.5262  153.8534 H   0  0  0  0  0  0  0  0  0  0  0  0  # atno 10765 bound_to 10752
  139.8881  134.8533  156.3102 H   0  0  0  0  0  0  0  0  0  0  0  0  # atno 11005 bound_to 11000
  145.3545  141.0314  143.3320 LP  0  0  0  0  0  0  0  0  0  0  0  0  # atno 17320 bound_to 7965
  144.8644  139.5130  143.6797 LP  0  0  0  0  0  0  0  0  0  0  0  0  # atno 17321 bound_to 7965
  139.7046  144.7630  151.1214 LP  0  0  0  0  0  0  0  0  0  0  0  0  # atno 17342 bound_to 10162
  140.7712  143.5411  150.9311 LP  0  0  0  0  0  0  0  0  0  0  0  0  # atno 17343 bound_to 10162
  157.6955  130.9277  150.0632 LP  0  0  0  0  0  0  0  0  0  0  0  0  # atno 17370 bound_to 10713
  156.1695  130.3646  149.9185 LP  0  0  0  0  0  0  0  0  0  0  0  0  # atno 17371 bound_to 10713
  140.9855  133.7240  156.0736 LP  0  0  0  0  0  0  0  0  0  0  0  0  # atno 17394 bound_to 11000
  140.7693  134.3851  157.5511 LP  0  0  0  0  0  0  0  0  0  0  0  0  # atno 17395 bound_to 11000

$$$$
