AV-unprocessed.smi:1433|AV-procd|sdf|5837|dock2
  -GOLD-   22720 5503D 1   1.00000     0.00000
 Structure written by MMmdl.
 44 45  0  0  0  0  0  0  0  0  1 V2000
  145.8083  131.1522  152.1264 C   0  0  0  0  0  0  0  0  0  0  0  0
  146.2155  132.3509  151.2522 C   0  0  2  0  0  0  0  0  0  0  0  0
  146.0021  133.7123  151.9437 C   0  0  0  0  0  0  0  0  0  0  0  0
  144.5940  134.1168  152.0297 N   0  0  0  0  0  0  0  0  0  0  0  0
  144.4174  135.4425  152.6686 C   0  0  1  0  0  0  0  0  0  0  0  0
  145.5815  136.4189  152.3557 C   0  0  0  0  0  0  0  0  0  0  0  0
  143.0749  136.1311  152.2970 C   0  0  0  0  0  0  0  0  0  0  0  0
  142.4462  136.7673  153.4479 N   0  0  0  0  0  0  0  0  0  0  0  0
  141.6147  136.1587  154.3058 C   0  0  0  0  0  0  0  0  0  0  0  0
  141.3207  134.9656  154.2366 O   0  0  0  0  0  0  0  0  0  0  0  0
  141.0216  137.0325  155.4124 C   0  0  0  0  0  0  0  0  0  0  0  0
  139.5857  137.1819  155.2501 N   0  0  0  0  0  0  0  0  0  0  0  0
  138.7932  136.7494  154.2072 C   0  0  0  0  0  0  0  0  0  0  0  0
  137.5117  137.1289  154.4863 C   0  0  0  0  0  0  0  0  0  0  0  0
  137.6214  137.7978  155.7375 C   0  0  0  0  0  0  0  0  0  0  0  0
  138.8635  137.8274  156.1930 N   0  0  0  0  0  0  0  0  0  0  0  0
  144.0264  134.0635  150.6792 C   0  0  0  0  0  0  0  0  0  0  0  0
  144.1881  132.6846  150.0144 C   0  0  1  0  0  0  0  0  0  0  0  0
  143.6654  132.6755  148.5739 C   0  0  0  0  0  0  0  0  0  0  0  0
  145.5662  132.3298  149.9834 O   0  0  0  0  0  0  0  0  0  0  0  0
  146.4058  131.1175  153.0377 H   0  0  0  0  0  0  0  0  0  0  0  0
  145.9631  130.2130  151.5949 H   0  0  0  0  0  0  0  0  0  0  0  0
  144.7618  131.1989  152.4268 H   0  0  0  0  0  0  0  0  0  0  0  0
  147.2815  132.2447  151.0491 H   0  0  0  0  0  0  0  0  0  0  0  0
  146.4486  133.6392  152.9331 H   0  0  0  0  0  0  0  0  0  0  0  0
  146.5639  134.4753  151.4027 H   0  0  0  0  0  0  0  0  0  0  0  0
  144.4089  135.2948  153.7498 H   0  0  0  0  0  0  0  0  0  0  0  0
  145.4225  137.4117  152.7759 H   0  0  0  0  0  0  0  0  0  0  0  0
  145.7163  136.5387  151.2803 H   0  0  0  0  0  0  0  0  0  0  0  0
  146.5273  136.0842  152.7793 H   0  0  0  0  0  0  0  0  0  0  0  0
  143.2424  136.8651  151.5065 H   0  0  0  0  0  0  0  0  0  0  0  0
  142.3427  135.4173  151.9234 H   0  0  0  0  0  0  0  0  0  0  0  0
  142.6292  137.7516  153.5829 H   0  0  0  0  0  0  0  0  0  0  0  0
  141.2189  136.5861  156.3879 H   0  0  0  0  0  0  0  0  0  0  0  0
  141.4952  138.0156  155.4057 H   0  0  0  0  0  0  0  0  0  0  0  0
  139.2046  136.2162  153.3626 H   0  0  0  0  0  0  0  0  0  0  0  0
  136.6299  136.9570  153.8871 H   0  0  0  0  0  0  0  0  0  0  0  0
  136.8409  138.2595  156.3241 H   0  0  0  0  0  0  0  0  0  0  0  0
  142.9596  134.2772  150.7032 H   0  0  0  0  0  0  0  0  0  0  0  0
  144.4888  134.8293  150.0544 H   0  0  0  0  0  0  0  0  0  0  0  0
  143.6322  131.9389  150.5835 H   0  0  0  0  0  0  0  0  0  0  0  0
  142.6058  132.9301  148.5385 H   0  0  0  0  0  0  0  0  0  0  0  0
  143.7855  131.6906  148.1223 H   0  0  0  0  0  0  0  0  0  0  0  0
  144.2035  133.3935  147.9542 H   0  0  0  0  0  0  0  0  0  0  0  0
  1  2  1  0  0  0  0
  1 21  1  0  0  0  0
  1 22  1  0  0  0  0
  1 23  1  0  0  0  0
  2 20  1  0  0  0  0
  2  3  1  0  0  0  0
  2 24  1  0  0  0  0
  3  4  1  0  0  0  0
  3 25  1  0  0  0  0
  3 26  1  0  0  0  0
  4  5  1  0  0  0  0
  4 17  1  0  0  0  0
  5  6  1  0  0  0  0
  5  7  1  0  0  0  0
  5 27  1  0  0  0  0
  6 28  1  0  0  0  0
  6 29  1  0  0  0  0
  6 30  1  0  0  0  0
  7  8  1  0  0  0  0
  7 31  1  0  0  0  0
  7 32  1  0  0  0  0
  8  9  1  0  0  0  0
  8 33  1  0  0  0  0
  9 10  2  0  0  0  0
  9 11  1  0  0  0  0
 11 12  1  0  0  0  0
 11 34  1  0  0  0  0
 11 35  1  0  0  0  0
 12 16  1  0  0  0  0
 12 13  1  0  0  0  0
 13 14  2  0  0  0  0
 13 36  1  0  0  0  0
 14 15  1  0  0  0  0
 14 37  1  0  0  0  0
 15 16  2  0  0  0  0
 15 38  1  0  0  0  0
 17 18  1  0  0  0  0
 17 39  1  0  0  0  0
 17 40  1  0  0  0  0
 18 19  1  0  0  0  0
 18 20  1  0  0  0  0
 18 41  1  0  0  0  0
 19 42  1  0  0  0  0
 19 43  1  0  0  0  0
 19 44  1  0  0  0  0
M  END
> <s_m_source_file>
AV-unprocessed.smi

> <i_m_source_file_index>
1433

> <i_lp_mmshare_version>
43012

> <i_f3d_flags>
0

> <s_epik_input>
W0NIM11bQ0BASF0xW0NIMl1OKFtDSDJdW0NASF0oTzEpW0NIM10pW0NASF0oW0NIM10pW0NIMl1bTkhdQyg9TylbQ0gyXW4yW2NIXVtjSF1bY0hdbjI=

> <s_epik_cmdline>
J2VwaWtfcHl0aG9uJywgJy1waCcsICc3LjAnLCAnLXRuJywgJzgnLCAnLW1hJywgJzIwMCcsICctbWV0YWxfYmluZGluZycsICctaW1hZScsICc8aW5maWxlLm1hZT4nLCAnLW9tYWUnLCAnPG91dGZpbGUubWFlPic=

> <r_lp_tautomer_probability>
1

> <r_epik_Ionization_Penalty>
0.196927

> <r_epik_Ionization_Penalty_Charging>
0

> <r_epik_Ionization_Penalty_Neutral>
0.196927

> <r_epik_State_Penalty>
0.186684

> <r_epik_Charging_Adjusted_Penalty>
0.186684

> <i_epik_Tot_Q>
0

> <i_epik_Tot_abs_Q>
0

> <r_epik_Metal_State_Penalty>
0.186682

> <b_epik_Metal_Only>
0

> <s_lp_Force_Field>
OPLS_2005

> <r_lp_Energy>
30.021

> <b_lp_Chiralities_Consistent>
1

> <s_lp_Variant>
AV-unprocessed.smi:1433-3

> <Gold.Version>
5.8.1

> <Gold.Id.Protein>
6NUR|6NUR_protein|mol2

> <Gold.PLP.Fitness>
36.6249

> <Gold.PLP.PLP>
-33.4679

> <Gold.PLP.part.hbond>
-1.0000

> <Gold.PLP.part.metal>
0.0000

> <Gold.PLP.part.buried>
-7.5095

> <Gold.PLP.part.nonpolar>
-26.1960

> <Gold.PLP.part.repulsive>
0.4140

> <Gold.PLP.ligand.clash>
0.0000

> <Gold.PLP.ligand.torsion>
1.3717

> <Gold.PLP.Chemscore.Hbond>
0.9425

> <Gold.PLP.Chemscore.CHOScore>
0.9928

> <Gold.PLP.Chemscore.Metal>
0.0000

> <Gold.Chemscore.Hbonds>
donor molecule, donor type, donor heavy atom, donor atom, acceptor molecule, acceptor atom, score
      P1  H 11000 11005       L1    10  0.96
      L1  C    13    36       P1 10187  0.35

> <Gold.PLP.Chemscore.Internal.Correction>
0.0946

> <Gold.Rescore>
     Score         DG    S(hbond)    S(metal)    S(lipo)     H(rot)  DE(clash)    DE(int)     intcor
     13.18     -14.87       0.87        0.00      94.87       1.80       0.25       1.43       ----

> <Gold.Chemscore.Fitness>
13.1819

> <Gold.Chemscore.DG>
-14.8677

> <Gold.Chemscore.ZeroCoef>
-5.4800

> <Gold.Chemscore.Hbond>
0.8701

> <Gold.Chemscore.Metal>
0.0000

> <Gold.Chemscore.Lipo>
94.8673

> <Gold.Chemscore.Internal_Hbond>
0.0000

> <Gold.Chemscore.DEClash>
0.2532

> <Gold.Chemscore.DEInternal>
1.4326

> <Gold.Chemscore.Rot>
1.8038

> <Gold.Chemscore.Internal.Correction>
   9.000000E+99

> <Gold.Chemscore.Hbonds>
donor molecule, donor type, donor heavy atom, donor atom, acceptor molecule, acceptor atom, score
      P1  H 11000 11005       L1    10  0.88

> <Gold.Chemscore.Hbond.Weighted>
-2.9060

> <Gold.Chemscore.Metal.Weighted>
-0.0000

> <Gold.Chemscore.Lipo.Weighted>
-11.0995

> <Gold.Chemscore.Internal_Hbond.Weighted>
0.0000

> <Gold.Chemscore.DEClash.Weighted>
0.2532

> <Gold.Chemscore.DEInternal.Weighted>
1.4326

> <Gold.Chemscore.Rot.Weighted>
4.6178

> <Gold.Chemscore.Internal.Correction.Weighted>
   9.000000E+99

> <Gold.Protein.RotatedTorsions>
[ 6907 6896 6895 6894 ] final -150.45 input  -60.11 | X-H torsion
[ 7974 7965 7964 7962 ] final -127.95 input  175.53 | X-H torsion
[ 8008 7997 7996 7995 ] final   94.13 input   59.86 | X-H torsion
[ 10167 10162 10161 10158 ] final -106.19 input  -65.29 | X-H torsion
[ 10718 10713 10712 10709 ] final   76.46 input   66.30 | X-H torsion
[ 10763 10752 10751 10750 ] final  -72.91 input  -60.55 | X-H torsion
[ 11005 11000 10999 10996 ] final   19.31 input  -57.11 | X-H torsion

> <Gold.Protein.ActiveResidues>
 VAL166  LYS551  ARG553  GLY616  TRP617  ASP618  TYR619  PRO620  LYS621  CYS622 
 ASP623  PHE694  ASN695  SER759  ASP760  ASP761  ALA762  ILE779  LEU786  VAL792 
 PHE793  MET794  SER795  GLU796  ALA797  LYS798  CYS799  TRP800  GLU811  SER814 

> <Gold.Protein.RotatedAtoms>
  151.1988  133.4623  159.2595 H   0  0  0  0  0  0  0  0  0  0  0  0  # atno 6907 bound_to 6896
  151.1090  135.0016  159.8495 H   0  0  0  0  0  0  0  0  0  0  0  0  # atno 6908 bound_to 6896
  152.5449  134.1908  159.8726 H   0  0  0  0  0  0  0  0  0  0  0  0  # atno 6909 bound_to 6896
  144.9719  140.7554  143.4665 H   0  0  0  0  0  0  0  0  0  0  0  0  # atno 7974 bound_to 7965
  156.0545  140.3304  155.7389 H   0  0  0  0  0  0  0  0  0  0  0  0  # atno 8008 bound_to 7997
  155.5551  140.0614  157.2859 H   0  0  0  0  0  0  0  0  0  0  0  0  # atno 8009 bound_to 7997
  154.4451  140.1887  156.0714 H   0  0  0  0  0  0  0  0  0  0  0  0  # atno 8010 bound_to 7997
  140.1905  143.3896  152.1210 H   0  0  0  0  0  0  0  0  0  0  0  0  # atno 10167 bound_to 10162
  157.6674  130.9775  150.1501 H   0  0  0  0  0  0  0  0  0  0  0  0  # atno 10718 bound_to 10713
  154.4522  135.5914  153.6199 H   0  0  0  0  0  0  0  0  0  0  0  0  # atno 10763 bound_to 10752
  152.9815  135.6024  154.3590 H   0  0  0  0  0  0  0  0  0  0  0  0  # atno 10764 bound_to 10752
  154.3452  135.2841  155.2380 H   0  0  0  0  0  0  0  0  0  0  0  0  # atno 10765 bound_to 10752
  140.4151  134.1577  155.7669 H   0  0  0  0  0  0  0  0  0  0  0  0  # atno 11005 bound_to 11000
  145.2546  139.2017  143.4924 LP  0  0  0  0  0  0  0  0  0  0  0  0  # atno 17320 bound_to 7965
  146.3384  140.2465  142.8597 LP  0  0  0  0  0  0  0  0  0  0  0  0  # atno 17321 bound_to 7965
  139.5258  144.7100  151.5235 LP  0  0  0  0  0  0  0  0  0  0  0  0  # atno 17342 bound_to 10162
  140.6459  143.8795  150.6737 LP  0  0  0  0  0  0  0  0  0  0  0  0  # atno 17343 bound_to 10162
  156.2302  130.3681  149.8454 LP  0  0  0  0  0  0  0  0  0  0  0  0  # atno 17370 bound_to 10713
  156.6282  130.8655  151.3490 LP  0  0  0  0  0  0  0  0  0  0  0  0  # atno 17371 bound_to 10713
  141.1806  133.8422  157.1271 LP  0  0  0  0  0  0  0  0  0  0  0  0  # atno 17394 bound_to 11000
  140.0240  134.9933  157.0648 LP  0  0  0  0  0  0  0  0  0  0  0  0  # atno 17395 bound_to 11000

$$$$
