AV-unprocessed.smi:1014|AV-procd|sdf|4432|dock2
  -GOLD-   22720 2393D 1   1.00000     0.00000
 Structure written by MMmdl.
 33 33  0  0  0  0  0  0  0  0  1 V2000
  146.9446  141.2069  153.8094 C   0  0  0  0  0  0  0  0  0  0  0  0
  148.4140  141.5248  154.1206 C   0  0  0  0  0  0  0  0  0  0  0  0
  149.1186  140.4166  154.9312 C   0  0  2  0  0  0  0  0  0  0  0  0
  150.5637  140.6987  155.0236 N   0  0  0  0  0  0  0  0  0  0  0  0
  150.9078  141.8055  155.9088 C   0  0  0  0  0  0  0  0  0  0  0  0
  150.8651  141.3211  157.3649 C   0  0  0  0  0  0  0  0  0  0  0  0
  151.3223  142.3477  158.2809 N   0  0  0  0  0  0  0  0  0  0  0  0
  150.9339  143.6685  158.3499 C   0  0  0  0  0  0  0  0  0  0  0  0
  151.6386  144.2515  159.3648 C   0  0  0  0  0  0  0  0  0  0  0  0
  151.5871  145.6722  159.8483 C   0  0  0  0  0  0  0  0  0  0  0  0
  152.4445  143.1876  159.8613 C   0  0  0  0  0  0  0  0  0  0  0  0
  152.2545  142.0511  159.2110 N   0  0  0  0  0  0  0  0  0  0  0  0
  148.8165  139.0364  154.3216 C   0  0  0  0  0  0  0  0  0  0  0  0
  149.0688  138.8743  153.0204 N   0  0  0  0  0  0  0  0  0  0  0  0
  148.3439  138.1363  155.0136 O   0  0  0  0  0  0  0  0  0  0  0  0
  146.4917  142.0062  153.2230 H   0  0  0  0  0  0  0  0  0  0  0  0
  146.3597  141.0945  154.7225 H   0  0  0  0  0  0  0  0  0  0  0  0
  146.8536  140.2834  153.2371 H   0  0  0  0  0  0  0  0  0  0  0  0
  148.9316  141.6747  153.1715 H   0  0  0  0  0  0  0  0  0  0  0  0
  148.4772  142.4765  154.6504 H   0  0  0  0  0  0  0  0  0  0  0  0
  148.7078  140.4292  155.9426 H   0  0  0  0  0  0  0  0  0  0  0  0
  151.0867  139.8744  155.2826 H   0  0  0  0  0  0  0  0  0  0  0  0
  151.9050  142.1756  155.6661 H   0  0  0  0  0  0  0  0  0  0  0  0
  150.2087  142.6327  155.7814 H   0  0  0  0  0  0  0  0  0  0  0  0
  149.8486  141.0397  157.6441 H   0  0  0  0  0  0  0  0  0  0  0  0
  151.4868  140.4335  157.4948 H   0  0  0  0  0  0  0  0  0  0  0  0
  150.1966  144.0803  157.6767 H   0  0  0  0  0  0  0  0  0  0  0  0
  151.8330  145.7474  160.9078 H   0  0  0  0  0  0  0  0  0  0  0  0
  150.5967  146.1085  159.7179 H   0  0  0  0  0  0  0  0  0  0  0  0
  152.2916  146.3052  159.3087 H   0  0  0  0  0  0  0  0  0  0  0  0
  153.1593  143.2085  160.6708 H   0  0  0  0  0  0  0  0  0  0  0  0
  148.8858  137.9847  152.5790 H   0  0  0  0  0  0  0  0  0  0  0  0
  149.4424  139.6429  152.4828 H   0  0  0  0  0  0  0  0  0  0  0  0
  1  2  1  0  0  0  0
  1 16  1  0  0  0  0
  1 17  1  0  0  0  0
  1 18  1  0  0  0  0
  2  3  1  0  0  0  0
  2 19  1  0  0  0  0
  2 20  1  0  0  0  0
  3  4  1  0  0  0  0
  3 13  1  0  0  0  0
  3 21  1  0  0  0  0
  4  5  1  0  0  0  0
  4 22  1  0  0  0  0
  5  6  1  0  0  0  0
  5 23  1  0  0  0  0
  5 24  1  0  0  0  0
  6  7  1  0  0  0  0
  6 25  1  0  0  0  0
  6 26  1  0  0  0  0
  7 12  1  0  0  0  0
  7  8  1  0  0  0  0
  8  9  2  0  0  0  0
  8 27  1  0  0  0  0
  9 10  1  0  0  0  0
  9 11  1  0  0  0  0
 10 28  1  0  0  0  0
 10 29  1  0  0  0  0
 10 30  1  0  0  0  0
 11 12  2  0  0  0  0
 11 31  1  0  0  0  0
 13 14  1  0  0  0  0
 13 15  2  0  0  0  0
 14 32  1  0  0  0  0
 14 33  1  0  0  0  0
M  END
> <s_m_source_file>
AV-unprocessed.smi

> <i_m_source_file_index>
1014

> <i_lp_mmshare_version>
43012

> <i_f3d_flags>
0

> <s_epik_input>
W0NIM11bQ0gyXVtDQEBIXShDKD1PKVtOSDJdKVtOSF1bQ0gyXVtDSDJdbjFbY0hdYyhbQ0gzXSlbY0hdbjE=

> <s_epik_cmdline>
J2VwaWtfcHl0aG9uJywgJy1waCcsICc3LjAnLCAnLXRuJywgJzgnLCAnLW1hJywgJzIwMCcsICctbWV0YWxfYmluZGluZycsICctaW1hZScsICc8aW5maWxlLm1hZT4nLCAnLW9tYWUnLCAnPG91dGZpbGUubWFlPic=

> <r_lp_tautomer_probability>
1

> <r_epik_Ionization_Penalty>
0.767127

> <r_epik_Ionization_Penalty_Charging>
0

> <r_epik_Ionization_Penalty_Neutral>
0.767127

> <r_epik_State_Penalty>
0.793761

> <r_epik_Charging_Adjusted_Penalty>
0.793761

> <i_epik_Tot_Q>
0

> <i_epik_Tot_abs_Q>
0

> <r_epik_Metal_State_Penalty>
0.79201

> <b_epik_Metal_Only>
0

> <s_lp_Force_Field>
OPLS_2005

> <r_lp_Energy>
4.2036

> <b_lp_Chiralities_Consistent>
1

> <s_lp_Variant>
AV-unprocessed.smi:1014-3

> <Gold.Version>
5.8.1

> <Gold.Id.Protein>
6NUR|6NUR_protein|mol2

> <Gold.PLP.Fitness>
45.8658

> <Gold.PLP.PLP>
-34.9663

> <Gold.PLP.part.hbond>
-2.8738

> <Gold.PLP.part.metal>
0.0000

> <Gold.PLP.part.buried>
-4.4288

> <Gold.PLP.part.nonpolar>
-26.8973

> <Gold.PLP.part.repulsive>
0.1614

> <Gold.PLP.ligand.clash>
0.0000

> <Gold.PLP.ligand.torsion>
0.4805

> <Gold.PLP.Chemscore.Hbond>
2.9280

> <Gold.PLP.Chemscore.CHOScore>
1.0000

> <Gold.PLP.Chemscore.Metal>
0.0000

> <Gold.Chemscore.Hbonds>
donor molecule, donor type, donor heavy atom, donor atom, acceptor molecule, acceptor atom, score
      L1  H    14    32       P1  7948  1.00
      L1  H    14    33       P1  7957  0.52
      P1  H  7989  7998       L1     4  0.45
      L1  C     8    27       P1  8028  1.00

> <Gold.PLP.Chemscore.Internal.Correction>
0.0765

> <Gold.Rescore>
     Score         DG    S(hbond)    S(metal)    S(lipo)     H(rot)  DE(clash)    DE(int)     intcor
     14.48     -14.85       1.93        0.00      80.00       2.51       0.01       0.36       ----

> <Gold.Chemscore.Fitness>
14.4823

> <Gold.Chemscore.DG>
-14.8530

> <Gold.Chemscore.ZeroCoef>
-5.4800

> <Gold.Chemscore.Hbond>
1.9273

> <Gold.Chemscore.Metal>
0.0000

> <Gold.Chemscore.Lipo>
80.0047

> <Gold.Chemscore.Internal_Hbond>
0.0000

> <Gold.Chemscore.DEClash>
0.0126

> <Gold.Chemscore.DEInternal>
0.3581

> <Gold.Chemscore.Rot>
2.5096

> <Gold.Chemscore.Internal.Correction>
   9.000000E+99

> <Gold.Chemscore.Hbonds>
donor molecule, donor type, donor heavy atom, donor atom, acceptor molecule, acceptor atom, score
      L1  H    14    32       P1  7948  1.00
      L1  H    14    33       P1  7957  0.51
      P1  H  7989  7998       L1     4  0.01

> <Gold.Chemscore.Hbond.Weighted>
-6.4371

> <Gold.Chemscore.Metal.Weighted>
-0.0000

> <Gold.Chemscore.Lipo.Weighted>
-9.3606

> <Gold.Chemscore.Internal_Hbond.Weighted>
0.0000

> <Gold.Chemscore.DEClash.Weighted>
0.0126

> <Gold.Chemscore.DEInternal.Weighted>
0.3581

> <Gold.Chemscore.Rot.Weighted>
6.4246

> <Gold.Chemscore.Internal.Correction.Weighted>
   9.000000E+99

> <Gold.Protein.RotatedTorsions>
[ 6907 6896 6895 6894 ] final  108.76 input  -60.11 | X-H torsion
[ 7974 7965 7964 7962 ] final   89.26 input  175.53 | X-H torsion
[ 8008 7997 7996 7995 ] final   89.88 input   59.86 | X-H torsion
[ 10167 10162 10161 10158 ] final -174.10 input  -65.29 | X-H torsion
[ 10718 10713 10712 10709 ] final -122.78 input   66.30 | X-H torsion
[ 10763 10752 10751 10750 ] final  148.80 input  -60.55 | X-H torsion
[ 11005 11000 10999 10996 ] final   83.57 input  -57.11 | X-H torsion

> <Gold.Protein.ActiveResidues>
 VAL166  LYS551  ARG553  GLY616  TRP617  ASP618  TYR619  PRO620  LYS621  CYS622 
 ASP623  PHE694  ASN695  SER759  ASP760  ASP761  ALA762  ILE779  LEU786  VAL792 
 PHE793  MET794  SER795  GLU796  ALA797  LYS798  CYS799  TRP800  GLU811  SER814 

> <Gold.Protein.RotatedAtoms>
  152.5098  133.9042  159.7455 H   0  0  0  0  0  0  0  0  0  0  0  0  # atno 6907 bound_to 6896
  150.9450  133.6604  159.2790 H   0  0  0  0  0  0  0  0  0  0  0  0  # atno 6908 bound_to 6896
  151.3902  135.0960  159.9576 H   0  0  0  0  0  0  0  0  0  0  0  0  # atno 6909 bound_to 6896
  145.5347  139.2285  143.2599 H   0  0  0  0  0  0  0  0  0  0  0  0  # atno 7974 bound_to 7965
  156.0053  140.3355  155.6886 H   0  0  0  0  0  0  0  0  0  0  0  0  # atno 8008 bound_to 7997
  155.6233  140.0677  157.2689 H   0  0  0  0  0  0  0  0  0  0  0  0  # atno 8009 bound_to 7997
  154.4263  140.1772  156.1383 H   0  0  0  0  0  0  0  0  0  0  0  0  # atno 8010 bound_to 7997
  139.5652  144.1772  152.1301 H   0  0  0  0  0  0  0  0  0  0  0  0  # atno 10167 bound_to 10162
  156.1447  130.6491  150.9824 H   0  0  0  0  0  0  0  0  0  0  0  0  # atno 10718 bound_to 10713
  154.0607  135.2874  155.3325 H   0  0  0  0  0  0  0  0  0  0  0  0  # atno 10763 bound_to 10752
  154.6810  135.5263  153.8266 H   0  0  0  0  0  0  0  0  0  0  0  0  # atno 10764 bound_to 10752
  153.0523  135.6581  154.0796 H   0  0  0  0  0  0  0  0  0  0  0  0  # atno 10765 bound_to 10752
  139.9027  134.8154  156.2327 H   0  0  0  0  0  0  0  0  0  0  0  0  # atno 11005 bound_to 11000
  146.2021  140.6165  142.9098 LP  0  0  0  0  0  0  0  0  0  0  0  0  # atno 17320 bound_to 7965
  144.7608  140.5416  143.6737 LP  0  0  0  0  0  0  0  0  0  0  0  0  # atno 17321 bound_to 7965
  140.1294  144.5302  150.6812 LP  0  0  0  0  0  0  0  0  0  0  0  0  # atno 17342 bound_to 10162
  140.6935  143.2390  151.5065 LP  0  0  0  0  0  0  0  0  0  0  0  0  # atno 17343 bound_to 10162
  157.6606  131.0881  150.7847 LP  0  0  0  0  0  0  0  0  0  0  0  0  # atno 17370 bound_to 10713
  156.7920  130.4893  149.5383 LP  0  0  0  0  0  0  0  0  0  0  0  0  # atno 17371 bound_to 10713
  141.0335  133.6976  156.1472 LP  0  0  0  0  0  0  0  0  0  0  0  0  # atno 17394 bound_to 11000
  140.7061  134.4512  157.5584 LP  0  0  0  0  0  0  0  0  0  0  0  0  # atno 17395 bound_to 11000

$$$$
