AV-unprocessed.smi:2163|AV-procd|sdf|8805|dock2
  -GOLD-   2272011593D 1   1.00000     0.00000
 Structure written by MMmdl.
 43 45  0  0  0  0  0  0  0  0  1 V2000
  152.2189  139.1340  155.4367 C   0  0  0  0  0  0  0  0  0  0  0  0
  152.2231  139.9589  156.6845 C   0  0  0  0  0  0  0  0  0  0  0  0
  152.9808  139.6485  157.7369 N   0  0  0  0  0  0  0  0  0  0  0  0
  152.6721  140.6491  158.6378 C   0  0  0  0  0  0  0  0  0  0  0  0
  153.1455  140.8831  159.9488 C   0  0  0  0  0  0  0  0  0  0  0  0
  152.6761  141.9868  160.6908 C   0  0  0  0  0  0  0  0  0  0  0  0
  151.7295  142.8710  160.1339 C   0  0  0  0  0  0  0  0  0  0  0  0
  151.2450  142.6565  158.8292 C   0  0  0  0  0  0  0  0  0  0  0  0
  151.7168  141.5534  158.0929 C   0  0  0  0  0  0  0  0  0  0  0  0
  151.4530  141.0677  156.8163 N   0  0  0  0  0  0  0  0  0  0  0  0
  150.5309  141.6501  155.8495 C   0  0  0  0  0  0  0  0  0  0  0  0
  149.5393  140.6173  155.2766 C   0  0  1  0  0  0  0  0  0  0  0  0
  149.1436  139.7344  156.3076 O   0  0  0  0  0  0  0  0  0  0  0  0
  148.2805  141.2880  154.7049 C   0  0  0  0  0  0  0  0  0  0  0  0
  147.5442  141.8664  155.7750 O   0  0  0  0  0  0  0  0  0  0  0  0
  146.3977  142.5702  155.4747 C   0  0  0  0  0  0  0  0  0  0  0  0
  146.3017  143.1134  154.1768 C   0  0  0  0  0  0  0  0  0  0  0  0
  145.1653  143.8455  153.7828 C   0  0  0  0  0  0  0  0  0  0  0  0
  144.1055  144.0449  154.6885 C   0  0  0  0  0  0  0  0  0  0  0  0
  142.8776  144.8241  154.2663 C   0  0  0  0  0  0  0  0  0  0  0  0
  142.8777  146.1877  154.8165 C   0  0  0  0  0  0  0  0  0  0  0  0
  142.8783  147.2609  155.2489 N   0  0  0  0  0  0  0  0  0  0  0  0
  144.1906  143.5092  155.9883 C   0  0  0  0  0  0  0  0  0  0  0  0
  145.3274  142.7765  156.3818 C   0  0  0  0  0  0  0  0  0  0  0  0
  152.9625  138.3390  155.5011 H   0  0  0  0  0  0  0  0  0  0  0  0
  152.4545  139.7519  154.5704 H   0  0  0  0  0  0  0  0  0  0  0  0
  151.2397  138.6777  155.2911 H   0  0  0  0  0  0  0  0  0  0  0  0
  153.8709  140.2118  160.3842 H   0  0  0  0  0  0  0  0  0  0  0  0
  153.0445  142.1553  161.6920 H   0  0  0  0  0  0  0  0  0  0  0  0
  151.3758  143.7144  160.7090 H   0  0  0  0  0  0  0  0  0  0  0  0
  150.5199  143.3311  158.3990 H   0  0  0  0  0  0  0  0  0  0  0  0
  149.9954  142.4818  156.3073 H   0  0  0  0  0  0  0  0  0  0  0  0
  151.1240  142.0820  155.0425 H   0  0  0  0  0  0  0  0  0  0  0  0
  150.0351  140.0439  154.4924 H   0  0  0  0  0  0  0  0  0  0  0  0
  149.9131  139.2928  156.6334 H   0  0  0  0  0  0  0  0  0  0  0  0
  148.5462  142.0294  153.9491 H   0  0  0  0  0  0  0  0  0  0  0  0
  147.6560  140.5318  154.2263 H   0  0  0  0  0  0  0  0  0  0  0  0
  147.1078  142.9649  153.4733 H   0  0  0  0  0  0  0  0  0  0  0  0
  145.1086  144.2505  152.7829 H   0  0  0  0  0  0  0  0  0  0  0  0
  142.8325  144.8906  153.1790 H   0  0  0  0  0  0  0  0  0  0  0  0
  141.9740  144.3155  154.6025 H   0  0  0  0  0  0  0  0  0  0  0  0
  143.3807  143.6569  156.6875 H   0  0  0  0  0  0  0  0  0  0  0  0
  145.3531  142.3828  157.3862 H   0  0  0  0  0  0  0  0  0  0  0  0
  1  2  1  0  0  0  0
  1 25  1  0  0  0  0
  1 26  1  0  0  0  0
  1 27  1  0  0  0  0
  2 10  1  0  0  0  0
  2  3  2  0  0  0  0
  3  4  1  0  0  0  0
  4  9  2  0  0  0  0
  4  5  1  0  0  0  0
  5  6  2  0  0  0  0
  5 28  1  0  0  0  0
  6  7  1  0  0  0  0
  6 29  1  0  0  0  0
  7  8  2  0  0  0  0
  7 30  1  0  0  0  0
  8  9  1  0  0  0  0
  8 31  1  0  0  0  0
  9 10  1  0  0  0  0
 10 11  1  0  0  0  0
 11 12  1  0  0  0  0
 11 32  1  0  0  0  0
 11 33  1  0  0  0  0
 12 13  1  0  0  0  0
 12 14  1  0  0  0  0
 12 34  1  0  0  0  0
 13 35  1  0  0  0  0
 14 15  1  0  0  0  0
 14 36  1  0  0  0  0
 14 37  1  0  0  0  0
 15 16  1  0  0  0  0
 16 24  1  0  0  0  0
 16 17  2  0  0  0  0
 17 18  1  0  0  0  0
 17 38  1  0  0  0  0
 18 19  2  0  0  0  0
 18 39  1  0  0  0  0
 19 20  1  0  0  0  0
 19 23  1  0  0  0  0
 20 21  1  0  0  0  0
 20 40  1  0  0  0  0
 20 41  1  0  0  0  0
 21 22  3  0  0  0  0
 23 24  2  0  0  0  0
 23 42  1  0  0  0  0
 24 43  1  0  0  0  0
M  END
> <s_m_source_file>
AV-unprocessed.smi

> <i_m_source_file_index>
2163

> <i_lp_mmshare_version>
43012

> <i_f3d_flags>
0

> <s_epik_input>
W2NIXTFbY0hdW2NIXVtjSF1jKGMxMiluKGMobjIpW0NIM10pW0NIMl1bQ0BIXShbT0hdKVtDSDJdT2MzW2NIXVtjSF1jKFtDSDJdQyNOKVtjSF1bY0hdMw==

> <s_epik_cmdline>
J2VwaWtfcHl0aG9uJywgJy1waCcsICc3LjAnLCAnLXRuJywgJzgnLCAnLW1hJywgJzIwMCcsICctbWV0YWxfYmluZGluZycsICctaW1hZScsICc8aW5maWxlLm1hZT4nLCAnLW9tYWUnLCAnPG91dGZpbGUubWFlPic=

> <r_lp_tautomer_probability>
1

> <r_epik_Ionization_Penalty>
0.114213

> <r_epik_Ionization_Penalty_Charging>
0

> <r_epik_Ionization_Penalty_Neutral>
0.114213

> <r_epik_State_Penalty>
0.103875

> <r_epik_Charging_Adjusted_Penalty>
0.103875

> <i_epik_Tot_Q>
0

> <i_epik_Tot_abs_Q>
0

> <r_epik_Metal_State_Penalty>
0.000113526

> <b_epik_Metal_Only>
0

> <s_lp_Force_Field>
OPLS_2005

> <r_lp_Energy>
15.853

> <b_lp_Chiralities_Consistent>
1

> <s_lp_Variant>
AV-unprocessed.smi:2163-2

> <Gold.Version>
5.8.1

> <Gold.Id.Protein>
6NUR|6NUR_protein|mol2

> <Gold.PLP.Fitness>
48.8240

> <Gold.PLP.PLP>
-47.6841

> <Gold.PLP.part.hbond>
-2.0000

> <Gold.PLP.part.metal>
0.0000

> <Gold.PLP.part.buried>
-3.8864

> <Gold.PLP.part.nonpolar>
-41.1067

> <Gold.PLP.part.repulsive>
0.9782

> <Gold.PLP.ligand.clash>
0.2365

> <Gold.PLP.ligand.torsion>
0.8853

> <Gold.PLP.Chemscore.Hbond>
0.9920

> <Gold.PLP.Chemscore.CHOScore>
0.0000

> <Gold.PLP.Chemscore.Metal>
0.0000

> <Gold.Chemscore.Hbonds>
donor molecule, donor type, donor heavy atom, donor atom, acceptor molecule, acceptor atom, score
      P1  H  7997  8008       L1     3  0.96

> <Gold.PLP.Chemscore.Internal.Correction>
0.1709

> <Gold.Rescore>
     Score         DG    S(hbond)    S(metal)    S(lipo)     H(rot)  DE(clash)    DE(int)     intcor
     12.46     -13.68       0.46        0.00     112.06       2.51       0.36       0.86       ----

> <Gold.Chemscore.Fitness>
12.4602

> <Gold.Chemscore.DG>
-13.6819

> <Gold.Chemscore.ZeroCoef>
-5.4800

> <Gold.Chemscore.Hbond>
0.4551

> <Gold.Chemscore.Metal>
0.0000

> <Gold.Chemscore.Lipo>
112.0630

> <Gold.Chemscore.Internal_Hbond>
0.0000

> <Gold.Chemscore.DEClash>
0.3628

> <Gold.Chemscore.DEInternal>
0.8589

> <Gold.Chemscore.Rot>
2.5115

> <Gold.Chemscore.Internal.Correction>
   9.000000E+99

> <Gold.Chemscore.Hbonds>
donor molecule, donor type, donor heavy atom, donor atom, acceptor molecule, acceptor atom, score
      P1  H  7997  8008       L1     3  0.18

> <Gold.Chemscore.Hbond.Weighted>
-1.5201

> <Gold.Chemscore.Metal.Weighted>
-0.0000

> <Gold.Chemscore.Lipo.Weighted>
-13.1114

> <Gold.Chemscore.Internal_Hbond.Weighted>
0.0000

> <Gold.Chemscore.DEClash.Weighted>
0.3628

> <Gold.Chemscore.DEInternal.Weighted>
0.8589

> <Gold.Chemscore.Rot.Weighted>
6.4296

> <Gold.Chemscore.Internal.Correction.Weighted>
   9.000000E+99

> <Gold.Protein.RotatedTorsions>
[ 6907 6896 6895 6894 ] final   89.12 input  -60.11 | X-H torsion
[ 7974 7965 7964 7962 ] final  141.54 input  175.53 | X-H torsion
[ 8008 7997 7996 7995 ] final  -94.91 input   59.86 | X-H torsion
[ 10167 10162 10161 10158 ] final -109.41 input  -65.29 | X-H torsion
[ 10718 10713 10712 10709 ] final   59.08 input   66.30 | X-H torsion
[ 10763 10752 10751 10750 ] final -139.87 input  -60.55 | X-H torsion
[ 11005 11000 10999 10996 ] final    8.79 input  -57.11 | X-H torsion

> <Gold.Protein.ActiveResidues>
 VAL166  LYS551  ARG553  GLY616  TRP617  ASP618  TYR619  PRO620  LYS621  CYS622 
 ASP623  PHE694  ASN695  SER759  ASP760  ASP761  ALA762  ILE779  LEU786  VAL792 
 PHE793  MET794  SER795  GLU796  ALA797  LYS798  CYS799  TRP800  GLU811  SER814 

> <Gold.Protein.RotatedAtoms>
  152.5433  134.2015  159.8713 H   0  0  0  0  0  0  0  0  0  0  0  0  # atno 6907 bound_to 6896
  151.2004  133.4607  159.2603 H   0  0  0  0  0  0  0  0  0  0  0  0  # atno 6908 bound_to 6896
  151.0995  134.9976  159.8497 H   0  0  0  0  0  0  0  0  0  0  0  0  # atno 6909 bound_to 6896
  144.9087  139.5323  143.5719 H   0  0  0  0  0  0  0  0  0  0  0  0  # atno 7974 bound_to 7965
  154.7545  140.0485  157.0922 H   0  0  0  0  0  0  0  0  0  0  0  0  # atno 8008 bound_to 7997
  155.0015  140.3125  155.4846 H   0  0  0  0  0  0  0  0  0  0  0  0  # atno 8009 bound_to 7997
  156.2892  140.2200  156.5125 H   0  0  0  0  0  0  0  0  0  0  0  0  # atno 8010 bound_to 7997
  140.1557  143.4162  152.1463 H   0  0  0  0  0  0  0  0  0  0  0  0  # atno 10167 bound_to 10162
  157.5647  130.8862  149.9168 H   0  0  0  0  0  0  0  0  0  0  0  0  # atno 10718 bound_to 10713
  154.8596  135.3570  154.5615 H   0  0  0  0  0  0  0  0  0  0  0  0  # atno 10763 bound_to 10752
  153.6230  135.7005  153.5308 H   0  0  0  0  0  0  0  0  0  0  0  0  # atno 10764 bound_to 10752
  153.3113  135.4178  155.1298 H   0  0  0  0  0  0  0  0  0  0  0  0  # atno 10765 bound_to 10752
  140.5330  134.0448  155.7879 H   0  0  0  0  0  0  0  0  0  0  0  0  # atno 11005 bound_to 11000
  146.3147  139.7875  142.8993 LP  0  0  0  0  0  0  0  0  0  0  0  0  # atno 17320 bound_to 7965
  145.3492  141.0304  143.3348 LP  0  0  0  0  0  0  0  0  0  0  0  0  # atno 17321 bound_to 7965
  139.5405  144.7251  151.4750 LP  0  0  0  0  0  0  0  0  0  0  0  0  # atno 17342 bound_to 10162
  140.6675  143.8366  150.6959 LP  0  0  0  0  0  0  0  0  0  0  0  0  # atno 17343 bound_to 10162
  156.0697  130.3687  150.0803 LP  0  0  0  0  0  0  0  0  0  0  0  0  # atno 17370 bound_to 10713
  156.8963  130.9605  151.3582 LP  0  0  0  0  0  0  0  0  0  0  0  0  # atno 17371 bound_to 10713
  141.1270  133.9365  157.2614 LP  0  0  0  0  0  0  0  0  0  0  0  0  # atno 17394 bound_to 11000
  139.9544  135.0169  156.9086 LP  0  0  0  0  0  0  0  0  0  0  0  0  # atno 17395 bound_to 11000

$$$$
