AV-unprocessed.smi:49|AV-procd|sdf|466|dock1
  -GOLD-   2262016333D 1   1.00000     0.00000
 Structure written by MMmdl.
 28 29  0  0  0  0  0  0  0  0  2 V2000
  151.9812  145.8033  160.3035 C   0  0  0  0  0  0  0  0  0  0  0  0
  151.6023  144.3822  160.7337 C   0  0  0  0  0  0  0  0  0  0  0  0
  151.5948  143.4194  159.5920 C   0  0  0  0  0  0  0  0  0  0  0  0
  150.9110  143.5754  158.4632 N   0  0  0  0  0  0  0  0  0  0  0  0
  151.2753  142.4386  157.7975 C   0  0  0  0  0  0  0  0  0  0  0  0
  150.8009  142.1411  156.4091 C   0  0  1  0  0  0  0  0  0  0  0  0
  151.2034  140.7443  155.9065 C   0  0  0  0  0  0  0  0  0  0  0  0
  149.9634  140.1937  155.1853 C   0  0  2  0  0  0  0  0  0  0  0  0
  150.2725  139.7169  153.8926 O   0  0  0  0  0  0  0  0  0  0  0  0
  148.9772  141.3638  155.1302 C   0  0  0  0  0  0  0  0  0  0  0  0
  149.3352  142.2122  156.2751 N   0  3  0  0  0  0  0  0  0  0  0  0
  152.1376  141.6431  158.4320 N   0  0  0  0  0  0  0  0  0  0  0  0
  152.3214  142.2998  159.5969 N   0  0  0  0  0  0  0  0  0  0  0  0
  151.2142  142.8876  155.7290 H   0  0  0  0  0  0  0  0  0  0  0  0
  149.5331  139.3808  155.7719 H   0  0  0  0  0  0  0  0  0  0  0  0
  152.9322  141.9671  160.3300 H   0  0  0  0  0  0  0  0  0  0  0  0
  151.9742  146.4819  161.1567 H   0  0  0  0  0  0  0  0  0  0  0  0
  151.2801  146.1911  159.5639 H   0  0  0  0  0  0  0  0  0  0  0  0
  152.9793  145.8283  159.8655 H   0  0  0  0  0  0  0  0  0  0  0  0
  152.2974  144.0265  161.4953 H   0  0  0  0  0  0  0  0  0  0  0  0
  150.6132  144.3865  161.1929 H   0  0  0  0  0  0  0  0  0  0  0  0
  152.0826  140.8046  155.2634 H   0  0  0  0  0  0  0  0  0  0  0  0
  151.4570  140.0818  156.7355 H   0  0  0  0  0  0  0  0  0  0  0  0
  149.5911  139.1219  153.6172 H   0  0  0  0  0  0  0  0  0  0  0  0
  149.1197  141.9482  154.2196 H   0  0  0  0  0  0  0  0  0  0  0  0
  147.9356  141.0438  155.1686 H   0  0  0  0  0  0  0  0  0  0  0  0
  148.9272  141.8145  157.1093 H   0  0  0  0  0  0  0  0  0  0  0  0
  149.0168  143.1633  156.1570 H   0  0  0  0  0  0  0  0  0  0  0  0
  1  2  1  0  0  0  0
  1 17  1  0  0  0  0
  1 18  1  0  0  0  0
  1 19  1  0  0  0  0
  2  3  1  0  0  0  0
  2 20  1  0  0  0  0
  2 21  1  0  0  0  0
  3 13  1  0  0  0  0
  3  4  2  0  0  0  0
  4  5  1  0  0  0  0
  5  6  1  0  0  0  0
  5 12  2  0  0  0  0
  6 14  1  0  0  0  0
  6 11  1  0  0  0  0
  6  7  1  0  0  0  0
  7  8  1  0  0  0  0
  7 22  1  0  0  0  0
  7 23  1  0  0  0  0
  8 15  1  0  0  0  0
  8  9  1  0  0  0  0
  8 10  1  0  0  0  0
  9 24  1  0  0  0  0
 10 11  1  0  0  0  0
 10 25  1  0  0  0  0
 10 26  1  0  0  0  0
 11 27  1  0  0  0  0
 11 28  1  0  0  0  0
 12 13  1  0  0  0  0
 13 16  1  0  0  0  0
M  CHG  1  11   1
M  END
> <s_m_source_file>
AV-unprocessed.smi

> <i_m_source_file_index>
49

> <i_lp_mmshare_version>
43012

> <i_f3d_flags>
0

> <s_epik_input>
W0NIM11bQ0gyXWMxbmMobltuSF0xKVtDQEBIXTJbQ0gyXVtDQEBIXShbT0hdKVtDSDJdW05IXTI=

> <s_epik_cmdline>
J2VwaWtfcHl0aG9uJywgJy1waCcsICc3LjAnLCAnLXRuJywgJzgnLCAnLW1hJywgJzIwMCcsICctbWV0YWxfYmluZGluZycsICctaW1hZScsICc8aW5maWxlLm1hZT4nLCAnLW9tYWUnLCAnPG91dGZpbGUubWFlPic=

> <r_lp_tautomer_probability>
0.948284

> <r_epik_Ionization_Penalty>
0.045643

> <r_epik_Ionization_Penalty_Charging>
0.0371552

> <r_epik_Ionization_Penalty_Neutral>
0.00848778

> <r_epik_State_Penalty>
0.283309

> <r_epik_Charging_Adjusted_Penalty>
0.320465

> <i_epik_Tot_Q>
1

> <i_epik_Tot_abs_Q>
1

> <r_epik_Metal_State_Penalty>
0.558162

> <b_epik_Metal_Only>
0

> <s_lp_Force_Field>
OPLS_2005

> <r_lp_Energy>
17.9317

> <b_lp_Chiralities_Consistent>
1

> <s_lp_Variant>
AV-unprocessed.smi:49-4

> <Gold.Version>
5.8.1

> <Gold.Id.Protein>
6NUR|6NUR_protein|mol2

> <Gold.PLP.Fitness>
35.5441

> <Gold.PLP.PLP>
-26.8681

> <Gold.PLP.part.hbond>
-3.0000

> <Gold.PLP.part.metal>
0.0000

> <Gold.PLP.part.buried>
-4.4137

> <Gold.PLP.part.nonpolar>
-20.8147

> <Gold.PLP.part.repulsive>
0.2753

> <Gold.PLP.ligand.clash>
0.0000

> <Gold.PLP.ligand.torsion>
0.1699

> <Gold.PLP.Chemscore.Hbond>
3.0000

> <Gold.PLP.Chemscore.CHOScore>
0.0000

> <Gold.PLP.Chemscore.Metal>
0.0000

> <Gold.Chemscore.Hbonds>
donor molecule, donor type, donor heavy atom, donor atom, acceptor molecule, acceptor atom, score
      L1  H    11    28       P1  8028  2.00
      P1  H  7989  7998       L1     9  1.00

> <Gold.PLP.Chemscore.Internal.Correction>
0.0157

> <Gold.Rescore>
     Score         DG    S(hbond)    S(metal)    S(lipo)     H(rot)  DE(clash)    DE(int)     intcor
     11.70     -12.35       1.71        0.00      51.07       1.89       0.49       0.15       ----

> <Gold.Chemscore.Fitness>
11.6984

> <Gold.Chemscore.DG>
-12.3463

> <Gold.Chemscore.ZeroCoef>
-5.4800

> <Gold.Chemscore.Hbond>
1.7141

> <Gold.Chemscore.Metal>
0.0000

> <Gold.Chemscore.Lipo>
51.0705

> <Gold.Chemscore.Internal_Hbond>
0.0000

> <Gold.Chemscore.DEClash>
0.4935

> <Gold.Chemscore.DEInternal>
0.1545

> <Gold.Chemscore.Rot>
1.8883

> <Gold.Chemscore.Internal.Correction>
   9.000000E+99

> <Gold.Chemscore.Hbonds>
donor molecule, donor type, donor heavy atom, donor atom, acceptor molecule, acceptor atom, score
      L1  H    11    28       P1  8028  0.99
      P1  H  7989  7998       L1     9  0.24

> <Gold.Chemscore.Hbond.Weighted>
-5.7251

> <Gold.Chemscore.Metal.Weighted>
-0.0000

> <Gold.Chemscore.Lipo.Weighted>
-5.9752

> <Gold.Chemscore.Internal_Hbond.Weighted>
0.0000

> <Gold.Chemscore.DEClash.Weighted>
0.4935

> <Gold.Chemscore.DEInternal.Weighted>
0.1545

> <Gold.Chemscore.Rot.Weighted>
4.8340

> <Gold.Chemscore.Internal.Correction.Weighted>
   9.000000E+99

> <Gold.Protein.RotatedTorsions>
[ 6907 6896 6895 6894 ] final   21.49 input  -60.11 | X-H torsion
[ 7974 7965 7964 7962 ] final  -94.87 input  175.53 | X-H torsion
[ 8008 7997 7996 7995 ] final  168.30 input   59.86 | X-H torsion
[ 10167 10162 10161 10158 ] final  112.14 input  -65.29 | X-H torsion
[ 10718 10713 10712 10709 ] final  141.86 input   66.30 | X-H torsion
[ 10763 10752 10751 10750 ] final   11.78 input  -60.55 | X-H torsion
[ 11005 11000 10999 10996 ] final  -12.70 input  -57.11 | X-H torsion

> <Gold.Protein.ActiveResidues>
 VAL166  LYS551  ARG553  GLY616  TRP617  ASP618  TYR619  PRO620  LYS621  CYS622 
 ASP623  PHE694  ASN695  SER759  ASP760  ASP761  ALA762  ILE779  LEU786  VAL792 
 PHE793  MET794  SER795  GLU796  ALA797  LYS798  CYS799  TRP800  GLU811  SER814 

> <Gold.Protein.RotatedAtoms>
  151.9126  135.0332  160.0515 H   0  0  0  0  0  0  0  0  0  0  0  0  # atno 6907 bound_to 6896
  152.2267  133.5021  159.5201 H   0  0  0  0  0  0  0  0  0  0  0  0  # atno 6908 bound_to 6896
  150.7014  134.1187  159.4069 H   0  0  0  0  0  0  0  0  0  0  0  0  # atno 6909 bound_to 6896
  145.3676  140.9501  143.2465 H   0  0  0  0  0  0  0  0  0  0  0  0  # atno 7974 bound_to 7965
  156.1559  140.1594  156.8694 H   0  0  0  0  0  0  0  0  0  0  0  0  # atno 8008 bound_to 7997
  154.5114  140.0800  156.8033 H   0  0  0  0  0  0  0  0  0  0  0  0  # atno 8009 bound_to 7997
  155.3805  140.3405  155.4249 H   0  0  0  0  0  0  0  0  0  0  0  0  # atno 8010 bound_to 7997
  139.6558  144.7129  151.1959 H   0  0  0  0  0  0  0  0  0  0  0  0  # atno 10167 bound_to 10162
  157.3872  131.1000  151.0681 H   0  0  0  0  0  0  0  0  0  0  0  0  # atno 10718 bound_to 10713
  153.1890  135.6839  153.8377 H   0  0  0  0  0  0  0  0  0  0  0  0  # atno 10763 bound_to 10752
  153.7683  135.3200  155.3349 H   0  0  0  0  0  0  0  0  0  0  0  0  # atno 10764 bound_to 10752
  154.8106  135.4720  154.0604 H   0  0  0  0  0  0  0  0  0  0  0  0  # atno 10765 bound_to 10752
  140.7684  133.8458  155.9186 H   0  0  0  0  0  0  0  0  0  0  0  0  # atno 11005 bound_to 11000
  144.8600  139.5192  143.6817 LP  0  0  0  0  0  0  0  0  0  0  0  0  # atno 17320 bound_to 7965
  146.2899  139.7111  142.9168 LP  0  0  0  0  0  0  0  0  0  0  0  0  # atno 17321 bound_to 7965
  140.7558  143.6074  150.8639 LP  0  0  0  0  0  0  0  0  0  0  0  0  # atno 17342 bound_to 10162
  139.9727  143.6039  152.2968 LP  0  0  0  0  0  0  0  0  0  0  0  0  # atno 17343 bound_to 10162
  157.1728  130.6275  149.5646 LP  0  0  0  0  0  0  0  0  0  0  0  0  # atno 17370 bound_to 10713
  155.9789  130.4779  150.6686 LP  0  0  0  0  0  0  0  0  0  0  0  0  # atno 17371 bound_to 10713
  140.9597  134.1672  157.4664 LP  0  0  0  0  0  0  0  0  0  0  0  0  # atno 17394 bound_to 11000
  139.8759  134.9940  156.5672 LP  0  0  0  0  0  0  0  0  0  0  0  0  # atno 17395 bound_to 11000

$$$$
