AV-unprocessed.smi:2473|AV-procd|sdf|9743|dock1
  -GOLD-   2272013383D 1   1.00000     0.00000
 Structure written by MMmdl.
 48 49  0  0  0  0  0  0  0  0  2 V2000
  153.3529  141.8555  161.9936 C   0  0  0  0  0  0  0  0  0  0  0  0
  152.5030  142.4303  160.8511 C   0  0  2  0  0  0  0  0  0  0  0  0
  153.0798  142.0331  159.4765 C   0  0  0  0  0  0  0  0  0  0  0  0
  152.2764  142.6078  158.2873 C   0  0  1  0  0  0  0  0  0  0  0  0
  150.9707  141.8482  157.9812 C   0  0  0  0  0  0  0  0  0  0  0  0
  150.0565  141.7930  158.8041 O   0  0  0  0  0  0  0  0  0  0  0  0
  150.9045  141.2409  156.7870 N   0  0  0  0  0  0  0  0  0  0  0  0
  149.7424  140.5137  156.2974 C   0  0  0  0  0  0  0  0  0  0  0  0
  149.1685  141.1938  155.0480 C   0  0  0  0  0  0  0  0  0  0  0  0
  148.0634  140.4052  154.4174 C   0  0  0  0  0  0  0  0  0  0  0  0
  148.1400  139.1236  154.0394 N   0  3  0  0  0  0  0  0  0  0  0  0
  146.9459  138.7090  153.5149 C   0  0  0  0  0  0  0  0  0  0  0  0
  146.0993  139.7846  153.5815 C   0  0  0  0  0  0  0  0  0  0  0  0
  146.8127  140.8125  154.1432 N   0  0  0  0  0  0  0  0  0  0  0  0
  146.3236  142.1653  154.4194 C   0  0  0  0  0  0  0  0  0  0  0  0
  152.0816  144.1375  158.4512 C   0  0  0  0  0  0  0  0  0  0  0  0
  151.5486  144.6124  159.8310 C   0  0  0  0  0  0  0  0  0  0  0  0
  151.7167  146.1433  159.9115 C   0  0  0  0  0  0  0  0  0  0  0  0
  150.0435  144.3122  160.0115 C   0  0  0  0  0  0  0  0  0  0  0  0
  152.3843  143.9640  160.9621 C   0  0  0  0  0  0  0  0  0  0  0  0
  154.3716  142.2431  161.9657 H   0  0  0  0  0  0  0  0  0  0  0  0
  153.4083  140.7683  161.9323 H   0  0  0  0  0  0  0  0  0  0  0  0
  152.9270  142.1079  162.9652 H   0  0  0  0  0  0  0  0  0  0  0  0
  151.5091  141.9975  160.9557 H   0  0  0  0  0  0  0  0  0  0  0  0
  154.1077  142.3913  159.4059 H   0  0  0  0  0  0  0  0  0  0  0  0
  153.1443  140.9467  159.3988 H   0  0  0  0  0  0  0  0  0  0  0  0
  152.8902  142.4580  157.3978 H   0  0  0  0  0  0  0  0  0  0  0  0
  151.7001  141.3151  156.1697 H   0  0  0  0  0  0  0  0  0  0  0  0
  150.0301  139.4858  156.0722 H   0  0  0  0  0  0  0  0  0  0  0  0
  148.9825  140.4720  157.0794 H   0  0  0  0  0  0  0  0  0  0  0  0
  148.7745  142.1832  155.2823 H   0  0  0  0  0  0  0  0  0  0  0  0
  149.9408  141.3255  154.2890 H   0  0  0  0  0  0  0  0  0  0  0  0
  146.7915  137.7054  153.1455 H   0  0  0  0  0  0  0  0  0  0  0  0
  145.0673  139.8907  153.2795 H   0  0  0  0  0  0  0  0  0  0  0  0
  145.2800  142.2458  154.1147 H   0  0  0  0  0  0  0  0  0  0  0  0
  146.9182  142.8872  153.8590 H   0  0  0  0  0  0  0  0  0  0  0  0
  146.4022  142.3698  155.4872 H   0  0  0  0  0  0  0  0  0  0  0  0
  153.0563  144.5984  158.2828 H   0  0  0  0  0  0  0  0  0  0  0  0
  151.4480  144.5319  157.6556 H   0  0  0  0  0  0  0  0  0  0  0  0
  151.3707  146.5330  160.8697 H   0  0  0  0  0  0  0  0  0  0  0  0
  151.1485  146.6470  159.1284 H   0  0  0  0  0  0  0  0  0  0  0  0
  152.7601  146.4404  159.7992 H   0  0  0  0  0  0  0  0  0  0  0  0
  149.6642  144.7509  160.9350 H   0  0  0  0  0  0  0  0  0  0  0  0
  149.8248  143.2482  160.0628 H   0  0  0  0  0  0  0  0  0  0  0  0
  149.4566  144.7256  159.1905 H   0  0  0  0  0  0  0  0  0  0  0  0
  151.9607  144.2304  161.9317 H   0  0  0  0  0  0  0  0  0  0  0  0
  153.3899  144.3874  160.9517 H   0  0  0  0  0  0  0  0  0  0  0  0
  148.9655  138.5448  154.1301 H   0  0  0  0  0  0  0  0  0  0  0  0
  1  2  1  0  0  0  0
  1 21  1  0  0  0  0
  1 22  1  0  0  0  0
  1 23  1  0  0  0  0
  2 20  1  0  0  0  0
  2  3  1  0  0  0  0
  2 24  1  0  0  0  0
  3  4  1  0  0  0  0
  3 25  1  0  0  0  0
  3 26  1  0  0  0  0
  4  5  1  0  0  0  0
  4 16  1  0  0  0  0
  4 27  1  0  0  0  0
  5  6  2  0  0  0  0
  5  7  1  0  0  0  0
  7  8  1  0  0  0  0
  7 28  1  0  0  0  0
  8  9  1  0  0  0  0
  8 29  1  0  0  0  0
  8 30  1  0  0  0  0
  9 10  1  0  0  0  0
  9 31  1  0  0  0  0
  9 32  1  0  0  0  0
 10 14  1  0  0  0  0
 10 11  2  0  0  0  0
 11 12  1  0  0  0  0
 11 48  1  0  0  0  0
 12 13  2  0  0  0  0
 12 33  1  0  0  0  0
 13 14  1  0  0  0  0
 13 34  1  0  0  0  0
 14 15  1  0  0  0  0
 15 35  1  0  0  0  0
 15 36  1  0  0  0  0
 15 37  1  0  0  0  0
 16 17  1  0  0  0  0
 16 38  1  0  0  0  0
 16 39  1  0  0  0  0
 17 18  1  0  0  0  0
 17 19  1  0  0  0  0
 17 20  1  0  0  0  0
 18 40  1  0  0  0  0
 18 41  1  0  0  0  0
 18 42  1  0  0  0  0
 19 43  1  0  0  0  0
 19 44  1  0  0  0  0
 19 45  1  0  0  0  0
 20 46  1  0  0  0  0
 20 47  1  0  0  0  0
M  CHG  1  11   1
M  END
> <s_m_source_file>
AV-unprocessed.smi

> <i_m_source_file_index>
2473

> <i_lp_mmshare_version>
43012

> <i_f3d_flags>
0

> <s_epik_input>
W0NIM11bQ0BASF0oW0NIMl0xKVtDSDJdW0NASF0oW0NIMl1DMShbQ0gzXSlbQ0gzXSlDKD1PKVtOSF1bQ0gyXVtDSDJdYzJuW2NIXVtjSF1uMltDSDNd

> <s_epik_cmdline>
J2VwaWtfcHl0aG9uJywgJy1waCcsICc3LjAnLCAnLXRuJywgJzgnLCAnLW1hJywgJzIwMCcsICctbWV0YWxfYmluZGluZycsICctaW1hZScsICc8aW5maWxlLm1hZT4nLCAnLW9tYWUnLCAnPG91dGZpbGUubWFlPic=

> <r_lp_tautomer_probability>
1

> <r_epik_Ionization_Penalty>
0.0796112

> <r_epik_Ionization_Penalty_Charging>
0

> <r_epik_Ionization_Penalty_Neutral>
0.0796112

> <r_epik_State_Penalty>
0.0704541

> <r_epik_Charging_Adjusted_Penalty>
0.0704541

> <i_epik_Tot_Q>
1

> <i_epik_Tot_abs_Q>
1

> <r_epik_Metal_State_Penalty>
0.409899

> <b_epik_Metal_Only>
0

> <s_lp_Force_Field>
OPLS_2005

> <r_lp_Energy>
17.1237

> <b_lp_Chiralities_Consistent>
1

> <s_lp_Variant>
AV-unprocessed.smi:2473-1

> <Gold.Version>
5.8.1

> <Gold.Id.Protein>
6NUR|6NUR_protein|mol2

> <Gold.PLP.Fitness>
50.6490

> <Gold.PLP.PLP>
-47.7347

> <Gold.PLP.part.hbond>
-1.4608

> <Gold.PLP.part.metal>
0.0000

> <Gold.PLP.part.buried>
-0.7249

> <Gold.PLP.part.nonpolar>
-45.0473

> <Gold.PLP.part.repulsive>
0.2013

> <Gold.PLP.ligand.clash>
0.0000

> <Gold.PLP.ligand.torsion>
0.0781

> <Gold.PLP.Chemscore.Hbond>
0.0000

> <Gold.PLP.Chemscore.CHOScore>
1.0000

> <Gold.PLP.Chemscore.Metal>
0.0000

> <Gold.Chemscore.Hbonds>
donor molecule, donor type, donor heavy atom, donor atom, acceptor molecule, acceptor atom, score
      L1  C    13    34       P1 10175  0.19

> <Gold.PLP.Chemscore.Internal.Correction>
0.0704

> <Gold.Rescore>
     Score         DG    S(hbond)    S(metal)    S(lipo)     H(rot)  DE(clash)    DE(int)     intcor
     15.45     -17.10       0.00        0.00     133.93       1.58       0.18       1.47       ----

> <Gold.Chemscore.Fitness>
15.4518

> <Gold.Chemscore.DG>
-17.1002

> <Gold.Chemscore.ZeroCoef>
-5.4800

> <Gold.Chemscore.Hbond>
0.0000

> <Gold.Chemscore.Metal>
0.0000

> <Gold.Chemscore.Lipo>
133.9290

> <Gold.Chemscore.Internal_Hbond>
0.0000

> <Gold.Chemscore.DEClash>
0.1781

> <Gold.Chemscore.DEInternal>
1.4704

> <Gold.Chemscore.Rot>
1.5818

> <Gold.Chemscore.Internal.Correction>
   9.000000E+99

> <Gold.Chemscore.Hbond.Weighted>
-0.0000

> <Gold.Chemscore.Metal.Weighted>
-0.0000

> <Gold.Chemscore.Lipo.Weighted>
-15.6697

> <Gold.Chemscore.Internal_Hbond.Weighted>
0.0000

> <Gold.Chemscore.DEClash.Weighted>
0.1781

> <Gold.Chemscore.DEInternal.Weighted>
1.4704

> <Gold.Chemscore.Rot.Weighted>
4.0495

> <Gold.Chemscore.Internal.Correction.Weighted>
   9.000000E+99

> <Gold.Protein.RotatedTorsions>
[ 6907 6896 6895 6894 ] final   25.01 input  -60.11 | X-H torsion
[ 7974 7965 7964 7962 ] final  -37.14 input  175.53 | X-H torsion
[ 8008 7997 7996 7995 ] final   29.13 input   59.86 | X-H torsion
[ 10167 10162 10161 10158 ] final  -14.95 input  -65.29 | X-H torsion
[ 10718 10713 10712 10709 ] final  119.17 input   66.30 | X-H torsion
[ 10763 10752 10751 10750 ] final  -10.73 input  -60.55 | X-H torsion
[ 11005 11000 10999 10996 ] final -104.90 input  -57.11 | X-H torsion

> <Gold.Protein.ActiveResidues>
 VAL166  LYS551  ARG553  GLY616  TRP617  ASP618  TYR619  PRO620  LYS621  CYS622 
 ASP623  PHE694  ASN695  SER759  ASP760  ASP761  ALA762  ILE779  LEU786  VAL792 
 PHE793  MET794  SER795  GLU796  ALA797  LYS798  CYS799  TRP800  GLU811  SER814 

> <Gold.Protein.RotatedAtoms>
  151.9662  135.0099  160.0550 H   0  0  0  0  0  0  0  0  0  0  0  0  # atno 6907 bound_to 6896
  152.1824  133.4712  159.4973 H   0  0  0  0  0  0  0  0  0  0  0  0  # atno 6908 bound_to 6896
  150.6920  134.1733  159.4263 H   0  0  0  0  0  0  0  0  0  0  0  0  # atno 6909 bound_to 6896
  146.0600  140.6361  142.9001 H   0  0  0  0  0  0  0  0  0  0  0  0  # atno 7974 bound_to 7965
  155.0696  140.3199  155.4634 H   0  0  0  0  0  0  0  0  0  0  0  0  # atno 8008 bound_to 7997
  156.2794  140.2114  156.5768 H   0  0  0  0  0  0  0  0  0  0  0  0  # atno 8009 bound_to 7997
  154.7066  140.0502  157.0497 H   0  0  0  0  0  0  0  0  0  0  0  0  # atno 8010 bound_to 7997
  140.7210  143.5269  150.9566 H   0  0  0  0  0  0  0  0  0  0  0  0  # atno 10167 bound_to 10162
  157.5980  131.1055  150.7858 H   0  0  0  0  0  0  0  0  0  0  0  0  # atno 10718 bound_to 10713
  153.4734  135.7017  153.5980 H   0  0  0  0  0  0  0  0  0  0  0  0  # atno 10763 bound_to 10752
  153.4224  135.3822  155.2120 H   0  0  0  0  0  0  0  0  0  0  0  0  # atno 10764 bound_to 10752
  154.8724  135.3931  154.4175 H   0  0  0  0  0  0  0  0  0  0  0  0  # atno 10765 bound_to 10752
  141.1079  133.8762  157.1668 H   0  0  0  0  0  0  0  0  0  0  0  0  # atno 11005 bound_to 11000
  144.7170  140.4243  143.7037 LP  0  0  0  0  0  0  0  0  0  0  0  0  # atno 17320 bound_to 7965
  145.6576  139.1575  143.2826 LP  0  0  0  0  0  0  0  0  0  0  0  0  # atno 17321 bound_to 7965
  139.8988  143.6862  152.3134 LP  0  0  0  0  0  0  0  0  0  0  0  0  # atno 17342 bound_to 10162
  139.7204  144.7604  151.0965 LP  0  0  0  0  0  0  0  0  0  0  0  0  # atno 17343 bound_to 10162
  156.8264  130.5001  149.5337 LP  0  0  0  0  0  0  0  0  0  0  0  0  # atno 17370 bound_to 10713
  156.1047  130.5995  150.9951 LP  0  0  0  0  0  0  0  0  0  0  0  0  # atno 17371 bound_to 10713
  139.9958  135.0047  157.0078 LP  0  0  0  0  0  0  0  0  0  0  0  0  # atno 17394 bound_to 11000
  140.4854  134.1247  155.7223 LP  0  0  0  0  0  0  0  0  0  0  0  0  # atno 17395 bound_to 11000

$$$$
