AV-unprocessed.smi:249|AV-procd|sdf|1921|dock4
  -GOLD-   2262021 23D 1   1.00000     0.00000
 Structure written by MMmdl.
 64 67  0  0  0  0  0  0  0  0  2 V2000
  145.9736  131.8656  151.4678 C   0  0  0  0  0  0  0  0  0  0  0  0
  146.1353  133.2585  152.0991 C   0  0  0  0  0  0  0  0  0  0  0  0
  147.0244  133.2728  153.2976 N   0  3  1  0  0  0  0  0  0  0  0  0
  148.4432  132.9823  152.9373 C   0  0  0  0  0  0  0  0  0  0  0  0
  149.3479  132.8802  154.1732 C   0  0  0  0  0  0  0  0  0  0  0  0
  149.2766  134.1736  154.9919 C   0  0  2  0  0  0  0  0  0  0  0  0
  150.1588  134.1416  156.1617 N   0  0  0  0  0  0  0  0  0  0  0  0
  151.2900  133.2199  156.2346 C   0  0  0  0  0  0  0  0  0  0  0  0
  150.1083  135.1670  157.0508 C   0  0  0  0  0  0  0  0  0  0  0  0
  149.1913  135.1202  158.0530 N   0  0  0  0  0  0  0  0  0  0  0  0
  149.1204  136.1056  158.9524 C   0  0  0  0  0  0  0  0  0  0  0  0
  149.8528  137.2178  159.0303 N   0  0  0  0  0  0  0  0  0  0  0  0
  150.7624  137.2825  158.0167 C   0  0  0  0  0  0  0  0  0  0  0  0
  150.9588  136.3096  156.9953 C   0  0  0  0  0  0  0  0  0  0  0  0
  151.9701  136.7279  156.1367 N   0  0  0  0  0  0  0  0  0  0  0  0
  152.3577  137.8720  156.6296 C   0  0  0  0  0  0  0  0  0  0  0  0
  151.6725  138.2900  157.7477 N   0  0  0  0  0  0  0  0  0  0  0  0
  151.8984  139.5146  158.4949 C   0  0  0  0  0  0  0  0  0  0  0  0
  151.6287  140.8201  157.7010 C   0  0  1  0  0  0  0  0  0  0  0  0
  150.3452  140.6443  156.8566 C   0  0  0  0  0  0  0  0  0  0  0  0
  149.2088  140.4407  157.6720 O   0  0  0  0  0  0  0  0  0  0  0  0
  151.5960  142.1103  158.5722 C   0  0  2  0  0  0  0  0  0  0  0  0
  151.4759  143.4052  157.7832 C   0  0  0  0  0  0  0  0  0  0  0  0
  151.9217  144.4438  158.8014 C   0  0  0  0  0  0  0  0  0  0  0  0
  152.9857  143.8168  159.5003 O   0  0  0  0  0  0  0  0  0  0  0  0
  152.8652  142.4013  159.3904 C   0  0  0  0  0  0  0  0  0  0  0  0
  147.8151  134.4455  155.3701 C   0  0  0  0  0  0  0  0  0  0  0  0
  146.9079  134.5213  154.1226 C   0  0  2  0  0  0  0  0  0  0  0  0
  145.4647  134.8158  154.5824 C   0  0  0  0  0  0  0  0  0  0  0  0
  145.1945  131.8842  150.7052 H   0  0  0  0  0  0  0  0  0  0  0  0
  145.6853  131.1235  152.2128 H   0  0  0  0  0  0  0  0  0  0  0  0
  146.8834  131.5225  150.9764 H   0  0  0  0  0  0  0  0  0  0  0  0
  146.4986  133.9719  151.3582 H   0  0  0  0  0  0  0  0  0  0  0  0
  145.1308  133.5762  152.3692 H   0  0  0  0  0  0  0  0  0  0  0  0
  148.5193  132.0395  152.3988 H   0  0  0  0  0  0  0  0  0  0  0  0
  148.8140  133.7591  152.2664 H   0  0  0  0  0  0  0  0  0  0  0  0
  149.0418  132.0241  154.7758 H   0  0  0  0  0  0  0  0  0  0  0  0
  150.3760  132.6914  153.8619 H   0  0  0  0  0  0  0  0  0  0  0  0
  149.5999  134.9706  154.3233 H   0  0  0  0  0  0  0  0  0  0  0  0
  151.4918  132.9369  157.2684 H   0  0  0  0  0  0  0  0  0  0  0  0
  152.1871  133.6828  155.8227 H   0  0  0  0  0  0  0  0  0  0  0  0
  151.0954  132.3059  155.6749 H   0  0  0  0  0  0  0  0  0  0  0  0
  148.3690  135.9860  159.7188 H   0  0  0  0  0  0  0  0  0  0  0  0
  153.1490  138.4536  156.1789 H   0  0  0  0  0  0  0  0  0  0  0  0
  151.2560  139.4760  159.3754 H   0  0  0  0  0  0  0  0  0  0  0  0
  152.9241  139.5070  158.8658 H   0  0  0  0  0  0  0  0  0  0  0  0
  152.4393  140.9391  156.9815 H   0  0  0  0  0  0  0  0  0  0  0  0
  150.1709  141.5104  156.2186 H   0  0  0  0  0  0  0  0  0  0  0  0
  150.4476  139.7915  156.1848 H   0  0  0  0  0  0  0  0  0  0  0  0
  148.8856  141.2828  157.9540 H   0  0  0  0  0  0  0  0  0  0  0  0
  150.7491  142.0583  159.2588 H   0  0  0  0  0  0  0  0  0  0  0  0
  152.1584  143.4006  156.9318 H   0  0  0  0  0  0  0  0  0  0  0  0
  150.4673  143.5939  157.4145 H   0  0  0  0  0  0  0  0  0  0  0  0
  152.2391  145.3796  158.3409 H   0  0  0  0  0  0  0  0  0  0  0  0
  151.1155  144.6621  159.5031 H   0  0  0  0  0  0  0  0  0  0  0  0
  152.8246  141.9552  160.3831 H   0  0  0  0  0  0  0  0  0  0  0  0
  153.7572  142.0273  158.8869 H   0  0  0  0  0  0  0  0  0  0  0  0
  147.4450  133.6684  156.0398 H   0  0  0  0  0  0  0  0  0  0  0  0
  147.7579  135.3826  155.9256 H   0  0  0  0  0  0  0  0  0  0  0  0
  147.2441  135.3600  153.5105 H   0  0  0  0  0  0  0  0  0  0  0  0
  145.4462  135.6284  155.3095 H   0  0  0  0  0  0  0  0  0  0  0  0
  145.0109  133.9442  155.0550 H   0  0  0  0  0  0  0  0  0  0  0  0
  144.8232  135.1349  153.7618 H   0  0  0  0  0  0  0  0  0  0  0  0
  146.7156  132.5153  153.8901 H   0  0  0  0  0  0  0  0  0  0  0  0
  1  2  1  0  0  0  0
  1 30  1  0  0  0  0
  1 31  1  0  0  0  0
  1 32  1  0  0  0  0
  2  3  1  0  0  0  0
  2 33  1  0  0  0  0
  2 34  1  0  0  0  0
  3 28  1  0  0  0  0
  3  4  1  0  0  0  0
  3 64  1  0  0  0  0
  4  5  1  0  0  0  0
  4 35  1  0  0  0  0
  4 36  1  0  0  0  0
  5  6  1  0  0  0  0
  5 37  1  0  0  0  0
  5 38  1  0  0  0  0
  6  7  1  0  0  0  0
  6 27  1  0  0  0  0
  6 39  1  0  0  0  0
  7  8  1  0  0  0  0
  7  9  1  0  0  0  0
  8 40  1  0  0  0  0
  8 41  1  0  0  0  0
  8 42  1  0  0  0  0
  9 14  1  0  0  0  0
  9 10  2  0  0  0  0
 10 11  1  0  0  0  0
 11 12  2  0  0  0  0
 11 43  1  0  0  0  0
 12 13  1  0  0  0  0
 13 17  1  0  0  0  0
 13 14  2  0  0  0  0
 14 15  1  0  0  0  0
 15 16  2  0  0  0  0
 16 17  1  0  0  0  0
 16 44  1  0  0  0  0
 17 18  1  0  0  0  0
 18 19  1  0  0  0  0
 18 45  1  0  0  0  0
 18 46  1  0  0  0  0
 19 20  1  0  0  0  0
 19 22  1  0  0  0  0
 19 47  1  0  0  0  0
 20 21  1  0  0  0  0
 20 48  1  0  0  0  0
 20 49  1  0  0  0  0
 21 50  1  0  0  0  0
 22 26  1  0  0  0  0
 22 23  1  0  0  0  0
 22 51  1  0  0  0  0
 23 24  1  0  0  0  0
 23 52  1  0  0  0  0
 23 53  1  0  0  0  0
 24 25  1  0  0  0  0
 24 54  1  0  0  0  0
 24 55  1  0  0  0  0
 25 26  1  0  0  0  0
 26 56  1  0  0  0  0
 26 57  1  0  0  0  0
 27 28  1  0  0  0  0
 27 58  1  0  0  0  0
 27 59  1  0  0  0  0
 28 29  1  0  0  0  0
 28 60  1  0  0  0  0
 29 61  1  0  0  0  0
 29 62  1  0  0  0  0
 29 63  1  0  0  0  0
M  CHG  1   3   1
M  END
> <s_m_source_file>
AV-unprocessed.smi

> <i_m_source_file_index>
249

> <i_lp_mmshare_version>
43012

> <i_f3d_flags>
0

> <s_epik_input>
W0NIM11bQ0gyXU4xW0NIMl1bQ0gyXVtDQEhdKFtDSDJdW0NASF0xW0NIM10pTihbQ0gzXSljKG5bY0hdbjIpYyhjMjMpbltjSF1uM1tDSDJdW0NASF0oW0NIMl1bT0hdKVtDQEBIXTRbQ0gyXVtDSDJdT1tDSDJdNA==

> <s_epik_cmdline>
J2VwaWtfcHl0aG9uJywgJy1waCcsICc3LjAnLCAnLXRuJywgJzgnLCAnLW1hJywgJzIwMCcsICctbWV0YWxfYmluZGluZycsICctaW1hZScsICc8aW5maWxlLm1hZT4nLCAnLW9tYWUnLCAnPG91dGZpbGUubWFlPic=

> <r_lp_tautomer_probability>
1

> <r_epik_Ionization_Penalty>
0.00294688

> <r_epik_Ionization_Penalty_Charging>
0.00169971

> <r_epik_Ionization_Penalty_Neutral>
0.00124717

> <r_epik_State_Penalty>
-0

> <r_epik_Charging_Adjusted_Penalty>
0.00169971

> <i_epik_Tot_Q>
1

> <i_epik_Tot_abs_Q>
1

> <r_epik_Metal_State_Penalty>
-0

> <b_epik_Metal_Only>
0

> <s_lp_Force_Field>
OPLS_2005

> <r_lp_Energy>
53.8216

> <b_lp_Chiralities_Consistent>
1

> <s_lp_Variant>
AV-unprocessed.smi:249-24

> <Gold.Version>
5.8.1

> <Gold.Id.Protein>
6NUR|6NUR_protein|mol2

> <Gold.PLP.Fitness>
42.4168

> <Gold.PLP.PLP>
-42.9415

> <Gold.PLP.part.hbond>
-1.3873

> <Gold.PLP.part.metal>
0.0000

> <Gold.PLP.part.buried>
-7.3090

> <Gold.PLP.part.nonpolar>
-35.5208

> <Gold.PLP.part.repulsive>
0.0084

> <Gold.PLP.ligand.clash>
0.0000

> <Gold.PLP.ligand.torsion>
2.0246

> <Gold.PLP.Chemscore.Hbond>
1.0199

> <Gold.PLP.Chemscore.CHOScore>
0.0000

> <Gold.PLP.Chemscore.Metal>
0.0000

> <Gold.Chemscore.Hbonds>
donor molecule, donor type, donor heavy atom, donor atom, acceptor molecule, acceptor atom, score
      P1  H  6896  6909       L1    10  0.07
      P1  H 10752 10763       L1    15  0.98

> <Gold.PLP.Chemscore.Internal.Correction>
0.4649

> <Gold.Rescore>
     Score         DG    S(hbond)    S(metal)    S(lipo)     H(rot)  DE(clash)    DE(int)     intcor
     12.76     -14.72       0.98        0.00     109.05       2.65       0.06       1.89       ----

> <Gold.Chemscore.Fitness>
12.7635

> <Gold.Chemscore.DG>
-14.7155

> <Gold.Chemscore.ZeroCoef>
-5.4800

> <Gold.Chemscore.Hbond>
0.9775

> <Gold.Chemscore.Metal>
0.0000

> <Gold.Chemscore.Lipo>
109.0492

> <Gold.Chemscore.Internal_Hbond>
0.0000

> <Gold.Chemscore.DEClash>
0.0604

> <Gold.Chemscore.DEInternal>
1.8916

> <Gold.Chemscore.Rot>
2.6515

> <Gold.Chemscore.Internal.Correction>
   9.000000E+99

> <Gold.Chemscore.Hbonds>
donor molecule, donor type, donor heavy atom, donor atom, acceptor molecule, acceptor atom, score
      P1  H 10752 10763       L1    15  0.91

> <Gold.Chemscore.Hbond.Weighted>
-3.2647

> <Gold.Chemscore.Metal.Weighted>
-0.0000

> <Gold.Chemscore.Lipo.Weighted>
-12.7588

> <Gold.Chemscore.Internal_Hbond.Weighted>
0.0000

> <Gold.Chemscore.DEClash.Weighted>
0.0604

> <Gold.Chemscore.DEInternal.Weighted>
1.8916

> <Gold.Chemscore.Rot.Weighted>
6.7880

> <Gold.Chemscore.Internal.Correction.Weighted>
   9.000000E+99

> <Gold.Protein.RotatedTorsions>
[ 6907 6896 6895 6894 ] final    7.99 input  -60.11 | X-H torsion
[ 7974 7965 7964 7962 ] final   35.66 input  175.53 | X-H torsion
[ 8008 7997 7996 7995 ] final -168.08 input   59.86 | X-H torsion
[ 10167 10162 10161 10158 ] final   90.05 input  -65.29 | X-H torsion
[ 10718 10713 10712 10709 ] final   85.99 input   66.30 | X-H torsion
[ 10763 10752 10751 10750 ] final   75.76 input  -60.55 | X-H torsion
[ 11005 11000 10999 10996 ] final  143.21 input  -57.11 | X-H torsion

> <Gold.Protein.ActiveResidues>
 VAL166  LYS551  ARG553  GLY616  TRP617  ASP618  TYR619  PRO620  LYS621  CYS622 
 ASP623  PHE694  ASN695  SER759  ASP760  ASP761  ALA762  ILE779  LEU786  VAL792 
 PHE793  MET794  SER795  GLU796  ALA797  LYS798  CYS799  TRP800  GLU811  SER814 

> <Gold.Protein.RotatedAtoms>
  151.6988  135.0934  160.0246 H   0  0  0  0  0  0  0  0  0  0  0  0  # atno 6907 bound_to 6896
  152.3733  133.6444  159.6112 H   0  0  0  0  0  0  0  0  0  0  0  0  # atno 6908 bound_to 6896
  150.7690  133.9151  159.3422 H   0  0  0  0  0  0  0  0  0  0  0  0  # atno 6909 bound_to 6896
  146.1267  139.6114  142.9254 H   0  0  0  0  0  0  0  0  0  0  0  0  # atno 7974 bound_to 7965
  155.8865  140.1017  157.1449 H   0  0  0  0  0  0  0  0  0  0  0  0  # atno 8008 bound_to 7997
  154.4010  140.1319  156.4326 H   0  0  0  0  0  0  0  0  0  0  0  0  # atno 8009 bound_to 7997
  155.7583  140.3463  155.5187 H   0  0  0  0  0  0  0  0  0  0  0  0  # atno 8010 bound_to 7997
  139.8512  144.6592  150.9167 H   0  0  0  0  0  0  0  0  0  0  0  0  # atno 10167 bound_to 10162
  157.6922  131.0197  150.2906 H   0  0  0  0  0  0  0  0  0  0  0  0  # atno 10718 bound_to 10713
  153.0677  135.4976  154.8237 H   0  0  0  0  0  0  0  0  0  0  0  0  # atno 10763 bound_to 10752
  154.6978  135.2996  154.9388 H   0  0  0  0  0  0  0  0  0  0  0  0  # atno 10764 bound_to 10752
  154.0122  135.6753  153.4819 H   0  0  0  0  0  0  0  0  0  0  0  0  # atno 10765 bound_to 10752
  140.0536  134.9242  157.1061 H   0  0  0  0  0  0  0  0  0  0  0  0  # atno 11005 bound_to 11000
  145.5350  141.0424  143.2362 LP  0  0  0  0  0  0  0  0  0  0  0  0  # atno 17320 bound_to 7965
  144.7649  139.6868  143.7219 LP  0  0  0  0  0  0  0  0  0  0  0  0  # atno 17321 bound_to 7965
  140.7787  143.3826  151.1451 LP  0  0  0  0  0  0  0  0  0  0  0  0  # atno 17342 bound_to 10162
  139.7463  143.8846  152.3064 LP  0  0  0  0  0  0  0  0  0  0  0  0  # atno 17343 bound_to 10162
  156.3437  130.3819  149.7387 LP  0  0  0  0  0  0  0  0  0  0  0  0  # atno 17370 bound_to 10713
  156.4887  130.8075  151.3086 LP  0  0  0  0  0  0  0  0  0  0  0  0  # atno 17371 bound_to 10713
  140.3878  134.2217  155.7167 LP  0  0  0  0  0  0  0  0  0  0  0  0  # atno 17394 bound_to 11000
  141.1942  133.8134  157.0768 LP  0  0  0  0  0  0  0  0  0  0  0  0  # atno 17395 bound_to 11000

$$$$
