AV-unprocessed.smi:772|AV-procd|sdf|3686|dock6
  -GOLD-   22720 1103D 1   1.00000     0.00000
 Structure written by MMmdl.
 46 47  0  0  0  0  0  0  0  0  1 V2000
  152.1337  141.7054  159.1211 C   0  0  0  0  0  0  0  0  0  0  0  0
  151.6004  141.0922  157.8433 C   0  0  0  0  0  0  0  0  0  0  0  0
  150.4546  141.6188  157.2108 C   0  0  0  0  0  0  0  0  0  0  0  0
  150.0029  141.0077  156.0257 C   0  0  0  0  0  0  0  0  0  0  0  0
  150.7097  139.8968  155.5208 C   0  0  0  0  0  0  0  0  0  0  0  0
  150.2534  139.1859  154.2588 C   0  0  0  0  0  0  0  0  0  0  0  0
  151.1215  137.9686  153.8901 C   0  0  0  0  0  0  0  0  0  0  0  0
  150.4658  136.7064  154.2229 N   0  0  0  0  0  0  0  0  0  0  0  0
  150.8023  135.8858  155.2339 C   0  0  0  0  0  0  0  0  0  0  0  0
  151.7542  136.1188  155.9801 O   0  0  0  0  0  0  0  0  0  0  0  0
  149.9992  134.8005  155.3750 N   0  0  0  0  0  0  0  0  0  0  0  0
  148.8143  134.4879  154.5601 C   0  0  0  0  0  0  0  0  0  0  0  0
  149.2149  133.4929  153.4604 C   0  0  0  0  0  0  0  0  0  0  0  0
  149.7913  131.9250  154.1818 S   0  0  0  0  0  0  0  0  0  0  0  0
  150.9985  132.5522  155.4041 C   0  0  2  0  0  0  0  0  0  0  0  0
  151.6054  131.4174  156.2675 C   0  0  0  0  0  0  0  0  0  0  0  0
  152.6170  131.9533  157.2949 C   0  0  0  0  0  0  0  0  0  0  0  0
  152.2149  130.2651  155.4472 C   0  0  0  0  0  0  0  0  0  0  0  0
  150.3660  133.6802  156.2499 C   0  0  0  0  0  0  0  0  0  0  0  0
  151.8446  139.4496  156.2296 C   0  0  0  0  0  0  0  0  0  0  0  0
  152.2861  140.0303  157.3658 N   0  0  0  0  0  0  0  0  0  0  0  0
  151.5181  142.5452  159.4444 H   0  0  0  0  0  0  0  0  0  0  0  0
  153.1513  142.0676  158.9720 H   0  0  0  0  0  0  0  0  0  0  0  0
  152.1453  140.9646  159.9210 H   0  0  0  0  0  0  0  0  0  0  0  0
  149.9314  142.4693  157.6223 H   0  0  0  0  0  0  0  0  0  0  0  0
  149.1244  141.3812  155.5202 H   0  0  0  0  0  0  0  0  0  0  0  0
  149.2161  138.8720  154.3826 H   0  0  0  0  0  0  0  0  0  0  0  0
  150.2565  139.9007  153.4351 H   0  0  0  0  0  0  0  0  0  0  0  0
  151.3223  137.9750  152.8187 H   0  0  0  0  0  0  0  0  0  0  0  0
  152.0944  138.0419  154.3793 H   0  0  0  0  0  0  0  0  0  0  0  0
  149.6725  136.4465  153.6554 H   0  0  0  0  0  0  0  0  0  0  0  0
  148.0348  134.0536  155.1879 H   0  0  0  0  0  0  0  0  0  0  0  0
  148.3538  135.3704  154.1157 H   0  0  0  0  0  0  0  0  0  0  0  0
  148.3672  133.2857  152.8073 H   0  0  0  0  0  0  0  0  0  0  0  0
  150.0057  133.9111  152.8365 H   0  0  0  0  0  0  0  0  0  0  0  0
  151.8150  132.9949  154.8312 H   0  0  0  0  0  0  0  0  0  0  0  0
  150.7851  130.9905  156.8463 H   0  0  0  0  0  0  0  0  0  0  0  0
  153.5010  132.3699  156.8120 H   0  0  0  0  0  0  0  0  0  0  0  0
  152.9523  131.1602  157.9638 H   0  0  0  0  0  0  0  0  0  0  0  0
  152.1750  132.7352  157.9128 H   0  0  0  0  0  0  0  0  0  0  0  0
  153.0595  130.5987  154.8445 H   0  0  0  0  0  0  0  0  0  0  0  0
  151.4834  129.8143  154.7775 H   0  0  0  0  0  0  0  0  0  0  0  0
  152.5772  129.4733  156.1032 H   0  0  0  0  0  0  0  0  0  0  0  0
  151.0548  133.9941  157.0359 H   0  0  0  0  0  0  0  0  0  0  0  0
  149.4799  133.3202  156.7737 H   0  0  0  0  0  0  0  0  0  0  0  0
  152.4103  138.5989  155.8792 H   0  0  0  0  0  0  0  0  0  0  0  0
  1  2  1  0  0  0  0
  1 22  1  0  0  0  0
  1 23  1  0  0  0  0
  1 24  1  0  0  0  0
  2 21  1  0  0  0  0
  2  3  2  0  0  0  0
  3  4  1  0  0  0  0
  3 25  1  0  0  0  0
  4  5  2  0  0  0  0
  4 26  1  0  0  0  0
  5  6  1  0  0  0  0
  5 20  1  0  0  0  0
  6  7  1  0  0  0  0
  6 27  1  0  0  0  0
  6 28  1  0  0  0  0
  7  8  1  0  0  0  0
  7 29  1  0  0  0  0
  7 30  1  0  0  0  0
  8  9  1  0  0  0  0
  8 31  1  0  0  0  0
  9 10  2  0  0  0  0
  9 11  1  0  0  0  0
 11 19  1  0  0  0  0
 11 12  1  0  0  0  0
 12 13  1  0  0  0  0
 12 32  1  0  0  0  0
 12 33  1  0  0  0  0
 13 14  1  0  0  0  0
 13 34  1  0  0  0  0
 13 35  1  0  0  0  0
 14 15  1  0  0  0  0
 15 16  1  0  0  0  0
 15 19  1  0  0  0  0
 15 36  1  0  0  0  0
 16 17  1  0  0  0  0
 16 18  1  0  0  0  0
 16 37  1  0  0  0  0
 17 38  1  0  0  0  0
 17 39  1  0  0  0  0
 17 40  1  0  0  0  0
 18 41  1  0  0  0  0
 18 42  1  0  0  0  0
 18 43  1  0  0  0  0
 19 44  1  0  0  0  0
 19 45  1  0  0  0  0
 20 21  2  0  0  0  0
 20 46  1  0  0  0  0
M  END
> <s_m_source_file>
AV-unprocessed.smi

> <i_m_source_file_index>
772

> <i_lp_mmshare_version>
43012

> <i_f3d_flags>
0

> <s_epik_input>
W0NIM11jMVtjSF1bY0hdYyhbY0hdbjEpW0NIMl1bQ0gyXVtOSF1DKD1PKU4yW0NIMl1bQ0gyXVNbQ0BIXShbQ0gyXTIpW0NIXShbQ0gzXSlbQ0gzXQ==

> <s_epik_cmdline>
J2VwaWtfcHl0aG9uJywgJy1waCcsICc3LjAnLCAnLXRuJywgJzgnLCAnLW1hJywgJzIwMCcsICctbWV0YWxfYmluZGluZycsICctaW1hZScsICc8aW5maWxlLm1hZT4nLCAnLW9tYWUnLCAnPG91dGZpbGUubWFlPic=

> <r_epik_Ionization_Penalty>
0.0566916

> <r_epik_Ionization_Penalty_Charging>
0

> <r_epik_Ionization_Penalty_Neutral>
0.0566916

> <r_epik_State_Penalty>
0.0488669

> <r_epik_Charging_Adjusted_Penalty>
0.0488669

> <i_epik_Tot_Q>
0

> <i_epik_Tot_abs_Q>
0

> <r_epik_Metal_State_Penalty>
0.0445784

> <b_epik_Metal_Only>
0

> <s_lp_Force_Field>
OPLS_2005

> <r_lp_Energy>
25.5588

> <b_lp_Chiralities_Consistent>
1

> <s_lp_Variant>
AV-unprocessed.smi:772-2

> <Gold.Version>
5.8.1

> <Gold.Id.Protein>
6NUR|6NUR_protein|mol2

> <Gold.PLP.Fitness>
47.6064

> <Gold.PLP.PLP>
-40.2508

> <Gold.PLP.part.hbond>
-3.9950

> <Gold.PLP.part.metal>
0.0000

> <Gold.PLP.part.buried>
-1.5052

> <Gold.PLP.part.nonpolar>
-34.6868

> <Gold.PLP.part.repulsive>
0.0889

> <Gold.PLP.ligand.clash>
0.0000

> <Gold.PLP.ligand.torsion>
0.4408

> <Gold.PLP.Chemscore.Hbond>
2.7166

> <Gold.PLP.Chemscore.CHOScore>
0.0000

> <Gold.PLP.Chemscore.Metal>
0.0000

> <Gold.Chemscore.Hbonds>
donor molecule, donor type, donor heavy atom, donor atom, acceptor molecule, acceptor atom, score
      L1  H     8    31       P1  7948  0.91
      P1  H  7997  8008       L1    21  0.36
      P1  H 10752 10764       L1    10  0.90

> <Gold.PLP.Chemscore.Internal.Correction>
0.0875

> <Gold.Rescore>
     Score         DG    S(hbond)    S(metal)    S(lipo)     H(rot)  DE(clash)    DE(int)     intcor
     19.52     -20.07       1.95        0.00      97.95       1.32       0.08       0.47       ----

> <Gold.Chemscore.Fitness>
19.5152

> <Gold.Chemscore.DG>
-20.0675

> <Gold.Chemscore.ZeroCoef>
-5.4800

> <Gold.Chemscore.Hbond>
1.9506

> <Gold.Chemscore.Metal>
0.0000

> <Gold.Chemscore.Lipo>
97.9484

> <Gold.Chemscore.Internal_Hbond>
0.0000

> <Gold.Chemscore.DEClash>
0.0794

> <Gold.Chemscore.DEInternal>
0.4729

> <Gold.Chemscore.Rot>
1.3233

> <Gold.Chemscore.Internal.Correction>
   9.000000E+99

> <Gold.Chemscore.Hbonds>
donor molecule, donor type, donor heavy atom, donor atom, acceptor molecule, acceptor atom, score
      L1  H     8    31       P1  7948  0.44
      P1  H  7997  8008       L1    21  0.09
      P1  H 10752 10764       L1    10  0.18

> <Gold.Chemscore.Hbond.Weighted>
-6.5151

> <Gold.Chemscore.Metal.Weighted>
-0.0000

> <Gold.Chemscore.Lipo.Weighted>
-11.4600

> <Gold.Chemscore.Internal_Hbond.Weighted>
0.0000

> <Gold.Chemscore.DEClash.Weighted>
0.0794

> <Gold.Chemscore.DEInternal.Weighted>
0.4729

> <Gold.Chemscore.Rot.Weighted>
3.3876

> <Gold.Chemscore.Internal.Correction.Weighted>
   9.000000E+99

> <Gold.Protein.RotatedTorsions>
[ 6907 6896 6895 6894 ] final -127.33 input  -60.11 | X-H torsion
[ 7974 7965 7964 7962 ] final   27.47 input  175.53 | X-H torsion
[ 8008 7997 7996 7995 ] final  -80.25 input   59.86 | X-H torsion
[ 10167 10162 10161 10158 ] final   23.73 input  -65.29 | X-H torsion
[ 10718 10713 10712 10709 ] final -142.51 input   66.30 | X-H torsion
[ 10763 10752 10751 10750 ] final  -38.54 input  -60.55 | X-H torsion
[ 11005 11000 10999 10996 ] final   57.67 input  -57.11 | X-H torsion

> <Gold.Protein.ActiveResidues>
 VAL166  LYS551  ARG553  GLY616  TRP617  ASP618  TYR619  PRO620  LYS621  CYS622 
 ASP623  PHE694  ASN695  SER759  ASP760  ASP761  ALA762  ILE779  LEU786  VAL792 
 PHE793  MET794  SER795  GLU796  ALA797  LYS798  CYS799  TRP800  GLU811  SER814 

> <Gold.Protein.RotatedAtoms>
  150.9062  133.7056  159.2866 H   0  0  0  0  0  0  0  0  0  0  0  0  # atno 6907 bound_to 6896
  151.4558  135.1032  159.9720 H   0  0  0  0  0  0  0  0  0  0  0  0  # atno 6908 bound_to 6896
  152.4904  133.8437  159.7221 H   0  0  0  0  0  0  0  0  0  0  0  0  # atno 6909 bound_to 6896
  146.1782  139.7187  142.8919 H   0  0  0  0  0  0  0  0  0  0  0  0  # atno 7974 bound_to 7965
  154.5864  140.0666  156.9178 H   0  0  0  0  0  0  0  0  0  0  0  0  # atno 8008 bound_to 7997
  155.2371  140.3342  155.4278 H   0  0  0  0  0  0  0  0  0  0  0  0  # atno 8009 bound_to 7997
  156.2226  140.1805  156.7425 H   0  0  0  0  0  0  0  0  0  0  0  0  # atno 8010 bound_to 7997
  140.5245  143.9946  150.6433 H   0  0  0  0  0  0  0  0  0  0  0  0  # atno 10167 bound_to 10162
  156.3468  130.7667  151.1813 H   0  0  0  0  0  0  0  0  0  0  0  0  # atno 10718 bound_to 10713
  153.9146  135.6789  153.4750 H   0  0  0  0  0  0  0  0  0  0  0  0  # atno 10763 bound_to 10752
  153.1060  135.4805  154.8950 H   0  0  0  0  0  0  0  0  0  0  0  0  # atno 10764 bound_to 10752
  154.7509  135.3184  154.8514 H   0  0  0  0  0  0  0  0  0  0  0  0  # atno 10765 bound_to 10752
  140.0435  134.5840  155.9352 H   0  0  0  0  0  0  0  0  0  0  0  0  # atno 11005 bound_to 11000
  145.4151  141.0401  143.2995 LP  0  0  0  0  0  0  0  0  0  0  0  0  # atno 17320 bound_to 7965
  144.8271  139.5691  143.6960 LP  0  0  0  0  0  0  0  0  0  0  0  0  # atno 17321 bound_to 7965
  140.3304  143.3081  152.0692 LP  0  0  0  0  0  0  0  0  0  0  0  0  # atno 17342 bound_to 10162
  139.4934  144.6513  151.6670 LP  0  0  0  0  0  0  0  0  0  0  0  0  # atno 17343 bound_to 10162
  157.7455  131.0439  150.4766 LP  0  0  0  0  0  0  0  0  0  0  0  0  # atno 17370 bound_to 10713
  156.4954  130.4105  149.6382 LP  0  0  0  0  0  0  0  0  0  0  0  0  # atno 17371 bound_to 10713
  141.1895  133.6565  156.5370 LP  0  0  0  0  0  0  0  0  0  0  0  0  # atno 17394 bound_to 11000
  140.4031  134.7338  157.4792 LP  0  0  0  0  0  0  0  0  0  0  0  0  # atno 17395 bound_to 11000

$$$$
