AV-unprocessed.smi:55|AV-procd|sdf|561|dock5
  -GOLD-   2262016463D 1   1.00000     0.00000
 Structure written by MMmdl.
 31 32  0  0  0  0  0  0  0  0  1 V2000
  151.2522  144.6727  158.0467 C   0  0  0  0  0  0  0  0  0  0  0  0
  151.4321  143.1659  158.1275 C   0  0  0  0  0  0  0  0  0  0  0  0
  150.5856  142.2984  157.5167 C   0  0  0  0  0  0  0  0  0  0  0  0
  150.7204  140.9186  157.5724 N   0  0  0  0  0  0  0  0  0  0  0  0
  149.7154  140.0247  156.8815 C   0  0  2  0  0  0  0  0  0  0  0  0
  150.3767  139.1920  155.7773 C   0  0  0  0  0  0  0  0  0  0  0  0
  149.8128  139.8151  154.5128 C   0  0  1  0  0  0  0  0  0  0  0  0
  149.6790  138.8509  153.4884 O   0  0  0  0  0  0  0  0  0  0  0  0
  148.4610  140.3615  154.9804 C   0  0  2  0  0  0  0  0  0  0  0  0
  147.9323  141.5140  154.1130 C   0  0  0  0  0  0  0  0  0  0  0  0
  148.8354  142.5983  154.1456 O   0  0  0  0  0  0  0  0  0  0  0  0
  148.7450  140.8354  156.2925 O   0  0  0  0  0  0  0  0  0  0  0  0
  151.7846  140.3583  158.3112 C   0  0  0  0  0  0  0  0  0  0  0  0
  151.9746  139.1467  158.4107 O   0  0  0  0  0  0  0  0  0  0  0  0
  152.6545  141.2487  158.9387 N   0  0  0  0  0  0  0  0  0  0  0  0
  152.5607  142.6422  158.9016 C   0  0  0  0  0  0  0  0  0  0  0  0
  153.3947  143.3233  159.4959 O   0  0  0  0  0  0  0  0  0  0  0  0
  149.2321  139.4033  157.6359 H   0  0  0  0  0  0  0  0  0  0  0  0
  150.4597  140.6247  154.1732 H   0  0  0  0  0  0  0  0  0  0  0  0
  147.7371  139.5464  155.0450 H   0  0  0  0  0  0  0  0  0  0  0  0
  153.4187  140.8520  159.4659 H   0  0  0  0  0  0  0  0  0  0  0  0
  150.3889  144.9450  157.4391 H   0  0  0  0  0  0  0  0  0  0  0  0
  152.1326  145.1390  157.6033 H   0  0  0  0  0  0  0  0  0  0  0  0
  151.1063  145.0924  159.0427 H   0  0  0  0  0  0  0  0  0  0  0  0
  149.7560  142.7064  156.9589 H   0  0  0  0  0  0  0  0  0  0  0  0
  151.4657  139.2218  155.8303 H   0  0  0  0  0  0  0  0  0  0  0  0
  150.0496  138.1573  155.8915 H   0  0  0  0  0  0  0  0  0  0  0  0
  149.7158  139.2908  152.6528 H   0  0  0  0  0  0  0  0  0  0  0  0
  147.7606  141.1910  153.0857 H   0  0  0  0  0  0  0  0  0  0  0  0
  146.9794  141.8719  154.5040 H   0  0  0  0  0  0  0  0  0  0  0  0
  148.5649  143.1943  154.8274 H   0  0  0  0  0  0  0  0  0  0  0  0
  1  2  1  0  0  0  0
  1 22  1  0  0  0  0
  1 23  1  0  0  0  0
  1 24  1  0  0  0  0
  2 16  1  0  0  0  0
  2  3  2  0  0  0  0
  3  4  1  0  0  0  0
  3 25  1  0  0  0  0
  4  5  1  0  0  0  0
  4 13  1  0  0  0  0
  5 18  1  0  0  0  0
  5 12  1  0  0  0  0
  5  6  1  0  0  0  0
  6  7  1  0  0  0  0
  6 26  1  0  0  0  0
  6 27  1  0  0  0  0
  7 19  1  0  0  0  0
  7  8  1  0  0  0  0
  7  9  1  0  0  0  0
  8 28  1  0  0  0  0
  9 20  1  0  0  0  0
  9 10  1  0  0  0  0
  9 12  1  0  0  0  0
 10 11  1  0  0  0  0
 10 29  1  0  0  0  0
 10 30  1  0  0  0  0
 11 31  1  0  0  0  0
 13 14  2  0  0  0  0
 13 15  1  0  0  0  0
 15 21  1  0  0  0  0
 15 16  1  0  0  0  0
 16 17  2  0  0  0  0
M  END
> <s_m_source_file>
AV-unprocessed.smi

> <i_m_source_file_index>
55

> <i_lp_mmshare_version>
43012

> <i_f3d_flags>
0

> <s_epik_input>
Tz1jMVtuSF1jKD1PKW4oW2NIXWMxW0NIM10pW0NAQEhdMltDSDJdW0NAQEhdKFtPSF0pW0NAQEhdKE8yKVtDSDJdW09IXQ==

> <s_epik_cmdline>
J2VwaWtfcHl0aG9uJywgJy1waCcsICc3LjAnLCAnLXRuJywgJzgnLCAnLW1hJywgJzIwMCcsICctbWV0YWxfYmluZGluZycsICctaW1hZScsICc8aW5maWxlLm1hZT4nLCAnLW9tYWUnLCAnPG91dGZpbGUubWFlPic=

> <r_lp_tautomer_probability>
0.999537

> <r_epik_Ionization_Penalty>
0.00121888

> <r_epik_Ionization_Penalty_Charging>
0.00121876

> <r_epik_Ionization_Penalty_Neutral>
1.19946e-07

> <r_epik_State_Penalty>
0.000805124

> <r_epik_Charging_Adjusted_Penalty>
0.00202389

> <i_epik_Tot_Q>
0

> <i_epik_Tot_abs_Q>
0

> <r_epik_Metal_State_Penalty>
0.662472

> <b_epik_Metal_Only>
0

> <s_epik_Chemistry_Notes>
This compound contains an acetal/aminal-like group ( X-CH(R)-Y where X, Y are N, S, or O) that may be acid/base labile, releasing an aldehyde.

> <s_lp_Force_Field>
OPLS_2005

> <r_lp_Energy>
24.9707

> <b_lp_Chiralities_Consistent>
1

> <s_lp_Variant>
AV-unprocessed.smi:55-1

> <Gold.Version>
5.8.1

> <Gold.Id.Protein>
6NUR|6NUR_protein|mol2

> <Gold.PLP.Fitness>
38.9158

> <Gold.PLP.PLP>
-29.7437

> <Gold.PLP.part.hbond>
-3.8003

> <Gold.PLP.part.metal>
0.0000

> <Gold.PLP.part.buried>
-3.9079

> <Gold.PLP.part.nonpolar>
-21.4975

> <Gold.PLP.part.repulsive>
0.1578

> <Gold.PLP.ligand.clash>
0.0000

> <Gold.PLP.ligand.torsion>
0.0282

> <Gold.PLP.Chemscore.Hbond>
2.0720

> <Gold.PLP.Chemscore.CHOScore>
1.0000

> <Gold.PLP.Chemscore.Metal>
0.0000

> <Gold.Chemscore.Hbonds>
donor molecule, donor type, donor heavy atom, donor atom, acceptor molecule, acceptor atom, score
      L1  H     8    28       P1  7957  1.00
      L1  H    11    31       P1  8028  0.93
      P1  H  8011  8017       L1    11  0.08
      L1  C     3    25       P1  8028  0.96

> <Gold.PLP.Chemscore.Internal.Correction>
0.0127

> <Gold.Rescore>
     Score         DG    S(hbond)    S(metal)    S(lipo)     H(rot)  DE(clash)    DE(int)     intcor
     11.97     -12.09       2.13        0.00      55.48       2.73       0.08       0.05       ----

> <Gold.Chemscore.Fitness>
11.9695

> <Gold.Chemscore.DG>
-12.0944

> <Gold.Chemscore.ZeroCoef>
-5.4800

> <Gold.Chemscore.Hbond>
2.1259

> <Gold.Chemscore.Metal>
0.0000

> <Gold.Chemscore.Lipo>
55.4754

> <Gold.Chemscore.Internal_Hbond>
0.0000

> <Gold.Chemscore.DEClash>
0.0759

> <Gold.Chemscore.DEInternal>
0.0490

> <Gold.Chemscore.Rot>
2.7253

> <Gold.Chemscore.Internal.Correction>
   9.000000E+99

> <Gold.Chemscore.Hbonds>
donor molecule, donor type, donor heavy atom, donor atom, acceptor molecule, acceptor atom, score
      L1  H     8    28       P1  7957  0.98
      L1  H    11    31       P1  8028  0.90
      P1  H  8011  8017       L1    11  0.04

> <Gold.Chemscore.Hbond.Weighted>
-7.1006

> <Gold.Chemscore.Metal.Weighted>
-0.0000

> <Gold.Chemscore.Lipo.Weighted>
-6.4906

> <Gold.Chemscore.Internal_Hbond.Weighted>
0.0000

> <Gold.Chemscore.DEClash.Weighted>
0.0759

> <Gold.Chemscore.DEInternal.Weighted>
0.0490

> <Gold.Chemscore.Rot.Weighted>
6.9769

> <Gold.Chemscore.Internal.Correction.Weighted>
   9.000000E+99

> <Gold.Protein.RotatedTorsions>
[ 6907 6896 6895 6894 ] final    9.27 input  -60.11 | X-H torsion
[ 7974 7965 7964 7962 ] final -113.60 input  175.53 | X-H torsion
[ 8008 7997 7996 7995 ] final  178.51 input   59.86 | X-H torsion
[ 10167 10162 10161 10158 ] final -119.48 input  -65.29 | X-H torsion
[ 10718 10713 10712 10709 ] final  148.72 input   66.30 | X-H torsion
[ 10763 10752 10751 10750 ] final  148.79 input  -60.55 | X-H torsion
[ 11005 11000 10999 10996 ] final   24.68 input  -57.11 | X-H torsion

> <Gold.Protein.ActiveResidues>
 VAL166  LYS551  ARG553  GLY616  TRP617  ASP618  TYR619  PRO620  LYS621  CYS622 
 ASP623  PHE694  ASN695  SER759  ASP760  ASP761  ALA762  ILE779  LEU786  VAL792 
 PHE793  MET794  SER795  GLU796  ALA797  LYS798  CYS799  TRP800  GLU811  SER814 

> <Gold.Protein.RotatedAtoms>
  151.7194  135.0897  160.0281 H   0  0  0  0  0  0  0  0  0  0  0  0  # atno 6907 bound_to 6896
  152.3611  133.6294  159.6024 H   0  0  0  0  0  0  0  0  0  0  0  0  # atno 6908 bound_to 6896
  150.7605  133.9338  159.3476 H   0  0  0  0  0  0  0  0  0  0  0  0  # atno 6909 bound_to 6896
  145.1300  140.8719  143.3763 H   0  0  0  0  0  0  0  0  0  0  0  0  # atno 7974 bound_to 7965
  156.0538  140.1331  157.0020 H   0  0  0  0  0  0  0  0  0  0  0  0  # atno 8008 bound_to 7997
  154.4447  140.1005  156.6486 H   0  0  0  0  0  0  0  0  0  0  0  0  # atno 8009 bound_to 7997
  155.5483  140.3462  155.4465 H   0  0  0  0  0  0  0  0  0  0  0  0  # atno 8010 bound_to 7997
  140.0461  143.5105  152.2105 H   0  0  0  0  0  0  0  0  0  0  0  0  # atno 10167 bound_to 10162
  157.3051  131.0878  151.1360 H   0  0  0  0  0  0  0  0  0  0  0  0  # atno 10718 bound_to 10713
  154.0605  135.2874  155.3325 H   0  0  0  0  0  0  0  0  0  0  0  0  # atno 10763 bound_to 10752
  154.6811  135.5263  153.8268 H   0  0  0  0  0  0  0  0  0  0  0  0  # atno 10764 bound_to 10752
  153.0524  135.6582  154.0794 H   0  0  0  0  0  0  0  0  0  0  0  0  # atno 10765 bound_to 10752
  140.3561  134.2176  155.7676 H   0  0  0  0  0  0  0  0  0  0  0  0  # atno 11005 bound_to 11000
  145.0645  139.3079  143.5863 LP  0  0  0  0  0  0  0  0  0  0  0  0  # atno 17320 bound_to 7965
  146.3514  140.0099  142.8668 LP  0  0  0  0  0  0  0  0  0  0  0  0  # atno 17321 bound_to 7965
  139.5982  144.7574  151.3234 LP  0  0  0  0  0  0  0  0  0  0  0  0  # atno 17342 bound_to 10162
  140.7238  143.7062  150.7806 LP  0  0  0  0  0  0  0  0  0  0  0  0  # atno 17343 bound_to 10162
  157.2703  130.6701  149.6016 LP  0  0  0  0  0  0  0  0  0  0  0  0  # atno 17370 bound_to 10713
  155.9674  130.4481  150.5606 LP  0  0  0  0  0  0  0  0  0  0  0  0  # atno 17371 bound_to 10713
  141.1998  133.8003  157.0519 LP  0  0  0  0  0  0  0  0  0  0  0  0  # atno 17394 bound_to 11000
  140.0664  134.9726  157.1393 LP  0  0  0  0  0  0  0  0  0  0  0  0  # atno 17395 bound_to 11000

$$$$
