AV-unprocessed.smi:477|AV-procd|sdf|2670|dock10
  -GOLD-   2262023 83D 1   1.00000     0.00000
 Structure written by MMmdl.
 45 46  0  0  0  0  0  0  0  0  1 V2000
  147.5040  136.7794  162.8132 C   0  0  0  0  0  0  0  0  0  0  0  0
  147.7846  136.1307  161.4844 C   0  0  0  0  0  0  0  0  0  0  0  0
  148.2191  136.9019  160.5427 N   0  0  0  0  0  0  0  0  0  0  0  0
  148.5091  136.4091  159.2849 N   0  0  0  0  0  0  0  0  0  0  0  0
  149.0180  137.4244  158.3515 C   0  0  0  0  0  0  0  0  0  0  0  0
  150.3528  138.0412  158.7945 C   0  0  0  0  0  0  0  0  0  0  0  0
  151.0860  137.4647  159.5993 O   0  0  0  0  0  0  0  0  0  0  0  0
  150.6503  139.2329  158.2557 N   0  0  0  0  0  0  0  0  0  0  0  0
  151.8372  140.0213  158.5669 C   0  0  0  0  0  0  0  0  0  0  0  0
  151.9429  141.3147  157.7328 C   0  0  0  0  0  0  0  0  0  0  0  0
  152.0643  142.5808  158.5683 C   0  0  0  0  0  0  0  0  0  0  0  0
  152.3402  142.5329  159.8859 C   0  0  0  0  0  0  0  0  0  0  0  0
  152.4362  143.7539  160.7837 C   0  0  0  0  0  0  0  0  0  0  0  0
  151.8362  145.0101  160.1303 C   0  0  0  0  0  0  0  0  0  0  0  0
  152.2596  145.1262  158.6609 C   0  0  0  0  0  0  0  0  0  0  0  0
  151.8058  143.9010  157.8479 C   0  0  0  0  0  0  0  0  0  0  0  0
  148.3671  135.1050  158.9102 C   0  0  0  0  0  0  0  0  0  0  0  0
  148.6368  134.7076  157.7757 O   0  0  0  0  0  0  0  0  0  0  0  0
  147.8734  134.2372  159.9818 C   0  0  0  0  0  0  0  0  0  0  0  0
  147.7098  132.8632  159.6313 C   0  0  0  0  0  0  0  0  0  0  0  0
  147.5588  131.7531  159.3397 N   0  0  0  0  0  0  0  0  0  0  0  0
  147.5923  134.7078  161.2228 C   0  0  0  0  0  0  0  0  0  0  0  0
  147.0799  133.8470  162.3694 C   0  0  0  0  0  0  0  0  0  0  0  0
  146.4833  136.5757  163.1375 H   0  0  0  0  0  0  0  0  0  0  0  0
  147.6236  137.8632  162.7702 H   0  0  0  0  0  0  0  0  0  0  0  0
  148.1838  136.4024  163.5776 H   0  0  0  0  0  0  0  0  0  0  0  0
  149.1381  137.0111  157.3488 H   0  0  0  0  0  0  0  0  0  0  0  0
  148.2804  138.2229  158.2484 H   0  0  0  0  0  0  0  0  0  0  0  0
  149.9950  139.6351  157.6011 H   0  0  0  0  0  0  0  0  0  0  0  0
  151.8538  140.2609  159.6313 H   0  0  0  0  0  0  0  0  0  0  0  0
  152.7112  139.3957  158.3837 H   0  0  0  0  0  0  0  0  0  0  0  0
  152.7840  141.2594  157.0406 H   0  0  0  0  0  0  0  0  0  0  0  0
  151.0518  141.3981  157.1095 H   0  0  0  0  0  0  0  0  0  0  0  0
  152.5208  141.5789  160.3601 H   0  0  0  0  0  0  0  0  0  0  0  0
  151.9284  143.5485  161.7263 H   0  0  0  0  0  0  0  0  0  0  0  0
  153.4882  143.9175  161.0191 H   0  0  0  0  0  0  0  0  0  0  0  0
  150.7477  144.9650  160.1858 H   0  0  0  0  0  0  0  0  0  0  0  0
  152.1370  145.8991  160.6850 H   0  0  0  0  0  0  0  0  0  0  0  0
  151.8530  146.0364  158.2194 H   0  0  0  0  0  0  0  0  0  0  0  0
  153.3455  145.2159  158.6069 H   0  0  0  0  0  0  0  0  0  0  0  0
  152.3026  143.9119  156.8791 H   0  0  0  0  0  0  0  0  0  0  0  0
  150.7361  143.9657  157.6470 H   0  0  0  0  0  0  0  0  0  0  0  0
  147.0576  132.7885  162.1118 H   0  0  0  0  0  0  0  0  0  0  0  0
  146.0662  134.1421  162.6423 H   0  0  0  0  0  0  0  0  0  0  0  0
  147.7179  133.9534  163.2474 H   0  0  0  0  0  0  0  0  0  0  0  0
  1  2  1  0  0  0  0
  1 24  1  0  0  0  0
  1 25  1  0  0  0  0
  1 26  1  0  0  0  0
  2 22  1  0  0  0  0
  2  3  2  0  0  0  0
  3  4  1  0  0  0  0
  4  5  1  0  0  0  0
  4 17  1  0  0  0  0
  5  6  1  0  0  0  0
  5 27  1  0  0  0  0
  5 28  1  0  0  0  0
  6  7  2  0  0  0  0
  6  8  1  0  0  0  0
  8  9  1  0  0  0  0
  8 29  1  0  0  0  0
  9 10  1  0  0  0  0
  9 30  1  0  0  0  0
  9 31  1  0  0  0  0
 10 11  1  0  0  0  0
 10 32  1  0  0  0  0
 10 33  1  0  0  0  0
 11 16  1  0  0  0  0
 11 12  2  0  0  0  0
 12 13  1  0  0  0  0
 12 34  1  0  0  0  0
 13 14  1  0  0  0  0
 13 35  1  0  0  0  0
 13 36  1  0  0  0  0
 14 15  1  0  0  0  0
 14 37  1  0  0  0  0
 14 38  1  0  0  0  0
 15 16  1  0  0  0  0
 15 39  1  0  0  0  0
 15 40  1  0  0  0  0
 16 41  1  0  0  0  0
 16 42  1  0  0  0  0
 17 18  2  0  0  0  0
 17 19  1  0  0  0  0
 19 20  1  0  0  0  0
 19 22  2  0  0  0  0
 20 21  3  0  0  0  0
 22 23  1  0  0  0  0
 23 43  1  0  0  0  0
 23 44  1  0  0  0  0
 23 45  1  0  0  0  0
M  END
> <s_m_source_file>
AV-unprocessed.smi

> <i_m_source_file_index>
477

> <i_lp_mmshare_version>
43012

> <i_f3d_flags>
0

> <s_epik_input>
TiNDYyhjMVtDSDNdKWMoPU8pbihuYzFbQ0gzXSlbQ0gyXUMoPU8pW05IXVtDSDJdW0NIMl1DMj1bQ0hdW0NIMl1bQ0gyXVtDSDJdW0NIMl0y

> <s_epik_cmdline>
J2VwaWtfcHl0aG9uJywgJy1waCcsICc3LjAnLCAnLXRuJywgJzgnLCAnLW1hJywgJzIwMCcsICctbWV0YWxfYmluZGluZycsICctaW1hZScsICc8aW5maWxlLm1hZT4nLCAnLW9tYWUnLCAnPG91dGZpbGUubWFlPic=

> <r_lp_tautomer_probability>
1

> <r_epik_Ionization_Penalty>
1.81256e-08

> <r_epik_Ionization_Penalty_Charging>
2.1856e-11

> <r_epik_Ionization_Penalty_Neutral>
1.81037e-08

> <r_epik_State_Penalty>
-0

> <r_epik_Charging_Adjusted_Penalty>
2.1856e-11

> <i_epik_Tot_Q>
0

> <i_epik_Tot_abs_Q>
0

> <r_epik_Metal_State_Penalty>
-0

> <b_epik_Metal_Only>
0

> <s_lp_Force_Field>
OPLS_2005

> <r_lp_Energy>
23.5318

> <b_lp_Chiralities_Consistent>
1

> <s_lp_Variant>
AV-unprocessed.smi:477-1

> <Gold.Version>
5.8.1

> <Gold.Id.Protein>
6NUR|6NUR_protein|mol2

> <Gold.PLP.Fitness>
52.1592

> <Gold.PLP.PLP>
-50.2847

> <Gold.PLP.part.hbond>
-2.7030

> <Gold.PLP.part.metal>
0.0000

> <Gold.PLP.part.buried>
-5.5127

> <Gold.PLP.part.nonpolar>
-43.2944

> <Gold.PLP.part.repulsive>
0.1614

> <Gold.PLP.ligand.clash>
0.0000

> <Gold.PLP.ligand.torsion>
0.8530

> <Gold.PLP.Chemscore.Hbond>
1.1785

> <Gold.PLP.Chemscore.CHOScore>
0.0000

> <Gold.PLP.Chemscore.Metal>
0.0000

> <Gold.Chemscore.Hbonds>
donor molecule, donor type, donor heavy atom, donor atom, acceptor molecule, acceptor atom, score
      P1  H  6931  6943       L1     3  0.50
      P1  H  6934  6947       L1     3  0.08

> <Gold.PLP.Chemscore.Internal.Correction>
0.0451

> <Gold.Rescore>
     Score         DG    S(hbond)    S(metal)    S(lipo)     H(rot)  DE(clash)    DE(int)     intcor
     16.15     -17.83       0.45        0.00     132.70       1.83       0.03       1.66       ----

> <Gold.Chemscore.Fitness>
16.1467

> <Gold.Chemscore.DG>
-17.8300

> <Gold.Chemscore.ZeroCoef>
-5.4800

> <Gold.Chemscore.Hbond>
0.4520

> <Gold.Chemscore.Metal>
0.0000

> <Gold.Chemscore.Lipo>
132.7027

> <Gold.Chemscore.Internal_Hbond>
0.0000

> <Gold.Chemscore.DEClash>
0.0279

> <Gold.Chemscore.DEInternal>
1.6554

> <Gold.Chemscore.Rot>
1.8305

> <Gold.Chemscore.Internal.Correction>
   9.000000E+99

> <Gold.Chemscore.Hbonds>
donor molecule, donor type, donor heavy atom, donor atom, acceptor molecule, acceptor atom, score
      P1  H  6931  6943       L1     3  0.04
      P1  H  6934  6947       L1     3  0.06

> <Gold.Chemscore.Hbond.Weighted>
-1.5098

> <Gold.Chemscore.Metal.Weighted>
-0.0000

> <Gold.Chemscore.Lipo.Weighted>
-15.5262

> <Gold.Chemscore.Internal_Hbond.Weighted>
0.0000

> <Gold.Chemscore.DEClash.Weighted>
0.0279

> <Gold.Chemscore.DEInternal.Weighted>
1.6554

> <Gold.Chemscore.Rot.Weighted>
4.6860

> <Gold.Chemscore.Internal.Correction.Weighted>
   9.000000E+99

> <Gold.Protein.RotatedTorsions>
[ 6907 6896 6895 6894 ] final   29.18 input  -60.11 | X-H torsion
[ 7974 7965 7964 7962 ] final  -61.34 input  175.53 | X-H torsion
[ 8008 7997 7996 7995 ] final   61.02 input   59.86 | X-H torsion
[ 10167 10162 10161 10158 ] final   91.71 input  -65.29 | X-H torsion
[ 10718 10713 10712 10709 ] final  165.24 input   66.30 | X-H torsion
[ 10763 10752 10751 10750 ] final -147.53 input  -60.55 | X-H torsion
[ 11005 11000 10999 10996 ] final   90.24 input  -57.11 | X-H torsion

> <Gold.Protein.ActiveResidues>
 VAL166  LYS551  ARG553  GLY616  TRP617  ASP618  TYR619  PRO620  LYS621  CYS622 
 ASP623  PHE694  ASN695  SER759  ASP760  ASP761  ALA762  ILE779  LEU786  VAL792 
 PHE793  MET794  SER795  GLU796  ALA797  LYS798  CYS799  TRP800  GLU811  SER814 

> <Gold.Protein.RotatedAtoms>
  152.0278  134.9785  160.0571 H   0  0  0  0  0  0  0  0  0  0  0  0  # atno 6907 bound_to 6896
  152.1274  133.4383  159.4712 H   0  0  0  0  0  0  0  0  0  0  0  0  # atno 6908 bound_to 6896
  150.6853  134.2381  159.4504 H   0  0  0  0  0  0  0  0  0  0  0  0  # atno 6909 bound_to 6896
  145.8047  140.8634  143.0213 H   0  0  0  0  0  0  0  0  0  0  0  0  # atno 7974 bound_to 7965
  155.5916  140.3493  155.4568 H   0  0  0  0  0  0  0  0  0  0  0  0  # atno 8008 bound_to 7997
  156.0297  140.1271  157.0296 H   0  0  0  0  0  0  0  0  0  0  0  0  # atno 8009 bound_to 7997
  154.4347  140.1046  156.6067 H   0  0  0  0  0  0  0  0  0  0  0  0  # atno 8010 bound_to 7997
  139.8348  144.6670  150.9356 H   0  0  0  0  0  0  0  0  0  0  0  0  # atno 10167 bound_to 10162
  157.0830  131.0397  151.2568 H   0  0  0  0  0  0  0  0  0  0  0  0  # atno 10718 bound_to 10713
  154.8281  135.3358  154.6832 H   0  0  0  0  0  0  0  0  0  0  0  0  # atno 10763 bound_to 10752
  153.7456  135.6943  153.4961 H   0  0  0  0  0  0  0  0  0  0  0  0  # atno 10764 bound_to 10752
  153.2213  135.4448  155.0443 H   0  0  0  0  0  0  0  0  0  0  0  0  # atno 10765 bound_to 10752
  139.8860  134.8601  156.3256 H   0  0  0  0  0  0  0  0  0  0  0  0  # atno 11005 bound_to 11000
  144.6764  140.0309  143.7482 LP  0  0  0  0  0  0  0  0  0  0  0  0  # atno 17320 bound_to 7965
  145.9841  139.2964  143.1024 LP  0  0  0  0  0  0  0  0  0  0  0  0  # atno 17321 bound_to 7965
  140.7803  143.3967  151.1217 LP  0  0  0  0  0  0  0  0  0  0  0  0  # atno 17342 bound_to 10162
  139.7618  143.8623  152.3102 LP  0  0  0  0  0  0  0  0  0  0  0  0  # atno 17343 bound_to 10162
  157.4785  130.7751  149.7391 LP  0  0  0  0  0  0  0  0  0  0  0  0  # atno 17370 bound_to 10713
  155.9918  130.3935  150.2967 LP  0  0  0  0  0  0  0  0  0  0  0  0  # atno 17371 bound_to 10713
  140.9757  133.7299  156.0599 LP  0  0  0  0  0  0  0  0  0  0  0  0  # atno 17394 bound_to 11000
  140.7813  134.3722  157.5486 LP  0  0  0  0  0  0  0  0  0  0  0  0  # atno 17395 bound_to 11000

$$$$
