AV-unprocessed.smi:1380|AV-procd|sdf|5601|dock9
  -GOLD-   22720 5213D 1   1.00000     0.00000
 Structure written by MMmdl.
 34 35  0  0  0  0  0  0  0  0  2 V2000
  147.5224  138.3077  153.4219 O   0  0  0  0  0  0  0  0  0  0  0  0
  146.5217  138.9494  153.1031 C   0  0  0  0  0  0  0  0  0  0  0  0
  145.3788  138.3924  152.6789 N   0  0  0  0  0  0  0  0  0  0  0  0
  145.1516  136.9571  152.5333 C   0  0  0  0  0  0  0  0  0  0  0  0
  146.0502  136.3046  151.4628 C   0  0  0  0  0  0  0  0  0  0  0  0
  145.5212  134.9758  150.9511 C   0  0  0  0  0  0  0  0  0  0  0  0
  146.3386  133.8245  150.9672 C   0  0  0  0  0  0  0  0  0  0  0  0
  145.8212  132.6022  150.4896 C   0  0  0  0  0  0  0  0  0  0  0  0
  144.4974  132.5594  150.0062 C   0  0  0  0  0  0  0  0  0  0  0  0
  143.7447  133.6818  150.0061 N   0  3  0  0  0  0  0  0  0  0  0  0
  144.2034  134.8710  150.4539 C   0  0  0  0  0  0  0  0  0  0  0  0
  146.4491  140.2872  153.1203 N   0  0  0  0  0  0  0  0  0  0  0  0
  147.5456  141.1717  153.4920 C   0  0  0  0  0  0  0  0  0  0  0  0
  147.1213  142.4724  154.1472 C   0  0  0  0  0  0  0  0  0  0  0  0
  145.9277  142.5302  155.0724 C   0  0  0  0  0  0  0  0  0  0  0  0
  145.8557  143.1708  153.7080 C   0  0  0  0  0  0  0  0  0  0  0  0
  144.6097  139.0026  152.4432 H   0  0  0  0  0  0  0  0  0  0  0  0
  145.2852  136.4592  153.4950 H   0  0  0  0  0  0  0  0  0  0  0  0
  144.1050  136.8210  152.2601 H   0  0  0  0  0  0  0  0  0  0  0  0
  146.1732  136.9837  150.6181 H   0  0  0  0  0  0  0  0  0  0  0  0
  147.0509  136.1532  151.8688 H   0  0  0  0  0  0  0  0  0  0  0  0
  147.3505  133.8762  151.3425 H   0  0  0  0  0  0  0  0  0  0  0  0
  146.4316  131.7108  150.4941 H   0  0  0  0  0  0  0  0  0  0  0  0
  144.0214  131.6686  149.6228 H   0  0  0  0  0  0  0  0  0  0  0  0
  143.5058  135.6949  150.4065 H   0  0  0  0  0  0  0  0  0  0  0  0
  145.5817  140.7250  152.8465 H   0  0  0  0  0  0  0  0  0  0  0  0
  148.1822  140.6313  154.1928 H   0  0  0  0  0  0  0  0  0  0  0  0
  148.1655  141.3845  152.6192 H   0  0  0  0  0  0  0  0  0  0  0  0
  147.9535  143.1295  154.3934 H   0  0  0  0  0  0  0  0  0  0  0  0
  145.3594  141.6152  155.2269 H   0  0  0  0  0  0  0  0  0  0  0  0
  145.9944  143.1882  155.9362 H   0  0  0  0  0  0  0  0  0  0  0  0
  145.8707  144.2577  153.6619 H   0  0  0  0  0  0  0  0  0  0  0  0
  145.2389  142.6806  152.9572 H   0  0  0  0  0  0  0  0  0  0  0  0
  142.7893  133.6291  149.6519 H   0  0  0  0  0  0  0  0  0  0  0  0
  1  2  2  0  0  0  0
  2  3  1  0  0  0  0
  2 12  1  0  0  0  0
  3  4  1  0  0  0  0
  3 17  1  0  0  0  0
  4  5  1  0  0  0  0
  4 18  1  0  0  0  0
  4 19  1  0  0  0  0
  5  6  1  0  0  0  0
  5 20  1  0  0  0  0
  5 21  1  0  0  0  0
  6 11  1  0  0  0  0
  6  7  2  0  0  0  0
  7  8  1  0  0  0  0
  7 22  1  0  0  0  0
  8  9  2  0  0  0  0
  8 23  1  0  0  0  0
  9 10  1  0  0  0  0
  9 24  1  0  0  0  0
 10 11  2  0  0  0  0
 10 34  1  0  0  0  0
 11 25  1  0  0  0  0
 12 13  1  0  0  0  0
 12 26  1  0  0  0  0
 13 14  1  0  0  0  0
 13 27  1  0  0  0  0
 13 28  1  0  0  0  0
 14 16  1  0  0  0  0
 14 15  1  0  0  0  0
 14 29  1  0  0  0  0
 15 16  1  0  0  0  0
 15 30  1  0  0  0  0
 15 31  1  0  0  0  0
 16 32  1  0  0  0  0
 16 33  1  0  0  0  0
M  CHG  1  10   1
M  END
> <s_m_source_file>
AV-unprocessed.smi

> <i_m_source_file_index>
1380

> <i_lp_mmshare_version>
43012

> <i_f3d_flags>
0

> <s_epik_input>
W0NIMl0xW0NIMl1bQ0hdMVtDSDJdW05IXUMoPU8pW05IXVtDSDJdW0NIMl1jMltjSF1bY0hdW2NIXW5bY0hdMg==

> <s_epik_cmdline>
J2VwaWtfcHl0aG9uJywgJy1waCcsICc3LjAnLCAnLXRuJywgJzgnLCAnLW1hJywgJzIwMCcsICctbWV0YWxfYmluZGluZycsICctaW1hZScsICc8aW5maWxlLm1hZT4nLCAnLW9tYWUnLCAnPG91dGZpbGUubWFlPic=

> <r_epik_Ionization_Penalty>
2.21218

> <r_epik_Ionization_Penalty_Charging>
2.21212

> <r_epik_Ionization_Penalty_Neutral>
5.76468e-05

> <r_epik_State_Penalty>
2.35642

> <r_epik_Charging_Adjusted_Penalty>
4.56854

> <i_epik_Tot_Q>
1

> <i_epik_Tot_abs_Q>
1

> <r_epik_Metal_State_Penalty>
2.37048

> <b_epik_Metal_Only>
0

> <s_lp_Force_Field>
OPLS_2005

> <r_lp_Energy>
16.6962

> <b_lp_Chiralities_Consistent>
1

> <s_lp_Variant>
AV-unprocessed.smi:1380-2

> <Gold.Version>
5.8.1

> <Gold.Id.Protein>
6NUR|6NUR_protein|mol2

> <Gold.PLP.Fitness>
44.5791

> <Gold.PLP.PLP>
-33.4904

> <Gold.PLP.part.hbond>
-3.4684

> <Gold.PLP.part.metal>
0.0000

> <Gold.PLP.part.buried>
-2.9547

> <Gold.PLP.part.nonpolar>
-28.6823

> <Gold.PLP.part.repulsive>
1.6599

> <Gold.PLP.ligand.clash>
0.0000

> <Gold.PLP.ligand.torsion>
0.6045

> <Gold.PLP.Chemscore.Hbond>
3.9120

> <Gold.PLP.Chemscore.CHOScore>
0.0000

> <Gold.PLP.Chemscore.Metal>
0.0000

> <Gold.Chemscore.Hbonds>
donor molecule, donor type, donor heavy atom, donor atom, acceptor molecule, acceptor atom, score
      L1  H     3    17       P1 10175  1.00
      L1  H    10    34       P1 10186  1.95
      L1  H    12    26       P1 10175  0.94

> <Gold.PLP.Chemscore.Internal.Correction>
0.5617

> <Gold.Rescore>
     Score         DG    S(hbond)    S(metal)    S(lipo)     H(rot)  DE(clash)    DE(int)     intcor
     17.41     -18.44       2.74        0.00      72.02       1.80       0.49       0.55       ----

> <Gold.Chemscore.Fitness>
17.4062

> <Gold.Chemscore.DG>
-18.4437

> <Gold.Chemscore.ZeroCoef>
-5.4800

> <Gold.Chemscore.Hbond>
2.7417

> <Gold.Chemscore.Metal>
0.0000

> <Gold.Chemscore.Lipo>
72.0197

> <Gold.Chemscore.Internal_Hbond>
0.0000

> <Gold.Chemscore.DEClash>
0.4924

> <Gold.Chemscore.DEInternal>
0.5450

> <Gold.Chemscore.Rot>
1.8047

> <Gold.Chemscore.Internal.Correction>
   9.000000E+99

> <Gold.Chemscore.Hbonds>
donor molecule, donor type, donor heavy atom, donor atom, acceptor molecule, acceptor atom, score
      L1  H     3    17       P1 10175  0.99
      L1  H    10    34       P1 10186  0.92
      L1  H    12    26       P1 10175  0.45

> <Gold.Chemscore.Hbond.Weighted>
-9.1573

> <Gold.Chemscore.Metal.Weighted>
-0.0000

> <Gold.Chemscore.Lipo.Weighted>
-8.4263

> <Gold.Chemscore.Internal_Hbond.Weighted>
0.0000

> <Gold.Chemscore.DEClash.Weighted>
0.4924

> <Gold.Chemscore.DEInternal.Weighted>
0.5450

> <Gold.Chemscore.Rot.Weighted>
4.6199

> <Gold.Chemscore.Internal.Correction.Weighted>
   9.000000E+99

> <Gold.Protein.RotatedTorsions>
[ 6907 6896 6895 6894 ] final   81.68 input  -60.11 | X-H torsion
[ 7974 7965 7964 7962 ] final -162.12 input  175.53 | X-H torsion
[ 8008 7997 7996 7995 ] final  -27.83 input   59.86 | X-H torsion
[ 10167 10162 10161 10158 ] final  117.65 input  -65.29 | X-H torsion
[ 10718 10713 10712 10709 ] final   73.27 input   66.30 | X-H torsion
[ 10763 10752 10751 10750 ] final  -46.13 input  -60.55 | X-H torsion
[ 11005 11000 10999 10996 ] final  -49.42 input  -57.11 | X-H torsion

> <Gold.Protein.ActiveResidues>
 VAL166  LYS551  ARG553  GLY616  TRP617  ASP618  TYR619  PRO620  LYS621  CYS622 
 ASP623  PHE694  ASN695  SER759  ASP760  ASP761  ALA762  ILE779  LEU786  VAL792 
 PHE793  MET794  SER795  GLU796  ALA797  LYS798  CYS799  TRP800  GLU811  SER814 

> <Gold.Protein.RotatedAtoms>
  152.5276  134.3167  159.9133 H   0  0  0  0  0  0  0  0  0  0  0  0  # atno 6907 bound_to 6896
  151.3116  133.4071  159.2655 H   0  0  0  0  0  0  0  0  0  0  0  0  # atno 6908 bound_to 6896
  151.0033  134.9356  159.8023 H   0  0  0  0  0  0  0  0  0  0  0  0  # atno 6909 bound_to 6896
  144.7368  140.3299  143.6155 H   0  0  0  0  0  0  0  0  0  0  0  0  # atno 7974 bound_to 7965
  154.4359  140.1861  156.0994 H   0  0  0  0  0  0  0  0  0  0  0  0  # atno 8008 bound_to 7997
  156.0304  140.3331  155.7107 H   0  0  0  0  0  0  0  0  0  0  0  0  # atno 8009 bound_to 7997
  155.5848  140.0625  157.2765 H   0  0  0  0  0  0  0  0  0  0  0  0  # atno 8010 bound_to 7997
  139.6164  144.7093  151.2730 H   0  0  0  0  0  0  0  0  0  0  0  0  # atno 10167 bound_to 10162
  157.6540  130.9620  150.1046 H   0  0  0  0  0  0  0  0  0  0  0  0  # atno 10718 bound_to 10713
  154.0400  135.6645  153.4789 H   0  0  0  0  0  0  0  0  0  0  0  0  # atno 10763 bound_to 10752
  153.0505  135.5087  154.7851 H   0  0  0  0  0  0  0  0  0  0  0  0  # atno 10764 bound_to 10752
  154.6824  135.3047  154.9560 H   0  0  0  0  0  0  0  0  0  0  0  0  # atno 10765 bound_to 10752
  141.0758  133.6666  156.3583 H   0  0  0  0  0  0  0  0  0  0  0  0  # atno 11005 bound_to 11000
  145.7482  139.1785  143.2336 LP  0  0  0  0  0  0  0  0  0  0  0  0  # atno 17320 bound_to 7965
  146.1081  140.7462  142.9516 LP  0  0  0  0  0  0  0  0  0  0  0  0  # atno 17321 bound_to 7965
  140.7354  143.6739  150.8058 LP  0  0  0  0  0  0  0  0  0  0  0  0  # atno 17342 bound_to 10162
  140.0342  143.5412  152.2746 LP  0  0  0  0  0  0  0  0  0  0  0  0  # atno 17343 bound_to 10162
  156.1959  130.3657  149.8849 LP  0  0  0  0  0  0  0  0  0  0  0  0  # atno 17370 bound_to 10713
  156.6766  130.8841  151.3570 LP  0  0  0  0  0  0  0  0  0  0  0  0  # atno 17371 bound_to 10713
  140.5576  134.5966  157.5425 LP  0  0  0  0  0  0  0  0  0  0  0  0  # atno 17394 bound_to 11000
  139.9570  134.7517  156.0319 LP  0  0  0  0  0  0  0  0  0  0  0  0  # atno 17395 bound_to 11000

$$$$
