AV-unprocessed.smi:1759|AV-procd|sdf|7087|dock4
  -GOLD-   22720 8303D 1   1.00000     0.00000
 Structure written by MMmdl.
 31 32  0  0  0  0  0  0  0  0  1 V2000
  146.4690  139.2383  152.0994 C   0  0  0  0  0  0  0  0  0  0  0  0
  147.4708  139.7657  153.0679 C   0  0  0  0  0  0  0  0  0  0  0  0
  147.7474  141.0220  153.5289 C   0  0  0  0  0  0  0  0  0  0  0  0
  148.8201  140.8016  154.4330 C   0  0  0  0  0  0  0  0  0  0  0  0
  149.4064  141.8800  155.1430 N   0  0  0  0  0  0  0  0  0  0  0  0
  150.4108  141.8240  156.0337 C   0  0  0  0  0  0  0  0  0  0  0  0
  151.0124  140.8009  156.3615 O   0  0  0  0  0  0  0  0  0  0  0  0
  150.6905  143.0378  156.5291 N   0  0  0  0  0  0  0  0  0  0  0  0
  151.7446  143.3220  157.4957 C   0  0  0  0  0  0  0  0  0  0  0  0
  151.4394  144.5964  158.2996 C   0  0  2  0  0  0  0  0  0  0  0  0
  152.4279  144.8544  159.4361 C   0  0  0  0  0  0  0  0  0  0  0  0
  151.5842  145.6501  160.4051 C   0  0  0  0  0  0  0  0  0  0  0  0
  150.2351  144.9522  160.2767 C   0  0  0  0  0  0  0  0  0  0  0  0
  150.1624  144.4962  158.9288 O   0  0  0  0  0  0  0  0  0  0  0  0
  149.1677  139.5263  154.5158 N   0  0  0  0  0  0  0  0  0  0  0  0
  148.3046  138.8558  153.6410 O   0  0  0  0  0  0  0  0  0  0  0  0
  145.8543  140.0436  151.6970 H   0  0  0  0  0  0  0  0  0  0  0  0
  145.8088  138.5174  152.5818 H   0  0  0  0  0  0  0  0  0  0  0  0
  146.9634  138.7404  151.2653 H   0  0  0  0  0  0  0  0  0  0  0  0
  147.2589  141.9473  153.2615 H   0  0  0  0  0  0  0  0  0  0  0  0
  149.0143  142.7912  154.9578 H   0  0  0  0  0  0  0  0  0  0  0  0
  150.1508  143.8253  156.2009 H   0  0  0  0  0  0  0  0  0  0  0  0
  151.8369  142.4681  158.1672 H   0  0  0  0  0  0  0  0  0  0  0  0
  152.7043  143.4179  156.9846 H   0  0  0  0  0  0  0  0  0  0  0  0
  151.4219  145.4690  157.6445 H   0  0  0  0  0  0  0  0  0  0  0  0
  152.7392  143.9165  159.8987 H   0  0  0  0  0  0  0  0  0  0  0  0
  153.3211  145.3868  159.1083 H   0  0  0  0  0  0  0  0  0  0  0  0
  151.9746  145.6424  161.4231 H   0  0  0  0  0  0  0  0  0  0  0  0
  151.5066  146.6864  160.0735 H   0  0  0  0  0  0  0  0  0  0  0  0
  150.1924  144.0851  160.9369 H   0  0  0  0  0  0  0  0  0  0  0  0
  149.3998  145.6078  160.5241 H   0  0  0  0  0  0  0  0  0  0  0  0
  1  2  1  0  0  0  0
  1 17  1  0  0  0  0
  1 18  1  0  0  0  0
  1 19  1  0  0  0  0
  2 16  1  0  0  0  0
  2  3  2  0  0  0  0
  3  4  1  0  0  0  0
  3 20  1  0  0  0  0
  4  5  1  0  0  0  0
  4 15  2  0  0  0  0
  5  6  1  0  0  0  0
  5 21  1  0  0  0  0
  6  7  2  0  0  0  0
  6  8  1  0  0  0  0
  8  9  1  0  0  0  0
  8 22  1  0  0  0  0
  9 10  1  0  0  0  0
  9 23  1  0  0  0  0
  9 24  1  0  0  0  0
 10 14  1  0  0  0  0
 10 11  1  0  0  0  0
 10 25  1  0  0  0  0
 11 12  1  0  0  0  0
 11 26  1  0  0  0  0
 11 27  1  0  0  0  0
 12 13  1  0  0  0  0
 12 28  1  0  0  0  0
 12 29  1  0  0  0  0
 13 14  1  0  0  0  0
 13 30  1  0  0  0  0
 13 31  1  0  0  0  0
 15 16  1  0  0  0  0
M  END
> <s_m_source_file>
AV-unprocessed.smi

> <i_m_source_file_index>
1759

> <i_lp_mmshare_version>
43012

> <i_f3d_flags>
0

> <s_epik_input>
W0NIM11jMVtjSF1jKG5vMSlbTkhdQyg9TylbTkhdW0NIMl1bQ0BASF0yW0NIMl1bQ0gyXVtDSDJdTzI=

> <s_epik_cmdline>
J2VwaWtfcHl0aG9uJywgJy1waCcsICc3LjAnLCAnLXRuJywgJzgnLCAnLW1hJywgJzIwMCcsICctbWV0YWxfYmluZGluZycsICctaW1hZScsICc8aW5maWxlLm1hZT4nLCAnLW9tYWUnLCAnPG91dGZpbGUubWFlPic=

> <r_lp_tautomer_probability>
1

> <r_epik_Ionization_Penalty>
2.1743e-05

> <r_epik_Ionization_Penalty_Charging>
0

> <r_epik_Ionization_Penalty_Neutral>
2.1743e-05

> <r_epik_State_Penalty>
-0

> <r_epik_Charging_Adjusted_Penalty>
0

> <i_epik_Tot_Q>
0

> <i_epik_Tot_abs_Q>
0

> <r_epik_Metal_State_Penalty>
-0

> <b_epik_Metal_Only>
0

> <s_lp_Force_Field>
OPLS_2005

> <r_lp_Energy>
14.3546

> <b_lp_Chiralities_Consistent>
1

> <s_lp_Variant>
AV-unprocessed.smi:1759-1

> <Gold.Version>
5.8.1

> <Gold.Id.Protein>
6NUR|6NUR_protein|mol2

> <Gold.PLP.Fitness>
36.1155

> <Gold.PLP.PLP>
-30.8074

> <Gold.PLP.part.hbond>
-2.0000

> <Gold.PLP.part.metal>
0.0000

> <Gold.PLP.part.buried>
-1.6116

> <Gold.PLP.part.nonpolar>
-28.5971

> <Gold.PLP.part.repulsive>
1.7549

> <Gold.PLP.ligand.clash>
0.0000

> <Gold.PLP.ligand.torsion>
0.1906

> <Gold.PLP.Chemscore.Hbond>
1.8960

> <Gold.PLP.Chemscore.CHOScore>
0.0000

> <Gold.PLP.Chemscore.Metal>
0.0000

> <Gold.Chemscore.Hbonds>
donor molecule, donor type, donor heavy atom, donor atom, acceptor molecule, acceptor atom, score
      L1  H     5    21       P1  8028  0.87
      L1  H     8    22       P1  8028  1.00

> <Gold.PLP.Chemscore.Internal.Correction>
0.0013

> <Gold.Rescore>
     Score         DG    S(hbond)    S(metal)    S(lipo)     H(rot)  DE(clash)    DE(int)     intcor
     14.60     -18.17       1.89        0.00      82.75       1.30       2.14       1.43       ----

> <Gold.Chemscore.Fitness>
14.5986

> <Gold.Chemscore.DG>
-18.1667

> <Gold.Chemscore.ZeroCoef>
-5.4800

> <Gold.Chemscore.Hbond>
1.8934

> <Gold.Chemscore.Metal>
0.0000

> <Gold.Chemscore.Lipo>
82.7500

> <Gold.Chemscore.Internal_Hbond>
0.0000

> <Gold.Chemscore.DEClash>
2.1362

> <Gold.Chemscore.DEInternal>
1.4320

> <Gold.Chemscore.Rot>
1.2965

> <Gold.Chemscore.Internal.Correction>
   9.000000E+99

> <Gold.Chemscore.Hbonds>
donor molecule, donor type, donor heavy atom, donor atom, acceptor molecule, acceptor atom, score
      L1  H     5    21       P1  8028  0.80
      L1  H     8    22       P1  8028  0.99

> <Gold.Chemscore.Hbond.Weighted>
-6.3241

> <Gold.Chemscore.Metal.Weighted>
-0.0000

> <Gold.Chemscore.Lipo.Weighted>
-9.6818

> <Gold.Chemscore.Internal_Hbond.Weighted>
0.0000

> <Gold.Chemscore.DEClash.Weighted>
2.1362

> <Gold.Chemscore.DEInternal.Weighted>
1.4320

> <Gold.Chemscore.Rot.Weighted>
3.3192

> <Gold.Chemscore.Internal.Correction.Weighted>
   9.000000E+99

> <Gold.Protein.RotatedTorsions>
[ 6907 6896 6895 6894 ] final  -52.57 input  -60.11 | X-H torsion
[ 7974 7965 7964 7962 ] final  137.98 input  175.53 | X-H torsion
[ 8008 7997 7996 7995 ] final -123.49 input   59.86 | X-H torsion
[ 10167 10162 10161 10158 ] final  -94.93 input  -65.29 | X-H torsion
[ 10718 10713 10712 10709 ] final  157.87 input   66.30 | X-H torsion
[ 10763 10752 10751 10750 ] final   71.06 input  -60.55 | X-H torsion
[ 11005 11000 10999 10996 ] final -136.83 input  -57.11 | X-H torsion

> <Gold.Protein.ActiveResidues>
 VAL166  LYS551  ARG553  GLY616  TRP617  ASP618  TYR619  PRO620  LYS621  CYS622 
 ASP623  PHE694  ASN695  SER759  ASP760  ASP761  ALA762  ILE779  LEU786  VAL792 
 PHE793  MET794  SER795  GLU796  ALA797  LYS798  CYS799  TRP800  GLU811  SER814 

> <Gold.Protein.RotatedAtoms>
  150.8506  134.7829  159.7004 H   0  0  0  0  0  0  0  0  0  0  0  0  # atno 6907 bound_to 6896
  152.4571  134.5263  159.9807 H   0  0  0  0  0  0  0  0  0  0  0  0  # atno 6908 bound_to 6896
  151.5385  133.3399  159.2967 H   0  0  0  0  0  0  0  0  0  0  0  0  # atno 6909 bound_to 6896
  144.9416  139.4924  143.5569 H   0  0  0  0  0  0  0  0  0  0  0  0  # atno 7974 bound_to 7965
  155.1814  140.0410  157.2883 H   0  0  0  0  0  0  0  0  0  0  0  0  # atno 8008 bound_to 7997
  154.6201  140.2498  155.7533 H   0  0  0  0  0  0  0  0  0  0  0  0  # atno 8009 bound_to 7997
  156.2428  140.2897  156.0504 H   0  0  0  0  0  0  0  0  0  0  0  0  # atno 8010 bound_to 7997
  140.3094  143.3114  152.0164 H   0  0  0  0  0  0  0  0  0  0  0  0  # atno 10167 bound_to 10162
  157.1857  131.0643  151.2107 H   0  0  0  0  0  0  0  0  0  0  0  0  # atno 10718 bound_to 10713
  153.0377  135.5151  154.7536 H   0  0  0  0  0  0  0  0  0  0  0  0  # atno 10763 bound_to 10752
  154.6499  135.2923  155.0002 H   0  0  0  0  0  0  0  0  0  0  0  0  # atno 10764 bound_to 10752
  154.0890  135.6653  153.4902 H   0  0  0  0  0  0  0  0  0  0  0  0  # atno 10765 bound_to 10752
  140.8768  134.1981  157.4616 H   0  0  0  0  0  0  0  0  0  0  0  0  # atno 11005 bound_to 11000
  146.3288  139.8439  142.8885 LP  0  0  0  0  0  0  0  0  0  0  0  0  # atno 17320 bound_to 7965
  145.2982  141.0187  143.3624 LP  0  0  0  0  0  0  0  0  0  0  0  0  # atno 17321 bound_to 7965
  139.4897  144.6396  151.6905 LP  0  0  0  0  0  0  0  0  0  0  0  0  # atno 17342 bound_to 10162
  140.5581  144.0314  150.6157 LP  0  0  0  0  0  0  0  0  0  0  0  0  # atno 17343 bound_to 10162
  157.3910  130.7282  149.6697 LP  0  0  0  0  0  0  0  0  0  0  0  0  # atno 17370 bound_to 10713
  155.9718  130.4146  150.4142 LP  0  0  0  0  0  0  0  0  0  0  0  0  # atno 17371 bound_to 10713
  139.8716  134.9799  156.5056 LP  0  0  0  0  0  0  0  0  0  0  0  0  # atno 17394 bound_to 11000
  140.8508  133.8133  155.9167 LP  0  0  0  0  0  0  0  0  0  0  0  0  # atno 17395 bound_to 11000

$$$$
