AV-unprocessed.smi:1742|AV-procd|sdf|7020|dock7
  -GOLD-   22720 8233D 1   1.00000     0.00000
 Structure written by MMmdl.
 34 35  0  0  0  0  0  0  0  0  1 V2000
  145.6132  132.0168  149.8196 C   0  0  0  0  0  0  0  0  0  0  0  0
  144.1911  132.5299  150.0759 C   0  0  0  0  0  0  0  0  0  0  0  0
  144.1891  133.7298  150.8898 N   0  0  0  0  0  0  0  0  0  0  0  0
  144.8328  134.9269  150.6466 C   0  0  0  0  0  0  0  0  0  0  0  0
  144.5196  135.7355  151.7025 C   0  0  0  0  0  0  0  0  0  0  0  0
  144.9116  137.0732  151.9594 N   0  0  0  0  0  0  0  0  0  0  0  0
  145.6949  137.5217  152.9587 C   0  0  0  0  0  0  0  0  0  0  0  0
  146.1969  136.8065  153.8235 O   0  0  0  0  0  0  0  0  0  0  0  0
  145.8912  138.8527  152.9553 N   0  0  0  0  0  0  0  0  0  0  0  0
  146.6815  139.6551  153.8906 C   0  0  2  0  0  0  0  0  0  0  0  0
  147.1035  140.9905  153.2499 C   0  0  0  0  0  0  0  0  0  0  0  0
  148.2008  141.6278  154.1118 C   0  0  0  0  0  0  0  0  0  0  0  0
  149.1130  140.2384  154.8851 S   0  0  0  0  0  0  0  0  0  0  0  0
  150.4070  140.0580  154.2099 O   0  0  0  0  0  0  0  0  0  0  0  0
  149.0337  140.3736  156.3474 O   0  0  0  0  0  0  0  0  0  0  0  0
  147.9607  138.9260  154.3335 C   0  0  0  0  0  0  0  0  0  0  0  0
  143.6819  134.9624  152.5475 C   0  0  0  0  0  0  0  0  0  0  0  0
  143.4862  133.7510  152.0495 N   0  0  0  0  0  0  0  0  0  0  0  0
  145.5958  131.1252  149.1929 H   0  0  0  0  0  0  0  0  0  0  0  0
  146.1141  131.7569  150.7526 H   0  0  0  0  0  0  0  0  0  0  0  0
  146.2176  132.7690  149.3120 H   0  0  0  0  0  0  0  0  0  0  0  0
  143.6953  132.7497  149.1297 H   0  0  0  0  0  0  0  0  0  0  0  0
  143.5951  131.7651  150.5757 H   0  0  0  0  0  0  0  0  0  0  0  0
  145.4375  135.0845  149.7657 H   0  0  0  0  0  0  0  0  0  0  0  0
  144.5546  137.7657  151.3175 H   0  0  0  0  0  0  0  0  0  0  0  0
  145.4152  139.3703  152.2304 H   0  0  0  0  0  0  0  0  0  0  0  0
  146.0852  139.8918  154.7738 H   0  0  0  0  0  0  0  0  0  0  0  0
  147.5110  140.7987  152.2561 H   0  0  0  0  0  0  0  0  0  0  0  0
  146.2559  141.6645  153.1208 H   0  0  0  0  0  0  0  0  0  0  0  0
  148.8831  142.2539  153.5366 H   0  0  0  0  0  0  0  0  0  0  0  0
  147.7659  142.2294  154.9103 H   0  0  0  0  0  0  0  0  0  0  0  0
  147.7948  138.2112  155.1396 H   0  0  0  0  0  0  0  0  0  0  0  0
  148.4271  138.4047  153.4967 H   0  0  0  0  0  0  0  0  0  0  0  0
  143.2190  135.2334  153.4850 H   0  0  0  0  0  0  0  0  0  0  0  0
  1  2  1  0  0  0  0
  1 19  1  0  0  0  0
  1 20  1  0  0  0  0
  1 21  1  0  0  0  0
  2  3  1  0  0  0  0
  2 22  1  0  0  0  0
  2 23  1  0  0  0  0
  3 18  1  0  0  0  0
  3  4  1  0  0  0  0
  4  5  2  0  0  0  0
  4 24  1  0  0  0  0
  5  6  1  0  0  0  0
  5 17  1  0  0  0  0
  6  7  1  0  0  0  0
  6 25  1  0  0  0  0
  7  8  2  0  0  0  0
  7  9  1  0  0  0  0
  9 10  1  0  0  0  0
  9 26  1  0  0  0  0
 10 16  1  0  0  0  0
 10 11  1  0  0  0  0
 10 27  1  0  0  0  0
 11 12  1  0  0  0  0
 11 28  1  0  0  0  0
 11 29  1  0  0  0  0
 12 13  1  0  0  0  0
 12 30  1  0  0  0  0
 12 31  1  0  0  0  0
 13 14  2  0  0  0  0
 13 15  2  0  0  0  0
 13 16  1  0  0  0  0
 16 32  1  0  0  0  0
 16 33  1  0  0  0  0
 17 18  2  0  0  0  0
 17 34  1  0  0  0  0
M  END
> <s_m_source_file>
AV-unprocessed.smi

> <i_m_source_file_index>
1742

> <i_lp_mmshare_version>
43012

> <i_f3d_flags>
0

> <s_epik_input>
W0NIM11bQ0gyXW4xW2NIXWMoW2NIXW4xKVtOSF1DKD1PKVtOSF1bQ0BASF0oW0NIMl0yKVtDSDJdW0NIMl1TMig9Tyk9Tw==

> <s_epik_cmdline>
J2VwaWtfcHl0aG9uJywgJy1waCcsICc3LjAnLCAnLXRuJywgJzgnLCAnLW1hJywgJzIwMCcsICctbWV0YWxfYmluZGluZycsICctaW1hZScsICc8aW5maWxlLm1hZT4nLCAnLW9tYWUnLCAnPG91dGZpbGUubWFlPic=

> <r_lp_tautomer_probability>
1

> <r_epik_Ionization_Penalty>
0.000152028

> <r_epik_Ionization_Penalty_Charging>
0

> <r_epik_Ionization_Penalty_Neutral>
0.000152028

> <r_epik_State_Penalty>
-0

> <r_epik_Charging_Adjusted_Penalty>
0

> <i_epik_Tot_Q>
0

> <i_epik_Tot_abs_Q>
0

> <r_epik_Metal_State_Penalty>
-0

> <b_epik_Metal_Only>
0

> <s_lp_Force_Field>
OPLS_2005

> <r_lp_Energy>
18.8919

> <b_lp_Chiralities_Consistent>
1

> <s_lp_Variant>
AV-unprocessed.smi:1742-1

> <Gold.Version>
5.8.1

> <Gold.Id.Protein>
6NUR|6NUR_protein|mol2

> <Gold.PLP.Fitness>
41.6089

> <Gold.PLP.PLP>
-32.7985

> <Gold.PLP.part.hbond>
-3.0000

> <Gold.PLP.part.metal>
0.0000

> <Gold.PLP.part.buried>
-6.2382

> <Gold.PLP.part.nonpolar>
-24.2813

> <Gold.PLP.part.repulsive>
1.0011

> <Gold.PLP.ligand.clash>
0.0000

> <Gold.PLP.ligand.torsion>
0.9590

> <Gold.PLP.Chemscore.Hbond>
2.5760

> <Gold.PLP.Chemscore.CHOScore>
1.0000

> <Gold.PLP.Chemscore.Metal>
0.0000

> <Gold.Chemscore.Hbonds>
donor molecule, donor type, donor heavy atom, donor atom, acceptor molecule, acceptor atom, score
      L1  H     6    25       P1 10171  1.00
      L1  H     9    26       P1 10175  0.49
      P1  H  7989  7998       L1    14  1.00
      L1  C     4    24       P1  7921  1.00

> <Gold.PLP.Chemscore.Internal.Correction>
0.0003

> <Gold.Rescore>
     Score         DG    S(hbond)    S(metal)    S(lipo)     H(rot)  DE(clash)    DE(int)     intcor
     16.12     -18.51       2.81        0.00      58.73       1.26       0.00       2.39       ----

> <Gold.Chemscore.Fitness>
16.1224

> <Gold.Chemscore.DG>
-18.5079

> <Gold.Chemscore.ZeroCoef>
-5.4800

> <Gold.Chemscore.Hbond>
2.8056

> <Gold.Chemscore.Metal>
0.0000

> <Gold.Chemscore.Lipo>
58.7281

> <Gold.Chemscore.Internal_Hbond>
0.0000

> <Gold.Chemscore.DEClash>
0.0000

> <Gold.Chemscore.DEInternal>
2.3855

> <Gold.Chemscore.Rot>
1.2554

> <Gold.Chemscore.Internal.Correction>
   9.000000E+99

> <Gold.Chemscore.Hbonds>
donor molecule, donor type, donor heavy atom, donor atom, acceptor molecule, acceptor atom, score
      L1  H     6    25       P1 10171  1.00
      L1  H     9    26       P1 10175  0.48
      P1  H  7989  7998       L1    14  0.98

> <Gold.Chemscore.Hbond.Weighted>
-9.3706

> <Gold.Chemscore.Metal.Weighted>
-0.0000

> <Gold.Chemscore.Lipo.Weighted>
-6.8712

> <Gold.Chemscore.Internal_Hbond.Weighted>
0.0000

> <Gold.Chemscore.DEClash.Weighted>
0.0000

> <Gold.Chemscore.DEInternal.Weighted>
2.3855

> <Gold.Chemscore.Rot.Weighted>
3.2139

> <Gold.Chemscore.Internal.Correction.Weighted>
   9.000000E+99

> <Gold.Protein.RotatedTorsions>
[ 6907 6896 6895 6894 ] final  -54.36 input  -60.11 | X-H torsion
[ 7974 7965 7964 7962 ] final   72.60 input  175.53 | X-H torsion
[ 8008 7997 7996 7995 ] final   -1.44 input   59.86 | X-H torsion
[ 10167 10162 10161 10158 ] final   68.22 input  -65.29 | X-H torsion
[ 10718 10713 10712 10709 ] final   47.69 input   66.30 | X-H torsion
[ 10763 10752 10751 10750 ] final  166.38 input  -60.55 | X-H torsion
[ 11005 11000 10999 10996 ] final  -19.23 input  -57.11 | X-H torsion

> <Gold.Protein.ActiveResidues>
 VAL166  LYS551  ARG553  GLY616  TRP617  ASP618  TYR619  PRO620  LYS621  CYS622 
 ASP623  PHE694  ASN695  SER759  ASP760  ASP761  ALA762  ILE779  LEU786  VAL792 
 PHE793  MET794  SER795  GLU796  ALA797  LYS798  CYS799  TRP800  GLU811  SER814 

> <Gold.Protein.RotatedAtoms>
  150.8345  134.7612  159.6880 H   0  0  0  0  0  0  0  0  0  0  0  0  # atno 6907 bound_to 6896
  152.4444  134.5522  159.9880 H   0  0  0  0  0  0  0  0  0  0  0  0  # atno 6908 bound_to 6896
  151.5676  133.3357  159.3019 H   0  0  0  0  0  0  0  0  0  0  0  0  # atno 6909 bound_to 6896
  145.7514  139.2761  143.1429 H   0  0  0  0  0  0  0  0  0  0  0  0  # atno 7974 bound_to 7965
  154.6467  140.2559  155.7260 H   0  0  0  0  0  0  0  0  0  0  0  0  # atno 8008 bound_to 7997
  156.2555  140.2876  156.0805 H   0  0  0  0  0  0  0  0  0  0  0  0  # atno 8009 bound_to 7997
  155.1513  140.0382  157.2812 H   0  0  0  0  0  0  0  0  0  0  0  0  # atno 8010 bound_to 7997
  140.0810  144.5071  150.7162 H   0  0  0  0  0  0  0  0  0  0  0  0  # atno 10167 bound_to 10162
  157.4610  130.8196  149.7887 H   0  0  0  0  0  0  0  0  0  0  0  0  # atno 10718 bound_to 10713
  154.3381  135.2754  155.2437 H   0  0  0  0  0  0  0  0  0  0  0  0  # atno 10763 bound_to 10752
  154.4719  135.5881  153.6331 H   0  0  0  0  0  0  0  0  0  0  0  0  # atno 10764 bound_to 10752
  152.9860  135.6090  154.3580 H   0  0  0  0  0  0  0  0  0  0  0  0  # atno 10765 bound_to 10752
  140.8346  133.7971  155.9795 H   0  0  0  0  0  0  0  0  0  0  0  0  # atno 11005 bound_to 11000
  146.0353  140.8218  142.9856 LP  0  0  0  0  0  0  0  0  0  0  0  0  # atno 17320 bound_to 7965
  144.6849  140.2829  143.7289 LP  0  0  0  0  0  0  0  0  0  0  0  0  # atno 17321 bound_to 7965
  140.7078  143.2481  151.4674 LP  0  0  0  0  0  0  0  0  0  0  0  0  # atno 17342 bound_to 10162
  139.5780  144.1775  152.1929 LP  0  0  0  0  0  0  0  0  0  0  0  0  # atno 17343 bound_to 10162
  156.0029  130.3871  150.2539 LP  0  0  0  0  0  0  0  0  0  0  0  0  # atno 17370 bound_to 10713
  157.0716  131.0118  151.3188 LP  0  0  0  0  0  0  0  0  0  0  0  0  # atno 17371 bound_to 10713
  140.8961  134.2436  157.5068 LP  0  0  0  0  0  0  0  0  0  0  0  0  # atno 17394 bound_to 11000
  139.8704  134.9684  156.4631 LP  0  0  0  0  0  0  0  0  0  0  0  0  # atno 17395 bound_to 11000

$$$$
