AV-unprocessed.smi:2390|AV-procd|sdf|9475|dock8
  -GOLD-   2272013103D 1   1.00000     0.00000
 Structure written by MMmdl.
 45 46  0  0  0  0  0  0  0  0  1 V2000
  138.1971  136.8140  155.0554 C   0  0  0  0  0  0  0  0  0  0  0  0
  139.5446  136.9438  154.3771 C   0  0  0  0  0  0  0  0  0  0  0  0
  140.0149  138.1953  153.9335 C   0  0  0  0  0  0  0  0  0  0  0  0
  141.2767  138.2480  153.3150 C   0  0  0  0  0  0  0  0  0  0  0  0
  142.0120  137.0561  153.1682 C   0  0  0  0  0  0  0  0  0  0  0  0
  141.4681  135.8410  153.6422 C   0  0  0  0  0  0  0  0  0  0  0  0
  142.2914  134.6991  153.4548 N   0  0  0  0  0  0  0  0  0  0  0  0
  143.2317  134.4972  152.5150 C   0  0  0  0  0  0  0  0  0  0  0  0
  143.5796  135.3182  151.6655 O   0  0  0  0  0  0  0  0  0  0  0  0
  143.7630  133.2702  152.6199 N   0  0  0  0  0  0  0  0  0  0  0  0
  144.8112  132.7206  151.7606 C   0  0  2  0  0  0  0  0  0  0  0  0
  144.1932  132.3491  150.4010 C   0  0  0  0  0  0  0  0  0  0  0  0
  145.5649  131.5338  152.4454 C   0  0  1  0  0  0  0  0  0  0  0  0
  145.9818  130.4861  151.3798 C   0  0  0  0  0  0  0  0  0  0  0  0
  146.6910  131.9581  153.3115 N   0  0  0  0  0  0  0  0  0  0  0  0
  147.4699  130.8272  153.8295 C   0  0  0  0  0  0  0  0  0  0  0  0
  148.6506  131.2707  154.7109 C   0  0  0  0  0  0  0  0  0  0  0  0
  149.4915  132.1543  153.9818 O   0  0  0  0  0  0  0  0  0  0  0  0
  148.7909  133.3032  153.5261 C   0  0  0  0  0  0  0  0  0  0  0  0
  147.6168  132.8704  152.6313 C   0  0  0  0  0  0  0  0  0  0  0  0
  140.2496  135.8005  154.2365 N   0  0  0  0  0  0  0  0  0  0  0  0
  137.6065  137.7229  154.9378 H   0  0  0  0  0  0  0  0  0  0  0  0
  138.3283  136.6272  156.1214 H   0  0  0  0  0  0  0  0  0  0  0  0
  137.6315  135.9852  154.6281 H   0  0  0  0  0  0  0  0  0  0  0  0
  139.4272  139.0924  154.0631 H   0  0  0  0  0  0  0  0  0  0  0  0
  141.6755  139.1868  152.9600 H   0  0  0  0  0  0  0  0  0  0  0  0
  142.9840  137.0796  152.6968 H   0  0  0  0  0  0  0  0  0  0  0  0
  142.1342  133.9406  154.1015 H   0  0  0  0  0  0  0  0  0  0  0  0
  143.4174  132.6655  153.3505 H   0  0  0  0  0  0  0  0  0  0  0  0
  145.5022  133.5439  151.5837 H   0  0  0  0  0  0  0  0  0  0  0  0
  144.9492  131.9774  149.7092 H   0  0  0  0  0  0  0  0  0  0  0  0
  143.7287  133.2183  149.9345 H   0  0  0  0  0  0  0  0  0  0  0  0
  143.4254  131.5815  150.5000 H   0  0  0  0  0  0  0  0  0  0  0  0
  144.8358  131.0362  153.0870 H   0  0  0  0  0  0  0  0  0  0  0  0
  145.1757  130.2482  150.6870 H   0  0  0  0  0  0  0  0  0  0  0  0
  146.2585  129.5348  151.8330 H   0  0  0  0  0  0  0  0  0  0  0  0
  146.8301  130.8325  150.7891 H   0  0  0  0  0  0  0  0  0  0  0  0
  146.8482  130.1768  154.4412 H   0  0  0  0  0  0  0  0  0  0  0  0
  147.8424  130.2236  153.0004 H   0  0  0  0  0  0  0  0  0  0  0  0
  148.2920  131.7617  155.6169 H   0  0  0  0  0  0  0  0  0  0  0  0
  149.2335  130.4048  155.0256 H   0  0  0  0  0  0  0  0  0  0  0  0
  148.4345  133.8847  154.3781 H   0  0  0  0  0  0  0  0  0  0  0  0
  149.4775  133.9405  152.9688 H   0  0  0  0  0  0  0  0  0  0  0  0
  148.0054  132.3974  151.7282 H   0  0  0  0  0  0  0  0  0  0  0  0
  147.1018  133.7771  152.3184 H   0  0  0  0  0  0  0  0  0  0  0  0
  1  2  1  0  0  0  0
  1 22  1  0  0  0  0
  1 23  1  0  0  0  0
  1 24  1  0  0  0  0
  2 21  1  0  0  0  0
  2  3  2  0  0  0  0
  3  4  1  0  0  0  0
  3 25  1  0  0  0  0
  4  5  2  0  0  0  0
  4 26  1  0  0  0  0
  5  6  1  0  0  0  0
  5 27  1  0  0  0  0
  6  7  1  0  0  0  0
  6 21  2  0  0  0  0
  7  8  1  0  0  0  0
  7 28  1  0  0  0  0
  8  9  2  0  0  0  0
  8 10  1  0  0  0  0
 10 11  1  0  0  0  0
 10 29  1  0  0  0  0
 11 12  1  0  0  0  0
 11 13  1  0  0  0  0
 11 30  1  0  0  0  0
 12 31  1  0  0  0  0
 12 32  1  0  0  0  0
 12 33  1  0  0  0  0
 13 14  1  0  0  0  0
 13 15  1  0  0  0  0
 13 34  1  0  0  0  0
 14 35  1  0  0  0  0
 14 36  1  0  0  0  0
 14 37  1  0  0  0  0
 15 20  1  0  0  0  0
 15 16  1  0  0  0  0
 16 17  1  0  0  0  0
 16 38  1  0  0  0  0
 16 39  1  0  0  0  0
 17 18  1  0  0  0  0
 17 40  1  0  0  0  0
 17 41  1  0  0  0  0
 18 19  1  0  0  0  0
 19 20  1  0  0  0  0
 19 42  1  0  0  0  0
 19 43  1  0  0  0  0
 20 44  1  0  0  0  0
 20 45  1  0  0  0  0
M  END
> <s_m_source_file>
AV-unprocessed.smi

> <i_m_source_file_index>
2390

> <i_lp_mmshare_version>
43012

> <i_f3d_flags>
0

> <s_epik_input>
W0NIM11jMVtjSF1bY0hdW2NIXWMobjEpW05IXUMoPU8pW05IXVtDQEhdKFtDSDNdKVtDQEhdKFtDSDNdKU4yW0NIMl1bQ0gyXU9bQ0gyXVtDSDJdMg==

> <s_epik_cmdline>
J2VwaWtfcHl0aG9uJywgJy1waCcsICc3LjAnLCAnLXRuJywgJzgnLCAnLW1hJywgJzIwMCcsICctbWV0YWxfYmluZGluZycsICctaW1hZScsICc8aW5maWxlLm1hZT4nLCAnLW9tYWUnLCAnPG91dGZpbGUubWFlPic=

> <r_epik_Ionization_Penalty>
0.266074

> <r_epik_Ionization_Penalty_Charging>
0

> <r_epik_Ionization_Penalty_Neutral>
0.266074

> <r_epik_State_Penalty>
0.257924

> <r_epik_Charging_Adjusted_Penalty>
0.257924

> <i_epik_Tot_Q>
0

> <i_epik_Tot_abs_Q>
0

> <r_epik_Metal_State_Penalty>
0.257919

> <b_epik_Metal_Only>
0

> <s_lp_Force_Field>
OPLS_2005

> <r_lp_Energy>
33.31

> <b_lp_Chiralities_Consistent>
1

> <s_lp_Variant>
AV-unprocessed.smi:2390-3

> <Gold.Version>
5.8.1

> <Gold.Id.Protein>
6NUR|6NUR_protein|mol2

> <Gold.PLP.Fitness>
42.0317

> <Gold.PLP.PLP>
-37.8548

> <Gold.PLP.part.hbond>
-2.3179

> <Gold.PLP.part.metal>
0.0000

> <Gold.PLP.part.buried>
-6.9659

> <Gold.PLP.part.nonpolar>
-29.6359

> <Gold.PLP.part.repulsive>
0.5357

> <Gold.PLP.ligand.clash>
0.0000

> <Gold.PLP.ligand.torsion>
1.3369

> <Gold.PLP.Chemscore.Hbond>
2.2538

> <Gold.PLP.Chemscore.CHOScore>
0.0000

> <Gold.PLP.Chemscore.Metal>
0.0000

> <Gold.Chemscore.Hbonds>
donor molecule, donor type, donor heavy atom, donor atom, acceptor molecule, acceptor atom, score
      L1  H     7    28       P1 10957  0.25
      L1  H    10    29       P1 10957  1.00
      P1  H 11000 11005       L1    21  0.99

> <Gold.PLP.Chemscore.Internal.Correction>
0.0895

> <Gold.Rescore>
     Score         DG    S(hbond)    S(metal)    S(lipo)     H(rot)  DE(clash)    DE(int)     intcor
     15.51     -17.92       2.07        0.00      78.85       1.44       0.03       2.38       ----

> <Gold.Chemscore.Fitness>
15.5130

> <Gold.Chemscore.DG>
-17.9230

> <Gold.Chemscore.ZeroCoef>
-5.4800

> <Gold.Chemscore.Hbond>
2.0668

> <Gold.Chemscore.Metal>
0.0000

> <Gold.Chemscore.Lipo>
78.8484

> <Gold.Chemscore.Internal_Hbond>
0.0000

> <Gold.Chemscore.DEClash>
0.0276

> <Gold.Chemscore.DEInternal>
2.3824

> <Gold.Chemscore.Rot>
1.4396

> <Gold.Chemscore.Internal.Correction>
   9.000000E+99

> <Gold.Chemscore.Hbonds>
donor molecule, donor type, donor heavy atom, donor atom, acceptor molecule, acceptor atom, score
      L1  H     7    28       P1 10957  0.25
      L1  H    10    29       P1 10957  0.40
      P1  H 11000 11005       L1    21  0.65

> <Gold.Chemscore.Hbond.Weighted>
-6.9032

> <Gold.Chemscore.Metal.Weighted>
-0.0000

> <Gold.Chemscore.Lipo.Weighted>
-9.2253

> <Gold.Chemscore.Internal_Hbond.Weighted>
0.0000

> <Gold.Chemscore.DEClash.Weighted>
0.0276

> <Gold.Chemscore.DEInternal.Weighted>
2.3824

> <Gold.Chemscore.Rot.Weighted>
3.6855

> <Gold.Chemscore.Internal.Correction.Weighted>
   9.000000E+99

> <Gold.Protein.RotatedTorsions>
[ 6907 6896 6895 6894 ] final  -51.19 input  -60.11 | X-H torsion
[ 7974 7965 7964 7962 ] final  168.30 input  175.53 | X-H torsion
[ 8008 7997 7996 7995 ] final  -10.78 input   59.86 | X-H torsion
[ 10167 10162 10161 10158 ] final  -65.39 input  -65.29 | X-H torsion
[ 10718 10713 10712 10709 ] final  -89.71 input   66.30 | X-H torsion
[ 10763 10752 10751 10750 ] final  120.59 input  -60.55 | X-H torsion
[ 11005 11000 10999 10996 ] final   58.56 input  -57.11 | X-H torsion

> <Gold.Protein.ActiveResidues>
 VAL166  LYS551  ARG553  GLY616  TRP617  ASP618  TYR619  PRO620  LYS621  CYS622 
 ASP623  PHE694  ASN695  SER759  ASP760  ASP761  ALA762  ILE779  LEU786  VAL792 
 PHE793  MET794  SER795  GLU796  ALA797  LYS798  CYS799  TRP800  GLU811  SER814 

> <Gold.Protein.RotatedAtoms>
  150.8635  134.7992  159.7100 H   0  0  0  0  0  0  0  0  0  0  0  0  # atno 6907 bound_to 6896
  152.4664  134.5062  159.9749 H   0  0  0  0  0  0  0  0  0  0  0  0  # atno 6908 bound_to 6896
  151.5162  133.3437  159.2929 H   0  0  0  0  0  0  0  0  0  0  0  0  # atno 6909 bound_to 6896
  144.7393  139.8888  143.6401 H   0  0  0  0  0  0  0  0  0  0  0  0  # atno 7974 bound_to 7965
  154.5524  140.2320  155.8464 H   0  0  0  0  0  0  0  0  0  0  0  0  # atno 8008 bound_to 7997
  156.1958  140.3065  155.9385 H   0  0  0  0  0  0  0  0  0  0  0  0  # atno 8009 bound_to 7997
  155.3045  140.0432  157.3022 H   0  0  0  0  0  0  0  0  0  0  0  0  # atno 8010 bound_to 7997
  140.5733  143.2319  151.6493 H   0  0  0  0  0  0  0  0  0  0  0  0  # atno 10167 bound_to 10162
  155.9985  130.4882  150.5212 H   0  0  0  0  0  0  0  0  0  0  0  0  # atno 10718 bound_to 10713
  153.6009  135.3448  155.2945 H   0  0  0  0  0  0  0  0  0  0  0  0  # atno 10763 bound_to 10752
  154.8636  135.4227  154.2413 H   0  0  0  0  0  0  0  0  0  0  0  0  # atno 10764 bound_to 10752
  153.3242  135.7040  153.7075 H   0  0  0  0  0  0  0  0  0  0  0  0  # atno 10765 bound_to 10752
  140.0368  134.5931  155.9434 H   0  0  0  0  0  0  0  0  0  0  0  0  # atno 11005 bound_to 11000
  146.1157  139.4168  143.0260 LP  0  0  0  0  0  0  0  0  0  0  0  0  # atno 17320 bound_to 7965
  145.7378  141.0019  143.1317 LP  0  0  0  0  0  0  0  0  0  0  0  0  # atno 17321 bound_to 7965
  139.5129  144.3460  152.0696 LP  0  0  0  0  0  0  0  0  0  0  0  0  # atno 17342 bound_to 10162
  140.2600  144.4077  150.6189 LP  0  0  0  0  0  0  0  0  0  0  0  0  # atno 17343 bound_to 10162
  157.3173  131.0675  151.1957 LP  0  0  0  0  0  0  0  0  0  0  0  0  # atno 17370 bound_to 10713
  157.2882  130.6783  149.6101 LP  0  0  0  0  0  0  0  0  0  0  0  0  # atno 17371 bound_to 10713
  141.1862  133.6556  156.5228 LP  0  0  0  0  0  0  0  0  0  0  0  0  # atno 17394 bound_to 11000
  140.4134  134.7252  157.4849 LP  0  0  0  0  0  0  0  0  0  0  0  0  # atno 17395 bound_to 11000

$$$$
