AV-unprocessed.smi:1352|AV-procd|sdf|5531|dock7
  -GOLD-   22720 5123D 1   1.00000     0.00000
 Structure written by MMmdl.
 47 48  0  0  0  0  0  0  0  0  2 V2000
  146.9422  135.1163  153.8516 C   0  0  0  0  0  0  0  0  0  0  0  0
  147.6231  134.9694  155.2237 C   0  0  1  0  0  0  0  0  0  0  0  0
  148.3019  133.6003  155.4135 C   0  0  0  0  0  0  0  0  0  0  0  0
  149.6043  133.4930  154.6004 C   0  0  2  0  0  0  0  0  0  0  0  0
  150.3076  132.1508  154.8468 C   0  0  0  0  0  0  0  0  0  0  0  0
  150.5322  134.6815  154.9178 C   0  0  0  0  0  0  0  0  0  0  0  0
  149.8513  135.9803  154.6793 N   0  3  2  0  0  0  0  0  0  0  0  0
  150.7753  137.1340  154.8182 C   0  0  0  0  0  0  0  0  0  0  0  0
  150.1983  138.4241  154.2035 C   0  0  0  0  0  0  0  0  0  0  0  0
  149.7351  139.3488  155.2313 N   0  0  0  0  0  0  0  0  0  0  0  0
  150.5110  140.2349  155.8740 C   0  0  0  0  0  0  0  0  0  0  0  0
  151.7221  140.3359  155.6733 O   0  0  0  0  0  0  0  0  0  0  0  0
  149.8065  141.1203  156.9121 C   0  0  0  0  0  0  0  0  0  0  0  0
  150.7380  141.7864  157.8379 N   0  0  0  0  0  0  0  0  0  0  0  0
  150.7788  143.1945  157.8050 C   0  0  0  0  0  0  0  0  0  0  0  0
  151.5901  143.9003  158.6087 C   0  0  0  0  0  0  0  0  0  0  0  0
  152.4389  143.1779  159.5262 C   0  0  0  0  0  0  0  0  0  0  0  0
  152.4055  141.8311  159.5681 C   0  0  0  0  0  0  0  0  0  0  0  0
  151.5178  141.0558  158.6937 C   0  0  0  0  0  0  0  0  0  0  0  0
  151.4768  139.8256  158.7281 O   0  0  0  0  0  0  0  0  0  0  0  0
  148.6204  136.1107  155.5048 C   0  0  0  0  0  0  0  0  0  0  0  0
  147.6612  135.0913  153.0329 H   0  0  0  0  0  0  0  0  0  0  0  0
  146.4019  136.0609  153.7841 H   0  0  0  0  0  0  0  0  0  0  0  0
  146.2211  134.3158  153.6843 H   0  0  0  0  0  0  0  0  0  0  0  0
  146.8281  135.0408  155.9671 H   0  0  0  0  0  0  0  0  0  0  0  0
  148.5268  133.4605  156.4719 H   0  0  0  0  0  0  0  0  0  0  0  0
  147.6154  132.7974  155.1410 H   0  0  0  0  0  0  0  0  0  0  0  0
  149.3526  133.5337  153.5401 H   0  0  0  0  0  0  0  0  0  0  0  0
  150.5987  132.0400  155.8917 H   0  0  0  0  0  0  0  0  0  0  0  0
  151.2085  132.0618  154.2390 H   0  0  0  0  0  0  0  0  0  0  0  0
  149.6561  131.3142  154.5925 H   0  0  0  0  0  0  0  0  0  0  0  0
  150.8734  134.6346  155.9535 H   0  0  0  0  0  0  0  0  0  0  0  0
  151.4209  134.6159  154.2885 H   0  0  0  0  0  0  0  0  0  0  0  0
  151.0286  137.2826  155.8690 H   0  0  0  0  0  0  0  0  0  0  0  0
  151.7108  136.9012  154.3077 H   0  0  0  0  0  0  0  0  0  0  0  0
  150.9419  138.9128  153.5713 H   0  0  0  0  0  0  0  0  0  0  0  0
  149.3454  138.2033  153.5632 H   0  0  0  0  0  0  0  0  0  0  0  0
  148.7510  139.3279  155.4580 H   0  0  0  0  0  0  0  0  0  0  0  0
  149.1946  141.8649  156.3992 H   0  0  0  0  0  0  0  0  0  0  0  0
  149.0983  140.4996  157.4623 H   0  0  0  0  0  0  0  0  0  0  0  0
  150.1092  143.6590  157.0959 H   0  0  0  0  0  0  0  0  0  0  0  0
  151.6048  144.9797  158.5724 H   0  0  0  0  0  0  0  0  0  0  0  0
  153.1030  143.7204  160.1830 H   0  0  0  0  0  0  0  0  0  0  0  0
  153.0470  141.3075  160.2613 H   0  0  0  0  0  0  0  0  0  0  0  0
  148.1311  137.0663  155.3202 H   0  0  0  0  0  0  0  0  0  0  0  0
  148.8989  136.1057  156.5599 H   0  0  0  0  0  0  0  0  0  0  0  0
  149.5585  135.9672  153.7125 H   0  0  0  0  0  0  0  0  0  0  0  0
  1  2  1  0  0  0  0
  1 22  1  0  0  0  0
  1 23  1  0  0  0  0
  1 24  1  0  0  0  0
  2 21  1  0  0  0  0
  2  3  1  0  0  0  0
  2 25  1  0  0  0  0
  3  4  1  0  0  0  0
  3 26  1  0  0  0  0
  3 27  1  0  0  0  0
  4  5  1  0  0  0  0
  4  6  1  0  0  0  0
  4 28  1  0  0  0  0
  5 29  1  0  0  0  0
  5 30  1  0  0  0  0
  5 31  1  0  0  0  0
  6  7  1  0  0  0  0
  6 32  1  0  0  0  0
  6 33  1  0  0  0  0
  7  8  1  0  0  0  0
  7 21  1  0  0  0  0
  7 47  1  0  0  0  0
  8  9  1  0  0  0  0
  8 34  1  0  0  0  0
  8 35  1  0  0  0  0
  9 10  1  0  0  0  0
  9 36  1  0  0  0  0
  9 37  1  0  0  0  0
 10 11  1  0  0  0  0
 10 38  1  0  0  0  0
 11 12  2  0  0  0  0
 11 13  1  0  0  0  0
 13 14  1  0  0  0  0
 13 39  1  0  0  0  0
 13 40  1  0  0  0  0
 14 19  1  0  0  0  0
 14 15  1  0  0  0  0
 15 16  2  0  0  0  0
 15 41  1  0  0  0  0
 16 17  1  0  0  0  0
 16 42  1  0  0  0  0
 17 18  2  0  0  0  0
 17 43  1  0  0  0  0
 18 19  1  0  0  0  0
 18 44  1  0  0  0  0
 19 20  2  0  0  0  0
 21 45  1  0  0  0  0
 21 46  1  0  0  0  0
M  CHG  1   7   1
M  END
> <s_m_source_file>
AV-unprocessed.smi

> <i_m_source_file_index>
1352

> <i_lp_mmshare_version>
43012

> <i_f3d_flags>
0

> <s_epik_input>
W0NIM11bQ0BASF0xW0NIMl1bQ0BASF0oW0NIM10pW0NIMl1OKFtDSDJdMSlbQ0gyXVtDSDJdW05IXUMoPU8pW0NIMl1uMltjSF1bY0hdW2NIXVtjSF1jMj1P

> <s_epik_cmdline>
J2VwaWtfcHl0aG9uJywgJy1waCcsICc3LjAnLCAnLXRuJywgJzgnLCAnLW1hJywgJzIwMCcsICctbWV0YWxfYmluZGluZycsICctaW1hZScsICc8aW5maWxlLm1hZT4nLCAnLW9tYWUnLCAnPG91dGZpbGUubWFlPic=

> <r_lp_tautomer_probability>
1

> <r_epik_Ionization_Penalty>
0.00156146

> <r_epik_Ionization_Penalty_Charging>
0.00156138

> <r_epik_Ionization_Penalty_Neutral>
8.12891e-08

> <r_epik_State_Penalty>
0.00104868

> <r_epik_Charging_Adjusted_Penalty>
0.00261006

> <i_epik_Tot_Q>
1

> <i_epik_Tot_abs_Q>
1

> <r_epik_Metal_State_Penalty>
-0

> <b_epik_Metal_Only>
0

> <s_lp_Force_Field>
OPLS_2005

> <r_lp_Energy>
27.867

> <b_lp_Chiralities_Consistent>
1

> <s_lp_Variant>
AV-unprocessed.smi:1352-4

> <Gold.Version>
5.8.1

> <Gold.Id.Protein>
6NUR|6NUR_protein|mol2

> <Gold.PLP.Fitness>
48.4991

> <Gold.PLP.PLP>
-39.1858

> <Gold.PLP.part.hbond>
-2.0000

> <Gold.PLP.part.metal>
0.0000

> <Gold.PLP.part.buried>
-3.1420

> <Gold.PLP.part.nonpolar>
-34.5396

> <Gold.PLP.part.repulsive>
0.1163

> <Gold.PLP.ligand.clash>
0.0000

> <Gold.PLP.ligand.torsion>
0.7908

> <Gold.PLP.Chemscore.Hbond>
2.6192

> <Gold.PLP.Chemscore.CHOScore>
1.0000

> <Gold.PLP.Chemscore.Metal>
0.0000

> <Gold.Chemscore.Hbonds>
donor molecule, donor type, donor heavy atom, donor atom, acceptor molecule, acceptor atom, score
      L1  H     7    47       P1  7948  2.00
      P1  H  7989  7998       L1    12  0.38
      L1  C    15    41       P1  8028  1.00

> <Gold.PLP.Chemscore.Internal.Correction>
0.0371

> <Gold.Rescore>
     Score         DG    S(hbond)    S(metal)    S(lipo)     H(rot)  DE(clash)    DE(int)     intcor
     16.13     -16.95       1.73        0.00      88.68       1.83       0.07       0.74       ----

> <Gold.Chemscore.Fitness>
16.1336

> <Gold.Chemscore.DG>
-16.9469

> <Gold.Chemscore.ZeroCoef>
-5.4800

> <Gold.Chemscore.Hbond>
1.7317

> <Gold.Chemscore.Metal>
0.0000

> <Gold.Chemscore.Lipo>
88.6778

> <Gold.Chemscore.Internal_Hbond>
0.0000

> <Gold.Chemscore.DEClash>
0.0719

> <Gold.Chemscore.DEInternal>
0.7414

> <Gold.Chemscore.Rot>
1.8329

> <Gold.Chemscore.Internal.Correction>
   9.000000E+99

> <Gold.Chemscore.Hbonds>
donor molecule, donor type, donor heavy atom, donor atom, acceptor molecule, acceptor atom, score
      L1  H     7    47       P1  7948  0.39
      P1  H  7989  7998       L1    12  0.09

> <Gold.Chemscore.Hbond.Weighted>
-5.7838

> <Gold.Chemscore.Metal.Weighted>
-0.0000

> <Gold.Chemscore.Lipo.Weighted>
-10.3753

> <Gold.Chemscore.Internal_Hbond.Weighted>
0.0000

> <Gold.Chemscore.DEClash.Weighted>
0.0719

> <Gold.Chemscore.DEInternal.Weighted>
0.7414

> <Gold.Chemscore.Rot.Weighted>
4.6922

> <Gold.Chemscore.Internal.Correction.Weighted>
   9.000000E+99

> <Gold.Protein.RotatedTorsions>
[ 6907 6896 6895 6894 ] final  -23.61 input  -60.11 | X-H torsion
[ 7974 7965 7964 7962 ] final -138.94 input  175.53 | X-H torsion
[ 8008 7997 7996 7995 ] final -110.91 input   59.86 | X-H torsion
[ 10167 10162 10161 10158 ] final  164.66 input  -65.29 | X-H torsion
[ 10718 10713 10712 10709 ] final  -55.12 input   66.30 | X-H torsion
[ 10763 10752 10751 10750 ] final   58.40 input  -60.55 | X-H torsion
[ 11005 11000 10999 10996 ] final    8.44 input  -57.11 | X-H torsion

> <Gold.Protein.ActiveResidues>
 VAL166  LYS551  ARG553  GLY616  TRP617  ASP618  TYR619  PRO620  LYS621  CYS622 
 ASP623  PHE694  ASN695  SER759  ASP760  ASP761  ALA762  ILE779  LEU786  VAL792 
 PHE793  MET794  SER795  GLU796  ALA797  LYS798  CYS799  TRP800  GLU811  SER814 

> <Gold.Protein.RotatedAtoms>
  151.2015  135.0444  159.8873 H   0  0  0  0  0  0  0  0  0  0  0  0  # atno 6907 bound_to 6896
  152.5432  134.0844  159.8260 H   0  0  0  0  0  0  0  0  0  0  0  0  # atno 6908 bound_to 6896
  151.0986  133.5213  159.2643 H   0  0  0  0  0  0  0  0  0  0  0  0  # atno 6909 bound_to 6896
  144.8717  140.6377  143.5262 H   0  0  0  0  0  0  0  0  0  0  0  0  # atno 7974 bound_to 7965
  154.9817  140.0396  157.2281 H   0  0  0  0  0  0  0  0  0  0  0  0  # atno 8008 bound_to 7997
  154.7708  140.2801  155.6117 H   0  0  0  0  0  0  0  0  0  0  0  0  # atno 8009 bound_to 7997
  156.2920  140.2610  156.2510 H   0  0  0  0  0  0  0  0  0  0  0  0  # atno 8010 bound_to 7997
  139.4892  144.4212  151.9184 H   0  0  0  0  0  0  0  0  0  0  0  0  # atno 10167 bound_to 10162
  156.1394  130.4155  150.0128 H   0  0  0  0  0  0  0  0  0  0  0  0  # atno 10718 bound_to 10713
  152.9870  135.5608  154.5546 H   0  0  0  0  0  0  0  0  0  0  0  0  # atno 10763 bound_to 10752
  154.4976  135.2796  155.1448 H   0  0  0  0  0  0  0  0  0  0  0  0  # atno 10764 bound_to 10752
  154.2892  135.6329  153.5431 H   0  0  0  0  0  0  0  0  0  0  0  0  # atno 10765 bound_to 10752
  140.5369  134.0412  155.7891 H   0  0  0  0  0  0  0  0  0  0  0  0  # atno 11005 bound_to 11000
  145.4117  139.1579  143.4122 LP  0  0  0  0  0  0  0  0  0  0  0  0  # atno 17320 bound_to 7965
  146.2935  140.4222  142.8730 LP  0  0  0  0  0  0  0  0  0  0  0  0  # atno 17321 bound_to 7965
  140.3656  144.2919  150.5927 LP  0  0  0  0  0  0  0  0  0  0  0  0  # atno 17342 bound_to 10162
  140.5364  143.2232  151.8155 LP  0  0  0  0  0  0  0  0  0  0  0  0  # atno 17343 bound_to 10162
  156.8018  130.9293  151.3646 LP  0  0  0  0  0  0  0  0  0  0  0  0  # atno 17370 bound_to 10713
  157.6562  130.8927  149.9734 LP  0  0  0  0  0  0  0  0  0  0  0  0  # atno 17371 bound_to 10713
  141.1249  133.9399  157.2655 LP  0  0  0  0  0  0  0  0  0  0  0  0  # atno 17394 bound_to 11000
  139.9524  135.0172  156.9032 LP  0  0  0  0  0  0  0  0  0  0  0  0  # atno 17395 bound_to 11000

$$$$
