AV-unprocessed.smi:102|AV-procd|sdf|951|dock8
  -GOLD-   2262017483D 1   1.00000     0.00000
 Structure written by MMmdl.
 44 45  0  0  0  0  0  0  0  0  1 V2000
  148.8587  141.5488  155.0139 C   0  0  0  0  0  0  0  0  0  0  0  0
  149.5225  140.2892  154.4729 C   0  0  0  0  0  0  0  0  0  0  0  0
  149.0228  139.6485  153.5477 O   0  0  0  0  0  0  0  0  0  0  0  0
  150.6691  139.9967  155.1137 O   0  0  0  0  0  0  0  0  0  0  0  0
  151.4023  138.8264  154.7793 C   0  0  0  0  0  0  0  0  0  0  0  0
  151.5019  137.8740  155.9807 C   0  0  2  0  0  0  0  0  0  0  0  0
  151.9803  136.6039  155.5634 O   0  0  0  0  0  0  0  0  0  0  0  0
  151.5356  135.6151  156.4397 C   0  0  2  0  0  0  0  0  0  0  0  0
  151.2733  134.3604  155.6294 N   0  0  0  0  0  0  0  0  0  0  0  0
  151.1595  134.4344  154.2482 C   0  0  0  0  0  0  0  0  0  0  0  0
  150.8861  133.3598  153.4711 C   0  0  0  0  0  0  0  0  0  0  0  0
  150.7994  133.5097  152.1384 F   0  0  0  0  0  0  0  0  0  0  0  0
  150.6813  132.0427  154.0665 C   0  0  0  0  0  0  0  0  0  0  0  0
  150.4350  131.0104  153.4459 O   0  0  0  0  0  0  0  0  0  0  0  0
  150.7824  132.0178  155.4602 N   0  0  0  0  0  0  0  0  0  0  0  0
  151.0595  133.1179  156.2733 C   0  0  0  0  0  0  0  0  0  0  0  0
  151.1115  132.9788  157.4944 O   0  0  0  0  0  0  0  0  0  0  0  0
  150.3146  136.1646  157.2158 C   0  0  2  0  0  0  0  0  0  0  0  0
  149.1527  135.3564  157.0613 O   0  0  0  0  0  0  0  0  0  0  0  0
  148.0361  135.6306  157.7533 C   0  0  0  0  0  0  0  0  0  0  0  0
  146.9619  134.5691  157.5595 C   0  0  0  0  0  0  0  0  0  0  0  0
  147.8501  136.6115  158.4732 O   0  0  0  0  0  0  0  0  0  0  0  0
  150.1325  137.5502  156.5955 C   0  0  1  0  0  0  0  0  0  0  0  0
  149.6158  138.5501  157.4804 O   0  0  0  0  0  0  0  0  0  0  0  0
  150.3827  139.2737  158.3283 C   0  0  0  0  0  0  0  0  0  0  0  0
  149.5516  140.1880  159.2186 C   0  0  0  0  0  0  0  0  0  0  0  0
  151.6097  139.2425  158.4180 O   0  0  0  0  0  0  0  0  0  0  0  0
  150.6365  131.1298  155.9181 H   0  0  0  0  0  0  0  0  0  0  0  0
  149.2180  142.4249  154.4739 H   0  0  0  0  0  0  0  0  0  0  0  0
  149.0829  141.6780  156.0729 H   0  0  0  0  0  0  0  0  0  0  0  0
  147.7764  141.4890  154.8964 H   0  0  0  0  0  0  0  0  0  0  0  0
  150.8577  138.3292  153.9764 H   0  0  0  0  0  0  0  0  0  0  0  0
  152.3898  139.0650  154.3808 H   0  0  0  0  0  0  0  0  0  0  0  0
  152.1927  138.2669  156.7262 H   0  0  0  0  0  0  0  0  0  0  0  0
  152.3545  135.3705  157.1172 H   0  0  0  0  0  0  0  0  0  0  0  0
  151.3001  135.3860  153.7562 H   0  0  0  0  0  0  0  0  0  0  0  0
  150.6109  136.2151  158.2634 H   0  0  0  0  0  0  0  0  0  0  0  0
  147.3475  133.5861  157.8304 H   0  0  0  0  0  0  0  0  0  0  0  0
  146.6422  134.5411  156.5177 H   0  0  0  0  0  0  0  0  0  0  0  0
  146.0936  134.7836  158.1826 H   0  0  0  0  0  0  0  0  0  0  0  0
  149.4202  137.4550  155.7752 H   0  0  0  0  0  0  0  0  0  0  0  0
  148.5625  139.7631  159.3903 H   0  0  0  0  0  0  0  0  0  0  0  0
  149.4332  141.1648  158.7492 H   0  0  0  0  0  0  0  0  0  0  0  0
  150.0393  140.3245  160.1840 H   0  0  0  0  0  0  0  0  0  0  0  0
  1  2  1  0  0  0  0
  1 29  1  0  0  0  0
  1 30  1  0  0  0  0
  1 31  1  0  0  0  0
  2  3  2  0  0  0  0
  2  4  1  0  0  0  0
  4  5  1  0  0  0  0
  5  6  1  0  0  0  0
  5 32  1  0  0  0  0
  5 33  1  0  0  0  0
  6 23  1  0  0  0  0
  6  7  1  0  0  0  0
  6 34  1  0  0  0  0
  7  8  1  0  0  0  0
  8  9  1  0  0  0  0
  8 18  1  0  0  0  0
  8 35  1  0  0  0  0
  9 16  1  0  0  0  0
  9 10  1  0  0  0  0
 10 11  2  0  0  0  0
 10 36  1  0  0  0  0
 11 12  1  0  0  0  0
 11 13  1  0  0  0  0
 13 14  2  0  0  0  0
 13 15  1  0  0  0  0
 15 28  1  0  0  0  0
 15 16  1  0  0  0  0
 16 17  2  0  0  0  0
 18 19  1  0  0  0  0
 18 23  1  0  0  0  0
 18 37  1  0  0  0  0
 19 20  1  0  0  0  0
 20 21  1  0  0  0  0
 20 22  2  0  0  0  0
 21 38  1  0  0  0  0
 21 39  1  0  0  0  0
 21 40  1  0  0  0  0
 23 24  1  0  0  0  0
 23 41  1  0  0  0  0
 24 25  1  0  0  0  0
 25 26  1  0  0  0  0
 25 27  2  0  0  0  0
 26 42  1  0  0  0  0
 26 43  1  0  0  0  0
 26 44  1  0  0  0  0
M  END
> <s_m_source_file>
AV-unprocessed.smi

> <i_m_source_file_index>
102

> <i_lp_mmshare_version>
43012

> <i_f3d_flags>
0

> <s_epik_input>
W0NIM11DKD1PKU9bQ0gyXVtDQEBIXTFPW0NASF0oW0NAQEhdKE9DKD1PKVtDSDNdKVtDQEhdMU9DKD1PKVtDSDNdKW4yW2NIXWMoRiljKD1PKVtuSF1jMj1P

> <s_epik_cmdline>
J2VwaWtfcHl0aG9uJywgJy1waCcsICc3LjAnLCAnLXRuJywgJzgnLCAnLW1hJywgJzIwMCcsICctbWV0YWxfYmluZGluZycsICctaW1hZScsICc8aW5maWxlLm1hZT4nLCAnLW9tYWUnLCAnPG91dGZpbGUubWFlPic=

> <r_lp_tautomer_probability>
0.999537

> <r_epik_Ionization_Penalty>
0.058267

> <r_epik_Ionization_Penalty_Charging>
0.058267

> <r_epik_Ionization_Penalty_Neutral>
6.57791e-16

> <r_epik_State_Penalty>
0.0503774

> <r_epik_Charging_Adjusted_Penalty>
0.108644

> <i_epik_Tot_Q>
0

> <i_epik_Tot_abs_Q>
0

> <r_epik_Metal_State_Penalty>
2.6644

> <b_epik_Metal_Only>
0

> <s_epik_Chemistry_Notes>
This compound has an ester and may undergo hydrolysis at high or low pH. This compound contains an acetal/aminal-like group ( X-CH(R)-Y where X, Y are N, S, or O) that may be acid/base labile, releasing an aldehyde.

> <s_lp_Force_Field>
OPLS_2005

> <r_lp_Energy>
7.12504

> <b_lp_Chiralities_Consistent>
1

> <s_lp_Variant>
AV-unprocessed.smi:102-7

> <Gold.Version>
5.8.1

> <Gold.Id.Protein>
6NUR|6NUR_protein|mol2

> <Gold.PLP.Fitness>
45.0577

> <Gold.PLP.PLP>
-36.1784

> <Gold.PLP.part.hbond>
-4.8613

> <Gold.PLP.part.metal>
0.0000

> <Gold.PLP.part.buried>
-4.3266

> <Gold.PLP.part.nonpolar>
-27.6825

> <Gold.PLP.part.repulsive>
0.3880

> <Gold.PLP.ligand.clash>
0.0000

> <Gold.PLP.ligand.torsion>
1.0973

> <Gold.PLP.Chemscore.Hbond>
3.0000

> <Gold.PLP.Chemscore.CHOScore>
0.6347

> <Gold.PLP.Chemscore.Metal>
0.0000

> <Gold.Chemscore.Hbonds>
donor molecule, donor type, donor heavy atom, donor atom, acceptor molecule, acceptor atom, score
      P1  H  6896  6909       L1    17  0.96
      P1  H 10752 10763       L1     7  0.83
      L1  C    10    36       P1  7949  1.00

> <Gold.PLP.Chemscore.Internal.Correction>
0.1697

> <Gold.Rescore>
     Score         DG    S(hbond)    S(metal)    S(lipo)     H(rot)  DE(clash)    DE(int)     intcor
      2.23      -9.86       2.76        0.00      47.17       4.05       2.10       5.53       ----

> <Gold.Chemscore.Fitness>
2.2316

> <Gold.Chemscore.DG>
-9.8557

> <Gold.Chemscore.ZeroCoef>
-5.4800

> <Gold.Chemscore.Hbond>
2.7633

> <Gold.Chemscore.Metal>
0.0000

> <Gold.Chemscore.Lipo>
47.1738

> <Gold.Chemscore.Internal_Hbond>
0.0000

> <Gold.Chemscore.DEClash>
2.0963

> <Gold.Chemscore.DEInternal>
5.5277

> <Gold.Chemscore.Rot>
4.0520

> <Gold.Chemscore.Internal.Correction>
   9.000000E+99

> <Gold.Chemscore.Hbonds>
donor molecule, donor type, donor heavy atom, donor atom, acceptor molecule, acceptor atom, score
      P1  H  6896  6909       L1    17  0.92
      P1  H 10752 10763       L1     7  0.21

> <Gold.Chemscore.Hbond.Weighted>
-9.2296

> <Gold.Chemscore.Metal.Weighted>
-0.0000

> <Gold.Chemscore.Lipo.Weighted>
-5.5193

> <Gold.Chemscore.Internal_Hbond.Weighted>
0.0000

> <Gold.Chemscore.DEClash.Weighted>
2.0963

> <Gold.Chemscore.DEInternal.Weighted>
5.5277

> <Gold.Chemscore.Rot.Weighted>
10.3732

> <Gold.Chemscore.Internal.Correction.Weighted>
   9.000000E+99

> <Gold.Protein.RotatedTorsions>
[ 6907 6896 6895 6894 ] final  -38.75 input  -60.11 | X-H torsion
[ 7974 7965 7964 7962 ] final   35.89 input  175.53 | X-H torsion
[ 8008 7997 7996 7995 ] final  158.58 input   59.86 | X-H torsion
[ 10167 10162 10161 10158 ] final  -56.82 input  -65.29 | X-H torsion
[ 10718 10713 10712 10709 ] final   72.29 input   66.30 | X-H torsion
[ 10763 10752 10751 10750 ] final   50.98 input  -60.55 | X-H torsion
[ 11005 11000 10999 10996 ] final -149.95 input  -57.11 | X-H torsion

> <Gold.Protein.ActiveResidues>
 VAL166  LYS551  ARG553  GLY616  TRP617  ASP618  TYR619  PRO620  LYS621  CYS622 
 ASP623  PHE694  ASN695  SER759  ASP760  ASP761  ALA762  ILE779  LEU786  VAL792 
 PHE793  MET794  SER795  GLU796  ALA797  LYS798  CYS799  TRP800  GLU811  SER814 

> <Gold.Protein.RotatedAtoms>
  150.9986  134.9304  159.7940 H   0  0  0  0  0  0  0  0  0  0  0  0  # atno 6907 bound_to 6896
  152.5271  134.3185  159.9149 H   0  0  0  0  0  0  0  0  0  0  0  0  # atno 6908 bound_to 6896
  151.3190  133.4006  159.2687 H   0  0  0  0  0  0  0  0  0  0  0  0  # atno 6909 bound_to 6896
  146.1251  139.6086  142.9264 H   0  0  0  0  0  0  0  0  0  0  0  0  # atno 7974 bound_to 7965
  156.2294  140.1854  156.7281 H   0  0  0  0  0  0  0  0  0  0  0  0  # atno 8008 bound_to 7997
  154.5996  140.0638  156.9378 H   0  0  0  0  0  0  0  0  0  0  0  0  # atno 8009 bound_to 7997
  155.2197  140.3306  155.4320 H   0  0  0  0  0  0  0  0  0  0  0  0  # atno 8010 bound_to 7997
  140.6295  143.2453  151.5278 H   0  0  0  0  0  0  0  0  0  0  0  0  # atno 10167 bound_to 10162
  157.6494  130.9571  150.0908 H   0  0  0  0  0  0  0  0  0  0  0  0  # atno 10718 bound_to 10713
  152.9785  135.5861  154.4341 H   0  0  0  0  0  0  0  0  0  0  0  0  # atno 10763 bound_to 10752
  154.3950  135.2768  155.2133 H   0  0  0  0  0  0  0  0  0  0  0  0  # atno 10764 bound_to 10752
  154.3989  135.6108  153.5940 H   0  0  0  0  0  0  0  0  0  0  0  0  # atno 10765 bound_to 10752
  140.7453  134.3468  157.5138 H   0  0  0  0  0  0  0  0  0  0  0  0  # atno 11005 bound_to 11000
  145.5384  141.0422  143.2344 LP  0  0  0  0  0  0  0  0  0  0  0  0  # atno 17320 bound_to 7965
  144.7634  139.6902  143.7225 LP  0  0  0  0  0  0  0  0  0  0  0  0  # atno 17321 bound_to 7965
  139.5511  144.2394  152.1531 LP  0  0  0  0  0  0  0  0  0  0  0  0  # atno 17342 bound_to 10162
  140.1634  144.5004  150.6619 LP  0  0  0  0  0  0  0  0  0  0  0  0  # atno 17343 bound_to 10162
  156.1858  130.3652  149.8975 LP  0  0  0  0  0  0  0  0  0  0  0  0  # atno 17370 bound_to 10713
  156.6915  130.8898  151.3589 LP  0  0  0  0  0  0  0  0  0  0  0  0  # atno 17371 bound_to 10713
  139.8798  134.9107  156.3020 LP  0  0  0  0  0  0  0  0  0  0  0  0  # atno 17394 bound_to 11000
  140.9800  133.7273  156.0658 LP  0  0  0  0  0  0  0  0  0  0  0  0  # atno 17395 bound_to 11000

$$$$
