AV-unprocessed.smi:2869|AV-procd|sdf|11028|dock1
  -GOLD-   2272015493D 1   1.00000     0.00000
 Structure written by MMmdl.
 49 51  0  0  0  0  0  0  0  0  1 V2000
  147.3453  137.3354  159.9905 N   0  0  0  0  0  0  0  0  0  0  0  0
  148.0082  137.2115  159.0498 C   0  0  0  0  0  0  0  0  0  0  0  0
  148.8360  137.0334  157.9030 C   0  0  0  0  0  0  0  0  0  0  0  0
  149.0037  135.8251  157.3277 C   0  0  0  0  0  0  0  0  0  0  0  0
  149.7908  135.6381  156.2124 N   0  0  0  0  0  0  0  0  0  0  0  0
  150.0656  134.3238  155.7034 C   0  0  0  0  0  0  0  0  0  0  0  0
  149.0022  133.5545  154.9436 C   0  0  0  0  0  0  0  0  0  0  0  0
  149.3826  133.1344  156.3422 C   0  0  0  0  0  0  0  0  0  0  0  0
  150.5292  136.7155  155.6753 C   0  0  0  0  0  0  0  0  0  0  0  0
  151.3010  136.5505  154.7272 O   0  0  0  0  0  0  0  0  0  0  0  0
  150.3583  137.9931  156.2616 N   0  0  0  0  0  0  0  0  0  0  0  0
  151.0793  139.1456  155.6774 C   0  0  0  0  0  0  0  0  0  0  0  0
  151.8909  139.9487  156.7054 C   0  0  0  0  0  0  0  0  0  0  0  0
  152.9353  139.5016  157.1819 O   0  0  0  0  0  0  0  0  0  0  0  0
  151.3861  141.1482  157.0332 N   0  0  0  0  0  0  0  0  0  0  0  0
  151.9776  142.0993  157.9747 C   0  0  0  0  0  0  0  0  0  0  0  0
  151.7172  141.5568  159.3991 C   0  0  0  0  0  0  0  0  0  0  0  0
  152.7536  141.9012  160.4909 C   0  0  0  0  0  0  0  0  0  0  0  0
  153.0610  143.3852  160.7616 C   0  0  0  0  0  0  0  0  0  0  0  0
  151.8362  144.3169  160.7383 C   0  0  0  0  0  0  0  0  0  0  0  0
  151.8038  145.2872  159.5452 C   0  0  0  0  0  0  0  0  0  0  0  0
  152.1737  144.7063  158.1658 C   0  0  0  0  0  0  0  0  0  0  0  0
  151.3540  143.4931  157.6950 C   0  0  0  0  0  0  0  0  0  0  0  0
  149.5071  138.2186  157.3737 C   0  0  0  0  0  0  0  0  0  0  0  0
  149.3621  139.3485  157.8437 O   0  0  0  0  0  0  0  0  0  0  0  0
  148.4964  134.9697  157.7504 H   0  0  0  0  0  0  0  0  0  0  0  0
  151.0909  134.1602  155.3758 H   0  0  0  0  0  0  0  0  0  0  0  0
  148.0252  134.0165  154.8129 H   0  0  0  0  0  0  0  0  0  0  0  0
  149.3325  132.9241  154.1205 H   0  0  0  0  0  0  0  0  0  0  0  0
  149.9643  132.2216  156.4524 H   0  0  0  0  0  0  0  0  0  0  0  0
  148.6563  133.3214  157.1312 H   0  0  0  0  0  0  0  0  0  0  0  0
  151.7522  138.8178  154.8833 H   0  0  0  0  0  0  0  0  0  0  0  0
  150.3932  139.8279  155.1733 H   0  0  0  0  0  0  0  0  0  0  0  0
  150.5236  141.4302  156.5907 H   0  0  0  0  0  0  0  0  0  0  0  0
  153.0551  142.1302  157.8026 H   0  0  0  0  0  0  0  0  0  0  0  0
  150.7115  141.8275  159.7196 H   0  0  0  0  0  0  0  0  0  0  0  0
  151.6977  140.4663  159.3570 H   0  0  0  0  0  0  0  0  0  0  0  0
  152.4021  141.4558  161.4223 H   0  0  0  0  0  0  0  0  0  0  0  0
  153.6911  141.3917  160.2653 H   0  0  0  0  0  0  0  0  0  0  0  0
  153.5276  143.4504  161.7453 H   0  0  0  0  0  0  0  0  0  0  0  0
  153.8335  143.7355  160.0788 H   0  0  0  0  0  0  0  0  0  0  0  0
  150.9082  143.7492  160.7840 H   0  0  0  0  0  0  0  0  0  0  0  0
  151.8325  144.9135  161.6513 H   0  0  0  0  0  0  0  0  0  0  0  0
  150.8124  145.7387  159.4913 H   0  0  0  0  0  0  0  0  0  0  0  0
  152.4881  146.1107  159.7520 H   0  0  0  0  0  0  0  0  0  0  0  0
  152.0190  145.5090  157.4437 H   0  0  0  0  0  0  0  0  0  0  0  0
  153.2390  144.4880  158.0995 H   0  0  0  0  0  0  0  0  0  0  0  0
  151.2576  143.6043  156.6135 H   0  0  0  0  0  0  0  0  0  0  0  0
  150.3326  143.5479  158.0734 H   0  0  0  0  0  0  0  0  0  0  0  0
  1  2  3  0  0  0  0
  2  3  1  0  0  0  0
  3 24  1  0  0  0  0
  3  4  2  0  0  0  0
  4  5  1  0  0  0  0
  4 26  1  0  0  0  0
  5  6  1  0  0  0  0
  5  9  1  0  0  0  0
  6  8  1  0  0  0  0
  6  7  1  0  0  0  0
  6 27  1  0  0  0  0
  7  8  1  0  0  0  0
  7 28  1  0  0  0  0
  7 29  1  0  0  0  0
  8 30  1  0  0  0  0
  8 31  1  0  0  0  0
  9 10  2  0  0  0  0
  9 11  1  0  0  0  0
 11 12  1  0  0  0  0
 11 24  1  0  0  0  0
 12 13  1  0  0  0  0
 12 32  1  0  0  0  0
 12 33  1  0  0  0  0
 13 14  2  0  0  0  0
 13 15  1  0  0  0  0
 15 16  1  0  0  0  0
 15 34  1  0  0  0  0
 16 23  1  0  0  0  0
 16 17  1  0  0  0  0
 16 35  1  0  0  0  0
 17 18  1  0  0  0  0
 17 36  1  0  0  0  0
 17 37  1  0  0  0  0
 18 19  1  0  0  0  0
 18 38  1  0  0  0  0
 18 39  1  0  0  0  0
 19 20  1  0  0  0  0
 19 40  1  0  0  0  0
 19 41  1  0  0  0  0
 20 21  1  0  0  0  0
 20 42  1  0  0  0  0
 20 43  1  0  0  0  0
 21 22  1  0  0  0  0
 21 44  1  0  0  0  0
 21 45  1  0  0  0  0
 22 23  1  0  0  0  0
 22 46  1  0  0  0  0
 22 47  1  0  0  0  0
 23 48  1  0  0  0  0
 23 49  1  0  0  0  0
 24 25  2  0  0  0  0
M  END
> <s_m_source_file>
AV-unprocessed.smi

> <i_m_source_file_index>
2869

> <i_lp_mmshare_version>
43012

> <i_f3d_flags>
0

> <s_epik_input>
TiNDYzFbY0hdbihbQ0hdMltDSDJdW0NIMl0yKWMoPU8pbihjMT1PKVtDSDJdQyg9TylbTkhdW0NIXTNbQ0gyXVtDSDJdW0NIMl1bQ0gyXVtDSDJdW0NIMl1bQ0gyXTM=

> <s_epik_cmdline>
J2VwaWtfcHl0aG9uJywgJy1waCcsICc3LjAnLCAnLXRuJywgJzgnLCAnLW1hJywgJzIwMCcsICctbWV0YWxfYmluZGluZycsICctaW1hZScsICc8aW5maWxlLm1hZT4nLCAnLW9tYWUnLCAnPG91dGZpbGUubWFlPic=

> <r_lp_tautomer_probability>
1

> <r_epik_Ionization_Penalty>
2.03018e-08

> <r_epik_Ionization_Penalty_Charging>
8.701e-11

> <r_epik_Ionization_Penalty_Neutral>
2.02148e-08

> <r_epik_State_Penalty>
-0

> <r_epik_Charging_Adjusted_Penalty>
8.701e-11

> <i_epik_Tot_Q>
0

> <i_epik_Tot_abs_Q>
0

> <r_epik_Metal_State_Penalty>
-0

> <b_epik_Metal_Only>
0

> <s_lp_Force_Field>
OPLS_2005

> <r_lp_Energy>
47.5685

> <b_lp_Chiralities_Consistent>
1

> <s_lp_Variant>
AV-unprocessed.smi:2869-1

> <Gold.Version>
5.8.1

> <Gold.Id.Protein>
6NUR|6NUR_protein|mol2

> <Gold.PLP.Fitness>
50.6468

> <Gold.PLP.PLP>
-42.6747

> <Gold.PLP.part.hbond>
-3.0000

> <Gold.PLP.part.metal>
0.0000

> <Gold.PLP.part.buried>
-7.6085

> <Gold.PLP.part.nonpolar>
-32.5603

> <Gold.PLP.part.repulsive>
0.2545

> <Gold.PLP.ligand.clash>
0.0000

> <Gold.PLP.ligand.torsion>
0.5559

> <Gold.PLP.Chemscore.Hbond>
2.9516

> <Gold.PLP.Chemscore.CHOScore>
0.0000

> <Gold.PLP.Chemscore.Metal>
0.0000

> <Gold.Chemscore.Hbonds>
donor molecule, donor type, donor heavy atom, donor atom, acceptor molecule, acceptor atom, score
      P1  H  6934  6947       L1     1  0.99
      P1  H  7997  8008       L1    14  1.00
      P1  H 10752 10765       L1    10  1.00

> <Gold.PLP.Chemscore.Internal.Correction>
0.2290

> <Gold.Rescore>
     Score         DG    S(hbond)    S(metal)    S(lipo)     H(rot)  DE(clash)    DE(int)     intcor
     21.84     -25.49       3.34        0.00     112.57       1.68       0.12       3.53       ----

> <Gold.Chemscore.Fitness>
21.8364

> <Gold.Chemscore.DG>
-25.4906

> <Gold.Chemscore.ZeroCoef>
-5.4800

> <Gold.Chemscore.Hbond>
3.3375

> <Gold.Chemscore.Metal>
0.0000

> <Gold.Chemscore.Lipo>
112.5735

> <Gold.Chemscore.Internal_Hbond>
0.0000

> <Gold.Chemscore.DEClash>
0.1220

> <Gold.Chemscore.DEInternal>
3.5322

> <Gold.Chemscore.Rot>
1.6826

> <Gold.Chemscore.Internal.Correction>
   9.000000E+99

> <Gold.Chemscore.Hbonds>
donor molecule, donor type, donor heavy atom, donor atom, acceptor molecule, acceptor atom, score
      P1  H  6934  6947       L1     1  0.92
      P1  H  7997  8008       L1    14  0.82
      P1  H 10752 10765       L1    10  1.00

> <Gold.Chemscore.Hbond.Weighted>
-11.1471

> <Gold.Chemscore.Metal.Weighted>
-0.0000

> <Gold.Chemscore.Lipo.Weighted>
-13.1711

> <Gold.Chemscore.Internal_Hbond.Weighted>
0.0000

> <Gold.Chemscore.DEClash.Weighted>
0.1220

> <Gold.Chemscore.DEInternal.Weighted>
3.5322

> <Gold.Chemscore.Rot.Weighted>
4.3076

> <Gold.Chemscore.Internal.Correction.Weighted>
   9.000000E+99

> <Gold.Protein.RotatedTorsions>
[ 6907 6896 6895 6894 ] final   94.07 input  -60.11 | X-H torsion
[ 7974 7965 7964 7962 ] final  179.15 input  175.53 | X-H torsion
[ 8008 7997 7996 7995 ] final  -45.43 input   59.86 | X-H torsion
[ 10167 10162 10161 10158 ] final  -12.07 input  -65.29 | X-H torsion
[ 10718 10713 10712 10709 ] final   63.30 input   66.30 | X-H torsion
[ 10763 10752 10751 10750 ] final -177.66 input  -60.55 | X-H torsion
[ 11005 11000 10999 10996 ] final  -89.44 input  -57.11 | X-H torsion

> <Gold.Protein.ActiveResidues>
 VAL166  LYS551  ARG553  GLY616  TRP617  ASP618  TYR619  PRO620  LYS621  CYS622 
 ASP623  PHE694  ASN695  SER759  ASP760  ASP761  ALA762  ILE779  LEU786  VAL792 
 PHE793  MET794  SER795  GLU796  ALA797  LYS798  CYS799  TRP800  GLU811  SER814 

> <Gold.Protein.RotatedAtoms>
  152.5451  134.1251  159.8415 H   0  0  0  0  0  0  0  0  0  0  0  0  # atno 6907 bound_to 6896
  151.1303  133.5035  159.2607 H   0  0  0  0  0  0  0  0  0  0  0  0  # atno 6908 bound_to 6896
  151.1683  135.0316  159.8795 H   0  0  0  0  0  0  0  0  0  0  0  0  # atno 6909 bound_to 6896
  144.7148  140.0504  143.6435 H   0  0  0  0  0  0  0  0  0  0  0  0  # atno 7974 bound_to 7965
  154.4001  140.1397  156.3846 H   0  0  0  0  0  0  0  0  0  0  0  0  # atno 8008 bound_to 7997
  155.7971  140.3477  155.5361 H   0  0  0  0  0  0  0  0  0  0  0  0  # atno 8009 bound_to 7997
  155.8520  140.0943  157.1659 H   0  0  0  0  0  0  0  0  0  0  0  0  # atno 8010 bound_to 7997
  140.7153  143.5572  150.9236 H   0  0  0  0  0  0  0  0  0  0  0  0  # atno 10167 bound_to 10162
  157.5961  130.9098  149.9698 H   0  0  0  0  0  0  0  0  0  0  0  0  # atno 10718 bound_to 10713
  154.5574  135.2817  155.0951 H   0  0  0  0  0  0  0  0  0  0  0  0  # atno 10763 bound_to 10752
  154.2373  135.6363  153.5199 H   0  0  0  0  0  0  0  0  0  0  0  0  # atno 10764 bound_to 10752
  153.0019  135.5551  154.6158 H   0  0  0  0  0  0  0  0  0  0  0  0  # atno 10765 bound_to 10752
  141.1584  133.7630  156.9595 H   0  0  0  0  0  0  0  0  0  0  0  0  # atno 11005 bound_to 11000
  145.9949  139.3044  143.0963 LP  0  0  0  0  0  0  0  0  0  0  0  0  # atno 17320 bound_to 7965
  145.8861  140.9333  143.0576 LP  0  0  0  0  0  0  0  0  0  0  0  0  # atno 17321 bound_to 7965
  139.9297  143.6508  152.3079 LP  0  0  0  0  0  0  0  0  0  0  0  0  # atno 17342 bound_to 10162
  139.6954  144.7642  151.1365 LP  0  0  0  0  0  0  0  0  0  0  0  0  # atno 17343 bound_to 10162
  156.1025  130.3655  150.0193 LP  0  0  0  0  0  0  0  0  0  0  0  0  # atno 17370 bound_to 10713
  156.8306  130.9391  151.3637 LP  0  0  0  0  0  0  0  0  0  0  0  0  # atno 17371 bound_to 10713
  140.1202  134.9421  157.2193 LP  0  0  0  0  0  0  0  0  0  0  0  0  # atno 17394 bound_to 11000
  140.3081  134.3055  155.7273 LP  0  0  0  0  0  0  0  0  0  0  0  0  # atno 17395 bound_to 11000

$$$$
