AV-unprocessed.smi:2812|AV-procd|sdf|10833|dock9
  -GOLD-   2272015273D 1   1.00000     0.00000
 Structure written by MMmdl.
 55 56  0  0  0  0  0  0  0  0  2 V2000
  153.4406  140.0083  160.3998 C   0  0  0  0  0  0  0  0  0  0  0  0
  152.9731  141.4478  160.2530 C   0  0  0  0  0  0  0  0  0  0  0  0
  153.1308  142.3574  161.3690 C   0  0  0  0  0  0  0  0  0  0  0  0
  152.7095  143.6236  161.2521 C   0  0  0  0  0  0  0  0  0  0  0  0
  152.1294  144.1006  160.0679 N   0  0  0  0  0  0  0  0  0  0  0  0
  151.7107  145.5045  160.0349 C   0  0  0  0  0  0  0  0  0  0  0  0
  151.9749  143.3149  158.9635 C   0  0  0  0  0  0  0  0  0  0  0  0
  151.5282  143.7830  157.9137 O   0  0  0  0  0  0  0  0  0  0  0  0
  152.3915  141.8987  159.1103 C   0  0  0  0  0  0  0  0  0  0  0  0
  152.2587  141.0187  158.0244 N   0  0  0  0  0  0  0  0  0  0  0  0
  151.5657  139.8666  158.0166 C   0  0  0  0  0  0  0  0  0  0  0  0
  150.9273  139.4208  158.9712 O   0  0  0  0  0  0  0  0  0  0  0  0
  151.6769  139.2341  156.8401 N   0  0  0  0  0  0  0  0  0  0  0  0
  151.0537  137.9529  156.5251 C   0  0  0  0  0  0  0  0  0  0  0  0
  150.8350  137.7521  154.9998 C   0  0  2  0  0  0  0  0  0  0  0  0
  150.4874  139.0592  154.2482 C   0  0  0  0  0  0  0  0  0  0  0  0
  149.0593  139.5343  154.5435 C   0  0  0  0  0  0  0  0  0  0  0  0
  148.0660  138.4135  154.2201 C   0  0  0  0  0  0  0  0  0  0  0  0
  148.4272  137.1200  154.9675 C   0  0  0  0  0  0  0  0  0  0  0  0
  149.8242  136.6940  154.6815 N   0  3  2  0  0  0  0  0  0  0  0  0
  150.1080  135.3337  155.2210 C   0  0  0  0  0  0  0  0  0  0  0  0
  149.2134  134.2103  154.6487 C   0  0  0  0  0  0  0  0  0  0  0  0
  147.8185  134.1923  155.2960 C   0  0  0  0  0  0  0  0  0  0  0  0
  149.8975  132.8455  154.8153 C   0  0  0  0  0  0  0  0  0  0  0  0
  153.8582  139.8280  161.3907 H   0  0  0  0  0  0  0  0  0  0  0  0
  154.2122  139.7787  159.6644 H   0  0  0  0  0  0  0  0  0  0  0  0
  152.6079  139.3187  160.2566 H   0  0  0  0  0  0  0  0  0  0  0  0
  153.5776  142.0217  162.2933 H   0  0  0  0  0  0  0  0  0  0  0  0
  152.7982  144.3462  162.0501 H   0  0  0  0  0  0  0  0  0  0  0  0
  150.6543  145.5834  159.7734 H   0  0  0  0  0  0  0  0  0  0  0  0
  152.2870  146.0587  159.2926 H   0  0  0  0  0  0  0  0  0  0  0  0
  151.8433  146.0066  160.9939 H   0  0  0  0  0  0  0  0  0  0  0  0
  152.8403  141.2183  157.2238 H   0  0  0  0  0  0  0  0  0  0  0  0
  152.2246  139.6696  156.1123 H   0  0  0  0  0  0  0  0  0  0  0  0
  151.6810  137.1640  156.9406 H   0  0  0  0  0  0  0  0  0  0  0  0
  150.1084  137.9051  157.0642 H   0  0  0  0  0  0  0  0  0  0  0  0
  151.7816  137.4253  154.5724 H   0  0  0  0  0  0  0  0  0  0  0  0
  151.2005  139.8499  154.4817 H   0  0  0  0  0  0  0  0  0  0  0  0
  150.5842  138.8860  153.1753 H   0  0  0  0  0  0  0  0  0  0  0  0
  148.9670  139.8273  155.5897 H   0  0  0  0  0  0  0  0  0  0  0  0
  148.8293  140.4207  153.9517 H   0  0  0  0  0  0  0  0  0  0  0  0
  147.0544  138.7252  154.4810 H   0  0  0  0  0  0  0  0  0  0  0  0
  148.0637  138.2264  153.1454 H   0  0  0  0  0  0  0  0  0  0  0  0
  148.2887  137.2505  156.0413 H   0  0  0  0  0  0  0  0  0  0  0  0
  147.7361  136.3340  154.6605 H   0  0  0  0  0  0  0  0  0  0  0  0
  151.1604  135.0924  155.0696 H   0  0  0  0  0  0  0  0  0  0  0  0
  149.9676  135.3608  156.3025 H   0  0  0  0  0  0  0  0  0  0  0  0
  149.0913  134.3572  153.5757 H   0  0  0  0  0  0  0  0  0  0  0  0
  147.8836  134.0421  156.3740 H   0  0  0  0  0  0  0  0  0  0  0  0
  147.2079  133.3873  154.8861 H   0  0  0  0  0  0  0  0  0  0  0  0
  147.2821  135.1249  155.1204 H   0  0  0  0  0  0  0  0  0  0  0  0
  150.0523  132.6033  155.8674 H   0  0  0  0  0  0  0  0  0  0  0  0
  150.8703  132.8301  154.3232 H   0  0  0  0  0  0  0  0  0  0  0  0
  149.2967  132.0484  154.3760 H   0  0  0  0  0  0  0  0  0  0  0  0
  149.8655  136.5890  153.6778 H   0  0  0  0  0  0  0  0  0  0  0  0
  1  2  1  0  0  0  0
  1 25  1  0  0  0  0
  1 26  1  0  0  0  0
  1 27  1  0  0  0  0
  2  9  2  0  0  0  0
  2  3  1  0  0  0  0
  3  4  2  0  0  0  0
  3 28  1  0  0  0  0
  4  5  1  0  0  0  0
  4 29  1  0  0  0  0
  5  6  1  0  0  0  0
  5  7  1  0  0  0  0
  6 30  1  0  0  0  0
  6 31  1  0  0  0  0
  6 32  1  0  0  0  0
  7  8  2  0  0  0  0
  7  9  1  0  0  0  0
  9 10  1  0  0  0  0
 10 11  1  0  0  0  0
 10 33  1  0  0  0  0
 11 12  2  0  0  0  0
 11 13  1  0  0  0  0
 13 14  1  0  0  0  0
 13 34  1  0  0  0  0
 14 15  1  0  0  0  0
 14 35  1  0  0  0  0
 14 36  1  0  0  0  0
 15 20  1  0  0  0  0
 15 16  1  0  0  0  0
 15 37  1  0  0  0  0
 16 17  1  0  0  0  0
 16 38  1  0  0  0  0
 16 39  1  0  0  0  0
 17 18  1  0  0  0  0
 17 40  1  0  0  0  0
 17 41  1  0  0  0  0
 18 19  1  0  0  0  0
 18 42  1  0  0  0  0
 18 43  1  0  0  0  0
 19 20  1  0  0  0  0
 19 44  1  0  0  0  0
 19 45  1  0  0  0  0
 20 21  1  0  0  0  0
 20 55  1  0  0  0  0
 21 22  1  0  0  0  0
 21 46  1  0  0  0  0
 21 47  1  0  0  0  0
 22 23  1  0  0  0  0
 22 24  1  0  0  0  0
 22 48  1  0  0  0  0
 23 49  1  0  0  0  0
 23 50  1  0  0  0  0
 23 51  1  0  0  0  0
 24 52  1  0  0  0  0
 24 53  1  0  0  0  0
 24 54  1  0  0  0  0
M  CHG  1  20   1
M  END
> <s_m_source_file>
AV-unprocessed.smi

> <i_m_source_file_index>
2812

> <i_lp_mmshare_version>
43012

> <i_f3d_flags>
0

> <s_epik_input>
W0NIM11jMVtjSF1bY0hdbihbQ0gzXSljKD1PKWMxW05IXUMoPU8pW05IXVtDSDJdW0NAQEhdMltDSDJdW0NIMl1bQ0gyXVtDSDJdTjJbQ0gyXVtDSF0oW0NIM10pW0NIM10=

> <s_epik_cmdline>
J2VwaWtfcHl0aG9uJywgJy1waCcsICc3LjAnLCAnLXRuJywgJzgnLCAnLW1hJywgJzIwMCcsICctbWV0YWxfYmluZGluZycsICctaW1hZScsICc8aW5maWxlLm1hZT4nLCAnLW9tYWUnLCAnPG91dGZpbGUubWFlPic=

> <r_lp_tautomer_probability>
1

> <r_epik_Ionization_Penalty>
0.0010902

> <r_epik_Ionization_Penalty_Charging>
0.00107091

> <r_epik_Ionization_Penalty_Neutral>
1.92854e-05

> <r_epik_State_Penalty>
0.000697184

> <r_epik_Charging_Adjusted_Penalty>
0.0017681

> <i_epik_Tot_Q>
1

> <i_epik_Tot_abs_Q>
1

> <r_epik_Metal_State_Penalty>
-0

> <b_epik_Metal_Only>
0

> <s_lp_Force_Field>
OPLS_2005

> <r_lp_Energy>
39.0226

> <b_lp_Chiralities_Consistent>
1

> <s_lp_Variant>
AV-unprocessed.smi:2812-1

> <Gold.Version>
5.8.1

> <Gold.Id.Protein>
6NUR|6NUR_protein|mol2

> <Gold.PLP.Fitness>
49.5351

> <Gold.PLP.PLP>
-45.2189

> <Gold.PLP.part.hbond>
-1.0000

> <Gold.PLP.part.metal>
0.0000

> <Gold.PLP.part.buried>
-6.6231

> <Gold.PLP.part.nonpolar>
-38.0388

> <Gold.PLP.part.repulsive>
0.3190

> <Gold.PLP.ligand.clash>
0.0000

> <Gold.PLP.ligand.torsion>
1.1734

> <Gold.PLP.Chemscore.Hbond>
2.0000

> <Gold.PLP.Chemscore.CHOScore>
0.0000

> <Gold.PLP.Chemscore.Metal>
0.0000

> <Gold.Chemscore.Hbonds>
donor molecule, donor type, donor heavy atom, donor atom, acceptor molecule, acceptor atom, score
      L1  H    20    55       P1  7948  2.00

> <Gold.PLP.Chemscore.Internal.Correction>
0.6631

> <Gold.Rescore>
     Score         DG    S(hbond)    S(metal)    S(lipo)     H(rot)  DE(clash)    DE(int)     intcor
     13.03     -17.32       0.98        0.00     106.31       1.52       0.12       4.17       ----

> <Gold.Chemscore.Fitness>
13.0288

> <Gold.Chemscore.DG>
-17.3241

> <Gold.Chemscore.ZeroCoef>
-5.4800

> <Gold.Chemscore.Hbond>
0.9838

> <Gold.Chemscore.Metal>
0.0000

> <Gold.Chemscore.Lipo>
106.3121

> <Gold.Chemscore.Internal_Hbond>
0.0000

> <Gold.Chemscore.DEClash>
0.1229

> <Gold.Chemscore.DEInternal>
4.1724

> <Gold.Chemscore.Rot>
1.5157

> <Gold.Chemscore.Internal.Correction>
   9.000000E+99

> <Gold.Chemscore.Hbonds>
donor molecule, donor type, donor heavy atom, donor atom, acceptor molecule, acceptor atom, score
      L1  H    20    55       P1  7948  0.31

> <Gold.Chemscore.Hbond.Weighted>
-3.2859

> <Gold.Chemscore.Metal.Weighted>
-0.0000

> <Gold.Chemscore.Lipo.Weighted>
-12.4385

> <Gold.Chemscore.Internal_Hbond.Weighted>
0.0000

> <Gold.Chemscore.DEClash.Weighted>
0.1229

> <Gold.Chemscore.DEInternal.Weighted>
4.1724

> <Gold.Chemscore.Rot.Weighted>
3.8803

> <Gold.Chemscore.Internal.Correction.Weighted>
   9.000000E+99

> <Gold.Protein.RotatedTorsions>
[ 6907 6896 6895 6894 ] final  -84.66 input  -60.11 | X-H torsion
[ 7974 7965 7964 7962 ] final   27.99 input  175.53 | X-H torsion
[ 8008 7997 7996 7995 ] final -100.19 input   59.86 | X-H torsion
[ 10167 10162 10161 10158 ] final  131.34 input  -65.29 | X-H torsion
[ 10718 10713 10712 10709 ] final   50.44 input   66.30 | X-H torsion
[ 10763 10752 10751 10750 ] final  -76.03 input  -60.55 | X-H torsion
[ 11005 11000 10999 10996 ] final -167.01 input  -57.11 | X-H torsion

> <Gold.Protein.ActiveResidues>
 VAL166  LYS551  ARG553  GLY616  TRP617  ASP618  TYR619  PRO620  LYS621  CYS622 
 ASP623  PHE694  ASN695  SER759  ASP760  ASP761  ALA762  ILE779  LEU786  VAL792 
 PHE793  MET794  SER795  GLU796  ALA797  LYS798  CYS799  TRP800  GLU811  SER814 

> <Gold.Protein.RotatedAtoms>
  150.6875  134.3324  159.4832 H   0  0  0  0  0  0  0  0  0  0  0  0  # atno 6907 bound_to 6896
  152.1187  134.9219  160.0573 H   0  0  0  0  0  0  0  0  0  0  0  0  # atno 6908 bound_to 6896
  152.0434  133.3952  159.4383 H   0  0  0  0  0  0  0  0  0  0  0  0  # atno 6909 bound_to 6896
  146.1754  139.7117  142.8938 H   0  0  0  0  0  0  0  0  0  0  0  0  # atno 7974 bound_to 7965
  154.8252  140.0442  157.1439 H   0  0  0  0  0  0  0  0  0  0  0  0  # atno 8008 bound_to 7997
  154.9214  140.3027  155.5194 H   0  0  0  0  0  0  0  0  0  0  0  0  # atno 8009 bound_to 7997
  156.2983  140.2340  156.4264 H   0  0  0  0  0  0  0  0  0  0  0  0  # atno 8010 bound_to 7997
  139.5388  144.6710  151.4693 H   0  0  0  0  0  0  0  0  0  0  0  0  # atno 10167 bound_to 10162
  157.4885  130.8361  149.8175 H   0  0  0  0  0  0  0  0  0  0  0  0  # atno 10718 bound_to 10713
  154.4944  135.5811  153.6484 H   0  0  0  0  0  0  0  0  0  0  0  0  # atno 10763 bound_to 10752
  152.9868  135.6120  154.3083 H   0  0  0  0  0  0  0  0  0  0  0  0  # atno 10764 bound_to 10752
  154.2985  135.2847  155.2601 H   0  0  0  0  0  0  0  0  0  0  0  0  # atno 10765 bound_to 10752
  140.5580  134.5361  157.5137 H   0  0  0  0  0  0  0  0  0  0  0  0  # atno 11005 bound_to 11000
  145.4226  141.0408  143.2955 LP  0  0  0  0  0  0  0  0  0  0  0  0  # atno 17320 bound_to 7965
  144.8228  139.5762  143.6979 LP  0  0  0  0  0  0  0  0  0  0  0  0  # atno 17321 bound_to 7965
  140.6608  143.8501  150.6886 LP  0  0  0  0  0  0  0  0  0  0  0  0  # atno 17342 bound_to 10162
  140.1895  143.4048  152.1873 LP  0  0  0  0  0  0  0  0  0  0  0  0  # atno 17343 bound_to 10162
  156.0160  130.3813  150.2110 LP  0  0  0  0  0  0  0  0  0  0  0  0  # atno 17370 bound_to 10713
  157.0298  131.0004  151.3315 LP  0  0  0  0  0  0  0  0  0  0  0  0  # atno 17371 bound_to 10713
  139.9422  134.7767  156.0651 LP  0  0  0  0  0  0  0  0  0  0  0  0  # atno 17394 bound_to 11000
  141.1131  133.6636  156.3028 LP  0  0  0  0  0  0  0  0  0  0  0  0  # atno 17395 bound_to 11000

$$$$
