AV-unprocessed.smi:2519|AV-procd|sdf|9906|dock3
  -GOLD-   2272013543D 1   1.00000     0.00000
 Structure written by MMmdl.
 43 44  0  0  0  0  0  0  0  0  1 V2000
  150.8319  143.3548  158.3078 C   0  0  0  0  0  0  0  0  0  0  0  0
  151.0604  142.2103  157.4398 N   0  0  0  0  0  0  0  0  0  0  0  0
  150.0902  141.5255  156.8117 C   0  0  0  0  0  0  0  0  0  0  0  0
  148.8951  141.8037  156.9202 O   0  0  0  0  0  0  0  0  0  0  0  0
  150.5432  140.3623  155.9679 C   0  0  0  0  0  0  0  0  0  0  0  0
  151.9218  140.1259  155.7691 C   0  0  0  0  0  0  0  0  0  0  0  0
  152.3129  139.0286  154.9815 C   0  0  0  0  0  0  0  0  0  0  0  0
  151.3196  138.2059  154.4193 C   0  0  0  0  0  0  0  0  0  0  0  0
  149.9607  138.5016  154.6593 C   0  0  0  0  0  0  0  0  0  0  0  0
  149.0328  137.6220  154.0433 N   0  0  0  0  0  0  0  0  0  0  0  0
  147.7420  137.4083  154.3681 C   0  0  0  0  0  0  0  0  0  0  0  0
  147.1692  137.9132  155.3323 O   0  0  0  0  0  0  0  0  0  0  0  0
  147.0950  136.5689  153.5387 N   0  0  0  0  0  0  0  0  0  0  0  0
  145.6999  136.1184  153.5923 C   0  0  1  0  0  0  0  0  0  0  0  0
  144.8381  136.9630  152.6343 C   0  0  0  0  0  0  0  0  0  0  0  0
  145.1420  136.6566  151.1578 C   0  0  0  0  0  0  0  0  0  0  0  0
  144.9985  135.1568  150.8545 C   0  0  0  0  0  0  0  0  0  0  0  0
  145.8854  134.2989  151.7811 C   0  0  2  0  0  0  0  0  0  0  0  0
  145.7584  132.7926  151.4739 C   0  0  0  0  0  0  0  0  0  0  0  0
  146.5546  132.0769  152.2687 F   0  0  0  0  0  0  0  0  0  0  0  0
  144.4990  132.3940  151.6536 F   0  0  0  0  0  0  0  0  0  0  0  0
  146.0914  132.5567  150.2049 F   0  0  0  0  0  0  0  0  0  0  0  0
  145.5653  134.6146  153.2593 C   0  0  0  0  0  0  0  0  0  0  0  0
  149.5969  139.5604  155.4225 N   0  0  0  0  0  0  0  0  0  0  0  0
  151.7824  143.7230  158.6934 H   0  0  0  0  0  0  0  0  0  0  0  0
  150.2028  143.0799  159.1554 H   0  0  0  0  0  0  0  0  0  0  0  0
  150.3477  144.1654  157.7618 H   0  0  0  0  0  0  0  0  0  0  0  0
  152.0162  141.9142  157.2998 H   0  0  0  0  0  0  0  0  0  0  0  0
  152.6719  140.7682  156.2074 H   0  0  0  0  0  0  0  0  0  0  0  0
  153.3589  138.8217  154.8097 H   0  0  0  0  0  0  0  0  0  0  0  0
  151.6027  137.3603  153.8092 H   0  0  0  0  0  0  0  0  0  0  0  0
  149.3772  137.1241  153.2357 H   0  0  0  0  0  0  0  0  0  0  0  0
  147.6426  136.1879  152.7805 H   0  0  0  0  0  0  0  0  0  0  0  0
  145.3249  136.2899  154.6027 H   0  0  0  0  0  0  0  0  0  0  0  0
  143.7842  136.7589  152.8287 H   0  0  0  0  0  0  0  0  0  0  0  0
  144.9812  138.0260  152.8335 H   0  0  0  0  0  0  0  0  0  0  0  0
  144.4706  137.2283  150.5166 H   0  0  0  0  0  0  0  0  0  0  0  0
  146.1527  136.9845  150.9116 H   0  0  0  0  0  0  0  0  0  0  0  0
  143.9542  134.8633  150.9670 H   0  0  0  0  0  0  0  0  0  0  0  0
  145.2585  134.9742  149.8116 H   0  0  0  0  0  0  0  0  0  0  0  0
  146.9242  134.5768  151.5959 H   0  0  0  0  0  0  0  0  0  0  0  0
  146.2039  134.0224  153.9147 H   0  0  0  0  0  0  0  0  0  0  0  0
  144.5448  134.2982  153.4785 H   0  0  0  0  0  0  0  0  0  0  0  0
  1  2  1  0  0  0  0
  1 25  1  0  0  0  0
  1 26  1  0  0  0  0
  1 27  1  0  0  0  0
  2  3  1  0  0  0  0
  2 28  1  0  0  0  0
  3  4  2  0  0  0  0
  3  5  1  0  0  0  0
  5 24  1  0  0  0  0
  5  6  2  0  0  0  0
  6  7  1  0  0  0  0
  6 29  1  0  0  0  0
  7  8  2  0  0  0  0
  7 30  1  0  0  0  0
  8  9  1  0  0  0  0
  8 31  1  0  0  0  0
  9 10  1  0  0  0  0
  9 24  2  0  0  0  0
 10 11  1  0  0  0  0
 10 32  1  0  0  0  0
 11 12  2  0  0  0  0
 11 13  1  0  0  0  0
 13 14  1  0  0  0  0
 13 33  1  0  0  0  0
 14 23  1  0  0  0  0
 14 15  1  0  0  0  0
 14 34  1  0  0  0  0
 15 16  1  0  0  0  0
 15 35  1  0  0  0  0
 15 36  1  0  0  0  0
 16 17  1  0  0  0  0
 16 37  1  0  0  0  0
 16 38  1  0  0  0  0
 17 18  1  0  0  0  0
 17 39  1  0  0  0  0
 17 40  1  0  0  0  0
 18 19  1  0  0  0  0
 18 23  1  0  0  0  0
 18 41  1  0  0  0  0
 19 20  1  0  0  0  0
 19 21  1  0  0  0  0
 19 22  1  0  0  0  0
 23 42  1  0  0  0  0
 23 43  1  0  0  0  0
M  END
> <s_m_source_file>
AV-unprocessed.smi

> <i_m_source_file_index>
2519

> <i_lp_mmshare_version>
43012

> <i_f3d_flags>
0

> <s_epik_input>
W0NIM11bTkhdQyg9TyljMVtjSF1bY0hdW2NIXWMobjEpW05IXUMoPU8pW05IXVtDQEBIXTJbQ0gyXVtDSDJdW0NIMl1bQ0BASF0oQyhGKShGKUYpW0NIMl0y

> <s_epik_cmdline>
J2VwaWtfcHl0aG9uJywgJy1waCcsICc3LjAnLCAnLXRuJywgJzgnLCAnLW1hJywgJzIwMCcsICctbWV0YWxfYmluZGluZycsICctaW1hZScsICc8aW5maWxlLm1hZT4nLCAnLW9tYWUnLCAnPG91dGZpbGUubWFlPic=

> <r_lp_tautomer_probability>
1

> <r_epik_Ionization_Penalty>
3.74915e-05

> <r_epik_Ionization_Penalty_Charging>
0

> <r_epik_Ionization_Penalty_Neutral>
3.74915e-05

> <r_epik_State_Penalty>
-0

> <r_epik_Charging_Adjusted_Penalty>
0

> <i_epik_Tot_Q>
0

> <i_epik_Tot_abs_Q>
0

> <r_epik_Metal_State_Penalty>
-0

> <b_epik_Metal_Only>
0

> <s_lp_Force_Field>
OPLS_2005

> <r_lp_Energy>
26.6361

> <b_lp_Chiralities_Consistent>
1

> <s_lp_Variant>
AV-unprocessed.smi:2519-4

> <Gold.Version>
5.8.1

> <Gold.Id.Protein>
6NUR|6NUR_protein|mol2

> <Gold.PLP.Fitness>
41.5626

> <Gold.PLP.PLP>
-36.4702

> <Gold.PLP.part.hbond>
-1.9997

> <Gold.PLP.part.metal>
0.0000

> <Gold.PLP.part.buried>
-1.7210

> <Gold.PLP.part.nonpolar>
-34.4656

> <Gold.PLP.part.repulsive>
0.2500

> <Gold.PLP.ligand.clash>
0.0000

> <Gold.PLP.ligand.torsion>
0.4086

> <Gold.PLP.Chemscore.Hbond>
1.9600

> <Gold.PLP.Chemscore.CHOScore>
0.0000

> <Gold.PLP.Chemscore.Metal>
0.0000

> <Gold.Chemscore.Hbonds>
donor molecule, donor type, donor heavy atom, donor atom, acceptor molecule, acceptor atom, score
      L1  H    10    32       P1  7948  0.94
      L1  H    13    33       P1  7948  1.00

> <Gold.PLP.Chemscore.Internal.Correction>
0.0296

> <Gold.Rescore>
     Score         DG    S(hbond)    S(metal)    S(lipo)     H(rot)  DE(clash)    DE(int)     intcor
     14.78     -17.19       1.94        0.00      66.72       1.00       0.93       1.48       ----

> <Gold.Chemscore.Fitness>
14.7833

> <Gold.Chemscore.DG>
-17.1911

> <Gold.Chemscore.ZeroCoef>
-5.4800

> <Gold.Chemscore.Hbond>
1.9357

> <Gold.Chemscore.Metal>
0.0000

> <Gold.Chemscore.Lipo>
66.7173

> <Gold.Chemscore.Internal_Hbond>
0.0000

> <Gold.Chemscore.DEClash>
0.9291

> <Gold.Chemscore.DEInternal>
1.4787

> <Gold.Chemscore.Rot>
1.0000

> <Gold.Chemscore.Internal.Correction>
   9.000000E+99

> <Gold.Chemscore.Hbonds>
donor molecule, donor type, donor heavy atom, donor atom, acceptor molecule, acceptor atom, score
      L1  H    10    32       P1  7948  0.86
      L1  H    13    33       P1  7948  0.94

> <Gold.Chemscore.Hbond.Weighted>
-6.4651

> <Gold.Chemscore.Metal.Weighted>
-0.0000

> <Gold.Chemscore.Lipo.Weighted>
-7.8059

> <Gold.Chemscore.Internal_Hbond.Weighted>
0.0000

> <Gold.Chemscore.DEClash.Weighted>
0.9291

> <Gold.Chemscore.DEInternal.Weighted>
1.4787

> <Gold.Chemscore.Rot.Weighted>
2.5600

> <Gold.Chemscore.Internal.Correction.Weighted>
   9.000000E+99

> <Gold.Protein.RotatedTorsions>
[ 6907 6896 6895 6894 ] final  -78.36 input  -60.11 | X-H torsion
[ 7974 7965 7964 7962 ] final    9.96 input  175.53 | X-H torsion
[ 8008 7997 7996 7995 ] final  152.95 input   59.86 | X-H torsion
[ 10167 10162 10161 10158 ] final -155.08 input  -65.29 | X-H torsion
[ 10718 10713 10712 10709 ] final  138.15 input   66.30 | X-H torsion
[ 10763 10752 10751 10750 ] final  -81.73 input  -60.55 | X-H torsion
[ 11005 11000 10999 10996 ] final   87.13 input  -57.11 | X-H torsion

> <Gold.Protein.ActiveResidues>
 VAL166  LYS551  ARG553  GLY616  TRP617  ASP618  TYR619  PRO620  LYS621  CYS622 
 ASP623  PHE694  ASN695  SER759  ASP760  ASP761  ALA762  ILE779  LEU786  VAL792 
 PHE793  MET794  SER795  GLU796  ALA797  LYS798  CYS799  TRP800  GLU811  SER814 

> <Gold.Protein.RotatedAtoms>
  150.6975  134.4284  159.5236 H   0  0  0  0  0  0  0  0  0  0  0  0  # atno 6907 bound_to 6896
  152.2015  134.8581  160.0516 H   0  0  0  0  0  0  0  0  0  0  0  0  # atno 6908 bound_to 6896
  151.9499  133.3628  159.4033 H   0  0  0  0  0  0  0  0  0  0  0  0  # atno 6909 bound_to 6896
  146.2396  139.9706  142.8447 H   0  0  0  0  0  0  0  0  0  0  0  0  # atno 7974 bound_to 7965
  156.2605  140.2007  156.6414 H   0  0  0  0  0  0  0  0  0  0  0  0  # atno 8008 bound_to 7997
  154.6606  140.0561  157.0083 H   0  0  0  0  0  0  0  0  0  0  0  0  # atno 8009 bound_to 7997
  155.1282  140.3231  155.4483 H   0  0  0  0  0  0  0  0  0  0  0  0  # atno 8010 bound_to 7997
  139.6960  143.9341  152.2407 H   0  0  0  0  0  0  0  0  0  0  0  0  # atno 10167 bound_to 10162
  157.4285  131.1046  151.0276 H   0  0  0  0  0  0  0  0  0  0  0  0  # atno 10718 bound_to 10713
  154.5671  135.5616  153.7060 H   0  0  0  0  0  0  0  0  0  0  0  0  # atno 10763 bound_to 10752
  153.0036  135.6288  154.2165 H   0  0  0  0  0  0  0  0  0  0  0  0  # atno 10764 bound_to 10752
  154.2104  135.2874  155.2940 H   0  0  0  0  0  0  0  0  0  0  0  0  # atno 10765 bound_to 10752
  139.8927  134.8402  156.2817 H   0  0  0  0  0  0  0  0  0  0  0  0  # atno 11005 bound_to 11000
  145.1685  140.9709  143.4336 LP  0  0  0  0  0  0  0  0  0  0  0  0  # atno 17320 bound_to 7965
  145.0050  139.3562  143.6148 LP  0  0  0  0  0  0  0  0  0  0  0  0  # atno 17321 bound_to 7965
  139.9171  144.6822  150.8501 LP  0  0  0  0  0  0  0  0  0  0  0  0  # atno 17342 bound_to 10162
  140.7696  143.3402  151.2225 LP  0  0  0  0  0  0  0  0  0  0  0  0  # atno 17343 bound_to 10162
  157.1181  130.6050  149.5498 LP  0  0  0  0  0  0  0  0  0  0  0  0  # atno 17370 bound_to 10713
  155.9905  130.4956  150.7258 LP  0  0  0  0  0  0  0  0  0  0  0  0  # atno 17371 bound_to 10713
  141.0034  133.7138  156.0997 LP  0  0  0  0  0  0  0  0  0  0  0  0  # atno 17394 bound_to 11000
  140.7466  134.4091  157.5547 LP  0  0  0  0  0  0  0  0  0  0  0  0  # atno 17395 bound_to 11000

$$$$
