AV-unprocessed.smi:1000|AV-procd|sdf|4355|dock7
  -GOLD-   22720 2253D 1   1.00000     0.00000
 Structure written by MMmdl.
 40 41  0  0  0  0  0  0  0  0  1 V2000
  153.7002  132.4951  163.7830 C   0  0  0  0  0  0  0  0  0  0  0  0
  154.1942  133.3401  162.2078 S   0  0  2  0  0  0  0  0  0  0  0  0
  155.6890  133.0840  162.0067 O   0  0  0  0  0  0  0  0  0  0  0  0
  154.1155  135.0268  162.9063 C   0  0  0  0  0  0  0  0  0  0  0  0
  153.9439  135.2870  164.2057 N   0  0  0  0  0  0  0  0  0  0  0  0
  153.9439  136.6661  164.2958 N   0  0  0  0  0  0  0  0  0  0  0  0
  154.1151  137.0880  163.0414 C   0  0  0  0  0  0  0  0  0  0  0  0
  154.2317  136.1158  162.1230 N   0  0  0  0  0  0  0  0  0  0  0  0
  154.4297  136.2374  160.6878 C   0  0  0  0  0  0  0  0  0  0  0  0
  153.6215  137.3986  160.1055 C   0  0  0  0  0  0  0  0  0  0  0  0
  152.6586  137.1676  159.3749 O   0  0  0  0  0  0  0  0  0  0  0  0
  154.0287  138.6375  160.4230 N   0  0  0  0  0  0  0  0  0  0  0  0
  153.4449  139.8677  159.9039 C   0  0  0  0  0  0  0  0  0  0  0  0
  153.9658  141.0955  160.6714 C   0  0  0  0  0  0  0  0  0  0  0  0
  153.1845  142.3608  160.3598 C   0  0  0  0  0  0  0  0  0  0  0  0
  152.4053  142.9619  161.2801 C   0  0  0  0  0  0  0  0  0  0  0  0
  151.6145  144.2339  161.0297 C   0  0  0  0  0  0  0  0  0  0  0  0
  152.0534  144.9541  159.7436 C   0  0  0  0  0  0  0  0  0  0  0  0
  152.2606  143.9592  158.5948 C   0  0  0  0  0  0  0  0  0  0  0  0
  153.3332  142.9125  158.9463 C   0  0  0  0  0  0  0  0  0  0  0  0
  153.0315  133.1228  164.3725 H   0  0  0  0  0  0  0  0  0  0  0  0
  154.5824  132.2685  164.3816 H   0  0  0  0  0  0  0  0  0  0  0  0
  153.1846  131.5615  163.5589 H   0  0  0  0  0  0  0  0  0  0  0  0
  154.1601  138.1369  162.7872 H   0  0  0  0  0  0  0  0  0  0  0  0
  155.4932  136.3771  160.4895 H   0  0  0  0  0  0  0  0  0  0  0  0
  154.1314  135.3061  160.2045 H   0  0  0  0  0  0  0  0  0  0  0  0
  154.8268  138.7343  161.0341 H   0  0  0  0  0  0  0  0  0  0  0  0
  153.6545  139.9645  158.8371 H   0  0  0  0  0  0  0  0  0  0  0  0
  152.3622  139.7896  160.0030 H   0  0  0  0  0  0  0  0  0  0  0  0
  153.9223  140.9137  161.7461 H   0  0  0  0  0  0  0  0  0  0  0  0
  155.0181  141.2579  160.4328 H   0  0  0  0  0  0  0  0  0  0  0  0
  152.3097  142.5317  162.2664 H   0  0  0  0  0  0  0  0  0  0  0  0
  150.5589  143.9672  160.9708 H   0  0  0  0  0  0  0  0  0  0  0  0
  151.7263  144.9010  161.8846 H   0  0  0  0  0  0  0  0  0  0  0  0
  151.3148  145.7072  159.4674 H   0  0  0  0  0  0  0  0  0  0  0  0
  152.9867  145.4886  159.9253 H   0  0  0  0  0  0  0  0  0  0  0  0
  151.3165  143.4556  158.3828 H   0  0  0  0  0  0  0  0  0  0  0  0
  152.5405  144.4861  157.6820 H   0  0  0  0  0  0  0  0  0  0  0  0
  154.3236  143.3597  158.8582 H   0  0  0  0  0  0  0  0  0  0  0  0
  153.2910  142.0933  158.2275 H   0  0  0  0  0  0  0  0  0  0  0  0
  1  2  1  0  0  0  0
  1 21  1  0  0  0  0
  1 22  1  0  0  0  0
  1 23  1  0  0  0  0
  2  3  2  0  0  0  0
  2  4  1  0  0  0  0
  4  8  1  0  0  0  0
  4  5  2  0  0  0  0
  5  6  1  0  0  0  0
  6  7  2  0  0  0  0
  7  8  1  0  0  0  0
  7 24  1  0  0  0  0
  8  9  1  0  0  0  0
  9 10  1  0  0  0  0
  9 25  1  0  0  0  0
  9 26  1  0  0  0  0
 10 11  2  0  0  0  0
 10 12  1  0  0  0  0
 12 13  1  0  0  0  0
 12 27  1  0  0  0  0
 13 14  1  0  0  0  0
 13 28  1  0  0  0  0
 13 29  1  0  0  0  0
 14 15  1  0  0  0  0
 14 30  1  0  0  0  0
 14 31  1  0  0  0  0
 15 20  1  0  0  0  0
 15 16  2  0  0  0  0
 16 17  1  0  0  0  0
 16 32  1  0  0  0  0
 17 18  1  0  0  0  0
 17 33  1  0  0  0  0
 17 34  1  0  0  0  0
 18 19  1  0  0  0  0
 18 35  1  0  0  0  0
 18 36  1  0  0  0  0
 19 20  1  0  0  0  0
 19 37  1  0  0  0  0
 19 38  1  0  0  0  0
 20 39  1  0  0  0  0
 20 40  1  0  0  0  0
M  END
> <s_m_source_file>
AV-unprocessed.smi

> <i_m_source_file_index>
1000

> <i_lp_mmshare_version>
43012

> <i_f3d_flags>
0

> <s_epik_input>
W0NIM11bU0BdKD1PKWMxbm5bY0hdbjFbQ0gyXUMoPU8pW05IXVtDSDJdW0NIMl1DMj1bQ0hdW0NIMl1bQ0gyXVtDSDJdW0NIMl0y

> <s_epik_cmdline>
J2VwaWtfcHl0aG9uJywgJy1waCcsICc3LjAnLCAnLXRuJywgJzgnLCAnLW1hJywgJzIwMCcsICctbWV0YWxfYmluZGluZycsICctaW1hZScsICc8aW5maWxlLm1hZT4nLCAnLW9tYWUnLCAnPG91dGZpbGUubWFlPic=

> <r_lp_tautomer_probability>
1

> <r_epik_Ionization_Penalty>
9.22166e-08

> <r_epik_Ionization_Penalty_Charging>
0

> <r_epik_Ionization_Penalty_Neutral>
9.22166e-08

> <r_epik_State_Penalty>
-0

> <r_epik_Charging_Adjusted_Penalty>
0

> <i_epik_Tot_Q>
0

> <i_epik_Tot_abs_Q>
0

> <r_epik_Metal_State_Penalty>
-0

> <b_epik_Metal_Only>
0

> <s_lp_Force_Field>
OPLS_2005

> <r_lp_Energy>
5.87902

> <b_lp_Chiralities_Consistent>
1

> <s_lp_Variant>
AV-unprocessed.smi:1000-1

> <Gold.Version>
5.8.1

> <Gold.Id.Protein>
6NUR|6NUR_protein|mol2

> <Gold.PLP.Fitness>
45.5782

> <Gold.PLP.PLP>
-44.1035

> <Gold.PLP.part.hbond>
-0.9306

> <Gold.PLP.part.metal>
0.0000

> <Gold.PLP.part.buried>
-5.8548

> <Gold.PLP.part.nonpolar>
-38.6356

> <Gold.PLP.part.repulsive>
0.3742

> <Gold.PLP.ligand.clash>
0.0000

> <Gold.PLP.ligand.torsion>
1.2856

> <Gold.PLP.Chemscore.Hbond>
0.9750

> <Gold.PLP.Chemscore.CHOScore>
0.0000

> <Gold.PLP.Chemscore.Metal>
0.0000

> <Gold.Chemscore.Hbonds>
donor molecule, donor type, donor heavy atom, donor atom, acceptor molecule, acceptor atom, score
      P1  H  6896  6908       L1    11  0.34

> <Gold.PLP.Chemscore.Internal.Correction>
1.1210

> <Gold.Rescore>
     Score         DG    S(hbond)    S(metal)    S(lipo)     H(rot)  DE(clash)    DE(int)     intcor
     13.55     -14.77       0.97        0.00     101.16       2.26       0.05       1.17       ----

> <Gold.Chemscore.Fitness>
13.5535

> <Gold.Chemscore.DG>
-14.7659

> <Gold.Chemscore.ZeroCoef>
-5.4800

> <Gold.Chemscore.Hbond>
0.9719

> <Gold.Chemscore.Metal>
0.0000

> <Gold.Chemscore.Lipo>
101.1589

> <Gold.Chemscore.Internal_Hbond>
0.0000

> <Gold.Chemscore.DEClash>
0.0473

> <Gold.Chemscore.DEInternal>
1.1652

> <Gold.Chemscore.Rot>
2.2640

> <Gold.Chemscore.Internal.Correction>
   9.000000E+99

> <Gold.Chemscore.Hbonds>
donor molecule, donor type, donor heavy atom, donor atom, acceptor molecule, acceptor atom, score
      P1  H  6896  6908       L1    11  0.21

> <Gold.Chemscore.Hbond.Weighted>
-3.2461

> <Gold.Chemscore.Metal.Weighted>
-0.0000

> <Gold.Chemscore.Lipo.Weighted>
-11.8356

> <Gold.Chemscore.Internal_Hbond.Weighted>
0.0000

> <Gold.Chemscore.DEClash.Weighted>
0.0473

> <Gold.Chemscore.DEInternal.Weighted>
1.1652

> <Gold.Chemscore.Rot.Weighted>
5.7957

> <Gold.Chemscore.Internal.Correction.Weighted>
   9.000000E+99

> <Gold.Protein.RotatedTorsions>
[ 6907 6896 6895 6894 ] final -106.34 input  -60.11 | X-H torsion
[ 7974 7965 7964 7962 ] final  156.19 input  175.53 | X-H torsion
[ 8008 7997 7996 7995 ] final  -78.95 input   59.86 | X-H torsion
[ 10167 10162 10161 10158 ] final  -81.50 input  -65.29 | X-H torsion
[ 10718 10713 10712 10709 ] final -145.97 input   66.30 | X-H torsion
[ 10763 10752 10751 10750 ] final  -11.89 input  -60.55 | X-H torsion
[ 11005 11000 10999 10996 ] final -131.63 input  -57.11 | X-H torsion

> <Gold.Protein.ActiveResidues>
 VAL166  LYS551  ARG553  GLY616  TRP617  ASP618  TYR619  PRO620  LYS621  CYS622 
 ASP623  PHE694  ASN695  SER759  ASP760  ASP761  ALA762  ILE779  LEU786  VAL792 
 PHE793  MET794  SER795  GLU796  ALA797  LYS798  CYS799  TRP800  GLU811  SER814 

> <Gold.Protein.RotatedAtoms>
  150.7384  133.9990  159.3631 H   0  0  0  0  0  0  0  0  0  0  0  0  # atno 6907 bound_to 6896
  151.7943  135.0725  160.0401 H   0  0  0  0  0  0  0  0  0  0  0  0  # atno 6908 bound_to 6896
  152.3186  133.5792  159.5765 H   0  0  0  0  0  0  0  0  0  0  0  0  # atno 6909 bound_to 6896
  144.7978  139.7170  143.6194 H   0  0  0  0  0  0  0  0  0  0  0  0  # atno 7974 bound_to 7965
  154.5738  140.0686  156.9004 H   0  0  0  0  0  0  0  0  0  0  0  0  # atno 8008 bound_to 7997
  155.2585  140.3357  155.4257 H   0  0  0  0  0  0  0  0  0  0  0  0  # atno 8009 bound_to 7997
  156.2139  140.1770  156.7619 H   0  0  0  0  0  0  0  0  0  0  0  0  # atno 8010 bound_to 7997
  140.4406  143.2516  151.8631 H   0  0  0  0  0  0  0  0  0  0  0  0  # atno 10167 bound_to 10162
  156.3891  130.7876  151.2077 H   0  0  0  0  0  0  0  0  0  0  0  0  # atno 10718 bound_to 10713
  153.4903  135.7017  153.5888 H   0  0  0  0  0  0  0  0  0  0  0  0  # atno 10763 bound_to 10752
  153.4063  135.3859  155.2021 H   0  0  0  0  0  0  0  0  0  0  0  0  # atno 10764 bound_to 10752
  154.8717  135.3893  154.4363 H   0  0  0  0  0  0  0  0  0  0  0  0  # atno 10765 bound_to 10752
  140.9241  134.1405  157.4290 H   0  0  0  0  0  0  0  0  0  0  0  0  # atno 11005 bound_to 11000
  146.2251  139.5708  142.9592 LP  0  0  0  0  0  0  0  0  0  0  0  0  # atno 17320 bound_to 7965
  145.5629  141.0402  143.2216 LP  0  0  0  0  0  0  0  0  0  0  0  0  # atno 17321 bound_to 7965
  139.4789  144.5233  151.8771 LP  0  0  0  0  0  0  0  0  0  0  0  0  # atno 17342 bound_to 10162
  140.4323  144.2099  150.5888 LP  0  0  0  0  0  0  0  0  0  0  0  0  # atno 17343 bound_to 10162
  157.7498  131.0321  150.4211 LP  0  0  0  0  0  0  0  0  0  0  0  0  # atno 17370 bound_to 10713
  156.4469  130.4003  149.6661 LP  0  0  0  0  0  0  0  0  0  0  0  0  # atno 17371 bound_to 10713
  139.8781  134.9982  156.5887 LP  0  0  0  0  0  0  0  0  0  0  0  0  # atno 17394 bound_to 11000
  140.7949  133.8552  155.8677 LP  0  0  0  0  0  0  0  0  0  0  0  0  # atno 17395 bound_to 11000

$$$$
