AV-unprocessed.smi:1780|AV-procd|sdf|7185|dock1
  -GOLD-   22720 8423D 1   1.00000     0.00000
 Structure written by MMmdl.
 44 45  0  0  0  0  0  0  0  0  2 V2000
  136.8336  140.0282  153.8877 C   0  0  0  0  0  0  0  0  0  0  0  0
  137.3643  138.9114  154.7942 C   0  0  0  0  0  0  0  0  0  0  0  0
  138.6260  138.3825  154.3138 N   0  0  0  0  0  0  0  0  0  0  0  0
  139.7930  139.0705  154.0466 C   0  0  0  0  0  0  0  0  0  0  0  0
  140.6866  138.1299  153.6184 C   0  0  0  0  0  0  0  0  0  0  0  0
  142.0366  138.2890  153.2149 N   0  0  0  0  0  0  0  0  0  0  0  0
  142.9618  137.3269  153.0670 C   0  0  0  0  0  0  0  0  0  0  0  0
  142.7828  136.1296  153.2917 O   0  0  0  0  0  0  0  0  0  0  0  0
  144.1272  137.8320  152.6383 N   0  0  0  0  0  0  0  0  0  0  0  0
  145.3265  137.0473  152.3571 C   0  0  0  0  0  0  0  0  0  0  0  0
  145.7611  136.1404  153.5436 C   0  0  2  0  0  0  0  0  0  0  0  0
  146.4686  136.9854  154.6287 C   0  0  0  0  0  0  0  0  0  0  0  0
  146.6286  134.9876  153.1299 N   0  3  0  0  0  0  0  0  0  0  0  0
  147.2017  134.2537  154.2922 C   0  0  0  0  0  0  0  0  0  0  0  0
  148.1420  133.1274  153.8335 C   0  0  0  0  0  0  0  0  0  0  0  0
  147.4343  132.2339  152.9879 O   0  0  0  0  0  0  0  0  0  0  0  0
  146.9705  132.8871  151.8164 C   0  0  0  0  0  0  0  0  0  0  0  0
  145.9958  134.0157  152.1948 C   0  0  0  0  0  0  0  0  0  0  0  0
  139.9915  136.8929  153.6501 C   0  0  0  0  0  0  0  0  0  0  0  0
  138.7464  137.0536  154.0720 N   0  0  0  0  0  0  0  0  0  0  0  0
  135.8947  140.4264  154.2721 H   0  0  0  0  0  0  0  0  0  0  0  0
  136.6508  139.6639  152.8765 H   0  0  0  0  0  0  0  0  0  0  0  0
  137.5438  140.8531  153.8238 H   0  0  0  0  0  0  0  0  0  0  0  0
  137.5072  139.2865  155.8082 H   0  0  0  0  0  0  0  0  0  0  0  0
  136.6417  138.0965  154.8567 H   0  0  0  0  0  0  0  0  0  0  0  0
  139.8728  140.1387  154.1835 H   0  0  0  0  0  0  0  0  0  0  0  0
  142.3209  139.2333  152.9992 H   0  0  0  0  0  0  0  0  0  0  0  0
  144.1857  138.8277  152.4816 H   0  0  0  0  0  0  0  0  0  0  0  0
  145.1200  136.4613  151.4606 H   0  0  0  0  0  0  0  0  0  0  0  0
  146.1288  137.7404  152.1018 H   0  0  0  0  0  0  0  0  0  0  0  0
  144.8522  135.7204  153.9776 H   0  0  0  0  0  0  0  0  0  0  0  0
  145.8516  137.8209  154.9590 H   0  0  0  0  0  0  0  0  0  0  0  0
  147.4060  137.3986  154.2552 H   0  0  0  0  0  0  0  0  0  0  0  0
  146.6929  136.4151  155.5280 H   0  0  0  0  0  0  0  0  0  0  0  0
  147.7651  134.9201  154.9421 H   0  0  0  0  0  0  0  0  0  0  0  0
  146.3930  133.8345  154.8931 H   0  0  0  0  0  0  0  0  0  0  0  0
  149.0140  133.5312  153.3164 H   0  0  0  0  0  0  0  0  0  0  0  0
  148.5123  132.5738  154.6966 H   0  0  0  0  0  0  0  0  0  0  0  0
  147.8136  133.2772  151.2440 H   0  0  0  0  0  0  0  0  0  0  0  0
  146.4685  132.1564  151.1818 H   0  0  0  0  0  0  0  0  0  0  0  0
  145.0972  133.5987  152.6523 H   0  0  0  0  0  0  0  0  0  0  0  0
  145.6984  134.5039  151.2676 H   0  0  0  0  0  0  0  0  0  0  0  0
  140.3408  135.9051  153.3886 H   0  0  0  0  0  0  0  0  0  0  0  0
  147.4064  135.3870  152.6241 H   0  0  0  0  0  0  0  0  0  0  0  0
  1  2  1  0  0  0  0
  1 21  1  0  0  0  0
  1 22  1  0  0  0  0
  1 23  1  0  0  0  0
  2  3  1  0  0  0  0
  2 24  1  0  0  0  0
  2 25  1  0  0  0  0
  3 20  1  0  0  0  0
  3  4  1  0  0  0  0
  4  5  2  0  0  0  0
  4 26  1  0  0  0  0
  5  6  1  0  0  0  0
  5 19  1  0  0  0  0
  6  7  1  0  0  0  0
  6 27  1  0  0  0  0
  7  8  2  0  0  0  0
  7  9  1  0  0  0  0
  9 10  1  0  0  0  0
  9 28  1  0  0  0  0
 10 11  1  0  0  0  0
 10 29  1  0  0  0  0
 10 30  1  0  0  0  0
 11 12  1  0  0  0  0
 11 13  1  0  0  0  0
 11 31  1  0  0  0  0
 12 32  1  0  0  0  0
 12 33  1  0  0  0  0
 12 34  1  0  0  0  0
 13 18  1  0  0  0  0
 13 14  1  0  0  0  0
 13 44  1  0  0  0  0
 14 15  1  0  0  0  0
 14 35  1  0  0  0  0
 14 36  1  0  0  0  0
 15 16  1  0  0  0  0
 15 37  1  0  0  0  0
 15 38  1  0  0  0  0
 16 17  1  0  0  0  0
 17 18  1  0  0  0  0
 17 39  1  0  0  0  0
 17 40  1  0  0  0  0
 18 41  1  0  0  0  0
 18 42  1  0  0  0  0
 19 20  2  0  0  0  0
 19 43  1  0  0  0  0
M  CHG  1  13   1
M  END
> <s_m_source_file>
AV-unprocessed.smi

> <i_m_source_file_index>
1780

> <i_lp_mmshare_version>
43012

> <i_f3d_flags>
0

> <s_epik_input>
W0NIM11bQ0gyXW4xW2NIXWMoW2NIXW4xKVtOSF1DKD1PKVtOSF1bQ0gyXVtDQEhdKFtDSDNdKU4yW0NIMl1bQ0gyXU9bQ0gyXVtDSDJdMg==

> <s_epik_cmdline>
J2VwaWtfcHl0aG9uJywgJy1waCcsICc3LjAnLCAnLXRuJywgJzgnLCAnLW1hJywgJzIwMCcsICctbWV0YWxfYmluZGluZycsICctaW1hZScsICc8aW5maWxlLm1hZT4nLCAnLW9tYWUnLCAnPG91dGZpbGUubWFlPic=

> <r_lp_tautomer_probability>
1

> <r_epik_Ionization_Penalty>
0.64612

> <r_epik_Ionization_Penalty_Charging>
0.645968

> <r_epik_Ionization_Penalty_Neutral>
0.000152026

> <r_epik_State_Penalty>
0.664063

> <r_epik_Charging_Adjusted_Penalty>
1.31003

> <i_epik_Tot_Q>
1

> <i_epik_Tot_abs_Q>
1

> <r_epik_Metal_State_Penalty>
0.664075

> <b_epik_Metal_Only>
0

> <s_lp_Force_Field>
OPLS_2005

> <r_lp_Energy>
24.4997

> <b_lp_Chiralities_Consistent>
1

> <s_lp_Variant>
AV-unprocessed.smi:1780-3

> <Gold.Version>
5.8.1

> <Gold.Id.Protein>
6NUR|6NUR_protein|mol2

> <Gold.PLP.Fitness>
40.7788

> <Gold.PLP.PLP>
-28.6704

> <Gold.PLP.part.hbond>
-4.0000

> <Gold.PLP.part.metal>
0.0000

> <Gold.PLP.part.buried>
-3.8854

> <Gold.PLP.part.nonpolar>
-22.0597

> <Gold.PLP.part.repulsive>
0.4620

> <Gold.PLP.ligand.clash>
0.0000

> <Gold.PLP.ligand.torsion>
0.3451

> <Gold.PLP.Chemscore.Hbond>
3.9920

> <Gold.PLP.Chemscore.CHOScore>
0.2462

> <Gold.PLP.Chemscore.Metal>
0.0000

> <Gold.Chemscore.Hbonds>
donor molecule, donor type, donor heavy atom, donor atom, acceptor molecule, acceptor atom, score
      L1  H     6    27       P1 10175  1.00
      L1  H     9    28       P1 10175  1.00
      L1  H    13    44       P1  7948  2.00

> <Gold.PLP.Chemscore.Internal.Correction>
0.0839

> <Gold.Rescore>
     Score         DG    S(hbond)    S(metal)    S(lipo)     H(rot)  DE(clash)    DE(int)     intcor
     15.83     -18.50       2.93        0.00      64.28       1.67       0.19       2.47       ----

> <Gold.Chemscore.Fitness>
15.8316

> <Gold.Chemscore.DG>
-18.4992

> <Gold.Chemscore.ZeroCoef>
-5.4800

> <Gold.Chemscore.Hbond>
2.9270

> <Gold.Chemscore.Metal>
0.0000

> <Gold.Chemscore.Lipo>
64.2769

> <Gold.Chemscore.Internal_Hbond>
0.0000

> <Gold.Chemscore.DEClash>
0.1928

> <Gold.Chemscore.DEInternal>
2.4749

> <Gold.Chemscore.Rot>
1.6708

> <Gold.Chemscore.Internal.Correction>
   9.000000E+99

> <Gold.Chemscore.Hbonds>
donor molecule, donor type, donor heavy atom, donor atom, acceptor molecule, acceptor atom, score
      L1  H     6    27       P1 10175  0.95
      L1  H     9    28       P1 10175  0.99
      L1  H    13    44       P1  7948  1.00

> <Gold.Chemscore.Hbond.Weighted>
-9.7761

> <Gold.Chemscore.Metal.Weighted>
-0.0000

> <Gold.Chemscore.Lipo.Weighted>
-7.5204

> <Gold.Chemscore.Internal_Hbond.Weighted>
0.0000

> <Gold.Chemscore.DEClash.Weighted>
0.1928

> <Gold.Chemscore.DEInternal.Weighted>
2.4749

> <Gold.Chemscore.Rot.Weighted>
4.2773

> <Gold.Chemscore.Internal.Correction.Weighted>
   9.000000E+99

> <Gold.Protein.RotatedTorsions>
[ 6907 6896 6895 6894 ] final  -35.89 input  -60.11 | X-H torsion
[ 7974 7965 7964 7962 ] final  104.90 input  175.53 | X-H torsion
[ 8008 7997 7996 7995 ] final  146.02 input   59.86 | X-H torsion
[ 10167 10162 10161 10158 ] final   90.54 input  -65.29 | X-H torsion
[ 10718 10713 10712 10709 ] final  -11.45 input   66.30 | X-H torsion
[ 10763 10752 10751 10750 ] final  -10.79 input  -60.55 | X-H torsion
[ 11005 11000 10999 10996 ] final  158.94 input  -57.11 | X-H torsion

> <Gold.Protein.ActiveResidues>
 VAL166  LYS551  ARG553  GLY616  TRP617  ASP618  TYR619  PRO620  LYS621  CYS622 
 ASP623  PHE694  ASN695  SER759  ASP760  ASP761  ALA762  ILE779  LEU786  VAL792 
 PHE793  MET794  SER795  GLU796  ALA797  LYS798  CYS799  TRP800  GLU811  SER814 

> <Gold.Protein.RotatedAtoms>
  151.0341  134.9560  159.8126 H   0  0  0  0  0  0  0  0  0  0  0  0  # atno 6907 bound_to 6896
  152.5351  134.2743  159.8993 H   0  0  0  0  0  0  0  0  0  0  0  0  # atno 6908 bound_to 6896
  151.2753  133.4193  159.2657 H   0  0  0  0  0  0  0  0  0  0  0  0  # atno 6909 bound_to 6896
  145.3267  139.2498  143.3683 H   0  0  0  0  0  0  0  0  0  0  0  0  # atno 7974 bound_to 7965
  156.2867  140.2193  156.5310 H   0  0  0  0  0  0  0  0  0  0  0  0  # atno 8008 bound_to 7997
  154.7449  140.0485  157.0865 H   0  0  0  0  0  0  0  0  0  0  0  0  # atno 8009 bound_to 7997
  155.0183  140.3121  155.4806 H   0  0  0  0  0  0  0  0  0  0  0  0  # atno 8010 bound_to 7997
  139.8462  144.6616  150.9223 H   0  0  0  0  0  0  0  0  0  0  0  0  # atno 10167 bound_to 10162
  156.6588  130.4976  149.6037 H   0  0  0  0  0  0  0  0  0  0  0  0  # atno 10718 bound_to 10713
  153.4743  135.7017  153.5975 H   0  0  0  0  0  0  0  0  0  0  0  0  # atno 10763 bound_to 10752
  153.4216  135.3824  155.2115 H   0  0  0  0  0  0  0  0  0  0  0  0  # atno 10764 bound_to 10752
  154.8724  135.3929  154.4184 H   0  0  0  0  0  0  0  0  0  0  0  0  # atno 10765 bound_to 10752
  140.1914  134.8404  157.2916 H   0  0  0  0  0  0  0  0  0  0  0  0  # atno 11005 bound_to 11000
  146.3061  140.3836  142.8686 LP  0  0  0  0  0  0  0  0  0  0  0  0  # atno 17320 bound_to 7965
  144.8896  140.7507  143.5935 LP  0  0  0  0  0  0  0  0  0  0  0  0  # atno 17321 bound_to 7965
  140.7793  143.3867  151.1380 LP  0  0  0  0  0  0  0  0  0  0  0  0  # atno 17342 bound_to 10162
  139.7510  143.8779  152.3076 LP  0  0  0  0  0  0  0  0  0  0  0  0  # atno 17343 bound_to 10162
  156.2027  130.6630  151.1184 LP  0  0  0  0  0  0  0  0  0  0  0  0  # atno 17370 bound_to 10713
  157.7116  131.0731  150.6478 LP  0  0  0  0  0  0  0  0  0  0  0  0  # atno 17371 bound_to 10713
  140.2156  134.4086  155.7591 LP  0  0  0  0  0  0  0  0  0  0  0  0  # atno 17394 bound_to 11000
  141.2226  133.7140  156.8407 LP  0  0  0  0  0  0  0  0  0  0  0  0  # atno 17395 bound_to 11000

$$$$
