AV-unprocessed.smi:1897|AV-procd|sdf|7698|dock10
  -GOLD-   22720 9433D 1   1.00000     0.00000
 Structure written by MMmdl.
 38 40  0  0  0  0  0  0  0  0  3 V2000
  146.7932  141.9812  153.9193 C   0  0  0  0  0  0  0  0  0  0  0  0
  148.0259  141.3061  154.4147 C   0  0  0  0  0  0  0  0  0  0  0  0
  149.2073  141.4203  153.8031 N   0  0  0  0  0  0  0  0  0  0  0  0
  150.2019  140.7018  154.4493 N   0  0  0  0  0  0  0  0  0  0  0  0
  149.7639  140.0676  155.5467 C   0  0  0  0  0  0  0  0  0  0  0  0
  150.5745  139.3263  156.3248 N   0  5  0  0  0  0  0  0  0  0  0  0
  151.6435  139.8532  156.9761 C   0  0  0  0  0  0  0  0  0  0  0  0
  152.7977  139.4601  156.8121 O   0  0  0  0  0  0  0  0  0  0  0  0
  151.4177  140.8662  157.8347 N   0  0  0  0  0  0  0  0  0  0  0  0
  152.4385  141.6124  158.5623 C   0  0  2  0  0  0  0  0  0  0  0  0
  152.6862  141.0801  159.9675 C   0  0  0  0  0  0  0  0  0  0  0  0
  153.3737  142.2587  160.6633 C   0  0  0  0  0  0  0  0  0  0  0  0
  152.9059  143.4912  159.9828 N   0  3  2  0  0  0  0  0  0  0  0  0
  152.2758  144.4823  160.8955 C   0  0  0  0  0  0  0  0  0  0  0  0
  151.4821  145.5315  160.1035 C   0  0  0  0  0  0  0  0  0  0  0  0
  150.3289  144.8869  159.3119 C   0  0  0  0  0  0  0  0  0  0  0  0
  150.5782  143.3954  159.0168 C   0  0  0  0  0  0  0  0  0  0  0  0
  152.0829  143.0914  158.8060 C   0  0  2  0  0  0  0  0  0  0  0  0
  148.0443  140.3021  155.8549 S   0  0  0  0  0  0  0  0  0  0  0  0
  146.7824  143.0214  154.2444 H   0  0  0  0  0  0  0  0  0  0  0  0
  145.9059  141.4820  154.3092 H   0  0  0  0  0  0  0  0  0  0  0  0
  146.7577  141.9528  152.8299 H   0  0  0  0  0  0  0  0  0  0  0  0
  150.4613  141.1667  157.9539 H   0  0  0  0  0  0  0  0  0  0  0  0
  153.3828  141.5591  158.0164 H   0  0  0  0  0  0  0  0  0  0  0  0
  151.7385  140.8602  160.4619 H   0  0  0  0  0  0  0  0  0  0  0  0
  153.2901  140.1723  159.9792 H   0  0  0  0  0  0  0  0  0  0  0  0
  153.1810  142.2595  161.7370 H   0  0  0  0  0  0  0  0  0  0  0  0
  154.4537  142.1924  160.5280 H   0  0  0  0  0  0  0  0  0  0  0  0
  151.6054  143.9780  161.5937 H   0  0  0  0  0  0  0  0  0  0  0  0
  153.0533  144.9592  161.4927 H   0  0  0  0  0  0  0  0  0  0  0  0
  151.0914  146.3004  160.7707 H   0  0  0  0  0  0  0  0  0  0  0  0
  152.1577  146.0404  159.4147 H   0  0  0  0  0  0  0  0  0  0  0  0
  149.3933  144.9856  159.8636 H   0  0  0  0  0  0  0  0  0  0  0  0
  150.1890  145.4346  158.3792 H   0  0  0  0  0  0  0  0  0  0  0  0
  150.2023  142.7954  159.8467 H   0  0  0  0  0  0  0  0  0  0  0  0
  149.9905  143.1053  158.1454 H   0  0  0  0  0  0  0  0  0  0  0  0
  152.4170  143.6766  157.9480 H   0  0  0  0  0  0  0  0  0  0  0  0
  153.7296  143.9333  159.6009 H   0  0  0  0  0  0  0  0  0  0  0  0
  1  2  1  0  0  0  0
  1 20  1  0  0  0  0
  1 21  1  0  0  0  0
  1 22  1  0  0  0  0
  2 19  1  0  0  0  0
  2  3  2  0  0  0  0
  3  4  1  0  0  0  0
  4  5  2  0  0  0  0
  5  6  1  0  0  0  0
  5 19  1  0  0  0  0
  6  7  1  0  0  0  0
  7  8  2  0  0  0  0
  7  9  1  0  0  0  0
  9 10  1  0  0  0  0
  9 23  1  0  0  0  0
 10 18  1  0  0  0  0
 10 11  1  0  0  0  0
 10 24  1  0  0  0  0
 11 12  1  0  0  0  0
 11 25  1  0  0  0  0
 11 26  1  0  0  0  0
 12 13  1  0  0  0  0
 12 27  1  0  0  0  0
 12 28  1  0  0  0  0
 13 18  1  0  0  0  0
 13 14  1  0  0  0  0
 13 38  1  0  0  0  0
 14 15  1  0  0  0  0
 14 29  1  0  0  0  0
 14 30  1  0  0  0  0
 15 16  1  0  0  0  0
 15 31  1  0  0  0  0
 15 32  1  0  0  0  0
 16 17  1  0  0  0  0
 16 33  1  0  0  0  0
 16 34  1  0  0  0  0
 17 18  1  0  0  0  0
 17 35  1  0  0  0  0
 17 36  1  0  0  0  0
 18 37  1  0  0  0  0
M  CHG  1   6  -1
M  CHG  1  13   1
M  END
> <s_m_source_file>
AV-unprocessed.smi

> <i_m_source_file_index>
1897

> <i_lp_mmshare_version>
43012

> <i_f3d_flags>
0

> <s_epik_input>
W0NIM11jMW5uYyhzMSlbTkhdQyg9TylbTkhdW0NASF0oW0NIMl1bQ0gyXTIpW0NAQEhdKE4yMylbQ0gyXVtDSDJdW0NIMl1bQ0gyXTM=

> <s_epik_cmdline>
J2VwaWtfcHl0aG9uJywgJy1waCcsICc3LjAnLCAnLXRuJywgJzgnLCAnLW1hJywgJzIwMCcsICctbWV0YWxfYmluZGluZycsICctaW1hZScsICc8aW5maWxlLm1hZT4nLCAnLW9tYWUnLCAnPG91dGZpbGUubWFlPic=

> <r_lp_tautomer_probability>
1

> <r_epik_Ionization_Penalty>
3.77712

> <r_epik_Ionization_Penalty_Charging>
3.67739

> <r_epik_Ionization_Penalty_Neutral>
0.0997294

> <r_epik_State_Penalty>
3.67514

> <r_epik_Charging_Adjusted_Penalty>
7.35254

> <i_epik_Tot_Q>
0

> <i_epik_Tot_abs_Q>
2

> <r_epik_Metal_State_Penalty>
0.540795

> <b_epik_Metal_Only>
1

> <s_lp_Force_Field>
OPLS_2005

> <r_lp_Energy>
34.1596

> <b_lp_Chiralities_Consistent>
1

> <s_lp_Variant>
AV-unprocessed.smi:1897-15

> <Gold.Version>
5.8.1

> <Gold.Id.Protein>
6NUR|6NUR_protein|mol2

> <Gold.PLP.Fitness>
42.4519

> <Gold.PLP.PLP>
-37.6610

> <Gold.PLP.part.hbond>
-4.0000

> <Gold.PLP.part.metal>
0.0000

> <Gold.PLP.part.buried>
-7.5317

> <Gold.PLP.part.nonpolar>
-27.7522

> <Gold.PLP.part.repulsive>
1.2191

> <Gold.PLP.ligand.clash>
0.0000

> <Gold.PLP.ligand.torsion>
1.4825

> <Gold.PLP.Chemscore.Hbond>
2.5840

> <Gold.PLP.Chemscore.CHOScore>
0.0000

> <Gold.PLP.Chemscore.Metal>
0.0000

> <Gold.Chemscore.Hbonds>
donor molecule, donor type, donor heavy atom, donor atom, acceptor molecule, acceptor atom, score
      P1  H  7989  7998       L1     4  0.80
      P1  H  7997  8008       L1     8  1.00
      P1  H  8011  8017       L1     3  0.78

> <Gold.PLP.Chemscore.Internal.Correction>
0.0039

> <Gold.Rescore>
     Score         DG    S(hbond)    S(metal)    S(lipo)     H(rot)  DE(clash)    DE(int)     intcor
     19.38     -20.81       2.06        0.00      94.22       1.00       0.05       1.38       ----

> <Gold.Chemscore.Fitness>
19.3818

> <Gold.Chemscore.DG>
-20.8114

> <Gold.Chemscore.ZeroCoef>
-5.4800

> <Gold.Chemscore.Hbond>
2.0562

> <Gold.Chemscore.Metal>
0.0000

> <Gold.Chemscore.Lipo>
94.2183

> <Gold.Chemscore.Internal_Hbond>
0.0000

> <Gold.Chemscore.DEClash>
0.0469

> <Gold.Chemscore.DEInternal>
1.3827

> <Gold.Chemscore.Rot>
1.0000

> <Gold.Chemscore.Internal.Correction>
   9.000000E+99

> <Gold.Chemscore.Hbonds>
donor molecule, donor type, donor heavy atom, donor atom, acceptor molecule, acceptor atom, score
      P1  H  7989  7998       L1     4  0.44
      P1  H  7997  8008       L1     8  0.99
      P1  H  8011  8017       L1     3  0.70

> <Gold.Chemscore.Hbond.Weighted>
-6.8678

> <Gold.Chemscore.Metal.Weighted>
-0.0000

> <Gold.Chemscore.Lipo.Weighted>
-11.0235

> <Gold.Chemscore.Internal_Hbond.Weighted>
0.0000

> <Gold.Chemscore.DEClash.Weighted>
0.0469

> <Gold.Chemscore.DEInternal.Weighted>
1.3827

> <Gold.Chemscore.Rot.Weighted>
2.5600

> <Gold.Chemscore.Internal.Correction.Weighted>
   9.000000E+99

> <Gold.Protein.RotatedTorsions>
[ 6907 6896 6895 6894 ] final  -57.06 input  -60.11 | X-H torsion
[ 7974 7965 7964 7962 ] final  -73.44 input  175.53 | X-H torsion
[ 8008 7997 7996 7995 ] final  -39.92 input   59.86 | X-H torsion
[ 10167 10162 10161 10158 ] final  -48.16 input  -65.29 | X-H torsion
[ 10718 10713 10712 10709 ] final -156.76 input   66.30 | X-H torsion
[ 10763 10752 10751 10750 ] final -126.56 input  -60.55 | X-H torsion
[ 11005 11000 10999 10996 ] final -151.27 input  -57.11 | X-H torsion

> <Gold.Protein.ActiveResidues>
 VAL166  LYS551  ARG553  GLY616  TRP617  ASP618  TYR619  PRO620  LYS621  CYS622 
 ASP623  PHE694  ASN695  SER759  ASP760  ASP761  ALA762  ILE779  LEU786  VAL792 
 PHE793  MET794  SER795  GLU796  ALA797  LYS798  CYS799  TRP800  GLU811  SER814 

> <Gold.Protein.RotatedAtoms>
  150.8117  134.7275  159.6693 H   0  0  0  0  0  0  0  0  0  0  0  0  # atno 6907 bound_to 6896
  152.4237  134.5905  159.9982 H   0  0  0  0  0  0  0  0  0  0  0  0  # atno 6908 bound_to 6896
  151.6113  133.3310  159.3104 H   0  0  0  0  0  0  0  0  0  0  0  0  # atno 6909 bound_to 6896
  145.6521  140.9279  143.0979 H   0  0  0  0  0  0  0  0  0  0  0  0  # atno 7974 bound_to 7965
  154.4017  140.1539  156.2943 H   0  0  0  0  0  0  0  0  0  0  0  0  # atno 8008 bound_to 7997
  155.8757  140.3446  155.5831 H   0  0  0  0  0  0  0  0  0  0  0  0  # atno 8009 bound_to 7997
  155.7724  140.0832  157.2092 H   0  0  0  0  0  0  0  0  0  0  0  0  # atno 8010 bound_to 7997
  140.6743  143.2752  151.4030 H   0  0  0  0  0  0  0  0  0  0  0  0  # atno 10167 bound_to 10162
  156.5310  130.8521  151.2716 H   0  0  0  0  0  0  0  0  0  0  0  0  # atno 10718 bound_to 10713
  154.8746  135.3991  154.3451 H   0  0  0  0  0  0  0  0  0  0  0  0  # atno 10763 bound_to 10752
  153.4245  135.7024  153.6277 H   0  0  0  0  0  0  0  0  0  0  0  0  # atno 10764 bound_to 10752
  153.4925  135.3745  155.2469 H   0  0  0  0  0  0  0  0  0  0  0  0  # atno 10765 bound_to 10752
  140.7313  134.3618  157.5166 H   0  0  0  0  0  0  0  0  0  0  0  0  # atno 11005 bound_to 11000
  144.7119  139.8339  143.7412 LP  0  0  0  0  0  0  0  0  0  0  0  0  # atno 17320 bound_to 7965
  146.1195  139.4211  143.0237 LP  0  0  0  0  0  0  0  0  0  0  0  0  # atno 17321 bound_to 7965
  139.6027  144.1261  152.2216 LP  0  0  0  0  0  0  0  0  0  0  0  0  # atno 17342 bound_to 10162
  140.0650  144.5826  150.7234 LP  0  0  0  0  0  0  0  0  0  0  0  0  # atno 17343 bound_to 10162
  157.7422  130.9885  150.2497 LP  0  0  0  0  0  0  0  0  0  0  0  0  # atno 17370 bound_to 10713
  156.3060  130.3765  149.7706 LP  0  0  0  0  0  0  0  0  0  0  0  0  # atno 17371 bound_to 10713
  139.8826  134.9020  156.2823 LP  0  0  0  0  0  0  0  0  0  0  0  0  # atno 17394 bound_to 11000
  140.9918  133.7204  156.0826 LP  0  0  0  0  0  0  0  0  0  0  0  0  # atno 17395 bound_to 11000

$$$$
