AV-unprocessed.smi:2178|AV-procd|sdf|8853|dock2
  -GOLD-   2272012 43D 1   1.00000     0.00000
 Structure written by MMmdl.
 46 48  0  0  0  0  0  0  0  0  1 V2000
  148.0704  137.2417  153.6145 C   0  0  0  0  0  0  0  0  0  0  0  0
  148.1147  138.7314  153.8989 C   0  0  0  0  0  0  0  0  0  0  0  0
  147.1037  139.5707  153.3870 C   0  0  0  0  0  0  0  0  0  0  0  0
  147.1396  140.9553  153.6352 C   0  0  0  0  0  0  0  0  0  0  0  0
  148.1905  141.5075  154.3905 C   0  0  0  0  0  0  0  0  0  0  0  0
  149.2082  140.6783  154.9060 C   0  0  0  0  0  0  0  0  0  0  0  0
  150.3409  141.2982  155.7028 C   0  0  0  0  0  0  0  0  0  0  0  0
  149.1631  139.2831  154.6721 C   0  0  0  0  0  0  0  0  0  0  0  0
  150.1452  138.4647  155.1672 O   0  0  0  0  0  0  0  0  0  0  0  0
  149.8310  137.8954  156.4300 C   0  0  0  0  0  0  0  0  0  0  0  0
  150.4615  138.7566  157.5328 C   0  0  1  0  0  0  0  0  0  0  0  0
  150.3301  138.0781  158.7658 O   0  0  0  0  0  0  0  0  0  0  0  0
  151.9466  139.0657  157.2566 C   0  0  0  0  0  0  0  0  0  0  0  0
  152.5916  139.7454  158.3721 N   0  0  0  0  0  0  0  0  0  0  0  0
  153.5967  139.2992  159.1677 C   0  0  0  0  0  0  0  0  0  0  0  0
  154.2107  137.9422  158.9696 C   0  0  0  0  0  0  0  0  0  0  0  0
  153.2819  136.8774  159.0178 O   0  0  0  0  0  0  0  0  0  0  0  0
  153.9967  140.1468  160.1194 N   0  0  0  0  0  0  0  0  0  0  0  0
  153.1747  141.2388  159.9237 C   0  0  0  0  0  0  0  0  0  0  0  0
  153.1008  142.4694  160.6145 C   0  0  0  0  0  0  0  0  0  0  0  0
  152.1652  143.4509  160.2264 C   0  0  0  0  0  0  0  0  0  0  0  0
  151.2933  143.2173  159.1431 C   0  0  0  0  0  0  0  0  0  0  0  0
  151.3508  141.9978  158.4412 C   0  0  0  0  0  0  0  0  0  0  0  0
  152.2849  141.0208  158.8347 C   0  0  0  0  0  0  0  0  0  0  0  0
  147.3230  137.0042  152.8571 H   0  0  0  0  0  0  0  0  0  0  0  0
  147.8230  136.6888  154.5207 H   0  0  0  0  0  0  0  0  0  0  0  0
  149.0376  136.8930  153.2516 H   0  0  0  0  0  0  0  0  0  0  0  0
  146.2970  139.1566  152.7999 H   0  0  0  0  0  0  0  0  0  0  0  0
  146.3635  141.5948  153.2414 H   0  0  0  0  0  0  0  0  0  0  0  0
  148.2143  142.5725  154.5702 H   0  0  0  0  0  0  0  0  0  0  0  0
  151.2833  140.7854  155.5092 H   0  0  0  0  0  0  0  0  0  0  0  0
  150.1280  141.2400  156.7703 H   0  0  0  0  0  0  0  0  0  0  0  0
  150.4742  142.3478  155.4392 H   0  0  0  0  0  0  0  0  0  0  0  0
  148.7471  137.8697  156.5492 H   0  0  0  0  0  0  0  0  0  0  0  0
  150.1870  136.8659  156.5010 H   0  0  0  0  0  0  0  0  0  0  0  0
  149.9022  139.6894  157.6137 H   0  0  0  0  0  0  0  0  0  0  0  0
  150.8754  138.5097  159.4058 H   0  0  0  0  0  0  0  0  0  0  0  0
  152.4905  138.1532  157.0133 H   0  0  0  0  0  0  0  0  0  0  0  0
  152.0352  139.7096  156.3811 H   0  0  0  0  0  0  0  0  0  0  0  0
  154.7148  137.9104  158.0039 H   0  0  0  0  0  0  0  0  0  0  0  0
  154.9659  137.7795  159.7391 H   0  0  0  0  0  0  0  0  0  0  0  0
  152.4101  137.2368  158.9632 H   0  0  0  0  0  0  0  0  0  0  0  0
  153.7650  142.6582  161.4449 H   0  0  0  0  0  0  0  0  0  0  0  0
  152.1166  144.3874  160.7625 H   0  0  0  0  0  0  0  0  0  0  0  0
  150.5801  143.9744  158.8517 H   0  0  0  0  0  0  0  0  0  0  0  0
  150.6843  141.8148  157.6115 H   0  0  0  0  0  0  0  0  0  0  0  0
  1  2  1  0  0  0  0
  1 25  1  0  0  0  0
  1 26  1  0  0  0  0
  1 27  1  0  0  0  0
  2  8  1  0  0  0  0
  2  3  2  0  0  0  0
  3  4  1  0  0  0  0
  3 28  1  0  0  0  0
  4  5  2  0  0  0  0
  4 29  1  0  0  0  0
  5  6  1  0  0  0  0
  5 30  1  0  0  0  0
  6  7  1  0  0  0  0
  6  8  2  0  0  0  0
  7 31  1  0  0  0  0
  7 32  1  0  0  0  0
  7 33  1  0  0  0  0
  8  9  1  0  0  0  0
  9 10  1  0  0  0  0
 10 11  1  0  0  0  0
 10 34  1  0  0  0  0
 10 35  1  0  0  0  0
 11 12  1  0  0  0  0
 11 13  1  0  0  0  0
 11 36  1  0  0  0  0
 12 37  1  0  0  0  0
 13 14  1  0  0  0  0
 13 38  1  0  0  0  0
 13 39  1  0  0  0  0
 14 24  1  0  0  0  0
 14 15  1  0  0  0  0
 15 16  1  0  0  0  0
 15 18  2  0  0  0  0
 16 17  1  0  0  0  0
 16 40  1  0  0  0  0
 16 41  1  0  0  0  0
 17 42  1  0  0  0  0
 18 19  1  0  0  0  0
 19 24  2  0  0  0  0
 19 20  1  0  0  0  0
 20 21  2  0  0  0  0
 20 43  1  0  0  0  0
 21 22  1  0  0  0  0
 21 44  1  0  0  0  0
 22 23  2  0  0  0  0
 22 45  1  0  0  0  0
 23 24  1  0  0  0  0
 23 46  1  0  0  0  0
M  END
> <s_m_source_file>
AV-unprocessed.smi

> <i_m_source_file_index>
2178

> <i_lp_mmshare_version>
43012

> <i_f3d_flags>
0

> <s_epik_input>
W0NIM11jMVtjSF1bY0hdW2NIXWMoW0NIM10pYzFPW0NIMl1bQ0BIXShbT0hdKVtDSDJdbihjKG4yKVtDSDJdW09IXSljKGMyMylbY0hdW2NIXVtjSF1bY0hdMw==

> <s_epik_cmdline>
J2VwaWtfcHl0aG9uJywgJy1waCcsICc3LjAnLCAnLXRuJywgJzgnLCAnLW1hJywgJzIwMCcsICctbWV0YWxfYmluZGluZycsICctaW1hZScsICc8aW5maWxlLm1hZT4nLCAnLW9tYWUnLCAnPG91dGZpbGUubWFlPic=

> <r_lp_tautomer_probability>
1

> <r_epik_Ionization_Penalty>
0.0555874

> <r_epik_Ionization_Penalty_Charging>
0

> <r_epik_Ionization_Penalty_Neutral>
0.0555874

> <r_epik_State_Penalty>
0.0478234

> <r_epik_Charging_Adjusted_Penalty>
0.0478234

> <i_epik_Tot_Q>
0

> <i_epik_Tot_abs_Q>
0

> <r_epik_Metal_State_Penalty>
4.98044e-05

> <b_epik_Metal_Only>
0

> <s_lp_Force_Field>
OPLS_2005

> <r_lp_Energy>
18.9383

> <b_lp_Chiralities_Consistent>
1

> <s_lp_Variant>
AV-unprocessed.smi:2178-2

> <Gold.Version>
5.8.1

> <Gold.Id.Protein>
6NUR|6NUR_protein|mol2

> <Gold.PLP.Fitness>
42.3926

> <Gold.PLP.PLP>
-40.6456

> <Gold.PLP.part.hbond>
-2.9250

> <Gold.PLP.part.metal>
0.0000

> <Gold.PLP.part.buried>
-2.0946

> <Gold.PLP.part.nonpolar>
-34.8480

> <Gold.PLP.part.repulsive>
0.0442

> <Gold.PLP.ligand.clash>
0.0000

> <Gold.PLP.ligand.torsion>
0.7322

> <Gold.PLP.Chemscore.Hbond>
1.0000

> <Gold.PLP.Chemscore.CHOScore>
0.0000

> <Gold.PLP.Chemscore.Metal>
0.0000

> <Gold.PLP.Chemscore.Internal.Correction>
0.2115

> <Gold.Rescore>
     Score         DG    S(hbond)    S(metal)    S(lipo)     H(rot)  DE(clash)    DE(int)     intcor
     13.47     -15.71       0.98        0.00     124.05       2.96       1.46       0.77       ----

> <Gold.Chemscore.Fitness>
13.4725

> <Gold.Chemscore.DG>
-15.7061

> <Gold.Chemscore.ZeroCoef>
-5.4800

> <Gold.Chemscore.Hbond>
0.9822

> <Gold.Chemscore.Metal>
0.0000

> <Gold.Chemscore.Lipo>
124.0452

> <Gold.Chemscore.Internal_Hbond>
0.0000

> <Gold.Chemscore.DEClash>
1.4611

> <Gold.Chemscore.DEInternal>
0.7725

> <Gold.Chemscore.Rot>
2.9561

> <Gold.Chemscore.Internal.Correction>
   9.000000E+99

> <Gold.Chemscore.Hbond.Weighted>
-3.2805

> <Gold.Chemscore.Metal.Weighted>
-0.0000

> <Gold.Chemscore.Lipo.Weighted>
-14.5133

> <Gold.Chemscore.Internal_Hbond.Weighted>
0.0000

> <Gold.Chemscore.DEClash.Weighted>
1.4611

> <Gold.Chemscore.DEInternal.Weighted>
0.7725

> <Gold.Chemscore.Rot.Weighted>
7.5677

> <Gold.Chemscore.Internal.Correction.Weighted>
   9.000000E+99

> <Gold.Protein.RotatedTorsions>
[ 6907 6896 6895 6894 ] final   12.24 input  -60.11 | X-H torsion
[ 7974 7965 7964 7962 ] final -117.15 input  175.53 | X-H torsion
[ 8008 7997 7996 7995 ] final  111.85 input   59.86 | X-H torsion
[ 10167 10162 10161 10158 ] final  120.92 input  -65.29 | X-H torsion
[ 10718 10713 10712 10709 ] final   12.74 input   66.30 | X-H torsion
[ 10763 10752 10751 10750 ] final -178.25 input  -60.55 | X-H torsion
[ 11005 11000 10999 10996 ] final    1.04 input  -57.11 | X-H torsion

> <Gold.Protein.ActiveResidues>
 VAL166  LYS551  ARG553  GLY616  TRP617  ASP618  TYR619  PRO620  LYS621  CYS622 
 ASP623  PHE694  ASN695  SER759  ASP760  ASP761  ALA762  ILE779  LEU786  VAL792 
 PHE793  MET794  SER795  GLU796  ALA797  LYS798  CYS799  TRP800  GLU811  SER814 

> <Gold.Protein.RotatedAtoms>
  151.7672  135.0795  160.0354 H   0  0  0  0  0  0  0  0  0  0  0  0  # atno 6907 bound_to 6896
  152.3313  133.5957  159.5820 H   0  0  0  0  0  0  0  0  0  0  0  0  # atno 6908 bound_to 6896
  150.7424  133.9780  159.3609 H   0  0  0  0  0  0  0  0  0  0  0  0  # atno 6909 bound_to 6896
  145.0885  140.8474  143.3997 H   0  0  0  0  0  0  0  0  0  0  0  0  # atno 7974 bound_to 7965
  156.2152  140.3011  155.9824 H   0  0  0  0  0  0  0  0  0  0  0  0  # atno 8008 bound_to 7997
  155.2622  140.0430  157.3015 H   0  0  0  0  0  0  0  0  0  0  0  0  # atno 8009 bound_to 7997
  154.5758  140.2361  155.8133 H   0  0  0  0  0  0  0  0  0  0  0  0  # atno 8010 bound_to 7997
  139.5951  144.7039  151.3195 H   0  0  0  0  0  0  0  0  0  0  0  0  # atno 10167 bound_to 10162
  157.0146  130.6130  149.5712 H   0  0  0  0  0  0  0  0  0  0  0  0  # atno 10718 bound_to 10713
  154.5500  135.2812  155.1017 H   0  0  0  0  0  0  0  0  0  0  0  0  # atno 10763 bound_to 10752
  154.2467  135.6347  153.5229 H   0  0  0  0  0  0  0  0  0  0  0  0  # atno 10764 bound_to 10752
  153.0000  135.5573  154.6063 H   0  0  0  0  0  0  0  0  0  0  0  0  # atno 10765 bound_to 10752
  140.6199  133.9671  155.8219 H   0  0  0  0  0  0  0  0  0  0  0  0  # atno 11005 bound_to 11000
  145.1094  139.2767  143.5645 LP  0  0  0  0  0  0  0  0  0  0  0  0  # atno 17320 bound_to 7965
  146.3531  140.0685  142.8625 LP  0  0  0  0  0  0  0  0  0  0  0  0  # atno 17321 bound_to 7965
  140.7205  143.7147  150.7742 LP  0  0  0  0  0  0  0  0  0  0  0  0  # atno 17342 bound_to 10162
  140.0712  143.5059  152.2579 LP  0  0  0  0  0  0  0  0  0  0  0  0  # atno 17343 bound_to 10162
  156.0124  130.5216  150.8030 LP  0  0  0  0  0  0  0  0  0  0  0  0  # atno 17370 bound_to 10713
  157.5295  131.0936  150.9973 LP  0  0  0  0  0  0  0  0  0  0  0  0  # atno 17371 bound_to 10713
  141.0750  134.0149  157.3471 LP  0  0  0  0  0  0  0  0  0  0  0  0  # atno 17394 bound_to 11000
  139.9158  135.0196  156.7873 LP  0  0  0  0  0  0  0  0  0  0  0  0  # atno 17395 bound_to 11000

$$$$
