AV-unprocessed.smi:364|AV-procd|sdf|2426|dock6
  -GOLD-   2262022363D 1   1.00000     0.00000
 Structure written by MMmdl.
 37 38  0  0  0  0  0  0  0  0  1 V2000
  146.5833  133.7504  151.7168 C   0  0  0  0  0  0  0  0  0  0  0  0
  146.8601  133.8773  153.2215 C   0  0  2  0  0  0  0  0  0  0  0  0
  146.5960  135.3120  153.7192 C   0  0  0  0  0  0  0  0  0  0  0  0
  146.9031  135.4621  155.2210 C   0  0  0  0  0  0  0  0  0  0  0  0
  148.3385  135.0222  155.5652 C   0  0  2  0  0  0  0  0  0  0  0  0
  149.2936  135.9403  154.9546 N   0  0  0  0  0  0  0  0  0  0  0  0
  150.1856  136.7250  155.5793 C   0  0  0  0  0  0  0  0  0  0  0  0
  150.2991  136.7740  156.8030 O   0  0  0  0  0  0  0  0  0  0  0  0
  151.1097  137.5863  154.6997 C   0  0  0  0  0  0  0  0  0  0  0  0
  150.7474  139.0157  154.6533 N   0  0  0  0  0  0  0  0  0  0  0  0
  149.5636  139.3568  153.9777 C   0  0  0  0  0  0  0  0  0  0  0  0
  149.1427  140.6284  153.9243 C   0  0  0  0  0  0  0  0  0  0  0  0
  149.9828  141.6224  154.6044 C   0  0  0  0  0  0  0  0  0  0  0  0
  151.0624  141.3154  155.2213 N   0  0  0  0  0  0  0  0  0  0  0  0
  151.5014  139.9790  155.2773 C   0  0  0  0  0  0  0  0  0  0  0  0
  152.5301  139.6747  155.8809 O   0  0  0  0  0  0  0  0  0  0  0  0
  148.5953  133.5860  155.0697 C   0  0  0  0  0  0  0  0  0  0  0  0
  148.2951  133.4324  153.5667 C   0  0  0  0  0  0  0  0  0  0  0  0
  147.2455  134.3945  151.1370 H   0  0  0  0  0  0  0  0  0  0  0  0
  145.5564  134.0307  151.4810 H   0  0  0  0  0  0  0  0  0  0  0  0
  146.7322  132.7258  151.3746 H   0  0  0  0  0  0  0  0  0  0  0  0
  146.1699  133.2111  153.7413 H   0  0  0  0  0  0  0  0  0  0  0  0
  147.1992  136.0191  153.1478 H   0  0  0  0  0  0  0  0  0  0  0  0
  145.5558  135.5828  153.5346 H   0  0  0  0  0  0  0  0  0  0  0  0
  146.7417  136.4950  155.5319 H   0  0  0  0  0  0  0  0  0  0  0  0
  146.1963  134.8597  155.7929 H   0  0  0  0  0  0  0  0  0  0  0  0
  148.4511  135.0444  156.6502 H   0  0  0  0  0  0  0  0  0  0  0  0
  149.2850  135.9768  153.9456 H   0  0  0  0  0  0  0  0  0  0  0  0
  152.1357  137.4622  155.0501 H   0  0  0  0  0  0  0  0  0  0  0  0
  151.1032  137.1702  153.6912 H   0  0  0  0  0  0  0  0  0  0  0  0
  149.0308  138.5323  153.5261 H   0  0  0  0  0  0  0  0  0  0  0  0
  148.2421  140.9568  153.4271 H   0  0  0  0  0  0  0  0  0  0  0  0
  149.6233  142.6531  154.5503 H   0  0  0  0  0  0  0  0  0  0  0  0
  149.6264  133.2955  155.2756 H   0  0  0  0  0  0  0  0  0  0  0  0
  147.9667  132.8947  155.6324 H   0  0  0  0  0  0  0  0  0  0  0  0
  148.4421  132.3927  153.2724 H   0  0  0  0  0  0  0  0  0  0  0  0
  149.0121  134.0161  152.9874 H   0  0  0  0  0  0  0  0  0  0  0  0
  1  2  1  0  0  0  0
  1 19  1  0  0  0  0
  1 20  1  0  0  0  0
  1 21  1  0  0  0  0
  2 18  1  0  0  0  0
  2  3  1  0  0  0  0
  2 22  1  0  0  0  0
  3  4  1  0  0  0  0
  3 23  1  0  0  0  0
  3 24  1  0  0  0  0
  4  5  1  0  0  0  0
  4 25  1  0  0  0  0
  4 26  1  0  0  0  0
  5  6  1  0  0  0  0
  5 17  1  0  0  0  0
  5 27  1  0  0  0  0
  6  7  1  0  0  0  0
  6 28  1  0  0  0  0
  7  8  2  0  0  0  0
  7  9  1  0  0  0  0
  9 10  1  0  0  0  0
  9 29  1  0  0  0  0
  9 30  1  0  0  0  0
 10 15  1  0  0  0  0
 10 11  1  0  0  0  0
 11 12  2  0  0  0  0
 11 31  1  0  0  0  0
 12 13  1  0  0  0  0
 12 32  1  0  0  0  0
 13 14  2  0  0  0  0
 13 33  1  0  0  0  0
 14 15  1  0  0  0  0
 15 16  2  0  0  0  0
 17 18  1  0  0  0  0
 17 34  1  0  0  0  0
 17 35  1  0  0  0  0
 18 36  1  0  0  0  0
 18 37  1  0  0  0  0
M  END
> <s_m_source_file>
AV-unprocessed.smi

> <i_m_source_file_index>
364

> <i_lp_mmshare_version>
43012

> <i_f3d_flags>
0

> <s_epik_input>
W0NIM11bQ0BASF0xW0NIMl1bQ0gyXVtDQEhdKFtDSDJdW0NIMl0xKVtOSF1DKD1PKVtDSDJdbjJbY0hdW2NIXVtjSF1uYzI9Tw==

> <s_epik_cmdline>
J2VwaWtfcHl0aG9uJywgJy1waCcsICc3LjAnLCAnLXRuJywgJzgnLCAnLW1hJywgJzIwMCcsICctbWV0YWxfYmluZGluZycsICctaW1hZScsICc8aW5maWxlLm1hZT4nLCAnLW9tYWUnLCAnPG91dGZpbGUubWFlPic=

> <r_lp_tautomer_probability>
1

> <r_epik_Ionization_Penalty>
7.65306e-06

> <r_epik_Ionization_Penalty_Charging>
1.81354e-08

> <r_epik_Ionization_Penalty_Neutral>
7.63492e-06

> <r_epik_State_Penalty>
-0

> <r_epik_Charging_Adjusted_Penalty>
1.81354e-08

> <i_epik_Tot_Q>
0

> <i_epik_Tot_abs_Q>
0

> <r_epik_Metal_State_Penalty>
-0

> <b_epik_Metal_Only>
0

> <s_lp_Force_Field>
OPLS_2005

> <r_lp_Energy>
9.99244

> <b_lp_Chiralities_Consistent>
1

> <s_lp_Variant>
AV-unprocessed.smi:364-2

> <Gold.Version>
5.8.1

> <Gold.Id.Protein>
6NUR|6NUR_protein|mol2

> <Gold.PLP.Fitness>
43.5585

> <Gold.PLP.PLP>
-33.1479

> <Gold.PLP.part.hbond>
-3.0000

> <Gold.PLP.part.metal>
0.0000

> <Gold.PLP.part.buried>
0.1519

> <Gold.PLP.part.nonpolar>
-30.1598

> <Gold.PLP.part.repulsive>
0.1163

> <Gold.PLP.ligand.clash>
0.0000

> <Gold.PLP.ligand.torsion>
0.3169

> <Gold.PLP.Chemscore.Hbond>
2.0000

> <Gold.PLP.Chemscore.CHOScore>
1.6795

> <Gold.PLP.Chemscore.Metal>
0.0000

> <Gold.Chemscore.Hbonds>
donor molecule, donor type, donor heavy atom, donor atom, acceptor molecule, acceptor atom, score
      L1  H     6    28       P1  7948  0.83
      P1  H  7997  8010       L1    16  1.00
      L1  C    11    31       P1  7948  0.29
      L1  C    11    31       P1  7957  0.01
      L1  C    13    33       P1  8028  1.00

> <Gold.PLP.Chemscore.Internal.Correction>
0.0059

> <Gold.Rescore>
     Score         DG    S(hbond)    S(metal)    S(lipo)     H(rot)  DE(clash)    DE(int)     intcor
     13.24     -13.88       1.85        0.00      51.75       1.50       0.37       0.27       ----

> <Gold.Chemscore.Fitness>
13.2385

> <Gold.Chemscore.DG>
-13.8768

> <Gold.Chemscore.ZeroCoef>
-5.4800

> <Gold.Chemscore.Hbond>
1.8491

> <Gold.Chemscore.Metal>
0.0000

> <Gold.Chemscore.Lipo>
51.7519

> <Gold.Chemscore.Internal_Hbond>
0.0000

> <Gold.Chemscore.DEClash>
0.3703

> <Gold.Chemscore.DEInternal>
0.2680

> <Gold.Chemscore.Rot>
1.4977

> <Gold.Chemscore.Internal.Correction>
   9.000000E+99

> <Gold.Chemscore.Hbonds>
donor molecule, donor type, donor heavy atom, donor atom, acceptor molecule, acceptor atom, score
      L1  H     6    28       P1  7948  0.66
      P1  H  7997  8010       L1    16  0.99

> <Gold.Chemscore.Hbond.Weighted>
-6.1759

> <Gold.Chemscore.Metal.Weighted>
-0.0000

> <Gold.Chemscore.Lipo.Weighted>
-6.0550

> <Gold.Chemscore.Internal_Hbond.Weighted>
0.0000

> <Gold.Chemscore.DEClash.Weighted>
0.3703

> <Gold.Chemscore.DEInternal.Weighted>
0.2680

> <Gold.Chemscore.Rot.Weighted>
3.8341

> <Gold.Chemscore.Internal.Correction.Weighted>
   9.000000E+99

> <Gold.Protein.RotatedTorsions>
[ 6907 6896 6895 6894 ] final -147.53 input  -60.11 | X-H torsion
[ 7974 7965 7964 7962 ] final -159.90 input  175.53 | X-H torsion
[ 8008 7997 7996 7995 ] final   74.22 input   59.86 | X-H torsion
[ 10167 10162 10161 10158 ] final  133.07 input  -65.29 | X-H torsion
[ 10718 10713 10712 10709 ] final -161.90 input   66.30 | X-H torsion
[ 10763 10752 10751 10750 ] final -174.22 input  -60.55 | X-H torsion
[ 11005 11000 10999 10996 ] final   70.03 input  -57.11 | X-H torsion

> <Gold.Protein.ActiveResidues>
 VAL166  LYS551  ARG553  GLY616  TRP617  ASP618  TYR619  PRO620  LYS621  CYS622 
 ASP623  PHE694  ASN695  SER759  ASP760  ASP761  ALA762  ILE779  LEU786  VAL792 
 PHE793  MET794  SER795  GLU796  ALA797  LYS798  CYS799  TRP800  GLU811  SER814 

> <Gold.Protein.RotatedAtoms>
  151.1569  133.4870  159.2594 H   0  0  0  0  0  0  0  0  0  0  0  0  # atno 6907 bound_to 6896
  151.1495  135.0219  159.8672 H   0  0  0  0  0  0  0  0  0  0  0  0  # atno 6908 bound_to 6896
  152.5463  134.1455  159.8550 H   0  0  0  0  0  0  0  0  0  0  0  0  # atno 6909 bound_to 6896
  144.7447  140.3618  143.6094 H   0  0  0  0  0  0  0  0  0  0  0  0  # atno 7974 bound_to 7965
  155.7951  140.3478  155.5371 H   0  0  0  0  0  0  0  0  0  0  0  0  # atno 8008 bound_to 7997
  155.8594  140.0969  157.1643 H   0  0  0  0  0  0  0  0  0  0  0  0  # atno 8009 bound_to 7997
  154.4011  140.1361  156.3930 H   0  0  0  0  0  0  0  0  0  0  0  0  # atno 8010 bound_to 7997
  139.5312  144.6633  151.4942 H   0  0  0  0  0  0  0  0  0  0  0  0  # atno 10167 bound_to 10162
  156.6028  130.8818  151.2918 H   0  0  0  0  0  0  0  0  0  0  0  0  # atno 10718 bound_to 10713
  154.5988  135.2852  155.0558 H   0  0  0  0  0  0  0  0  0  0  0  0  # atno 10763 bound_to 10752
  154.1831  135.6453  153.5043 H   0  0  0  0  0  0  0  0  0  0  0  0  # atno 10764 bound_to 10752
  153.0149  135.5428  154.6699 H   0  0  0  0  0  0  0  0  0  0  0  0  # atno 10765 bound_to 10752
  139.9620  134.7044  156.0625 H   0  0  0  0  0  0  0  0  0  0  0  0  # atno 11005 bound_to 11000
  145.7169  139.1699  143.2507 LP  0  0  0  0  0  0  0  0  0  0  0  0  # atno 17320 bound_to 7965
  146.1306  140.7191  142.9414 LP  0  0  0  0  0  0  0  0  0  0  0  0  # atno 17321 bound_to 7965
  140.6492  143.8732  150.6768 LP  0  0  0  0  0  0  0  0  0  0  0  0  # atno 17342 bound_to 10162
  140.2091  143.3898  152.1732 LP  0  0  0  0  0  0  0  0  0  0  0  0  # atno 17343 bound_to 10162
  157.7275  130.9644  150.1701 LP  0  0  0  0  0  0  0  0  0  0  0  0  # atno 17370 bound_to 10713
  156.2455  130.3695  149.8290 LP  0  0  0  0  0  0  0  0  0  0  0  0  # atno 17371 bound_to 10713
  141.1298  133.6589  156.3433 LP  0  0  0  0  0  0  0  0  0  0  0  0  # atno 17394 bound_to 11000
  140.5479  134.6056  157.5399 LP  0  0  0  0  0  0  0  0  0  0  0  0  # atno 17395 bound_to 11000

$$$$
