AV-unprocessed.smi:1521|AV-procd|sdf|6132|dock4
  -GOLD-   22720 6273D 1   1.00000     0.00000
 Structure written by MMmdl.
 35 36  0  0  0  0  0  0  0  0  2 V2000
  151.8644  140.3961  155.6544 O   0  0  0  0  0  0  0  0  0  0  0  0
  151.8273  139.5284  156.5269 C   0  0  0  0  0  0  0  0  0  0  0  0
  151.5239  138.2474  156.2757 N   0  0  0  0  0  0  0  0  0  0  0  0
  151.2135  137.7007  154.9597 C   0  0  0  0  0  0  0  0  0  0  0  0
  150.7411  136.2403  155.0522 C   0  0  2  0  0  0  0  0  0  0  0  0
  149.4689  136.1018  155.9119 C   0  0  0  0  0  0  0  0  0  0  0  0
  149.1133  134.7290  156.0119 O   0  0  0  0  0  0  0  0  0  0  0  0
  150.1534  133.9690  156.6116 C   0  0  0  0  0  0  0  0  0  0  0  0
  151.4226  134.0976  155.7537 C   0  0  0  0  0  0  0  0  0  0  0  0
  151.7755  135.4709  155.6578 O   0  0  0  0  0  0  0  0  0  0  0  0
  152.0962  139.7081  157.8325 N   0  0  0  0  0  0  0  0  0  0  0  0
  152.4255  140.8889  158.5189 C   0  0  0  0  0  0  0  0  0  0  0  0
  151.6278  141.9903  158.5950 C   0  0  0  0  0  0  0  0  0  0  0  0
  152.0147  143.1835  159.3375 C   0  0  0  0  0  0  0  0  0  0  0  0
  151.1952  144.4611  159.3688 C   0  0  0  0  0  0  0  0  0  0  0  0
  151.0998  144.9992  158.1529 F   0  0  0  0  0  0  0  0  0  0  0  0
  149.9638  144.2292  159.8243 F   0  0  0  0  0  0  0  0  0  0  0  0
  151.7749  145.3516  160.1723 F   0  0  0  0  0  0  0  0  0  0  0  0
  153.2593  143.0557  159.9231 C   0  0  0  0  0  0  0  0  0  0  0  0
  154.0964  141.9952  159.9201 N   0  5  0  0  0  0  0  0  0  0  0  0
  153.7222  140.8827  159.2272 C   0  0  0  0  0  0  0  0  0  0  0  0
  154.4375  139.8811  159.1819 O   0  0  0  0  0  0  0  0  0  0  0  0
  151.5271  137.5981  157.0486 H   0  0  0  0  0  0  0  0  0  0  0  0
  150.4376  138.3174  154.5052 H   0  0  0  0  0  0  0  0  0  0  0  0
  152.0871  137.7766  154.3101 H   0  0  0  0  0  0  0  0  0  0  0  0
  150.5414  135.8586  154.0490 H   0  0  0  0  0  0  0  0  0  0  0  0
  149.6202  136.5227  156.9071 H   0  0  0  0  0  0  0  0  0  0  0  0
  148.6419  136.6460  155.4553 H   0  0  0  0  0  0  0  0  0  0  0  0
  150.3355  134.3156  157.6300 H   0  0  0  0  0  0  0  0  0  0  0  0
  149.8424  132.9262  156.6769 H   0  0  0  0  0  0  0  0  0  0  0  0
  152.2468  133.5493  156.2101 H   0  0  0  0  0  0  0  0  0  0  0  0
  151.2661  133.6765  154.7593 H   0  0  0  0  0  0  0  0  0  0  0  0
  152.1012  138.8790  158.4083 H   0  0  0  0  0  0  0  0  0  0  0  0
  150.6609  142.0055  158.1195 H   0  0  0  0  0  0  0  0  0  0  0  0
  153.6402  143.9398  160.4773 H   0  0  0  0  0  0  0  0  0  0  0  0
  1  2  2  0  0  0  0
  2  3  1  0  0  0  0
  2 11  1  0  0  0  0
  3  4  1  0  0  0  0
  3 23  1  0  0  0  0
  4  5  1  0  0  0  0
  4 24  1  0  0  0  0
  4 25  1  0  0  0  0
  5 10  1  0  0  0  0
  5  6  1  0  0  0  0
  5 26  1  0  0  0  0
  6  7  1  0  0  0  0
  6 27  1  0  0  0  0
  6 28  1  0  0  0  0
  7  8  1  0  0  0  0
  8  9  1  0  0  0  0
  8 29  1  0  0  0  0
  8 30  1  0  0  0  0
  9 10  1  0  0  0  0
  9 31  1  0  0  0  0
  9 32  1  0  0  0  0
 11 12  1  0  0  0  0
 11 33  1  0  0  0  0
 12 21  1  0  0  0  0
 12 13  2  0  0  0  0
 13 14  1  0  0  0  0
 13 34  1  0  0  0  0
 14 15  1  0  0  0  0
 14 19  2  0  0  0  0
 15 16  1  0  0  0  0
 15 17  1  0  0  0  0
 15 18  1  0  0  0  0
 19 20  1  0  0  0  0
 19 35  1  0  0  0  0
 20 21  1  0  0  0  0
 21 22  2  0  0  0  0
M  CHG  1  20  -1
M  END
> <s_m_source_file>
AV-unprocessed.smi

> <i_m_source_file_index>
1521

> <i_lp_mmshare_version>
43012

> <i_f3d_flags>
0

> <s_epik_input>
Tz1jMVtuSF1bY0hdYyhDKEYpKEYpRilbY0hdYzFbTkhdQyg9TylbTkhdW0NIMl1bQ0BASF0yW0NIMl1PW0NIMl1bQ0gyXU8y

> <s_epik_cmdline>
J2VwaWtfcHl0aG9uJywgJy1waCcsICc3LjAnLCAnLXRuJywgJzgnLCAnLW1hJywgJzIwMCcsICctbWV0YWxfYmluZGluZycsICctaW1hZScsICc8aW5maWxlLm1hZT4nLCAnLW9tYWUnLCAnPG91dGZpbGUubWFlPic=

> <r_lp_tautomer_probability>
1

> <r_epik_Ionization_Penalty>
3.1412

> <r_epik_Ionization_Penalty_Charging>
0.17015

> <r_epik_Ionization_Penalty_Neutral>
2.97105

> <r_epik_State_Penalty>
2.96707

> <r_epik_Charging_Adjusted_Penalty>
3.13722

> <i_epik_Tot_Q>
-1

> <i_epik_Tot_abs_Q>
1

> <r_epik_Metal_State_Penalty>
0.451298

> <b_epik_Metal_Only>
1

> <s_lp_Force_Field>
OPLS_2005

> <r_lp_Energy>
20.4323

> <b_lp_Chiralities_Consistent>
1

> <s_lp_Variant>
AV-unprocessed.smi:1521-3

> <Gold.Version>
5.8.1

> <Gold.Id.Protein>
6NUR|6NUR_protein|mol2

> <Gold.PLP.Fitness>
43.6119

> <Gold.PLP.PLP>
-37.1458

> <Gold.PLP.part.hbond>
-3.0000

> <Gold.PLP.part.metal>
0.0000

> <Gold.PLP.part.buried>
-6.0913

> <Gold.PLP.part.nonpolar>
-28.2000

> <Gold.PLP.part.repulsive>
0.2627

> <Gold.PLP.ligand.clash>
0.1706

> <Gold.PLP.ligand.torsion>
0.6806

> <Gold.PLP.Chemscore.Hbond>
2.6477

> <Gold.PLP.Chemscore.CHOScore>
0.0000

> <Gold.PLP.Chemscore.Metal>
0.0000

> <Gold.Chemscore.Hbonds>
donor molecule, donor type, donor heavy atom, donor atom, acceptor molecule, acceptor atom, score
      P1  H  7989  7998       L1     1  0.42
      P1  H  7997  8009       L1    22  0.95
      P1  H 10752 10764       L1    10  0.88

> <Gold.PLP.Chemscore.Internal.Correction>
0.0549

> <Gold.Rescore>
     Score         DG    S(hbond)    S(metal)    S(lipo)     H(rot)  DE(clash)    DE(int)     intcor
     16.08     -17.25       2.15        0.00      69.01       1.36       0.17       0.99       ----

> <Gold.Chemscore.Fitness>
16.0822

> <Gold.Chemscore.DG>
-17.2477

> <Gold.Chemscore.ZeroCoef>
-5.4800

> <Gold.Chemscore.Hbond>
2.1512

> <Gold.Chemscore.Metal>
0.0000

> <Gold.Chemscore.Lipo>
69.0124

> <Gold.Chemscore.Internal_Hbond>
0.0000

> <Gold.Chemscore.DEClash>
0.1709

> <Gold.Chemscore.DEInternal>
0.9946

> <Gold.Chemscore.Rot>
1.3640

> <Gold.Chemscore.Internal.Correction>
   9.000000E+99

> <Gold.Chemscore.Hbonds>
donor molecule, donor type, donor heavy atom, donor atom, acceptor molecule, acceptor atom, score
      P1  H  7989  7998       L1     1  0.40
      P1  H  7997  8009       L1    22  0.21
      P1  H 10752 10764       L1    10  0.35

> <Gold.Chemscore.Hbond.Weighted>
-7.1850

> <Gold.Chemscore.Metal.Weighted>
-0.0000

> <Gold.Chemscore.Lipo.Weighted>
-8.0744

> <Gold.Chemscore.Internal_Hbond.Weighted>
0.0000

> <Gold.Chemscore.DEClash.Weighted>
0.1709

> <Gold.Chemscore.DEInternal.Weighted>
0.9946

> <Gold.Chemscore.Rot.Weighted>
3.4918

> <Gold.Chemscore.Internal.Correction.Weighted>
   9.000000E+99

> <Gold.Protein.RotatedTorsions>
[ 6907 6896 6895 6894 ] final -166.42 input  -60.11 | X-H torsion
[ 7974 7965 7964 7962 ] final   51.46 input  175.53 | X-H torsion
[ 8008 7997 7996 7995 ] final  122.94 input   59.86 | X-H torsion
[ 10167 10162 10161 10158 ] final  103.93 input  -65.29 | X-H torsion
[ 10718 10713 10712 10709 ] final  -28.69 input   66.30 | X-H torsion
[ 10763 10752 10751 10750 ] final  -47.22 input  -60.55 | X-H torsion
[ 11005 11000 10999 10996 ] final  153.57 input  -57.11 | X-H torsion

> <Gold.Protein.ActiveResidues>
 VAL166  LYS551  ARG553  GLY616  TRP617  ASP618  TYR619  PRO620  LYS621  CYS622 
 ASP623  PHE694  ASN695  SER759  ASP760  ASP761  ALA762  ILE779  LEU786  VAL792 
 PHE793  MET794  SER795  GLU796  ALA797  LYS798  CYS799  TRP800  GLU811  SER814 

> <Gold.Protein.RotatedAtoms>
  151.4432  133.3637  159.2784 H   0  0  0  0  0  0  0  0  0  0  0  0  # atno 6907 bound_to 6896
  150.9142  134.8561  159.7457 H   0  0  0  0  0  0  0  0  0  0  0  0  # atno 6908 bound_to 6896
  152.4948  134.4365  159.9581 H   0  0  0  0  0  0  0  0  0  0  0  0  # atno 6909 bound_to 6896
  145.9911  139.4340  143.0073 H   0  0  0  0  0  0  0  0  0  0  0  0  # atno 7974 bound_to 7965
  156.2747  140.2774  156.1547 H   0  0  0  0  0  0  0  0  0  0  0  0  # atno 8008 bound_to 7997
  155.0816  140.0388  157.2658 H   0  0  0  0  0  0  0  0  0  0  0  0  # atno 8009 bound_to 7997
  154.6960  140.2639  155.6772 H   0  0  0  0  0  0  0  0  0  0  0  0  # atno 8010 bound_to 7997
  139.7221  144.7056  151.0856 H   0  0  0  0  0  0  0  0  0  0  0  0  # atno 10167 bound_to 10162
  156.4220  130.4428  149.7177 H   0  0  0  0  0  0  0  0  0  0  0  0  # atno 10718 bound_to 10713
  154.0578  135.6622  153.4808 H   0  0  0  0  0  0  0  0  0  0  0  0  # atno 10763 bound_to 10752
  153.0438  135.5127  154.7688 H   0  0  0  0  0  0  0  0  0  0  0  0  # atno 10764 bound_to 10752
  154.6715  135.3030  154.9702 H   0  0  0  0  0  0  0  0  0  0  0  0  # atno 10765 bound_to 10752
  140.1410  134.8739  157.2331 H   0  0  0  0  0  0  0  0  0  0  0  0  # atno 11005 bound_to 11000
  145.7628  140.9928  143.1190 LP  0  0  0  0  0  0  0  0  0  0  0  0  # atno 17320 bound_to 7965
  144.6889  139.9352  143.7473 LP  0  0  0  0  0  0  0  0  0  0  0  0  # atno 17321 bound_to 7965
  140.7755  143.5153  150.9603 LP  0  0  0  0  0  0  0  0  0  0  0  0  # atno 17342 bound_to 10162
  139.8840  143.7036  152.3153 LP  0  0  0  0  0  0  0  0  0  0  0  0  # atno 17343 bound_to 10162
  156.4114  130.7724  151.2737 LP  0  0  0  0  0  0  0  0  0  0  0  0  # atno 17370 bound_to 10713
  157.7508  131.0210  150.3733 LP  0  0  0  0  0  0  0  0  0  0  0  0  # atno 17371 bound_to 10713
  140.2722  134.3447  155.7370 LP  0  0  0  0  0  0  0  0  0  0  0  0  # atno 17394 bound_to 11000
  141.2186  133.7430  156.9239 LP  0  0  0  0  0  0  0  0  0  0  0  0  # atno 17395 bound_to 11000

$$$$
