AV-unprocessed.smi:1645|AV-procd|sdf|6622|dock5
  -GOLD-   22720 7323D 1   1.00000     0.00000
 Structure written by MMmdl.
 55 58  0  0  0  0  0  0  0  0  4 V2000
  147.5184  140.4633  153.2792 O   0  0  0  0  0  0  0  0  0  0  0  0
  147.6904  139.3168  153.7070 C   0  0  0  0  0  0  0  0  0  0  0  0
  148.4406  139.1028  154.8024 N   0  0  0  0  0  0  0  0  0  0  0  0
  149.1897  140.0311  155.5748 C   0  0  0  0  0  0  0  0  0  0  0  0
  150.0799  139.5131  156.5395 C   0  0  0  0  0  0  0  0  0  0  0  0
  150.8649  140.3934  157.3117 C   0  0  0  0  0  0  0  0  0  0  0  0
  150.7553  141.7864  157.0973 C   0  0  0  0  0  0  0  0  0  0  0  0
  151.4984  142.7367  157.8094 N   0  0  0  0  0  0  0  0  0  0  0  0
  150.6799  143.8333  158.3202 C   0  0  0  0  0  0  0  0  0  0  0  0
  151.5619  144.9373  158.9288 C   0  0  0  0  0  0  0  0  0  0  0  0
  152.5025  144.3604  159.9992 C   0  0  0  0  0  0  0  0  0  0  0  0
  153.3167  143.1929  159.4184 C   0  0  0  0  0  0  0  0  0  0  0  0
  152.3913  142.1333  158.7954 C   0  0  0  0  0  0  0  0  0  0  0  0
  149.9025  142.2440  156.1552 N   0  3  0  0  0  0  0  0  0  0  0  0
  149.1317  141.4349  155.3964 C   0  0  0  0  0  0  0  0  0  0  0  0
  147.1842  138.1597  153.2012 N   0  5  0  0  0  0  0  0  0  0  0  0
  146.1699  137.3261  153.8626 C   0  0  2  0  0  0  0  0  0  0  0  0
  146.8206  136.5792  155.0427 C   0  0  0  0  0  0  0  0  0  0  0  0
  147.3017  135.2251  154.4797 C   0  0  0  0  0  0  0  0  0  0  0  0
  146.8554  135.1952  153.0723 N   0  3  1  0  0  0  0  0  0  0  0  0
  146.5437  133.8697  152.4920 C   0  0  0  0  0  0  0  0  0  0  0  0
  146.1589  134.0325  151.0075 C   0  0  0  0  0  0  0  0  0  0  0  0
  145.0196  135.0549  150.8193 C   0  0  0  0  0  0  0  0  0  0  0  0
  145.3672  136.3979  151.4888 C   0  0  0  0  0  0  0  0  0  0  0  0
  145.7389  136.1492  152.9679 C   0  0  2  0  0  0  0  0  0  0  0  0
  148.4415  138.1529  155.1438 H   0  0  0  0  0  0  0  0  0  0  0  0
  150.1602  138.4465  156.6910 H   0  0  0  0  0  0  0  0  0  0  0  0
  151.5429  139.9990  158.0541 H   0  0  0  0  0  0  0  0  0  0  0  0
  150.0737  144.2463  157.5126 H   0  0  0  0  0  0  0  0  0  0  0  0
  149.9909  143.4539  159.0762 H   0  0  0  0  0  0  0  0  0  0  0  0
  152.1507  145.4105  158.1417 H   0  0  0  0  0  0  0  0  0  0  0  0
  150.9370  145.7195  159.3605 H   0  0  0  0  0  0  0  0  0  0  0  0
  153.1702  145.1370  160.3736 H   0  0  0  0  0  0  0  0  0  0  0  0
  151.9184  144.0124  160.8520 H   0  0  0  0  0  0  0  0  0  0  0  0
  154.0044  143.5689  158.6596 H   0  0  0  0  0  0  0  0  0  0  0  0
  153.9318  142.7409  160.1970 H   0  0  0  0  0  0  0  0  0  0  0  0
  151.8007  141.6534  159.5771 H   0  0  0  0  0  0  0  0  0  0  0  0
  152.9886  141.3532  158.3216 H   0  0  0  0  0  0  0  0  0  0  0  0
  148.5154  141.9442  154.6709 H   0  0  0  0  0  0  0  0  0  0  0  0
  145.3049  137.8989  154.1997 H   0  0  0  0  0  0  0  0  0  0  0  0
  147.6279  137.1436  155.5121 H   0  0  0  0  0  0  0  0  0  0  0  0
  146.0711  136.3997  155.8144 H   0  0  0  0  0  0  0  0  0  0  0  0
  148.3865  135.1225  154.5263 H   0  0  0  0  0  0  0  0  0  0  0  0
  146.8612  134.4022  155.0453 H   0  0  0  0  0  0  0  0  0  0  0  0
  147.4116  133.2164  152.5868 H   0  0  0  0  0  0  0  0  0  0  0  0
  145.7272  133.4060  153.0476 H   0  0  0  0  0  0  0  0  0  0  0  0
  147.0321  134.3611  150.4422 H   0  0  0  0  0  0  0  0  0  0  0  0
  145.8672  133.0684  150.5903 H   0  0  0  0  0  0  0  0  0  0  0  0
  144.8217  135.2056  149.7578 H   0  0  0  0  0  0  0  0  0  0  0  0
  144.1004  134.6591  151.2531 H   0  0  0  0  0  0  0  0  0  0  0  0
  146.1946  136.8579  150.9453 H   0  0  0  0  0  0  0  0  0  0  0  0
  144.5207  137.0820  151.4104 H   0  0  0  0  0  0  0  0  0  0  0  0
  144.8721  135.6905  153.4491 H   0  0  0  0  0  0  0  0  0  0  0  0
  147.6061  135.6005  152.5311 H   0  0  0  0  0  0  0  0  0  0  0  0
  149.8392  143.2512  156.0053 H   0  0  0  0  0  0  0  0  0  0  0  0
  1  2  2  0  0  0  0
  2  3  1  0  0  0  0
  2 16  1  0  0  0  0
  3  4  1  0  0  0  0
  3 26  1  0  0  0  0
  4 15  1  0  0  0  0
  4  5  2  0  0  0  0
  5  6  1  0  0  0  0
  5 27  1  0  0  0  0
  6  7  2  0  0  0  0
  6 28  1  0  0  0  0
  7  8  1  0  0  0  0
  7 14  1  0  0  0  0
  8 13  1  0  0  0  0
  8  9  1  0  0  0  0
  9 10  1  0  0  0  0
  9 29  1  0  0  0  0
  9 30  1  0  0  0  0
 10 11  1  0  0  0  0
 10 31  1  0  0  0  0
 10 32  1  0  0  0  0
 11 12  1  0  0  0  0
 11 33  1  0  0  0  0
 11 34  1  0  0  0  0
 12 13  1  0  0  0  0
 12 35  1  0  0  0  0
 12 36  1  0  0  0  0
 13 37  1  0  0  0  0
 13 38  1  0  0  0  0
 14 15  2  0  0  0  0
 14 55  1  0  0  0  0
 15 39  1  0  0  0  0
 16 17  1  0  0  0  0
 17 25  1  0  0  0  0
 17 18  1  0  0  0  0
 17 40  1  0  0  0  0
 18 19  1  0  0  0  0
 18 41  1  0  0  0  0
 18 42  1  0  0  0  0
 19 20  1  0  0  0  0
 19 43  1  0  0  0  0
 19 44  1  0  0  0  0
 20 25  1  0  0  0  0
 20 21  1  0  0  0  0
 20 54  1  0  0  0  0
 21 22  1  0  0  0  0
 21 45  1  0  0  0  0
 21 46  1  0  0  0  0
 22 23  1  0  0  0  0
 22 47  1  0  0  0  0
 22 48  1  0  0  0  0
 23 24  1  0  0  0  0
 23 49  1  0  0  0  0
 23 50  1  0  0  0  0
 24 25  1  0  0  0  0
 24 51  1  0  0  0  0
 24 52  1  0  0  0  0
 25 53  1  0  0  0  0
M  CHG  1  14   1
M  CHG  1  16  -1
M  CHG  1  20   1
M  END
> <s_m_source_file>
AV-unprocessed.smi

> <i_m_source_file_index>
1645

> <i_lp_mmshare_version>
43012

> <i_f3d_flags>
0

> <s_epik_input>
W0NIMl0xW0NIMl1bQ0gyXVtDSDJdW0NASF0oTjEyKVtDQEBIXShbQ0gyXVtDSDJdMilbTkhdQyg9TylbTkhdYzNbY0hdW2NIXWMobltjSF0zKU40W0NIMl1bQ0gyXVtDSDJdW0NIMl1bQ0gyXTQ=

> <s_epik_cmdline>
J2VwaWtfcHl0aG9uJywgJy1waCcsICc3LjAnLCAnLXRuJywgJzgnLCAnLW1hJywgJzIwMCcsICctbWV0YWxfYmluZGluZycsICctaW1hZScsICc8aW5maWxlLm1hZT4nLCAnLW9tYWUnLCAnPG91dGZpbGUubWFlPic=

> <r_lp_tautomer_probability>
0.999994

> <r_epik_Ionization_Penalty>
8.55589

> <r_epik_Ionization_Penalty_Charging>
8.55589

> <r_epik_Ionization_Penalty_Neutral>
3.8092e-06

> <r_epik_State_Penalty>
8.15703

> <r_epik_Charging_Adjusted_Penalty>
16.7129

> <i_epik_Tot_Q>
1

> <i_epik_Tot_abs_Q>
3

> <r_epik_Metal_State_Penalty>
4.13781

> <b_epik_Metal_Only>
1

> <s_lp_Force_Field>
OPLS_2005

> <r_lp_Energy>
55.4093

> <b_lp_Chiralities_Consistent>
1

> <s_lp_Variant>
AV-unprocessed.smi:1645-23

> <Gold.Version>
5.8.1

> <Gold.Id.Protein>
6NUR|6NUR_protein|mol2

> <Gold.PLP.Fitness>
47.9326

> <Gold.PLP.PLP>
-37.5346

> <Gold.PLP.part.hbond>
-2.0000

> <Gold.PLP.part.metal>
0.0000

> <Gold.PLP.part.buried>
-6.6945

> <Gold.PLP.part.nonpolar>
-32.0449

> <Gold.PLP.part.repulsive>
3.0943

> <Gold.PLP.ligand.clash>
0.0258

> <Gold.PLP.ligand.torsion>
0.8870

> <Gold.PLP.Chemscore.Hbond>
4.0000

> <Gold.PLP.Chemscore.CHOScore>
0.0000

> <Gold.PLP.Chemscore.Metal>
0.0000

> <Gold.Chemscore.Hbonds>
donor molecule, donor type, donor heavy atom, donor atom, acceptor molecule, acceptor atom, score
      L1  H    14    55       P1  8028  2.00
      L1  H    20    54       P1  7948  2.00

> <Gold.PLP.Chemscore.Internal.Correction>
0.1977

> <Gold.Rescore>
     Score         DG    S(hbond)    S(metal)    S(lipo)     H(rot)  DE(clash)    DE(int)     intcor
     18.52     -20.89       1.97        0.00     101.20       1.17       0.08       2.29       ----

> <Gold.Chemscore.Fitness>
18.5250

> <Gold.Chemscore.DG>
-20.8941

> <Gold.Chemscore.ZeroCoef>
-5.4800

> <Gold.Chemscore.Hbond>
1.9693

> <Gold.Chemscore.Metal>
0.0000

> <Gold.Chemscore.Lipo>
101.1969

> <Gold.Chemscore.Internal_Hbond>
0.0000

> <Gold.Chemscore.DEClash>
0.0811

> <Gold.Chemscore.DEInternal>
2.2881

> <Gold.Chemscore.Rot>
1.1731

> <Gold.Chemscore.Internal.Correction>
   9.000000E+99

> <Gold.Chemscore.Hbonds>
donor molecule, donor type, donor heavy atom, donor atom, acceptor molecule, acceptor atom, score
      L1  H    14    55       P1  8028  0.95
      L1  H    20    54       P1  7948  0.99

> <Gold.Chemscore.Hbond.Weighted>
-6.5773

> <Gold.Chemscore.Metal.Weighted>
-0.0000

> <Gold.Chemscore.Lipo.Weighted>
-11.8400

> <Gold.Chemscore.Internal_Hbond.Weighted>
0.0000

> <Gold.Chemscore.DEClash.Weighted>
0.0811

> <Gold.Chemscore.DEInternal.Weighted>
2.2881

> <Gold.Chemscore.Rot.Weighted>
3.0032

> <Gold.Chemscore.Internal.Correction.Weighted>
   9.000000E+99

> <Gold.Protein.RotatedTorsions>
[ 6907 6896 6895 6894 ] final  -22.63 input  -60.11 | X-H torsion
[ 7974 7965 7964 7962 ] final   73.70 input  175.53 | X-H torsion
[ 8008 7997 7996 7995 ] final   -8.13 input   59.86 | X-H torsion
[ 10167 10162 10161 10158 ] final   19.97 input  -65.29 | X-H torsion
[ 10718 10713 10712 10709 ] final -142.18 input   66.30 | X-H torsion
[ 10763 10752 10751 10750 ] final  -56.96 input  -60.55 | X-H torsion
[ 11005 11000 10999 10996 ] final  119.11 input  -57.11 | X-H torsion

> <Gold.Protein.ActiveResidues>
 VAL166  LYS551  ARG553  GLY616  TRP617  ASP618  TYR619  PRO620  LYS621  CYS622 
 ASP623  PHE694  ASN695  SER759  ASP760  ASP761  ALA762  ILE779  LEU786  VAL792 
 PHE793  MET794  SER795  GLU796  ALA797  LYS798  CYS799  TRP800  GLU811  SER814 

> <Gold.Protein.RotatedAtoms>
  151.2158  135.0499  159.8929 H   0  0  0  0  0  0  0  0  0  0  0  0  # atno 6907 bound_to 6896
  152.5420  134.0695  159.8198 H   0  0  0  0  0  0  0  0  0  0  0  0  # atno 6908 bound_to 6896
  151.0854  133.5309  159.2650 H   0  0  0  0  0  0  0  0  0  0  0  0  # atno 6909 bound_to 6896
  145.7376  139.2708  143.1505 H   0  0  0  0  0  0  0  0  0  0  0  0  # atno 7974 bound_to 7965
  154.5771  140.2389  155.8107 H   0  0  0  0  0  0  0  0  0  0  0  0  # atno 8008 bound_to 7997
  156.2151  140.3014  155.9778 H   0  0  0  0  0  0  0  0  0  0  0  0  # atno 8009 bound_to 7997
  155.2607  140.0414  157.2987 H   0  0  0  0  0  0  0  0  0  0  0  0  # atno 8010 bound_to 7997
  140.5539  143.9460  150.6596 H   0  0  0  0  0  0  0  0  0  0  0  0  # atno 10167 bound_to 10162
  156.3428  130.7646  151.1786 H   0  0  0  0  0  0  0  0  0  0  0  0  # atno 10718 bound_to 10713
  154.2149  135.6388  153.5126 H   0  0  0  0  0  0  0  0  0  0  0  0  # atno 10763 bound_to 10752
  152.9981  135.5483  154.6176 H   0  0  0  0  0  0  0  0  0  0  0  0  # atno 10764 bound_to 10752
  154.5622  135.2910  155.0882 H   0  0  0  0  0  0  0  0  0  0  0  0  # atno 10765 bound_to 10752
  139.9134  134.9626  156.7605 H   0  0  0  0  0  0  0  0  0  0  0  0  # atno 11005 bound_to 11000
  146.0479  140.8100  142.9796 LP  0  0  0  0  0  0  0  0  0  0  0  0  # atno 17320 bound_to 7965
  144.6878  140.3008  143.7263 LP  0  0  0  0  0  0  0  0  0  0  0  0  # atno 17321 bound_to 7965
  140.2893  143.3335  152.1078 LP  0  0  0  0  0  0  0  0  0  0  0  0  # atno 17342 bound_to 10162
  139.5039  144.6765  151.6115 LP  0  0  0  0  0  0  0  0  0  0  0  0  # atno 17343 bound_to 10162
  157.7449  131.0449  150.4819 LP  0  0  0  0  0  0  0  0  0  0  0  0  # atno 17370 bound_to 10713
  156.5002  130.4115  149.6357 LP  0  0  0  0  0  0  0  0  0  0  0  0  # atno 17371 bound_to 10713
  140.6701  133.9567  155.7852 LP  0  0  0  0  0  0  0  0  0  0  0  0  # atno 17394 bound_to 11000
  141.0583  134.0383  157.3692 LP  0  0  0  0  0  0  0  0  0  0  0  0  # atno 17395 bound_to 11000

$$$$
