AV-unprocessed.smi:1868|AV-procd|sdf|7589|dock7
  -GOLD-   22720 9303D 1   1.00000     0.00000
 Structure written by MMmdl.
 48 50  0  0  0  0  0  0  0  0  3 V2000
  149.5828  141.1119  154.2699 C   0  0  0  0  0  0  0  0  0  0  0  0
  150.2877  141.2022  155.5816 C   0  0  0  0  0  0  0  0  0  0  0  0
  150.0949  142.1619  156.5300 N   0  3  0  0  0  0  0  0  0  0  0  0
  150.9333  141.9245  157.6202 C   0  0  0  0  0  0  0  0  0  0  0  0
  151.0985  142.6224  158.8125 C   0  0  0  0  0  0  0  0  0  0  0  0
  152.0480  142.1086  159.7201 C   0  0  0  0  0  0  0  0  0  0  0  0
  152.7889  140.9447  159.4277 C   0  0  0  0  0  0  0  0  0  0  0  0
  152.6128  140.2452  158.2152 C   0  0  0  0  0  0  0  0  0  0  0  0
  151.6720  140.7604  157.3240 C   0  0  0  0  0  0  0  0  0  0  0  0
  151.2383  140.3477  156.0591 N   0  0  0  0  0  0  0  0  0  0  0  0
  151.8303  139.1451  155.4523 C   0  0  0  0  0  0  0  0  0  0  0  0
  150.8368  138.3551  154.5768 C   0  0  1  0  0  0  0  0  0  0  0  0
  151.4381  137.1432  154.1641 O   0  0  0  0  0  0  0  0  0  0  0  0
  149.5421  138.0277  155.3474 C   0  0  0  0  0  0  0  0  0  0  0  0
  148.4257  137.6232  154.4541 N   0  3  2  0  0  0  0  0  0  0  0  0
  147.7121  138.7761  153.8427 C   0  0  0  0  0  0  0  0  0  0  0  0
  146.6549  138.3010  152.8316 C   0  0  0  0  0  0  0  0  0  0  0  0
  145.6499  137.3378  153.4855 C   0  0  1  0  0  0  0  0  0  0  0  0
  144.6051  136.8340  152.4802 C   0  0  0  0  0  0  0  0  0  0  0  0
  146.4165  136.1765  154.1398 C   0  0  0  0  0  0  0  0  0  0  0  0
  147.4800  136.6931  155.1232 C   0  0  0  0  0  0  0  0  0  0  0  0
  148.9072  141.9575  154.1384 H   0  0  0  0  0  0  0  0  0  0  0  0
  149.0004  140.1920  154.2174 H   0  0  0  0  0  0  0  0  0  0  0  0
  150.3045  141.1160  153.4526 H   0  0  0  0  0  0  0  0  0  0  0  0
  150.5336  143.5150  159.0387 H   0  0  0  0  0  0  0  0  0  0  0  0
  152.2119  142.6178  160.6589 H   0  0  0  0  0  0  0  0  0  0  0  0
  153.5083  140.5820  160.1477 H   0  0  0  0  0  0  0  0  0  0  0  0
  153.1867  139.3561  158.0007 H   0  0  0  0  0  0  0  0  0  0  0  0
  152.6883  139.4628  154.8585 H   0  0  0  0  0  0  0  0  0  0  0  0
  152.2289  138.5180  156.2510 H   0  0  0  0  0  0  0  0  0  0  0  0
  150.6143  138.9403  153.6857 H   0  0  0  0  0  0  0  0  0  0  0  0
  151.3366  137.0612  153.2276 H   0  0  0  0  0  0  0  0  0  0  0  0
  149.7585  137.2238  156.0533 H   0  0  0  0  0  0  0  0  0  0  0  0
  149.2275  138.8810  155.9500 H   0  0  0  0  0  0  0  0  0  0  0  0
  147.2388  139.3697  154.6265 H   0  0  0  0  0  0  0  0  0  0  0  0
  148.4151  139.4336  153.3329 H   0  0  0  0  0  0  0  0  0  0  0  0
  146.1307  139.1633  152.4181 H   0  0  0  0  0  0  0  0  0  0  0  0
  147.1492  137.8085  151.9927 H   0  0  0  0  0  0  0  0  0  0  0  0
  145.1197  137.8803  154.2698 H   0  0  0  0  0  0  0  0  0  0  0  0
  145.0712  136.2772  151.6667 H   0  0  0  0  0  0  0  0  0  0  0  0
  144.0508  137.6636  152.0406 H   0  0  0  0  0  0  0  0  0  0  0  0
  143.8825  136.1753  152.9629 H   0  0  0  0  0  0  0  0  0  0  0  0
  145.7223  135.5188  154.6640 H   0  0  0  0  0  0  0  0  0  0  0  0
  146.8961  135.5687  153.3709 H   0  0  0  0  0  0  0  0  0  0  0  0
  148.0264  135.8429  155.5335 H   0  0  0  0  0  0  0  0  0  0  0  0
  147.0025  137.1997  155.9637 H   0  0  0  0  0  0  0  0  0  0  0  0
  148.8456  137.0990  153.6992 H   0  0  0  0  0  0  0  0  0  0  0  0
  149.4380  142.9259  156.4340 H   0  0  0  0  0  0  0  0  0  0  0  0
  1  2  1  0  0  0  0
  1 22  1  0  0  0  0
  1 23  1  0  0  0  0
  1 24  1  0  0  0  0
  2 10  1  0  0  0  0
  2  3  2  0  0  0  0
  3  4  1  0  0  0  0
  3 48  1  0  0  0  0
  4  9  2  0  0  0  0
  4  5  1  0  0  0  0
  5  6  2  0  0  0  0
  5 25  1  0  0  0  0
  6  7  1  0  0  0  0
  6 26  1  0  0  0  0
  7  8  2  0  0  0  0
  7 27  1  0  0  0  0
  8  9  1  0  0  0  0
  8 28  1  0  0  0  0
  9 10  1  0  0  0  0
 10 11  1  0  0  0  0
 11 12  1  0  0  0  0
 11 29  1  0  0  0  0
 11 30  1  0  0  0  0
 12 13  1  0  0  0  0
 12 14  1  0  0  0  0
 12 31  1  0  0  0  0
 13 32  1  0  0  0  0
 14 15  1  0  0  0  0
 14 33  1  0  0  0  0
 14 34  1  0  0  0  0
 15 21  1  0  0  0  0
 15 16  1  0  0  0  0
 15 47  1  0  0  0  0
 16 17  1  0  0  0  0
 16 35  1  0  0  0  0
 16 36  1  0  0  0  0
 17 18  1  0  0  0  0
 17 37  1  0  0  0  0
 17 38  1  0  0  0  0
 18 19  1  0  0  0  0
 18 20  1  0  0  0  0
 18 39  1  0  0  0  0
 19 40  1  0  0  0  0
 19 41  1  0  0  0  0
 19 42  1  0  0  0  0
 20 21  1  0  0  0  0
 20 43  1  0  0  0  0
 20 44  1  0  0  0  0
 21 45  1  0  0  0  0
 21 46  1  0  0  0  0
M  CHG  1   3   1
M  CHG  1  15   1
M  END
> <s_m_source_file>
AV-unprocessed.smi

> <i_m_source_file_index>
1868

> <i_lp_mmshare_version>
43012

> <i_f3d_flags>
0

> <s_epik_input>
W2NIXTFbY0hdW2NIXVtjSF1jKGMxMiluKGMobjIpW0NIM10pW0NIMl1bQ0BIXShbT0hdKVtDSDJdTjNbQ0gyXVtDSDJdW0NIXShbQ0gzXSlbQ0gyXVtDSDJdMw==

> <s_epik_cmdline>
J2VwaWtfcHl0aG9uJywgJy1waCcsICc3LjAnLCAnLXRuJywgJzgnLCAnLW1hJywgJzIwMCcsICctbWV0YWxfYmluZGluZycsICctaW1hZScsICc8aW5maWxlLm1hZT4nLCAnLW9tYWUnLCAnPG91dGZpbGUubWFlPic=

> <r_epik_Ionization_Penalty>
1.10901

> <r_epik_Ionization_Penalty_Charging>
1.10901

> <r_epik_Ionization_Penalty_Neutral>
6.90208e-07

> <r_epik_State_Penalty>
1.18788

> <r_epik_Charging_Adjusted_Penalty>
2.29689

> <i_epik_Tot_Q>
2

> <i_epik_Tot_abs_Q>
2

> <r_epik_Metal_State_Penalty>
5.19353

> <b_epik_Metal_Only>
0

> <s_lp_Force_Field>
OPLS_2005

> <r_lp_Energy>
29.1884

> <b_lp_Chiralities_Consistent>
1

> <s_lp_Variant>
AV-unprocessed.smi:1868-6

> <Gold.Version>
5.8.1

> <Gold.Id.Protein>
6NUR|6NUR_protein|mol2

> <Gold.PLP.Fitness>
50.3687

> <Gold.PLP.PLP>
-35.2391

> <Gold.PLP.part.hbond>
-3.6339

> <Gold.PLP.part.metal>
0.0000

> <Gold.PLP.part.buried>
-0.4296

> <Gold.PLP.part.nonpolar>
-30.7163

> <Gold.PLP.part.repulsive>
0.0603

> <Gold.PLP.ligand.clash>
0.0000

> <Gold.PLP.ligand.torsion>
0.8014

> <Gold.PLP.Chemscore.Hbond>
5.5596

> <Gold.PLP.Chemscore.CHOScore>
0.0000

> <Gold.PLP.Chemscore.Metal>
0.0000

> <Gold.Chemscore.Hbonds>
donor molecule, donor type, donor heavy atom, donor atom, acceptor molecule, acceptor atom, score
      L1  H     3    48       P1  8028  2.00
      L1  H    13    32       P1  7949  0.96
      L1  H    15    47       P1  7948  2.00
      P1  H 10752 10765       L1    13  0.53

> <Gold.PLP.Chemscore.Internal.Correction>
0.0534

> <Gold.Rescore>
     Score         DG    S(hbond)    S(metal)    S(lipo)     H(rot)  DE(clash)    DE(int)     intcor
     17.94     -20.69       2.76        0.00      94.79       1.99       1.34       1.42       ----

> <Gold.Chemscore.Fitness>
17.9370

> <Gold.Chemscore.DG>
-20.6944

> <Gold.Chemscore.ZeroCoef>
-5.4800

> <Gold.Chemscore.Hbond>
2.7572

> <Gold.Chemscore.Metal>
0.0000

> <Gold.Chemscore.Lipo>
94.7902

> <Gold.Chemscore.Internal_Hbond>
0.0000

> <Gold.Chemscore.DEClash>
1.3397

> <Gold.Chemscore.DEInternal>
1.4178

> <Gold.Chemscore.Rot>
1.9863

> <Gold.Chemscore.Internal.Correction>
   9.000000E+99

> <Gold.Chemscore.Hbonds>
donor molecule, donor type, donor heavy atom, donor atom, acceptor molecule, acceptor atom, score
      L1  H     3    48       P1  8028  0.90
      L1  H    13    32       P1  7949  0.66
      L1  H    15    47       P1  7948  0.94
      P1  H 10752 10765       L1    13  0.04

> <Gold.Chemscore.Hbond.Weighted>
-9.2090

> <Gold.Chemscore.Metal.Weighted>
-0.0000

> <Gold.Chemscore.Lipo.Weighted>
-11.0905

> <Gold.Chemscore.Internal_Hbond.Weighted>
0.0000

> <Gold.Chemscore.DEClash.Weighted>
1.3397

> <Gold.Chemscore.DEInternal.Weighted>
1.4178

> <Gold.Chemscore.Rot.Weighted>
5.0850

> <Gold.Chemscore.Internal.Correction.Weighted>
   9.000000E+99

> <Gold.Protein.RotatedTorsions>
[ 6907 6896 6895 6894 ] final  -79.18 input  -60.11 | X-H torsion
[ 7974 7965 7964 7962 ] final  156.18 input  175.53 | X-H torsion
[ 8008 7997 7996 7995 ] final  -36.79 input   59.86 | X-H torsion
[ 10167 10162 10161 10158 ] final -134.07 input  -65.29 | X-H torsion
[ 10718 10713 10712 10709 ] final   45.07 input   66.30 | X-H torsion
[ 10763 10752 10751 10750 ] final  160.37 input  -60.55 | X-H torsion
[ 11005 11000 10999 10996 ] final -137.14 input  -57.11 | X-H torsion

> <Gold.Protein.ActiveResidues>
 VAL166  LYS551  ARG553  GLY616  TRP617  ASP618  TYR619  PRO620  LYS621  CYS622 
 ASP623  PHE694  ASN695  SER759  ASP760  ASP761  ALA762  ILE779  LEU786  VAL792 
 PHE793  MET794  SER795  GLU796  ALA797  LYS798  CYS799  TRP800  GLU811  SER814 

> <Gold.Protein.RotatedAtoms>
  150.6955  134.4160  159.5182 H   0  0  0  0  0  0  0  0  0  0  0  0  # atno 6907 bound_to 6896
  152.1911  134.8669  160.0526 H   0  0  0  0  0  0  0  0  0  0  0  0  # atno 6908 bound_to 6896
  151.9624  133.3664  159.4077 H   0  0  0  0  0  0  0  0  0  0  0  0  # atno 6909 bound_to 6896
  144.7979  139.7169  143.6194 H   0  0  0  0  0  0  0  0  0  0  0  0  # atno 7974 bound_to 7965
  154.4066  140.1621  156.2431 H   0  0  0  0  0  0  0  0  0  0  0  0  # atno 8008 bound_to 7997
  155.9184  140.3423  155.6131 H   0  0  0  0  0  0  0  0  0  0  0  0  # atno 8009 bound_to 7997
  155.7251  140.0773  157.2304 H   0  0  0  0  0  0  0  0  0  0  0  0  # atno 8010 bound_to 7997
  139.8918  143.6713  152.2611 H   0  0  0  0  0  0  0  0  0  0  0  0  # atno 10167 bound_to 10162
  157.4336  130.8039  149.7626 H   0  0  0  0  0  0  0  0  0  0  0  0  # atno 10718 bound_to 10713
  154.2464  135.2773  155.2834 H   0  0  0  0  0  0  0  0  0  0  0  0  # atno 10763 bound_to 10752
  154.5502  135.5677  153.6919 H   0  0  0  0  0  0  0  0  0  0  0  0  # atno 10764 bound_to 10752
  152.9989  135.6272  154.2609 H   0  0  0  0  0  0  0  0  0  0  0  0  # atno 10765 bound_to 10752
  140.8739  134.2016  157.4633 H   0  0  0  0  0  0  0  0  0  0  0  0  # atno 11005 bound_to 11000
  146.2252  139.5710  142.9592 LP  0  0  0  0  0  0  0  0  0  0  0  0  # atno 17320 bound_to 7965
  145.5627  141.0402  143.2217 LP  0  0  0  0  0  0  0  0  0  0  0  0  # atno 17321 bound_to 7965
  139.7103  144.7621  151.1123 LP  0  0  0  0  0  0  0  0  0  0  0  0  # atno 17342 bound_to 10162
  140.7725  143.5340  150.9390 LP  0  0  0  0  0  0  0  0  0  0  0  0  # atno 17343 bound_to 10162
  155.9922  130.3932  150.2951 LP  0  0  0  0  0  0  0  0  0  0  0  0  # atno 17370 bound_to 10713
  157.1110  131.0221  151.3048 LP  0  0  0  0  0  0  0  0  0  0  0  0  # atno 17371 bound_to 10713
  139.8714  134.9787  156.5007 LP  0  0  0  0  0  0  0  0  0  0  0  0  # atno 17394 bound_to 11000
  140.8540  133.8110  155.9198 LP  0  0  0  0  0  0  0  0  0  0  0  0  # atno 17395 bound_to 11000

$$$$
