AV-unprocessed.smi:359|AV-procd|sdf|2418|dock6
  -GOLD-   2262022353D 1   1.00000     0.00000
 Structure written by MMmdl.
 33 34  0  0  0  0  0  0  0  0  1 V2000
  145.7803  143.0143  153.5399 C   0  0  0  0  0  0  0  0  0  0  0  0
  146.1488  141.6104  153.4779 N   0  0  0  0  0  0  0  0  0  0  0  0
  147.2721  141.0024  154.0232 C   0  0  0  0  0  0  0  0  0  0  0  0
  148.2775  141.7441  154.7681 C   0  0  0  0  0  0  0  0  0  0  0  0
  149.3208  141.1864  155.2773 N   0  0  0  0  0  0  0  0  0  0  0  0
  149.5095  139.8273  155.1260 N   0  0  0  0  0  0  0  0  0  0  0  0
  150.7198  139.3159  155.7802 C   0  0  0  0  0  0  0  0  0  0  0  0
  151.7539  140.4287  156.0173 C   0  0  0  0  0  0  0  0  0  0  0  0
  152.4915  140.1323  157.1962 O   0  0  0  0  0  0  0  0  0  0  0  0
  152.3998  141.0014  158.2617 C   0  0  0  0  0  0  0  0  0  0  0  0
  153.1579  140.6876  159.4087 C   0  0  0  0  0  0  0  0  0  0  0  0
  153.1287  141.5215  160.5430 C   0  0  0  0  0  0  0  0  0  0  0  0
  152.3345  142.6834  160.5413 C   0  0  0  0  0  0  0  0  0  0  0  0
  152.2994  143.7095  161.9281 Cl  0  0  0  0  0  0  0  0  0  0  0  0
  151.5687  143.0059  159.4051 C   0  0  0  0  0  0  0  0  0  0  0  0
  151.5989  142.1715  158.2704 C   0  0  0  0  0  0  0  0  0  0  0  0
  148.6607  138.9941  154.4546 C   0  0  0  0  0  0  0  0  0  0  0  0
  148.8694  137.7846  154.3494 O   0  0  0  0  0  0  0  0  0  0  0  0
  147.4850  139.6664  153.8824 C   0  0  0  0  0  0  0  0  0  0  0  0
  146.3519  138.6872  153.0116 Cl  0  0  0  0  0  0  0  0  0  0  0  0
  144.8309  143.1744  153.0289 H   0  0  0  0  0  0  0  0  0  0  0  0
  146.5379  143.6334  153.0587 H   0  0  0  0  0  0  0  0  0  0  0  0
  145.6705  143.3361  154.5758 H   0  0  0  0  0  0  0  0  0  0  0  0
  145.4904  141.0125  152.9980 H   0  0  0  0  0  0  0  0  0  0  0  0
  148.1016  142.8141  154.8757 H   0  0  0  0  0  0  0  0  0  0  0  0
  150.4601  138.8463  156.7306 H   0  0  0  0  0  0  0  0  0  0  0  0
  151.1689  138.5218  155.1807 H   0  0  0  0  0  0  0  0  0  0  0  0
  152.4187  140.5176  155.1566 H   0  0  0  0  0  0  0  0  0  0  0  0
  151.2351  141.3805  156.1397 H   0  0  0  0  0  0  0  0  0  0  0  0
  153.7709  139.7983  159.4183 H   0  0  0  0  0  0  0  0  0  0  0  0
  153.7170  141.2682  161.4126 H   0  0  0  0  0  0  0  0  0  0  0  0
  150.9558  143.8953  159.4015 H   0  0  0  0  0  0  0  0  0  0  0  0
  150.9973  142.4513  157.4191 H   0  0  0  0  0  0  0  0  0  0  0  0
  1  2  1  0  0  0  0
  1 21  1  0  0  0  0
  1 22  1  0  0  0  0
  1 23  1  0  0  0  0
  2  3  1  0  0  0  0
  2 24  1  0  0  0  0
  3 19  2  0  0  0  0
  3  4  1  0  0  0  0
  4  5  2  0  0  0  0
  4 25  1  0  0  0  0
  5  6  1  0  0  0  0
  6  7  1  0  0  0  0
  6 17  1  0  0  0  0
  7  8  1  0  0  0  0
  7 26  1  0  0  0  0
  7 27  1  0  0  0  0
  8  9  1  0  0  0  0
  8 28  1  0  0  0  0
  8 29  1  0  0  0  0
  9 10  1  0  0  0  0
 10 16  1  0  0  0  0
 10 11  2  0  0  0  0
 11 12  1  0  0  0  0
 11 30  1  0  0  0  0
 12 13  2  0  0  0  0
 12 31  1  0  0  0  0
 13 14  1  0  0  0  0
 13 15  1  0  0  0  0
 15 16  2  0  0  0  0
 15 32  1  0  0  0  0
 16 33  1  0  0  0  0
 17 18  2  0  0  0  0
 17 19  1  0  0  0  0
 19 20  1  0  0  0  0
M  END
> <s_m_source_file>
AV-unprocessed.smi

> <i_m_source_file_index>
359

> <i_lp_mmshare_version>
43012

> <i_f3d_flags>
0

> <s_epik_input>
W0NIM11bTkhdYzFbY0hdbm4oYyg9TyljMUNsKVtDSDJdW0NIMl1PYzJbY0hdW2NIXWMoQ2wpW2NIXVtjSF0y

> <s_epik_cmdline>
J2VwaWtfcHl0aG9uJywgJy1waCcsICc3LjAnLCAnLXRuJywgJzgnLCAnLW1hJywgJzIwMCcsICctbWV0YWxfYmluZGluZycsICctaW1hZScsICc8aW5maWxlLm1hZT4nLCAnLW9tYWUnLCAnPG91dGZpbGUubWFlPic=

> <r_lp_tautomer_probability>
1

> <r_epik_Ionization_Penalty>
1.57682e-05

> <r_epik_Ionization_Penalty_Charging>
1.04488e-09

> <r_epik_Ionization_Penalty_Neutral>
1.57671e-05

> <r_epik_State_Penalty>
-0

> <r_epik_Charging_Adjusted_Penalty>
1.04488e-09

> <i_epik_Tot_Q>
0

> <i_epik_Tot_abs_Q>
0

> <r_epik_Metal_State_Penalty>
-0

> <b_epik_Metal_Only>
0

> <s_lp_Force_Field>
OPLS_2005

> <r_lp_Energy>
30.271

> <b_lp_Chiralities_Consistent>
1

> <s_lp_Variant>
AV-unprocessed.smi:359-1

> <Gold.Version>
5.8.1

> <Gold.Id.Protein>
6NUR|6NUR_protein|mol2

> <Gold.PLP.Fitness>
45.7619

> <Gold.PLP.PLP>
-38.5033

> <Gold.PLP.part.hbond>
-2.0000

> <Gold.PLP.part.metal>
0.0000

> <Gold.PLP.part.buried>
-5.1992

> <Gold.PLP.part.nonpolar>
-33.1809

> <Gold.PLP.part.repulsive>
1.7829

> <Gold.PLP.ligand.clash>
0.0000

> <Gold.PLP.ligand.torsion>
0.8733

> <Gold.PLP.Chemscore.Hbond>
2.0000

> <Gold.PLP.Chemscore.CHOScore>
1.0000

> <Gold.PLP.Chemscore.Metal>
0.0000

> <Gold.Chemscore.Hbonds>
donor molecule, donor type, donor heavy atom, donor atom, acceptor molecule, acceptor atom, score
      L1  H     2    24       P1 10175  1.00
      P1  H  7997  8009       L1     9  1.00
      L1  C     4    25       P1  8028  1.00

> <Gold.PLP.Chemscore.Internal.Correction>
0.0052

> <Gold.Rescore>
     Score         DG    S(hbond)    S(metal)    S(lipo)     H(rot)  DE(clash)    DE(int)     intcor
     17.16     -18.54       1.27        0.00     109.90       1.58       0.47       0.90       ----

> <Gold.Chemscore.Fitness>
17.1587

> <Gold.Chemscore.DG>
-18.5353

> <Gold.Chemscore.ZeroCoef>
-5.4800

> <Gold.Chemscore.Hbond>
1.2690

> <Gold.Chemscore.Metal>
0.0000

> <Gold.Chemscore.Lipo>
109.8969

> <Gold.Chemscore.Internal_Hbond>
0.0000

> <Gold.Chemscore.DEClash>
0.4742

> <Gold.Chemscore.DEInternal>
0.9024

> <Gold.Chemscore.Rot>
1.5785

> <Gold.Chemscore.Internal.Correction>
   9.000000E+99

> <Gold.Chemscore.Hbonds>
donor molecule, donor type, donor heavy atom, donor atom, acceptor molecule, acceptor atom, score
      L1  H     2    24       P1 10175  0.29
      P1  H  7997  8009       L1     9  0.29

> <Gold.Chemscore.Hbond.Weighted>
-4.2384

> <Gold.Chemscore.Metal.Weighted>
-0.0000

> <Gold.Chemscore.Lipo.Weighted>
-12.8579

> <Gold.Chemscore.Internal_Hbond.Weighted>
0.0000

> <Gold.Chemscore.DEClash.Weighted>
0.4742

> <Gold.Chemscore.DEInternal.Weighted>
0.9024

> <Gold.Chemscore.Rot.Weighted>
4.0411

> <Gold.Chemscore.Internal.Correction.Weighted>
   9.000000E+99

> <Gold.Protein.RotatedTorsions>
[ 6907 6896 6895 6894 ] final -136.77 input  -60.11 | X-H torsion
[ 7974 7965 7964 7962 ] final -131.76 input  175.53 | X-H torsion
[ 8008 7997 7996 7995 ] final -178.17 input   59.86 | X-H torsion
[ 10167 10162 10161 10158 ] final -169.82 input  -65.29 | X-H torsion
[ 10718 10713 10712 10709 ] final -129.88 input   66.30 | X-H torsion
[ 10763 10752 10751 10750 ] final  124.79 input  -60.55 | X-H torsion
[ 11005 11000 10999 10996 ] final -128.35 input  -57.11 | X-H torsion

> <Gold.Protein.ActiveResidues>
 VAL166  LYS551  ARG553  GLY616  TRP617  ASP618  TYR619  PRO620  LYS621  CYS622 
 ASP623  PHE694  ASN695  SER759  ASP760  ASP761  ALA762  ILE779  LEU786  VAL792 
 PHE793  MET794  SER795  GLU796  ALA797  LYS798  CYS799  TRP800  GLU811  SER814 

> <Gold.Protein.RotatedAtoms>
  151.0142  133.5936  159.2678 H   0  0  0  0  0  0  0  0  0  0  0  0  # atno 6907 bound_to 6896
  151.3077  135.0785  159.9271 H   0  0  0  0  0  0  0  0  0  0  0  0  # atno 6908 bound_to 6896
  152.5307  133.9813  159.7862 H   0  0  0  0  0  0  0  0  0  0  0  0  # atno 6909 bound_to 6896
  144.9349  140.7172  143.4883 H   0  0  0  0  0  0  0  0  0  0  0  0  # atno 7974 bound_to 7965
  156.0157  140.1250  157.0409 H   0  0  0  0  0  0  0  0  0  0  0  0  # atno 8008 bound_to 7997
  154.4292  140.1079  156.5962 H   0  0  0  0  0  0  0  0  0  0  0  0  # atno 8009 bound_to 7997
  155.6016  140.3470  155.4598 H   0  0  0  0  0  0  0  0  0  0  0  0  # atno 8010 bound_to 7997
  139.5899  144.1235  152.1622 H   0  0  0  0  0  0  0  0  0  0  0  0  # atno 10167 bound_to 10162
  156.2089  130.6906  151.0627 H   0  0  0  0  0  0  0  0  0  0  0  0  # atno 10718 bound_to 10713
  153.6670  135.3337  155.3143 H   0  0  0  0  0  0  0  0  0  0  0  0  # atno 10763 bound_to 10752
  154.8500  135.4377  154.1745 H   0  0  0  0  0  0  0  0  0  0  0  0  # atno 10764 bound_to 10752
  153.2726  135.7002  153.7541 H   0  0  0  0  0  0  0  0  0  0  0  0  # atno 10765 bound_to 10752
  140.9523  134.1048  157.4050 H   0  0  0  0  0  0  0  0  0  0  0  0  # atno 11005 bound_to 11000
  145.3083  139.1827  143.4652 LP  0  0  0  0  0  0  0  0  0  0  0  0  # atno 17320 bound_to 7965
  146.3262  140.3084  142.8625 LP  0  0  0  0  0  0  0  0  0  0  0  0  # atno 17321 bound_to 7965
  140.0808  144.5702  150.7124 LP  0  0  0  0  0  0  0  0  0  0  0  0  # atno 17342 bound_to 10162
  140.7164  143.2548  151.4420 LP  0  0  0  0  0  0  0  0  0  0  0  0  # atno 17343 bound_to 10162
  157.7028  131.0769  150.6766 LP  0  0  0  0  0  0  0  0  0  0  0  0  # atno 17370 bound_to 10713
  156.6825  130.4571  149.5623 LP  0  0  0  0  0  0  0  0  0  0  0  0  # atno 17371 bound_to 10713
  139.8851  135.0069  156.6415 LP  0  0  0  0  0  0  0  0  0  0  0  0  # atno 17394 bound_to 11000
  140.7584  133.8838  155.8400 LP  0  0  0  0  0  0  0  0  0  0  0  0  # atno 17395 bound_to 11000

$$$$
