AV-unprocessed.smi:613|AV-procd|sdf|3065|dock10
  -GOLD-   2262023593D 1   1.00000     0.00000
 Structure written by MMmdl.
 38 39  0  0  0  0  0  0  0  0  1 V2000
  151.6367  139.6906  159.1390 C   0  0  0  0  0  0  0  0  0  0  0  0
  151.8135  140.9763  158.4738 N   0  0  0  0  0  0  0  0  0  0  0  0
  151.7479  141.0187  157.0105 C   0  0  0  0  0  0  0  0  0  0  0  0
  150.3696  140.6107  156.4532 C   0  0  1  0  0  0  0  0  0  0  0  0
  149.2170  141.5184  156.9350 C   0  0  0  0  0  0  0  0  0  0  0  0
  147.9390  141.1743  156.3060 N   0  0  0  0  0  0  0  0  0  0  0  0
  146.8160  142.0155  156.7426 C   0  0  0  0  0  0  0  0  0  0  0  0
  146.5975  142.0509  158.2600 C   0  0  0  0  0  0  0  0  0  0  0  0
  146.6591  143.2454  158.8540 N   0  0  0  0  0  0  0  0  0  0  0  0
  146.3784  141.0155  158.8845 O   0  0  0  0  0  0  0  0  0  0  0  0
  148.0887  141.1927  154.8543 C   0  0  0  0  0  0  0  0  0  0  0  0
  149.2404  140.2886  154.3858 C   0  0  0  0  0  0  0  0  0  0  0  0
  150.4464  140.6818  155.0318 O   0  0  0  0  0  0  0  0  0  0  0  0
  151.7544  142.1660  159.2397 C   0  0  0  0  0  0  0  0  0  0  0  0
  152.0149  143.4342  158.6641 C   0  0  0  0  0  0  0  0  0  0  0  0
  151.9477  144.5660  159.4945 C   0  0  0  0  0  0  0  0  0  0  0  0
  151.6235  144.3586  160.8456 C   0  0  0  0  0  0  0  0  0  0  0  0
  151.3773  143.1313  161.3513 N   0  0  0  0  0  0  0  0  0  0  0  0
  151.4401  142.0578  160.5572 N   0  0  0  0  0  0  0  0  0  0  0  0
  152.4296  139.5217  159.8680 H   0  0  0  0  0  0  0  0  0  0  0  0
  151.6684  138.8716  158.4201 H   0  0  0  0  0  0  0  0  0  0  0  0
  150.6735  139.6486  159.6486 H   0  0  0  0  0  0  0  0  0  0  0  0
  152.0478  141.9888  156.6144 H   0  0  0  0  0  0  0  0  0  0  0  0
  152.4956  140.3193  156.6350 H   0  0  0  0  0  0  0  0  0  0  0  0
  150.1613  139.5761  156.7315 H   0  0  0  0  0  0  0  0  0  0  0  0
  149.1404  141.4275  158.0177 H   0  0  0  0  0  0  0  0  0  0  0  0
  149.4619  142.5614  156.7261 H   0  0  0  0  0  0  0  0  0  0  0  0
  146.9569  143.0376  156.3861 H   0  0  0  0  0  0  0  0  0  0  0  0
  145.8907  141.6602  156.2866 H   0  0  0  0  0  0  0  0  0  0  0  0
  146.5252  143.3169  159.8520 H   0  0  0  0  0  0  0  0  0  0  0  0
  146.8429  144.0711  158.3029 H   0  0  0  0  0  0  0  0  0  0  0  0
  147.1625  140.8656  154.3799 H   0  0  0  0  0  0  0  0  0  0  0  0
  148.2707  142.2127  154.5110 H   0  0  0  0  0  0  0  0  0  0  0  0
  149.0254  139.2416  154.6045 H   0  0  0  0  0  0  0  0  0  0  0  0
  149.3717  140.3701  153.3066 H   0  0  0  0  0  0  0  0  0  0  0  0
  152.2634  143.5596  157.6214 H   0  0  0  0  0  0  0  0  0  0  0  0
  152.1390  145.5567  159.1099 H   0  0  0  0  0  0  0  0  0  0  0  0
  151.5577  145.1892  161.5325 H   0  0  0  0  0  0  0  0  0  0  0  0
  1  2  1  0  0  0  0
  1 20  1  0  0  0  0
  1 21  1  0  0  0  0
  1 22  1  0  0  0  0
  2  3  1  0  0  0  0
  2 14  1  0  0  0  0
  3  4  1  0  0  0  0
  3 23  1  0  0  0  0
  3 24  1  0  0  0  0
  4 13  1  0  0  0  0
  4  5  1  0  0  0  0
  4 25  1  0  0  0  0
  5  6  1  0  0  0  0
  5 26  1  0  0  0  0
  5 27  1  0  0  0  0
  6  7  1  0  0  0  0
  6 11  1  0  0  0  0
  7  8  1  0  0  0  0
  7 28  1  0  0  0  0
  7 29  1  0  0  0  0
  8  9  1  0  0  0  0
  8 10  2  0  0  0  0
  9 30  1  0  0  0  0
  9 31  1  0  0  0  0
 11 12  1  0  0  0  0
 11 32  1  0  0  0  0
 11 33  1  0  0  0  0
 12 13  1  0  0  0  0
 12 34  1  0  0  0  0
 12 35  1  0  0  0  0
 14 19  1  0  0  0  0
 14 15  2  0  0  0  0
 15 16  1  0  0  0  0
 15 36  1  0  0  0  0
 16 17  2  0  0  0  0
 16 37  1  0  0  0  0
 17 18  1  0  0  0  0
 17 38  1  0  0  0  0
 18 19  2  0  0  0  0
M  END
> <s_m_source_file>
AV-unprocessed.smi

> <i_m_source_file_index>
613

> <i_lp_mmshare_version>
43012

> <i_f3d_flags>
0

> <s_epik_input>
bjFuW2NIXVtjSF1bY0hdYzFOKFtDSDNdKVtDSDJdW0NAQEhdMltDSDJdTihbQ0gyXVtDSDJdTzIpW0NIMl1DKD1PKVtOSDJd

> <s_epik_cmdline>
J2VwaWtfcHl0aG9uJywgJy1waCcsICc3LjAnLCAnLXRuJywgJzgnLCAnLW1hJywgJzIwMCcsICctbWV0YWxfYmluZGluZycsICctaW1hZScsICc8aW5maWxlLm1hZT4nLCAnLW9tYWUnLCAnPG91dGZpbGUubWFlPic=

> <r_lp_tautomer_probability>
1

> <r_epik_Ionization_Penalty>
0.0398875

> <r_epik_Ionization_Penalty_Charging>
0

> <r_epik_Ionization_Penalty_Neutral>
0.0398875

> <r_epik_State_Penalty>
0.0543012

> <r_epik_Charging_Adjusted_Penalty>
0.0543012

> <i_epik_Tot_Q>
0

> <i_epik_Tot_abs_Q>
0

> <r_epik_Metal_State_Penalty>
0.0489294

> <b_epik_Metal_Only>
0

> <s_lp_Force_Field>
OPLS_2005

> <r_lp_Energy>
25.1321

> <b_lp_Chiralities_Consistent>
1

> <s_lp_Variant>
AV-unprocessed.smi:613-2

> <Gold.Version>
5.8.1

> <Gold.Id.Protein>
6NUR|6NUR_protein|mol2

> <Gold.PLP.Fitness>
43.6453

> <Gold.PLP.PLP>
-36.0833

> <Gold.PLP.part.hbond>
-4.0563

> <Gold.PLP.part.metal>
0.0000

> <Gold.PLP.part.buried>
-5.4647

> <Gold.PLP.part.nonpolar>
-26.2674

> <Gold.PLP.part.repulsive>
0.3997

> <Gold.PLP.ligand.clash>
0.0000

> <Gold.PLP.ligand.torsion>
0.2059

> <Gold.PLP.Chemscore.Hbond>
2.6000

> <Gold.PLP.Chemscore.CHOScore>
0.0000

> <Gold.PLP.Chemscore.Metal>
0.0000

> <Gold.Chemscore.Hbonds>
donor molecule, donor type, donor heavy atom, donor atom, acceptor molecule, acceptor atom, score
      L1  H     9    31       P1  8029  0.18
      P1  H  6934  6946       L1    10  0.46
      P1  H  7989  7998       L1    13  0.90

> <Gold.PLP.Chemscore.Internal.Correction>
0.1739

> <Gold.Rescore>
     Score         DG    S(hbond)    S(metal)    S(lipo)     H(rot)  DE(clash)    DE(int)     intcor
     16.58     -16.96       2.46        0.00      75.68       2.18       0.21       0.18       ----

> <Gold.Chemscore.Fitness>
16.5763

> <Gold.Chemscore.DG>
-16.9596

> <Gold.Chemscore.ZeroCoef>
-5.4800

> <Gold.Chemscore.Hbond>
2.4585

> <Gold.Chemscore.Metal>
0.0000

> <Gold.Chemscore.Lipo>
75.6830

> <Gold.Chemscore.Internal_Hbond>
0.0000

> <Gold.Chemscore.DEClash>
0.2056

> <Gold.Chemscore.DEInternal>
0.1776

> <Gold.Chemscore.Rot>
2.1823

> <Gold.Chemscore.Internal.Correction>
   9.000000E+99

> <Gold.Chemscore.Hbonds>
donor molecule, donor type, donor heavy atom, donor atom, acceptor molecule, acceptor atom, score
      L1  H     9    31       P1  8029  0.11
      P1  H  6934  6946       L1    10  0.45
      P1  H  7989  7998       L1    13  0.26

> <Gold.Chemscore.Hbond.Weighted>
-8.2114

> <Gold.Chemscore.Metal.Weighted>
-0.0000

> <Gold.Chemscore.Lipo.Weighted>
-8.8549

> <Gold.Chemscore.Internal_Hbond.Weighted>
0.0000

> <Gold.Chemscore.DEClash.Weighted>
0.2056

> <Gold.Chemscore.DEInternal.Weighted>
0.1776

> <Gold.Chemscore.Rot.Weighted>
5.5867

> <Gold.Chemscore.Internal.Correction.Weighted>
   9.000000E+99

> <Gold.Protein.RotatedTorsions>
[ 6907 6896 6895 6894 ] final   45.05 input  -60.11 | X-H torsion
[ 7974 7965 7964 7962 ] final   18.45 input  175.53 | X-H torsion
[ 8008 7997 7996 7995 ] final    3.04 input   59.86 | X-H torsion
[ 10167 10162 10161 10158 ] final -125.21 input  -65.29 | X-H torsion
[ 10718 10713 10712 10709 ] final   10.34 input   66.30 | X-H torsion
[ 10763 10752 10751 10750 ] final  -30.09 input  -60.55 | X-H torsion
[ 11005 11000 10999 10996 ] final  -93.41 input  -57.11 | X-H torsion

> <Gold.Protein.ActiveResidues>
 VAL166  LYS551  ARG553  GLY616  TRP617  ASP618  TYR619  PRO620  LYS621  CYS622 
 ASP623  PHE694  ASN695  SER759  ASP760  ASP761  ALA762  ILE779  LEU786  VAL792 
 PHE793  MET794  SER795  GLU796  ALA797  LYS798  CYS799  TRP800  GLU811  SER814 

> <Gold.Protein.RotatedAtoms>
  152.2399  134.8239  160.0461 H   0  0  0  0  0  0  0  0  0  0  0  0  # atno 6907 bound_to 6896
  151.8957  133.3521  159.3822 H   0  0  0  0  0  0  0  0  0  0  0  0  # atno 6908 bound_to 6896
  150.7050  134.4805  159.5512 H   0  0  0  0  0  0  0  0  0  0  0  0  # atno 6909 bound_to 6896
  146.2184  139.8456  142.8632 H   0  0  0  0  0  0  0  0  0  0  0  0  # atno 7974 bound_to 7965
  154.6988  140.2668  155.6740 H   0  0  0  0  0  0  0  0  0  0  0  0  # atno 8008 bound_to 7997
  156.2758  140.2776  156.1515 H   0  0  0  0  0  0  0  0  0  0  0  0  # atno 8009 bound_to 7997
  155.0793  140.0372  157.2624 H   0  0  0  0  0  0  0  0  0  0  0  0  # atno 8010 bound_to 7997
  139.9845  143.5707  152.2366 H   0  0  0  0  0  0  0  0  0  0  0  0  # atno 10167 bound_to 10162
  156.9796  130.6000  149.5675 H   0  0  0  0  0  0  0  0  0  0  0  0  # atno 10718 bound_to 10713
  153.7752  135.6909  153.4899 H   0  0  0  0  0  0  0  0  0  0  0  0  # atno 10763 bound_to 10752
  153.1848  135.4493  155.0073 H   0  0  0  0  0  0  0  0  0  0  0  0  # atno 10764 bound_to 10752
  154.8102  135.3374  154.7259 H   0  0  0  0  0  0  0  0  0  0  0  0  # atno 10765 bound_to 10752
  141.1498  133.7886  157.0155 H   0  0  0  0  0  0  0  0  0  0  0  0  # atno 11005 bound_to 11000
  145.2854  141.0151  143.3693 LP  0  0  0  0  0  0  0  0  0  0  0  0  # atno 17320 bound_to 7965
  144.9118  139.4519  143.6583 LP  0  0  0  0  0  0  0  0  0  0  0  0  # atno 17321 bound_to 7965
  139.6385  144.7652  151.2388 LP  0  0  0  0  0  0  0  0  0  0  0  0  # atno 17342 bound_to 10162
  140.7477  143.6357  150.8381 LP  0  0  0  0  0  0  0  0  0  0  0  0  # atno 17343 bound_to 10162
  156.0250  130.5344  150.8381 LP  0  0  0  0  0  0  0  0  0  0  0  0  # atno 17370 bound_to 10713
  157.5535  131.0944  150.9661 LP  0  0  0  0  0  0  0  0  0  0  0  0  # atno 17371 bound_to 10713
  140.0850  134.9626  157.1685 LP  0  0  0  0  0  0  0  0  0  0  0  0  # atno 17394 bound_to 11000
  140.3525  134.2583  155.7197 LP  0  0  0  0  0  0  0  0  0  0  0  0  # atno 17395 bound_to 11000

$$$$
