AV-unprocessed.smi:122|AV-procd|sdf|1141|dock9
  -GOLD-   2262018273D 1   1.00000     0.00000
 Structure written by MMmdl.
 48 50  0  0  0  0  0  0  0  0  1 V2000
  143.4641  145.5402  154.2133 C   0  0  0  0  0  0  0  0  0  0  0  0
  143.3202  144.3706  155.6257 S   0  0  0  0  0  0  0  0  0  0  0  0
  143.9248  144.9973  156.8111 O   0  0  0  0  0  0  0  0  0  0  0  0
  141.9360  143.8761  155.6807 O   0  0  0  0  0  0  0  0  0  0  0  0
  144.3386  143.0546  155.1395 N   0  0  0  0  0  0  0  0  0  0  0  0
  144.3389  141.8283  155.9701 C   0  0  0  0  0  0  0  0  0  0  0  0
  145.0268  140.6519  155.2540 C   0  0  0  0  0  0  0  0  0  0  0  0
  146.3553  141.0793  154.8171 N   0  0  0  0  0  0  0  0  0  0  0  0
  147.5028  140.6497  155.3936 C   0  0  0  0  0  0  0  0  0  0  0  0
  147.5062  139.8040  156.2905 O   0  0  0  0  0  0  0  0  0  0  0  0
  148.8435  141.2438  154.9140 C   0  0  0  0  0  0  0  0  0  0  0  0
  149.9973  140.8664  155.7607 N   0  0  0  0  0  0  0  0  0  0  0  0
  150.9867  140.0078  155.2201 C   0  0  0  0  0  0  0  0  0  0  0  0
  150.9030  139.5843  154.0664 O   0  0  0  0  0  0  0  0  0  0  0  0
  152.0821  139.6642  156.1198 C   0  0  0  0  0  0  0  0  0  0  0  0
  153.0661  138.8558  155.6908 F   0  0  0  0  0  0  0  0  0  0  0  0
  152.1237  140.1432  157.3801 C   0  0  0  0  0  0  0  0  0  0  0  0
  151.1489  140.9791  157.8960 N   0  0  0  0  0  0  0  0  0  0  0  0
  151.2007  141.4952  159.3187 C   0  0  2  0  0  0  0  0  0  0  0  0
  151.2752  143.0339  159.3356 C   0  0  0  0  0  0  0  0  0  0  0  0
  152.4554  143.3009  160.2484 C   0  0  0  0  0  0  0  0  0  0  0  0
  153.3158  142.0682  160.0163 C   0  0  0  0  0  0  0  0  0  0  0  0
  152.3544  141.0229  159.9549 O   0  0  0  0  0  0  0  0  0  0  0  0
  150.0514  141.3508  157.0894 C   0  0  0  0  0  0  0  0  0  0  0  0
  149.1613  142.0775  157.5372 O   0  0  0  0  0  0  0  0  0  0  0  0
  146.2340  142.1254  153.8011 C   0  0  0  0  0  0  0  0  0  0  0  0
  145.6100  143.3736  154.4502 C   0  0  0  0  0  0  0  0  0  0  0  0
  142.8664  146.4278  154.4191 H   0  0  0  0  0  0  0  0  0  0  0  0
  143.1000  145.0642  153.3034 H   0  0  0  0  0  0  0  0  0  0  0  0
  144.5059  145.8308  154.0818 H   0  0  0  0  0  0  0  0  0  0  0  0
  144.8491  142.0404  156.9103 H   0  0  0  0  0  0  0  0  0  0  0  0
  143.3144  141.5528  156.2201 H   0  0  0  0  0  0  0  0  0  0  0  0
  145.0578  139.7837  155.9134 H   0  0  0  0  0  0  0  0  0  0  0  0
  144.4385  140.3426  154.3888 H   0  0  0  0  0  0  0  0  0  0  0  0
  149.0100  140.9386  153.8800 H   0  0  0  0  0  0  0  0  0  0  0  0
  148.7528  142.3302  154.8665 H   0  0  0  0  0  0  0  0  0  0  0  0
  152.9598  139.8471  157.9948 H   0  0  0  0  0  0  0  0  0  0  0  0
  150.3200  141.0836  159.8153 H   0  0  0  0  0  0  0  0  0  0  0  0
  151.4778  143.4137  158.3327 H   0  0  0  0  0  0  0  0  0  0  0  0
  150.3425  143.4679  159.6975 H   0  0  0  0  0  0  0  0  0  0  0  0
  152.9724  144.2329  160.0187 H   0  0  0  0  0  0  0  0  0  0  0  0
  152.1270  143.3361  161.2882 H   0  0  0  0  0  0  0  0  0  0  0  0
  153.8531  142.1426  159.0697 H   0  0  0  0  0  0  0  0  0  0  0  0
  154.0405  141.9013  160.8134 H   0  0  0  0  0  0  0  0  0  0  0  0
  147.1777  142.3855  153.3245 H   0  0  0  0  0  0  0  0  0  0  0  0
  145.5941  141.7706  152.9916 H   0  0  0  0  0  0  0  0  0  0  0  0
  145.4340  144.1313  153.6868 H   0  0  0  0  0  0  0  0  0  0  0  0
  146.3041  143.8052  155.1722 H   0  0  0  0  0  0  0  0  0  0  0  0
  1  2  1  0  0  0  0
  1 28  1  0  0  0  0
  1 29  1  0  0  0  0
  1 30  1  0  0  0  0
  2  3  2  0  0  0  0
  2  4  2  0  0  0  0
  2  5  1  0  0  0  0
  5 27  1  0  0  0  0
  5  6  1  0  0  0  0
  6  7  1  0  0  0  0
  6 31  1  0  0  0  0
  6 32  1  0  0  0  0
  7  8  1  0  0  0  0
  7 33  1  0  0  0  0
  7 34  1  0  0  0  0
  8  9  1  0  0  0  0
  8 26  1  0  0  0  0
  9 10  2  0  0  0  0
  9 11  1  0  0  0  0
 11 12  1  0  0  0  0
 11 35  1  0  0  0  0
 11 36  1  0  0  0  0
 12 24  1  0  0  0  0
 12 13  1  0  0  0  0
 13 14  2  0  0  0  0
 13 15  1  0  0  0  0
 15 16  1  0  0  0  0
 15 17  2  0  0  0  0
 17 18  1  0  0  0  0
 17 37  1  0  0  0  0
 18 19  1  0  0  0  0
 18 24  1  0  0  0  0
 19 23  1  0  0  0  0
 19 20  1  0  0  0  0
 19 38  1  0  0  0  0
 20 21  1  0  0  0  0
 20 39  1  0  0  0  0
 20 40  1  0  0  0  0
 21 22  1  0  0  0  0
 21 41  1  0  0  0  0
 21 42  1  0  0  0  0
 22 23  1  0  0  0  0
 22 43  1  0  0  0  0
 22 44  1  0  0  0  0
 24 25  2  0  0  0  0
 26 27  1  0  0  0  0
 26 45  1  0  0  0  0
 26 46  1  0  0  0  0
 27 47  1  0  0  0  0
 27 48  1  0  0  0  0
M  END
> <s_m_source_file>
AV-unprocessed.smi

> <i_m_source_file_index>
122

> <i_lp_mmshare_version>
43012

> <i_f3d_flags>
0

> <s_epik_input>
W0NIM11TKD1PKSg9TylOMVtDSDJdW0NIMl1OKFtDSDJdW0NIMl0xKUMoPU8pW0NIMl1uMmMoPU8pYyhGKVtjSF1uKGMyPU8pW0NAQEhdM1tDSDJdW0NIMl1bQ0gyXU8z

> <s_epik_cmdline>
J2VwaWtfcHl0aG9uJywgJy1waCcsICc3LjAnLCAnLXRuJywgJzgnLCAnLW1hJywgJzIwMCcsICctbWV0YWxfYmluZGluZycsICctaW1hZScsICc8aW5maWxlLm1hZT4nLCAnLW9tYWUnLCAnPG91dGZpbGUubWFlPic=

> <r_lp_tautomer_probability>
1

> <r_epik_Ionization_Penalty>
4.55442e-09

> <r_epik_Ionization_Penalty_Charging>
4.02834e-09

> <r_epik_Ionization_Penalty_Neutral>
5.2608e-10

> <r_epik_State_Penalty>
-0

> <r_epik_Charging_Adjusted_Penalty>
4.02834e-09

> <i_epik_Tot_Q>
0

> <i_epik_Tot_abs_Q>
0

> <r_epik_Metal_State_Penalty>
-0

> <b_epik_Metal_Only>
0

> <s_epik_Chemistry_Notes>
This compound contains an acetal/aminal-like group ( X-CH(R)-Y where X, Y are N, S, or O) that may be acid/base labile, releasing an aldehyde.

> <s_lp_Force_Field>
OPLS_2005

> <r_lp_Energy>
39.2384

> <b_lp_Chiralities_Consistent>
1

> <s_lp_Variant>
AV-unprocessed.smi:122-1

> <Gold.Version>
5.8.1

> <Gold.Id.Protein>
6NUR|6NUR_protein|mol2

> <Gold.PLP.Fitness>
44.3524

> <Gold.PLP.PLP>
-44.2051

> <Gold.PLP.part.hbond>
-1.0000

> <Gold.PLP.part.metal>
0.0000

> <Gold.PLP.part.buried>
-3.5018

> <Gold.PLP.part.nonpolar>
-41.1422

> <Gold.PLP.part.repulsive>
1.2371

> <Gold.PLP.ligand.clash>
0.0000

> <Gold.PLP.ligand.torsion>
1.3396

> <Gold.PLP.Chemscore.Hbond>
0.2500

> <Gold.PLP.Chemscore.CHOScore>
0.0000

> <Gold.PLP.Chemscore.Metal>
0.0000

> <Gold.Chemscore.Hbonds>
donor molecule, donor type, donor heavy atom, donor atom, acceptor molecule, acceptor atom, score
      P1  H  7989  7998       L1    14  0.65

> <Gold.PLP.Chemscore.Internal.Correction>
2.0765

> <Gold.Rescore>
     Score         DG    S(hbond)    S(metal)    S(lipo)     H(rot)  DE(clash)    DE(int)     intcor
      6.88     -10.45       0.00        0.00      79.45       1.69       0.03       3.54       ----

> <Gold.Chemscore.Fitness>
6.8797

> <Gold.Chemscore.DG>
-10.4521

> <Gold.Chemscore.ZeroCoef>
-5.4800

> <Gold.Chemscore.Hbond>
0.0000

> <Gold.Chemscore.Metal>
0.0000

> <Gold.Chemscore.Lipo>
79.4525

> <Gold.Chemscore.Internal_Hbond>
0.0000

> <Gold.Chemscore.DEClash>
0.0311

> <Gold.Chemscore.DEInternal>
3.5413

> <Gold.Chemscore.Rot>
1.6890

> <Gold.Chemscore.Internal.Correction>
   9.000000E+99

> <Gold.Chemscore.Hbonds>
donor molecule, donor type, donor heavy atom, donor atom, acceptor molecule, acceptor atom, score
      P1  H  7989  7998       L1    14  0.05

> <Gold.Chemscore.Hbond.Weighted>
-0.0000

> <Gold.Chemscore.Metal.Weighted>
-0.0000

> <Gold.Chemscore.Lipo.Weighted>
-9.2959

> <Gold.Chemscore.Internal_Hbond.Weighted>
0.0000

> <Gold.Chemscore.DEClash.Weighted>
0.0311

> <Gold.Chemscore.DEInternal.Weighted>
3.5413

> <Gold.Chemscore.Rot.Weighted>
4.3239

> <Gold.Chemscore.Internal.Correction.Weighted>
   9.000000E+99

> <Gold.Protein.RotatedTorsions>
[ 6907 6896 6895 6894 ] final  111.99 input  -60.11 | X-H torsion
[ 7974 7965 7964 7962 ] final  -15.30 input  175.53 | X-H torsion
[ 8008 7997 7996 7995 ] final  155.79 input   59.86 | X-H torsion
[ 10167 10162 10161 10158 ] final   68.59 input  -65.29 | X-H torsion
[ 10718 10713 10712 10709 ] final   -9.19 input   66.30 | X-H torsion
[ 10763 10752 10751 10750 ] final  -28.03 input  -60.55 | X-H torsion
[ 11005 11000 10999 10996 ] final  155.59 input  -57.11 | X-H torsion

> <Gold.Protein.ActiveResidues>
 VAL166  LYS551  ARG553  GLY616  TRP617  ASP618  TYR619  PRO620  LYS621  CYS622 
 ASP623  PHE694  ASN695  SER759  ASP760  ASP761  ALA762  ILE779  LEU786  VAL792 
 PHE793  MET794  SER795  GLU796  ALA797  LYS798  CYS799  TRP800  GLU811  SER814 

> <Gold.Protein.RotatedAtoms>
  152.4940  133.8579  159.7234 H   0  0  0  0  0  0  0  0  0  0  0  0  # atno 6907 bound_to 6896
  150.9099  133.7002  159.2864 H   0  0  0  0  0  0  0  0  0  0  0  0  # atno 6908 bound_to 6896
  151.4415  135.1025  159.9724 H   0  0  0  0  0  0  0  0  0  0  0  0  # atno 6909 bound_to 6896
  146.2038  140.3473  142.8414 H   0  0  0  0  0  0  0  0  0  0  0  0  # atno 7974 bound_to 7965
  156.2459  140.1930  156.6855 H   0  0  0  0  0  0  0  0  0  0  0  0  # atno 8008 bound_to 7997
  154.6290  140.0598  156.9735 H   0  0  0  0  0  0  0  0  0  0  0  0  # atno 8009 bound_to 7997
  155.1740  140.3270  155.4390 H   0  0  0  0  0  0  0  0  0  0  0  0  # atno 8010 bound_to 7997
  140.0770  144.5104  150.7188 H   0  0  0  0  0  0  0  0  0  0  0  0  # atno 10167 bound_to 10162
  156.6916  130.5067  149.5942 H   0  0  0  0  0  0  0  0  0  0  0  0  # atno 10718 bound_to 10713
  153.7418  135.6932  153.4965 H   0  0  0  0  0  0  0  0  0  0  0  0  # atno 10763 bound_to 10752
  153.2064  135.4418  155.0327 H   0  0  0  0  0  0  0  0  0  0  0  0  # atno 10764 bound_to 10752
  154.8218  135.3426  154.6943 H   0  0  0  0  0  0  0  0  0  0  0  0  # atno 10765 bound_to 10752
  140.1596  134.8619  157.2557 H   0  0  0  0  0  0  0  0  0  0  0  0  # atno 11005 bound_to 11000
  144.8744  140.7316  143.6026 LP  0  0  0  0  0  0  0  0  0  0  0  0  # atno 17320 bound_to 7965
  145.3392  139.1737  143.4495 LP  0  0  0  0  0  0  0  0  0  0  0  0  # atno 17321 bound_to 7965
  140.7097  143.2495  151.4618 LP  0  0  0  0  0  0  0  0  0  0  0  0  # atno 17342 bound_to 10162
  139.5802  144.1727  152.1958 LP  0  0  0  0  0  0  0  0  0  0  0  0  # atno 17343 bound_to 10162
  156.1793  130.6488  151.0932 LP  0  0  0  0  0  0  0  0  0  0  0  0  # atno 17370 bound_to 10713
  157.7006  131.0777  150.6830 LP  0  0  0  0  0  0  0  0  0  0  0  0  # atno 17371 bound_to 10713
  140.2506  134.3688  155.7444 LP  0  0  0  0  0  0  0  0  0  0  0  0  # atno 17394 bound_to 11000
  141.2208  133.7314  156.8929 LP  0  0  0  0  0  0  0  0  0  0  0  0  # atno 17395 bound_to 11000

$$$$
