AV-unprocessed.smi:1867|AV-procd|sdf|7564|dock4
  -GOLD-   22720 9283D 1   1.00000     0.00000
 Structure written by MMmdl.
 52 55  0  0  0  0  0  0  0  0  2 V2000
  145.4475  137.9032  154.0612 O   0  0  0  0  0  0  0  0  0  0  0  0
  146.3439  137.3873  153.3982 C   0  0  0  0  0  0  0  0  0  0  0  0
  147.6572  137.6529  153.5402 N   0  0  0  0  0  0  0  0  0  0  0  0
  148.2967  138.5145  154.4712 C   0  0  0  0  0  0  0  0  0  0  0  0
  147.9339  138.6336  155.8331 C   0  0  0  0  0  0  0  0  0  0  0  0
  148.6614  139.5132  156.6578 C   0  0  0  0  0  0  0  0  0  0  0  0
  149.7402  140.2446  156.1065 C   0  0  0  0  0  0  0  0  0  0  0  0
  150.4886  141.1393  156.8967 N   0  0  0  0  0  0  0  0  0  0  0  0
  150.1476  141.4057  158.2855 C   0  0  0  0  0  0  0  0  0  0  0  0
  151.1083  142.5139  158.7132 C   0  0  0  0  0  0  0  0  0  0  0  0
  151.3106  143.3127  157.4259 C   0  0  0  0  0  0  0  0  0  0  0  0
  151.2075  142.2633  156.3126 C   0  0  0  0  0  0  0  0  0  0  0  0
  150.0895  140.1228  154.8036 N   0  0  0  0  0  0  0  0  0  0  0  0
  149.3902  139.2785  154.0179 C   0  0  0  0  0  0  0  0  0  0  0  0
  146.0644  136.4964  152.4297 N   0  0  0  0  0  0  0  0  0  0  0  0
  144.7531  135.9901  152.0169 C   0  0  2  0  0  0  0  0  0  0  0  0
  143.9381  135.4307  153.1763 C   0  0  0  0  0  0  0  0  0  0  0  0
  142.8881  134.5627  152.4760 C   0  0  0  0  0  0  0  0  0  0  0  0
  143.4827  134.1243  151.1894 N   0  3  2  0  0  0  0  0  0  0  0  0
  143.5059  132.6482  151.0066 C   0  0  0  0  0  0  0  0  0  0  0  0
  144.4617  132.2502  149.8725 C   0  0  0  0  0  0  0  0  0  0  0  0
  145.9115  132.6678  150.1836 C   0  0  0  0  0  0  0  0  0  0  0  0
  145.9869  133.8352  151.1862 C   0  0  0  0  0  0  0  0  0  0  0  0
  144.7958  134.8111  151.0236 C   0  0  2  0  0  0  0  0  0  0  0  0
  148.2702  137.2205  152.8651 H   0  0  0  0  0  0  0  0  0  0  0  0
  147.1259  138.0648  156.2657 H   0  0  0  0  0  0  0  0  0  0  0  0
  148.3807  139.6155  157.6955 H   0  0  0  0  0  0  0  0  0  0  0  0
  149.1137  141.7480  158.3474 H   0  0  0  0  0  0  0  0  0  0  0  0
  150.2558  140.5160  158.9065 H   0  0  0  0  0  0  0  0  0  0  0  0
  150.7216  143.1171  159.5349 H   0  0  0  0  0  0  0  0  0  0  0  0
  152.0574  142.0790  159.0295 H   0  0  0  0  0  0  0  0  0  0  0  0
  150.5034  144.0386  157.3192 H   0  0  0  0  0  0  0  0  0  0  0  0
  152.2550  143.8570  157.4077 H   0  0  0  0  0  0  0  0  0  0  0  0
  152.1983  141.9264  156.0053 H   0  0  0  0  0  0  0  0  0  0  0  0
  150.6968  142.6717  155.4398 H   0  0  0  0  0  0  0  0  0  0  0  0
  149.7143  139.2153  152.9893 H   0  0  0  0  0  0  0  0  0  0  0  0
  146.8551  136.1374  151.9138 H   0  0  0  0  0  0  0  0  0  0  0  0
  144.1734  136.8048  151.5775 H   0  0  0  0  0  0  0  0  0  0  0  0
  144.5658  134.8069  153.8149 H   0  0  0  0  0  0  0  0  0  0  0  0
  143.4943  136.2085  153.7986 H   0  0  0  0  0  0  0  0  0  0  0  0
  142.5672  133.7330  153.1074 H   0  0  0  0  0  0  0  0  0  0  0  0
  142.0028  135.1576  152.2491 H   0  0  0  0  0  0  0  0  0  0  0  0
  143.8224  132.1588  151.9295 H   0  0  0  0  0  0  0  0  0  0  0  0
  142.4940  132.3005  150.7967 H   0  0  0  0  0  0  0  0  0  0  0  0
  144.4143  131.1760  149.6908 H   0  0  0  0  0  0  0  0  0  0  0  0
  144.1338  132.7297  148.9489 H   0  0  0  0  0  0  0  0  0  0  0  0
  146.4675  131.8201  150.5856 H   0  0  0  0  0  0  0  0  0  0  0  0
  146.4091  132.9419  149.2526 H   0  0  0  0  0  0  0  0  0  0  0  0
  145.9916  133.4385  152.2026 H   0  0  0  0  0  0  0  0  0  0  0  0
  146.9397  134.3493  151.0581 H   0  0  0  0  0  0  0  0  0  0  0  0
  144.8375  135.2089  150.0085 H   0  0  0  0  0  0  0  0  0  0  0  0
  142.8862  134.4940  150.4630 H   0  0  0  0  0  0  0  0  0  0  0  0
  1  2  2  0  0  0  0
  2  3  1  0  0  0  0
  2 15  1  0  0  0  0
  3  4  1  0  0  0  0
  3 25  1  0  0  0  0
  4 14  1  0  0  0  0
  4  5  2  0  0  0  0
  5  6  1  0  0  0  0
  5 26  1  0  0  0  0
  6  7  2  0  0  0  0
  6 27  1  0  0  0  0
  7  8  1  0  0  0  0
  7 13  1  0  0  0  0
  8 12  1  0  0  0  0
  8  9  1  0  0  0  0
  9 10  1  0  0  0  0
  9 28  1  0  0  0  0
  9 29  1  0  0  0  0
 10 11  1  0  0  0  0
 10 30  1  0  0  0  0
 10 31  1  0  0  0  0
 11 12  1  0  0  0  0
 11 32  1  0  0  0  0
 11 33  1  0  0  0  0
 12 34  1  0  0  0  0
 12 35  1  0  0  0  0
 13 14  2  0  0  0  0
 14 36  1  0  0  0  0
 15 16  1  0  0  0  0
 15 37  1  0  0  0  0
 16 24  1  0  0  0  0
 16 17  1  0  0  0  0
 16 38  1  0  0  0  0
 17 18  1  0  0  0  0
 17 39  1  0  0  0  0
 17 40  1  0  0  0  0
 18 19  1  0  0  0  0
 18 41  1  0  0  0  0
 18 42  1  0  0  0  0
 19 24  1  0  0  0  0
 19 20  1  0  0  0  0
 19 52  1  0  0  0  0
 20 21  1  0  0  0  0
 20 43  1  0  0  0  0
 20 44  1  0  0  0  0
 21 22  1  0  0  0  0
 21 45  1  0  0  0  0
 21 46  1  0  0  0  0
 22 23  1  0  0  0  0
 22 47  1  0  0  0  0
 22 48  1  0  0  0  0
 23 24  1  0  0  0  0
 23 49  1  0  0  0  0
 23 50  1  0  0  0  0
 24 51  1  0  0  0  0
M  CHG  1  19   1
M  END
> <s_m_source_file>
AV-unprocessed.smi

> <i_m_source_file_index>
1867

> <i_lp_mmshare_version>
43012

> <i_f3d_flags>
0

> <s_epik_input>
W0NIMl0xW0NIMl1bQ0gyXVtDSDJdW0NASF0oTjEyKVtDQEBIXShbQ0gyXVtDSDJdMilbTkhdQyg9TylbTkhdYzNbY0hdW2NIXWMobltjSF0zKU40W0NIMl1bQ0gyXVtDSDJdW0NIMl00

> <s_epik_cmdline>
J2VwaWtfcHl0aG9uJywgJy1waCcsICc3LjAnLCAnLXRuJywgJzgnLCAnLW1hJywgJzIwMCcsICctbWV0YWxfYmluZGluZycsICctaW1hZScsICc8aW5maWxlLm1hZT4nLCAnLW9tYWUnLCAnPG91dGZpbGUubWFlPic=

> <r_lp_tautomer_probability>
1

> <r_epik_Ionization_Penalty>
0.0751123

> <r_epik_Ionization_Penalty_Charging>
0.000974069

> <r_epik_Ionization_Penalty_Neutral>
0.0741382

> <r_epik_State_Penalty>
0.0647261

> <r_epik_Charging_Adjusted_Penalty>
0.0657002

> <i_epik_Tot_Q>
1

> <i_epik_Tot_abs_Q>
1

> <r_epik_Metal_State_Penalty>
0.0580571

> <b_epik_Metal_Only>
0

> <s_lp_Force_Field>
OPLS_2005

> <r_lp_Energy>
76.8202

> <b_lp_Chiralities_Consistent>
1

> <s_lp_Variant>
AV-unprocessed.smi:1867-5

> <Gold.Version>
5.8.1

> <Gold.Id.Protein>
6NUR|6NUR_protein|mol2

> <Gold.PLP.Fitness>
51.3722

> <Gold.PLP.PLP>
-37.0411

> <Gold.PLP.part.hbond>
-3.7039

> <Gold.PLP.part.metal>
0.0000

> <Gold.PLP.part.buried>
-6.3733

> <Gold.PLP.part.nonpolar>
-28.1751

> <Gold.PLP.part.repulsive>
0.2374

> <Gold.PLP.ligand.clash>
0.0000

> <Gold.PLP.ligand.torsion>
0.5025

> <Gold.PLP.Chemscore.Hbond>
4.0649

> <Gold.PLP.Chemscore.CHOScore>
0.9849

> <Gold.PLP.Chemscore.Metal>
0.0000

> <Gold.Chemscore.Hbonds>
donor molecule, donor type, donor heavy atom, donor atom, acceptor molecule, acceptor atom, score
      L1  H     3    25       P1  7948  1.00
      L1  H    15    37       P1  7948  0.76
      L1  H    19    52       P1 10186  1.63
      P1  H  7989  7998       L1    13  0.70
      L1  C    14    36       P1  7957  0.93

> <Gold.PLP.Chemscore.Internal.Correction>
0.1867

> <Gold.Rescore>
     Score         DG    S(hbond)    S(metal)    S(lipo)     H(rot)  DE(clash)    DE(int)     intcor
     21.56     -22.25       2.39        0.00      97.04       1.00       0.23       0.46       ----

> <Gold.Chemscore.Fitness>
21.5557

> <Gold.Chemscore.DG>
-22.2484

> <Gold.Chemscore.ZeroCoef>
-5.4800

> <Gold.Chemscore.Hbond>
2.3876

> <Gold.Chemscore.Metal>
0.0000

> <Gold.Chemscore.Lipo>
97.0409

> <Gold.Chemscore.Internal_Hbond>
0.0000

> <Gold.Chemscore.DEClash>
0.2333

> <Gold.Chemscore.DEInternal>
0.4594

> <Gold.Chemscore.Rot>
1.0000

> <Gold.Chemscore.Internal.Correction>
   9.000000E+99

> <Gold.Chemscore.Hbonds>
donor molecule, donor type, donor heavy atom, donor atom, acceptor molecule, acceptor atom, score
      L1  H     3    25       P1  7948  0.96
      L1  H    15    37       P1  7948  0.71
      L1  H    19    52       P1 10186  0.43
      P1  H  7989  7998       L1    13  0.27

> <Gold.Chemscore.Hbond.Weighted>
-7.9747

> <Gold.Chemscore.Metal.Weighted>
-0.0000

> <Gold.Chemscore.Lipo.Weighted>
-11.3538

> <Gold.Chemscore.Internal_Hbond.Weighted>
0.0000

> <Gold.Chemscore.DEClash.Weighted>
0.2333

> <Gold.Chemscore.DEInternal.Weighted>
0.4594

> <Gold.Chemscore.Rot.Weighted>
2.5600

> <Gold.Chemscore.Internal.Correction.Weighted>
   9.000000E+99

> <Gold.Protein.RotatedTorsions>
[ 6907 6896 6895 6894 ] final   42.07 input  -60.11 | X-H torsion
[ 7974 7965 7964 7962 ] final -106.91 input  175.53 | X-H torsion
[ 8008 7997 7996 7995 ] final  -52.49 input   59.86 | X-H torsion
[ 10167 10162 10161 10158 ] final  -45.28 input  -65.29 | X-H torsion
[ 10718 10713 10712 10709 ] final  133.75 input   66.30 | X-H torsion
[ 10763 10752 10751 10750 ] final -135.54 input  -60.55 | X-H torsion
[ 11005 11000 10999 10996 ] final  -23.32 input  -57.11 | X-H torsion

> <Gold.Protein.ActiveResidues>
 VAL166  LYS551  ARG553  GLY616  TRP617  ASP618  TYR619  PRO620  LYS621  CYS622 
 ASP623  PHE694  ASN695  SER759  ASP760  ASP761  ALA762  ILE779  LEU786  VAL792 
 PHE793  MET794  SER795  GLU796  ALA797  LYS798  CYS799  TRP800  GLU811  SER814 

> <Gold.Protein.RotatedAtoms>
  152.2032  134.8568  160.0505 H   0  0  0  0  0  0  0  0  0  0  0  0  # atno 6907 bound_to 6896
  151.9414  133.3634  159.3975 H   0  0  0  0  0  0  0  0  0  0  0  0  # atno 6908 bound_to 6896
  150.6959  134.4359  159.5314 H   0  0  0  0  0  0  0  0  0  0  0  0  # atno 6909 bound_to 6896
  145.2119  140.9100  143.3309 H   0  0  0  0  0  0  0  0  0  0  0  0  # atno 7974 bound_to 7965
  154.4108  140.1222  156.5000 H   0  0  0  0  0  0  0  0  0  0  0  0  # atno 8008 bound_to 7997
  155.6904  140.3495  155.4872 H   0  0  0  0  0  0  0  0  0  0  0  0  # atno 8009 bound_to 7997
  155.9474  140.1098  157.0995 H   0  0  0  0  0  0  0  0  0  0  0  0  # atno 8010 bound_to 7997
  140.6864  143.2887  151.3617 H   0  0  0  0  0  0  0  0  0  0  0  0  # atno 10167 bound_to 10162
  157.4741  131.1082  150.9765 H   0  0  0  0  0  0  0  0  0  0  0  0  # atno 10718 bound_to 10713
  154.8701  135.3700  154.4916 H   0  0  0  0  0  0  0  0  0  0  0  0  # atno 10763 bound_to 10752
  153.5562  135.7024  153.5573 H   0  0  0  0  0  0  0  0  0  0  0  0  # atno 10764 bound_to 10752
  153.3670  135.4031  155.1724 H   0  0  0  0  0  0  0  0  0  0  0  0  # atno 10765 bound_to 10752
  140.8741  133.7700  156.0222 H   0  0  0  0  0  0  0  0  0  0  0  0  # atno 11005 bound_to 11000
  144.9847  139.3748  143.6244 LP  0  0  0  0  0  0  0  0  0  0  0  0  # atno 17320 bound_to 7965
  146.3395  139.9004  142.8795 LP  0  0  0  0  0  0  0  0  0  0  0  0  # atno 17321 bound_to 7965
  139.6226  144.0876  152.2405 LP  0  0  0  0  0  0  0  0  0  0  0  0  # atno 17342 bound_to 10162
  140.0326  144.6069  150.7476 LP  0  0  0  0  0  0  0  0  0  0  0  0  # atno 17343 bound_to 10162
  157.0520  130.5791  149.5372 LP  0  0  0  0  0  0  0  0  0  0  0  0  # atno 17370 bound_to 10713
  156.0088  130.5177  150.7920 LP  0  0  0  0  0  0  0  0  0  0  0  0  # atno 17371 bound_to 10713
  140.8539  134.2921  157.5264 LP  0  0  0  0  0  0  0  0  0  0  0  0  # atno 17394 bound_to 11000
  139.8714  134.9482  156.3990 LP  0  0  0  0  0  0  0  0  0  0  0  0  # atno 17395 bound_to 11000

$$$$
