AV-unprocessed.smi:2775|AV-procd|sdf|10691|dock4
  -GOLD-   2272015133D 1   1.00000     0.00000
 Structure written by MMmdl.
 42 45  0  0  0  0  0  0  0  0  1 V2000
  144.5410  132.1375  150.4087 C   0  0  0  0  0  0  0  0  0  0  0  0
  144.3810  133.4368  151.1758 C   0  0  0  0  0  0  0  0  0  0  0  0
  143.1143  133.8890  151.3037 N   0  0  0  0  0  0  0  0  0  0  0  0
  142.9149  135.0363  151.9846 C   0  0  0  0  0  0  0  0  0  0  0  0
  143.9577  135.7856  152.5619 C   0  0  0  0  0  0  0  0  0  0  0  0
  145.2866  135.3228  152.4146 C   0  0  0  0  0  0  0  0  0  0  0  0
  146.4111  135.9880  152.9729 N   0  0  0  0  0  0  0  0  0  0  0  0
  146.4794  136.7345  154.0916 C   0  0  0  0  0  0  0  0  0  0  0  0
  145.5474  136.9208  154.8709 O   0  0  0  0  0  0  0  0  0  0  0  0
  147.6752  137.3193  154.2796 N   0  0  0  0  0  0  0  0  0  0  0  0
  148.0743  138.1885  155.3896 C   0  0  1  0  0  0  0  0  0  0  0  0
  149.5495  138.0285  155.8291 C   0  0  1  0  0  0  0  0  0  0  0  0
  150.5713  137.2637  155.0266 C   0  0  0  0  0  0  0  0  0  0  0  0
  150.9866  138.2686  153.9574 C   0  0  0  0  0  0  0  0  0  0  0  0
  150.8366  139.5438  154.5812 O   0  0  0  0  0  0  0  0  0  0  0  0
  149.7710  139.5103  155.5344 C   0  0  1  0  0  0  0  0  0  0  0  0
  148.3512  139.6361  154.9513 C   0  0  0  0  0  0  0  0  0  0  0  0
  148.1070  140.1607  153.5206 C   0  0  0  0  0  0  0  0  0  0  0  0
  147.7508  141.5164  154.1344 C   0  0  0  0  0  0  0  0  0  0  0  0
  147.4425  140.7761  155.4379 C   0  0  0  0  0  0  0  0  0  0  0  0
  145.5007  134.1128  151.7147 C   0  0  0  0  0  0  0  0  0  0  0  0
  147.1003  133.4786  151.5132 Cl  0  0  0  0  0  0  0  0  0  0  0  0
  145.1673  132.2912  149.5296 H   0  0  0  0  0  0  0  0  0  0  0  0
  143.5789  131.7478  150.0728 H   0  0  0  0  0  0  0  0  0  0  0  0
  145.0089  131.3808  151.0386 H   0  0  0  0  0  0  0  0  0  0  0  0
  141.8905  135.3652  152.0783 H   0  0  0  0  0  0  0  0  0  0  0  0
  143.7202  136.6844  153.1101 H   0  0  0  0  0  0  0  0  0  0  0  0
  147.2367  135.9947  152.3921 H   0  0  0  0  0  0  0  0  0  0  0  0
  148.3627  137.1915  153.5510 H   0  0  0  0  0  0  0  0  0  0  0  0
  147.3908  138.1607  156.2404 H   0  0  0  0  0  0  0  0  0  0  0  0
  149.6032  137.8142  156.8973 H   0  0  0  0  0  0  0  0  0  0  0  0
  151.4279  137.0160  155.6543 H   0  0  0  0  0  0  0  0  0  0  0  0
  150.1981  136.3318  154.6034 H   0  0  0  0  0  0  0  0  0  0  0  0
  152.0063  138.1118  153.6056 H   0  0  0  0  0  0  0  0  0  0  0  0
  150.3196  138.2047  153.0972 H   0  0  0  0  0  0  0  0  0  0  0  0
  149.9496  140.1206  156.4206 H   0  0  0  0  0  0  0  0  0  0  0  0
  148.9775  140.1809  152.8655 H   0  0  0  0  0  0  0  0  0  0  0  0
  147.2494  139.6980  153.0297 H   0  0  0  0  0  0  0  0  0  0  0  0
  148.6126  142.1805  154.2189 H   0  0  0  0  0  0  0  0  0  0  0  0
  146.8957  142.0157  153.6780 H   0  0  0  0  0  0  0  0  0  0  0  0
  146.3952  140.4781  155.5123 H   0  0  0  0  0  0  0  0  0  0  0  0
  147.7799  141.2840  156.3417 H   0  0  0  0  0  0  0  0  0  0  0  0
  1  2  1  0  0  0  0
  1 23  1  0  0  0  0
  1 24  1  0  0  0  0
  1 25  1  0  0  0  0
  2 21  1  0  0  0  0
  2  3  2  0  0  0  0
  3  4  1  0  0  0  0
  4  5  2  0  0  0  0
  4 26  1  0  0  0  0
  5  6  1  0  0  0  0
  5 27  1  0  0  0  0
  6  7  1  0  0  0  0
  6 21  2  0  0  0  0
  7  8  1  0  0  0  0
  7 28  1  0  0  0  0
  8  9  2  0  0  0  0
  8 10  1  0  0  0  0
 10 11  1  0  0  0  0
 10 29  1  0  0  0  0
 11 17  1  0  0  0  0
 11 12  1  0  0  0  0
 11 30  1  0  0  0  0
 12 16  1  0  0  0  0
 12 13  1  0  0  0  0
 12 31  1  0  0  0  0
 13 14  1  0  0  0  0
 13 32  1  0  0  0  0
 13 33  1  0  0  0  0
 14 15  1  0  0  0  0
 14 34  1  0  0  0  0
 14 35  1  0  0  0  0
 15 16  1  0  0  0  0
 16 17  1  0  0  0  0
 16 36  1  0  0  0  0
 17 20  1  0  0  0  0
 17 18  1  0  0  0  0
 18 19  1  0  0  0  0
 18 37  1  0  0  0  0
 18 38  1  0  0  0  0
 19 20  1  0  0  0  0
 19 39  1  0  0  0  0
 19 40  1  0  0  0  0
 20 41  1  0  0  0  0
 20 42  1  0  0  0  0
 21 22  1  0  0  0  0
M  END
> <s_m_source_file>
AV-unprocessed.smi

> <i_m_source_file_index>
2775

> <i_lp_mmshare_version>
43012

> <i_f3d_flags>
0

> <s_epik_input>
W0NIM11jMW5bY0hdW2NIXWMoYzFDbClbTkhdQyg9TylbTkhdW0NAQEhdMltDQEhdKFtDSDJdW0NIMl1PMylbQ0BASF0zQzI0W0NIMl1bQ0gyXVtDSDJdNA==

> <s_epik_cmdline>
J2VwaWtfcHl0aG9uJywgJy1waCcsICc3LjAnLCAnLXRuJywgJzgnLCAnLW1hJywgJzIwMCcsICctbWV0YWxfYmluZGluZycsICctaW1hZScsICc8aW5maWxlLm1hZT4nLCAnLW9tYWUnLCAnPG91dGZpbGUubWFlPic=

> <r_epik_Ionization_Penalty>
0.01026

> <r_epik_Ionization_Penalty_Charging>
0

> <r_epik_Ionization_Penalty_Neutral>
0.01026

> <r_epik_State_Penalty>
0.00780685

> <r_epik_Charging_Adjusted_Penalty>
0.00780685

> <i_epik_Tot_Q>
0

> <i_epik_Tot_abs_Q>
0

> <r_epik_Metal_State_Penalty>
0.00767411

> <b_epik_Metal_Only>
0

> <s_lp_Force_Field>
OPLS_2005

> <r_lp_Energy>
57.8128

> <b_lp_Chiralities_Consistent>
1

> <s_lp_Variant>
AV-unprocessed.smi:2775-4

> <Gold.Version>
5.8.1

> <Gold.Id.Protein>
6NUR|6NUR_protein|mol2

> <Gold.PLP.Fitness>
36.1517

> <Gold.PLP.PLP>
-27.7832

> <Gold.PLP.part.hbond>
-3.0000

> <Gold.PLP.part.metal>
0.0000

> <Gold.PLP.part.buried>
-4.0833

> <Gold.PLP.part.nonpolar>
-21.7986

> <Gold.PLP.part.repulsive>
0.3700

> <Gold.PLP.ligand.clash>
0.0000

> <Gold.PLP.ligand.torsion>
0.3966

> <Gold.PLP.Chemscore.Hbond>
3.0000

> <Gold.PLP.Chemscore.CHOScore>
0.0000

> <Gold.PLP.Chemscore.Metal>
0.0000

> <Gold.Chemscore.Hbonds>
donor molecule, donor type, donor heavy atom, donor atom, acceptor molecule, acceptor atom, score
      L1  H     7    28       P1  7948  1.00
      L1  H    10    29       P1  7948  0.99
      P1  H  7989  7998       L1    15  1.00

> <Gold.PLP.Chemscore.Internal.Correction>
0.1616

> <Gold.Rescore>
     Score         DG    S(hbond)    S(metal)    S(lipo)     H(rot)  DE(clash)    DE(int)     intcor
     19.19     -22.26       2.91        0.00      82.09       1.00       1.97       1.10       ----

> <Gold.Chemscore.Fitness>
19.1881

> <Gold.Chemscore.DG>
-22.2590

> <Gold.Chemscore.ZeroCoef>
-5.4800

> <Gold.Chemscore.Hbond>
2.9146

> <Gold.Chemscore.Metal>
0.0000

> <Gold.Chemscore.Lipo>
82.0871

> <Gold.Chemscore.Internal_Hbond>
0.0000

> <Gold.Chemscore.DEClash>
1.9662

> <Gold.Chemscore.DEInternal>
1.1047

> <Gold.Chemscore.Rot>
1.0000

> <Gold.Chemscore.Internal.Correction>
   9.000000E+99

> <Gold.Chemscore.Hbonds>
donor molecule, donor type, donor heavy atom, donor atom, acceptor molecule, acceptor atom, score
      L1  H     7    28       P1  7948  1.00
      L1  H    10    29       P1  7948  0.88
      P1  H  7989  7998       L1    15  0.70

> <Gold.Chemscore.Hbond.Weighted>
-9.7348

> <Gold.Chemscore.Metal.Weighted>
-0.0000

> <Gold.Chemscore.Lipo.Weighted>
-9.6042

> <Gold.Chemscore.Internal_Hbond.Weighted>
0.0000

> <Gold.Chemscore.DEClash.Weighted>
1.9662

> <Gold.Chemscore.DEInternal.Weighted>
1.1047

> <Gold.Chemscore.Rot.Weighted>
2.5600

> <Gold.Chemscore.Internal.Correction.Weighted>
   9.000000E+99

> <Gold.Protein.RotatedTorsions>
[ 6907 6896 6895 6894 ] final  177.34 input  -60.11 | X-H torsion
[ 7974 7965 7964 7962 ] final  -72.14 input  175.53 | X-H torsion
[ 8008 7997 7996 7995 ] final -136.49 input   59.86 | X-H torsion
[ 10167 10162 10161 10158 ] final  167.68 input  -65.29 | X-H torsion
[ 10718 10713 10712 10709 ] final   54.25 input   66.30 | X-H torsion
[ 10763 10752 10751 10750 ] final  166.38 input  -60.55 | X-H torsion
[ 11005 11000 10999 10996 ] final  -52.75 input  -57.11 | X-H torsion

> <Gold.Protein.ActiveResidues>
 VAL166  LYS551  ARG553  GLY616  TRP617  ASP618  TYR619  PRO620  LYS621  CYS622 
 ASP623  PHE694  ASN695  SER759  ASP760  ASP761  ALA762  ILE779  LEU786  VAL792 
 PHE793  MET794  SER795  GLU796  ALA797  LYS798  CYS799  TRP800  GLU811  SER814 

> <Gold.Protein.RotatedAtoms>
  151.7055  133.3311  159.3277 H   0  0  0  0  0  0  0  0  0  0  0  0  # atno 6907 bound_to 6896
  150.7717  134.6578  159.6332 H   0  0  0  0  0  0  0  0  0  0  0  0  # atno 6908 bound_to 6896
  152.3743  134.6689  160.0217 H   0  0  0  0  0  0  0  0  0  0  0  0  # atno 6909 bound_to 6896
  145.6690  140.9227  143.0893 H   0  0  0  0  0  0  0  0  0  0  0  0  # atno 7974 bound_to 7965
  155.3961  140.0503  157.3039 H   0  0  0  0  0  0  0  0  0  0  0  0  # atno 8008 bound_to 7997
  154.5013  140.2157  155.9302 H   0  0  0  0  0  0  0  0  0  0  0  0  # atno 8009 bound_to 7997
  156.1470  140.3143  155.8592 H   0  0  0  0  0  0  0  0  0  0  0  0  # atno 8010 bound_to 7997
  139.4951  144.3896  151.9532 H   0  0  0  0  0  0  0  0  0  0  0  0  # atno 10167 bound_to 10162
  157.5240  130.8585  149.8597 H   0  0  0  0  0  0  0  0  0  0  0  0  # atno 10718 bound_to 10713
  154.3381  135.2754  155.2437 H   0  0  0  0  0  0  0  0  0  0  0  0  # atno 10763 bound_to 10752
  154.4720  135.5880  153.6332 H   0  0  0  0  0  0  0  0  0  0  0  0  # atno 10764 bound_to 10752
  152.9860  135.6090  154.3579 H   0  0  0  0  0  0  0  0  0  0  0  0  # atno 10765 bound_to 10752
  141.0941  133.6627  156.4071 H   0  0  0  0  0  0  0  0  0  0  0  0  # atno 11005 bound_to 11000
  144.7063  139.8547  143.7429 LP  0  0  0  0  0  0  0  0  0  0  0  0  # atno 17320 bound_to 7965
  146.1062  139.4061  143.0316 LP  0  0  0  0  0  0  0  0  0  0  0  0  # atno 17321 bound_to 7965
  140.3333  144.3290  150.5982 LP  0  0  0  0  0  0  0  0  0  0  0  0  # atno 17342 bound_to 10162
  140.5627  143.2190  151.7738 LP  0  0  0  0  0  0  0  0  0  0  0  0  # atno 17343 bound_to 10162
  156.0374  130.3748  150.1525 LP  0  0  0  0  0  0  0  0  0  0  0  0  # atno 17370 bound_to 10713
  156.9712  130.9835  151.3458 LP  0  0  0  0  0  0  0  0  0  0  0  0  # atno 17371 bound_to 10713
  140.5183  134.6329  157.5309 LP  0  0  0  0  0  0  0  0  0  0  0  0  # atno 17394 bound_to 11000
  139.9773  134.7194  155.9925 LP  0  0  0  0  0  0  0  0  0  0  0  0  # atno 17395 bound_to 11000

$$$$
