AV-unprocessed.smi:1428|AV-procd|sdf|5816|dock3
  -GOLD-   22720 5473D 1   1.00000     0.00000
 Structure written by MMmdl.
 43 44  0  0  0  0  0  0  0  0  3 V2000
  152.2064  138.6082  154.7274 C   0  0  0  0  0  0  0  0  0  0  0  0
  150.8133  138.3512  154.5853 O   0  0  0  0  0  0  0  0  0  0  0  0
  149.9327  139.4113  154.6908 C   0  0  0  0  0  0  0  0  0  0  0  0
  150.4270  140.6267  155.0360 N   0  0  0  0  0  0  0  0  0  0  0  0
  149.5711  141.6639  155.1365 C   0  0  0  0  0  0  0  0  0  0  0  0
  148.1907  141.5489  154.8932 C   0  0  0  0  0  0  0  0  0  0  0  0
  147.6754  140.2901  154.5335 C   0  0  0  0  0  0  0  0  0  0  0  0
  148.5586  139.1863  154.4381 C   0  0  0  0  0  0  0  0  0  0  0  0
  148.1544  137.8712  154.0723 N   0  0  0  0  0  0  0  0  0  0  0  0
  146.9765  137.4505  153.5801 C   0  0  0  0  0  0  0  0  0  0  0  0
  145.9966  138.1619  153.3610 O   0  0  0  0  0  0  0  0  0  0  0  0
  146.9889  136.1274  153.3631 N   0  0  0  0  0  0  0  0  0  0  0  0
  145.8743  135.3537  152.8234 C   0  0  2  0  0  0  0  0  0  0  0  0
  146.3461  133.9761  152.3224 C   0  0  0  0  0  0  0  0  0  0  0  0
  145.1908  133.1996  151.6697 C   0  0  0  0  0  0  0  0  0  0  0  0
  144.5811  133.9791  150.5593 N   0  3  1  0  0  0  0  0  0  0  0  0
  143.5496  133.2206  149.8063 C   0  0  0  0  0  0  0  0  0  0  0  0
  144.0696  132.8227  148.4207 C   0  0  0  0  0  0  0  0  0  0  0  0
  143.5842  133.6146  147.4431 N   0  5  0  0  0  0  0  0  0  0  0  0
  144.8407  131.8725  148.3101 O   0  0  0  0  0  0  0  0  0  0  0  0
  144.0878  135.3010  151.0211 C   0  0  0  0  0  0  0  0  0  0  0  0
  145.2179  136.1219  151.6649 C   0  0  0  0  0  0  0  0  0  0  0  0
  152.7577  137.6739  154.6237 H   0  0  0  0  0  0  0  0  0  0  0  0
  152.4393  139.0214  155.7099 H   0  0  0  0  0  0  0  0  0  0  0  0
  152.5661  139.2916  153.9566 H   0  0  0  0  0  0  0  0  0  0  0  0
  150.0005  142.6155  155.4132 H   0  0  0  0  0  0  0  0  0  0  0  0
  147.5420  142.4081  154.9765 H   0  0  0  0  0  0  0  0  0  0  0  0
  146.6202  140.2061  154.3281 H   0  0  0  0  0  0  0  0  0  0  0  0
  148.8374  137.1506  154.2560 H   0  0  0  0  0  0  0  0  0  0  0  0
  147.8348  135.6196  153.5774 H   0  0  0  0  0  0  0  0  0  0  0  0
  145.1275  135.2126  153.6075 H   0  0  0  0  0  0  0  0  0  0  0  0
  147.1536  134.0992  151.5989 H   0  0  0  0  0  0  0  0  0  0  0  0
  146.7566  133.3924  153.1471 H   0  0  0  0  0  0  0  0  0  0  0  0
  145.5680  132.2463  151.2985 H   0  0  0  0  0  0  0  0  0  0  0  0
  144.4279  132.9674  152.4145 H   0  0  0  0  0  0  0  0  0  0  0  0
  143.2372  132.3400  150.3699 H   0  0  0  0  0  0  0  0  0  0  0  0
  142.6562  133.8312  149.6641 H   0  0  0  0  0  0  0  0  0  0  0  0
  142.7144  133.3378  146.9722 H   0  0  0  0  0  0  0  0  0  0  0  0
  143.6818  135.8575  150.1755 H   0  0  0  0  0  0  0  0  0  0  0  0
  143.2707  135.1587  151.7301 H   0  0  0  0  0  0  0  0  0  0  0  0
  144.8228  137.0738  152.0219 H   0  0  0  0  0  0  0  0  0  0  0  0
  145.9656  136.3616  150.9070 H   0  0  0  0  0  0  0  0  0  0  0  0
  145.3150  134.1644  149.8895 H   0  0  0  0  0  0  0  0  0  0  0  0
  1  2  1  0  0  0  0
  1 23  1  0  0  0  0
  1 24  1  0  0  0  0
  1 25  1  0  0  0  0
  2  3  1  0  0  0  0
  3  8  1  0  0  0  0
  3  4  2  0  0  0  0
  4  5  1  0  0  0  0
  5  6  2  0  0  0  0
  5 26  1  0  0  0  0
  6  7  1  0  0  0  0
  6 27  1  0  0  0  0
  7  8  2  0  0  0  0
  7 28  1  0  0  0  0
  8  9  1  0  0  0  0
  9 10  1  0  0  0  0
  9 29  1  0  0  0  0
 10 11  2  0  0  0  0
 10 12  1  0  0  0  0
 12 13  1  0  0  0  0
 12 30  1  0  0  0  0
 13 22  1  0  0  0  0
 13 14  1  0  0  0  0
 13 31  1  0  0  0  0
 14 15  1  0  0  0  0
 14 32  1  0  0  0  0
 14 33  1  0  0  0  0
 15 16  1  0  0  0  0
 15 34  1  0  0  0  0
 15 35  1  0  0  0  0
 16 17  1  0  0  0  0
 16 21  1  0  0  0  0
 16 43  1  0  0  0  0
 17 18  1  0  0  0  0
 17 36  1  0  0  0  0
 17 37  1  0  0  0  0
 18 19  1  0  0  0  0
 18 20  2  0  0  0  0
 19 38  1  0  0  0  0
 21 22  1  0  0  0  0
 21 39  1  0  0  0  0
 21 40  1  0  0  0  0
 22 41  1  0  0  0  0
 22 42  1  0  0  0  0
M  CHG  1  16   1
M  CHG  1  19  -1
M  END
> <s_m_source_file>
AV-unprocessed.smi

> <i_m_source_file_index>
1428

> <i_lp_mmshare_version>
43012

> <i_f3d_flags>
0

> <s_epik_input>
W0NIM11PYzFuW2NIXVtjSF1bY0hdYzFbTkhdQyg9TylbTkhdW0NIXTJbQ0gyXVtDSDJdTihbQ0gyXVtDSDJdMilbQ0gyXUMoPU8pW05IMl0=

> <s_epik_cmdline>
J2VwaWtfcHl0aG9uJywgJy1waCcsICc3LjAnLCAnLXRuJywgJzgnLCAnLW1hJywgJzIwMCcsICctbWV0YWxfYmluZGluZycsICctaW1hZScsICc8aW5maWxlLm1hZT4nLCAnLW9tYWUnLCAnPG91dGZpbGUubWFlPic=

> <r_lp_tautomer_probability>
1

> <r_epik_Ionization_Penalty>
5.72888

> <r_epik_Ionization_Penalty_Charging>
5.7288

> <r_epik_Ionization_Penalty_Neutral>
7.84403e-05

> <r_epik_State_Penalty>
6.54882

> <r_epik_Charging_Adjusted_Penalty>
12.2776

> <i_epik_Tot_Q>
0

> <i_epik_Tot_abs_Q>
2

> <r_epik_Metal_State_Penalty>
2.51301

> <b_epik_Metal_Only>
1

> <s_lp_Force_Field>
OPLS_2005

> <r_lp_Energy>
10.0981

> <b_lp_Chiralities_Consistent>
1

> <s_lp_Variant>
AV-unprocessed.smi:1428-4

> <Gold.Version>
5.8.1

> <Gold.Id.Protein>
6NUR|6NUR_protein|mol2

> <Gold.PLP.Fitness>
43.5629

> <Gold.PLP.PLP>
-34.6725

> <Gold.PLP.part.hbond>
-7.8460

> <Gold.PLP.part.metal>
0.0000

> <Gold.PLP.part.buried>
1.7181

> <Gold.PLP.part.nonpolar>
-28.8873

> <Gold.PLP.part.repulsive>
0.7139

> <Gold.PLP.ligand.clash>
0.0000

> <Gold.PLP.ligand.torsion>
1.2343

> <Gold.PLP.Chemscore.Hbond>
2.8307

> <Gold.PLP.Chemscore.CHOScore>
0.9448

> <Gold.PLP.Chemscore.Metal>
0.0000

> <Gold.Chemscore.Hbonds>
donor molecule, donor type, donor heavy atom, donor atom, acceptor molecule, acceptor atom, score
      L1  H    19    38       P1 10195  0.99
      P1  H  7918  7932       L1    19  0.60
      P1  H  7989  7998       L1     4  0.84
      P1  H 10785 10796       L1    20  0.01
      L1  C     5    26       P1  8028  0.96

> <Gold.PLP.Chemscore.Internal.Correction>
0.0326

> <Gold.Rescore>
     Score         DG    S(hbond)    S(metal)    S(lipo)     H(rot)  DE(clash)    DE(int)     intcor
      6.69     -14.06       1.93        0.00      68.36       2.29       3.21       4.16       ----

> <Gold.Chemscore.Fitness>
6.6938

> <Gold.Chemscore.DG>
-14.0618

> <Gold.Chemscore.ZeroCoef>
-5.4800

> <Gold.Chemscore.Hbond>
1.9296

> <Gold.Chemscore.Metal>
0.0000

> <Gold.Chemscore.Lipo>
68.3562

> <Gold.Chemscore.Internal_Hbond>
0.0000

> <Gold.Chemscore.DEClash>
3.2053

> <Gold.Chemscore.DEInternal>
4.1628

> <Gold.Chemscore.Rot>
2.2894

> <Gold.Chemscore.Internal.Correction>
   9.000000E+99

> <Gold.Chemscore.Hbonds>
donor molecule, donor type, donor heavy atom, donor atom, acceptor molecule, acceptor atom, score
      L1  H    12    30       P1  7948  0.03
      L1  H    16    43       P1  7921  0.02
      L1  H    19    38       P1 10195  0.94
      P1  H  7918  7932       L1    19  0.05
      P1  H  7989  7998       L1     4  0.12

> <Gold.Chemscore.Hbond.Weighted>
-6.4450

> <Gold.Chemscore.Metal.Weighted>
-0.0000

> <Gold.Chemscore.Lipo.Weighted>
-7.9977

> <Gold.Chemscore.Internal_Hbond.Weighted>
0.0000

> <Gold.Chemscore.DEClash.Weighted>
3.2053

> <Gold.Chemscore.DEInternal.Weighted>
4.1628

> <Gold.Chemscore.Rot.Weighted>
5.8608

> <Gold.Chemscore.Internal.Correction.Weighted>
   9.000000E+99

> <Gold.Protein.RotatedTorsions>
[ 6907 6896 6895 6894 ] final -147.47 input  -60.11 | X-H torsion
[ 7974 7965 7964 7962 ] final  100.88 input  175.53 | X-H torsion
[ 8008 7997 7996 7995 ] final   48.74 input   59.86 | X-H torsion
[ 10167 10162 10161 10158 ] final -109.37 input  -65.29 | X-H torsion
[ 10718 10713 10712 10709 ] final    8.03 input   66.30 | X-H torsion
[ 10763 10752 10751 10750 ] final  -21.16 input  -60.55 | X-H torsion
[ 11005 11000 10999 10996 ] final  -98.98 input  -57.11 | X-H torsion

> <Gold.Protein.ActiveResidues>
 VAL166  LYS551  ARG553  GLY616  TRP617  ASP618  TYR619  PRO620  LYS621  CYS622 
 ASP623  PHE694  ASN695  SER759  ASP760  ASP761  ALA762  ILE779  LEU786  VAL792 
 PHE793  MET794  SER795  GLU796  ALA797  LYS798  CYS799  TRP800  GLU811  SER814 

> <Gold.Protein.RotatedAtoms>
  151.1562  133.4875  159.2594 H   0  0  0  0  0  0  0  0  0  0  0  0  # atno 6907 bound_to 6896
  151.1502  135.0223  159.8675 H   0  0  0  0  0  0  0  0  0  0  0  0  # atno 6908 bound_to 6896
  152.5463  134.1447  159.8546 H   0  0  0  0  0  0  0  0  0  0  0  0  # atno 6909 bound_to 6896
  145.3797  139.2382  143.3410 H   0  0  0  0  0  0  0  0  0  0  0  0  # atno 7974 bound_to 7965
  155.3906  140.3433  155.4251 H   0  0  0  0  0  0  0  0  0  0  0  0  # atno 8008 bound_to 7997
  156.1559  140.1585  156.8725 H   0  0  0  0  0  0  0  0  0  0  0  0  # atno 8009 bound_to 7997
  154.5095  140.0794  156.7942 H   0  0  0  0  0  0  0  0  0  0  0  0  # atno 8010 bound_to 7997
  140.1560  143.4159  152.1460 H   0  0  0  0  0  0  0  0  0  0  0  0  # atno 10167 bound_to 10162
  156.9456  130.5877  149.5654 H   0  0  0  0  0  0  0  0  0  0  0  0  # atno 10718 bound_to 10713
  153.6318  135.6988  153.5272 H   0  0  0  0  0  0  0  0  0  0  0  0  # atno 10763 bound_to 10752
  153.2853  135.4173  155.1116 H   0  0  0  0  0  0  0  0  0  0  0  0  # atno 10764 bound_to 10752
  154.8520  135.3612  154.5861 H   0  0  0  0  0  0  0  0  0  0  0  0  # atno 10765 bound_to 10752
  141.1325  133.8287  157.0912 H   0  0  0  0  0  0  0  0  0  0  0  0  # atno 11005 bound_to 11000
  146.2848  140.4462  142.8762 LP  0  0  0  0  0  0  0  0  0  0  0  0  # atno 17320 bound_to 7965
  144.8516  140.7010  143.6164 LP  0  0  0  0  0  0  0  0  0  0  0  0  # atno 17321 bound_to 7965
  139.5403  144.7250  151.4756 LP  0  0  0  0  0  0  0  0  0  0  0  0  # atno 17342 bound_to 10162
  140.6673  143.8371  150.6956 LP  0  0  0  0  0  0  0  0  0  0  0  0  # atno 17343 bound_to 10162
  156.0385  130.5470  150.8713 LP  0  0  0  0  0  0  0  0  0  0  0  0  # atno 17370 bound_to 10713
  157.5756  131.0946  150.9350 LP  0  0  0  0  0  0  0  0  0  0  0  0  # atno 17371 bound_to 10713
  140.0391  134.9863  157.0928 LP  0  0  0  0  0  0  0  0  0  0  0  0  # atno 17394 bound_to 11000
  140.4163  134.1927  155.7163 LP  0  0  0  0  0  0  0  0  0  0  0  0  # atno 17395 bound_to 11000

$$$$
