AV-unprocessed.smi:885|AV-procd|sdf|4046|dock1
  -GOLD-   22720 1533D 1   1.00000     0.00000
 Structure written by MMmdl.
 39 41  0  0  0  0  0  0  0  0  1 V2000
  151.8838  143.9880  160.7010 C   0  0  0  0  0  0  0  0  0  0  0  0
  152.7815  142.9485  161.3959 C   0  0  0  0  0  0  0  0  0  0  0  0
  153.2803  141.7793  160.5285 C   0  0  0  0  0  0  0  0  0  0  0  0
  152.2461  141.1956  159.5509 C   0  0  0  0  0  0  0  0  0  0  0  0
  152.2028  141.9312  158.1939 C   0  0  0  0  0  0  0  0  0  0  0  0
  151.5246  141.0962  157.1496 C   0  0  0  0  0  0  0  0  0  0  0  0
  152.2133  140.5210  156.1705 N   0  0  0  0  0  0  0  0  0  0  0  0
  151.2276  139.8609  155.4233 O   0  0  0  0  0  0  0  0  0  0  0  0
  150.0553  140.1038  156.0576 C   0  0  0  0  0  0  0  0  0  0  0  0
  148.7934  139.5679  155.4611 C   0  0  2  0  0  0  0  0  0  0  0  0
  149.0658  138.5385  154.3472 C   0  0  0  0  0  0  0  0  0  0  0  0
  147.8088  138.1064  153.7386 N   0  0  0  0  0  0  0  0  0  0  0  0
  147.0376  139.2495  153.2525 C   0  0  0  0  0  0  0  0  0  0  0  0
  146.8200  140.2698  154.3846 C   0  0  0  0  0  0  0  0  0  0  0  0
  148.0783  140.6732  154.9139 O   0  0  0  0  0  0  0  0  0  0  0  0
  150.1789  140.8845  157.1293 N   0  0  0  0  0  0  0  0  0  0  0  0
  151.5989  143.3492  158.2358 C   0  0  0  0  0  0  0  0  0  0  0  0
  152.2526  144.3107  159.2437 C   0  0  0  0  0  0  0  0  0  0  0  0
  151.9204  144.9068  161.2875 H   0  0  0  0  0  0  0  0  0  0  0  0
  150.8439  143.6619  160.7474 H   0  0  0  0  0  0  0  0  0  0  0  0
  153.6530  143.4536  161.8139 H   0  0  0  0  0  0  0  0  0  0  0  0
  152.2378  142.5499  162.2532 H   0  0  0  0  0  0  0  0  0  0  0  0
  154.1717  142.0846  159.9793 H   0  0  0  0  0  0  0  0  0  0  0  0
  153.6175  140.9884  161.1992 H   0  0  0  0  0  0  0  0  0  0  0  0
  152.5391  140.1622  159.3592 H   0  0  0  0  0  0  0  0  0  0  0  0
  151.2563  141.1436  160.0063 H   0  0  0  0  0  0  0  0  0  0  0  0
  153.2380  142.0469  157.8678 H   0  0  0  0  0  0  0  0  0  0  0  0
  148.2059  139.1136  156.2613 H   0  0  0  0  0  0  0  0  0  0  0  0
  149.7111  138.9806  153.5868 H   0  0  0  0  0  0  0  0  0  0  0  0
  149.6009  137.6787  154.7507 H   0  0  0  0  0  0  0  0  0  0  0  0
  148.0034  137.4753  152.9679 H   0  0  0  0  0  0  0  0  0  0  0  0
  147.5644  139.7277  152.4260 H   0  0  0  0  0  0  0  0  0  0  0  0
  146.0776  138.9137  152.8604 H   0  0  0  0  0  0  0  0  0  0  0  0
  146.3016  141.1489  154.0016 H   0  0  0  0  0  0  0  0  0  0  0  0
  146.1951  139.8507  155.1750 H   0  0  0  0  0  0  0  0  0  0  0  0
  151.6888  143.7871  157.2407 H   0  0  0  0  0  0  0  0  0  0  0  0
  150.5280  143.2918  158.4355 H   0  0  0  0  0  0  0  0  0  0  0  0
  151.8887  145.3142  159.0209 H   0  0  0  0  0  0  0  0  0  0  0  0
  153.3342  144.3506  159.1096 H   0  0  0  0  0  0  0  0  0  0  0  0
  1 18  1  0  0  0  0
  1  2  1  0  0  0  0
  1 19  1  0  0  0  0
  1 20  1  0  0  0  0
  2  3  1  0  0  0  0
  2 21  1  0  0  0  0
  2 22  1  0  0  0  0
  3  4  1  0  0  0  0
  3 23  1  0  0  0  0
  3 24  1  0  0  0  0
  4  5  1  0  0  0  0
  4 25  1  0  0  0  0
  4 26  1  0  0  0  0
  5  6  1  0  0  0  0
  5 17  1  0  0  0  0
  5 27  1  0  0  0  0
  6 16  1  0  0  0  0
  6  7  2  0  0  0  0
  7  8  1  0  0  0  0
  8  9  1  0  0  0  0
  9 10  1  0  0  0  0
  9 16  2  0  0  0  0
 10 15  1  0  0  0  0
 10 11  1  0  0  0  0
 10 28  1  0  0  0  0
 11 12  1  0  0  0  0
 11 29  1  0  0  0  0
 11 30  1  0  0  0  0
 12 13  1  0  0  0  0
 12 31  1  0  0  0  0
 13 14  1  0  0  0  0
 13 32  1  0  0  0  0
 13 33  1  0  0  0  0
 14 15  1  0  0  0  0
 14 34  1  0  0  0  0
 14 35  1  0  0  0  0
 17 18  1  0  0  0  0
 17 36  1  0  0  0  0
 17 37  1  0  0  0  0
 18 38  1  0  0  0  0
 18 39  1  0  0  0  0
M  END
> <s_m_source_file>
AV-unprocessed.smi

> <i_m_source_file_index>
885

> <i_lp_mmshare_version>
43012

> <i_f3d_flags>
0

> <s_epik_input>
W0NIMl0xW0NIMl1bQ0gyXVtDSDJdW0NIMl1bQ0gyXVtDSF0xYzJub2MobjIpW0NAQEhdM1tDSDJdW05IXVtDSDJdW0NIMl1PMw==

> <s_epik_cmdline>
J2VwaWtfcHl0aG9uJywgJy1waCcsICc3LjAnLCAnLXRuJywgJzgnLCAnLW1hJywgJzIwMCcsICctbWV0YWxfYmluZGluZycsICctaW1hZScsICc8aW5maWxlLm1hZT4nLCAnLW9tYWUnLCAnPG91dGZpbGUubWFlPic=

> <r_lp_tautomer_probability>
1

> <r_epik_Ionization_Penalty>
0.861744

> <r_epik_Ionization_Penalty_Charging>
0

> <r_epik_Ionization_Penalty_Neutral>
0.861744

> <r_epik_State_Penalty>
0.898282

> <r_epik_Charging_Adjusted_Penalty>
0.898282

> <i_epik_Tot_Q>
0

> <i_epik_Tot_abs_Q>
0

> <r_epik_Metal_State_Penalty>
0.898282

> <b_epik_Metal_Only>
0

> <s_lp_Force_Field>
OPLS_2005

> <r_lp_Energy>
20.6019

> <b_lp_Chiralities_Consistent>
1

> <s_lp_Variant>
AV-unprocessed.smi:885-3

> <Gold.Version>
5.8.1

> <Gold.Id.Protein>
6NUR|6NUR_protein|mol2

> <Gold.PLP.Fitness>
42.2272

> <Gold.PLP.PLP>
-34.3213

> <Gold.PLP.part.hbond>
-4.0000

> <Gold.PLP.part.metal>
0.0000

> <Gold.PLP.part.buried>
1.5611

> <Gold.PLP.part.nonpolar>
-31.2808

> <Gold.PLP.part.repulsive>
0.2279

> <Gold.PLP.ligand.clash>
0.0000

> <Gold.PLP.ligand.torsion>
0.3616

> <Gold.PLP.Chemscore.Hbond>
2.8406

> <Gold.PLP.Chemscore.CHOScore>
0.0000

> <Gold.PLP.Chemscore.Metal>
0.0000

> <Gold.Chemscore.Hbonds>
donor molecule, donor type, donor heavy atom, donor atom, acceptor molecule, acceptor atom, score
      L1  H    12    31       P1  7948  1.00
      P1  H  7989  7998       L1     8  0.44
      P1  H  7997  8010       L1     7  0.67

> <Gold.PLP.Chemscore.Internal.Correction>
0.1074

> <Gold.Rescore>
     Score         DG    S(hbond)    S(metal)    S(lipo)     H(rot)  DE(clash)    DE(int)     intcor
     18.15     -21.81       2.20        0.00     103.38       1.21       2.97       0.69       ----

> <Gold.Chemscore.Fitness>
18.1509

> <Gold.Chemscore.DG>
-21.8131

> <Gold.Chemscore.ZeroCoef>
-5.4800

> <Gold.Chemscore.Hbond>
2.1953

> <Gold.Chemscore.Metal>
0.0000

> <Gold.Chemscore.Lipo>
103.3802

> <Gold.Chemscore.Internal_Hbond>
0.0000

> <Gold.Chemscore.DEClash>
2.9679

> <Gold.Chemscore.DEInternal>
0.6943

> <Gold.Chemscore.Rot>
1.2088

> <Gold.Chemscore.Internal.Correction>
   9.000000E+99

> <Gold.Chemscore.Hbonds>
donor molecule, donor type, donor heavy atom, donor atom, acceptor molecule, acceptor atom, score
      L1  H    12    31       P1  7948  0.99
      P1  H  7989  7998       L1     8  0.06
      P1  H  7997  8010       L1     7  0.63

> <Gold.Chemscore.Hbond.Weighted>
-7.3322

> <Gold.Chemscore.Metal.Weighted>
-0.0000

> <Gold.Chemscore.Lipo.Weighted>
-12.0955

> <Gold.Chemscore.Internal_Hbond.Weighted>
0.0000

> <Gold.Chemscore.DEClash.Weighted>
2.9679

> <Gold.Chemscore.DEInternal.Weighted>
0.6943

> <Gold.Chemscore.Rot.Weighted>
3.0946

> <Gold.Chemscore.Internal.Correction.Weighted>
   9.000000E+99

> <Gold.Protein.RotatedTorsions>
[ 6907 6896 6895 6894 ] final -174.05 input  -60.11 | X-H torsion
[ 7974 7965 7964 7962 ] final  166.02 input  175.53 | X-H torsion
[ 8008 7997 7996 7995 ] final   81.47 input   59.86 | X-H torsion
[ 10167 10162 10161 10158 ] final   71.05 input  -65.29 | X-H torsion
[ 10718 10713 10712 10709 ] final -114.47 input   66.30 | X-H torsion
[ 10763 10752 10751 10750 ] final   72.21 input  -60.55 | X-H torsion
[ 11005 11000 10999 10996 ] final -115.88 input  -57.11 | X-H torsion

> <Gold.Protein.ActiveResidues>
 VAL166  LYS551  ARG553  GLY616  TRP617  ASP618  TYR619  PRO620  LYS621  CYS622 
 ASP623  PHE694  ASN695  SER759  ASP760  ASP761  ALA762  ILE779  LEU786  VAL792 
 PHE793  MET794  SER795  GLU796  ALA797  LYS798  CYS799  TRP800  GLU811  SER814 

> <Gold.Protein.RotatedAtoms>
  151.5661  133.3396  159.2980 H   0  0  0  0  0  0  0  0  0  0  0  0  # atno 6907 bound_to 6896
  150.8394  134.7683  159.6931 H   0  0  0  0  0  0  0  0  0  0  0  0  # atno 6908 bound_to 6896
  152.4465  134.5491  159.9913 H   0  0  0  0  0  0  0  0  0  0  0  0  # atno 6909 bound_to 6896
  144.7479  139.8555  143.6376 H   0  0  0  0  0  0  0  0  0  0  0  0  # atno 7974 bound_to 7965
  155.8975  140.3435  155.6002 H   0  0  0  0  0  0  0  0  0  0  0  0  # atno 8008 bound_to 7997
  155.7539  140.0823  157.2207 H   0  0  0  0  0  0  0  0  0  0  0  0  # atno 8009 bound_to 7997
  154.4040  140.1548  156.2742 H   0  0  0  0  0  0  0  0  0  0  0  0  # atno 8010 bound_to 7997
  140.0502  144.5317  150.7368 H   0  0  0  0  0  0  0  0  0  0  0  0  # atno 10167 bound_to 10162
  156.0832  130.6028  150.8779 H   0  0  0  0  0  0  0  0  0  0  0  0  # atno 10718 bound_to 10713
  153.0445  135.5108  154.7710 H   0  0  0  0  0  0  0  0  0  0  0  0  # atno 10763 bound_to 10752
  154.6621  135.2940  154.9856 H   0  0  0  0  0  0  0  0  0  0  0  0  # atno 10764 bound_to 10752
  154.0703  135.6678  153.4876 H   0  0  0  0  0  0  0  0  0  0  0  0  # atno 10765 bound_to 10752
  141.0459  133.9764  157.2919 H   0  0  0  0  0  0  0  0  0  0  0  0  # atno 11005 bound_to 11000
  146.1386  139.4437  143.0123 LP  0  0  0  0  0  0  0  0  0  0  0  0  # atno 17320 bound_to 7965
  145.7054  141.0123  143.1482 LP  0  0  0  0  0  0  0  0  0  0  0  0  # atno 17321 bound_to 7965
  140.7220  143.2598  151.4247 LP  0  0  0  0  0  0  0  0  0  0  0  0  # atno 17342 bound_to 10162
  139.5958  144.1402  152.2141 LP  0  0  0  0  0  0  0  0  0  0  0  0  # atno 17343 bound_to 10162
  157.5957  131.0943  150.9045 LP  0  0  0  0  0  0  0  0  0  0  0  0  # atno 17370 bound_to 10713
  156.9212  130.5316  149.5279 LP  0  0  0  0  0  0  0  0  0  0  0  0  # atno 17371 bound_to 10713
  139.9311  135.0200  156.8403 LP  0  0  0  0  0  0  0  0  0  0  0  0  # atno 17394 bound_to 11000
  140.6148  134.0049  155.7592 LP  0  0  0  0  0  0  0  0  0  0  0  0  # atno 17395 bound_to 11000

$$$$
