AV-unprocessed.smi:453|AV-procd|sdf|2611|dock2
  -GOLD-   2262023 13D 1   1.00000     0.00000
 Structure written by MMmdl.
 43 44  0  0  0  0  0  0  0  0  1 V2000
  144.0339  132.7206  149.0527 C   0  0  0  0  0  0  0  0  0  0  0  0
  144.5380  133.2879  150.3926 C   0  0  0  0  0  0  0  0  0  0  0  0
  144.3536  134.8129  150.4287 C   0  0  0  0  0  0  0  0  0  0  0  0
  146.0055  132.9123  150.7029 C   0  0  0  0  0  0  0  0  0  0  0  0
  146.3536  132.9627  152.1942 C   0  0  0  0  0  0  0  0  0  0  0  0
  145.5544  133.4358  153.0018 O   0  0  0  0  0  0  0  0  0  0  0  0
  147.5418  132.4491  152.5476 N   0  0  0  0  0  0  0  0  0  0  0  0
  148.0580  132.3934  153.9118 C   0  0  0  0  0  0  0  0  0  0  0  0
  148.7829  133.6515  154.3712 C   0  0  0  0  0  0  0  0  0  0  0  0
  150.1033  133.5656  154.8538 C   0  0  0  0  0  0  0  0  0  0  0  0
  150.7524  134.7360  155.2906 C   0  0  0  0  0  0  0  0  0  0  0  0
  150.0606  135.9693  155.2392 C   0  0  0  0  0  0  0  0  0  0  0  0
  150.6896  137.1548  155.6779 N   0  0  0  0  0  0  0  0  0  0  0  0
  151.2251  137.1833  157.0379 C   0  0  0  0  0  0  0  0  0  0  0  0
  151.6087  138.6192  157.4330 C   0  0  0  0  0  0  0  0  0  0  0  0
  152.5161  139.1537  156.4749 O   0  0  0  0  0  0  0  0  0  0  0  0
  151.9360  139.2198  155.1765 C   0  0  0  0  0  0  0  0  0  0  0  0
  151.5587  137.8062  154.7007 C   0  0  0  0  0  0  0  0  0  0  0  0
  148.7902  136.0498  154.7718 N   0  0  0  0  0  0  0  0  0  0  0  0
  148.1725  134.9245  154.3551 C   0  0  0  0  0  0  0  0  0  0  0  0
  144.6536  133.0592  148.2216 H   0  0  0  0  0  0  0  0  0  0  0  0
  143.0104  133.0397  148.8540 H   0  0  0  0  0  0  0  0  0  0  0  0
  144.0327  131.6308  149.0471 H   0  0  0  0  0  0  0  0  0  0  0  0
  143.9096  132.8724  151.1820 H   0  0  0  0  0  0  0  0  0  0  0  0
  144.9532  135.3025  149.6606 H   0  0  0  0  0  0  0  0  0  0  0  0
  144.6498  135.2234  151.3943 H   0  0  0  0  0  0  0  0  0  0  0  0
  143.3114  135.0878  150.2629 H   0  0  0  0  0  0  0  0  0  0  0  0
  146.2199  131.9102  150.3285 H   0  0  0  0  0  0  0  0  0  0  0  0
  146.6796  133.5821  150.1665 H   0  0  0  0  0  0  0  0  0  0  0  0
  148.1328  132.0749  151.8193 H   0  0  0  0  0  0  0  0  0  0  0  0
  147.2160  132.2239  154.5831 H   0  0  0  0  0  0  0  0  0  0  0  0
  148.7163  131.5297  154.0219 H   0  0  0  0  0  0  0  0  0  0  0  0
  150.6165  132.6157  154.8878 H   0  0  0  0  0  0  0  0  0  0  0  0
  151.7703  134.6760  155.6455 H   0  0  0  0  0  0  0  0  0  0  0  0
  150.4863  136.8001  157.7429 H   0  0  0  0  0  0  0  0  0  0  0  0
  152.1002  136.5344  157.0958 H   0  0  0  0  0  0  0  0  0  0  0  0
  150.7231  139.2527  157.5049 H   0  0  0  0  0  0  0  0  0  0  0  0
  152.0841  138.6241  158.4140 H   0  0  0  0  0  0  0  0  0  0  0  0
  151.0611  139.8720  155.1899 H   0  0  0  0  0  0  0  0  0  0  0  0
  152.6548  139.6668  154.4896 H   0  0  0  0  0  0  0  0  0  0  0  0
  152.4591  137.2031  154.5749 H   0  0  0  0  0  0  0  0  0  0  0  0
  151.0863  137.8767  153.7220 H   0  0  0  0  0  0  0  0  0  0  0  0
  147.1586  135.0524  154.0061 H   0  0  0  0  0  0  0  0  0  0  0  0
  1  2  1  0  0  0  0
  1 21  1  0  0  0  0
  1 22  1  0  0  0  0
  1 23  1  0  0  0  0
  2  3  1  0  0  0  0
  2  4  1  0  0  0  0
  2 24  1  0  0  0  0
  3 25  1  0  0  0  0
  3 26  1  0  0  0  0
  3 27  1  0  0  0  0
  4  5  1  0  0  0  0
  4 28  1  0  0  0  0
  4 29  1  0  0  0  0
  5  6  2  0  0  0  0
  5  7  1  0  0  0  0
  7  8  1  0  0  0  0
  7 30  1  0  0  0  0
  8  9  1  0  0  0  0
  8 31  1  0  0  0  0
  8 32  1  0  0  0  0
  9 20  1  0  0  0  0
  9 10  2  0  0  0  0
 10 11  1  0  0  0  0
 10 33  1  0  0  0  0
 11 12  2  0  0  0  0
 11 34  1  0  0  0  0
 12 13  1  0  0  0  0
 12 19  1  0  0  0  0
 13 18  1  0  0  0  0
 13 14  1  0  0  0  0
 14 15  1  0  0  0  0
 14 35  1  0  0  0  0
 14 36  1  0  0  0  0
 15 16  1  0  0  0  0
 15 37  1  0  0  0  0
 15 38  1  0  0  0  0
 16 17  1  0  0  0  0
 17 18  1  0  0  0  0
 17 39  1  0  0  0  0
 17 40  1  0  0  0  0
 18 41  1  0  0  0  0
 18 42  1  0  0  0  0
 19 20  2  0  0  0  0
 20 43  1  0  0  0  0
M  END
> <s_m_source_file>
AV-unprocessed.smi

> <i_m_source_file_index>
453

> <i_lp_mmshare_version>
43012

> <i_f3d_flags>
0

> <s_epik_input>
W0NIM11bQ0hdKFtDSDNdKVtDSDJdQyg9TylbTkhdW0NIMl1jMVtjSF1bY0hdYyhuW2NIXTEpTjJbQ0gyXVtDSDJdT1tDSDJdW0NIMl0y

> <s_epik_cmdline>
J2VwaWtfcHl0aG9uJywgJy1waCcsICc3LjAnLCAnLXRuJywgJzgnLCAnLW1hJywgJzIwMCcsICctbWV0YWxfYmluZGluZycsICctaW1hZScsICc8aW5maWxlLm1hZT4nLCAnLW9tYWUnLCAnPG91dGZpbGUubWFlPic=

> <r_lp_tautomer_probability>
1

> <r_epik_Ionization_Penalty>
0.00505548

> <r_epik_Ionization_Penalty_Charging>
0

> <r_epik_Ionization_Penalty_Neutral>
0.00505548

> <r_epik_State_Penalty>
0.00367784

> <r_epik_Charging_Adjusted_Penalty>
0.00367784

> <i_epik_Tot_Q>
0

> <i_epik_Tot_abs_Q>
0

> <r_epik_Metal_State_Penalty>
-0

> <b_epik_Metal_Only>
0

> <s_lp_Force_Field>
OPLS_2005

> <r_lp_Energy>
17.3119

> <b_lp_Chiralities_Consistent>
1

> <s_lp_Variant>
AV-unprocessed.smi:453-1

> <Gold.Version>
5.8.1

> <Gold.Id.Protein>
6NUR|6NUR_protein|mol2

> <Gold.PLP.Fitness>
34.9146

> <Gold.PLP.PLP>
-30.9507

> <Gold.PLP.part.hbond>
-1.7135

> <Gold.PLP.part.metal>
0.0000

> <Gold.PLP.part.buried>
-2.8887

> <Gold.PLP.part.nonpolar>
-26.7062

> <Gold.PLP.part.repulsive>
1.6158

> <Gold.PLP.ligand.clash>
0.0000

> <Gold.PLP.ligand.torsion>
0.8272

> <Gold.PLP.Chemscore.Hbond>
1.7550

> <Gold.PLP.Chemscore.CHOScore>
0.0000

> <Gold.PLP.Chemscore.Metal>
0.0000

> <Gold.Chemscore.Hbonds>
donor molecule, donor type, donor heavy atom, donor atom, acceptor molecule, acceptor atom, score
      L1  H     7    30       P1 10747  0.75
      P1  H  7997  8008       L1    16  0.91

> <Gold.PLP.Chemscore.Internal.Correction>
0.3533

> <Gold.Rescore>
     Score         DG    S(hbond)    S(metal)    S(lipo)     H(rot)  DE(clash)    DE(int)     intcor
     14.81     -17.68       1.89        0.00      86.43       1.65       1.90       0.97       ----

> <Gold.Chemscore.Fitness>
14.8094

> <Gold.Chemscore.DG>
-17.6757

> <Gold.Chemscore.ZeroCoef>
-5.4800

> <Gold.Chemscore.Hbond>
1.8876

> <Gold.Chemscore.Metal>
0.0000

> <Gold.Chemscore.Lipo>
86.4280

> <Gold.Chemscore.Internal_Hbond>
0.0000

> <Gold.Chemscore.DEClash>
1.8997

> <Gold.Chemscore.DEInternal>
0.9666

> <Gold.Chemscore.Rot>
1.6488

> <Gold.Chemscore.Internal.Correction>
   9.000000E+99

> <Gold.Chemscore.Hbonds>
donor molecule, donor type, donor heavy atom, donor atom, acceptor molecule, acceptor atom, score
      L1  H     7    30       P1 10747  0.75
      P1  H  7997  8008       L1    16  0.73

> <Gold.Chemscore.Hbond.Weighted>
-6.3045

> <Gold.Chemscore.Metal.Weighted>
-0.0000

> <Gold.Chemscore.Lipo.Weighted>
-10.1121

> <Gold.Chemscore.Internal_Hbond.Weighted>
0.0000

> <Gold.Chemscore.DEClash.Weighted>
1.8997

> <Gold.Chemscore.DEInternal.Weighted>
0.9666

> <Gold.Chemscore.Rot.Weighted>
4.2208

> <Gold.Chemscore.Internal.Correction.Weighted>
   9.000000E+99

> <Gold.Protein.RotatedTorsions>
[ 6907 6896 6895 6894 ] final  -10.20 input  -60.11 | X-H torsion
[ 7974 7965 7964 7962 ] final   38.39 input  175.53 | X-H torsion
[ 8008 7997 7996 7995 ] final  -55.73 input   59.86 | X-H torsion
[ 10167 10162 10161 10158 ] final  134.11 input  -65.29 | X-H torsion
[ 10718 10713 10712 10709 ] final  176.51 input   66.30 | X-H torsion
[ 10763 10752 10751 10750 ] final -110.66 input  -60.55 | X-H torsion
[ 11005 11000 10999 10996 ] final   40.39 input  -57.11 | X-H torsion

> <Gold.Protein.ActiveResidues>
 VAL166  LYS551  ARG553  GLY616  TRP617  ASP618  TYR619  PRO620  LYS621  CYS622 
 ASP623  PHE694  ASN695  SER759  ASP760  ASP761  ALA762  ILE779  LEU786  VAL792 
 PHE793  MET794  SER795  GLU796  ALA797  LYS798  CYS799  TRP800  GLU811  SER814 

> <Gold.Protein.RotatedAtoms>
  151.4057  135.0977  159.9569 H   0  0  0  0  0  0  0  0  0  0  0  0  # atno 6907 bound_to 6896
  152.5036  133.8845  159.7373 H   0  0  0  0  0  0  0  0  0  0  0  0  # atno 6908 bound_to 6896
  150.9329  133.6689  159.2835 H   0  0  0  0  0  0  0  0  0  0  0  0  # atno 6909 bound_to 6896
  146.1065  139.5777  142.9380 H   0  0  0  0  0  0  0  0  0  0  0  0  # atno 7974 bound_to 7965
  154.4205  140.1146  156.5524 H   0  0  0  0  0  0  0  0  0  0  0  0  # atno 8008 bound_to 7997
  155.6396  140.3496  155.4691 H   0  0  0  0  0  0  0  0  0  0  0  0  # atno 8009 bound_to 7997
  155.9881  140.1174  157.0653 H   0  0  0  0  0  0  0  0  0  0  0  0  # atno 8010 bound_to 7997
  139.5269  144.6583  151.5092 H   0  0  0  0  0  0  0  0  0  0  0  0  # atno 10167 bound_to 10162
  156.9191  130.9934  151.3007 H   0  0  0  0  0  0  0  0  0  0  0  0  # atno 10718 bound_to 10713
  154.8260  135.4556  154.0920 H   0  0  0  0  0  0  0  0  0  0  0  0  # atno 10763 bound_to 10752
  153.2234  135.6897  153.7980 H   0  0  0  0  0  0  0  0  0  0  0  0  # atno 10764 bound_to 10752
  153.7389  135.3315  155.3277 H   0  0  0  0  0  0  0  0  0  0  0  0  # atno 10765 bound_to 10752
  140.1935  134.3957  155.8134 H   0  0  0  0  0  0  0  0  0  0  0  0  # atno 11005 bound_to 11000
  145.5750  141.0389  143.2153 LP  0  0  0  0  0  0  0  0  0  0  0  0  # atno 17320 bound_to 7965
  144.7475  139.7281  143.7286 LP  0  0  0  0  0  0  0  0  0  0  0  0  # atno 17321 bound_to 7965
  140.6419  143.8871  150.6700 LP  0  0  0  0  0  0  0  0  0  0  0  0  # atno 17342 bound_to 10162
  140.2208  143.3810  152.1644 LP  0  0  0  0  0  0  0  0  0  0  0  0  # atno 17343 bound_to 10162
  157.5919  130.8450  149.8672 LP  0  0  0  0  0  0  0  0  0  0  0  0  # atno 17370 bound_to 10713
  156.0499  130.3720  150.1225 LP  0  0  0  0  0  0  0  0  0  0  0  0  # atno 17371 bound_to 10713
  141.2226  133.7058  156.8136 LP  0  0  0  0  0  0  0  0  0  0  0  0  # atno 17394 bound_to 11000
  140.2133  134.8811  157.3298 LP  0  0  0  0  0  0  0  0  0  0  0  0  # atno 17395 bound_to 11000

$$$$
