AV-unprocessed.smi:3265|AV-procd|sdf|12497|dock6
  -GOLD-   2272018403D 1   1.00000     0.00000
 Structure written by MMmdl.
 41 42  0  0  0  0  0  0  0  0  2 V2000
  143.6251  132.4699  148.9882 C   0  0  0  0  0  0  0  0  0  0  0  0
  143.7183  132.7135  150.5047 C   0  0  1  0  0  0  0  0  0  0  0  0
  144.6766  131.7349  151.2082 C   0  0  0  0  0  0  0  0  0  0  0  0
  146.1422  132.0826  150.9122 C   0  0  0  0  0  0  0  0  0  0  0  0
  146.4382  133.5535  151.2446 C   0  0  0  0  0  0  0  0  0  0  0  0
  145.5171  134.4654  150.5182 N   0  3  2  0  0  0  0  0  0  0  0  0
  145.8815  135.8923  150.7068 C   0  0  0  0  0  0  0  0  0  0  0  0
  145.2239  136.5105  151.9552 C   0  0  0  0  0  0  0  0  0  0  0  0
  146.2184  137.0960  152.8452 N   0  0  0  0  0  0  0  0  0  0  0  0
  147.0041  138.1438  152.5438 C   0  0  0  0  0  0  0  0  0  0  0  0
  146.9781  138.7032  151.4479 O   0  0  0  0  0  0  0  0  0  0  0  0
  147.9866  138.6320  153.6173 C   0  0  0  0  0  0  0  0  0  0  0  0
  147.8302  140.0421  153.9402 N   0  0  0  0  0  0  0  0  0  0  0  0
  146.8236  140.9023  153.5527 C   0  0  0  0  0  0  0  0  0  0  0  0
  147.1039  142.1252  154.0914 C   0  0  0  0  0  0  0  0  0  0  0  0
  148.3154  141.9104  154.8061 C   0  0  0  0  0  0  0  0  0  0  0  0
  148.7474  140.6629  154.7144 N   0  0  0  0  0  0  0  0  0  0  0  0
  144.0932  134.1722  150.8394 C   0  0  0  0  0  0  0  0  0  0  0  0
  144.5761  132.6491  148.4864 H   0  0  0  0  0  0  0  0  0  0  0  0
  142.8847  133.1271  148.5313 H   0  0  0  0  0  0  0  0  0  0  0  0
  143.3259  131.4434  148.7744 H   0  0  0  0  0  0  0  0  0  0  0  0
  142.7199  132.5332  150.9055 H   0  0  0  0  0  0  0  0  0  0  0  0
  144.5110  131.7831  152.2853 H   0  0  0  0  0  0  0  0  0  0  0  0
  144.4626  130.7074  150.9124 H   0  0  0  0  0  0  0  0  0  0  0  0
  146.7999  131.4325  151.4898 H   0  0  0  0  0  0  0  0  0  0  0  0
  146.3679  131.8887  149.8631 H   0  0  0  0  0  0  0  0  0  0  0  0
  146.3480  133.7238  152.3189 H   0  0  0  0  0  0  0  0  0  0  0  0
  147.4709  133.7766  150.9740 H   0  0  0  0  0  0  0  0  0  0  0  0
  146.9670  135.9954  150.7485 H   0  0  0  0  0  0  0  0  0  0  0  0
  145.5527  136.4572  149.8334 H   0  0  0  0  0  0  0  0  0  0  0  0
  144.4877  137.2640  151.6687 H   0  0  0  0  0  0  0  0  0  0  0  0
  144.6878  135.7562  152.5292 H   0  0  0  0  0  0  0  0  0  0  0  0
  146.3002  136.6947  153.7685 H   0  0  0  0  0  0  0  0  0  0  0  0
  147.8437  138.0447  154.5249 H   0  0  0  0  0  0  0  0  0  0  0  0
  149.0116  138.4610  153.2845 H   0  0  0  0  0  0  0  0  0  0  0  0
  146.0023  140.5770  152.9309 H   0  0  0  0  0  0  0  0  0  0  0  0
  146.5301  143.0346  153.9919 H   0  0  0  0  0  0  0  0  0  0  0  0
  148.8899  142.6191  155.3840 H   0  0  0  0  0  0  0  0  0  0  0  0
  143.4276  134.8427  150.2973 H   0  0  0  0  0  0  0  0  0  0  0  0
  143.9238  134.3614  151.9006 H   0  0  0  0  0  0  0  0  0  0  0  0
  145.6444  134.2669  149.5360 H   0  0  0  0  0  0  0  0  0  0  0  0
  1  2  1  0  0  0  0
  1 19  1  0  0  0  0
  1 20  1  0  0  0  0
  1 21  1  0  0  0  0
  2 18  1  0  0  0  0
  2  3  1  0  0  0  0
  2 22  1  0  0  0  0
  3  4  1  0  0  0  0
  3 23  1  0  0  0  0
  3 24  1  0  0  0  0
  4  5  1  0  0  0  0
  4 25  1  0  0  0  0
  4 26  1  0  0  0  0
  5  6  1  0  0  0  0
  5 27  1  0  0  0  0
  5 28  1  0  0  0  0
  6  7  1  0  0  0  0
  6 18  1  0  0  0  0
  6 41  1  0  0  0  0
  7  8  1  0  0  0  0
  7 29  1  0  0  0  0
  7 30  1  0  0  0  0
  8  9  1  0  0  0  0
  8 31  1  0  0  0  0
  8 32  1  0  0  0  0
  9 10  1  0  0  0  0
  9 33  1  0  0  0  0
 10 11  2  0  0  0  0
 10 12  1  0  0  0  0
 12 13  1  0  0  0  0
 12 34  1  0  0  0  0
 12 35  1  0  0  0  0
 13 17  1  0  0  0  0
 13 14  1  0  0  0  0
 14 15  2  0  0  0  0
 14 36  1  0  0  0  0
 15 16  1  0  0  0  0
 15 37  1  0  0  0  0
 16 17  2  0  0  0  0
 16 38  1  0  0  0  0
 18 39  1  0  0  0  0
 18 40  1  0  0  0  0
M  CHG  1   6   1
M  END
> <s_m_source_file>
AV-unprocessed.smi

> <i_m_source_file_index>
3265

> <i_lp_mmshare_version>
43012

> <i_f3d_flags>
0

> <s_epik_input>
W0NIM11bQ0BASF0xW0NIMl1bQ0gyXVtDSDJdTihbQ0gyXTEpW0NIMl1bQ0gyXVtOSF1DKD1PKVtDSDJdbjJbY0hdW2NIXVtjSF1uMg==

> <s_epik_cmdline>
J2VwaWtfcHl0aG9uJywgJy1waCcsICc3LjAnLCAnLXRuJywgJzgnLCAnLW1hJywgJzIwMCcsICctbWV0YWxfYmluZGluZycsICctaW1hZScsICc8aW5maWxlLm1hZT4nLCAnLW9tYWUnLCAnPG91dGZpbGUubWFlPic=

> <r_lp_tautomer_probability>
1

> <r_epik_Ionization_Penalty>
0.00231455

> <r_epik_Ionization_Penalty_Charging>
0.00230623

> <r_epik_Ionization_Penalty_Neutral>
8.31727e-06

> <r_epik_State_Penalty>
0.00159065

> <r_epik_Charging_Adjusted_Penalty>
0.00389688

> <i_epik_Tot_Q>
1

> <i_epik_Tot_abs_Q>
1

> <r_epik_Metal_State_Penalty>
-0

> <b_epik_Metal_Only>
0

> <s_lp_Force_Field>
OPLS_2005

> <r_lp_Energy>
19.1739

> <b_lp_Chiralities_Consistent>
1

> <s_lp_Variant>
AV-unprocessed.smi:3265-2

> <Gold.Version>
5.8.1

> <Gold.Id.Protein>
6NUR|6NUR_protein|mol2

> <Gold.PLP.Fitness>
41.8458

> <Gold.PLP.PLP>
-31.3254

> <Gold.PLP.part.hbond>
-3.0000

> <Gold.PLP.part.metal>
0.0000

> <Gold.PLP.part.buried>
3.2838

> <Gold.PLP.part.nonpolar>
-33.3858

> <Gold.PLP.part.repulsive>
2.0650

> <Gold.PLP.ligand.clash>
0.0000

> <Gold.PLP.ligand.torsion>
0.7546

> <Gold.PLP.Chemscore.Hbond>
2.0000

> <Gold.PLP.Chemscore.CHOScore>
2.0000

> <Gold.PLP.Chemscore.Metal>
0.0000

> <Gold.Chemscore.Hbonds>
donor molecule, donor type, donor heavy atom, donor atom, acceptor molecule, acceptor atom, score
      L1  H     6    41       P1  7921  0.99
      P1  H  7954  7966       L1    11  0.78
      L1  C    14    36       P1 10175  1.00
      L1  C    16    38       P1  8028  1.00

> <Gold.PLP.Chemscore.Internal.Correction>
0.0296

> <Gold.Rescore>
     Score         DG    S(hbond)    S(metal)    S(lipo)     H(rot)  DE(clash)    DE(int)     intcor
     13.22     -17.21       1.65        0.00      93.39       1.84       3.22       0.77       ----

> <Gold.Chemscore.Fitness>
13.2188

> <Gold.Chemscore.DG>
-17.2118

> <Gold.Chemscore.ZeroCoef>
-5.4800

> <Gold.Chemscore.Hbond>
1.6503

> <Gold.Chemscore.Metal>
0.0000

> <Gold.Chemscore.Lipo>
93.3908

> <Gold.Chemscore.Internal_Hbond>
0.0000

> <Gold.Chemscore.DEClash>
3.2202

> <Gold.Chemscore.DEInternal>
0.7728

> <Gold.Chemscore.Rot>
1.8386

> <Gold.Chemscore.Internal.Correction>
   9.000000E+99

> <Gold.Chemscore.Hbonds>
donor molecule, donor type, donor heavy atom, donor atom, acceptor molecule, acceptor atom, score
      L1  H     6    41       P1  7921  0.66
      P1  H  7954  7966       L1    11  0.71

> <Gold.Chemscore.Hbond.Weighted>
-5.5120

> <Gold.Chemscore.Metal.Weighted>
-0.0000

> <Gold.Chemscore.Lipo.Weighted>
-10.9267

> <Gold.Chemscore.Internal_Hbond.Weighted>
0.0000

> <Gold.Chemscore.DEClash.Weighted>
3.2202

> <Gold.Chemscore.DEInternal.Weighted>
0.7728

> <Gold.Chemscore.Rot.Weighted>
4.7069

> <Gold.Chemscore.Internal.Correction.Weighted>
   9.000000E+99

> <Gold.Protein.RotatedTorsions>
[ 6907 6896 6895 6894 ] final  -21.96 input  -60.11 | X-H torsion
[ 7974 7965 7964 7962 ] final   95.70 input  175.53 | X-H torsion
[ 8008 7997 7996 7995 ] final -154.62 input   59.86 | X-H torsion
[ 10167 10162 10161 10158 ] final  -50.65 input  -65.29 | X-H torsion
[ 10718 10713 10712 10709 ] final -166.51 input   66.30 | X-H torsion
[ 10763 10752 10751 10750 ] final -149.87 input  -60.55 | X-H torsion
[ 11005 11000 10999 10996 ] final   71.13 input  -57.11 | X-H torsion

> <Gold.Protein.ActiveResidues>
 VAL166  LYS551  ARG553  GLY616  TRP617  ASP618  TYR619  PRO620  LYS621  CYS622 
 ASP623  PHE694  ASN695  SER759  ASP760  ASP761  ALA762  ILE779  LEU786  VAL792 
 PHE793  MET794  SER795  GLU796  ALA797  LYS798  CYS799  TRP800  GLU811  SER814 

> <Gold.Protein.RotatedAtoms>
  151.2256  135.0535  159.8966 H   0  0  0  0  0  0  0  0  0  0  0  0  # atno 6907 bound_to 6896
  152.5410  134.0593  159.8155 H   0  0  0  0  0  0  0  0  0  0  0  0  # atno 6908 bound_to 6896
  151.0765  133.5375  159.2655 H   0  0  0  0  0  0  0  0  0  0  0  0  # atno 6909 bound_to 6896
  145.4487  139.2295  143.3052 H   0  0  0  0  0  0  0  0  0  0  0  0  # atno 7974 bound_to 7965
  155.6892  140.0753  157.2455 H   0  0  0  0  0  0  0  0  0  0  0  0  # atno 8008 bound_to 7997
  154.4092  140.1668  156.2120 H   0  0  0  0  0  0  0  0  0  0  0  0  # atno 8009 bound_to 7997
  155.9467  140.3380  155.6376 H   0  0  0  0  0  0  0  0  0  0  0  0  # atno 8010 bound_to 7997
  140.6627  143.2649  151.4390 H   0  0  0  0  0  0  0  0  0  0  0  0  # atno 10167 bound_to 10162
  156.6689  130.9076  151.3040 H   0  0  0  0  0  0  0  0  0  0  0  0  # atno 10718 bound_to 10713
  154.8152  135.3298  154.7195 H   0  0  0  0  0  0  0  0  0  0  0  0  # atno 10763 bound_to 10752
  153.7837  135.6916  153.4888 H   0  0  0  0  0  0  0  0  0  0  0  0  # atno 10764 bound_to 10752
  153.1963  135.4532  155.0159 H   0  0  0  0  0  0  0  0  0  0  0  0  # atno 10765 bound_to 10752
  139.9560  134.7143  156.0752 H   0  0  0  0  0  0  0  0  0  0  0  0  # atno 11005 bound_to 11000
  146.2516  140.5244  142.8891 LP  0  0  0  0  0  0  0  0  0  0  0  0  # atno 17320 bound_to 7965
  144.8075  140.6326  143.6437 LP  0  0  0  0  0  0  0  0  0  0  0  0  # atno 17321 bound_to 7965
  139.5866  144.1592  152.2036 LP  0  0  0  0  0  0  0  0  0  0  0  0  # atno 17342 bound_to 10162
  140.0933  144.5602  150.7039 LP  0  0  0  0  0  0  0  0  0  0  0  0  # atno 17343 bound_to 10162
  157.7084  130.9411  150.1007 LP  0  0  0  0  0  0  0  0  0  0  0  0  # atno 17370 bound_to 10713
  156.1954  130.3657  149.8856 LP  0  0  0  0  0  0  0  0  0  0  0  0  # atno 17371 bound_to 10713
  141.1231  133.6607  156.3267 LP  0  0  0  0  0  0  0  0  0  0  0  0  # atno 17394 bound_to 11000
  140.5608  134.5936  157.5433 LP  0  0  0  0  0  0  0  0  0  0  0  0  # atno 17395 bound_to 11000

$$$$
