AV-unprocessed.smi:282|AV-procd|sdf|2119|dock4
  -GOLD-   2262021413D 1   1.00000     0.00000
 Structure written by MMmdl.
 65 69  0  0  0  0  0  0  0  0  2 V2000
  147.1205  132.2573  155.6308 C   0  0  0  0  0  0  0  0  0  0  0  0
  148.2059  133.2868  155.2872 C   0  0  0  0  0  0  0  0  0  0  0  0
  148.2180  133.7315  153.8001 C   0  0  2  0  0  0  0  0  0  0  0  0
  146.7938  134.1080  153.3280 C   0  0  0  0  0  0  0  0  0  0  0  0
  146.7484  134.4495  151.8824 N   0  3  2  0  0  0  0  0  0  0  0  0
  145.4047  134.8809  151.4151 C   0  0  0  0  0  0  0  0  0  0  0  0
  144.4337  133.6939  151.2604 C   0  0  0  0  0  0  0  0  0  0  0  0
  145.0281  132.6069  150.3536 C   0  0  0  0  0  0  0  0  0  0  0  0
  146.4146  132.1833  150.8601 C   0  0  0  0  0  0  0  0  0  0  0  0
  147.3460  133.4069  151.0038 C   0  0  2  0  0  0  0  0  0  0  0  0
  148.7564  133.0325  151.4878 C   0  0  0  0  0  0  0  0  0  0  0  0
  148.7755  132.7033  152.9104 N   0  0  0  0  0  0  0  0  0  0  0  0
  149.9772  132.2012  153.2737 C   0  0  0  0  0  0  0  0  0  0  0  0
  150.7089  132.8157  154.2401 N   0  0  0  0  0  0  0  0  0  0  0  0
  151.8905  132.3059  154.6027 C   0  0  0  0  0  0  0  0  0  0  0  0
  152.5088  131.2171  154.1380 N   0  0  0  0  0  0  0  0  0  0  0  0
  151.7717  130.6015  153.1687 C   0  0  0  0  0  0  0  0  0  0  0  0
  150.5042  131.0246  152.6828 C   0  0  0  0  0  0  0  0  0  0  0  0
  150.0464  130.1499  151.7074 N   0  0  0  0  0  0  0  0  0  0  0  0
  150.9908  129.2529  151.6241 C   0  0  0  0  0  0  0  0  0  0  0  0
  152.0728  129.4548  152.4532 N   0  0  0  0  0  0  0  0  0  0  0  0
  153.2530  128.6098  152.5690 C   0  0  0  0  0  0  0  0  0  0  0  0
  153.8811  128.1559  151.2133 C   0  0  0  0  0  0  0  0  0  0  0  0
  152.8859  127.1937  150.5062 C   0  0  0  0  0  0  0  0  0  0  0  0
  153.3162  126.7843  149.2228 O   0  0  0  0  0  0  0  0  0  0  0  0
  154.1349  129.4069  150.3329 C   0  0  0  0  0  0  0  0  0  0  0  0
  155.2999  130.2729  150.8512 C   0  0  0  0  0  0  0  0  0  0  0  0
  156.4801  129.4882  150.9744 O   0  0  0  0  0  0  0  0  0  0  0  0
  156.3417  128.4142  151.8966 C   0  0  0  0  0  0  0  0  0  0  0  0
  155.2467  127.4478  151.4111 C   0  0  0  0  0  0  0  0  0  0  0  0
  147.0932  132.0748  156.7053 H   0  0  0  0  0  0  0  0  0  0  0  0
  147.3013  131.2980  155.1467 H   0  0  0  0  0  0  0  0  0  0  0  0
  146.1336  132.6102  155.3303 H   0  0  0  0  0  0  0  0  0  0  0  0
  148.0367  134.1458  155.9368 H   0  0  0  0  0  0  0  0  0  0  0  0
  149.1837  132.8895  155.5630 H   0  0  0  0  0  0  0  0  0  0  0  0
  148.8500  134.6165  153.7115 H   0  0  0  0  0  0  0  0  0  0  0  0
  146.1112  133.2842  153.5378 H   0  0  0  0  0  0  0  0  0  0  0  0
  146.4279  134.9679  153.8885 H   0  0  0  0  0  0  0  0  0  0  0  0
  144.9927  135.6256  152.0968 H   0  0  0  0  0  0  0  0  0  0  0  0
  145.5215  135.3802  150.4525 H   0  0  0  0  0  0  0  0  0  0  0  0
  144.1978  133.2700  152.2368 H   0  0  0  0  0  0  0  0  0  0  0  0
  143.4872  134.0430  150.8462 H   0  0  0  0  0  0  0  0  0  0  0  0
  144.3619  131.7447  150.3127 H   0  0  0  0  0  0  0  0  0  0  0  0
  145.1102  132.9854  149.3339 H   0  0  0  0  0  0  0  0  0  0  0  0
  146.3152  131.6641  151.8140 H   0  0  0  0  0  0  0  0  0  0  0  0
  146.8508  131.4631  150.1670 H   0  0  0  0  0  0  0  0  0  0  0  0
  147.4549  133.8482  150.0117 H   0  0  0  0  0  0  0  0  0  0  0  0
  149.1413  132.1960  150.9019 H   0  0  0  0  0  0  0  0  0  0  0  0
  149.4287  133.8735  151.3112 H   0  0  0  0  0  0  0  0  0  0  0  0
  152.4147  132.8460  155.3773 H   0  0  0  0  0  0  0  0  0  0  0  0
  150.9250  128.4143  150.9462 H   0  0  0  0  0  0  0  0  0  0  0  0
  153.9962  129.1533  153.1542 H   0  0  0  0  0  0  0  0  0  0  0  0
  152.9740  127.7566  153.1849 H   0  0  0  0  0  0  0  0  0  0  0  0
  152.7339  126.2908  151.0973 H   0  0  0  0  0  0  0  0  0  0  0  0
  151.9103  127.6688  150.3988 H   0  0  0  0  0  0  0  0  0  0  0  0
  152.9762  127.3917  148.5834 H   0  0  0  0  0  0  0  0  0  0  0  0
  154.3833  129.1069  149.3146 H   0  0  0  0  0  0  0  0  0  0  0  0
  153.2289  130.0087  150.2544 H   0  0  0  0  0  0  0  0  0  0  0  0
  155.4965  131.0831  150.1489 H   0  0  0  0  0  0  0  0  0  0  0  0
  155.0623  130.7448  151.8046 H   0  0  0  0  0  0  0  0  0  0  0  0
  157.2947  127.8892  151.9625 H   0  0  0  0  0  0  0  0  0  0  0  0
  156.1283  128.7984  152.8943 H   0  0  0  0  0  0  0  0  0  0  0  0
  155.1588  126.6001  152.0893 H   0  0  0  0  0  0  0  0  0  0  0  0
  155.5839  127.0253  150.4640 H   0  0  0  0  0  0  0  0  0  0  0  0
  147.3454  135.2591  151.7892 H   0  0  0  0  0  0  0  0  0  0  0  0
  1  2  1  0  0  0  0
  1 31  1  0  0  0  0
  1 32  1  0  0  0  0
  1 33  1  0  0  0  0
  2  3  1  0  0  0  0
  2 34  1  0  0  0  0
  2 35  1  0  0  0  0
  3 12  1  0  0  0  0
  3  4  1  0  0  0  0
  3 36  1  0  0  0  0
  4  5  1  0  0  0  0
  4 37  1  0  0  0  0
  4 38  1  0  0  0  0
  5 10  1  0  0  0  0
  5  6  1  0  0  0  0
  5 65  1  0  0  0  0
  6  7  1  0  0  0  0
  6 39  1  0  0  0  0
  6 40  1  0  0  0  0
  7  8  1  0  0  0  0
  7 41  1  0  0  0  0
  7 42  1  0  0  0  0
  8  9  1  0  0  0  0
  8 43  1  0  0  0  0
  8 44  1  0  0  0  0
  9 10  1  0  0  0  0
  9 45  1  0  0  0  0
  9 46  1  0  0  0  0
 10 11  1  0  0  0  0
 10 47  1  0  0  0  0
 11 12  1  0  0  0  0
 11 48  1  0  0  0  0
 11 49  1  0  0  0  0
 12 13  1  0  0  0  0
 13 18  1  0  0  0  0
 13 14  2  0  0  0  0
 14 15  1  0  0  0  0
 15 16  2  0  0  0  0
 15 50  1  0  0  0  0
 16 17  1  0  0  0  0
 17 21  1  0  0  0  0
 17 18  2  0  0  0  0
 18 19  1  0  0  0  0
 19 20  2  0  0  0  0
 20 21  1  0  0  0  0
 20 51  1  0  0  0  0
 21 22  1  0  0  0  0
 22 23  1  0  0  0  0
 22 52  1  0  0  0  0
 22 53  1  0  0  0  0
 23 30  1  0  0  0  0
 23 24  1  0  0  0  0
 23 26  1  0  0  0  0
 24 25  1  0  0  0  0
 24 54  1  0  0  0  0
 24 55  1  0  0  0  0
 25 56  1  0  0  0  0
 26 27  1  0  0  0  0
 26 57  1  0  0  0  0
 26 58  1  0  0  0  0
 27 28  1  0  0  0  0
 27 59  1  0  0  0  0
 27 60  1  0  0  0  0
 28 29  1  0  0  0  0
 29 30  1  0  0  0  0
 29 61  1  0  0  0  0
 29 62  1  0  0  0  0
 30 63  1  0  0  0  0
 30 64  1  0  0  0  0
M  CHG  1   5   1
M  END
> <s_m_source_file>
AV-unprocessed.smi

> <i_m_source_file_index>
282

> <i_lp_mmshare_version>
43012

> <i_f3d_flags>
0

> <s_epik_input>
W0NIMl0xW0NIMl1bQ0gyXVtDSDJdW0NAQEhdKE4xMilbQ0gyXU4oW0NAQEhdKFtDSDJdMilbQ0gyXVtDSDNdKWMobltjSF1uMyljKGMzNCluW2NIXW40W0NIMl1DNShbQ0gyXVtPSF0pW0NIMl1bQ0gyXU9bQ0gyXVtDSDJdNQ==

> <s_epik_cmdline>
J2VwaWtfcHl0aG9uJywgJy1waCcsICc3LjAnLCAnLXRuJywgJzgnLCAnLW1hJywgJzIwMCcsICctbWV0YWxfYmluZGluZycsICctaW1hZScsICc8aW5maWxlLm1hZT4nLCAnLW9tYWUnLCAnPG91dGZpbGUubWFlPic=

> <r_lp_tautomer_probability>
1

> <r_epik_Ionization_Penalty>
0.00308583

> <r_epik_Ionization_Penalty_Charging>
0.00300384

> <r_epik_Ionization_Penalty_Neutral>
8.19894e-05

> <r_epik_State_Penalty>
-0

> <r_epik_Charging_Adjusted_Penalty>
0.00300384

> <i_epik_Tot_Q>
1

> <i_epik_Tot_abs_Q>
1

> <r_epik_Metal_State_Penalty>
-0

> <b_epik_Metal_Only>
0

> <s_lp_Force_Field>
OPLS_2005

> <r_lp_Energy>
60.5871

> <b_lp_Chiralities_Consistent>
1

> <s_lp_Variant>
AV-unprocessed.smi:282-3

> <Gold.Version>
5.8.1

> <Gold.Id.Protein>
6NUR|6NUR_protein|mol2

> <Gold.PLP.Fitness>
48.0977

> <Gold.PLP.PLP>
-39.7860

> <Gold.PLP.part.hbond>
-2.0000

> <Gold.PLP.part.metal>
0.0000

> <Gold.PLP.part.buried>
-4.7759

> <Gold.PLP.part.nonpolar>
-33.9115

> <Gold.PLP.part.repulsive>
0.2421

> <Gold.PLP.ligand.clash>
0.0000

> <Gold.PLP.ligand.torsion>
0.4773

> <Gold.PLP.Chemscore.Hbond>
3.0000

> <Gold.PLP.Chemscore.CHOScore>
0.0000

> <Gold.PLP.Chemscore.Metal>
0.0000

> <Gold.Chemscore.Hbonds>
donor molecule, donor type, donor heavy atom, donor atom, acceptor molecule, acceptor atom, score
      L1  H     5    65       P1  7948  2.00

> <Gold.PLP.Chemscore.Internal.Correction>
0.2663

> <Gold.Rescore>
     Score         DG    S(hbond)    S(metal)    S(lipo)     H(rot)  DE(clash)    DE(int)     intcor
     13.17     -15.32       1.96        0.00      81.95       2.46       0.14       2.01       ----

> <Gold.Chemscore.Fitness>
13.1725

> <Gold.Chemscore.DG>
-15.3189

> <Gold.Chemscore.ZeroCoef>
-5.4800

> <Gold.Chemscore.Hbond>
1.9586

> <Gold.Chemscore.Metal>
0.0000

> <Gold.Chemscore.Lipo>
81.9536

> <Gold.Chemscore.Internal_Hbond>
0.0000

> <Gold.Chemscore.DEClash>
0.1385

> <Gold.Chemscore.DEInternal>
2.0079

> <Gold.Chemscore.Rot>
2.4576

> <Gold.Chemscore.Internal.Correction>
   9.000000E+99

> <Gold.Chemscore.Hbonds>
donor molecule, donor type, donor heavy atom, donor atom, acceptor molecule, acceptor atom, score
      L1  H     5    65       P1  7948  0.95

> <Gold.Chemscore.Hbond.Weighted>
-6.5419

> <Gold.Chemscore.Metal.Weighted>
-0.0000

> <Gold.Chemscore.Lipo.Weighted>
-9.5886

> <Gold.Chemscore.Internal_Hbond.Weighted>
0.0000

> <Gold.Chemscore.DEClash.Weighted>
0.1385

> <Gold.Chemscore.DEInternal.Weighted>
2.0079

> <Gold.Chemscore.Rot.Weighted>
6.2915

> <Gold.Chemscore.Internal.Correction.Weighted>
   9.000000E+99

> <Gold.Protein.RotatedTorsions>
[ 6907 6896 6895 6894 ] final  -82.33 input  -60.11 | X-H torsion
[ 7974 7965 7964 7962 ] final   13.31 input  175.53 | X-H torsion
[ 8008 7997 7996 7995 ] final  -86.60 input   59.86 | X-H torsion
[ 10167 10162 10161 10158 ] final -127.49 input  -65.29 | X-H torsion
[ 10718 10713 10712 10709 ] final  -58.93 input   66.30 | X-H torsion
[ 10763 10752 10751 10750 ] final   15.40 input  -60.55 | X-H torsion
[ 11005 11000 10999 10996 ] final   27.22 input  -57.11 | X-H torsion

> <Gold.Protein.ActiveResidues>
 VAL166  LYS551  ARG553  GLY616  TRP617  ASP618  TYR619  PRO620  LYS621  CYS622 
 ASP623  PHE694  ASN695  SER759  ASP760  ASP761  ALA762  ILE779  LEU786  VAL792 
 PHE793  MET794  SER795  GLU796  ALA797  LYS798  CYS799  TRP800  GLU811  SER814 

> <Gold.Protein.RotatedAtoms>
  150.6899  134.3681  159.4979 H   0  0  0  0  0  0  0  0  0  0  0  0  # atno 6907 bound_to 6896
  152.1501  134.8992  160.0558 H   0  0  0  0  0  0  0  0  0  0  0  0  # atno 6908 bound_to 6896
  152.0093  133.3820  159.4250 H   0  0  0  0  0  0  0  0  0  0  0  0  # atno 6909 bound_to 6896
  146.2332  139.9207  142.8510 H   0  0  0  0  0  0  0  0  0  0  0  0  # atno 7974 bound_to 7965
  154.6537  140.0576  156.9984 H   0  0  0  0  0  0  0  0  0  0  0  0  # atno 8008 bound_to 7997
  155.1333  140.3258  155.4450 H   0  0  0  0  0  0  0  0  0  0  0  0  # atno 8009 bound_to 7997
  156.2587  140.1977  156.6451 H   0  0  0  0  0  0  0  0  0  0  0  0  # atno 8010 bound_to 7997
  139.9604  143.5957  152.2447 H   0  0  0  0  0  0  0  0  0  0  0  0  # atno 10167 bound_to 10162
  156.1098  130.4176  150.0646 H   0  0  0  0  0  0  0  0  0  0  0  0  # atno 10718 bound_to 10713
  153.1529  135.6782  153.8855 H   0  0  0  0  0  0  0  0  0  0  0  0  # atno 10763 bound_to 10752
  153.8275  135.3122  155.3417 H   0  0  0  0  0  0  0  0  0  0  0  0  # atno 10764 bound_to 10752
  154.7876  135.4853  154.0067 H   0  0  0  0  0  0  0  0  0  0  0  0  # atno 10765 bound_to 10752
  140.3286  134.2463  155.7706 H   0  0  0  0  0  0  0  0  0  0  0  0  # atno 11005 bound_to 11000
  145.2139  140.9907  143.4084 LP  0  0  0  0  0  0  0  0  0  0  0  0  # atno 17320 bound_to 7965
  144.9667  139.3922  143.6329 LP  0  0  0  0  0  0  0  0  0  0  0  0  # atno 17321 bound_to 7965
  139.6559  144.7662  151.2057 LP  0  0  0  0  0  0  0  0  0  0  0  0  # atno 17342 bound_to 10162
  140.7555  143.6087  150.8627 LP  0  0  0  0  0  0  0  0  0  0  0  0  # atno 17343 bound_to 10162
  156.8612  130.9492  151.3618 LP  0  0  0  0  0  0  0  0  0  0  0  0  # atno 17370 bound_to 10713
  157.6278  130.8706  149.9221 LP  0  0  0  0  0  0  0  0  0  0  0  0  # atno 17371 bound_to 10713
  141.2069  133.7821  157.0151 LP  0  0  0  0  0  0  0  0  0  0  0  0  # atno 17394 bound_to 11000
  140.0880  134.9609  157.1731 LP  0  0  0  0  0  0  0  0  0  0  0  0  # atno 17395 bound_to 11000

$$$$
