AV-unprocessed.smi:1871|AV-procd|sdf|7601|dock8
  -GOLD-   22720 9313D 1   1.00000     0.00000
 Structure written by MMmdl.
 41 43  0  0  0  0  0  0  0  0  2 V2000
  149.5702  140.9800  153.7061 O   0  0  0  0  0  0  0  0  0  0  0  0
  149.1975  140.6652  155.0289 C   0  0  0  0  0  0  0  0  0  0  0  0
  150.1119  141.2790  156.0388 C   0  0  0  0  0  0  0  0  0  0  0  0
  150.2157  142.6133  156.2987 N   0  3  0  0  0  0  0  0  0  0  0  0
  151.1718  142.8304  157.2912 C   0  0  0  0  0  0  0  0  0  0  0  0
  151.6220  144.0071  157.8820 C   0  0  0  0  0  0  0  0  0  0  0  0
  152.6174  143.8771  158.8728 C   0  0  0  0  0  0  0  0  0  0  0  0
  153.1264  142.6146  159.2409 C   0  0  0  0  0  0  0  0  0  0  0  0
  152.6624  141.4287  158.6342 C   0  0  0  0  0  0  0  0  0  0  0  0
  151.6780  141.5665  157.6557 C   0  0  0  0  0  0  0  0  0  0  0  0
  150.9990  140.6393  156.8573 N   0  0  0  0  0  0  0  0  0  0  0  0
  151.3215  139.2102  157.0000 C   0  0  0  0  0  0  0  0  0  0  0  0
  150.2819  138.4397  157.8388 C   0  0  2  0  0  0  0  0  0  0  0  0
  150.6740  138.4301  159.1975 O   0  0  0  0  0  0  0  0  0  0  0  0
  150.0627  137.0387  157.2907 C   0  0  0  0  0  0  0  0  0  0  0  0
  149.1070  136.1784  157.8725 C   0  0  0  0  0  0  0  0  0  0  0  0
  148.9187  134.8792  157.3633 C   0  0  0  0  0  0  0  0  0  0  0  0
  149.6756  134.4214  156.2662 C   0  0  0  0  0  0  0  0  0  0  0  0
  149.4561  133.1367  155.8236 O   0  0  0  0  0  0  0  0  0  0  0  0
  149.3823  132.8970  154.4873 C   0  0  0  0  0  0  0  0  0  0  0  0
  149.3267  131.5639  154.2473 F   0  0  0  0  0  0  0  0  0  0  0  0
  148.2523  133.4500  153.9845 F   0  0  0  0  0  0  0  0  0  0  0  0
  150.6443  135.2803  155.6940 C   0  0  0  0  0  0  0  0  0  0  0  0
  150.8332  136.5800  156.2023 C   0  0  0  0  0  0  0  0  0  0  0  0
  149.3785  140.2373  153.1538 H   0  0  0  0  0  0  0  0  0  0  0  0
  148.1819  141.0218  155.2018 H   0  0  0  0  0  0  0  0  0  0  0  0
  149.1758  139.5827  155.1491 H   0  0  0  0  0  0  0  0  0  0  0  0
  151.2343  144.9753  157.6008 H   0  0  0  0  0  0  0  0  0  0  0  0
  152.9981  144.7631  159.3600 H   0  0  0  0  0  0  0  0  0  0  0  0
  153.8887  142.5542  160.0043 H   0  0  0  0  0  0  0  0  0  0  0  0
  153.0600  140.4668  158.9220 H   0  0  0  0  0  0  0  0  0  0  0  0
  151.4102  138.7789  156.0021 H   0  0  0  0  0  0  0  0  0  0  0  0
  152.3099  139.1279  157.4516 H   0  0  0  0  0  0  0  0  0  0  0  0
  149.3300  138.9701  157.7989 H   0  0  0  0  0  0  0  0  0  0  0  0
  151.5631  138.7451  159.2553 H   0  0  0  0  0  0  0  0  0  0  0  0
  148.5171  136.5101  158.7144 H   0  0  0  0  0  0  0  0  0  0  0  0
  148.1856  134.2291  157.8179 H   0  0  0  0  0  0  0  0  0  0  0  0
  150.2297  133.3274  153.9531 H   0  0  0  0  0  0  0  0  0  0  0  0
  151.2563  134.9516  154.8675 H   0  0  0  0  0  0  0  0  0  0  0  0
  151.5776  137.2219  155.7544 H   0  0  0  0  0  0  0  0  0  0  0  0
  149.6727  143.3222  155.8231 H   0  0  0  0  0  0  0  0  0  0  0  0
  1  2  1  0  0  0  0
  1 25  1  0  0  0  0
  2  3  1  0  0  0  0
  2 26  1  0  0  0  0
  2 27  1  0  0  0  0
  3 11  1  0  0  0  0
  3  4  2  0  0  0  0
  4  5  1  0  0  0  0
  4 41  1  0  0  0  0
  5 10  2  0  0  0  0
  5  6  1  0  0  0  0
  6  7  2  0  0  0  0
  6 28  1  0  0  0  0
  7  8  1  0  0  0  0
  7 29  1  0  0  0  0
  8  9  2  0  0  0  0
  8 30  1  0  0  0  0
  9 10  1  0  0  0  0
  9 31  1  0  0  0  0
 10 11  1  0  0  0  0
 11 12  1  0  0  0  0
 12 13  1  0  0  0  0
 12 32  1  0  0  0  0
 12 33  1  0  0  0  0
 13 14  1  0  0  0  0
 13 15  1  0  0  0  0
 13 34  1  0  0  0  0
 14 35  1  0  0  0  0
 15 24  1  0  0  0  0
 15 16  2  0  0  0  0
 16 17  1  0  0  0  0
 16 36  1  0  0  0  0
 17 18  2  0  0  0  0
 17 37  1  0  0  0  0
 18 19  1  0  0  0  0
 18 23  1  0  0  0  0
 19 20  1  0  0  0  0
 20 21  1  0  0  0  0
 20 22  1  0  0  0  0
 20 38  1  0  0  0  0
 23 24  2  0  0  0  0
 23 39  1  0  0  0  0
 24 40  1  0  0  0  0
M  CHG  1   4   1
M  END
> <s_m_source_file>
AV-unprocessed.smi

> <i_m_source_file_index>
1871

> <i_lp_mmshare_version>
43012

> <i_f3d_flags>
0

> <s_epik_input>
W2NIXTFbY0hdW2NIXVtjSF1jKGMxMiluKGMobjIpW0NIMl1bT0hdKVtDSDJdW0NASF0oW09IXSljM1tjSF1bY0hdYyhPW0NIXShGKUYpW2NIXVtjSF0z

> <s_epik_cmdline>
J2VwaWtfcHl0aG9uJywgJy1waCcsICc3LjAnLCAnLXRuJywgJzgnLCAnLW1hJywgJzIwMCcsICctbWV0YWxfYmluZGluZycsICctaW1hZScsICc8aW5maWxlLm1hZT4nLCAnLW9tYWUnLCAnPG91dGZpbGUubWFlPic=

> <r_lp_tautomer_probability>
1

> <r_epik_Ionization_Penalty>
1.35642

> <r_epik_Ionization_Penalty_Charging>
1.35557

> <r_epik_Ionization_Penalty_Neutral>
0.000856035

> <r_epik_State_Penalty>
1.43401

> <r_epik_Charging_Adjusted_Penalty>
2.78958

> <i_epik_Tot_Q>
1

> <i_epik_Tot_abs_Q>
1

> <r_epik_Metal_State_Penalty>
5.47166

> <b_epik_Metal_Only>
0

> <s_lp_Force_Field>
OPLS_2005

> <r_lp_Energy>
13.1026

> <b_lp_Chiralities_Consistent>
1

> <s_lp_Variant>
AV-unprocessed.smi:1871-3

> <Gold.Version>
5.8.1

> <Gold.Id.Protein>
6NUR|6NUR_protein|mol2

> <Gold.PLP.Fitness>
55.0112

> <Gold.PLP.PLP>
-45.3854

> <Gold.PLP.part.hbond>
-4.6185

> <Gold.PLP.part.metal>
0.0000

> <Gold.PLP.part.buried>
-6.0416

> <Gold.PLP.part.nonpolar>
-35.5770

> <Gold.PLP.part.repulsive>
0.1007

> <Gold.PLP.ligand.clash>
0.0000

> <Gold.PLP.ligand.torsion>
1.0464

> <Gold.PLP.Chemscore.Hbond>
3.8720

> <Gold.PLP.Chemscore.CHOScore>
0.0000

> <Gold.PLP.Chemscore.Metal>
0.0000

> <Gold.Chemscore.Hbonds>
donor molecule, donor type, donor heavy atom, donor atom, acceptor molecule, acceptor atom, score
      L1  H     1    25       P1  7957  0.58
      L1  H     4    41       P1  8028  2.00
      P1  H  7989  7998       L1     1  0.27
      P1  H  8011  8017       L1     1  0.99

> <Gold.PLP.Chemscore.Internal.Correction>
0.1027

> <Gold.Rescore>
     Score         DG    S(hbond)    S(metal)    S(lipo)     H(rot)  DE(clash)    DE(int)     intcor
     15.52     -16.59       2.14        0.00     107.49       3.37       0.25       0.82       ----

> <Gold.Chemscore.Fitness>
15.5215

> <Gold.Chemscore.DG>
-16.5878

> <Gold.Chemscore.ZeroCoef>
-5.4800

> <Gold.Chemscore.Hbond>
2.1403

> <Gold.Chemscore.Metal>
0.0000

> <Gold.Chemscore.Lipo>
107.4852

> <Gold.Chemscore.Internal_Hbond>
0.0000

> <Gold.Chemscore.DEClash>
0.2454

> <Gold.Chemscore.DEInternal>
0.8209

> <Gold.Chemscore.Rot>
3.3659

> <Gold.Chemscore.Internal.Correction>
   9.000000E+99

> <Gold.Chemscore.Hbonds>
donor molecule, donor type, donor heavy atom, donor atom, acceptor molecule, acceptor atom, score
      L1  H     1    25       P1  7957  0.55
      L1  H     4    41       P1  8028  0.98
      P1  H  7989  7998       L1     1  0.03
      P1  H  8011  8017       L1     1  0.27

> <Gold.Chemscore.Hbond.Weighted>
-7.1486

> <Gold.Chemscore.Metal.Weighted>
-0.0000

> <Gold.Chemscore.Lipo.Weighted>
-12.5758

> <Gold.Chemscore.Internal_Hbond.Weighted>
0.0000

> <Gold.Chemscore.DEClash.Weighted>
0.2454

> <Gold.Chemscore.DEInternal.Weighted>
0.8209

> <Gold.Chemscore.Rot.Weighted>
8.6167

> <Gold.Chemscore.Internal.Correction.Weighted>
   9.000000E+99

> <Gold.Protein.RotatedTorsions>
[ 6907 6896 6895 6894 ] final -170.37 input  -60.11 | X-H torsion
[ 7974 7965 7964 7962 ] final  -61.42 input  175.53 | X-H torsion
[ 8008 7997 7996 7995 ] final   70.27 input   59.86 | X-H torsion
[ 10167 10162 10161 10158 ] final   34.71 input  -65.29 | X-H torsion
[ 10718 10713 10712 10709 ] final   18.67 input   66.30 | X-H torsion
[ 10763 10752 10751 10750 ] final    6.74 input  -60.55 | X-H torsion
[ 11005 11000 10999 10996 ] final -117.83 input  -57.11 | X-H torsion

> <Gold.Protein.ActiveResidues>
 VAL166  LYS551  ARG553  GLY616  TRP617  ASP618  TYR619  PRO620  LYS621  CYS622 
 ASP623  PHE694  ASN695  SER759  ASP760  ASP761  ALA762  ILE779  LEU786  VAL792 
 PHE793  MET794  SER795  GLU796  ALA797  LYS798  CYS799  TRP800  GLU811  SER814 

> <Gold.Protein.RotatedAtoms>
  151.5065  133.3493  159.2877 H   0  0  0  0  0  0  0  0  0  0  0  0  # atno 6907 bound_to 6896
  150.8739  134.8120  159.7186 H   0  0  0  0  0  0  0  0  0  0  0  0  # atno 6908 bound_to 6896
  152.4717  134.4954  159.9760 H   0  0  0  0  0  0  0  0  0  0  0  0  # atno 6909 bound_to 6896
  145.8037  140.8640  143.0218 H   0  0  0  0  0  0  0  0  0  0  0  0  # atno 7974 bound_to 7965
  155.7363  140.3491  155.5083 H   0  0  0  0  0  0  0  0  0  0  0  0  # atno 8008 bound_to 7997
  155.9136  140.1054  157.1282 H   0  0  0  0  0  0  0  0  0  0  0  0  # atno 8009 bound_to 7997
  154.4059  140.1263  156.4575 H   0  0  0  0  0  0  0  0  0  0  0  0  # atno 8010 bound_to 7997
  140.4290  144.1352  150.6157 H   0  0  0  0  0  0  0  0  0  0  0  0  # atno 10167 bound_to 10162
  157.0997  130.6462  149.5869 H   0  0  0  0  0  0  0  0  0  0  0  0  # atno 10718 bound_to 10713
  153.2442  135.6907  153.7749 H   0  0  0  0  0  0  0  0  0  0  0  0  # atno 10763 bound_to 10752
  153.6868  135.3319  155.3193 H   0  0  0  0  0  0  0  0  0  0  0  0  # atno 10764 bound_to 10752
  154.8368  135.4535  154.1375 H   0  0  0  0  0  0  0  0  0  0  0  0  # atno 10765 bound_to 10752
  141.0328  133.9955  157.3117 H   0  0  0  0  0  0  0  0  0  0  0  0  # atno 11005 bound_to 11000
  144.6765  140.0296  143.7483 LP  0  0  0  0  0  0  0  0  0  0  0  0  # atno 17320 bound_to 7965
  145.9851  139.2971  143.1019 LP  0  0  0  0  0  0  0  0  0  0  0  0  # atno 17321 bound_to 7965
  140.4449  143.2511  151.9425 LP  0  0  0  0  0  0  0  0  0  0  0  0  # atno 17342 bound_to 10162
  139.4784  144.5619  151.8226 LP  0  0  0  0  0  0  0  0  0  0  0  0  # atno 17343 bound_to 10162
  155.9877  130.4917  150.7136 LP  0  0  0  0  0  0  0  0  0  0  0  0  # atno 17370 bound_to 10713
  157.4651  131.0887  151.0703 LP  0  0  0  0  0  0  0  0  0  0  0  0  # atno 17371 bound_to 10713
  139.9220  135.0200  156.8097 LP  0  0  0  0  0  0  0  0  0  0  0  0  # atno 17394 bound_to 11000
  140.6376  133.9848  155.7692 LP  0  0  0  0  0  0  0  0  0  0  0  0  # atno 17395 bound_to 11000

$$$$
