AV-unprocessed.smi:1406|AV-procd|sdf|5713|dock6
  -GOLD-   22720 5343D 1   1.00000     0.00000
 Structure written by MMmdl.
 41 43  0  0  0  0  0  0  0  0  2 V2000
  147.1193  133.5816  152.4333 C   0  0  0  0  0  0  0  0  0  0  0  0
  146.2757  134.0218  151.2194 C   0  0  2  0  0  0  0  0  0  0  0  0
  145.5811  135.3762  151.4339 C   0  0  0  0  0  0  0  0  0  0  0  0
  144.3989  135.5339  151.1277 O   0  0  0  0  0  0  0  0  0  0  0  0
  146.3338  136.3521  151.9664 N   0  0  0  0  0  0  0  0  0  0  0  0
  145.8835  137.7161  152.2259 C   0  0  2  0  0  0  0  0  0  0  0  0
  146.6813  138.7688  151.4361 C   0  0  0  0  0  0  0  0  0  0  0  0
  146.8307  139.9696  152.3910 C   0  0  0  0  0  0  0  0  0  0  0  0
  146.0596  139.6093  153.5961 N   0  3  2  0  0  0  0  0  0  0  0  0
  146.4401  140.2715  154.8627 C   0  0  0  0  0  0  0  0  0  0  0  0
  145.4690  139.8327  155.9770 C   0  0  0  0  0  0  0  0  0  0  0  0
  145.3812  138.2969  156.0864 C   0  0  0  0  0  0  0  0  0  0  0  0
  145.0758  137.6574  154.7181 C   0  0  0  0  0  0  0  0  0  0  0  0
  146.1031  138.1416  153.6804 C   0  0  1  0  0  0  0  0  0  0  0  0
  145.3009  133.0086  150.8347 N   0  0  0  0  0  0  0  0  0  0  0  0
  144.5367  132.9232  149.7434 C   0  0  0  0  0  0  0  0  0  0  0  0
  143.7198  131.8794  149.7380 N   0  0  0  0  0  0  0  0  0  0  0  0
  144.0487  131.3262  150.9431 C   0  0  0  0  0  0  0  0  0  0  0  0
  144.9823  131.9683  151.6449 N   0  0  0  0  0  0  0  0  0  0  0  0
  147.8798  134.3251  152.6746 H   0  0  0  0  0  0  0  0  0  0  0  0
  147.6352  132.6436  152.2268 H   0  0  0  0  0  0  0  0  0  0  0  0
  146.5088  133.4327  153.3249 H   0  0  0  0  0  0  0  0  0  0  0  0
  146.9615  134.1419  150.3786 H   0  0  0  0  0  0  0  0  0  0  0  0
  147.2953  136.1385  152.1889 H   0  0  0  0  0  0  0  0  0  0  0  0
  144.8273  137.8255  151.9697 H   0  0  0  0  0  0  0  0  0  0  0  0
  147.6682  138.3957  151.1583 H   0  0  0  0  0  0  0  0  0  0  0  0
  146.1646  139.0434  150.5157 H   0  0  0  0  0  0  0  0  0  0  0  0
  147.8817  140.1151  152.6463 H   0  0  0  0  0  0  0  0  0  0  0  0
  146.4564  140.8965  151.9556 H   0  0  0  0  0  0  0  0  0  0  0  0
  147.4667  140.0113  155.1256 H   0  0  0  0  0  0  0  0  0  0  0  0
  146.4028  141.3540  154.7355 H   0  0  0  0  0  0  0  0  0  0  0  0
  145.7784  140.2584  156.9320 H   0  0  0  0  0  0  0  0  0  0  0  0
  144.4764  140.2347  155.7687 H   0  0  0  0  0  0  0  0  0  0  0  0
  146.3263  137.9065  156.4657 H   0  0  0  0  0  0  0  0  0  0  0  0
  144.6175  138.0151  156.8118 H   0  0  0  0  0  0  0  0  0  0  0  0
  145.1035  136.5711  154.8040 H   0  0  0  0  0  0  0  0  0  0  0  0
  144.0664  137.9221  154.4002 H   0  0  0  0  0  0  0  0  0  0  0  0
  147.1056  137.8409  153.9943 H   0  0  0  0  0  0  0  0  0  0  0  0
  144.5750  133.6421  148.9381 H   0  0  0  0  0  0  0  0  0  0  0  0
  143.5814  130.4274  151.3176 H   0  0  0  0  0  0  0  0  0  0  0  0
  145.0984  139.8546  153.4056 H   0  0  0  0  0  0  0  0  0  0  0  0
  1  2  1  0  0  0  0
  1 20  1  0  0  0  0
  1 21  1  0  0  0  0
  1 22  1  0  0  0  0
  2  3  1  0  0  0  0
  2 15  1  0  0  0  0
  2 23  1  0  0  0  0
  3  4  2  0  0  0  0
  3  5  1  0  0  0  0
  5  6  1  0  0  0  0
  5 24  1  0  0  0  0
  6 14  1  0  0  0  0
  6  7  1  0  0  0  0
  6 25  1  0  0  0  0
  7  8  1  0  0  0  0
  7 26  1  0  0  0  0
  7 27  1  0  0  0  0
  8  9  1  0  0  0  0
  8 28  1  0  0  0  0
  8 29  1  0  0  0  0
  9 14  1  0  0  0  0
  9 10  1  0  0  0  0
  9 41  1  0  0  0  0
 10 11  1  0  0  0  0
 10 30  1  0  0  0  0
 10 31  1  0  0  0  0
 11 12  1  0  0  0  0
 11 32  1  0  0  0  0
 11 33  1  0  0  0  0
 12 13  1  0  0  0  0
 12 34  1  0  0  0  0
 12 35  1  0  0  0  0
 13 14  1  0  0  0  0
 13 36  1  0  0  0  0
 13 37  1  0  0  0  0
 14 38  1  0  0  0  0
 15 19  1  0  0  0  0
 15 16  1  0  0  0  0
 16 17  2  0  0  0  0
 16 39  1  0  0  0  0
 17 18  1  0  0  0  0
 18 19  2  0  0  0  0
 18 40  1  0  0  0  0
M  CHG  1   9   1
M  END
> <s_m_source_file>
AV-unprocessed.smi

> <i_m_source_file_index>
1406

> <i_lp_mmshare_version>
43012

> <i_f3d_flags>
0

> <s_epik_input>
bjFbY0hdbltjSF1uMVtDQEhdKFtDSDNdKUMoPU8pW05IXVtDQEhdKFtDSDJdW0NIMl0yKVtDQEBIXShOMjMpW0NIMl1bQ0gyXVtDSDJdW0NIMl0z

> <s_epik_cmdline>
J2VwaWtfcHl0aG9uJywgJy1waCcsICc3LjAnLCAnLXRuJywgJzgnLCAnLW1hJywgJzIwMCcsICctbWV0YWxfYmluZGluZycsICctaW1hZScsICc8aW5maWxlLm1hZT4nLCAnLW9tYWUnLCAnPG91dGZpbGUubWFlPic=

> <r_lp_tautomer_probability>
1

> <r_epik_Ionization_Penalty>
0.00197066

> <r_epik_Ionization_Penalty_Charging>
0.00196223

> <r_epik_Ionization_Penalty_Neutral>
8.43107e-06

> <r_epik_State_Penalty>
0.00133866

> <r_epik_Charging_Adjusted_Penalty>
0.00330089

> <i_epik_Tot_Q>
1

> <i_epik_Tot_abs_Q>
1

> <r_epik_Metal_State_Penalty>
-0

> <b_epik_Metal_Only>
0

> <s_lp_Force_Field>
OPLS_2005

> <r_lp_Energy>
39.8757

> <b_lp_Chiralities_Consistent>
1

> <s_lp_Variant>
AV-unprocessed.smi:1406-5

> <Gold.Version>
5.8.1

> <Gold.Id.Protein>
6NUR|6NUR_protein|mol2

> <Gold.PLP.Fitness>
40.8943

> <Gold.PLP.PLP>
-27.7549

> <Gold.PLP.part.hbond>
-3.0000

> <Gold.PLP.part.metal>
0.0000

> <Gold.PLP.part.buried>
0.4017

> <Gold.PLP.part.nonpolar>
-26.0283

> <Gold.PLP.part.repulsive>
0.6078

> <Gold.PLP.ligand.clash>
0.0000

> <Gold.PLP.ligand.torsion>
0.4504

> <Gold.PLP.Chemscore.Hbond>
3.6443

> <Gold.PLP.Chemscore.CHOScore>
1.0000

> <Gold.PLP.Chemscore.Metal>
0.0000

> <Gold.Chemscore.Hbonds>
donor molecule, donor type, donor heavy atom, donor atom, acceptor molecule, acceptor atom, score
      L1  H     5    24       P1  7948  1.00
      L1  H     9    41       P1 10175  2.00
      P1  H 10785 10796       L1    17  0.75
      L1  C    16    39       P1  7921  1.00

> <Gold.PLP.Chemscore.Internal.Correction>
0.1074

> <Gold.Rescore>
     Score         DG    S(hbond)    S(metal)    S(lipo)     H(rot)  DE(clash)    DE(int)     intcor
     12.49     -15.87       2.74        0.00      51.98       1.89       1.70       1.69       ----

> <Gold.Chemscore.Fitness>
12.4856

> <Gold.Chemscore.DG>
-15.8719

> <Gold.Chemscore.ZeroCoef>
-5.4800

> <Gold.Chemscore.Hbond>
2.7364

> <Gold.Chemscore.Metal>
0.0000

> <Gold.Chemscore.Lipo>
51.9815

> <Gold.Chemscore.Internal_Hbond>
0.0000

> <Gold.Chemscore.DEClash>
1.6996

> <Gold.Chemscore.DEInternal>
1.6867

> <Gold.Chemscore.Rot>
1.8865

> <Gold.Chemscore.Internal.Correction>
   9.000000E+99

> <Gold.Chemscore.Hbonds>
donor molecule, donor type, donor heavy atom, donor atom, acceptor molecule, acceptor atom, score
      L1  H     5    24       P1  7948  0.95
      L1  H     9    41       P1 10175  0.99
      P1  H 10785 10796       L1    17  0.14

> <Gold.Chemscore.Hbond.Weighted>
-9.1396

> <Gold.Chemscore.Metal.Weighted>
-0.0000

> <Gold.Chemscore.Lipo.Weighted>
-6.0818

> <Gold.Chemscore.Internal_Hbond.Weighted>
0.0000

> <Gold.Chemscore.DEClash.Weighted>
1.6996

> <Gold.Chemscore.DEInternal.Weighted>
1.6867

> <Gold.Chemscore.Rot.Weighted>
4.8295

> <Gold.Chemscore.Internal.Correction.Weighted>
   9.000000E+99

> <Gold.Protein.RotatedTorsions>
[ 6907 6896 6895 6894 ] final  -18.48 input  -60.11 | X-H torsion
[ 7974 7965 7964 7962 ] final    4.29 input  175.53 | X-H torsion
[ 8008 7997 7996 7995 ] final  -19.33 input   59.86 | X-H torsion
[ 10167 10162 10161 10158 ] final   -2.44 input  -65.29 | X-H torsion
[ 10718 10713 10712 10709 ] final  140.69 input   66.30 | X-H torsion
[ 10763 10752 10751 10750 ] final -106.86 input  -60.55 | X-H torsion
[ 11005 11000 10999 10996 ] final  105.95 input  -57.11 | X-H torsion

> <Gold.Protein.ActiveResidues>
 VAL166  LYS551  ARG553  GLY616  TRP617  ASP618  TYR619  PRO620  LYS621  CYS622 
 ASP623  PHE694  ASN695  SER759  ASP760  ASP761  ALA762  ILE779  LEU786  VAL792 
 PHE793  MET794  SER795  GLU796  ALA797  LYS798  CYS799  TRP800  GLU811  SER814 

> <Gold.Protein.RotatedAtoms>
  151.2776  135.0704  159.9157 H   0  0  0  0  0  0  0  0  0  0  0  0  # atno 6907 bound_to 6896
  152.5340  134.0065  159.7929 H   0  0  0  0  0  0  0  0  0  0  0  0  # atno 6908 bound_to 6896
  151.0313  133.5737  159.2691 H   0  0  0  0  0  0  0  0  0  0  0  0  # atno 6909 bound_to 6896
  146.2444  140.0556  142.8372 H   0  0  0  0  0  0  0  0  0  0  0  0  # atno 7974 bound_to 7965
  154.4844  140.2091  155.9689 H   0  0  0  0  0  0  0  0  0  0  0  0  # atno 8008 bound_to 7997
  156.1214  140.3213  155.8182 H   0  0  0  0  0  0  0  0  0  0  0  0  # atno 8009 bound_to 7997
  155.4462  140.0513  157.2996 H   0  0  0  0  0  0  0  0  0  0  0  0  # atno 8010 bound_to 7997
  140.6851  143.6657  150.8228 H   0  0  0  0  0  0  0  0  0  0  0  0  # atno 10167 bound_to 10162
  157.4004  131.1016  151.0557 H   0  0  0  0  0  0  0  0  0  0  0  0  # atno 10718 bound_to 10713
  154.8039  135.4696  154.0344 H   0  0  0  0  0  0  0  0  0  0  0  0  # atno 10763 bound_to 10752
  153.1828  135.6843  153.8462 H   0  0  0  0  0  0  0  0  0  0  0  0  # atno 10764 bound_to 10752
  153.8007  135.3230  155.3367 H   0  0  0  0  0  0  0  0  0  0  0  0  # atno 10765 bound_to 10752
  139.8808  134.9353  156.5592 H   0  0  0  0  0  0  0  0  0  0  0  0  # atno 11005 bound_to 11000
  145.0945  140.9306  143.4749 LP  0  0  0  0  0  0  0  0  0  0  0  0  # atno 17320 bound_to 7965
  145.0736  139.3013  143.5819 LP  0  0  0  0  0  0  0  0  0  0  0  0  # atno 17321 bound_to 7965
  140.0362  143.5392  152.2738 LP  0  0  0  0  0  0  0  0  0  0  0  0  # atno 17342 bound_to 10162
  139.6203  144.7628  151.2755 LP  0  0  0  0  0  0  0  0  0  0  0  0  # atno 17343 bound_to 10162
  157.1558  130.6204  149.5596 LP  0  0  0  0  0  0  0  0  0  0  0  0  # atno 17370 bound_to 10713
  155.9822  130.4833  150.6867 LP  0  0  0  0  0  0  0  0  0  0  0  0  # atno 17371 bound_to 10713
  140.8182  133.8374  155.8871 LP  0  0  0  0  0  0  0  0  0  0  0  0  # atno 17394 bound_to 11000
  140.9443  134.1861  157.4775 LP  0  0  0  0  0  0  0  0  0  0  0  0  # atno 17395 bound_to 11000

$$$$
