AV-unprocessed.smi:2328|AV-procd|sdf|9301|dock2
  -GOLD-   2272012523D 1   1.00000     0.00000
 Structure written by MMmdl.
 40 40  0  0  0  0  0  0  0  0  1 V2000
  150.8698  132.4168  155.3771 C   0  0  0  0  0  0  0  0  0  0  0  0
  150.0536  133.5280  156.0707 C   0  0  0  0  0  0  0  0  0  0  0  0
  149.5392  134.7302  155.2004 C   0  0  2  0  0  0  0  0  0  0  0  0
  149.0628  134.2185  153.8951 N   0  0  0  0  0  0  0  0  0  0  0  0
  148.4075  133.1001  153.5185 C   0  0  0  0  0  0  0  0  0  0  0  0
  148.0862  132.2710  154.3683 O   0  0  0  0  0  0  0  0  0  0  0  0
  148.0428  132.8471  152.0446 C   0  0  0  0  0  0  0  0  0  0  0  0
  146.5762  133.1394  151.7728 C   0  0  0  0  0  0  0  0  0  0  0  0
  145.7034  132.1260  151.3250 C   0  0  0  0  0  0  0  0  0  0  0  0
  144.3535  132.4497  151.0881 C   0  0  0  0  0  0  0  0  0  0  0  0
  143.9331  133.7763  151.3103 C   0  0  0  0  0  0  0  0  0  0  0  0
  144.7596  134.7549  151.7383 N   0  0  0  0  0  0  0  0  0  0  0  0
  146.0523  134.4362  151.9626 C   0  0  0  0  0  0  0  0  0  0  0  0
  150.6615  135.7998  155.0230 C   0  0  0  0  0  0  0  0  0  0  0  0
  150.4541  136.8279  154.1914 N   0  0  0  0  0  0  0  0  0  0  0  0
  151.7119  135.7192  155.6551 O   0  0  0  0  0  0  0  0  0  0  0  0
  148.2956  135.4156  155.8786 C   0  0  0  0  0  0  0  0  0  0  0  0
  148.5986  136.0034  157.2760 C   0  0  0  0  0  0  0  0  0  0  0  0
  147.0523  134.5015  155.9999 C   0  0  0  0  0  0  0  0  0  0  0  0
  151.1650  131.6629  156.1069 H   0  0  0  0  0  0  0  0  0  0  0  0
  151.7875  132.7932  154.9275 H   0  0  0  0  0  0  0  0  0  0  0  0
  150.3050  131.8988  154.6044 H   0  0  0  0  0  0  0  0  0  0  0  0
  149.2124  133.0232  156.5410 H   0  0  0  0  0  0  0  0  0  0  0  0
  150.6490  133.9109  156.9005 H   0  0  0  0  0  0  0  0  0  0  0  0
  149.2308  134.8638  153.1369 H   0  0  0  0  0  0  0  0  0  0  0  0
  148.6287  133.4679  151.3703 H   0  0  0  0  0  0  0  0  0  0  0  0
  148.2605  131.8076  151.7974 H   0  0  0  0  0  0  0  0  0  0  0  0
  146.0593  131.1184  151.1672 H   0  0  0  0  0  0  0  0  0  0  0  0
  143.6566  131.6993  150.7455 H   0  0  0  0  0  0  0  0  0  0  0  0
  142.9050  134.0588  151.1386 H   0  0  0  0  0  0  0  0  0  0  0  0
  146.6879  135.2397  152.3050 H   0  0  0  0  0  0  0  0  0  0  0  0
  151.1743  137.5242  154.0631 H   0  0  0  0  0  0  0  0  0  0  0  0
  149.5799  136.9001  153.6912 H   0  0  0  0  0  0  0  0  0  0  0  0
  147.9839  136.2492  155.2483 H   0  0  0  0  0  0  0  0  0  0  0  0
  148.8852  135.2295  157.9886 H   0  0  0  0  0  0  0  0  0  0  0  0
  147.7211  136.5065  157.6828 H   0  0  0  0  0  0  0  0  0  0  0  0
  149.3972  136.7434  157.2539 H   0  0  0  0  0  0  0  0  0  0  0  0
  147.2559  133.6167  156.6036 H   0  0  0  0  0  0  0  0  0  0  0  0
  146.6855  134.1662  155.0299 H   0  0  0  0  0  0  0  0  0  0  0  0
  146.2261  135.0318  156.4740 H   0  0  0  0  0  0  0  0  0  0  0  0
  1  2  1  0  0  0  0
  1 20  1  0  0  0  0
  1 21  1  0  0  0  0
  1 22  1  0  0  0  0
  2  3  1  0  0  0  0
  2 23  1  0  0  0  0
  2 24  1  0  0  0  0
  3  4  1  0  0  0  0
  3 14  1  0  0  0  0
  3 17  1  0  0  0  0
  4  5  1  0  0  0  0
  4 25  1  0  0  0  0
  5  6  2  0  0  0  0
  5  7  1  0  0  0  0
  7  8  1  0  0  0  0
  7 26  1  0  0  0  0
  7 27  1  0  0  0  0
  8 13  1  0  0  0  0
  8  9  2  0  0  0  0
  9 10  1  0  0  0  0
  9 28  1  0  0  0  0
 10 11  2  0  0  0  0
 10 29  1  0  0  0  0
 11 12  1  0  0  0  0
 11 30  1  0  0  0  0
 12 13  2  0  0  0  0
 13 31  1  0  0  0  0
 14 15  1  0  0  0  0
 14 16  2  0  0  0  0
 15 32  1  0  0  0  0
 15 33  1  0  0  0  0
 17 18  1  0  0  0  0
 17 19  1  0  0  0  0
 17 34  1  0  0  0  0
 18 35  1  0  0  0  0
 18 36  1  0  0  0  0
 18 37  1  0  0  0  0
 19 38  1  0  0  0  0
 19 39  1  0  0  0  0
 19 40  1  0  0  0  0
M  END
> <s_m_source_file>
AV-unprocessed.smi

> <i_m_source_file_index>
2328

> <i_lp_mmshare_version>
43012

> <i_f3d_flags>
0

> <s_epik_input>
W0NIM11bQ0gyXVtDQEBdKEMoPU8pW05IMl0pKFtDSF0oW0NIM10pW0NIM10pW05IXUMoPU8pW0NIMl1jMVtjSF1bY0hdW2NIXW5bY0hdMQ==

> <s_epik_cmdline>
J2VwaWtfcHl0aG9uJywgJy1waCcsICc3LjAnLCAnLXRuJywgJzgnLCAnLW1hJywgJzIwMCcsICctbWV0YWxfYmluZGluZycsICctaW1hZScsICc8aW5maWxlLm1hZT4nLCAnLW9tYWUnLCAnPG91dGZpbGUubWFlPic=

> <r_epik_Ionization_Penalty>
0.00378489

> <r_epik_Ionization_Penalty_Charging>
0

> <r_epik_Ionization_Penalty_Neutral>
0.00378489

> <r_epik_State_Penalty>
0.00269972

> <r_epik_Charging_Adjusted_Penalty>
0.00269972

> <i_epik_Tot_Q>
0

> <i_epik_Tot_abs_Q>
0

> <r_epik_Metal_State_Penalty>
-0

> <b_epik_Metal_Only>
0

> <s_lp_Force_Field>
OPLS_2005

> <r_lp_Energy>
16.0565

> <b_lp_Chiralities_Consistent>
1

> <s_lp_Variant>
AV-unprocessed.smi:2328-2

> <Gold.Version>
5.8.1

> <Gold.Id.Protein>
6NUR|6NUR_protein|mol2

> <Gold.PLP.Fitness>
37.1930

> <Gold.PLP.PLP>
-26.2971

> <Gold.PLP.part.hbond>
-4.0000

> <Gold.PLP.part.metal>
0.0000

> <Gold.PLP.part.buried>
-3.0745

> <Gold.PLP.part.nonpolar>
-20.3328

> <Gold.PLP.part.repulsive>
0.2737

> <Gold.PLP.ligand.clash>
0.0000

> <Gold.PLP.ligand.torsion>
1.2374

> <Gold.PLP.Chemscore.Hbond>
2.4080

> <Gold.PLP.Chemscore.CHOScore>
2.0000

> <Gold.PLP.Chemscore.Metal>
0.0000

> <Gold.Chemscore.Hbonds>
donor molecule, donor type, donor heavy atom, donor atom, acceptor molecule, acceptor atom, score
      L1  H     4    25       P1  7948  0.50
      L1  H    15    33       P1  7948  0.64
      P1  H 10752 10763       L1    16  1.00
      L1  C    11    30       P1 10186  1.00
      L1  C    13    31       P1  7948  1.00

> <Gold.PLP.Chemscore.Internal.Correction>
0.1466

> <Gold.Rescore>
     Score         DG    S(hbond)    S(metal)    S(lipo)     H(rot)  DE(clash)    DE(int)     intcor
      8.39     -11.52       1.87        0.00      48.42       2.29       0.00       3.13       ----

> <Gold.Chemscore.Fitness>
8.3893

> <Gold.Chemscore.DG>
-11.5239

> <Gold.Chemscore.ZeroCoef>
-5.4800

> <Gold.Chemscore.Hbond>
1.8703

> <Gold.Chemscore.Metal>
0.0000

> <Gold.Chemscore.Lipo>
48.4170

> <Gold.Chemscore.Internal_Hbond>
0.0000

> <Gold.Chemscore.DEClash>
0.0038

> <Gold.Chemscore.DEInternal>
3.1308

> <Gold.Chemscore.Rot>
2.2921

> <Gold.Chemscore.Internal.Correction>
   9.000000E+99

> <Gold.Chemscore.Hbonds>
donor molecule, donor type, donor heavy atom, donor atom, acceptor molecule, acceptor atom, score
      L1  H     4    25       P1  7948  0.02
      L1  H    15    33       P1  7948  0.50
      P1  H 10752 10763       L1    16  0.84

> <Gold.Chemscore.Hbond.Weighted>
-6.2468

> <Gold.Chemscore.Metal.Weighted>
-0.0000

> <Gold.Chemscore.Lipo.Weighted>
-5.6648

> <Gold.Chemscore.Internal_Hbond.Weighted>
0.0000

> <Gold.Chemscore.DEClash.Weighted>
0.0038

> <Gold.Chemscore.DEInternal.Weighted>
3.1308

> <Gold.Chemscore.Rot.Weighted>
5.8677

> <Gold.Chemscore.Internal.Correction.Weighted>
   9.000000E+99

> <Gold.Protein.RotatedTorsions>
[ 6907 6896 6895 6894 ] final  113.22 input  -60.11 | X-H torsion
[ 7974 7965 7964 7962 ] final -139.62 input  175.53 | X-H torsion
[ 8008 7997 7996 7995 ] final  -72.18 input   59.86 | X-H torsion
[ 10167 10162 10161 10158 ] final  -23.63 input  -65.29 | X-H torsion
[ 10718 10713 10712 10709 ] final   42.57 input   66.30 | X-H torsion
[ 10763 10752 10751 10750 ] final   68.88 input  -60.55 | X-H torsion
[ 11005 11000 10999 10996 ] final -136.40 input  -57.11 | X-H torsion

> <Gold.Protein.ActiveResidues>
 VAL166  LYS551  ARG553  GLY616  TRP617  ASP618  TYR619  PRO620  LYS621  CYS622 
 ASP623  PHE694  ASN695  SER759  ASP760  ASP761  ALA762  ILE779  LEU786  VAL792 
 PHE793  MET794  SER795  GLU796  ALA797  LYS798  CYS799  TRP800  GLU811  SER814 

> <Gold.Protein.RotatedAtoms>
  152.4873  133.8405  159.7149 H   0  0  0  0  0  0  0  0  0  0  0  0  # atno 6907 bound_to 6896
  150.8970  133.7159  159.2896 H   0  0  0  0  0  0  0  0  0  0  0  0  # atno 6908 bound_to 6896
  151.4613  135.1042  159.9778 H   0  0  0  0  0  0  0  0  0  0  0  0  # atno 6909 bound_to 6896
  144.8663  140.6297  143.5296 H   0  0  0  0  0  0  0  0  0  0  0  0  # atno 7974 bound_to 7965
  154.5145  140.0802  156.8055 H   0  0  0  0  0  0  0  0  0  0  0  0  # atno 8008 bound_to 7997
  155.3710  140.3423  155.4225 H   0  0  0  0  0  0  0  0  0  0  0  0  # atno 8009 bound_to 7997
  156.1612  140.1589  156.8596 H   0  0  0  0  0  0  0  0  0  0  0  0  # atno 8010 bound_to 7997
  140.7288  143.4426  151.0635 H   0  0  0  0  0  0  0  0  0  0  0  0  # atno 10167 bound_to 10162
  157.4063  130.7889  149.7392 H   0  0  0  0  0  0  0  0  0  0  0  0  # atno 10718 bound_to 10713
  153.0258  135.5231  154.7202 H   0  0  0  0  0  0  0  0  0  0  0  0  # atno 10763 bound_to 10752
  154.6259  135.2894  155.0274 H   0  0  0  0  0  0  0  0  0  0  0  0  # atno 10764 bound_to 10752
  154.1244  135.6602  153.4962 H   0  0  0  0  0  0  0  0  0  0  0  0  # atno 10765 bound_to 10752
  140.8808  134.1934  157.4592 H   0  0  0  0  0  0  0  0  0  0  0  0  # atno 11005 bound_to 11000
  145.4216  139.1563  143.4071 LP  0  0  0  0  0  0  0  0  0  0  0  0  # atno 17320 bound_to 7965
  146.2898  140.4327  142.8744 LP  0  0  0  0  0  0  0  0  0  0  0  0  # atno 17321 bound_to 7965
  139.8094  143.7972  152.3170 LP  0  0  0  0  0  0  0  0  0  0  0  0  # atno 17342 bound_to 10162
  139.8016  144.7371  150.9817 LP  0  0  0  0  0  0  0  0  0  0  0  0  # atno 17343 bound_to 10162
  155.9837  130.3997  150.3347 LP  0  0  0  0  0  0  0  0  0  0  0  0  # atno 17370 bound_to 10713
  157.1480  131.0313  151.2898 LP  0  0  0  0  0  0  0  0  0  0  0  0  # atno 17371 bound_to 10713
  139.8719  134.9816  156.5124 LP  0  0  0  0  0  0  0  0  0  0  0  0  # atno 17394 bound_to 11000
  140.8463  133.8166  155.9124 LP  0  0  0  0  0  0  0  0  0  0  0  0  # atno 17395 bound_to 11000

$$$$
