AV-unprocessed.smi:2033|AV-procd|sdf|8262|dock4
  -GOLD-   2272010533D 1   1.00000     0.00000
 Structure written by MMmdl.
 32 33  0  0  0  0  0  0  0  0  2 V2000
  153.7257  141.9777  161.8549 C   0  0  0  0  0  0  0  0  0  0  0  0
  153.0434  142.4924  160.6341 C   0  0  0  0  0  0  0  0  0  0  0  0
  152.7117  143.7765  160.4793 N   0  0  0  0  0  0  0  0  0  0  0  0
  152.0861  144.0116  159.2633 N   0  0  0  0  0  0  0  0  0  0  0  0
  151.9452  142.9038  158.5214 C   0  0  0  0  0  0  0  0  0  0  0  0
  151.3679  142.9164  157.3088 N   0  5  0  0  0  0  0  0  0  0  0  0
  150.7129  141.8207  156.8617 C   0  0  0  0  0  0  0  0  0  0  0  0
  150.8862  140.6604  157.2424 O   0  0  0  0  0  0  0  0  0  0  0  0
  149.8017  142.0848  155.9124 N   0  0  0  0  0  0  0  0  0  0  0  0
  148.9439  141.1057  155.2385 C   0  0  1  0  0  0  0  0  0  0  0  0
  148.1713  141.8492  154.1246 C   0  0  0  0  0  0  0  0  0  0  0  0
  146.8713  141.1463  153.6958 C   0  0  0  0  0  0  0  0  0  0  0  0
  147.0629  139.7745  153.0311 C   0  0  0  0  0  0  0  0  0  0  0  0
  147.7144  138.7270  153.9501 C   0  0  0  0  0  0  0  0  0  0  0  0
  149.1540  138.9191  154.0660 N   0  0  0  0  0  0  0  0  0  0  0  0
  149.7857  139.9736  154.6037 C   0  0  0  0  0  0  0  0  0  0  0  0
  151.0150  140.0358  154.5830 O   0  0  0  0  0  0  0  0  0  0  0  0
  152.6089  141.4585  159.2837 S   0  0  0  0  0  0  0  0  0  0  0  0
  153.0001  141.8403  162.6566 H   0  0  0  0  0  0  0  0  0  0  0  0
  154.4887  142.6824  162.1870 H   0  0  0  0  0  0  0  0  0  0  0  0
  154.2035  141.0204  161.6465 H   0  0  0  0  0  0  0  0  0  0  0  0
  149.7014  143.0474  155.6268 H   0  0  0  0  0  0  0  0  0  0  0  0
  148.2441  140.6902  155.9656 H   0  0  0  0  0  0  0  0  0  0  0  0
  147.8922  142.8399  154.4868 H   0  0  0  0  0  0  0  0  0  0  0  0
  148.8094  142.0267  153.2570 H   0  0  0  0  0  0  0  0  0  0  0  0
  146.2160  141.0408  154.5613 H   0  0  0  0  0  0  0  0  0  0  0  0
  146.3398  141.7962  153.0000 H   0  0  0  0  0  0  0  0  0  0  0  0
  146.0821  139.4054  152.7293 H   0  0  0  0  0  0  0  0  0  0  0  0
  147.6386  139.8785  152.1103 H   0  0  0  0  0  0  0  0  0  0  0  0
  147.2478  138.7196  154.9361 H   0  0  0  0  0  0  0  0  0  0  0  0
  147.5571  137.7338  153.5290 H   0  0  0  0  0  0  0  0  0  0  0  0
  149.7337  138.1926  153.6717 H   0  0  0  0  0  0  0  0  0  0  0  0
  1  2  1  0  0  0  0
  1 19  1  0  0  0  0
  1 20  1  0  0  0  0
  1 21  1  0  0  0  0
  2 18  1  0  0  0  0
  2  3  2  0  0  0  0
  3  4  1  0  0  0  0
  4  5  2  0  0  0  0
  5  6  1  0  0  0  0
  5 18  1  0  0  0  0
  6  7  1  0  0  0  0
  7  8  2  0  0  0  0
  7  9  1  0  0  0  0
  9 10  1  0  0  0  0
  9 22  1  0  0  0  0
 10 16  1  0  0  0  0
 10 11  1  0  0  0  0
 10 23  1  0  0  0  0
 11 12  1  0  0  0  0
 11 24  1  0  0  0  0
 11 25  1  0  0  0  0
 12 13  1  0  0  0  0
 12 26  1  0  0  0  0
 12 27  1  0  0  0  0
 13 14  1  0  0  0  0
 13 28  1  0  0  0  0
 13 29  1  0  0  0  0
 14 15  1  0  0  0  0
 14 30  1  0  0  0  0
 14 31  1  0  0  0  0
 15 16  1  0  0  0  0
 15 32  1  0  0  0  0
 16 17  2  0  0  0  0
M  CHG  1   6  -1
M  END
> <s_m_source_file>
AV-unprocessed.smi

> <i_m_source_file_index>
2033

> <i_lp_mmshare_version>
43012

> <i_f3d_flags>
0

> <s_epik_input>
W0NIM11jMW5uYyhzMSlbTkhdQyg9TylbTkhdW0NAQEhdMltDSDJdW0NIMl1bQ0gyXVtDSDJdW05IXUMyPU8=

> <s_epik_cmdline>
J2VwaWtfcHl0aG9uJywgJy1waCcsICc3LjAnLCAnLXRuJywgJzgnLCAnLW1hJywgJzIwMCcsICctbWV0YWxfYmluZGluZycsICctaW1hZScsICc8aW5maWxlLm1hZT4nLCAnLW9tYWUnLCAnPG91dGZpbGUubWFlPic=

> <r_lp_tautomer_probability>
1

> <r_epik_Ionization_Penalty>
4.07233

> <r_epik_Ionization_Penalty_Charging>
3.9374

> <r_epik_Ionization_Penalty_Neutral>
0.134927

> <r_epik_State_Penalty>
3.93663

> <r_epik_Charging_Adjusted_Penalty>
7.87404

> <i_epik_Tot_Q>
-1

> <i_epik_Tot_abs_Q>
1

> <r_epik_Metal_State_Penalty>
0.602812

> <b_epik_Metal_Only>
1

> <s_lp_Force_Field>
OPLS_2005

> <r_lp_Energy>
8.77885

> <b_lp_Chiralities_Consistent>
1

> <s_lp_Variant>
AV-unprocessed.smi:2033-4

> <Gold.Version>
5.8.1

> <Gold.Id.Protein>
6NUR|6NUR_protein|mol2

> <Gold.PLP.Fitness>
39.6249

> <Gold.PLP.PLP>
-34.2888

> <Gold.PLP.part.hbond>
-2.6395

> <Gold.PLP.part.metal>
0.0000

> <Gold.PLP.part.buried>
-5.6121

> <Gold.PLP.part.nonpolar>
-27.3599

> <Gold.PLP.part.repulsive>
0.4501

> <Gold.PLP.ligand.clash>
0.0000

> <Gold.PLP.ligand.torsion>
0.3346

> <Gold.PLP.Chemscore.Hbond>
2.0000

> <Gold.PLP.Chemscore.CHOScore>
0.0000

> <Gold.PLP.Chemscore.Metal>
0.0000

> <Gold.Chemscore.Hbonds>
donor molecule, donor type, donor heavy atom, donor atom, acceptor molecule, acceptor atom, score
      L1  H     9    22       P1  8028  1.00
      P1  H  7989  7998       L1    17  0.93

> <Gold.PLP.Chemscore.Internal.Correction>
0.0052

> <Gold.Rescore>
     Score         DG    S(hbond)    S(metal)    S(lipo)     H(rot)  DE(clash)    DE(int)     intcor
     14.93     -16.68       1.94        0.00      62.26       1.00       0.01       1.75       ----

> <Gold.Chemscore.Fitness>
14.9251

> <Gold.Chemscore.DG>
-16.6759

> <Gold.Chemscore.ZeroCoef>
-5.4800

> <Gold.Chemscore.Hbond>
1.9377

> <Gold.Chemscore.Metal>
0.0000

> <Gold.Chemscore.Lipo>
62.2573

> <Gold.Chemscore.Internal_Hbond>
0.0000

> <Gold.Chemscore.DEClash>
0.0050

> <Gold.Chemscore.DEInternal>
1.7458

> <Gold.Chemscore.Rot>
1.0000

> <Gold.Chemscore.Internal.Correction>
   9.000000E+99

> <Gold.Chemscore.Hbonds>
donor molecule, donor type, donor heavy atom, donor atom, acceptor molecule, acceptor atom, score
      L1  H     9    22       P1  8028  0.98
      P1  H  7989  7998       L1    17  0.84

> <Gold.Chemscore.Hbond.Weighted>
-6.4718

> <Gold.Chemscore.Metal.Weighted>
-0.0000

> <Gold.Chemscore.Lipo.Weighted>
-7.2841

> <Gold.Chemscore.Internal_Hbond.Weighted>
0.0000

> <Gold.Chemscore.DEClash.Weighted>
0.0050

> <Gold.Chemscore.DEInternal.Weighted>
1.7458

> <Gold.Chemscore.Rot.Weighted>
2.5600

> <Gold.Chemscore.Internal.Correction.Weighted>
   9.000000E+99

> <Gold.Protein.RotatedTorsions>
[ 6907 6896 6895 6894 ] final   25.83 input  -60.11 | X-H torsion
[ 7974 7965 7964 7962 ] final  115.18 input  175.53 | X-H torsion
[ 8008 7997 7996 7995 ] final  137.39 input   59.86 | X-H torsion
[ 10167 10162 10161 10158 ] final  120.82 input  -65.29 | X-H torsion
[ 10718 10713 10712 10709 ] final -158.17 input   66.30 | X-H torsion
[ 10763 10752 10751 10750 ] final -138.65 input  -60.55 | X-H torsion
[ 11005 11000 10999 10996 ] final   -5.02 input  -57.11 | X-H torsion

> <Gold.Protein.ActiveResidues>
 VAL166  LYS551  ARG553  GLY616  TRP617  ASP618  TYR619  PRO620  LYS621  CYS622 
 ASP623  PHE694  ASN695  SER759  ASP760  ASP761  ALA762  ILE779  LEU786  VAL792 
 PHE793  MET794  SER795  GLU796  ALA797  LYS798  CYS799  TRP800  GLU811  SER814 

> <Gold.Protein.RotatedAtoms>
  151.9783  135.0041  160.0555 H   0  0  0  0  0  0  0  0  0  0  0  0  # atno 6907 bound_to 6896
  152.1719  133.4645  159.4922 H   0  0  0  0  0  0  0  0  0  0  0  0  # atno 6908 bound_to 6896
  150.6903  134.1859  159.4309 H   0  0  0  0  0  0  0  0  0  0  0  0  # atno 6909 bound_to 6896
  145.1952  139.2980  143.4347 H   0  0  0  0  0  0  0  0  0  0  0  0  # atno 7974 bound_to 7965
  156.3002  140.2421  156.3901 H   0  0  0  0  0  0  0  0  0  0  0  0  # atno 8008 bound_to 7997
  154.8622  140.0419  157.1692 H   0  0  0  0  0  0  0  0  0  0  0  0  # atno 8009 bound_to 7997
  154.8884  140.2959  155.5388 H   0  0  0  0  0  0  0  0  0  0  0  0  # atno 8010 bound_to 7997
  139.5958  144.7041  151.3181 H   0  0  0  0  0  0  0  0  0  0  0  0  # atno 10167 bound_to 10162
  156.5505  130.8603  151.2778 H   0  0  0  0  0  0  0  0  0  0  0  0  # atno 10718 bound_to 10713
  154.8631  135.3606  154.5420 H   0  0  0  0  0  0  0  0  0  0  0  0  # atno 10763 bound_to 10752
  153.6041  135.7011  153.5377 H   0  0  0  0  0  0  0  0  0  0  0  0  # atno 10764 bound_to 10752
  153.3265  135.4136  155.1421 H   0  0  0  0  0  0  0  0  0  0  0  0  # atno 10765 bound_to 10752
  140.6866  133.9107  155.8590 H   0  0  0  0  0  0  0  0  0  0  0  0  # atno 11005 bound_to 11000
  146.3428  140.2178  142.8591 LP  0  0  0  0  0  0  0  0  0  0  0  0  # atno 17320 bound_to 7965
  145.0002  140.8625  143.5286 LP  0  0  0  0  0  0  0  0  0  0  0  0  # atno 17321 bound_to 7965
  140.7210  143.7135  150.7751 LP  0  0  0  0  0  0  0  0  0  0  0  0  # atno 17342 bound_to 10162
  140.0701  143.5070  152.2584 LP  0  0  0  0  0  0  0  0  0  0  0  0  # atno 17343 bound_to 10162
  157.7388  130.9820  150.2277 LP  0  0  0  0  0  0  0  0  0  0  0  0  # atno 17370 bound_to 10713
  156.2889  130.3743  149.7861 LP  0  0  0  0  0  0  0  0  0  0  0  0  # atno 17371 bound_to 10713
  141.0275  134.0803  157.4052 LP  0  0  0  0  0  0  0  0  0  0  0  0  # atno 17394 bound_to 11000
  139.8936  135.0131  156.6905 LP  0  0  0  0  0  0  0  0  0  0  0  0  # atno 17395 bound_to 11000

$$$$
