AV-unprocessed.smi:675|AV-procd|sdf|3306|dock7
  -GOLD-   22720 0263D 1   1.00000     0.00000
 Structure written by MMmdl.
 28 29  0  0  0  0  0  0  0  0  2 V2000
  146.9341  138.8156  153.5623 O   0  0  0  0  0  0  0  0  0  0  0  0
  147.9271  139.3350  154.0698 C   0  0  0  0  0  0  0  0  0  0  0  0
  149.0518  138.6263  154.3809 N   0  5  0  0  0  0  0  0  0  0  0  0
  150.1661  139.1860  154.9459 C   0  0  0  0  0  0  0  0  0  0  0  0
  151.1672  138.5235  155.2181 O   0  0  0  0  0  0  0  0  0  0  0  0
  150.1645  140.5252  155.2149 N   0  0  0  0  0  0  0  0  0  0  0  0
  151.3097  141.2120  155.8298 C   0  0  0  0  0  0  0  0  0  0  0  0
  151.4815  140.8316  157.3162 C   0  0  1  0  0  0  0  0  0  0  0  0
  152.5734  139.9398  157.4349 O   0  0  0  0  0  0  0  0  0  0  0  0
  151.6712  142.0804  158.1766 C   0  0  0  0  0  0  0  0  0  0  0  0
  150.8371  143.2061  157.9801 C   0  0  0  0  0  0  0  0  0  0  0  0
  150.9919  144.3619  158.7682 C   0  0  0  0  0  0  0  0  0  0  0  0
  151.9795  144.4035  159.7683 C   0  0  0  0  0  0  0  0  0  0  0  0
  152.8061  143.2854  159.9825 C   0  0  0  0  0  0  0  0  0  0  0  0
  152.6557  142.1248  159.1968 C   0  0  0  0  0  0  0  0  0  0  0  0
  153.6855  140.7742  159.5235 Cl  0  0  0  0  0  0  0  0  0  0  0  0
  149.0310  141.3004  154.9152 C   0  0  0  0  0  0  0  0  0  0  0  0
  147.9254  140.7673  154.3608 C   0  0  0  0  0  0  0  0  0  0  0  0
  146.5460  141.7458  154.0073 Cl  0  0  0  0  0  0  0  0  0  0  0  0
  152.2388  141.0660  155.2756 H   0  0  0  0  0  0  0  0  0  0  0  0
  151.1153  142.2834  155.7563 H   0  0  0  0  0  0  0  0  0  0  0  0
  150.6064  140.2863  157.6681 H   0  0  0  0  0  0  0  0  0  0  0  0
  152.2988  139.0871  157.1356 H   0  0  0  0  0  0  0  0  0  0  0  0
  150.0663  143.1902  157.2235 H   0  0  0  0  0  0  0  0  0  0  0  0
  150.3503  145.2156  158.6064 H   0  0  0  0  0  0  0  0  0  0  0  0
  152.0991  145.2891  160.3745 H   0  0  0  0  0  0  0  0  0  0  0  0
  153.5576  143.3176  160.7576 H   0  0  0  0  0  0  0  0  0  0  0  0
  149.1152  142.3474  155.1671 H   0  0  0  0  0  0  0  0  0  0  0  0
  1  2  2  0  0  0  0
  2 18  1  0  0  0  0
  2  3  1  0  0  0  0
  3  4  1  0  0  0  0
  4  5  2  0  0  0  0
  4  6  1  0  0  0  0
  6  7  1  0  0  0  0
  6 17  1  0  0  0  0
  7  8  1  0  0  0  0
  7 20  1  0  0  0  0
  7 21  1  0  0  0  0
  8  9  1  0  0  0  0
  8 10  1  0  0  0  0
  8 22  1  0  0  0  0
  9 23  1  0  0  0  0
 10 15  1  0  0  0  0
 10 11  2  0  0  0  0
 11 12  1  0  0  0  0
 11 24  1  0  0  0  0
 12 13  2  0  0  0  0
 12 25  1  0  0  0  0
 13 14  1  0  0  0  0
 13 26  1  0  0  0  0
 14 15  2  0  0  0  0
 14 27  1  0  0  0  0
 15 16  1  0  0  0  0
 17 18  2  0  0  0  0
 17 28  1  0  0  0  0
 18 19  1  0  0  0  0
M  CHG  1   3  -1
M  END
> <s_m_source_file>
AV-unprocessed.smi

> <i_m_source_file_index>
675

> <i_lp_mmshare_version>
43012

> <i_f3d_flags>
0

> <s_epik_input>
Tz1jMVtuSF1jKD1PKW4oW2NIXWMxQ2wpW0NIMl1bQ0BIXShbT0hdKWMyW2NIXVtjSF1bY0hdW2NIXWMyQ2w=

> <s_epik_cmdline>
J2VwaWtfcHl0aG9uJywgJy1waCcsICc3LjAnLCAnLXRuJywgJzgnLCAnLW1hJywgJzIwMCcsICctbWV0YWxfYmluZGluZycsICctaW1hZScsICc8aW5maWxlLm1hZT4nLCAnLW9tYWUnLCAnPG91dGZpbGUubWFlPic=

> <r_epik_Ionization_Penalty>
1.79791

> <r_epik_Ionization_Penalty_Charging>
3.23819e-08

> <r_epik_Ionization_Penalty_Neutral>
1.79791

> <r_epik_State_Penalty>
1.91135

> <r_epik_Charging_Adjusted_Penalty>
1.91135

> <i_epik_Tot_Q>
-1

> <i_epik_Tot_abs_Q>
1

> <r_epik_Metal_State_Penalty>
0.014155

> <b_epik_Metal_Only>
0

> <s_lp_Force_Field>
OPLS_2005

> <r_lp_Energy>
23.2972

> <b_lp_Chiralities_Consistent>
1

> <s_lp_Variant>
AV-unprocessed.smi:675-4

> <Gold.Version>
5.8.1

> <Gold.Id.Protein>
6NUR|6NUR_protein|mol2

> <Gold.PLP.Fitness>
44.1904

> <Gold.PLP.PLP>
-40.4623

> <Gold.PLP.part.hbond>
-1.0000

> <Gold.PLP.part.metal>
0.0000

> <Gold.PLP.part.buried>
-4.3170

> <Gold.PLP.part.nonpolar>
-35.2093

> <Gold.PLP.part.repulsive>
0.4222

> <Gold.PLP.ligand.clash>
0.0000

> <Gold.PLP.ligand.torsion>
1.1408

> <Gold.PLP.Chemscore.Hbond>
1.0000

> <Gold.PLP.Chemscore.CHOScore>
1.0000

> <Gold.PLP.Chemscore.Metal>
0.0000

> <Gold.Chemscore.Hbonds>
donor molecule, donor type, donor heavy atom, donor atom, acceptor molecule, acceptor atom, score
      P1  H  7997  8008       L1     9  1.00
      L1  C    17    28       P1  8028  1.00

> <Gold.PLP.Chemscore.Internal.Correction>
0.0097

> <Gold.Rescore>
     Score         DG    S(hbond)    S(metal)    S(lipo)     H(rot)  DE(clash)    DE(int)     intcor
     13.15     -16.02       0.91        0.00     110.80       2.13       0.05       2.83       ----

> <Gold.Chemscore.Fitness>
13.1459

> <Gold.Chemscore.DG>
-16.0209

> <Gold.Chemscore.ZeroCoef>
-5.4800

> <Gold.Chemscore.Hbond>
0.9055

> <Gold.Chemscore.Metal>
0.0000

> <Gold.Chemscore.Lipo>
110.7997

> <Gold.Chemscore.Internal_Hbond>
0.0000

> <Gold.Chemscore.DEClash>
0.0491

> <Gold.Chemscore.DEInternal>
2.8259

> <Gold.Chemscore.Rot>
2.1278

> <Gold.Chemscore.Internal.Correction>
   9.000000E+99

> <Gold.Chemscore.Hbonds>
donor molecule, donor type, donor heavy atom, donor atom, acceptor molecule, acceptor atom, score
      P1  H  7997  8008       L1     9  0.39

> <Gold.Chemscore.Hbond.Weighted>
-3.0243

> <Gold.Chemscore.Metal.Weighted>
-0.0000

> <Gold.Chemscore.Lipo.Weighted>
-12.9636

> <Gold.Chemscore.Internal_Hbond.Weighted>
0.0000

> <Gold.Chemscore.DEClash.Weighted>
0.0491

> <Gold.Chemscore.DEInternal.Weighted>
2.8259

> <Gold.Chemscore.Rot.Weighted>
5.4470

> <Gold.Chemscore.Internal.Correction.Weighted>
   9.000000E+99

> <Gold.Protein.RotatedTorsions>
[ 6907 6896 6895 6894 ] final   53.01 input  -60.11 | X-H torsion
[ 7974 7965 7964 7962 ] final -116.07 input  175.53 | X-H torsion
[ 8008 7997 7996 7995 ] final  -65.02 input   59.86 | X-H torsion
[ 10167 10162 10161 10158 ] final -164.05 input  -65.29 | X-H torsion
[ 10718 10713 10712 10709 ] final  124.98 input   66.30 | X-H torsion
[ 10763 10752 10751 10750 ] final   18.34 input  -60.55 | X-H torsion
[ 11005 11000 10999 10996 ] final  -74.92 input  -57.11 | X-H torsion

> <Gold.Protein.ActiveResidues>
 VAL166  LYS551  ARG553  GLY616  TRP617  ASP618  TYR619  PRO620  LYS621  CYS622 
 ASP623  PHE694  ASN695  SER759  ASP760  ASP761  ALA762  ILE779  LEU786  VAL792 
 PHE793  MET794  SER795  GLU796  ALA797  LYS798  CYS799  TRP800  GLU811  SER814 

> <Gold.Protein.RotatedAtoms>
  152.3293  134.7280  160.0293 H   0  0  0  0  0  0  0  0  0  0  0  0  # atno 6907 bound_to 6896
  151.7702  133.3335  159.3450 H   0  0  0  0  0  0  0  0  0  0  0  0  # atno 6908 bound_to 6896
  150.7414  134.5957  159.6055 H   0  0  0  0  0  0  0  0  0  0  0  0  # atno 6909 bound_to 6896
  145.1010  140.8551  143.3926 H   0  0  0  0  0  0  0  0  0  0  0  0  # atno 7974 bound_to 7965
  154.4646  140.0942  156.6986 H   0  0  0  0  0  0  0  0  0  0  0  0  # atno 8008 bound_to 7997
  155.4895  140.3470  155.4334 H   0  0  0  0  0  0  0  0  0  0  0  0  # atno 8009 bound_to 7997
  156.0933  140.1403  156.9552 H   0  0  0  0  0  0  0  0  0  0  0  0  # atno 8010 bound_to 7997
  139.6277  144.0499  152.1989 H   0  0  0  0  0  0  0  0  0  0  0  0  # atno 10167 bound_to 10162
  157.5540  131.1093  150.8653 H   0  0  0  0  0  0  0  0  0  0  0  0  # atno 10718 bound_to 10713
  153.1258  135.6729  153.9260 H   0  0  0  0  0  0  0  0  0  0  0  0  # atno 10763 bound_to 10752
  153.8762  135.3064  155.3445 H   0  0  0  0  0  0  0  0  0  0  0  0  # atno 10764 bound_to 10752
  154.7663  135.4962  153.9641 H   0  0  0  0  0  0  0  0  0  0  0  0  # atno 10765 bound_to 10752
  141.1640  133.6928  156.7437 H   0  0  0  0  0  0  0  0  0  0  0  0  # atno 11005 bound_to 11000
  145.0956  139.2859  143.5712 LP  0  0  0  0  0  0  0  0  0  0  0  0  # atno 17320 bound_to 7965
  146.3529  140.0507  142.8636 LP  0  0  0  0  0  0  0  0  0  0  0  0  # atno 17321 bound_to 7965
  140.0157  144.6190  150.7609 LP  0  0  0  0  0  0  0  0  0  0  0  0  # atno 17342 bound_to 10162
  140.7421  143.2827  151.3552 LP  0  0  0  0  0  0  0  0  0  0  0  0  # atno 17343 bound_to 10162
  156.9169  130.5301  149.5279 LP  0  0  0  0  0  0  0  0  0  0  0  0  # atno 17370 bound_to 10713
  156.0602  130.5656  150.9177 LP  0  0  0  0  0  0  0  0  0  0  0  0  # atno 17371 bound_to 10713
  140.2655  134.8433  157.3799 LP  0  0  0  0  0  0  0  0  0  0  0  0  # atno 17394 bound_to 11000
  140.1570  134.4776  155.7921 LP  0  0  0  0  0  0  0  0  0  0  0  0  # atno 17395 bound_to 11000

$$$$
