AV-unprocessed.smi:1005|AV-procd|sdf|4375|dock3
  -GOLD-   22720 2293D 1   1.00000     0.00000
 Structure written by MMmdl.
 57 59  0  0  0  0  0  0  0  0  3 V2000
  152.1133  144.8503  160.7633 C   0  0  0  0  0  0  0  0  0  0  0  0
  151.8246  143.7334  159.7748 C   0  0  0  0  0  0  0  0  0  0  0  0
  151.0198  144.0201  158.6487 C   0  0  0  0  0  0  0  0  0  0  0  0
  150.7735  142.9782  157.7627 C   0  0  0  0  0  0  0  0  0  0  0  0
  150.0305  142.9358  156.5807 N   0  3  0  0  0  0  0  0  0  0  0  0
  150.0791  141.6791  156.0577 C   0  0  0  0  0  0  0  0  0  0  0  0
  150.8421  140.9190  156.8893 N   0  0  0  0  0  0  0  0  0  0  0  0
  151.2157  139.5012  156.7990 C   0  0  0  0  0  0  0  0  0  0  0  0
  150.4231  138.7401  155.7183 C   0  0  1  0  0  0  0  0  0  0  0  0
  150.7740  139.2464  154.4460 O   0  0  0  0  0  0  0  0  0  0  0  0
  150.7268  137.2282  155.7449 C   0  0  0  0  0  0  0  0  0  0  0  0
  149.7111  136.3995  156.3970 N   0  0  0  0  0  0  0  0  0  0  0  0
  150.0148  134.9818  156.2370 C   0  0  0  0  0  0  0  0  0  0  0  0
  148.9683  134.0890  156.9237 C   0  0  0  0  0  0  0  0  0  0  0  0
  148.8701  134.4458  158.2990 O   0  0  0  0  0  0  0  0  0  0  0  0
  148.5076  135.8098  158.5015 C   0  0  1  0  0  0  0  0  0  0  0  0
  148.3988  136.0496  160.0229 C   0  0  0  0  0  0  0  0  0  0  0  0
  147.2751  135.3193  160.6661 N   0  3  0  0  0  0  0  0  0  0  0  0
  146.9861  135.7587  162.0503 C   0  0  0  0  0  0  0  0  0  0  0  0
  147.4590  133.8528  160.5910 C   0  0  0  0  0  0  0  0  0  0  0  0
  149.5835  136.6888  157.8250 C   0  0  0  0  0  0  0  0  0  0  0  0
  151.2992  141.6877  157.9645 C   0  0  0  0  0  0  0  0  0  0  0  0
  152.0968  141.3881  159.0662 C   0  0  0  0  0  0  0  0  0  0  0  0
  152.3540  142.4330  159.9821 C   0  0  0  0  0  0  0  0  0  0  0  0
  153.2125  142.1334  161.1993 C   0  0  0  0  0  0  0  0  0  0  0  0
  151.6546  145.7888  160.4507 H   0  0  0  0  0  0  0  0  0  0  0  0
  153.1873  145.0184  160.8489 H   0  0  0  0  0  0  0  0  0  0  0  0
  151.7214  144.5999  161.7495 H   0  0  0  0  0  0  0  0  0  0  0  0
  150.6129  145.0073  158.4849 H   0  0  0  0  0  0  0  0  0  0  0  0
  149.5973  141.3455  155.1496 H   0  0  0  0  0  0  0  0  0  0  0  0
  152.2856  139.4544  156.5907 H   0  0  0  0  0  0  0  0  0  0  0  0
  151.0697  139.0488  157.7808 H   0  0  0  0  0  0  0  0  0  0  0  0
  149.3622  138.9274  155.8702 H   0  0  0  0  0  0  0  0  0  0  0  0
  151.2871  138.5930  153.9950 H   0  0  0  0  0  0  0  0  0  0  0  0
  150.8733  136.8921  154.7169 H   0  0  0  0  0  0  0  0  0  0  0  0
  151.6838  137.0617  156.2421 H   0  0  0  0  0  0  0  0  0  0  0  0
  150.0609  134.7297  155.1768 H   0  0  0  0  0  0  0  0  0  0  0  0
  151.0005  134.7650  156.6520 H   0  0  0  0  0  0  0  0  0  0  0  0
  147.9948  134.1916  156.4418 H   0  0  0  0  0  0  0  0  0  0  0  0
  149.2551  133.0403  156.8469 H   0  0  0  0  0  0  0  0  0  0  0  0
  147.5346  135.9716  158.0337 H   0  0  0  0  0  0  0  0  0  0  0  0
  149.3182  135.6866  160.4853 H   0  0  0  0  0  0  0  0  0  0  0  0
  148.3498  137.1149  160.2539 H   0  0  0  0  0  0  0  0  0  0  0  0
  147.8728  135.6824  162.6811 H   0  0  0  0  0  0  0  0  0  0  0  0
  146.2004  135.1461  162.4941 H   0  0  0  0  0  0  0  0  0  0  0  0
  146.6305  136.7883  162.0684 H   0  0  0  0  0  0  0  0  0  0  0  0
  148.3381  133.5403  161.1564 H   0  0  0  0  0  0  0  0  0  0  0  0
  147.5831  133.5276  159.5575 H   0  0  0  0  0  0  0  0  0  0  0  0
  146.5898  133.3328  160.9949 H   0  0  0  0  0  0  0  0  0  0  0  0
  150.5433  136.5257  158.3181 H   0  0  0  0  0  0  0  0  0  0  0  0
  149.3402  137.7367  157.9786 H   0  0  0  0  0  0  0  0  0  0  0  0
  152.5021  140.3992  159.2198 H   0  0  0  0  0  0  0  0  0  0  0  0
  153.5243  141.0889  161.2218 H   0  0  0  0  0  0  0  0  0  0  0  0
  152.6591  142.3350  162.1168 H   0  0  0  0  0  0  0  0  0  0  0  0
  154.1119  142.7495  161.1937 H   0  0  0  0  0  0  0  0  0  0  0  0
  146.4492  135.5232  160.1209 H   0  0  0  0  0  0  0  0  0  0  0  0
  149.5263  143.7056  156.1595 H   0  0  0  0  0  0  0  0  0  0  0  0
  1  2  1  0  0  0  0
  1 26  1  0  0  0  0
  1 27  1  0  0  0  0
  1 28  1  0  0  0  0
  2 24  1  0  0  0  0
  2  3  2  0  0  0  0
  3  4  1  0  0  0  0
  3 29  1  0  0  0  0
  4 22  2  0  0  0  0
  4  5  1  0  0  0  0
  5  6  2  0  0  0  0
  5 57  1  0  0  0  0
  6  7  1  0  0  0  0
  6 30  1  0  0  0  0
  7  8  1  0  0  0  0
  7 22  1  0  0  0  0
  8  9  1  0  0  0  0
  8 31  1  0  0  0  0
  8 32  1  0  0  0  0
  9 10  1  0  0  0  0
  9 11  1  0  0  0  0
  9 33  1  0  0  0  0
 10 34  1  0  0  0  0
 11 12  1  0  0  0  0
 11 35  1  0  0  0  0
 11 36  1  0  0  0  0
 12 21  1  0  0  0  0
 12 13  1  0  0  0  0
 13 14  1  0  0  0  0
 13 37  1  0  0  0  0
 13 38  1  0  0  0  0
 14 15  1  0  0  0  0
 14 39  1  0  0  0  0
 14 40  1  0  0  0  0
 15 16  1  0  0  0  0
 16 17  1  0  0  0  0
 16 21  1  0  0  0  0
 16 41  1  0  0  0  0
 17 18  1  0  0  0  0
 17 42  1  0  0  0  0
 17 43  1  0  0  0  0
 18 19  1  0  0  0  0
 18 20  1  0  0  0  0
 18 56  1  0  0  0  0
 19 44  1  0  0  0  0
 19 45  1  0  0  0  0
 19 46  1  0  0  0  0
 20 47  1  0  0  0  0
 20 48  1  0  0  0  0
 20 49  1  0  0  0  0
 21 50  1  0  0  0  0
 21 51  1  0  0  0  0
 22 23  1  0  0  0  0
 23 24  2  0  0  0  0
 23 52  1  0  0  0  0
 24 25  1  0  0  0  0
 25 53  1  0  0  0  0
 25 54  1  0  0  0  0
 25 55  1  0  0  0  0
M  CHG  1   5   1
M  CHG  1  18   1
M  END
> <s_m_source_file>
AV-unprocessed.smi

> <i_m_source_file_index>
1005

> <i_lp_mmshare_version>
43012

> <i_f3d_flags>
0

> <s_epik_input>
W0NIM11jKFtjSF0xKWMoW0NIM10pW2NIXWMoYzEyKW4oW2NIXW4yKVtDSDJdW0NASF0oW09IXSlbQ0gyXU4zW0NIMl1bQ0gyXU9bQ0BIXShbQ0gyXTMpW0NIMl1OKFtDSDNdKVtDSDNd

> <s_epik_cmdline>
J2VwaWtfcHl0aG9uJywgJy1waCcsICc3LjAnLCAnLXRuJywgJzgnLCAnLW1hJywgJzIwMCcsICctbWV0YWxfYmluZGluZycsICctaW1hZScsICc8aW5maWxlLm1hZT4nLCAnLW9tYWUnLCAnPG91dGZpbGUubWFlPic=

> <r_epik_Ionization_Penalty>
1.3281

> <r_epik_Ionization_Penalty_Charging>
1.21988

> <r_epik_Ionization_Penalty_Neutral>
0.10822

> <r_epik_State_Penalty>
1.32886

> <r_epik_Charging_Adjusted_Penalty>
2.54875

> <i_epik_Tot_Q>
2

> <i_epik_Tot_abs_Q>
2

> <r_epik_Metal_State_Penalty>
5.33912

> <b_epik_Metal_Only>
0

> <s_lp_Force_Field>
OPLS_2005

> <r_lp_Energy>
45.907

> <b_lp_Chiralities_Consistent>
1

> <s_lp_Variant>
AV-unprocessed.smi:1005-14

> <Gold.Version>
5.8.1

> <Gold.Id.Protein>
6NUR|6NUR_protein|mol2

> <Gold.PLP.Fitness>
57.8674

> <Gold.PLP.PLP>
-47.1969

> <Gold.PLP.part.hbond>
-2.8883

> <Gold.PLP.part.metal>
0.0000

> <Gold.PLP.part.buried>
-7.2167

> <Gold.PLP.part.nonpolar>
-37.9266

> <Gold.PLP.part.repulsive>
0.1910

> <Gold.PLP.ligand.clash>
0.0081

> <Gold.PLP.ligand.torsion>
0.7996

> <Gold.PLP.Chemscore.Hbond>
4.0000

> <Gold.PLP.Chemscore.CHOScore>
0.0000

> <Gold.PLP.Chemscore.Metal>
0.0000

> <Gold.Chemscore.Hbonds>
donor molecule, donor type, donor heavy atom, donor atom, acceptor molecule, acceptor atom, score
      L1  H     5    57       P1  8028  0.85
      P1  H  6896  6907       L1    15  0.80
      P1  H  7989  7998       L1    10  0.69

> <Gold.PLP.Chemscore.Internal.Correction>
0.2778

> <Gold.Rescore>
     Score         DG    S(hbond)    S(metal)    S(lipo)     H(rot)  DE(clash)    DE(int)     intcor
     20.44     -23.17       2.63        0.00     130.71       2.49       0.47       2.26       ----

> <Gold.Chemscore.Fitness>
20.4382

> <Gold.Chemscore.DG>
-23.1685

> <Gold.Chemscore.ZeroCoef>
-5.4800

> <Gold.Chemscore.Hbond>
2.6255

> <Gold.Chemscore.Metal>
0.0000

> <Gold.Chemscore.Lipo>
130.7088

> <Gold.Chemscore.Internal_Hbond>
0.0000

> <Gold.Chemscore.DEClash>
0.4749

> <Gold.Chemscore.DEInternal>
2.2554

> <Gold.Chemscore.Rot>
2.4897

> <Gold.Chemscore.Internal.Correction>
   9.000000E+99

> <Gold.Chemscore.Hbonds>
donor molecule, donor type, donor heavy atom, donor atom, acceptor molecule, acceptor atom, score
      L1  H     5    57       P1  8028  0.41
      P1  H  6896  6907       L1    15  0.45
      P1  H  7989  7998       L1    10  0.08

> <Gold.Chemscore.Hbond.Weighted>
-8.7692

> <Gold.Chemscore.Metal.Weighted>
-0.0000

> <Gold.Chemscore.Lipo.Weighted>
-15.2929

> <Gold.Chemscore.Internal_Hbond.Weighted>
0.0000

> <Gold.Chemscore.DEClash.Weighted>
0.4749

> <Gold.Chemscore.DEInternal.Weighted>
2.2554

> <Gold.Chemscore.Rot.Weighted>
6.3737

> <Gold.Chemscore.Internal.Correction.Weighted>
   9.000000E+99

> <Gold.Protein.RotatedTorsions>
[ 6907 6896 6895 6894 ] final -102.70 input  -60.11 | X-H torsion
[ 7974 7965 7964 7962 ] final  152.06 input  175.53 | X-H torsion
[ 8008 7997 7996 7995 ] final  -37.83 input   59.86 | X-H torsion
[ 10167 10162 10161 10158 ] final -171.44 input  -65.29 | X-H torsion
[ 10718 10713 10712 10709 ] final  -64.15 input   66.30 | X-H torsion
[ 10763 10752 10751 10750 ] final  -96.59 input  -60.55 | X-H torsion
[ 11005 11000 10999 10996 ] final  154.24 input  -57.11 | X-H torsion

> <Gold.Protein.ActiveResidues>
 VAL166  LYS551  ARG553  GLY616  TRP617  ASP618  TYR619  PRO620  LYS621  CYS622 
 ASP623  PHE694  ASN695  SER759  ASP760  ASP761  ALA762  ILE779  LEU786  VAL792 
 PHE793  MET794  SER795  GLU796  ALA797  LYS798  CYS799  TRP800  GLU811  SER814 

> <Gold.Protein.RotatedAtoms>
  150.7207  134.0541  159.3808 H   0  0  0  0  0  0  0  0  0  0  0  0  # atno 6907 bound_to 6896
  151.8519  135.0552  160.0469 H   0  0  0  0  0  0  0  0  0  0  0  0  # atno 6908 bound_to 6896
  152.2784  133.5411  159.5519 H   0  0  0  0  0  0  0  0  0  0  0  0  # atno 6909 bound_to 6896
  144.8249  139.6619  143.6084 H   0  0  0  0  0  0  0  0  0  0  0  0  # atno 7974 bound_to 7965
  154.4047  140.1594  156.2600 H   0  0  0  0  0  0  0  0  0  0  0  0  # atno 8008 bound_to 7997
  155.9045  140.3431  155.6029 H   0  0  0  0  0  0  0  0  0  0  0  0  # atno 8009 bound_to 7997
  155.7409  140.0792  157.2236 H   0  0  0  0  0  0  0  0  0  0  0  0  # atno 8010 bound_to 7997
  139.5802  144.1440  152.1505 H   0  0  0  0  0  0  0  0  0  0  0  0  # atno 10167 bound_to 10162
  156.0746  130.4230  150.1379 H   0  0  0  0  0  0  0  0  0  0  0  0  # atno 10718 bound_to 10713
  154.7253  135.5078  153.8876 H   0  0  0  0  0  0  0  0  0  0  0  0  # atno 10763 bound_to 10752
  153.0899  135.6656  153.9883 H   0  0  0  0  0  0  0  0  0  0  0  0  # atno 10764 bound_to 10752
  153.9697  135.3039  155.3407 H   0  0  0  0  0  0  0  0  0  0  0  0  # atno 10765 bound_to 10752
  140.1471  134.8700  157.2407 H   0  0  0  0  0  0  0  0  0  0  0  0  # atno 11005 bound_to 11000
  146.2554  139.6291  142.9398 LP  0  0  0  0  0  0  0  0  0  0  0  0  # atno 17320 bound_to 7965
  145.5023  141.0437  143.2533 LP  0  0  0  0  0  0  0  0  0  0  0  0  # atno 17321 bound_to 7965
  140.0991  144.5555  150.7001 LP  0  0  0  0  0  0  0  0  0  0  0  0  # atno 17342 bound_to 10162
  140.7081  143.2484  151.4664 LP  0  0  0  0  0  0  0  0  0  0  0  0  # atno 17343 bound_to 10162
  156.9423  130.9748  151.3514 LP  0  0  0  0  0  0  0  0  0  0  0  0  # atno 17370 bound_to 10713
  157.5835  130.8393  149.8557 LP  0  0  0  0  0  0  0  0  0  0  0  0  # atno 17371 bound_to 10713
  140.2650  134.3527  155.7393 LP  0  0  0  0  0  0  0  0  0  0  0  0  # atno 17394 bound_to 11000
  141.2194  133.7391  156.9137 LP  0  0  0  0  0  0  0  0  0  0  0  0  # atno 17395 bound_to 11000

$$$$
