AV-unprocessed.smi:1254|AV-procd|sdf|5276|dock9
  -GOLD-   22720 4393D 1   1.00000     0.00000
 Structure written by MMmdl.
 45 46  0  0  0  0  0  0  0  0  3 V2000
  151.1623  141.1734  155.8229 C   0  0  0  0  0  0  0  0  0  0  0  0
  151.4476  139.7738  155.3966 C   0  0  0  0  0  0  0  0  0  0  0  0
  150.6441  138.6965  155.1515 C   0  0  0  0  0  0  0  0  0  0  0  0
  151.5681  137.6768  154.7940 C   0  0  0  0  0  0  0  0  0  0  0  0
  151.2595  136.4170  154.4488 N   0  5  0  0  0  0  0  0  0  0  0  0
  150.3787  135.7052  155.1882 C   0  0  0  0  0  0  0  0  0  0  0  0
  150.5738  135.2366  156.3121 O   0  0  0  0  0  0  0  0  0  0  0  0
  149.1969  135.5209  154.5865 N   0  0  0  0  0  0  0  0  0  0  0  0
  148.0793  134.7749  155.1480 C   0  0  0  0  0  0  0  0  0  0  0  0
  146.9318  134.6742  154.1340 C   0  0  1  0  0  0  0  0  0  0  0  0
  145.9784  133.5069  154.4635 C   0  0  0  0  0  0  0  0  0  0  0  0
  144.8334  133.4616  153.5216 N   0  3  2  0  0  0  0  0  0  0  0  0
  145.1740  132.8865  152.1920 C   0  0  0  0  0  0  0  0  0  0  0  0
  145.3341  131.3513  152.2281 C   0  0  0  0  0  0  0  0  0  0  0  0
  146.5653  130.9231  153.0444 C   0  0  0  0  0  0  0  0  0  0  0  0
  145.4121  130.7823  150.8036 C   0  0  0  0  0  0  0  0  0  0  0  0
  144.1494  134.7789  153.4715 C   0  0  0  0  0  0  0  0  0  0  0  0
  145.1464  135.9238  153.2076 C   0  0  0  0  0  0  0  0  0  0  0  0
  146.1869  135.8877  154.1758 O   0  0  0  0  0  0  0  0  0  0  0  0
  152.8201  138.1030  154.8037 N   0  0  0  0  0  0  0  0  0  0  0  0
  152.7521  139.4449  155.1967 O   0  0  0  0  0  0  0  0  0  0  0  0
  150.3975  141.6215  155.1887 H   0  0  0  0  0  0  0  0  0  0  0  0
  152.0569  141.7936  155.7613 H   0  0  0  0  0  0  0  0  0  0  0  0
  150.8054  141.1969  156.8525 H   0  0  0  0  0  0  0  0  0  0  0  0
  149.5679  138.6440  155.2211 H   0  0  0  0  0  0  0  0  0  0  0  0
  149.0715  135.9238  153.6695 H   0  0  0  0  0  0  0  0  0  0  0  0
  148.4210  133.7742  155.4177 H   0  0  0  0  0  0  0  0  0  0  0  0
  147.7392  135.2583  156.0650 H   0  0  0  0  0  0  0  0  0  0  0  0
  147.3546  134.5365  153.1369 H   0  0  0  0  0  0  0  0  0  0  0  0
  146.5110  132.5550  154.4616 H   0  0  0  0  0  0  0  0  0  0  0  0
  145.5846  133.6329  155.4733 H   0  0  0  0  0  0  0  0  0  0  0  0
  144.4204  133.1737  151.4586 H   0  0  0  0  0  0  0  0  0  0  0  0
  146.1122  133.3159  151.8381 H   0  0  0  0  0  0  0  0  0  0  0  0
  144.4537  130.9101  152.6944 H   0  0  0  0  0  0  0  0  0  0  0  0
  147.4835  131.3333  152.6228 H   0  0  0  0  0  0  0  0  0  0  0  0
  146.6652  129.8375  153.0619 H   0  0  0  0  0  0  0  0  0  0  0  0
  146.4955  131.2575  154.0795 H   0  0  0  0  0  0  0  0  0  0  0  0
  146.2797  131.1690  150.2679 H   0  0  0  0  0  0  0  0  0  0  0  0
  144.5231  131.0393  150.2269 H   0  0  0  0  0  0  0  0  0  0  0  0
  145.4887  129.6946  150.8181 H   0  0  0  0  0  0  0  0  0  0  0  0
  143.3537  134.7847  152.7278 H   0  0  0  0  0  0  0  0  0  0  0  0
  143.6654  134.9438  154.4349 H   0  0  0  0  0  0  0  0  0  0  0  0
  145.5661  135.8677  152.2023 H   0  0  0  0  0  0  0  0  0  0  0  0
  144.6359  136.8844  153.2787 H   0  0  0  0  0  0  0  0  0  0  0  0
  144.1758  132.8095  153.9249 H   0  0  0  0  0  0  0  0  0  0  0  0
  1  2  1  0  0  0  0
  1 22  1  0  0  0  0
  1 23  1  0  0  0  0
  1 24  1  0  0  0  0
  2 21  1  0  0  0  0
  2  3  2  0  0  0  0
  3  4  1  0  0  0  0
  3 25  1  0  0  0  0
  4  5  1  0  0  0  0
  4 20  2  0  0  0  0
  5  6  1  0  0  0  0
  6  7  2  0  0  0  0
  6  8  1  0  0  0  0
  8  9  1  0  0  0  0
  8 26  1  0  0  0  0
  9 10  1  0  0  0  0
  9 27  1  0  0  0  0
  9 28  1  0  0  0  0
 10 19  1  0  0  0  0
 10 11  1  0  0  0  0
 10 29  1  0  0  0  0
 11 12  1  0  0  0  0
 11 30  1  0  0  0  0
 11 31  1  0  0  0  0
 12 13  1  0  0  0  0
 12 17  1  0  0  0  0
 12 45  1  0  0  0  0
 13 14  1  0  0  0  0
 13 32  1  0  0  0  0
 13 33  1  0  0  0  0
 14 15  1  0  0  0  0
 14 16  1  0  0  0  0
 14 34  1  0  0  0  0
 15 35  1  0  0  0  0
 15 36  1  0  0  0  0
 15 37  1  0  0  0  0
 16 38  1  0  0  0  0
 16 39  1  0  0  0  0
 16 40  1  0  0  0  0
 17 18  1  0  0  0  0
 17 41  1  0  0  0  0
 17 42  1  0  0  0  0
 18 19  1  0  0  0  0
 18 43  1  0  0  0  0
 18 44  1  0  0  0  0
 20 21  1  0  0  0  0
M  CHG  1   5  -1
M  CHG  1  12   1
M  END
> <s_m_source_file>
AV-unprocessed.smi

> <i_m_source_file_index>
1254

> <i_lp_mmshare_version>
43012

> <i_f3d_flags>
0

> <s_epik_input>
W0NIM11jMVtjSF1jKG5vMSlbTkhdQyg9TylbTkhdW0NIMl1bQ0BASF0yW0NIMl1OKFtDSDJdW0NIMl1PMilbQ0gyXVtDSF0oW0NIM10pW0NIM10=

> <s_epik_cmdline>
J2VwaWtfcHl0aG9uJywgJy1waCcsICc3LjAnLCAnLXRuJywgJzgnLCAnLW1hJywgJzIwMCcsICctbWV0YWxfYmluZGluZycsICctaW1hZScsICc8aW5maWxlLm1hZT4nLCAnLW9tYWUnLCAnPG91dGZpbGUubWFlPic=

> <r_epik_Ionization_Penalty>
6.33139

> <r_epik_Ionization_Penalty_Charging>
6.33128

> <r_epik_Ionization_Penalty_Neutral>
0.000104968

> <r_epik_State_Penalty>
6.32522

> <r_epik_Charging_Adjusted_Penalty>
12.6565

> <i_epik_Tot_Q>
0

> <i_epik_Tot_abs_Q>
2

> <r_epik_Metal_State_Penalty>
2.26285

> <b_epik_Metal_Only>
1

> <s_lp_Force_Field>
OPLS_2005

> <r_lp_Energy>
8.57964

> <b_lp_Chiralities_Consistent>
1

> <s_lp_Variant>
AV-unprocessed.smi:1254-8

> <Gold.Version>
5.8.1

> <Gold.Id.Protein>
6NUR|6NUR_protein|mol2

> <Gold.PLP.Fitness>
42.8302

> <Gold.PLP.PLP>
-27.6513

> <Gold.PLP.part.hbond>
-5.2001

> <Gold.PLP.part.metal>
0.0000

> <Gold.PLP.part.buried>
-5.5568

> <Gold.PLP.part.nonpolar>
-17.8230

> <Gold.PLP.part.repulsive>
1.3527

> <Gold.PLP.ligand.clash>
0.0000

> <Gold.PLP.ligand.torsion>
1.5007

> <Gold.PLP.Chemscore.Hbond>
6.0000

> <Gold.PLP.Chemscore.CHOScore>
0.0000

> <Gold.PLP.Chemscore.Metal>
0.0000

> <Gold.Chemscore.Hbonds>
donor molecule, donor type, donor heavy atom, donor atom, acceptor molecule, acceptor atom, score
      L1  H     8    26       P1  7948  1.00
      L1  H    12    45       P1 10957  2.00
      P1  H  7997  8008       L1    21  1.00
      P1  H 10752 10764       L1     5  2.00

> <Gold.PLP.Chemscore.Internal.Correction>
0.1803

> <Gold.Rescore>
     Score         DG    S(hbond)    S(metal)    S(lipo)     H(rot)  DE(clash)    DE(int)     intcor
     16.87     -18.64       3.18        0.00      58.62       1.69       0.12       1.65       ----

> <Gold.Chemscore.Fitness>
16.8746

> <Gold.Chemscore.DG>
-18.6399

> <Gold.Chemscore.ZeroCoef>
-5.4800

> <Gold.Chemscore.Hbond>
3.1840

> <Gold.Chemscore.Metal>
0.0000

> <Gold.Chemscore.Lipo>
58.6198

> <Gold.Chemscore.Internal_Hbond>
0.0000

> <Gold.Chemscore.DEClash>
0.1183

> <Gold.Chemscore.DEInternal>
1.6469

> <Gold.Chemscore.Rot>
1.6926

> <Gold.Chemscore.Internal.Correction>
   9.000000E+99

> <Gold.Chemscore.Hbonds>
donor molecule, donor type, donor heavy atom, donor atom, acceptor molecule, acceptor atom, score
      L1  H     8    26       P1  7948  0.91
      L1  H    12    45       P1 10957  0.81
      P1  H  7997  8008       L1    21  0.88
      P1  H 10752 10764       L1     5  0.30

> <Gold.Chemscore.Hbond.Weighted>
-10.6344

> <Gold.Chemscore.Metal.Weighted>
-0.0000

> <Gold.Chemscore.Lipo.Weighted>
-6.8585

> <Gold.Chemscore.Internal_Hbond.Weighted>
0.0000

> <Gold.Chemscore.DEClash.Weighted>
0.1183

> <Gold.Chemscore.DEInternal.Weighted>
1.6469

> <Gold.Chemscore.Rot.Weighted>
4.3330

> <Gold.Chemscore.Internal.Correction.Weighted>
   9.000000E+99

> <Gold.Protein.RotatedTorsions>
[ 6907 6896 6895 6894 ] final   -5.15 input  -60.11 | X-H torsion
[ 7974 7965 7964 7962 ] final   73.14 input  175.53 | X-H torsion
[ 8008 7997 7996 7995 ] final  -35.33 input   59.86 | X-H torsion
[ 10167 10162 10161 10158 ] final -115.23 input  -65.29 | X-H torsion
[ 10718 10713 10712 10709 ] final -170.70 input   66.30 | X-H torsion
[ 10763 10752 10751 10750 ] final  -72.25 input  -60.55 | X-H torsion
[ 11005 11000 10999 10996 ] final -130.69 input  -57.11 | X-H torsion

> <Gold.Protein.ActiveResidues>
 VAL166  LYS551  ARG553  GLY616  TRP617  ASP618  TYR619  PRO620  LYS621  CYS622 
 ASP623  PHE694  ASN695  SER759  ASP760  ASP761  ALA762  ILE779  LEU786  VAL792 
 PHE793  MET794  SER795  GLU796  ALA797  LYS798  CYS799  TRP800  GLU811  SER814 

> <Gold.Protein.RotatedAtoms>
  151.4862  135.1055  159.9790 H   0  0  0  0  0  0  0  0  0  0  0  0  # atno 6907 bound_to 6896
  152.4759  133.8134  159.7026 H   0  0  0  0  0  0  0  0  0  0  0  0  # atno 6908 bound_to 6896
  150.8797  133.7327  159.2962 H   0  0  0  0  0  0  0  0  0  0  0  0  # atno 6909 bound_to 6896
  145.7446  139.2735  143.1466 H   0  0  0  0  0  0  0  0  0  0  0  0  # atno 7974 bound_to 7965
  154.4098  140.1660  156.2193 H   0  0  0  0  0  0  0  0  0  0  0  0  # atno 8008 bound_to 7997
  155.9377  140.3410  155.6278 H   0  0  0  0  0  0  0  0  0  0  0  0  # atno 8009 bound_to 7997
  155.7028  140.0747  157.2394 H   0  0  0  0  0  0  0  0  0  0  0  0  # atno 8010 bound_to 7997
  140.0924  143.4688  152.1862 H   0  0  0  0  0  0  0  0  0  0  0  0  # atno 10167 bound_to 10162
  156.7300  130.9303  151.3104 H   0  0  0  0  0  0  0  0  0  0  0  0  # atno 10718 bound_to 10713
  154.4431  135.5936  153.6142 H   0  0  0  0  0  0  0  0  0  0  0  0  # atno 10763 bound_to 10752
  152.9807  135.6003  154.3698 H   0  0  0  0  0  0  0  0  0  0  0  0  # atno 10764 bound_to 10752
  154.3550  135.2841  155.2330 H   0  0  0  0  0  0  0  0  0  0  0  0  # atno 10765 bound_to 10752
  140.9324  134.1302  157.4223 H   0  0  0  0  0  0  0  0  0  0  0  0  # atno 11005 bound_to 11000
  146.0415  140.8160  142.9826 LP  0  0  0  0  0  0  0  0  0  0  0  0  # atno 17320 bound_to 7965
  144.6863  140.2917  143.7277 LP  0  0  0  0  0  0  0  0  0  0  0  0  # atno 17321 bound_to 7965
  139.5717  144.7466  151.3872 LP  0  0  0  0  0  0  0  0  0  0  0  0  # atno 17342 bound_to 10162
  140.7022  143.7604  150.7421 LP  0  0  0  0  0  0  0  0  0  0  0  0  # atno 17343 bound_to 10162
  157.6863  130.9188  150.0394 LP  0  0  0  0  0  0  0  0  0  0  0  0  # atno 17370 bound_to 10713
  156.1535  130.3643  149.9403 LP  0  0  0  0  0  0  0  0  0  0  0  0  # atno 17371 bound_to 10713
  139.8799  135.0009  156.6039 LP  0  0  0  0  0  0  0  0  0  0  0  0  # atno 17394 bound_to 11000
  140.7845  133.8633  155.8595 LP  0  0  0  0  0  0  0  0  0  0  0  0  # atno 17395 bound_to 11000

$$$$
