AV-unprocessed.smi:3002|AV-procd|sdf|11435|dock8
  -GOLD-   2272016363D 1   1.00000     0.00000
 Structure written by MMmdl.
 34 35  0  0  0  0  0  0  0  0  1 V2000
  148.9493  140.9552  154.4212 C   0  0  0  0  0  0  0  0  0  0  0  0
  149.0872  139.4544  154.0925 C   0  0  2  0  0  0  0  0  0  0  0  0
  148.0313  138.5879  154.7963 C   0  0  0  0  0  0  0  0  0  0  0  0
  147.3788  139.0324  155.7415 O   0  0  0  0  0  0  0  0  0  0  0  0
  147.8985  137.3326  154.3382 N   0  0  0  0  0  0  0  0  0  0  0  0
  147.0612  136.2969  154.9338 C   0  0  0  0  0  0  0  0  0  0  0  0
  147.9056  135.1240  155.4699 C   0  0  1  0  0  0  0  0  0  0  0  0
  148.7111  134.3787  154.3831 C   0  0  0  0  0  0  0  0  0  0  0  0
  149.7128  133.4433  155.0664 C   0  0  0  0  0  0  0  0  0  0  0  0
  150.2085  134.2911  156.6116 S   0  0  0  0  0  0  0  0  0  0  0  0
  149.9711  133.3894  157.7490 O   0  0  0  0  0  0  0  0  0  0  0  0
  151.5140  134.9405  156.4196 O   0  0  0  0  0  0  0  0  0  0  0  0
  148.8947  135.5685  156.5585 C   0  0  0  0  0  0  0  0  0  0  0  0
  150.4211  138.9459  154.3912 N   0  0  0  0  0  0  0  0  0  0  0  0
  150.9107  137.7084  154.2859 C   0  0  0  0  0  0  0  0  0  0  0  0
  152.1616  137.5858  154.7069 N   0  0  0  0  0  0  0  0  0  0  0  0
  152.3990  138.8739  155.0945 C   0  0  0  0  0  0  0  0  0  0  0  0
  151.3868  139.7266  154.9377 N   0  0  0  0  0  0  0  0  0  0  0  0
  147.9650  141.3306  154.1398 H   0  0  0  0  0  0  0  0  0  0  0  0
  149.6891  141.5412  153.8751 H   0  0  0  0  0  0  0  0  0  0  0  0
  149.0885  141.1575  155.4840 H   0  0  0  0  0  0  0  0  0  0  0  0
  148.9340  139.3431  153.0176 H   0  0  0  0  0  0  0  0  0  0  0  0
  148.4678  137.0558  153.5515 H   0  0  0  0  0  0  0  0  0  0  0  0
  146.4294  136.7070  155.7238 H   0  0  0  0  0  0  0  0  0  0  0  0
  146.3829  135.9347  154.1609 H   0  0  0  0  0  0  0  0  0  0  0  0
  147.2314  134.3963  155.9250 H   0  0  0  0  0  0  0  0  0  0  0  0
  148.0652  133.8243  153.7015 H   0  0  0  0  0  0  0  0  0  0  0  0
  149.2587  135.1060  153.7818 H   0  0  0  0  0  0  0  0  0  0  0  0
  149.2380  132.4996  155.3363 H   0  0  0  0  0  0  0  0  0  0  0  0
  150.5882  133.2317  154.4520 H   0  0  0  0  0  0  0  0  0  0  0  0
  149.3659  136.5164  156.2974 H   0  0  0  0  0  0  0  0  0  0  0  0
  148.4307  135.6710  157.5395 H   0  0  0  0  0  0  0  0  0  0  0  0
  150.3372  136.8777  153.9016 H   0  0  0  0  0  0  0  0  0  0  0  0
  153.3433  139.1909  155.5120 H   0  0  0  0  0  0  0  0  0  0  0  0
  1  2  1  0  0  0  0
  1 19  1  0  0  0  0
  1 20  1  0  0  0  0
  1 21  1  0  0  0  0
  2  3  1  0  0  0  0
  2 14  1  0  0  0  0
  2 22  1  0  0  0  0
  3  4  2  0  0  0  0
  3  5  1  0  0  0  0
  5  6  1  0  0  0  0
  5 23  1  0  0  0  0
  6  7  1  0  0  0  0
  6 24  1  0  0  0  0
  6 25  1  0  0  0  0
  7 13  1  0  0  0  0
  7  8  1  0  0  0  0
  7 26  1  0  0  0  0
  8  9  1  0  0  0  0
  8 27  1  0  0  0  0
  8 28  1  0  0  0  0
  9 10  1  0  0  0  0
  9 29  1  0  0  0  0
  9 30  1  0  0  0  0
 10 11  2  0  0  0  0
 10 12  2  0  0  0  0
 10 13  1  0  0  0  0
 13 31  1  0  0  0  0
 13 32  1  0  0  0  0
 14 18  1  0  0  0  0
 14 15  1  0  0  0  0
 15 16  2  0  0  0  0
 15 33  1  0  0  0  0
 16 17  1  0  0  0  0
 17 18  2  0  0  0  0
 17 34  1  0  0  0  0
M  END
> <s_m_source_file>
AV-unprocessed.smi

> <i_m_source_file_index>
3002

> <i_lp_mmshare_version>
43012

> <i_f3d_flags>
0

> <s_epik_input>
bjFbY0hdbltjSF1uMVtDQEhdKFtDSDNdKUMoPU8pW05IXVtDSDJdW0NAQEhdKFtDSDJdMilbQ0gyXVtDSDJdUzIoPU8pPU8=

> <s_epik_cmdline>
J2VwaWtfcHl0aG9uJywgJy1waCcsICc3LjAnLCAnLXRuJywgJzgnLCAnLW1hJywgJzIwMCcsICctbWV0YWxfYmluZGluZycsICctaW1hZScsICc8aW5maWxlLm1hZT4nLCAnLW9tYWUnLCAnPG91dGZpbGUubWFlPic=

> <r_lp_tautomer_probability>
1

> <r_epik_Ionization_Penalty>
1.1748e-05

> <r_epik_Ionization_Penalty_Charging>
0

> <r_epik_Ionization_Penalty_Neutral>
1.1748e-05

> <r_epik_State_Penalty>
-0

> <r_epik_Charging_Adjusted_Penalty>
0

> <i_epik_Tot_Q>
0

> <i_epik_Tot_abs_Q>
0

> <r_epik_Metal_State_Penalty>
-0

> <b_epik_Metal_Only>
0

> <s_lp_Force_Field>
OPLS_2005

> <r_lp_Energy>
9.21474

> <b_lp_Chiralities_Consistent>
1

> <s_lp_Variant>
AV-unprocessed.smi:3002-3

> <Gold.Version>
5.8.1

> <Gold.Id.Protein>
6NUR|6NUR_protein|mol2

> <Gold.PLP.Fitness>
39.8133

> <Gold.PLP.PLP>
-26.2609

> <Gold.PLP.part.hbond>
-5.0000

> <Gold.PLP.part.metal>
0.0000

> <Gold.PLP.part.buried>
-0.8903

> <Gold.PLP.part.nonpolar>
-21.1713

> <Gold.PLP.part.repulsive>
0.1568

> <Gold.PLP.ligand.clash>
0.0000

> <Gold.PLP.ligand.torsion>
0.3248

> <Gold.PLP.Chemscore.Hbond>
3.7520

> <Gold.PLP.Chemscore.CHOScore>
0.9448

> <Gold.PLP.Chemscore.Metal>
0.0000

> <Gold.Chemscore.Hbonds>
donor molecule, donor type, donor heavy atom, donor atom, acceptor molecule, acceptor atom, score
      L1  H     5    23       P1  7948  1.00
      P1  H  6896  6908       L1    11  0.98
      P1  H  7989  7998       L1    18  0.90
      P1  H 10752 10765       L1    16  0.61
      L1  C    15    33       P1  7948  0.82
      L1  C    15    33       P1  7949  0.15

> <Gold.PLP.Chemscore.Internal.Correction>
0.1116

> <Gold.Rescore>
     Score         DG    S(hbond)    S(metal)    S(lipo)     H(rot)  DE(clash)    DE(int)     intcor
     13.31     -15.05       3.67        0.00      29.42       2.39       0.53       1.21       ----

> <Gold.Chemscore.Fitness>
13.3146

> <Gold.Chemscore.DG>
-15.0528

> <Gold.Chemscore.ZeroCoef>
-5.4800

> <Gold.Chemscore.Hbond>
3.6710

> <Gold.Chemscore.Metal>
0.0000

> <Gold.Chemscore.Lipo>
29.4175

> <Gold.Chemscore.Internal_Hbond>
0.0000

> <Gold.Chemscore.DEClash>
0.5255

> <Gold.Chemscore.DEInternal>
1.2126

> <Gold.Chemscore.Rot>
2.3946

> <Gold.Chemscore.Internal.Correction>
   9.000000E+99

> <Gold.Chemscore.Hbonds>
donor molecule, donor type, donor heavy atom, donor atom, acceptor molecule, acceptor atom, score
      L1  H     5    23       P1  7948  0.99
      P1  H  6896  6908       L1    11  0.90
      P1  H  7989  7998       L1    18  0.15
      P1  H 10752 10765       L1    16  0.52

> <Gold.Chemscore.Hbond.Weighted>
-12.2610

> <Gold.Chemscore.Metal.Weighted>
-0.0000

> <Gold.Chemscore.Lipo.Weighted>
-3.4418

> <Gold.Chemscore.Internal_Hbond.Weighted>
0.0000

> <Gold.Chemscore.DEClash.Weighted>
0.5255

> <Gold.Chemscore.DEInternal.Weighted>
1.2126

> <Gold.Chemscore.Rot.Weighted>
6.1301

> <Gold.Chemscore.Internal.Correction.Weighted>
   9.000000E+99

> <Gold.Protein.RotatedTorsions>
[ 6907 6896 6895 6894 ] final   95.92 input  -60.11 | X-H torsion
[ 7974 7965 7964 7962 ] final  -96.35 input  175.53 | X-H torsion
[ 8008 7997 7996 7995 ] final  -24.63 input   59.86 | X-H torsion
[ 10167 10162 10161 10158 ] final  169.20 input  -65.29 | X-H torsion
[ 10718 10713 10712 10709 ] final   85.28 input   66.30 | X-H torsion
[ 10763 10752 10751 10750 ] final  162.90 input  -60.55 | X-H torsion
[ 11005 11000 10999 10996 ] final  -24.16 input  -57.11 | X-H torsion

> <Gold.Protein.ActiveResidues>
 VAL166  LYS551  ARG553  GLY616  TRP617  ASP618  TYR619  PRO620  LYS621  CYS622 
 ASP623  PHE694  ASN695  SER759  ASP760  ASP761  ALA762  ILE779  LEU786  VAL792 
 PHE793  MET794  SER795  GLU796  ALA797  LYS798  CYS799  TRP800  GLU811  SER814 

> <Gold.Protein.RotatedAtoms>
  152.5439  134.0965  159.8299 H   0  0  0  0  0  0  0  0  0  0  0  0  # atno 6907 bound_to 6896
  151.1048  133.5209  159.2615 H   0  0  0  0  0  0  0  0  0  0  0  0  # atno 6908 bound_to 6896
  151.1950  135.0428  159.8903 H   0  0  0  0  0  0  0  0  0  0  0  0  # atno 6909 bound_to 6896
  145.3480  140.9471  143.2570 H   0  0  0  0  0  0  0  0  0  0  0  0  # atno 7974 bound_to 7965
  154.4518  140.1948  156.0495 H   0  0  0  0  0  0  0  0  0  0  0  0  # atno 8008 bound_to 7997
  156.0665  140.3290  155.7496 H   0  0  0  0  0  0  0  0  0  0  0  0  # atno 8009 bound_to 7997
  155.5331  140.0579  157.2876 H   0  0  0  0  0  0  0  0  0  0  0  0  # atno 8010 bound_to 7997
  139.4986  144.3732  151.9702 H   0  0  0  0  0  0  0  0  0  0  0  0  # atno 10167 bound_to 10162
  157.6912  131.0168  150.2798 H   0  0  0  0  0  0  0  0  0  0  0  0  # atno 10718 bound_to 10713
  154.2855  135.2762  155.2678 H   0  0  0  0  0  0  0  0  0  0  0  0  # atno 10763 bound_to 10752
  154.5180  135.5764  153.6661 H   0  0  0  0  0  0  0  0  0  0  0  0  # atno 10764 bound_to 10752
  152.9922  135.6197  154.3016 H   0  0  0  0  0  0  0  0  0  0  0  0  # atno 10765 bound_to 10752
  140.8819  133.7648  156.0313 H   0  0  0  0  0  0  0  0  0  0  0  0  # atno 11005 bound_to 11000
  144.8739  139.4998  143.6754 LP  0  0  0  0  0  0  0  0  0  0  0  0  # atno 17320 bound_to 7965
  146.2980  139.7337  142.9112 LP  0  0  0  0  0  0  0  0  0  0  0  0  # atno 17321 bound_to 7965
  140.3168  144.3474  150.6019 LP  0  0  0  0  0  0  0  0  0  0  0  0  # atno 17342 bound_to 10162
  140.5755  143.2177  151.7524 LP  0  0  0  0  0  0  0  0  0  0  0  0  # atno 17343 bound_to 10162
  156.3347  130.3806  149.7460 LP  0  0  0  0  0  0  0  0  0  0  0  0  # atno 17370 bound_to 10713
  156.4989  130.8119  151.3124 LP  0  0  0  0  0  0  0  0  0  0  0  0  # atno 17371 bound_to 10713
  140.8451  134.3021  157.5298 LP  0  0  0  0  0  0  0  0  0  0  0  0  # atno 17394 bound_to 11000
  139.8720  134.9437  156.3860 LP  0  0  0  0  0  0  0  0  0  0  0  0  # atno 17395 bound_to 11000

$$$$
