AV-unprocessed.smi:1467|AV-procd|sdf|5955|dock4
  -GOLD-   22720 6 43D 1   1.00000     0.00000
 Structure written by MMmdl.
 40 41  0  0  0  0  0  0  0  0  1 V2000
  151.7014  141.8615  158.1511 C   0  0  0  0  0  0  0  0  0  0  0  0
  151.9280  140.6823  157.2027 C   0  0  0  0  0  0  0  0  0  0  0  0
  152.7379  139.8177  157.5375 O   0  0  0  0  0  0  0  0  0  0  0  0
  151.2397  140.6285  156.0377 N   0  0  0  0  0  0  0  0  0  0  0  0
  150.2198  141.5841  155.5949 C   0  0  0  0  0  0  0  0  0  0  0  0
  148.8633  140.8592  155.4974 C   0  0  0  0  0  0  0  0  0  0  0  0
  148.9516  139.7373  154.5538 N   0  0  0  0  0  0  0  0  0  0  0  0
  147.6807  139.0203  154.4629 C   0  0  0  0  0  0  0  0  0  0  0  0
  147.0355  139.1487  153.0690 C   0  0  0  0  0  0  0  0  0  0  0  0
  146.9811  137.8587  152.3922 N   0  0  0  0  0  0  0  0  0  0  0  0
  145.8561  137.1800  152.1256 C   0  0  0  0  0  0  0  0  0  0  0  0
  144.7321  137.5813  152.4277 O   0  0  0  0  0  0  0  0  0  0  0  0
  146.1205  136.0229  151.4974 N   0  0  0  0  0  0  0  0  0  0  0  0
  145.1859  135.0476  151.0678 C   0  0  0  0  0  0  0  0  0  0  0  0
  145.3554  133.6398  150.9172 C   0  0  0  0  0  0  0  0  0  0  0  0
  144.2397  133.0656  150.4897 N   0  0  0  0  0  0  0  0  0  0  0  0
  143.3639  134.0883  150.3658 N   0  0  0  0  0  0  0  0  0  0  0  0
  143.8982  135.3110  150.7078 C   0  0  0  0  0  0  0  0  0  0  0  0
  149.9934  138.8027  154.9917 C   0  0  0  0  0  0  0  0  0  0  0  0
  151.3537  139.5203  155.0860 C   0  0  0  0  0  0  0  0  0  0  0  0
  142.4161  133.9368  150.0508 H   0  0  0  0  0  0  0  0  0  0  0  0
  150.6626  141.8990  158.4796 H   0  0  0  0  0  0  0  0  0  0  0  0
  151.9546  142.8035  157.6641 H   0  0  0  0  0  0  0  0  0  0  0  0
  152.3277  141.7670  159.0387 H   0  0  0  0  0  0  0  0  0  0  0  0
  150.1189  142.4483  156.2495 H   0  0  0  0  0  0  0  0  0  0  0  0
  150.5028  141.9852  154.6206 H   0  0  0  0  0  0  0  0  0  0  0  0
  148.5578  140.4997  156.4814 H   0  0  0  0  0  0  0  0  0  0  0  0
  148.1092  141.5731  155.1692 H   0  0  0  0  0  0  0  0  0  0  0  0
  147.8614  137.9608  154.6515 H   0  0  0  0  0  0  0  0  0  0  0  0
  146.9998  139.3637  155.2435 H   0  0  0  0  0  0  0  0  0  0  0  0
  146.0284  139.5624  153.1245 H   0  0  0  0  0  0  0  0  0  0  0  0
  147.6193  139.8304  152.4499 H   0  0  0  0  0  0  0  0  0  0  0  0
  147.8619  137.4555  152.1078 H   0  0  0  0  0  0  0  0  0  0  0  0
  147.0906  135.8177  151.3084 H   0  0  0  0  0  0  0  0  0  0  0  0
  146.2228  133.0222  151.0967 H   0  0  0  0  0  0  0  0  0  0  0  0
  143.3322  136.2300  150.6657 H   0  0  0  0  0  0  0  0  0  0  0  0
  149.7285  138.3705  155.9582 H   0  0  0  0  0  0  0  0  0  0  0  0
  150.0681  137.9788  154.2811 H   0  0  0  0  0  0  0  0  0  0  0  0
  151.6472  139.9084  154.1095 H   0  0  0  0  0  0  0  0  0  0  0  0
  152.1246  138.8016  155.3665 H   0  0  0  0  0  0  0  0  0  0  0  0
  1  2  1  0  0  0  0
  1 22  1  0  0  0  0
  1 23  1  0  0  0  0
  1 24  1  0  0  0  0
  2  3  2  0  0  0  0
  2  4  1  0  0  0  0
  4 20  1  0  0  0  0
  4  5  1  0  0  0  0
  5  6  1  0  0  0  0
  5 25  1  0  0  0  0
  5 26  1  0  0  0  0
  6  7  1  0  0  0  0
  6 27  1  0  0  0  0
  6 28  1  0  0  0  0
  7  8  1  0  0  0  0
  7 19  1  0  0  0  0
  8  9  1  0  0  0  0
  8 29  1  0  0  0  0
  8 30  1  0  0  0  0
  9 10  1  0  0  0  0
  9 31  1  0  0  0  0
  9 32  1  0  0  0  0
 10 11  1  0  0  0  0
 10 33  1  0  0  0  0
 11 12  2  0  0  0  0
 11 13  1  0  0  0  0
 13 14  1  0  0  0  0
 13 34  1  0  0  0  0
 14 18  2  0  0  0  0
 14 15  1  0  0  0  0
 15 16  2  0  0  0  0
 15 35  1  0  0  0  0
 16 17  1  0  0  0  0
 17 21  1  0  0  0  0
 17 18  1  0  0  0  0
 18 36  1  0  0  0  0
 19 20  1  0  0  0  0
 19 37  1  0  0  0  0
 19 38  1  0  0  0  0
 20 39  1  0  0  0  0
 20 40  1  0  0  0  0
M  END
> <s_m_source_file>
AV-unprocessed.smi

> <i_m_source_file_index>
1467

> <i_lp_mmshare_version>
43012

> <i_f3d_flags>
0

> <s_epik_input>
W0NIM11DKD1PKU4xW0NIMl1bQ0gyXU4oW0NIMl1bQ0gyXTEpW0NIMl1bQ0gyXVtOSF1DKD1PKVtOSF1jMltjSF1uW25IXVtjSF0y

> <s_epik_cmdline>
J2VwaWtfcHl0aG9uJywgJy1waCcsICc3LjAnLCAnLXRuJywgJzgnLCAnLW1hJywgJzIwMCcsICctbWV0YWxfYmluZGluZycsICctaW1hZScsICc8aW5maWxlLm1hZT4nLCAnLW9tYWUnLCAnPG91dGZpbGUubWFlPic=

> <r_lp_tautomer_probability>
0.5

> <r_epik_Ionization_Penalty>
0.251012

> <r_epik_Ionization_Penalty_Charging>
0

> <r_epik_Ionization_Penalty_Neutral>
0.251012

> <r_epik_State_Penalty>
0.242297

> <r_epik_Charging_Adjusted_Penalty>
0.242297

> <i_epik_Tot_Q>
0

> <i_epik_Tot_abs_Q>
0

> <r_epik_Metal_State_Penalty>
0.242296

> <b_epik_Metal_Only>
0

> <s_lp_Force_Field>
OPLS_2005

> <r_lp_Energy>
35.2163

> <b_lp_Chiralities_Consistent>
1

> <s_lp_Variant>
AV-unprocessed.smi:1467-1

> <Gold.Version>
5.8.1

> <Gold.Id.Protein>
6NUR|6NUR_protein|mol2

> <Gold.PLP.Fitness>
43.8025

> <Gold.PLP.PLP>
-31.7204

> <Gold.PLP.part.hbond>
-3.9075

> <Gold.PLP.part.metal>
0.0000

> <Gold.PLP.part.buried>
-4.6280

> <Gold.PLP.part.nonpolar>
-25.6534

> <Gold.PLP.part.repulsive>
2.1349

> <Gold.PLP.ligand.clash>
0.0000

> <Gold.PLP.ligand.torsion>
1.3121

> <Gold.PLP.Chemscore.Hbond>
3.8960

> <Gold.PLP.Chemscore.CHOScore>
1.0000

> <Gold.PLP.Chemscore.Metal>
0.0000

> <Gold.Chemscore.Hbonds>
donor molecule, donor type, donor heavy atom, donor atom, acceptor molecule, acceptor atom, score
      L1  H    10    33       P1  7948  1.00
      L1  H    13    34       P1  7948  0.91
      L1  H    17    21       P1 10186  1.00
      P1  H  7997  8010       L1     3  1.00
      L1  C    18    36       P1 10171  0.98

> <Gold.PLP.Chemscore.Internal.Correction>
0.0184

> <Gold.Rescore>
     Score         DG    S(hbond)    S(metal)    S(lipo)     H(rot)  DE(clash)    DE(int)     intcor
     18.31     -20.91       3.78        0.00      61.65       1.72       0.21       2.39       ----

> <Gold.Chemscore.Fitness>
18.3097

> <Gold.Chemscore.DG>
-20.9111

> <Gold.Chemscore.ZeroCoef>
-5.4800

> <Gold.Chemscore.Hbond>
3.7763

> <Gold.Chemscore.Metal>
0.0000

> <Gold.Chemscore.Lipo>
61.6491

> <Gold.Chemscore.Internal_Hbond>
0.0000

> <Gold.Chemscore.DEClash>
0.2123

> <Gold.Chemscore.DEInternal>
2.3892

> <Gold.Chemscore.Rot>
1.7167

> <Gold.Chemscore.Internal.Correction>
   9.000000E+99

> <Gold.Chemscore.Hbonds>
donor molecule, donor type, donor heavy atom, donor atom, acceptor molecule, acceptor atom, score
      L1  H    10    33       P1  7948  0.98
      L1  H    13    34       P1  7948  0.88
      L1  H    17    21       P1 10186  0.93
      P1  H  7997  8010       L1     3  0.88

> <Gold.Chemscore.Hbond.Weighted>
-12.6129

> <Gold.Chemscore.Metal.Weighted>
-0.0000

> <Gold.Chemscore.Lipo.Weighted>
-7.2129

> <Gold.Chemscore.Internal_Hbond.Weighted>
0.0000

> <Gold.Chemscore.DEClash.Weighted>
0.2123

> <Gold.Chemscore.DEInternal.Weighted>
2.3892

> <Gold.Chemscore.Rot.Weighted>
4.3947

> <Gold.Chemscore.Internal.Correction.Weighted>
   9.000000E+99

> <Gold.Protein.RotatedTorsions>
[ 6907 6896 6895 6894 ] final  -55.99 input  -60.11 | X-H torsion
[ 7974 7965 7964 7962 ] final  106.47 input  175.53 | X-H torsion
[ 8008 7997 7996 7995 ] final   48.45 input   59.86 | X-H torsion
[ 10167 10162 10161 10158 ] final  155.82 input  -65.29 | X-H torsion
[ 10718 10713 10712 10709 ] final -117.69 input   66.30 | X-H torsion
[ 10763 10752 10751 10750 ] final   72.97 input  -60.55 | X-H torsion
[ 11005 11000 10999 10996 ] final   88.88 input  -57.11 | X-H torsion

> <Gold.Protein.ActiveResidues>
 VAL166  LYS551  ARG553  GLY616  TRP617  ASP618  TYR619  PRO620  LYS621  CYS622 
 ASP623  PHE694  ASN695  SER759  ASP760  ASP761  ALA762  ILE779  LEU786  VAL792 
 PHE793  MET794  SER795  GLU796  ALA797  LYS798  CYS799  TRP800  GLU811  SER814 

> <Gold.Protein.RotatedAtoms>
  150.8205  134.7410  159.6767 H   0  0  0  0  0  0  0  0  0  0  0  0  # atno 6907 bound_to 6896
  152.4321  134.5755  159.9943 H   0  0  0  0  0  0  0  0  0  0  0  0  # atno 6908 bound_to 6896
  151.5940  133.3326  159.3069 H   0  0  0  0  0  0  0  0  0  0  0  0  # atno 6909 bound_to 6896
  145.3062  139.2554  143.3787 H   0  0  0  0  0  0  0  0  0  0  0  0  # atno 7974 bound_to 7965
  155.3858  140.3431  155.4249 H   0  0  0  0  0  0  0  0  0  0  0  0  # atno 8008 bound_to 7997
  156.1585  140.1593  156.8685 H   0  0  0  0  0  0  0  0  0  0  0  0  # atno 8009 bound_to 7997
  154.5117  140.0788  156.7985 H   0  0  0  0  0  0  0  0  0  0  0  0  # atno 8010 bound_to 7997
  139.4821  144.5064  151.8091 H   0  0  0  0  0  0  0  0  0  0  0  0  # atno 10167 bound_to 10162
  156.1052  130.6204  150.9196 H   0  0  0  0  0  0  0  0  0  0  0  0  # atno 10718 bound_to 10713
  153.0492  135.5080  154.7823 H   0  0  0  0  0  0  0  0  0  0  0  0  # atno 10763 bound_to 10752
  154.6699  135.2951  154.9758 H   0  0  0  0  0  0  0  0  0  0  0  0  # atno 10764 bound_to 10752
  154.0580  135.6695  153.4861 H   0  0  0  0  0  0  0  0  0  0  0  0  # atno 10765 bound_to 10752
  139.8887  134.8516  156.3063 H   0  0  0  0  0  0  0  0  0  0  0  0  # atno 11005 bound_to 11000
  146.3134  140.3588  142.8663 LP  0  0  0  0  0  0  0  0  0  0  0  0  # atno 17320 bound_to 7965
  144.9053  140.7692  143.5841 LP  0  0  0  0  0  0  0  0  0  0  0  0  # atno 17321 bound_to 7965
  140.4563  144.1785  150.5902 LP  0  0  0  0  0  0  0  0  0  0  0  0  # atno 17342 bound_to 10162
  140.4532  143.2478  151.9320 LP  0  0  0  0  0  0  0  0  0  0  0  0  # atno 17343 bound_to 10162
  157.6228  131.0928  150.8591 LP  0  0  0  0  0  0  0  0  0  0  0  0  # atno 17370 bound_to 10713
  156.8711  130.5146  149.5296 LP  0  0  0  0  0  0  0  0  0  0  0  0  # atno 17371 bound_to 10713
  140.9880  133.7226  156.0771 LP  0  0  0  0  0  0  0  0  0  0  0  0  # atno 17394 bound_to 11000
  140.7663  134.3883  157.5516 LP  0  0  0  0  0  0  0  0  0  0  0  0  # atno 17395 bound_to 11000

$$$$
