AV-unprocessed.smi:2414|AV-procd|sdf|9539|dock2
  -GOLD-   2272013173D 1   1.00000     0.00000
 Structure written by MMmdl.
 43 44  0  0  0  0  0  0  0  0  1 V2000
  151.4495  141.9790  158.6502 C   0  0  0  0  0  0  0  0  0  0  0  0
  151.0344  141.3131  157.3821 C   0  0  0  0  0  0  0  0  0  0  0  0
  150.7454  141.9082  156.1792 C   0  0  0  0  0  0  0  0  0  0  0  0
  150.3867  141.0064  155.1749 N   0  0  0  0  0  0  0  0  0  0  0  0
  150.3981  139.7389  155.5978 C   0  0  0  0  0  0  0  0  0  0  0  0
  150.0587  138.5676  154.7309 C   0  0  1  0  0  0  0  0  0  0  0  0
  151.3025  137.7227  154.4039 C   0  0  0  0  0  0  0  0  0  0  0  0
  148.8767  137.7583  155.3069 C   0  0  0  0  0  0  0  0  0  0  0  0
  148.3259  136.8083  154.3459 N   0  0  0  0  0  0  0  0  0  0  0  0
  147.1825  136.1288  154.5084 C   0  0  0  0  0  0  0  0  0  0  0  0
  146.4704  136.2054  155.5096 O   0  0  0  0  0  0  0  0  0  0  0  0
  146.9029  135.3681  153.4431 N   0  0  0  0  0  0  0  0  0  0  0  0
  145.7094  134.5419  153.2948 C   0  0  0  0  0  0  0  0  0  0  0  0
  145.7738  133.6537  152.0335 C   0  0  1  0  0  0  0  0  0  0  0  0
  147.1775  133.0426  151.8816 C   0  0  0  0  0  0  0  0  0  0  0  0
  144.6860  132.5610  151.9833 C   0  0  0  0  0  0  0  0  0  0  0  0
  144.2618  132.5646  150.5302 C   0  0  0  0  0  0  0  0  0  0  0  0
  144.3893  134.0407  150.1841 C   0  0  0  0  0  0  0  0  0  0  0  0
  145.5557  134.4668  150.8775 O   0  0  0  0  0  0  0  0  0  0  0  0
  150.8650  139.5797  157.2875 S   0  0  0  0  0  0  0  0  0  0  0  0
  150.9523  142.9425  158.7645 H   0  0  0  0  0  0  0  0  0  0  0  0
  152.5261  142.1504  158.6611 H   0  0  0  0  0  0  0  0  0  0  0  0
  151.1962  141.3669  159.5161 H   0  0  0  0  0  0  0  0  0  0  0  0
  150.7698  142.9631  155.9492 H   0  0  0  0  0  0  0  0  0  0  0  0
  149.7217  138.9891  153.7830 H   0  0  0  0  0  0  0  0  0  0  0  0
  152.0824  138.3369  153.9529 H   0  0  0  0  0  0  0  0  0  0  0  0
  151.0720  136.9228  153.6998 H   0  0  0  0  0  0  0  0  0  0  0  0
  151.7173  137.2655  155.3028 H   0  0  0  0  0  0  0  0  0  0  0  0
  149.2005  137.1995  156.1854 H   0  0  0  0  0  0  0  0  0  0  0  0
  148.0870  138.4313  155.6458 H   0  0  0  0  0  0  0  0  0  0  0  0
  148.8425  136.6761  153.4887 H   0  0  0  0  0  0  0  0  0  0  0  0
  147.5520  135.3689  152.6697 H   0  0  0  0  0  0  0  0  0  0  0  0
  145.6131  133.9220  154.1871 H   0  0  0  0  0  0  0  0  0  0  0  0
  144.8167  135.1683  153.2482 H   0  0  0  0  0  0  0  0  0  0  0  0
  147.4184  132.3931  152.7236 H   0  0  0  0  0  0  0  0  0  0  0  0
  147.9429  133.8178  151.8328 H   0  0  0  0  0  0  0  0  0  0  0  0
  147.2563  132.4476  150.9711 H   0  0  0  0  0  0  0  0  0  0  0  0
  145.0412  131.5847  152.3150 H   0  0  0  0  0  0  0  0  0  0  0  0
  143.8275  132.8182  152.6044 H   0  0  0  0  0  0  0  0  0  0  0  0
  144.9559  131.9747  149.9302 H   0  0  0  0  0  0  0  0  0  0  0  0
  143.2555  132.1749  150.3753 H   0  0  0  0  0  0  0  0  0  0  0  0
  144.4708  134.2194  149.1119 H   0  0  0  0  0  0  0  0  0  0  0  0
  143.5293  134.5967  150.5599 H   0  0  0  0  0  0  0  0  0  0  0  0
  1  2  1  0  0  0  0
  1 21  1  0  0  0  0
  1 22  1  0  0  0  0
  1 23  1  0  0  0  0
  2 20  1  0  0  0  0
  2  3  2  0  0  0  0
  3  4  1  0  0  0  0
  3 24  1  0  0  0  0
  4  5  2  0  0  0  0
  5  6  1  0  0  0  0
  5 20  1  0  0  0  0
  6  7  1  0  0  0  0
  6  8  1  0  0  0  0
  6 25  1  0  0  0  0
  7 26  1  0  0  0  0
  7 27  1  0  0  0  0
  7 28  1  0  0  0  0
  8  9  1  0  0  0  0
  8 29  1  0  0  0  0
  8 30  1  0  0  0  0
  9 10  1  0  0  0  0
  9 31  1  0  0  0  0
 10 11  2  0  0  0  0
 10 12  1  0  0  0  0
 12 13  1  0  0  0  0
 12 32  1  0  0  0  0
 13 14  1  0  0  0  0
 13 33  1  0  0  0  0
 13 34  1  0  0  0  0
 14 19  1  0  0  0  0
 14 15  1  0  0  0  0
 14 16  1  0  0  0  0
 15 35  1  0  0  0  0
 15 36  1  0  0  0  0
 15 37  1  0  0  0  0
 16 17  1  0  0  0  0
 16 38  1  0  0  0  0
 16 39  1  0  0  0  0
 17 18  1  0  0  0  0
 17 40  1  0  0  0  0
 17 41  1  0  0  0  0
 18 19  1  0  0  0  0
 18 42  1  0  0  0  0
 18 43  1  0  0  0  0
M  END
> <s_m_source_file>
AV-unprocessed.smi

> <i_m_source_file_index>
2414

> <i_lp_mmshare_version>
43012

> <i_f3d_flags>
0

> <s_epik_input>
W0NIM11jMVtjSF1uYyhzMSlbQ0BIXShbQ0gzXSlbQ0gyXVtOSF1DKD1PKVtOSF1bQ0gyXVtDQEBdMihbQ0gzXSlbQ0gyXVtDSDJdW0NIMl1PMg==

> <s_epik_cmdline>
J2VwaWtfcHl0aG9uJywgJy1waCcsICc3LjAnLCAnLXRuJywgJzgnLCAnLW1hJywgJzIwMCcsICctbWV0YWxfYmluZGluZycsICctaW1hZScsICc8aW5maWxlLm1hZT4nLCAnLW9tYWUnLCAnPG91dGZpbGUubWFlPic=

> <r_epik_Ionization_Penalty>
0.000646956

> <r_epik_Ionization_Penalty_Charging>
0

> <r_epik_Ionization_Penalty_Neutral>
0.000646956

> <r_epik_State_Penalty>
0.000375727

> <r_epik_Charging_Adjusted_Penalty>
0.000375727

> <i_epik_Tot_Q>
0

> <i_epik_Tot_abs_Q>
0

> <r_epik_Metal_State_Penalty>
-0

> <b_epik_Metal_Only>
0

> <s_lp_Force_Field>
OPLS_2005

> <r_lp_Energy>
8.28222

> <b_lp_Chiralities_Consistent>
1

> <s_lp_Variant>
AV-unprocessed.smi:2414-2

> <Gold.Version>
5.8.1

> <Gold.Id.Protein>
6NUR|6NUR_protein|mol2

> <Gold.PLP.Fitness>
41.1993

> <Gold.PLP.PLP>
-30.9324

> <Gold.PLP.part.hbond>
-3.0000

> <Gold.PLP.part.metal>
0.0000

> <Gold.PLP.part.buried>
-3.4434

> <Gold.PLP.part.nonpolar>
-24.2569

> <Gold.PLP.part.repulsive>
0.3066

> <Gold.PLP.ligand.clash>
0.0000

> <Gold.PLP.ligand.torsion>
0.3926

> <Gold.PLP.Chemscore.Hbond>
2.6420

> <Gold.PLP.Chemscore.CHOScore>
1.0000

> <Gold.PLP.Chemscore.Metal>
0.0000

> <Gold.Chemscore.Hbonds>
donor molecule, donor type, donor heavy atom, donor atom, acceptor molecule, acceptor atom, score
      L1  H     9    31       P1  7948  1.00
      L1  H    12    32       P1  7948  0.94
      P1  H  7989  7998       L1     4  0.63
      L1  C     3    24       P1  8028  0.86

> <Gold.PLP.Chemscore.Internal.Correction>
0.1263

> <Gold.Rescore>
     Score         DG    S(hbond)    S(metal)    S(lipo)     H(rot)  DE(clash)    DE(int)     intcor
     19.27     -19.85       2.69        0.00      82.12       1.65       0.19       0.39       ----

> <Gold.Chemscore.Fitness>
19.2730

> <Gold.Chemscore.DG>
-19.8493

> <Gold.Chemscore.ZeroCoef>
-5.4800

> <Gold.Chemscore.Hbond>
2.6918

> <Gold.Chemscore.Metal>
0.0000

> <Gold.Chemscore.Lipo>
82.1202

> <Gold.Chemscore.Internal_Hbond>
0.0000

> <Gold.Chemscore.DEClash>
0.1882

> <Gold.Chemscore.DEInternal>
0.3881

> <Gold.Chemscore.Rot>
1.6522

> <Gold.Chemscore.Internal.Correction>
   9.000000E+99

> <Gold.Chemscore.Hbonds>
donor molecule, donor type, donor heavy atom, donor atom, acceptor molecule, acceptor atom, score
      L1  H     9    31       P1  7948  0.97
      L1  H    12    32       P1  7948  0.92
      P1  H  7989  7998       L1     4  0.20

> <Gold.Chemscore.Hbond.Weighted>
-8.9908

> <Gold.Chemscore.Metal.Weighted>
-0.0000

> <Gold.Chemscore.Lipo.Weighted>
-9.6081

> <Gold.Chemscore.Internal_Hbond.Weighted>
0.0000

> <Gold.Chemscore.DEClash.Weighted>
0.1882

> <Gold.Chemscore.DEInternal.Weighted>
0.3881

> <Gold.Chemscore.Rot.Weighted>
4.2295

> <Gold.Chemscore.Internal.Correction.Weighted>
   9.000000E+99

> <Gold.Protein.RotatedTorsions>
[ 6907 6896 6895 6894 ] final  146.03 input  -60.11 | X-H torsion
[ 7974 7965 7964 7962 ] final  -79.70 input  175.53 | X-H torsion
[ 8008 7997 7996 7995 ] final  -72.87 input   59.86 | X-H torsion
[ 10167 10162 10161 10158 ] final  -39.86 input  -65.29 | X-H torsion
[ 10718 10713 10712 10709 ] final   70.88 input   66.30 | X-H torsion
[ 10763 10752 10751 10750 ] final -167.17 input  -60.55 | X-H torsion
[ 11005 11000 10999 10996 ] final -143.35 input  -57.11 | X-H torsion

> <Gold.Protein.ActiveResidues>
 VAL166  LYS551  ARG553  GLY616  TRP617  ASP618  TYR619  PRO620  LYS621  CYS622 
 ASP623  PHE694  ASN695  SER759  ASP760  ASP761  ALA762  ILE779  LEU786  VAL792 
 PHE793  MET794  SER795  GLU796  ALA797  LYS798  CYS799  TRP800  GLU811  SER814 

> <Gold.Protein.RotatedAtoms>
  152.1732  133.4657  159.4919 H   0  0  0  0  0  0  0  0  0  0  0  0  # atno 6907 bound_to 6896
  150.6923  134.1926  159.4300 H   0  0  0  0  0  0  0  0  0  0  0  0  # atno 6908 bound_to 6896
  151.9834  135.0016  160.0609 H   0  0  0  0  0  0  0  0  0  0  0  0  # atno 6909 bound_to 6896
  145.5697  140.9468  143.1402 H   0  0  0  0  0  0  0  0  0  0  0  0  # atno 7974 bound_to 7965
  154.5201  140.0789  156.8155 H   0  0  0  0  0  0  0  0  0  0  0  0  # atno 8008 bound_to 7997
  155.3595  140.3417  155.4222 H   0  0  0  0  0  0  0  0  0  0  0  0  # atno 8009 bound_to 7997
  156.1671  140.1607  156.8499 H   0  0  0  0  0  0  0  0  0  0  0  0  # atno 8010 bound_to 7997
  140.7052  143.3189  151.2842 H   0  0  0  0  0  0  0  0  0  0  0  0  # atno 10167 bound_to 10162
  157.6423  130.9500  150.0712 H   0  0  0  0  0  0  0  0  0  0  0  0  # atno 10718 bound_to 10713
  154.6759  135.2946  154.9679 H   0  0  0  0  0  0  0  0  0  0  0  0  # atno 10763 bound_to 10752
  154.0691  135.6620  153.4826 H   0  0  0  0  0  0  0  0  0  0  0  0  # atno 10764 bound_to 10752
  153.0516  135.5170  154.7778 H   0  0  0  0  0  0  0  0  0  0  0  0  # atno 10765 bound_to 10752
  140.8134  134.2717  157.4931 H   0  0  0  0  0  0  0  0  0  0  0  0  # atno 11005 bound_to 11000
  144.7444  139.7361  143.7298 LP  0  0  0  0  0  0  0  0  0  0  0  0  # atno 17320 bound_to 7965
  146.1793  139.4978  142.9877 LP  0  0  0  0  0  0  0  0  0  0  0  0  # atno 17321 bound_to 7965
  139.6636  144.0145  152.2708 LP  0  0  0  0  0  0  0  0  0  0  0  0  # atno 17342 bound_to 10162
  139.9720  144.6487  150.7980 LP  0  0  0  0  0  0  0  0  0  0  0  0  # atno 17343 bound_to 10162
  156.1716  130.3646  149.9157 LP  0  0  0  0  0  0  0  0  0  0  0  0  # atno 17370 bound_to 10713
  156.7132  130.8978  151.3611 LP  0  0  0  0  0  0  0  0  0  0  0  0  # atno 17371 bound_to 10713
  139.8712  134.9496  156.4030 LP  0  0  0  0  0  0  0  0  0  0  0  0  # atno 17394 bound_to 11000
  140.9174  133.7669  155.9865 LP  0  0  0  0  0  0  0  0  0  0  0  0  # atno 17395 bound_to 11000

$$$$
