AV-unprocessed.smi:3226|AV-procd|sdf|12314|dock9
  -GOLD-   2272018163D 1   1.00000     0.00000
 Structure written by MMmdl.
 41 43  0  0  0  0  0  0  0  0  2 V2000
  151.1339  129.8407  155.2324 C   0  0  0  0  0  0  0  0  0  0  0  0
  149.8796  130.7135  155.1147 C   0  0  0  0  0  0  0  0  0  0  0  0
  149.9816  131.9784  155.9102 C   0  0  0  0  0  0  0  0  0  0  0  0
  150.4718  132.0253  157.1547 N   0  0  0  0  0  0  0  0  0  0  0  0
  150.4262  133.3543  157.5243 N   0  0  0  0  0  0  0  0  0  0  0  0
  149.9224  133.9797  156.4623 C   0  0  0  0  0  0  0  0  0  0  0  0
  149.6196  133.1850  155.4242 N   0  0  0  0  0  0  0  0  0  0  0  0
  149.0627  133.5600  154.1355 C   0  0  0  0  0  0  0  0  0  0  0  0
  147.7524  134.3532  154.2695 C   0  0  0  0  0  0  0  0  0  0  0  0
  147.0655  134.5001  152.9701 N   0  3  0  0  0  0  0  0  0  0  0  0
  146.7432  133.2185  152.3130 C   0  0  0  0  0  0  0  0  0  0  0  0
  146.2564  133.4398  150.8686 C   0  0  1  0  0  0  0  0  0  0  0  0
  145.8284  132.1398  150.1187 C   0  0  0  0  0  0  0  0  0  0  0  0
  144.4048  132.4786  149.6194 C   0  0  1  0  0  0  0  0  0  0  0  0
  143.5039  132.5657  150.8322 C   0  0  0  0  0  0  0  0  0  0  0  0
  143.8479  133.6663  151.5030 C   0  0  0  0  0  0  0  0  0  0  0  0
  144.9853  134.3215  150.7437 C   0  0  2  0  0  0  0  0  0  0  0  0
  144.5769  133.9690  149.3083 C   0  0  0  0  0  0  0  0  0  0  0  0
  151.0279  128.9266  154.6478 H   0  0  0  0  0  0  0  0  0  0  0  0
  151.3181  129.5544  156.2684 H   0  0  0  0  0  0  0  0  0  0  0  0
  152.0164  130.3678  154.8689 H   0  0  0  0  0  0  0  0  0  0  0  0
  149.6846  130.9495  154.0689 H   0  0  0  0  0  0  0  0  0  0  0  0
  149.0123  130.1530  155.4654 H   0  0  0  0  0  0  0  0  0  0  0  0
  149.7669  135.0485  156.4424 H   0  0  0  0  0  0  0  0  0  0  0  0
  149.8059  134.1420  153.5887 H   0  0  0  0  0  0  0  0  0  0  0  0
  148.8940  132.6540  153.5530 H   0  0  0  0  0  0  0  0  0  0  0  0
  147.0883  133.8341  154.9616 H   0  0  0  0  0  0  0  0  0  0  0  0
  147.9441  135.3398  154.6931 H   0  0  0  0  0  0  0  0  0  0  0  0
  146.2069  135.0119  153.1159 H   0  0  0  0  0  0  0  0  0  0  0  0
  147.6238  132.5753  152.3320 H   0  0  0  0  0  0  0  0  0  0  0  0
  145.9653  132.7148  152.8881 H   0  0  0  0  0  0  0  0  0  0  0  0
  147.0580  133.9229  150.3065 H   0  0  0  0  0  0  0  0  0  0  0  0
  146.4999  131.9391  149.2827 H   0  0  0  0  0  0  0  0  0  0  0  0
  145.8274  131.2582  150.7613 H   0  0  0  0  0  0  0  0  0  0  0  0
  144.0185  131.8680  148.8028 H   0  0  0  0  0  0  0  0  0  0  0  0
  142.7516  131.8367  151.0959 H   0  0  0  0  0  0  0  0  0  0  0  0
  143.4374  134.0294  152.4336 H   0  0  0  0  0  0  0  0  0  0  0  0
  145.1149  135.3861  150.9402 H   0  0  0  0  0  0  0  0  0  0  0  0
  145.3456  134.1796  148.5620 H   0  0  0  0  0  0  0  0  0  0  0  0
  143.6463  134.4498  148.9992 H   0  0  0  0  0  0  0  0  0  0  0  0
  147.6588  135.0334  152.3505 H   0  0  0  0  0  0  0  0  0  0  0  0
  1  2  1  0  0  0  0
  1 19  1  0  0  0  0
  1 20  1  0  0  0  0
  1 21  1  0  0  0  0
  2  3  1  0  0  0  0
  2 22  1  0  0  0  0
  2 23  1  0  0  0  0
  3  7  1  0  0  0  0
  3  4  2  0  0  0  0
  4  5  1  0  0  0  0
  5  6  2  0  0  0  0
  6  7  1  0  0  0  0
  6 24  1  0  0  0  0
  7  8  1  0  0  0  0
  8  9  1  0  0  0  0
  8 25  1  0  0  0  0
  8 26  1  0  0  0  0
  9 10  1  0  0  0  0
  9 27  1  0  0  0  0
  9 28  1  0  0  0  0
 10 11  1  0  0  0  0
 10 29  1  0  0  0  0
 10 41  1  0  0  0  0
 11 12  1  0  0  0  0
 11 30  1  0  0  0  0
 11 31  1  0  0  0  0
 12 17  1  0  0  0  0
 12 13  1  0  0  0  0
 12 32  1  0  0  0  0
 13 14  1  0  0  0  0
 13 33  1  0  0  0  0
 13 34  1  0  0  0  0
 14 18  1  0  0  0  0
 14 15  1  0  0  0  0
 14 35  1  0  0  0  0
 15 16  2  0  0  0  0
 15 36  1  0  0  0  0
 16 17  1  0  0  0  0
 16 37  1  0  0  0  0
 17 18  1  0  0  0  0
 17 38  1  0  0  0  0
 18 39  1  0  0  0  0
 18 40  1  0  0  0  0
M  CHG  1  10   1
M  END
> <s_m_source_file>
AV-unprocessed.smi

> <i_m_source_file_index>
3226

> <i_lp_mmshare_version>
43012

> <i_f3d_flags>
0

> <s_epik_input>
W0NIM11bQ0gyXWMxbm5bY0hdbjFbQ0gyXVtDSDJdW05IXVtDSDJdW0NASF0oW0NIMl1bQ0BASF0yMylbQ0BASF0oW0NIMl0zKVtDSF09W0NIXTI=

> <s_epik_cmdline>
J2VwaWtfcHl0aG9uJywgJy1waCcsICc3LjAnLCAnLXRuJywgJzgnLCAnLW1hJywgJzIwMCcsICctbWV0YWxfYmluZGluZycsICctaW1hZScsICc8aW5maWxlLm1hZT4nLCAnLW9tYWUnLCAnPG91dGZpbGUubWFlPic=

> <r_lp_tautomer_probability>
1

> <r_epik_Ionization_Penalty>
0.00175008

> <r_epik_Ionization_Penalty_Charging>
0.00173932

> <r_epik_Ionization_Penalty_Neutral>
1.07546e-05

> <r_epik_State_Penalty>
-0

> <r_epik_Charging_Adjusted_Penalty>
0.00173932

> <i_epik_Tot_Q>
1

> <i_epik_Tot_abs_Q>
1

> <r_epik_Metal_State_Penalty>
-0

> <b_epik_Metal_Only>
0

> <s_lp_Force_Field>
OPLS_2005

> <r_lp_Energy>
65.2823

> <b_lp_Chiralities_Consistent>
1

> <s_lp_Variant>
AV-unprocessed.smi:3226-2

> <Gold.Version>
5.8.1

> <Gold.Id.Protein>
6NUR|6NUR_protein|mol2

> <Gold.PLP.Fitness>
45.7762

> <Gold.PLP.PLP>
-37.3915

> <Gold.PLP.part.hbond>
-2.0000

> <Gold.PLP.part.metal>
0.0000

> <Gold.PLP.part.buried>
-2.3937

> <Gold.PLP.part.nonpolar>
-33.3149

> <Gold.PLP.part.repulsive>
0.0000

> <Gold.PLP.ligand.clash>
0.0000

> <Gold.PLP.ligand.torsion>
0.2928

> <Gold.PLP.Chemscore.Hbond>
2.9760

> <Gold.PLP.Chemscore.CHOScore>
0.0000

> <Gold.PLP.Chemscore.Metal>
0.0000

> <Gold.Chemscore.Hbonds>
donor molecule, donor type, donor heavy atom, donor atom, acceptor molecule, acceptor atom, score
      L1  H    10    41       P1  7948  2.00
      P1  H  6896  6909       L1     5  0.91

> <Gold.PLP.Chemscore.Internal.Correction>
0.0423

> <Gold.Rescore>
     Score         DG    S(hbond)    S(metal)    S(lipo)     H(rot)  DE(clash)    DE(int)     intcor
     16.18     -16.49       1.91        0.00      84.62       2.06       0.10       0.22       ----

> <Gold.Chemscore.Fitness>
16.1762

> <Gold.Chemscore.DG>
-16.4947

> <Gold.Chemscore.ZeroCoef>
-5.4800

> <Gold.Chemscore.Hbond>
1.9141

> <Gold.Chemscore.Metal>
0.0000

> <Gold.Chemscore.Lipo>
84.6249

> <Gold.Chemscore.Internal_Hbond>
0.0000

> <Gold.Chemscore.DEClash>
0.1029

> <Gold.Chemscore.DEInternal>
0.2157

> <Gold.Chemscore.Rot>
2.0623

> <Gold.Chemscore.Internal.Correction>
   9.000000E+99

> <Gold.Chemscore.Hbonds>
donor molecule, donor type, donor heavy atom, donor atom, acceptor molecule, acceptor atom, score
      L1  H    10    41       P1  7948  0.95
      P1  H  6896  6909       L1     5  0.54

> <Gold.Chemscore.Hbond.Weighted>
-6.3932

> <Gold.Chemscore.Metal.Weighted>
-0.0000

> <Gold.Chemscore.Lipo.Weighted>
-9.9011

> <Gold.Chemscore.Internal_Hbond.Weighted>
0.0000

> <Gold.Chemscore.DEClash.Weighted>
0.1029

> <Gold.Chemscore.DEInternal.Weighted>
0.2157

> <Gold.Chemscore.Rot.Weighted>
5.2796

> <Gold.Chemscore.Internal.Correction.Weighted>
   9.000000E+99

> <Gold.Protein.RotatedTorsions>
[ 6907 6896 6895 6894 ] final  -28.04 input  -60.11 | X-H torsion
[ 7974 7965 7964 7962 ] final  131.76 input  175.53 | X-H torsion
[ 8008 7997 7996 7995 ] final  -27.76 input   59.86 | X-H torsion
[ 10167 10162 10161 10158 ] final   24.47 input  -65.29 | X-H torsion
[ 10718 10713 10712 10709 ] final   36.88 input   66.30 | X-H torsion
[ 10763 10752 10751 10750 ] final -140.22 input  -60.55 | X-H torsion
[ 11005 11000 10999 10996 ] final  -64.73 input  -57.11 | X-H torsion

> <Gold.Protein.ActiveResidues>
 VAL166  LYS551  ARG553  GLY616  TRP617  ASP618  TYR619  PRO620  LYS621  CYS622 
 ASP623  PHE694  ASN695  SER759  ASP760  ASP761  ALA762  ILE779  LEU786  VAL792 
 PHE793  MET794  SER795  GLU796  ALA797  LYS798  CYS799  TRP800  GLU811  SER814 

> <Gold.Protein.RotatedAtoms>
  151.1384  135.0167  159.8614 H   0  0  0  0  0  0  0  0  0  0  0  0  # atno 6907 bound_to 6896
  152.5452  134.1528  159.8535 H   0  0  0  0  0  0  0  0  0  0  0  0  # atno 6908 bound_to 6896
  151.1601  133.4805  159.2627 H   0  0  0  0  0  0  0  0  0  0  0  0  # atno 6909 bound_to 6896
  145.0039  139.4285  143.5278 H   0  0  0  0  0  0  0  0  0  0  0  0  # atno 7974 bound_to 7965
  154.4362  140.1863  156.0983 H   0  0  0  0  0  0  0  0  0  0  0  0  # atno 8008 bound_to 7997
  156.0312  140.3330  155.7116 H   0  0  0  0  0  0  0  0  0  0  0  0  # atno 8009 bound_to 7997
  155.5836  140.0624  157.2767 H   0  0  0  0  0  0  0  0  0  0  0  0  # atno 8010 bound_to 7997
  140.5186  144.0041  150.6406 H   0  0  0  0  0  0  0  0  0  0  0  0  # atno 10167 bound_to 10162
  157.3403  130.7544  149.6907 H   0  0  0  0  0  0  0  0  0  0  0  0  # atno 10718 bound_to 10713
  154.8585  135.3559  154.5672 H   0  0  0  0  0  0  0  0  0  0  0  0  # atno 10763 bound_to 10752
  153.6286  135.7003  153.5288 H   0  0  0  0  0  0  0  0  0  0  0  0  # atno 10764 bound_to 10752
  153.3069  135.4190  155.1261 H   0  0  0  0  0  0  0  0  0  0  0  0  # atno 10765 bound_to 10752
  141.1433  133.6670  156.5878 H   0  0  0  0  0  0  0  0  0  0  0  0  # atno 11005 bound_to 11000
  146.3457  139.9444  142.8737 LP  0  0  0  0  0  0  0  0  0  0  0  0  # atno 17320 bound_to 7965
  145.2115  140.9897  143.4098 LP  0  0  0  0  0  0  0  0  0  0  0  0  # atno 17321 bound_to 7965
  140.3383  143.3035  152.0615 LP  0  0  0  0  0  0  0  0  0  0  0  0  # atno 17342 bound_to 10162
  139.4916  144.6460  151.6777 LP  0  0  0  0  0  0  0  0  0  0  0  0  # atno 17343 bound_to 10162
  155.9707  130.4170  150.4256 LP  0  0  0  0  0  0  0  0  0  0  0  0  # atno 17370 bound_to 10713
  157.2303  131.0502  151.2496 LP  0  0  0  0  0  0  0  0  0  0  0  0  # atno 17371 bound_to 10713
  140.3787  134.7542  157.4647 LP  0  0  0  0  0  0  0  0  0  0  0  0  # atno 17394 bound_to 11000
  140.0655  134.5936  155.8701 LP  0  0  0  0  0  0  0  0  0  0  0  0  # atno 17395 bound_to 11000

$$$$
