AV-unprocessed.smi:81|AV-procd|sdf|792|dock5
  -GOLD-   2262017163D 1   1.00000     0.00000
 Structure written by MMmdl.
 64 67  0  0  0  0  0  0  0  0  2 V2000
  145.3770  144.2364  152.9148 C   0  0  0  0  0  0  0  0  0  0  0  0
  145.6555  143.1335  153.9494 C   0  0  0  0  0  0  0  0  0  0  0  0
  145.3805  143.6476  155.3693 C   0  0  0  0  0  0  0  0  0  0  0  0
  147.1023  142.5983  153.8432 C   0  0  0  0  0  0  0  0  0  0  0  0
  147.3056  141.2724  154.4378 N   0  0  0  0  0  0  0  0  0  0  0  0
  147.7879  141.2625  155.7043 C   0  0  0  0  0  0  0  0  0  0  0  0
  146.8878  141.1315  156.7106 N   0  0  0  0  0  0  0  0  0  0  0  0
  147.2946  141.1534  157.9828 C   0  0  0  0  0  0  0  0  0  0  0  0
  148.5319  141.2982  158.4602 N   0  0  0  0  0  0  0  0  0  0  0  0
  149.4396  141.4416  157.4528 C   0  0  0  0  0  0  0  0  0  0  0  0
  149.1565  141.4394  156.0578 C   0  0  0  0  0  0  0  0  0  0  0  0
  150.3328  141.6123  155.3380 N   0  0  0  0  0  0  0  0  0  0  0  0
  151.2567  141.7120  156.2537 C   0  0  0  0  0  0  0  0  0  0  0  0
  150.8094  141.6114  157.5514 N   0  0  0  0  0  0  0  0  0  0  0  0
  151.6209  141.6831  158.7565 C   0  0  0  0  0  0  0  0  0  0  0  0
  152.3905  143.0176  158.9064 C   0  0  1  0  0  0  0  0  0  0  0  0
  153.7570  142.7908  158.5973 O   0  0  0  0  0  0  0  0  0  0  0  0
  151.8655  144.0969  157.9716 C   0  0  0  0  0  0  0  0  0  0  0  0
  152.2905  145.3795  158.6745 C   0  0  0  0  0  0  0  0  0  0  0  0
  152.1141  145.0968  160.0550 O   0  0  0  0  0  0  0  0  0  0  0  0
  152.2403  143.6953  160.2907 C   0  0  2  0  0  0  0  0  0  0  0  0
  153.3515  143.4292  161.3200 C   0  0  0  0  0  0  0  0  0  0  0  0
  147.7144  140.1921  153.5244 C   0  0  2  0  0  0  0  0  0  0  0  0
  146.5620  139.4577  152.7974 C   0  0  0  0  0  0  0  0  0  0  0  0
  146.0132  138.2339  153.5560 C   0  0  0  0  0  0  0  0  0  0  0  0
  147.1089  137.3146  153.9397 N   0  3  2  0  0  0  0  0  0  0  0  0
  146.6085  136.0446  154.5075 C   0  0  0  0  0  0  0  0  0  0  0  0
  148.0927  137.9833  154.8222 C   0  0  0  0  0  0  0  0  0  0  0  0
  148.7360  139.1911  154.1163 C   0  0  0  0  0  0  0  0  0  0  0  0
  146.0516  145.0829  153.0470 H   0  0  0  0  0  0  0  0  0  0  0  0
  144.3556  144.6080  153.0031 H   0  0  0  0  0  0  0  0  0  0  0  0
  145.5006  143.8689  151.8961 H   0  0  0  0  0  0  0  0  0  0  0  0
  144.9530  142.3190  153.7707 H   0  0  0  0  0  0  0  0  0  0  0  0
  146.0455  144.4722  155.6282 H   0  0  0  0  0  0  0  0  0  0  0  0
  145.5255  142.8585  156.1078 H   0  0  0  0  0  0  0  0  0  0  0  0
  144.3546  144.0039  155.4675 H   0  0  0  0  0  0  0  0  0  0  0  0
  147.3810  142.5561  152.7898 H   0  0  0  0  0  0  0  0  0  0  0  0
  147.7908  143.3091  154.2984 H   0  0  0  0  0  0  0  0  0  0  0  0
  146.5172  141.0415  158.7242 H   0  0  0  0  0  0  0  0  0  0  0  0
  152.2988  141.8568  156.0072 H   0  0  0  0  0  0  0  0  0  0  0  0
  150.9670  141.5283  159.6160 H   0  0  0  0  0  0  0  0  0  0  0  0
  152.3169  140.8433  158.7500 H   0  0  0  0  0  0  0  0  0  0  0  0
  154.1556  142.3356  159.3235 H   0  0  0  0  0  0  0  0  0  0  0  0
  152.2463  144.0194  156.9521 H   0  0  0  0  0  0  0  0  0  0  0  0
  150.7761  144.0600  157.9241 H   0  0  0  0  0  0  0  0  0  0  0  0
  153.3436  145.5929  158.4861 H   0  0  0  0  0  0  0  0  0  0  0  0
  151.7059  146.2458  158.3641 H   0  0  0  0  0  0  0  0  0  0  0  0
  151.2878  143.3943  160.7276 H   0  0  0  0  0  0  0  0  0  0  0  0
  153.4766  142.3628  161.5048 H   0  0  0  0  0  0  0  0  0  0  0  0
  153.1112  143.9032  162.2720 H   0  0  0  0  0  0  0  0  0  0  0  0
  154.3102  143.8288  160.9893 H   0  0  0  0  0  0  0  0  0  0  0  0
  148.2453  140.7264  152.7354 H   0  0  0  0  0  0  0  0  0  0  0  0
  145.7582  140.1505  152.5465 H   0  0  0  0  0  0  0  0  0  0  0  0
  146.9461  139.1022  151.8406 H   0  0  0  0  0  0  0  0  0  0  0  0
  145.4619  138.5292  154.4482 H   0  0  0  0  0  0  0  0  0  0  0  0
  145.3043  137.7078  152.9155 H   0  0  0  0  0  0  0  0  0  0  0  0
  146.0586  136.2191  155.4319 H   0  0  0  0  0  0  0  0  0  0  0  0
  147.4345  135.3657  154.7226 H   0  0  0  0  0  0  0  0  0  0  0  0
  145.9426  135.5439  153.8038 H   0  0  0  0  0  0  0  0  0  0  0  0
  147.6049  138.2794  155.7491 H   0  0  0  0  0  0  0  0  0  0  0  0
  148.8742  137.2743  155.0978 H   0  0  0  0  0  0  0  0  0  0  0  0
  149.3426  138.8070  153.2952 H   0  0  0  0  0  0  0  0  0  0  0  0
  149.4371  139.6899  154.7854 H   0  0  0  0  0  0  0  0  0  0  0  0
  147.5977  137.0732  153.0894 H   0  0  0  0  0  0  0  0  0  0  0  0
  1  2  1  0  0  0  0
  1 30  1  0  0  0  0
  1 31  1  0  0  0  0
  1 32  1  0  0  0  0
  2  3  1  0  0  0  0
  2  4  1  0  0  0  0
  2 33  1  0  0  0  0
  3 34  1  0  0  0  0
  3 35  1  0  0  0  0
  3 36  1  0  0  0  0
  4  5  1  0  0  0  0
  4 37  1  0  0  0  0
  4 38  1  0  0  0  0
  5  6  1  0  0  0  0
  5 23  1  0  0  0  0
  6 11  1  0  0  0  0
  6  7  2  0  0  0  0
  7  8  1  0  0  0  0
  8  9  2  0  0  0  0
  8 39  1  0  0  0  0
  9 10  1  0  0  0  0
 10 14  1  0  0  0  0
 10 11  2  0  0  0  0
 11 12  1  0  0  0  0
 12 13  2  0  0  0  0
 13 14  1  0  0  0  0
 13 40  1  0  0  0  0
 14 15  1  0  0  0  0
 15 16  1  0  0  0  0
 15 41  1  0  0  0  0
 15 42  1  0  0  0  0
 16 21  1  0  0  0  0
 16 17  1  0  0  0  0
 16 18  1  0  0  0  0
 17 43  1  0  0  0  0
 18 19  1  0  0  0  0
 18 44  1  0  0  0  0
 18 45  1  0  0  0  0
 19 20  1  0  0  0  0
 19 46  1  0  0  0  0
 19 47  1  0  0  0  0
 20 21  1  0  0  0  0
 21 22  1  0  0  0  0
 21 48  1  0  0  0  0
 22 49  1  0  0  0  0
 22 50  1  0  0  0  0
 22 51  1  0  0  0  0
 23 29  1  0  0  0  0
 23 24  1  0  0  0  0
 23 52  1  0  0  0  0
 24 25  1  0  0  0  0
 24 53  1  0  0  0  0
 24 54  1  0  0  0  0
 25 26  1  0  0  0  0
 25 55  1  0  0  0  0
 25 56  1  0  0  0  0
 26 27  1  0  0  0  0
 26 28  1  0  0  0  0
 26 64  1  0  0  0  0
 27 57  1  0  0  0  0
 27 58  1  0  0  0  0
 27 59  1  0  0  0  0
 28 29  1  0  0  0  0
 28 60  1  0  0  0  0
 28 61  1  0  0  0  0
 29 62  1  0  0  0  0
 29 63  1  0  0  0  0
M  CHG  1  26   1
M  END
> <s_m_source_file>
AV-unprocessed.smi

> <i_m_source_file_index>
81

> <i_lp_mmshare_version>
43012

> <i_f3d_flags>
0

> <s_epik_input>
W0NIMl0xW0NIMl1OKFtDSDNdKVtDSDJdW0NIMl1bQ0hdMU4oW0NIMl1bQ0hdKFtDSDNdKVtDSDNdKWMobltjSF1uMiljKGMyMyluW2NIXW4zW0NIMl1bQ0BAXTQoW09IXSlbQ0gyXVtDSDJdT1tDQEhdNFtDSDNd

> <s_epik_cmdline>
J2VwaWtfcHl0aG9uJywgJy1waCcsICc3LjAnLCAnLXRuJywgJzgnLCAnLW1hJywgJzIwMCcsICctbWV0YWxfYmluZGluZycsICctaW1hZScsICc8aW5maWxlLm1hZT4nLCAnLW9tYWUnLCAnPG91dGZpbGUubWFlPic=

> <r_lp_tautomer_probability>
1

> <r_epik_Ionization_Penalty>
0.00272708

> <r_epik_Ionization_Penalty_Charging>
0.00158983

> <r_epik_Ionization_Penalty_Neutral>
0.00113725

> <r_epik_State_Penalty>
-0

> <r_epik_Charging_Adjusted_Penalty>
0.00158983

> <i_epik_Tot_Q>
1

> <i_epik_Tot_abs_Q>
1

> <r_epik_Metal_State_Penalty>
-0

> <b_epik_Metal_Only>
0

> <s_lp_Force_Field>
OPLS_2005

> <r_lp_Energy>
48.65

> <b_lp_Chiralities_Consistent>
1

> <s_lp_Variant>
AV-unprocessed.smi:81-7

> <Gold.Version>
5.8.1

> <Gold.Id.Protein>
6NUR|6NUR_protein|mol2

> <Gold.PLP.Fitness>
49.3549

> <Gold.PLP.PLP>
-48.0374

> <Gold.PLP.part.hbond>
-2.3434

> <Gold.PLP.part.metal>
0.0000

> <Gold.PLP.part.buried>
-0.8071

> <Gold.PLP.part.nonpolar>
-46.2511

> <Gold.PLP.part.repulsive>
0.3249

> <Gold.PLP.ligand.clash>
0.0000

> <Gold.PLP.ligand.torsion>
3.0480

> <Gold.PLP.Chemscore.Hbond>
2.0000

> <Gold.PLP.Chemscore.CHOScore>
0.0000

> <Gold.PLP.Chemscore.Metal>
0.0000

> <Gold.Chemscore.Hbonds>
donor molecule, donor type, donor heavy atom, donor atom, acceptor molecule, acceptor atom, score
      L1  H    26    64       P1  7948  2.00
      P1  H  7989  7998       L1    12  0.09

> <Gold.PLP.Chemscore.Internal.Correction>
1.4136

> <Gold.Rescore>
     Score         DG    S(hbond)    S(metal)    S(lipo)     H(rot)  DE(clash)    DE(int)     intcor
     11.21     -16.69       1.00        0.00     117.98       2.32       2.89       2.59       ----

> <Gold.Chemscore.Fitness>
11.2090

> <Gold.Chemscore.DG>
-16.6882

> <Gold.Chemscore.ZeroCoef>
-5.4800

> <Gold.Chemscore.Hbond>
0.9983

> <Gold.Chemscore.Metal>
0.0000

> <Gold.Chemscore.Lipo>
117.9802

> <Gold.Chemscore.Internal_Hbond>
0.0000

> <Gold.Chemscore.DEClash>
2.8940

> <Gold.Chemscore.DEInternal>
2.5852

> <Gold.Chemscore.Rot>
2.3163

> <Gold.Chemscore.Internal.Correction>
   9.000000E+99

> <Gold.Chemscore.Hbonds>
donor molecule, donor type, donor heavy atom, donor atom, acceptor molecule, acceptor atom, score
      L1  H    26    64       P1  7948  0.95
      P1  H  7989  7998       L1    12  0.02

> <Gold.Chemscore.Hbond.Weighted>
-3.3343

> <Gold.Chemscore.Metal.Weighted>
-0.0000

> <Gold.Chemscore.Lipo.Weighted>
-13.8037

> <Gold.Chemscore.Internal_Hbond.Weighted>
0.0000

> <Gold.Chemscore.DEClash.Weighted>
2.8940

> <Gold.Chemscore.DEInternal.Weighted>
2.5852

> <Gold.Chemscore.Rot.Weighted>
5.9297

> <Gold.Chemscore.Internal.Correction.Weighted>
   9.000000E+99

> <Gold.Protein.RotatedTorsions>
[ 6907 6896 6895 6894 ] final  172.73 input  -60.11 | X-H torsion
[ 7974 7965 7964 7962 ] final  139.55 input  175.53 | X-H torsion
[ 8008 7997 7996 7995 ] final   54.87 input   59.86 | X-H torsion
[ 10167 10162 10161 10158 ] final  168.35 input  -65.29 | X-H torsion
[ 10718 10713 10712 10709 ] final   90.56 input   66.30 | X-H torsion
[ 10763 10752 10751 10750 ] final  102.23 input  -60.55 | X-H torsion
[ 11005 11000 10999 10996 ] final  -90.37 input  -57.11 | X-H torsion

> <Gold.Protein.ActiveResidues>
 VAL166  LYS551  ARG553  GLY616  TRP617  ASP618  TYR619  PRO620  LYS621  CYS622 
 ASP623  PHE694  ASN695  SER759  ASP760  ASP761  ALA762  ILE779  LEU786  VAL792 
 PHE793  MET794  SER795  GLU796  ALA797  LYS798  CYS799  TRP800  GLU811  SER814 

> <Gold.Protein.RotatedAtoms>
  151.7797  133.3348  159.3467 H   0  0  0  0  0  0  0  0  0  0  0  0  # atno 6907 bound_to 6896
  150.7431  134.5942  159.6012 H   0  0  0  0  0  0  0  0  0  0  0  0  # atno 6908 bound_to 6896
  152.3284  134.7292  160.0347 H   0  0  0  0  0  0  0  0  0  0  0  0  # atno 6909 bound_to 6896
  144.9268  139.5097  143.5637 H   0  0  0  0  0  0  0  0  0  0  0  0  # atno 7974 bound_to 7965
  155.4918  140.3471  155.4356 H   0  0  0  0  0  0  0  0  0  0  0  0  # atno 8008 bound_to 7997
  156.0972  140.1426  156.9544 H   0  0  0  0  0  0  0  0  0  0  0  0  # atno 8009 bound_to 7997
  154.4671  140.0914  156.7025 H   0  0  0  0  0  0  0  0  0  0  0  0  # atno 8010 bound_to 7997
  139.4966  144.3824  151.9608 H   0  0  0  0  0  0  0  0  0  0  0  0  # atno 10167 bound_to 10162
  157.6959  131.0375  150.3597 H   0  0  0  0  0  0  0  0  0  0  0  0  # atno 10718 bound_to 10713
  153.3370  135.4017  155.1541 H   0  0  0  0  0  0  0  0  0  0  0  0  # atno 10763 bound_to 10752
  154.8635  135.3624  154.5396 H   0  0  0  0  0  0  0  0  0  0  0  0  # atno 10764 bound_to 10752
  153.5838  135.7076  153.5511 H   0  0  0  0  0  0  0  0  0  0  0  0  # atno 10765 bound_to 10752
  141.1567  133.7687  156.9727 H   0  0  0  0  0  0  0  0  0  0  0  0  # atno 11005 bound_to 11000
  146.3229  139.8189  142.8931 LP  0  0  0  0  0  0  0  0  0  0  0  0  # atno 17320 bound_to 7965
  145.3206  141.0243  143.3502 LP  0  0  0  0  0  0  0  0  0  0  0  0  # atno 17321 bound_to 7965
  140.3260  144.3372  150.5998 LP  0  0  0  0  0  0  0  0  0  0  0  0  # atno 17342 bound_to 10162
  140.5684  143.2183  151.7643 LP  0  0  0  0  0  0  0  0  0  0  0  0  # atno 17343 bound_to 10162
  156.4035  130.3920  149.6943 LP  0  0  0  0  0  0  0  0  0  0  0  0  # atno 17370 bound_to 10713
  156.4252  130.7788  151.2806 LP  0  0  0  0  0  0  0  0  0  0  0  0  # atno 17371 bound_to 10713
  140.1118  134.9472  157.2077 LP  0  0  0  0  0  0  0  0  0  0  0  0  # atno 17394 bound_to 11000
  140.3184  134.2945  155.7251 LP  0  0  0  0  0  0  0  0  0  0  0  0  # atno 17395 bound_to 11000

$$$$
