AV-unprocessed.smi:2046|AV-procd|sdf|8314|dock4
  -GOLD-   2272010583D 1   1.00000     0.00000
 Structure written by MMmdl.
 29 30  0  0  0  0  0  0  0  0  2 V2000
  150.9186  140.9053  157.2755 O   0  0  0  0  0  0  0  0  0  0  0  0
  150.6800  142.0366  156.8461 C   0  0  0  0  0  0  0  0  0  0  0  0
  151.2867  143.1833  157.2287 N   0  5  0  0  0  0  0  0  0  0  0  0
  151.4649  143.4442  158.5342 C   0  0  0  0  0  0  0  0  0  0  0  0
  151.0889  142.5870  159.4969 N   0  0  0  0  0  0  0  0  0  0  0  0
  151.3599  143.0510  160.7773 N   0  0  0  0  0  0  0  0  0  0  0  0
  151.9289  144.2558  160.7470 C   0  0  0  0  0  0  0  0  0  0  0  0
  152.1810  144.9351  159.1530 S   0  0  0  0  0  0  0  0  0  0  0  0
  149.7413  142.2103  155.9027 N   0  0  0  0  0  0  0  0  0  0  0  0
  148.9310  141.1583  155.2819 C   0  0  1  0  0  0  0  0  0  0  0  0
  148.1047  141.8110  154.1498 C   0  0  0  0  0  0  0  0  0  0  0  0
  146.8425  141.0192  153.7644 C   0  0  0  0  0  0  0  0  0  0  0  0
  147.1045  139.6324  153.1570 C   0  0  0  0  0  0  0  0  0  0  0  0
  147.8197  138.6631  154.1136 C   0  0  0  0  0  0  0  0  0  0  0  0
  149.2477  138.9368  154.2025 N   0  0  0  0  0  0  0  0  0  0  0  0
  149.8266  140.0476  154.6833 C   0  0  0  0  0  0  0  0  0  0  0  0
  151.0498  140.1773  154.6395 O   0  0  0  0  0  0  0  0  0  0  0  0
  152.1980  144.7494  161.6687 H   0  0  0  0  0  0  0  0  0  0  0  0
  149.5846  143.1531  155.5780 H   0  0  0  0  0  0  0  0  0  0  0  0
  148.2644  140.7369  156.0365 H   0  0  0  0  0  0  0  0  0  0  0  0
  147.7737  142.7984  154.4759 H   0  0  0  0  0  0  0  0  0  0  0  0
  148.7229  141.9889  153.2678 H   0  0  0  0  0  0  0  0  0  0  0  0
  146.2002  140.9153  154.6398 H   0  0  0  0  0  0  0  0  0  0  0  0
  146.2709  141.6085  153.0465 H   0  0  0  0  0  0  0  0  0  0  0  0
  146.1436  139.1975  152.8806 H   0  0  0  0  0  0  0  0  0  0  0  0
  147.6675  139.7279  152.2276 H   0  0  0  0  0  0  0  0  0  0  0  0
  147.3638  138.6751  155.1046 H   0  0  0  0  0  0  0  0  0  0  0  0
  147.7120  137.6451  153.7389 H   0  0  0  0  0  0  0  0  0  0  0  0
  149.8620  138.2264  153.8321 H   0  0  0  0  0  0  0  0  0  0  0  0
  1  2  2  0  0  0  0
  2  3  1  0  0  0  0
  2  9  1  0  0  0  0
  3  4  1  0  0  0  0
  4  8  1  0  0  0  0
  4  5  2  0  0  0  0
  5  6  1  0  0  0  0
  6  7  2  0  0  0  0
  7  8  1  0  0  0  0
  7 18  1  0  0  0  0
  9 10  1  0  0  0  0
  9 19  1  0  0  0  0
 10 16  1  0  0  0  0
 10 11  1  0  0  0  0
 10 20  1  0  0  0  0
 11 12  1  0  0  0  0
 11 21  1  0  0  0  0
 11 22  1  0  0  0  0
 12 13  1  0  0  0  0
 12 23  1  0  0  0  0
 12 24  1  0  0  0  0
 13 14  1  0  0  0  0
 13 25  1  0  0  0  0
 13 26  1  0  0  0  0
 14 15  1  0  0  0  0
 14 27  1  0  0  0  0
 14 28  1  0  0  0  0
 15 16  1  0  0  0  0
 15 29  1  0  0  0  0
 16 17  2  0  0  0  0
M  CHG  1   3  -1
M  END
> <s_m_source_file>
AV-unprocessed.smi

> <i_m_source_file_index>
2046

> <i_lp_mmshare_version>
43012

> <i_f3d_flags>
0

> <s_epik_input>
czFbY0hdbm5jMVtOSF1DKD1PKVtOSF1bQ0BASF0yW0NIMl1bQ0gyXVtDSDJdW0NIMl1bTkhdQzI9Tw==

> <s_epik_cmdline>
J2VwaWtfcHl0aG9uJywgJy1waCcsICc3LjAnLCAnLXRuJywgJzgnLCAnLW1hJywgJzIwMCcsICctbWV0YWxfYmluZGluZycsICctaW1hZScsICc8aW5maWxlLm1hZT4nLCAnLW9tYWUnLCAnPG91dGZpbGUubWFlPic=

> <r_lp_tautomer_probability>
1

> <r_epik_Ionization_Penalty>
4.05949

> <r_epik_Ionization_Penalty_Charging>
4.01916

> <r_epik_Ionization_Penalty_Neutral>
0.0403285

> <r_epik_State_Penalty>
4.01849

> <r_epik_Charging_Adjusted_Penalty>
8.03765

> <i_epik_Tot_Q>
-1

> <i_epik_Tot_abs_Q>
1

> <r_epik_Metal_State_Penalty>
0.626741

> <b_epik_Metal_Only>
1

> <s_lp_Force_Field>
OPLS_2005

> <r_lp_Energy>
8.7811

> <b_lp_Chiralities_Consistent>
1

> <s_lp_Variant>
AV-unprocessed.smi:2046-4

> <Gold.Version>
5.8.1

> <Gold.Id.Protein>
6NUR|6NUR_protein|mol2

> <Gold.PLP.Fitness>
39.1891

> <Gold.PLP.PLP>
-33.9477

> <Gold.PLP.part.hbond>
-3.7278

> <Gold.PLP.part.metal>
0.0000

> <Gold.PLP.part.buried>
-5.1461

> <Gold.PLP.part.nonpolar>
-25.5151

> <Gold.PLP.part.repulsive>
0.5076

> <Gold.PLP.ligand.clash>
0.0000

> <Gold.PLP.ligand.torsion>
0.4288

> <Gold.PLP.Chemscore.Hbond>
2.0312

> <Gold.PLP.Chemscore.CHOScore>
0.0000

> <Gold.PLP.Chemscore.Metal>
0.0000

> <Gold.Chemscore.Hbonds>
donor molecule, donor type, donor heavy atom, donor atom, acceptor molecule, acceptor atom, score
      L1  H     9    19       P1  8028  1.00
      P1  H  6933  6945       L1     6  0.04
      P1  H  7989  7998       L1    17  0.81

> <Gold.PLP.Chemscore.Internal.Correction>
0.0053

> <Gold.Rescore>
     Score         DG    S(hbond)    S(metal)    S(lipo)     H(rot)  DE(clash)    DE(int)     intcor
     13.42     -15.27       1.77        0.00      55.01       1.00       0.04       1.82       ----

> <Gold.Chemscore.Fitness>
13.4197

> <Gold.Chemscore.DG>
-15.2736

> <Gold.Chemscore.ZeroCoef>
-5.4800

> <Gold.Chemscore.Hbond>
1.7717

> <Gold.Chemscore.Metal>
0.0000

> <Gold.Chemscore.Lipo>
55.0105

> <Gold.Chemscore.Internal_Hbond>
0.0000

> <Gold.Chemscore.DEClash>
0.0354

> <Gold.Chemscore.DEInternal>
1.8185

> <Gold.Chemscore.Rot>
1.0000

> <Gold.Chemscore.Internal.Correction>
   9.000000E+99

> <Gold.Chemscore.Hbonds>
donor molecule, donor type, donor heavy atom, donor atom, acceptor molecule, acceptor atom, score
      L1  H     9    19       P1  8028  0.98
      P1  H  6933  6945       L1     6  0.03
      P1  H  7989  7998       L1    17  0.78

> <Gold.Chemscore.Hbond.Weighted>
-5.9173

> <Gold.Chemscore.Metal.Weighted>
-0.0000

> <Gold.Chemscore.Lipo.Weighted>
-6.4362

> <Gold.Chemscore.Internal_Hbond.Weighted>
0.0000

> <Gold.Chemscore.DEClash.Weighted>
0.0354

> <Gold.Chemscore.DEInternal.Weighted>
1.8185

> <Gold.Chemscore.Rot.Weighted>
2.5600

> <Gold.Chemscore.Internal.Correction.Weighted>
   9.000000E+99

> <Gold.Protein.RotatedTorsions>
[ 6907 6896 6895 6894 ] final  159.01 input  -60.11 | X-H torsion
[ 7974 7965 7964 7962 ] final   96.44 input  175.53 | X-H torsion
[ 8008 7997 7996 7995 ] final   29.89 input   59.86 | X-H torsion
[ 10167 10162 10161 10158 ] final  -12.00 input  -65.29 | X-H torsion
[ 10718 10713 10712 10709 ] final -145.13 input   66.30 | X-H torsion
[ 10763 10752 10751 10750 ] final   14.22 input  -60.55 | X-H torsion
[ 11005 11000 10999 10996 ] final  140.77 input  -57.11 | X-H torsion

> <Gold.Protein.ActiveResidues>
 VAL166  LYS551  ARG553  GLY616  TRP617  ASP618  TYR619  PRO620  LYS621  CYS622 
 ASP623  PHE694  ASN695  SER759  ASP760  ASP761  ALA762  ILE779  LEU786  VAL792 
 PHE793  MET794  SER795  GLU796  ALA797  LYS798  CYS799  TRP800  GLU811  SER814 

> <Gold.Protein.RotatedAtoms>
  151.9919  133.3794  159.4147 H   0  0  0  0  0  0  0  0  0  0  0  0  # atno 6907 bound_to 6896
  150.6921  134.3928  159.5093 H   0  0  0  0  0  0  0  0  0  0  0  0  # atno 6908 bound_to 6896
  152.1662  134.8871  160.0588 H   0  0  0  0  0  0  0  0  0  0  0  0  # atno 6909 bound_to 6896
  145.4388  139.2303  143.3103 H   0  0  0  0  0  0  0  0  0  0  0  0  # atno 7974 bound_to 7965
  155.0817  140.3211  155.4599 H   0  0  0  0  0  0  0  0  0  0  0  0  # atno 8008 bound_to 7997
  156.2765  140.2093  156.5891 H   0  0  0  0  0  0  0  0  0  0  0  0  # atno 8009 bound_to 7997
  154.6973  140.0510  157.0410 H   0  0  0  0  0  0  0  0  0  0  0  0  # atno 8010 bound_to 7997
  140.7151  143.5579  150.9228 H   0  0  0  0  0  0  0  0  0  0  0  0  # atno 10167 bound_to 10162
  156.3787  130.7825  151.2015 H   0  0  0  0  0  0  0  0  0  0  0  0  # atno 10718 bound_to 10713
  153.1644  135.6801  153.8697 H   0  0  0  0  0  0  0  0  0  0  0  0  # atno 10763 bound_to 10752
  153.8082  135.3146  155.3399 H   0  0  0  0  0  0  0  0  0  0  0  0  # atno 10764 bound_to 10752
  154.7955  135.4810  154.0240 H   0  0  0  0  0  0  0  0  0  0  0  0  # atno 10765 bound_to 10752
  140.0352  134.9332  157.0738 H   0  0  0  0  0  0  0  0  0  0  0  0  # atno 11005 bound_to 11000
  146.2567  140.5134  142.8870 LP  0  0  0  0  0  0  0  0  0  0  0  0  # atno 17320 bound_to 7965
  144.8135  140.6427  143.6400 LP  0  0  0  0  0  0  0  0  0  0  0  0  # atno 17321 bound_to 7965
  139.9304  143.6500  152.3077 LP  0  0  0  0  0  0  0  0  0  0  0  0  # atno 17342 bound_to 10162
  139.6949  144.7642  151.1374 LP  0  0  0  0  0  0  0  0  0  0  0  0  # atno 17343 bound_to 10162
  157.7490  131.0351  150.4346 LP  0  0  0  0  0  0  0  0  0  0  0  0  # atno 17370 bound_to 10713
  156.4586  130.4027  149.6590 LP  0  0  0  0  0  0  0  0  0  0  0  0  # atno 17371 bound_to 10713
  140.4160  134.1931  155.7163 LP  0  0  0  0  0  0  0  0  0  0  0  0  # atno 17394 bound_to 11000
  141.1853  133.8326  157.1109 LP  0  0  0  0  0  0  0  0  0  0  0  0  # atno 17395 bound_to 11000

$$$$
