AV-unprocessed.smi:1033|AV-procd|sdf|4506|dock1
  -GOLD-   22720 2513D 1   1.00000     0.00000
 Structure written by MMmdl.
 57 59  0  0  0  0  0  0  0  0  3 V2000
  152.9772  142.5976  160.8385 C   0  0  0  0  0  0  0  0  0  0  0  0
  152.0649  142.2896  159.6642 C   0  0  0  0  0  0  0  0  0  0  0  0
  151.9592  140.9567  159.2071 C   0  0  0  0  0  0  0  0  0  0  0  0
  151.1232  140.6288  158.1176 C   0  0  0  0  0  0  0  0  0  0  0  0
  150.8673  139.4089  157.5158 N   0  0  0  0  0  0  0  0  0  0  0  0
  150.0071  139.7542  156.5628 C   0  0  0  0  0  0  0  0  0  0  0  0
  149.6663  141.0548  156.4820 N   0  0  0  0  0  0  0  0  0  0  0  0
  148.7407  141.6564  155.5397 C   0  0  0  0  0  0  0  0  0  0  0  0
  148.5113  140.7752  154.2960 C   0  0  2  0  0  0  0  0  0  0  0  0
  149.5047  141.1027  153.3458 O   0  0  0  0  0  0  0  0  0  0  0  0
  147.1232  140.9774  153.6484 C   0  0  0  0  0  0  0  0  0  0  0  0
  146.5925  139.7375  153.0259 N   0  3  2  0  0  0  0  0  0  0  0  0
  146.6109  138.5870  153.9627 C   0  0  0  0  0  0  0  0  0  0  0  0
  145.9776  137.3370  153.3264 C   0  0  0  0  0  0  0  0  0  0  0  0
  146.6464  136.9893  152.0489 N   0  3  1  0  0  0  0  0  0  0  0  0
  146.1267  135.7284  151.4593 C   0  0  0  0  0  0  0  0  0  0  0  0
  144.6952  135.8801  150.9082 C   0  0  2  0  0  0  0  0  0  0  0  0
  143.6479  135.8920  152.0295 C   0  0  0  0  0  0  0  0  0  0  0  0
  144.4152  134.7887  150.0554 O   0  0  0  0  0  0  0  0  0  0  0  0
  146.6230  138.1384  151.1083 C   0  0  0  0  0  0  0  0  0  0  0  0
  147.2566  139.3891  151.7434 C   0  0  0  0  0  0  0  0  0  0  0  0
  150.3899  141.6795  157.4925 C   0  0  0  0  0  0  0  0  0  0  0  0
  150.4868  143.0097  157.9378 C   0  0  0  0  0  0  0  0  0  0  0  0
  151.3269  143.3198  159.0276 C   0  0  0  0  0  0  0  0  0  0  0  0
  151.4264  144.7590  159.5007 C   0  0  0  0  0  0  0  0  0  0  0  0
  153.4393  141.6920  161.2326 H   0  0  0  0  0  0  0  0  0  0  0  0
  152.4158  143.0643  161.6482 H   0  0  0  0  0  0  0  0  0  0  0  0
  153.7752  143.2750  160.5336 H   0  0  0  0  0  0  0  0  0  0  0  0
  152.5225  140.1725  159.6910 H   0  0  0  0  0  0  0  0  0  0  0  0
  149.5944  139.0181  155.8884 H   0  0  0  0  0  0  0  0  0  0  0  0
  147.7976  141.8496  156.0527 H   0  0  0  0  0  0  0  0  0  0  0  0
  149.1389  142.6291  155.2469 H   0  0  0  0  0  0  0  0  0  0  0  0
  148.6510  139.7337  154.5840 H   0  0  0  0  0  0  0  0  0  0  0  0
  149.4607  140.4797  152.6354 H   0  0  0  0  0  0  0  0  0  0  0  0
  146.3962  141.3376  154.3768 H   0  0  0  0  0  0  0  0  0  0  0  0
  147.2089  141.7609  152.8936 H   0  0  0  0  0  0  0  0  0  0  0  0
  147.6400  138.3765  154.2588 H   0  0  0  0  0  0  0  0  0  0  0  0
  146.0651  138.8429  154.8719 H   0  0  0  0  0  0  0  0  0  0  0  0
  146.0566  136.5012  154.0229 H   0  0  0  0  0  0  0  0  0  0  0  0
  144.9138  137.5035  153.1480 H   0  0  0  0  0  0  0  0  0  0  0  0
  146.7765  135.4087  150.6424 H   0  0  0  0  0  0  0  0  0  0  0  0
  146.1687  134.9345  152.2068 H   0  0  0  0  0  0  0  0  0  0  0  0
  144.5955  136.8005  150.3339 H   0  0  0  0  0  0  0  0  0  0  0  0
  143.8107  136.7303  152.7074 H   0  0  0  0  0  0  0  0  0  0  0  0
  143.6840  134.9756  152.6202 H   0  0  0  0  0  0  0  0  0  0  0  0
  142.6391  135.9885  151.6264 H   0  0  0  0  0  0  0  0  0  0  0  0
  143.5313  134.8780  149.7303 H   0  0  0  0  0  0  0  0  0  0  0  0
  147.1628  137.8923  150.1946 H   0  0  0  0  0  0  0  0  0  0  0  0
  145.5927  138.3509  150.8178 H   0  0  0  0  0  0  0  0  0  0  0  0
  147.1847  140.2180  151.0402 H   0  0  0  0  0  0  0  0  0  0  0  0
  148.3199  139.2175  151.9189 H   0  0  0  0  0  0  0  0  0  0  0  0
  149.9198  143.7856  157.4454 H   0  0  0  0  0  0  0  0  0  0  0  0
  150.8059  145.4212  158.8962 H   0  0  0  0  0  0  0  0  0  0  0  0
  152.4556  145.1131  159.4348 H   0  0  0  0  0  0  0  0  0  0  0  0
  151.0965  144.8442  160.5363 H   0  0  0  0  0  0  0  0  0  0  0  0
  147.6140  136.8090  152.2776 H   0  0  0  0  0  0  0  0  0  0  0  0
  145.6203  139.9225  152.8208 H   0  0  0  0  0  0  0  0  0  0  0  0
  1  2  1  0  0  0  0
  1 26  1  0  0  0  0
  1 27  1  0  0  0  0
  1 28  1  0  0  0  0
  2 24  1  0  0  0  0
  2  3  2  0  0  0  0
  3  4  1  0  0  0  0
  3 29  1  0  0  0  0
  4 22  2  0  0  0  0
  4  5  1  0  0  0  0
  5  6  2  0  0  0  0
  6  7  1  0  0  0  0
  6 30  1  0  0  0  0
  7  8  1  0  0  0  0
  7 22  1  0  0  0  0
  8  9  1  0  0  0  0
  8 31  1  0  0  0  0
  8 32  1  0  0  0  0
  9 10  1  0  0  0  0
  9 11  1  0  0  0  0
  9 33  1  0  0  0  0
 10 34  1  0  0  0  0
 11 12  1  0  0  0  0
 11 35  1  0  0  0  0
 11 36  1  0  0  0  0
 12 21  1  0  0  0  0
 12 13  1  0  0  0  0
 12 57  1  0  0  0  0
 13 14  1  0  0  0  0
 13 37  1  0  0  0  0
 13 38  1  0  0  0  0
 14 15  1  0  0  0  0
 14 39  1  0  0  0  0
 14 40  1  0  0  0  0
 15 16  1  0  0  0  0
 15 20  1  0  0  0  0
 15 56  1  0  0  0  0
 16 17  1  0  0  0  0
 16 41  1  0  0  0  0
 16 42  1  0  0  0  0
 17 18  1  0  0  0  0
 17 19  1  0  0  0  0
 17 43  1  0  0  0  0
 18 44  1  0  0  0  0
 18 45  1  0  0  0  0
 18 46  1  0  0  0  0
 19 47  1  0  0  0  0
 20 21  1  0  0  0  0
 20 48  1  0  0  0  0
 20 49  1  0  0  0  0
 21 50  1  0  0  0  0
 21 51  1  0  0  0  0
 22 23  1  0  0  0  0
 23 24  2  0  0  0  0
 23 52  1  0  0  0  0
 24 25  1  0  0  0  0
 25 53  1  0  0  0  0
 25 54  1  0  0  0  0
 25 55  1  0  0  0  0
M  CHG  1  12   1
M  CHG  1  15   1
M  END
> <s_m_source_file>
AV-unprocessed.smi

> <i_m_source_file_index>
1033

> <i_lp_mmshare_version>
43012

> <i_f3d_flags>
0

> <s_epik_input>
W0NIM11jKFtjSF0xKWMoW0NIM10pW2NIXWMoYzEyKW4oW2NIXW4yKVtDSDJdW0NASF0oW09IXSlbQ0gyXU4zW0NIMl1bQ0gyXU4oW0NIMl1bQ0gyXTMpW0NIMl1bQ0BIXShbQ0gzXSlbT0hd

> <s_epik_cmdline>
J2VwaWtfcHl0aG9uJywgJy1waCcsICc3LjAnLCAnLXRuJywgJzgnLCAnLW1hJywgJzIwMCcsICctbWV0YWxfYmluZGluZycsICctaW1hZScsICc8aW5maWxlLm1hZT4nLCAnLW9tYWUnLCAnPG91dGZpbGUubWFlPic=

> <r_epik_Ionization_Penalty>
3.16016

> <r_epik_Ionization_Penalty_Charging>
3.07679

> <r_epik_Ionization_Penalty_Neutral>
0.083365

> <r_epik_State_Penalty>
2.09701

> <r_epik_Charging_Adjusted_Penalty>
5.1738

> <i_epik_Tot_Q>
2

> <i_epik_Tot_abs_Q>
2

> <r_epik_Metal_State_Penalty>
2.02534

> <b_epik_Metal_Only>
0

> <s_lp_Force_Field>
OPLS_2005

> <r_lp_Energy>
27.6073

> <b_lp_Chiralities_Consistent>
1

> <s_lp_Variant>
AV-unprocessed.smi:1033-17

> <Gold.Version>
5.8.1

> <Gold.Id.Protein>
6NUR|6NUR_protein|mol2

> <Gold.PLP.Fitness>
66.2375

> <Gold.PLP.PLP>
-48.5879

> <Gold.PLP.part.hbond>
-5.3282

> <Gold.PLP.part.metal>
0.0000

> <Gold.PLP.part.buried>
-0.6779

> <Gold.PLP.part.nonpolar>
-43.4997

> <Gold.PLP.part.repulsive>
0.0385

> <Gold.PLP.ligand.clash>
0.0000

> <Gold.PLP.ligand.torsion>
1.2653

> <Gold.PLP.Chemscore.Hbond>
6.5886

> <Gold.PLP.Chemscore.CHOScore>
0.0000

> <Gold.PLP.Chemscore.Metal>
0.0000

> <Gold.Chemscore.Hbonds>
donor molecule, donor type, donor heavy atom, donor atom, acceptor molecule, acceptor atom, score
      L1  H    10    34       P1  7957  1.00
      L1  H    12    57       P1 10175  1.95
      L1  H    15    56       P1  7948  1.78
      P1  H  7989  7998       L1    10  0.08
      P1  H  8011  8017       L1    10  0.70

> <Gold.PLP.Chemscore.Internal.Correction>
0.4144

> <Gold.Rescore>
     Score         DG    S(hbond)    S(metal)    S(lipo)     H(rot)  DE(clash)    DE(int)     intcor
     21.46     -25.18       3.56        0.00     135.40       3.14       2.49       1.24       ----

> <Gold.Chemscore.Fitness>
21.4592

> <Gold.Chemscore.DG>
-25.1844

> <Gold.Chemscore.ZeroCoef>
-5.4800

> <Gold.Chemscore.Hbond>
3.5616

> <Gold.Chemscore.Metal>
0.0000

> <Gold.Chemscore.Lipo>
135.3992

> <Gold.Chemscore.Internal_Hbond>
0.0000

> <Gold.Chemscore.DEClash>
2.4865

> <Gold.Chemscore.DEInternal>
1.2387

> <Gold.Chemscore.Rot>
3.1380

> <Gold.Chemscore.Internal.Correction>
   9.000000E+99

> <Gold.Chemscore.Hbonds>
donor molecule, donor type, donor heavy atom, donor atom, acceptor molecule, acceptor atom, score
      L1  H    10    34       P1  7957  0.92
      L1  H    12    57       P1 10175  0.91
      L1  H    15    56       P1  7948  0.82
      P1  H  8011  8017       L1    10  0.07

> <Gold.Chemscore.Hbond.Weighted>
-11.8959

> <Gold.Chemscore.Metal.Weighted>
-0.0000

> <Gold.Chemscore.Lipo.Weighted>
-15.8417

> <Gold.Chemscore.Internal_Hbond.Weighted>
0.0000

> <Gold.Chemscore.DEClash.Weighted>
2.4865

> <Gold.Chemscore.DEInternal.Weighted>
1.2387

> <Gold.Chemscore.Rot.Weighted>
8.0332

> <Gold.Chemscore.Internal.Correction.Weighted>
   9.000000E+99

> <Gold.Protein.RotatedTorsions>
[ 6907 6896 6895 6894 ] final  152.06 input  -60.11 | X-H torsion
[ 7974 7965 7964 7962 ] final   28.65 input  175.53 | X-H torsion
[ 8008 7997 7996 7995 ] final   26.03 input   59.86 | X-H torsion
[ 10167 10162 10161 10158 ] final  159.65 input  -65.29 | X-H torsion
[ 10718 10713 10712 10709 ] final  105.26 input   66.30 | X-H torsion
[ 10763 10752 10751 10750 ] final -110.87 input  -60.55 | X-H torsion
[ 11005 11000 10999 10996 ] final    2.60 input  -57.11 | X-H torsion

> <Gold.Protein.ActiveResidues>
 VAL166  LYS551  ARG553  GLY616  TRP617  ASP618  TYR619  PRO620  LYS621  CYS622 
 ASP623  PHE694  ASN695  SER759  ASP760  ASP761  ALA762  ILE779  LEU786  VAL792 
 PHE793  MET794  SER795  GLU796  ALA797  LYS798  CYS799  TRP800  GLU811  SER814 

> <Gold.Protein.RotatedAtoms>
  152.0920  133.4205  159.4547 H   0  0  0  0  0  0  0  0  0  0  0  0  # atno 6907 bound_to 6896
  150.6862  134.2861  159.4656 H   0  0  0  0  0  0  0  0  0  0  0  0  # atno 6908 bound_to 6896
  152.0713  134.9531  160.0625 H   0  0  0  0  0  0  0  0  0  0  0  0  # atno 6909 bound_to 6896
  146.1716  139.7027  142.8963 H   0  0  0  0  0  0  0  0  0  0  0  0  # atno 7974 bound_to 7965
  155.0209  140.3147  155.4794 H   0  0  0  0  0  0  0  0  0  0  0  0  # atno 8008 bound_to 7997
  156.2892  140.2197  156.5269 H   0  0  0  0  0  0  0  0  0  0  0  0  # atno 8009 bound_to 7997
  154.7453  140.0470  157.0834 H   0  0  0  0  0  0  0  0  0  0  0  0  # atno 8010 bound_to 7997
  139.4834  144.4709  151.8577 H   0  0  0  0  0  0  0  0  0  0  0  0  # atno 10167 bound_to 10162
  157.6712  131.0823  150.5830 H   0  0  0  0  0  0  0  0  0  0  0  0  # atno 10718 bound_to 10713
  154.8271  135.4548  154.0951 H   0  0  0  0  0  0  0  0  0  0  0  0  # atno 10763 bound_to 10752
  153.2257  135.6899  153.7955 H   0  0  0  0  0  0  0  0  0  0  0  0  # atno 10764 bound_to 10752
  153.7356  135.3320  155.3271 H   0  0  0  0  0  0  0  0  0  0  0  0  # atno 10765 bound_to 10752
  140.6025  133.9823  155.8138 H   0  0  0  0  0  0  0  0  0  0  0  0  # atno 11005 bound_to 11000
  145.4323  141.0416  143.2903 LP  0  0  0  0  0  0  0  0  0  0  0  0  # atno 17320 bound_to 7965
  144.8172  139.5855  143.7003 LP  0  0  0  0  0  0  0  0  0  0  0  0  # atno 17321 bound_to 7965
  140.4178  144.2283  150.5887 LP  0  0  0  0  0  0  0  0  0  0  0  0  # atno 17342 bound_to 10162
  140.4903  143.2349  151.8827 LP  0  0  0  0  0  0  0  0  0  0  0  0  # atno 17343 bound_to 10162
  156.6130  130.4385  149.5851 LP  0  0  0  0  0  0  0  0  0  0  0  0  # atno 17370 bound_to 10713
  156.2415  130.6854  151.1560 LP  0  0  0  0  0  0  0  0  0  0  0  0  # atno 17371 bound_to 10713
  141.0863  133.9986  157.3308 LP  0  0  0  0  0  0  0  0  0  0  0  0  # atno 17394 bound_to 11000
  139.9226  135.0201  156.8121 LP  0  0  0  0  0  0  0  0  0  0  0  0  # atno 17395 bound_to 11000

$$$$
