AV-unprocessed.smi:1026|AV-procd|sdf|4468|dock2
  -GOLD-   22720 2443D 1   1.00000     0.00000
 Structure written by MMmdl.
 40 41  0  0  0  0  0  0  0  0  1 V2000
  143.7544  145.0495  155.7162 C   0  0  0  0  0  0  0  0  0  0  0  0
  144.4054  143.7503  156.2026 C   0  0  0  0  0  0  0  0  0  0  0  0
  145.3216  143.1537  155.1873 C   0  0  0  0  0  0  0  0  0  0  0  0
  146.0839  142.0828  155.4236 N   0  0  0  0  0  0  0  0  0  0  0  0
  146.8814  141.7356  154.3287 C   0  0  0  0  0  0  0  0  0  0  0  0
  147.7944  140.5505  154.4169 C   0  0  0  0  0  0  0  0  0  0  0  0
  149.2779  140.9524  154.3665 C   0  0  0  0  0  0  0  0  0  0  0  0
  149.5672  142.0466  155.2859 N   0  0  0  0  0  0  0  0  0  0  0  0
  150.5500  142.0433  156.2025 C   0  0  0  0  0  0  0  0  0  0  0  0
  151.3299  141.1051  156.3545 O   0  0  0  0  0  0  0  0  0  0  0  0
  150.6272  143.1562  156.9546 N   0  0  0  0  0  0  0  0  0  0  0  0
  151.5717  143.4702  158.0292 C   0  0  0  0  0  0  0  0  0  0  0  0
  151.6285  142.3155  159.0520 C   0  0  0  0  0  0  0  0  0  0  0  0
  152.6473  142.5719  160.1721 C   0  0  0  0  0  0  0  0  0  0  0  0
  152.2087  144.0420  161.1393 S   0  0  0  0  0  0  0  0  0  0  0  0
  152.1391  145.2443  159.7839 C   0  0  0  0  0  0  0  0  0  0  0  0
  151.1554  144.7970  158.6928 C   0  0  0  0  0  0  0  0  0  0  0  0
  146.7174  142.5725  153.2531 C   0  0  0  0  0  0  0  0  0  0  0  0
  145.5580  143.8315  153.5803 S   0  0  0  0  0  0  0  0  0  0  0  0
  143.0944  145.4626  156.4792 H   0  0  0  0  0  0  0  0  0  0  0  0
  143.1605  144.8795  154.8177 H   0  0  0  0  0  0  0  0  0  0  0  0
  144.5073  145.8031  155.4835 H   0  0  0  0  0  0  0  0  0  0  0  0
  144.9672  143.9357  157.1189 H   0  0  0  0  0  0  0  0  0  0  0  0
  143.6358  143.0188  156.4509 H   0  0  0  0  0  0  0  0  0  0  0  0
  147.5998  139.9997  155.3377 H   0  0  0  0  0  0  0  0  0  0  0  0
  147.5732  139.8578  153.6039 H   0  0  0  0  0  0  0  0  0  0  0  0
  149.9159  140.0962  154.5923 H   0  0  0  0  0  0  0  0  0  0  0  0
  149.5403  141.2773  153.3594 H   0  0  0  0  0  0  0  0  0  0  0  0
  148.9756  142.8624  155.2266 H   0  0  0  0  0  0  0  0  0  0  0  0
  149.9552  143.8800  156.7438 H   0  0  0  0  0  0  0  0  0  0  0  0
  152.5653  143.6164  157.6017 H   0  0  0  0  0  0  0  0  0  0  0  0
  150.6409  142.1526  159.4860 H   0  0  0  0  0  0  0  0  0  0  0  0
  151.8940  141.3864  158.5464 H   0  0  0  0  0  0  0  0  0  0  0  0
  152.6920  141.7149  160.8442 H   0  0  0  0  0  0  0  0  0  0  0  0
  153.6461  142.7043  159.7555 H   0  0  0  0  0  0  0  0  0  0  0  0
  151.8376  146.2100  160.1900 H   0  0  0  0  0  0  0  0  0  0  0  0
  153.1393  145.3706  159.3679 H   0  0  0  0  0  0  0  0  0  0  0  0
  151.0952  145.5785  157.9341 H   0  0  0  0  0  0  0  0  0  0  0  0
  150.1546  144.7067  159.1174 H   0  0  0  0  0  0  0  0  0  0  0  0
  147.2091  142.5275  152.2927 H   0  0  0  0  0  0  0  0  0  0  0  0
  1  2  1  0  0  0  0
  1 20  1  0  0  0  0
  1 21  1  0  0  0  0
  1 22  1  0  0  0  0
  2  3  1  0  0  0  0
  2 23  1  0  0  0  0
  2 24  1  0  0  0  0
  3 19  1  0  0  0  0
  3  4  2  0  0  0  0
  4  5  1  0  0  0  0
  5  6  1  0  0  0  0
  5 18  2  0  0  0  0
  6  7  1  0  0  0  0
  6 25  1  0  0  0  0
  6 26  1  0  0  0  0
  7  8  1  0  0  0  0
  7 27  1  0  0  0  0
  7 28  1  0  0  0  0
  8  9  1  0  0  0  0
  8 29  1  0  0  0  0
  9 10  2  0  0  0  0
  9 11  1  0  0  0  0
 11 12  1  0  0  0  0
 11 30  1  0  0  0  0
 12 17  1  0  0  0  0
 12 13  1  0  0  0  0
 12 31  1  0  0  0  0
 13 14  1  0  0  0  0
 13 32  1  0  0  0  0
 13 33  1  0  0  0  0
 14 15  1  0  0  0  0
 14 34  1  0  0  0  0
 14 35  1  0  0  0  0
 15 16  1  0  0  0  0
 16 17  1  0  0  0  0
 16 36  1  0  0  0  0
 16 37  1  0  0  0  0
 17 38  1  0  0  0  0
 17 39  1  0  0  0  0
 18 19  1  0  0  0  0
 18 40  1  0  0  0  0
M  END
> <s_m_source_file>
AV-unprocessed.smi

> <i_m_source_file_index>
1026

> <i_lp_mmshare_version>
43012

> <i_f3d_flags>
0

> <s_epik_input>
W0NIM11bQ0gyXWMxbmMoW2NIXXMxKVtDSDJdW0NIMl1bTkhdQyg9TylbTkhdW0NIXTJbQ0gyXVtDSDJdU1tDSDJdW0NIMl0y

> <s_epik_cmdline>
J2VwaWtfcHl0aG9uJywgJy1waCcsICc3LjAnLCAnLXRuJywgJzgnLCAnLW1hJywgJzIwMCcsICctbWV0YWxfYmluZGluZycsICctaW1hZScsICc8aW5maWxlLm1hZT4nLCAnLW9tYWUnLCAnPG91dGZpbGUubWFlPic=

> <r_epik_Ionization_Penalty>
0.00199316

> <r_epik_Ionization_Penalty_Charging>
0

> <r_epik_Ionization_Penalty_Neutral>
0.00199316

> <r_epik_State_Penalty>
0.00132065

> <r_epik_Charging_Adjusted_Penalty>
0.00132065

> <i_epik_Tot_Q>
0

> <i_epik_Tot_abs_Q>
0

> <r_epik_Metal_State_Penalty>
-0

> <b_epik_Metal_Only>
0

> <s_lp_Force_Field>
OPLS_2005

> <r_lp_Energy>
4.0728

> <b_lp_Chiralities_Consistent>
1

> <s_lp_Variant>
AV-unprocessed.smi:1026-1

> <Gold.Version>
5.8.1

> <Gold.Id.Protein>
6NUR|6NUR_protein|mol2

> <Gold.PLP.Fitness>
49.1132

> <Gold.PLP.PLP>
-43.7643

> <Gold.PLP.part.hbond>
-2.0000

> <Gold.PLP.part.metal>
0.0000

> <Gold.PLP.part.buried>
-7.5883

> <Gold.PLP.part.nonpolar>
-33.8375

> <Gold.PLP.part.repulsive>
0.3762

> <Gold.PLP.ligand.clash>
0.0000

> <Gold.PLP.ligand.torsion>
0.1891

> <Gold.PLP.Chemscore.Hbond>
1.8960

> <Gold.PLP.Chemscore.CHOScore>
0.0000

> <Gold.PLP.Chemscore.Metal>
0.0000

> <Gold.Chemscore.Hbonds>
donor molecule, donor type, donor heavy atom, donor atom, acceptor molecule, acceptor atom, score
      L1  H     8    29       P1  8028  0.88
      L1  H    11    30       P1  8028  1.00

> <Gold.PLP.Chemscore.Internal.Correction>
0.0391

> <Gold.Rescore>
     Score         DG    S(hbond)    S(metal)    S(lipo)     H(rot)  DE(clash)    DE(int)     intcor
     18.73     -20.32       1.78        0.00     110.42       1.58       0.23       1.37       ----

> <Gold.Chemscore.Fitness>
18.7254

> <Gold.Chemscore.DG>
-20.3203

> <Gold.Chemscore.ZeroCoef>
-5.4800

> <Gold.Chemscore.Hbond>
1.7837

> <Gold.Chemscore.Metal>
0.0000

> <Gold.Chemscore.Lipo>
110.4223

> <Gold.Chemscore.Internal_Hbond>
0.0000

> <Gold.Chemscore.DEClash>
0.2270

> <Gold.Chemscore.DEInternal>
1.3679

> <Gold.Chemscore.Rot>
1.5768

> <Gold.Chemscore.Internal.Correction>
   9.000000E+99

> <Gold.Chemscore.Hbonds>
donor molecule, donor type, donor heavy atom, donor atom, acceptor molecule, acceptor atom, score
      L1  H     8    29       P1  8028  0.86
      L1  H    11    30       P1  8028  0.96

> <Gold.Chemscore.Hbond.Weighted>
-5.9576

> <Gold.Chemscore.Metal.Weighted>
-0.0000

> <Gold.Chemscore.Lipo.Weighted>
-12.9194

> <Gold.Chemscore.Internal_Hbond.Weighted>
0.0000

> <Gold.Chemscore.DEClash.Weighted>
0.2270

> <Gold.Chemscore.DEInternal.Weighted>
1.3679

> <Gold.Chemscore.Rot.Weighted>
4.0367

> <Gold.Chemscore.Internal.Correction.Weighted>
   9.000000E+99

> <Gold.Protein.RotatedTorsions>
[ 6907 6896 6895 6894 ] final  -58.59 input  -60.11 | X-H torsion
[ 7974 7965 7964 7962 ] final   34.44 input  175.53 | X-H torsion
[ 8008 7997 7996 7995 ] final -147.11 input   59.86 | X-H torsion
[ 10167 10162 10161 10158 ] final -178.65 input  -65.29 | X-H torsion
[ 10718 10713 10712 10709 ] final  167.91 input   66.30 | X-H torsion
[ 10763 10752 10751 10750 ] final -124.79 input  -60.55 | X-H torsion
[ 11005 11000 10999 10996 ] final   80.11 input  -57.11 | X-H torsion

> <Gold.Protein.ActiveResidues>
 VAL166  LYS551  ARG553  GLY616  TRP617  ASP618  TYR619  PRO620  LYS621  CYS622 
 ASP623  PHE694  ASN695  SER759  ASP760  ASP761  ALA762  ILE779  LEU786  VAL792 
 PHE793  MET794  SER795  GLU796  ALA797  LYS798  CYS799  TRP800  GLU811  SER814 

> <Gold.Protein.RotatedAtoms>
  150.7995  134.7079  159.6586 H   0  0  0  0  0  0  0  0  0  0  0  0  # atno 6907 bound_to 6896
  152.4111  134.6120  160.0038 H   0  0  0  0  0  0  0  0  0  0  0  0  # atno 6908 bound_to 6896
  151.6362  133.3292  159.3156 H   0  0  0  0  0  0  0  0  0  0  0  0  # atno 6909 bound_to 6896
  146.1352  139.6268  142.9200 H   0  0  0  0  0  0  0  0  0  0  0  0  # atno 7974 bound_to 7965
  155.5703  140.0633  157.2808 H   0  0  0  0  0  0  0  0  0  0  0  0  # atno 8008 bound_to 7997
  154.4363  140.1870  156.0918 H   0  0  0  0  0  0  0  0  0  0  0  0  # atno 8009 bound_to 7997
  156.0381  140.3299  155.7217 H   0  0  0  0  0  0  0  0  0  0  0  0  # atno 8010 bound_to 7997
  139.5423  144.2330  152.0919 H   0  0  0  0  0  0  0  0  0  0  0  0  # atno 10167 bound_to 10162
  157.0448  131.0297  151.2701 H   0  0  0  0  0  0  0  0  0  0  0  0  # atno 10718 bound_to 10713
  154.8728  135.4051  154.3163 H   0  0  0  0  0  0  0  0  0  0  0  0  # atno 10763 bound_to 10752
  153.3998  135.7017  153.6439 H   0  0  0  0  0  0  0  0  0  0  0  0  # atno 10764 bound_to 10752
  153.5187  135.3692  155.2592 H   0  0  0  0  0  0  0  0  0  0  0  0  # atno 10765 bound_to 10752
  139.9147  134.7895  156.1866 H   0  0  0  0  0  0  0  0  0  0  0  0  # atno 11005 bound_to 11000
  145.5171  141.0433  143.2456 LP  0  0  0  0  0  0  0  0  0  0  0  0  # atno 17320 bound_to 7965
  144.7732  139.6687  143.7186 LP  0  0  0  0  0  0  0  0  0  0  0  0  # atno 17321 bound_to 7965
  140.1811  144.4843  150.6528 LP  0  0  0  0  0  0  0  0  0  0  0  0  # atno 17342 bound_to 10162
  140.6657  143.2267  151.5748 LP  0  0  0  0  0  0  0  0  0  0  0  0  # atno 17343 bound_to 10162
  157.5076  130.7919  149.7671 LP  0  0  0  0  0  0  0  0  0  0  0  0  # atno 17370 bound_to 10713
  156.0026  130.3872  150.2547 LP  0  0  0  0  0  0  0  0  0  0  0  0  # atno 17371 bound_to 10713
  141.0609  133.6842  156.1951 LP  0  0  0  0  0  0  0  0  0  0  0  0  # atno 17394 bound_to 11000
  140.6662  134.4916  157.5585 LP  0  0  0  0  0  0  0  0  0  0  0  0  # atno 17395 bound_to 11000

$$$$
