AV-unprocessed.smi:1970|AV-procd|sdf|7961|dock4
  -GOLD-   2272010133D 1   1.00000     0.00000
 Structure written by MMmdl.
 34 35  0  0  0  0  0  0  0  0  2 V2000
  149.1965  139.9151  154.2296 O   0  0  0  0  0  0  0  0  0  0  0  0
  149.0861  141.1314  154.3896 C   0  0  0  0  0  0  0  0  0  0  0  0
  148.0080  141.9242  153.6396 C   0  0  0  0  0  0  0  0  0  0  0  0
  146.9459  142.4143  154.5222 N   0  0  0  0  0  0  0  0  0  0  0  0
  146.9622  142.0148  155.9251 C   0  0  0  0  0  0  0  0  0  0  0  0
  145.7374  143.0405  156.7779 S   0  0  0  0  0  0  0  0  0  0  0  0
  144.9742  143.5788  155.2381 C   0  0  0  0  0  0  0  0  0  0  0  0
  145.9337  143.2041  154.1218 C   0  0  0  0  0  0  0  0  0  0  0  0
  145.7679  143.6086  152.9712 O   0  0  0  0  0  0  0  0  0  0  0  0
  149.8874  141.8401  155.1991 N   0  0  0  0  0  0  0  0  0  0  0  0
  150.9566  141.2760  156.0141 C   0  0  0  0  0  0  0  0  0  0  0  0
  150.6291  141.3691  157.5141 C   0  0  0  0  0  0  0  0  0  0  0  0
  151.1232  142.6623  158.1322 C   0  0  0  0  0  0  0  0  0  0  0  0
  152.0041  142.6766  159.2355 C   0  0  0  0  0  0  0  0  0  0  0  0
  152.4308  143.9140  159.7606 C   0  0  0  0  0  0  0  0  0  0  0  0
  151.9694  145.1097  159.1715 C   0  0  0  0  0  0  0  0  0  0  0  0
  151.0920  145.0371  158.0703 C   0  0  0  0  0  0  0  0  0  0  0  0
  150.7056  143.8321  157.5962 N   0  3  0  0  0  0  0  0  0  0  0  0
  148.4623  142.7669  153.1148 H   0  0  0  0  0  0  0  0  0  0  0  0
  147.5797  141.2802  152.8706 H   0  0  0  0  0  0  0  0  0  0  0  0
  146.6905  140.9625  156.0137 H   0  0  0  0  0  0  0  0  0  0  0  0
  147.9481  142.1587  156.3685 H   0  0  0  0  0  0  0  0  0  0  0  0
  144.0229  143.0662  155.0941 H   0  0  0  0  0  0  0  0  0  0  0  0
  144.7934  144.6537  155.2568 H   0  0  0  0  0  0  0  0  0  0  0  0
  149.7355  142.8364  155.2652 H   0  0  0  0  0  0  0  0  0  0  0  0
  151.1362  140.2388  155.7256 H   0  0  0  0  0  0  0  0  0  0  0  0
  151.8747  141.8222  155.7960 H   0  0  0  0  0  0  0  0  0  0  0  0
  149.5518  141.2916  157.6676 H   0  0  0  0  0  0  0  0  0  0  0  0
  151.0755  140.5314  158.0518 H   0  0  0  0  0  0  0  0  0  0  0  0
  152.3505  141.7518  159.6742 H   0  0  0  0  0  0  0  0  0  0  0  0
  153.1042  143.9454  160.6047 H   0  0  0  0  0  0  0  0  0  0  0  0
  152.2845  146.0678  159.5588 H   0  0  0  0  0  0  0  0  0  0  0  0
  150.6908  145.8995  157.5583 H   0  0  0  0  0  0  0  0  0  0  0  0
  150.0700  143.8036  156.7987 H   0  0  0  0  0  0  0  0  0  0  0  0
  1  2  2  0  0  0  0
  2  3  1  0  0  0  0
  2 10  1  0  0  0  0
  3  4  1  0  0  0  0
  3 19  1  0  0  0  0
  3 20  1  0  0  0  0
  4  8  1  0  0  0  0
  4  5  1  0  0  0  0
  5  6  1  0  0  0  0
  5 21  1  0  0  0  0
  5 22  1  0  0  0  0
  6  7  1  0  0  0  0
  7  8  1  0  0  0  0
  7 23  1  0  0  0  0
  7 24  1  0  0  0  0
  8  9  2  0  0  0  0
 10 11  1  0  0  0  0
 10 25  1  0  0  0  0
 11 12  1  0  0  0  0
 11 26  1  0  0  0  0
 11 27  1  0  0  0  0
 12 13  1  0  0  0  0
 12 28  1  0  0  0  0
 12 29  1  0  0  0  0
 13 18  1  0  0  0  0
 13 14  2  0  0  0  0
 14 15  1  0  0  0  0
 14 30  1  0  0  0  0
 15 16  2  0  0  0  0
 15 31  1  0  0  0  0
 16 17  1  0  0  0  0
 16 32  1  0  0  0  0
 17 18  2  0  0  0  0
 17 33  1  0  0  0  0
 18 34  1  0  0  0  0
M  CHG  1  18   1
M  END
> <s_m_source_file>
AV-unprocessed.smi

> <i_m_source_file_index>
1970

> <i_lp_mmshare_version>
43012

> <i_f3d_flags>
0

> <s_epik_input>
Tz1DMVtDSDJdU1tDSDJdTjFbQ0gyXUMoPU8pW05IXVtDSDJdW0NIMl1jMltjSF1bY0hdW2NIXVtjSF1uMg==

> <s_epik_cmdline>
J2VwaWtfcHl0aG9uJywgJy1waCcsICc3LjAnLCAnLXRuJywgJzgnLCAnLW1hJywgJzIwMCcsICctbWV0YWxfYmluZGluZycsICctaW1hZScsICc8aW5maWxlLm1hZT4nLCAnLW9tYWUnLCAnPG91dGZpbGUubWFlPic=

> <r_epik_Ionization_Penalty>
1.87519

> <r_epik_Ionization_Penalty_Charging>
1.87519

> <r_epik_Ionization_Penalty_Neutral>
8.746e-08

> <r_epik_State_Penalty>
1.99452

> <r_epik_Charging_Adjusted_Penalty>
3.86972

> <i_epik_Tot_Q>
1

> <i_epik_Tot_abs_Q>
1

> <r_epik_Metal_State_Penalty>
2.01927

> <b_epik_Metal_Only>
0

> <s_epik_Chemistry_Notes>
This compound contains an acetal/aminal-like group ( X-CH(R)-Y where X, Y are N, S, or O) that may be acid/base labile, releasing an aldehyde.

> <s_lp_Force_Field>
OPLS_2005

> <r_lp_Energy>
10.5607

> <b_lp_Chiralities_Consistent>
1

> <s_lp_Variant>
AV-unprocessed.smi:1970-2

> <Gold.Version>
5.8.1

> <Gold.Id.Protein>
6NUR|6NUR_protein|mol2

> <Gold.PLP.Fitness>
48.7880

> <Gold.PLP.PLP>
-40.4384

> <Gold.PLP.part.hbond>
-2.0000

> <Gold.PLP.part.metal>
0.0000

> <Gold.PLP.part.buried>
-6.3003

> <Gold.PLP.part.nonpolar>
-31.8886

> <Gold.PLP.part.repulsive>
0.5308

> <Gold.PLP.ligand.clash>
0.0000

> <Gold.PLP.ligand.torsion>
0.3479

> <Gold.PLP.Chemscore.Hbond>
3.0000

> <Gold.PLP.Chemscore.CHOScore>
0.0000

> <Gold.PLP.Chemscore.Metal>
0.0000

> <Gold.Chemscore.Hbonds>
donor molecule, donor type, donor heavy atom, donor atom, acceptor molecule, acceptor atom, score
      L1  H    10    25       P1  8028  0.83
      L1  H    18    34       P1  8028  1.89

> <Gold.PLP.Chemscore.Internal.Correction>
0.0454

> <Gold.Rescore>
     Score         DG    S(hbond)    S(metal)    S(lipo)     H(rot)  DE(clash)    DE(int)     intcor
     16.03     -16.72       1.94        0.00      85.00       2.03       0.20       0.49       ----

> <Gold.Chemscore.Fitness>
16.0268

> <Gold.Chemscore.DG>
-16.7156

> <Gold.Chemscore.ZeroCoef>
-5.4800

> <Gold.Chemscore.Hbond>
1.9424

> <Gold.Chemscore.Metal>
0.0000

> <Gold.Chemscore.Lipo>
84.9983

> <Gold.Chemscore.Internal_Hbond>
0.0000

> <Gold.Chemscore.DEClash>
0.2003

> <Gold.Chemscore.DEInternal>
0.4885

> <Gold.Chemscore.Rot>
2.0300

> <Gold.Chemscore.Internal.Correction>
   9.000000E+99

> <Gold.Chemscore.Hbonds>
donor molecule, donor type, donor heavy atom, donor atom, acceptor molecule, acceptor atom, score
      L1  H    10    25       P1  8028  0.82
      L1  H    18    34       P1  8028  0.91

> <Gold.Chemscore.Hbond.Weighted>
-6.4875

> <Gold.Chemscore.Metal.Weighted>
-0.0000

> <Gold.Chemscore.Lipo.Weighted>
-9.9448

> <Gold.Chemscore.Internal_Hbond.Weighted>
0.0000

> <Gold.Chemscore.DEClash.Weighted>
0.2003

> <Gold.Chemscore.DEInternal.Weighted>
0.4885

> <Gold.Chemscore.Rot.Weighted>
5.1967

> <Gold.Chemscore.Internal.Correction.Weighted>
   9.000000E+99

> <Gold.Protein.RotatedTorsions>
[ 6907 6896 6895 6894 ] final  -52.95 input  -60.11 | X-H torsion
[ 7974 7965 7964 7962 ] final    7.29 input  175.53 | X-H torsion
[ 8008 7997 7996 7995 ] final -169.41 input   59.86 | X-H torsion
[ 10167 10162 10161 10158 ] final   -4.09 input  -65.29 | X-H torsion
[ 10718 10713 10712 10709 ] final    4.29 input   66.30 | X-H torsion
[ 10763 10752 10751 10750 ] final  -37.14 input  -60.55 | X-H torsion
[ 11005 11000 10999 10996 ] final -158.41 input  -57.11 | X-H torsion

> <Gold.Protein.ActiveResidues>
 VAL166  LYS551  ARG553  GLY616  TRP617  ASP618  TYR619  PRO620  LYS621  CYS622 
 ASP623  PHE694  ASN695  SER759  ASP760  ASP761  ALA762  ILE779  LEU786  VAL792 
 PHE793  MET794  SER795  GLU796  ALA797  LYS798  CYS799  TRP800  GLU811  SER814 

> <Gold.Protein.RotatedAtoms>
  150.8471  134.7784  159.6979 H   0  0  0  0  0  0  0  0  0  0  0  0  # atno 6907 bound_to 6896
  152.4545  134.5318  159.9823 H   0  0  0  0  0  0  0  0  0  0  0  0  # atno 6908 bound_to 6896
  151.5446  133.3389  159.2977 H   0  0  0  0  0  0  0  0  0  0  0  0  # atno 6909 bound_to 6896
  146.2428  140.0106  142.8407 H   0  0  0  0  0  0  0  0  0  0  0  0  # atno 7974 bound_to 7965
  155.9046  140.1047  157.1324 H   0  0  0  0  0  0  0  0  0  0  0  0  # atno 8008 bound_to 7997
  154.4031  140.1286  156.4544 H   0  0  0  0  0  0  0  0  0  0  0  0  # atno 8009 bound_to 7997
  155.7382  140.3467  155.5094 H   0  0  0  0  0  0  0  0  0  0  0  0  # atno 8010 bound_to 7997
  140.6914  143.6464  150.8389 H   0  0  0  0  0  0  0  0  0  0  0  0  # atno 10167 bound_to 10162
  156.8905  130.5686  149.5650 H   0  0  0  0  0  0  0  0  0  0  0  0  # atno 10718 bound_to 10713
  153.8914  135.6811  153.4760 H   0  0  0  0  0  0  0  0  0  0  0  0  # atno 10763 bound_to 10752
  153.1179  135.4753  154.9144 H   0  0  0  0  0  0  0  0  0  0  0  0  # atno 10764 bound_to 10752
  154.7620  135.3213  154.8312 H   0  0  0  0  0  0  0  0  0  0  0  0  # atno 10765 bound_to 10752
  140.6539  134.4421  157.5235 H   0  0  0  0  0  0  0  0  0  0  0  0  # atno 11005 bound_to 11000
  145.1331  140.9529  143.4532 LP  0  0  0  0  0  0  0  0  0  0  0  0  # atno 17320 bound_to 7965
  145.0368  139.3294  143.5997 LP  0  0  0  0  0  0  0  0  0  0  0  0  # atno 17321 bound_to 7965
  140.0178  143.5575  152.2813 LP  0  0  0  0  0  0  0  0  0  0  0  0  # atno 17342 bound_to 10162
  139.6322  144.7645  151.2513 LP  0  0  0  0  0  0  0  0  0  0  0  0  # atno 17343 bound_to 10162
  156.0631  130.5680  150.9234 LP  0  0  0  0  0  0  0  0  0  0  0  0  # atno 17370 bound_to 10713
  157.6087  131.0937  150.8834 LP  0  0  0  0  0  0  0  0  0  0  0  0  # atno 17371 bound_to 10713
  139.9036  134.8499  156.1794 LP  0  0  0  0  0  0  0  0  0  0  0  0  # atno 17394 bound_to 11000
  141.0516  133.6886  156.1783 LP  0  0  0  0  0  0  0  0  0  0  0  0  # atno 17395 bound_to 11000

$$$$
