AV-unprocessed.smi:2829|AV-procd|sdf|10905|dock1
  -GOLD-   2272015353D 1   1.00000     0.00000
 Structure written by MMmdl.
 50 53  0  0  0  0  0  0  0  0  1 V2000
  140.6014  142.5288  157.1497 C   0  0  0  0  0  0  0  0  0  0  0  0
  141.3356  142.4289  155.7965 C   0  0  0  0  0  0  0  0  0  0  0  0
  141.0621  141.0541  155.1520 C   0  0  0  0  0  0  0  0  0  0  0  0
  140.7379  143.5058  154.8630 C   0  0  0  0  0  0  0  0  0  0  0  0
  142.8491  142.6108  156.0113 C   0  0  0  0  0  0  0  0  0  0  0  0
  143.6074  143.6127  155.3645 C   0  0  0  0  0  0  0  0  0  0  0  0
  144.9832  143.6737  155.6424 C   0  0  0  0  0  0  0  0  0  0  0  0
  145.5283  142.7400  156.5461 C   0  0  0  0  0  0  0  0  0  0  0  0
  146.9225  142.8633  156.7796 N   0  0  0  0  0  0  0  0  0  0  0  0
  147.6345  142.4223  157.8358 C   0  0  0  0  0  0  0  0  0  0  0  0
  147.1678  141.7963  158.7853 O   0  0  0  0  0  0  0  0  0  0  0  0
  148.9416  142.7322  157.7792 N   0  0  0  0  0  0  0  0  0  0  0  0
  149.9773  142.3989  158.7663 C   0  0  1  0  0  0  0  0  0  0  0  0
  150.5149  140.9659  158.6563 C   0  0  1  0  0  0  0  0  0  0  0  0
  149.9975  139.6781  158.1268 C   0  0  0  0  0  0  0  0  0  0  0  0
  151.3267  139.1836  157.5012 C   0  0  0  0  0  0  0  0  0  0  0  0
  152.2422  140.3058  157.5784 O   0  0  0  0  0  0  0  0  0  0  0  0
  151.4100  141.4505  157.5274 C   0  0  2  0  0  0  0  0  0  0  0  0
  151.4235  142.7769  158.3092 C   0  0  0  0  0  0  0  0  0  0  0  0
  151.7423  144.1046  157.6104 C   0  0  0  0  0  0  0  0  0  0  0  0
  153.1225  144.0672  158.2752 C   0  0  0  0  0  0  0  0  0  0  0  0
  152.5508  143.0893  159.3067 C   0  0  0  0  0  0  0  0  0  0  0  0
  144.7406  141.8046  157.1329 N   0  0  0  0  0  0  0  0  0  0  0  0
  143.4315  141.7405  156.8719 N   0  0  0  0  0  0  0  0  0  0  0  0
  139.5230  142.4249  157.0257 H   0  0  0  0  0  0  0  0  0  0  0  0
  140.7861  143.4906  157.6294 H   0  0  0  0  0  0  0  0  0  0  0  0
  140.9206  141.7496  157.8428 H   0  0  0  0  0  0  0  0  0  0  0  0
  141.3987  140.2345  155.7876 H   0  0  0  0  0  0  0  0  0  0  0  0
  141.5733  140.9578  154.1936 H   0  0  0  0  0  0  0  0  0  0  0  0
  139.9968  140.9040  154.9727 H   0  0  0  0  0  0  0  0  0  0  0  0
  139.6662  143.3575  154.7243 H   0  0  0  0  0  0  0  0  0  0  0  0
  141.1934  143.4790  153.8724 H   0  0  0  0  0  0  0  0  0  0  0  0
  140.8698  144.5096  155.2687 H   0  0  0  0  0  0  0  0  0  0  0  0
  143.1745  144.3209  154.6752 H   0  0  0  0  0  0  0  0  0  0  0  0
  145.6027  144.4226  155.1706 H   0  0  0  0  0  0  0  0  0  0  0  0
  147.4400  143.3616  156.0709 H   0  0  0  0  0  0  0  0  0  0  0  0
  149.2487  143.2621  156.9762 H   0  0  0  0  0  0  0  0  0  0  0  0
  149.7501  142.7165  159.7850 H   0  0  0  0  0  0  0  0  0  0  0  0
  151.0867  140.7651  159.5700 H   0  0  0  0  0  0  0  0  0  0  0  0
  149.6246  139.0154  158.9079 H   0  0  0  0  0  0  0  0  0  0  0  0
  149.2218  139.8210  157.3735 H   0  0  0  0  0  0  0  0  0  0  0  0
  151.7423  138.3342  158.0439 H   0  0  0  0  0  0  0  0  0  0  0  0
  151.1793  138.8841  156.4628 H   0  0  0  0  0  0  0  0  0  0  0  0
  150.9043  141.5343  156.5607 H   0  0  0  0  0  0  0  0  0  0  0  0
  151.7598  144.0563  156.5212 H   0  0  0  0  0  0  0  0  0  0  0  0
  151.1240  144.9288  157.9692 H   0  0  0  0  0  0  0  0  0  0  0  0
  153.8833  143.6107  157.6400 H   0  0  0  0  0  0  0  0  0  0  0  0
  153.4567  145.0201  158.6864 H   0  0  0  0  0  0  0  0  0  0  0  0
  152.1907  143.5894  160.2069 H   0  0  0  0  0  0  0  0  0  0  0  0
  153.2023  142.2479  159.5442 H   0  0  0  0  0  0  0  0  0  0  0  0
  1  2  1  0  0  0  0
  1 25  1  0  0  0  0
  1 26  1  0  0  0  0
  1 27  1  0  0  0  0
  2  3  1  0  0  0  0
  2  4  1  0  0  0  0
  2  5  1  0  0  0  0
  3 28  1  0  0  0  0
  3 29  1  0  0  0  0
  3 30  1  0  0  0  0
  4 31  1  0  0  0  0
  4 32  1  0  0  0  0
  4 33  1  0  0  0  0
  5 24  1  0  0  0  0
  5  6  2  0  0  0  0
  6  7  1  0  0  0  0
  6 34  1  0  0  0  0
  7  8  2  0  0  0  0
  7 35  1  0  0  0  0
  8  9  1  0  0  0  0
  8 23  1  0  0  0  0
  9 10  1  0  0  0  0
  9 36  1  0  0  0  0
 10 11  2  0  0  0  0
 10 12  1  0  0  0  0
 12 13  1  0  0  0  0
 12 37  1  0  0  0  0
 13 19  1  0  0  0  0
 13 14  1  0  0  0  0
 13 38  1  0  0  0  0
 14 18  1  0  0  0  0
 14 15  1  0  0  0  0
 14 39  1  0  0  0  0
 15 16  1  0  0  0  0
 15 40  1  0  0  0  0
 15 41  1  0  0  0  0
 16 17  1  0  0  0  0
 16 42  1  0  0  0  0
 16 43  1  0  0  0  0
 17 18  1  0  0  0  0
 18 19  1  0  0  0  0
 18 44  1  0  0  0  0
 19 22  1  0  0  0  0
 19 20  1  0  0  0  0
 20 21  1  0  0  0  0
 20 45  1  0  0  0  0
 20 46  1  0  0  0  0
 21 22  1  0  0  0  0
 21 47  1  0  0  0  0
 21 48  1  0  0  0  0
 22 49  1  0  0  0  0
 22 50  1  0  0  0  0
 23 24  2  0  0  0  0
M  END
> <s_m_source_file>
AV-unprocessed.smi

> <i_m_source_file_index>
2829

> <i_lp_mmshare_version>
43012

> <i_f3d_flags>
0

> <s_epik_input>
W0NIM11DKFtDSDNdKShbQ0gzXSljMVtjSF1bY0hdYyhubjEpW05IXUMoPU8pW05IXVtDQEBIXTJbQ0BIXShbQ0gyXVtDSDJdTzMpW0NAQEhdM0MyNFtDSDJdW0NIMl1bQ0gyXTQ=

> <s_epik_cmdline>
J2VwaWtfcHl0aG9uJywgJy1waCcsICc3LjAnLCAnLXRuJywgJzgnLCAnLW1hJywgJzIwMCcsICctbWV0YWxfYmluZGluZycsICctaW1hZScsICc8aW5maWxlLm1hZT4nLCAnLW9tYWUnLCAnPG91dGZpbGUubWFlPic=

> <r_lp_tautomer_probability>
1

> <r_epik_Ionization_Penalty>
0.011915

> <r_epik_Ionization_Penalty_Charging>
0

> <r_epik_Ionization_Penalty_Neutral>
0.011915

> <r_epik_State_Penalty>
0.00486223

> <r_epik_Charging_Adjusted_Penalty>
0.00486223

> <i_epik_Tot_Q>
0

> <i_epik_Tot_abs_Q>
0

> <r_epik_Metal_State_Penalty>
-0

> <b_epik_Metal_Only>
0

> <s_lp_Force_Field>
OPLS_2005

> <r_lp_Energy>
85.0365

> <b_lp_Chiralities_Consistent>
1

> <s_lp_Variant>
AV-unprocessed.smi:2829-8

> <Gold.Version>
5.8.1

> <Gold.Id.Protein>
6NUR|6NUR_protein|mol2

> <Gold.PLP.Fitness>
37.4518

> <Gold.PLP.PLP>
-31.0054

> <Gold.PLP.part.hbond>
-4.1102

> <Gold.PLP.part.metal>
0.0000

> <Gold.PLP.part.buried>
-1.6507

> <Gold.PLP.part.nonpolar>
-25.2320

> <Gold.PLP.part.repulsive>
0.1888

> <Gold.PLP.ligand.clash>
0.0000

> <Gold.PLP.ligand.torsion>
0.2974

> <Gold.PLP.Chemscore.Hbond>
2.2418

> <Gold.PLP.Chemscore.CHOScore>
0.0000

> <Gold.PLP.Chemscore.Metal>
0.0000

> <Gold.Chemscore.Hbonds>
donor molecule, donor type, donor heavy atom, donor atom, acceptor molecule, acceptor atom, score
      L1  H     9    36       P1  8028  0.42
      L1  H    12    37       P1  8028  0.96
      P1  H  6934  6946       L1    11  0.36
      P1  H  7997  8009       L1    17  0.23

> <Gold.PLP.Chemscore.Internal.Correction>
0.3157

> <Gold.Rescore>
     Score         DG    S(hbond)    S(metal)    S(lipo)     H(rot)  DE(clash)    DE(int)     intcor
     16.25     -18.04       1.64        0.00      85.97       1.16       0.33       1.46       ----

> <Gold.Chemscore.Fitness>
16.2531

> <Gold.Chemscore.DG>
-18.0443

> <Gold.Chemscore.ZeroCoef>
-5.4800

> <Gold.Chemscore.Hbond>
1.6408

> <Gold.Chemscore.Metal>
0.0000

> <Gold.Chemscore.Lipo>
85.9682

> <Gold.Chemscore.Internal_Hbond>
0.0000

> <Gold.Chemscore.DEClash>
0.3281

> <Gold.Chemscore.DEInternal>
1.4631

> <Gold.Chemscore.Rot>
1.1618

> <Gold.Chemscore.Internal.Correction>
   9.000000E+99

> <Gold.Chemscore.Hbonds>
donor molecule, donor type, donor heavy atom, donor atom, acceptor molecule, acceptor atom, score
      L1  H     9    36       P1  8028  0.01
      L1  H    12    37       P1  8028  0.83
      P1  H  6934  6946       L1    11  0.36
      P1  H  7997  8009       L1    17  0.22

> <Gold.Chemscore.Hbond.Weighted>
-5.4802

> <Gold.Chemscore.Metal.Weighted>
-0.0000

> <Gold.Chemscore.Lipo.Weighted>
-10.0583

> <Gold.Chemscore.Internal_Hbond.Weighted>
0.0000

> <Gold.Chemscore.DEClash.Weighted>
0.3281

> <Gold.Chemscore.DEInternal.Weighted>
1.4631

> <Gold.Chemscore.Rot.Weighted>
2.9741

> <Gold.Chemscore.Internal.Correction.Weighted>
   9.000000E+99

> <Gold.Protein.RotatedTorsions>
[ 6907 6896 6895 6894 ] final  -50.94 input  -60.11 | X-H torsion
[ 7974 7965 7964 7962 ] final   84.36 input  175.53 | X-H torsion
[ 8008 7997 7996 7995 ] final -178.13 input   59.86 | X-H torsion
[ 10167 10162 10161 10158 ] final    3.26 input  -65.29 | X-H torsion
[ 10718 10713 10712 10709 ] final  112.16 input   66.30 | X-H torsion
[ 10763 10752 10751 10750 ] final  105.33 input  -60.55 | X-H torsion
[ 11005 11000 10999 10996 ] final   94.91 input  -57.11 | X-H torsion

> <Gold.Protein.ActiveResidues>
 VAL166  LYS551  ARG553  GLY616  TRP617  ASP618  TYR619  PRO620  LYS621  CYS622 
 ASP623  PHE694  ASN695  SER759  ASP760  ASP761  ALA762  ILE779  LEU786  VAL792 
 PHE793  MET794  SER795  GLU796  ALA797  LYS798  CYS799  TRP800  GLU811  SER814 

> <Gold.Protein.RotatedAtoms>
  150.8659  134.8022  159.7117 H   0  0  0  0  0  0  0  0  0  0  0  0  # atno 6907 bound_to 6896
  152.4680  134.5025  159.9739 H   0  0  0  0  0  0  0  0  0  0  0  0  # atno 6908 bound_to 6896
  151.5121  133.3444  159.2922 H   0  0  0  0  0  0  0  0  0  0  0  0  # atno 6909 bound_to 6896
  145.5998  139.2350  143.2252 H   0  0  0  0  0  0  0  0  0  0  0  0  # atno 7974 bound_to 7965
  156.0152  140.1249  157.0413 H   0  0  0  0  0  0  0  0  0  0  0  0  # atno 8008 bound_to 7997
  154.4290  140.1080  156.5955 H   0  0  0  0  0  0  0  0  0  0  0  0  # atno 8009 bound_to 7997
  155.6023  140.3470  155.4599 H   0  0  0  0  0  0  0  0  0  0  0  0  # atno 8010 bound_to 7997
  140.6595  143.7342  150.7712 H   0  0  0  0  0  0  0  0  0  0  0  0  # atno 10167 bound_to 10162
  157.6407  131.0963  150.6855 H   0  0  0  0  0  0  0  0  0  0  0  0  # atno 10718 bound_to 10713
  153.3779  135.3913  155.1835 H   0  0  0  0  0  0  0  0  0  0  0  0  # atno 10763 bound_to 10752
  154.8703  135.3718  154.4895 H   0  0  0  0  0  0  0  0  0  0  0  0  # atno 10764 bound_to 10752
  153.5369  135.7085  153.5717 H   0  0  0  0  0  0  0  0  0  0  0  0  # atno 10765 bound_to 10752
  139.8794  134.8871  156.3933 H   0  0  0  0  0  0  0  0  0  0  0  0  # atno 11005 bound_to 11000
  146.1585  140.6823  142.9289 LP  0  0  0  0  0  0  0  0  0  0  0  0  # atno 17320 bound_to 7965
  144.7315  140.4684  143.6934 LP  0  0  0  0  0  0  0  0  0  0  0  0  # atno 17321 bound_to 7965
  140.1008  143.4790  152.2426 LP  0  0  0  0  0  0  0  0  0  0  0  0  # atno 17342 bound_to 10162
  139.5825  144.7516  151.3604 LP  0  0  0  0  0  0  0  0  0  0  0  0  # atno 17343 bound_to 10162
  156.7179  130.4672  149.5530 LP  0  0  0  0  0  0  0  0  0  0  0  0  # atno 17370 bound_to 10713
  156.1685  130.6421  151.0808 LP  0  0  0  0  0  0  0  0  0  0  0  0  # atno 17371 bound_to 10713
  140.9318  133.7574  156.0034 LP  0  0  0  0  0  0  0  0  0  0  0  0  # atno 17394 bound_to 11000
  140.8322  134.3165  157.5344 LP  0  0  0  0  0  0  0  0  0  0  0  0  # atno 17395 bound_to 11000

$$$$
