AV-unprocessed.smi:2154|AV-procd|sdf|8771|dock10
  -GOLD-   2272011553D 1   1.00000     0.00000
 Structure written by MMmdl.
 32 33  0  0  0  0  0  0  0  0  1 V2000
  152.1646  144.9763  159.1908 C   0  0  0  0  0  0  0  0  0  0  0  0
  152.8907  143.6523  159.0588 C   0  0  1  0  0  0  0  0  0  0  0  0
  152.7863  142.6053  160.1423 C   0  0  0  0  0  0  0  0  0  0  0  0
  152.1624  142.3500  158.7891 C   0  0  1  0  0  0  0  0  0  0  0  0
  150.6535  142.2922  158.6204 C   0  0  0  0  0  0  0  0  0  0  0  0
  150.1813  142.5086  157.2596 N   0  0  0  0  0  0  0  0  0  0  0  0
  150.1169  141.5635  156.3097 C   0  0  0  0  0  0  0  0  0  0  0  0
  150.4337  140.3892  156.5050 O   0  0  0  0  0  0  0  0  0  0  0  0
  149.5934  142.0177  154.9395 C   0  0  0  0  0  0  0  0  0  0  0  0
  148.7953  140.9877  154.2585 N   0  0  0  0  0  0  0  0  0  0  0  0
  147.4665  141.2286  153.9383 C   0  0  0  0  0  0  0  0  0  0  0  0
  146.6727  140.3232  153.3186 C   0  0  0  0  0  0  0  0  0  0  0  0
  147.1961  139.0124  152.9493 C   0  0  0  0  0  0  0  0  0  0  0  0
  146.5578  138.1271  152.3844 O   0  0  0  0  0  0  0  0  0  0  0  0
  148.5355  138.8067  153.2911 N   0  0  0  0  0  0  0  0  0  0  0  0
  149.3585  139.7350  153.9310 C   0  0  0  0  0  0  0  0  0  0  0  0
  150.5272  139.4498  154.1901 O   0  0  0  0  0  0  0  0  0  0  0  0
  148.9409  137.9120  153.0576 H   0  0  0  0  0  0  0  0  0  0  0  0
  151.2533  144.8717  159.7794 H   0  0  0  0  0  0  0  0  0  0  0  0
  151.9025  145.3593  158.2045 H   0  0  0  0  0  0  0  0  0  0  0  0
  152.8076  145.7042  159.6859 H   0  0  0  0  0  0  0  0  0  0  0  0
  153.8629  143.7454  158.5784 H   0  0  0  0  0  0  0  0  0  0  0  0
  153.6862  142.0470  160.3916 H   0  0  0  0  0  0  0  0  0  0  0  0
  152.1173  142.8029  160.9776 H   0  0  0  0  0  0  0  0  0  0  0  0
  152.6938  141.6604  158.1357 H   0  0  0  0  0  0  0  0  0  0  0  0
  150.2708  141.3405  158.9917 H   0  0  0  0  0  0  0  0  0  0  0  0
  150.2123  143.0669  159.2477 H   0  0  0  0  0  0  0  0  0  0  0  0
  149.8952  143.4465  157.0184 H   0  0  0  0  0  0  0  0  0  0  0  0
  148.9995  142.9207  155.0872 H   0  0  0  0  0  0  0  0  0  0  0  0
  150.4289  142.3232  154.3060 H   0  0  0  0  0  0  0  0  0  0  0  0
  147.0346  142.1849  154.1971 H   0  0  0  0  0  0  0  0  0  0  0  0
  145.6446  140.5695  153.0957 H   0  0  0  0  0  0  0  0  0  0  0  0
  1  2  1  0  0  0  0
  1 19  1  0  0  0  0
  1 20  1  0  0  0  0
  1 21  1  0  0  0  0
  2  4  1  0  0  0  0
  2  3  1  0  0  0  0
  2 22  1  0  0  0  0
  3  4  1  0  0  0  0
  3 23  1  0  0  0  0
  3 24  1  0  0  0  0
  4  5  1  0  0  0  0
  4 25  1  0  0  0  0
  5  6  1  0  0  0  0
  5 26  1  0  0  0  0
  5 27  1  0  0  0  0
  6  7  1  0  0  0  0
  6 28  1  0  0  0  0
  7  8  2  0  0  0  0
  7  9  1  0  0  0  0
  9 10  1  0  0  0  0
  9 29  1  0  0  0  0
  9 30  1  0  0  0  0
 10 16  1  0  0  0  0
 10 11  1  0  0  0  0
 11 12  2  0  0  0  0
 11 31  1  0  0  0  0
 12 13  1  0  0  0  0
 12 32  1  0  0  0  0
 13 14  2  0  0  0  0
 13 15  1  0  0  0  0
 15 18  1  0  0  0  0
 15 16  1  0  0  0  0
 16 17  2  0  0  0  0
M  END
> <s_m_source_file>
AV-unprocessed.smi

> <i_m_source_file_index>
2154

> <i_lp_mmshare_version>
43012

> <i_f3d_flags>
0

> <s_epik_input>
W0NIM11bQ0BASF0xW0NIMl1bQ0BIXTFbQ0gyXVtOSF1DKD1PKVtDSDJdbjJbY0hdW2NIXWMoPU8pW25IXWMyPU8=

> <s_epik_cmdline>
J2VwaWtfcHl0aG9uJywgJy1waCcsICc3LjAnLCAnLXRuJywgJzgnLCAnLW1hJywgJzIwMCcsICctbWV0YWxfYmluZGluZycsICctaW1hZScsICc8aW5maWxlLm1hZT4nLCAnLW9tYWUnLCAnPG91dGZpbGUubWFlPic=

> <r_lp_tautomer_probability>
0.999537

> <r_epik_Ionization_Penalty>
0.00305319

> <r_epik_Ionization_Penalty_Charging>
0.00305317

> <r_epik_Ionization_Penalty_Neutral>
2.06703e-08

> <r_epik_State_Penalty>
0.00214626

> <r_epik_Charging_Adjusted_Penalty>
0.00519944

> <i_epik_Tot_Q>
0

> <i_epik_Tot_abs_Q>
0

> <r_epik_Metal_State_Penalty>
0.361976

> <b_epik_Metal_Only>
0

> <s_lp_Force_Field>
OPLS_2005

> <r_lp_Energy>
15.5744

> <b_lp_Chiralities_Consistent>
1

> <s_lp_Variant>
AV-unprocessed.smi:2154-2

> <Gold.Version>
5.8.1

> <Gold.Id.Protein>
6NUR|6NUR_protein|mol2

> <Gold.PLP.Fitness>
42.2911

> <Gold.PLP.PLP>
-34.3530

> <Gold.PLP.part.hbond>
-4.0000

> <Gold.PLP.part.metal>
0.0000

> <Gold.PLP.part.buried>
3.0683

> <Gold.PLP.part.nonpolar>
-33.5775

> <Gold.PLP.part.repulsive>
0.5618

> <Gold.PLP.ligand.clash>
0.0000

> <Gold.PLP.ligand.torsion>
0.7842

> <Gold.PLP.Chemscore.Hbond>
2.9920

> <Gold.PLP.Chemscore.CHOScore>
0.0000

> <Gold.PLP.Chemscore.Metal>
0.0000

> <Gold.Chemscore.Hbonds>
donor molecule, donor type, donor heavy atom, donor atom, acceptor molecule, acceptor atom, score
      L1  H     6    28       P1  8028  0.78
      L1  H    15    18       P1  7948  0.97
      P1  H  7989  7998       L1    17  1.00

> <Gold.PLP.Chemscore.Internal.Correction>
0.5306

> <Gold.Rescore>
     Score         DG    S(hbond)    S(metal)    S(lipo)     H(rot)  DE(clash)    DE(int)     intcor
     14.30     -18.08       2.58        0.00      78.01       2.01       0.35       3.43       ----

> <Gold.Chemscore.Fitness>
14.3040

> <Gold.Chemscore.DG>
-18.0825

> <Gold.Chemscore.ZeroCoef>
-5.4800

> <Gold.Chemscore.Hbond>
2.5785

> <Gold.Chemscore.Metal>
0.0000

> <Gold.Chemscore.Lipo>
78.0089

> <Gold.Chemscore.Internal_Hbond>
0.0000

> <Gold.Chemscore.DEClash>
0.3508

> <Gold.Chemscore.DEInternal>
3.4278

> <Gold.Chemscore.Rot>
2.0065

> <Gold.Chemscore.Internal.Correction>
   9.000000E+99

> <Gold.Chemscore.Hbonds>
donor molecule, donor type, donor heavy atom, donor atom, acceptor molecule, acceptor atom, score
      L1  H     6    28       P1  8028  0.73
      L1  H    15    18       P1  7948  0.86
      P1  H  7989  7998       L1    17  0.60

> <Gold.Chemscore.Hbond.Weighted>
-8.6121

> <Gold.Chemscore.Metal.Weighted>
-0.0000

> <Gold.Chemscore.Lipo.Weighted>
-9.1270

> <Gold.Chemscore.Internal_Hbond.Weighted>
0.0000

> <Gold.Chemscore.DEClash.Weighted>
0.3508

> <Gold.Chemscore.DEInternal.Weighted>
3.4278

> <Gold.Chemscore.Rot.Weighted>
5.1366

> <Gold.Chemscore.Internal.Correction.Weighted>
   9.000000E+99

> <Gold.Protein.RotatedTorsions>
[ 6907 6896 6895 6894 ] final   54.40 input  -60.11 | X-H torsion
[ 7974 7965 7964 7962 ] final  112.12 input  175.53 | X-H torsion
[ 8008 7997 7996 7995 ] final   11.65 input   59.86 | X-H torsion
[ 10167 10162 10161 10158 ] final   15.70 input  -65.29 | X-H torsion
[ 10718 10713 10712 10709 ] final  123.37 input   66.30 | X-H torsion
[ 10763 10752 10751 10750 ] final   83.43 input  -60.55 | X-H torsion
[ 11005 11000 10999 10996 ] final  -55.46 input  -57.11 | X-H torsion

> <Gold.Protein.ActiveResidues>
 VAL166  LYS551  ARG553  GLY616  TRP617  ASP618  TYR619  PRO620  LYS621  CYS622 
 ASP623  PHE694  ASN695  SER759  ASP760  ASP761  ALA762  ILE779  LEU786  VAL792 
 PHE793  MET794  SER795  GLU796  ALA797  LYS798  CYS799  TRP800  GLU811  SER814 

> <Gold.Protein.RotatedAtoms>
  152.3435  134.7103  160.0256 H   0  0  0  0  0  0  0  0  0  0  0  0  # atno 6907 bound_to 6896
  151.7480  133.3320  159.3392 H   0  0  0  0  0  0  0  0  0  0  0  0  # atno 6908 bound_to 6896
  150.7494  134.6151  159.6151 H   0  0  0  0  0  0  0  0  0  0  0  0  # atno 6909 bound_to 6896
  145.2335  139.2809  143.4155 H   0  0  0  0  0  0  0  0  0  0  0  0  # atno 7974 bound_to 7965
  154.8097  140.2866  155.5862 H   0  0  0  0  0  0  0  0  0  0  0  0  # atno 8008 bound_to 7997
  156.2987  140.2570  156.2913 H   0  0  0  0  0  0  0  0  0  0  0  0  # atno 8009 bound_to 7997
  154.9461  140.0380  157.2110 H   0  0  0  0  0  0  0  0  0  0  0  0  # atno 8010 bound_to 7997
  140.5849  143.8910  150.6821 H   0  0  0  0  0  0  0  0  0  0  0  0  # atno 10167 bound_to 10162
  157.5670  131.1086  150.8437 H   0  0  0  0  0  0  0  0  0  0  0  0  # atno 10718 bound_to 10713
  153.1291  135.4691  154.9319 H   0  0  0  0  0  0  0  0  0  0  0  0  # atno 10763 bound_to 10752
  154.7647  135.3141  154.8311 H   0  0  0  0  0  0  0  0  0  0  0  0  # atno 10764 bound_to 10752
  153.8858  135.6889  153.4817 H   0  0  0  0  0  0  0  0  0  0  0  0  # atno 10765 bound_to 10752
  141.1075  133.6612  156.4472 H   0  0  0  0  0  0  0  0  0  0  0  0  # atno 11005 bound_to 11000
  146.3347  140.2677  142.8604 LP  0  0  0  0  0  0  0  0  0  0  0  0  # atno 17320 bound_to 7965
  144.9654  140.8317  143.5488 LP  0  0  0  0  0  0  0  0  0  0  0  0  # atno 17321 bound_to 7965
  140.2418  143.3658  152.1480 LP  0  0  0  0  0  0  0  0  0  0  0  0  # atno 17342 bound_to 10162
  139.5191  144.7015  151.5479 LP  0  0  0  0  0  0  0  0  0  0  0  0  # atno 17343 bound_to 10162
  156.8919  130.5216  149.5286 LP  0  0  0  0  0  0  0  0  0  0  0  0  # atno 17370 bound_to 10713
  156.0717  130.5749  150.9397 LP  0  0  0  0  0  0  0  0  0  0  0  0  # atno 17371 bound_to 10713
  140.4865  134.6616  157.5193 LP  0  0  0  0  0  0  0  0  0  0  0  0  # atno 17394 bound_to 11000
  139.9951  134.6923  155.9623 LP  0  0  0  0  0  0  0  0  0  0  0  0  # atno 17395 bound_to 11000

$$$$
