AV-unprocessed.smi:148|AV-procd|sdf|1208|dock6
  -GOLD-   2262018383D 1   1.00000     0.00000
 Structure written by MMmdl.
 63 67  0  0  0  0  0  0  0  0  1 V2000
  148.4347  135.3751  154.4907 O   0  0  0  0  0  0  0  0  0  0  0  0
  148.5286  133.9701  154.3816 C   0  0  0  0  0  0  0  0  0  0  0  0
  149.4930  133.3887  155.4404 C   0  0  2  0  0  0  0  0  0  0  0  0
  150.8373  134.1614  155.4633 C   0  0  0  0  0  0  0  0  0  0  0  0
  150.7220  135.4735  156.0749 N   0  0  0  0  0  0  0  0  0  0  0  0
  150.1680  135.7708  157.3007 C   0  0  0  0  0  0  0  0  0  0  0  0
  150.1738  137.0360  157.6225 N   0  0  0  0  0  0  0  0  0  0  0  0
  150.7728  137.6552  156.5334 C   0  0  0  0  0  0  0  0  0  0  0  0
  151.0831  139.0019  156.2118 C   0  0  0  0  0  0  0  0  0  0  0  0
  150.7944  140.0205  157.0506 N   0  0  0  0  0  0  0  0  0  0  0  0
  152.0093  140.4469  157.7488 C   0  0  0  0  0  0  0  0  0  0  0  0
  151.6860  141.3934  158.9085 C   0  0  0  0  0  0  0  0  0  0  0  0
  150.8865  142.5897  158.3911 C   0  0  0  0  0  0  0  0  0  0  0  0
  149.6258  142.0996  157.6676 C   0  0  0  0  0  0  0  0  0  0  0  0
  149.9382  141.1017  156.5187 C   0  0  2  0  0  0  0  0  0  0  0  0
  148.6063  140.5898  155.8640 C   0  0  1  0  0  0  0  0  0  0  0  0
  147.5289  141.6683  155.6377 C   0  0  0  0  0  0  0  0  0  0  0  0
  146.5366  141.0875  154.6237 C   0  0  0  0  0  0  0  0  0  0  0  0
  147.2488  139.9050  153.9583 C   0  0  0  0  0  0  0  0  0  0  0  0
  148.6952  139.9425  154.4622 C   0  0  1  0  0  0  0  0  0  0  0  0
  149.4643  140.7352  153.5767 O   0  0  0  0  0  0  0  0  0  0  0  0
  151.6933  139.2514  155.0228 N   0  0  0  0  0  0  0  0  0  0  0  0
  151.9635  138.2420  154.1894 C   0  0  0  0  0  0  0  0  0  0  0  0
  151.7188  136.9389  154.3487 N   0  0  0  0  0  0  0  0  0  0  0  0
  151.1207  136.6895  155.5493 C   0  0  0  0  0  0  0  0  0  0  0  0
  149.6693  131.8528  155.2871 C   0  0  2  0  0  0  0  0  0  0  0  0
  150.8556  131.2501  156.0428 C   0  0  0  0  0  0  0  0  0  0  0  0
  151.5904  130.4238  154.9879 C   0  0  0  0  0  0  0  0  0  0  0  0
  150.5912  130.1373  154.0232 O   0  0  0  0  0  0  0  0  0  0  0  0
  149.8417  131.3288  153.8541 C   0  0  0  0  0  0  0  0  0  0  0  0
  148.5947  135.7547  153.6400 H   0  0  0  0  0  0  0  0  0  0  0  0
  147.5349  133.5319  154.4766 H   0  0  0  0  0  0  0  0  0  0  0  0
  148.8764  133.7502  153.3725 H   0  0  0  0  0  0  0  0  0  0  0  0
  149.0216  133.5427  156.4123 H   0  0  0  0  0  0  0  0  0  0  0  0
  151.6016  133.6142  156.0134 H   0  0  0  0  0  0  0  0  0  0  0  0
  151.2227  134.2931  154.4524 H   0  0  0  0  0  0  0  0  0  0  0  0
  149.7589  135.0146  157.9549 H   0  0  0  0  0  0  0  0  0  0  0  0
  152.5445  139.5763  158.1320 H   0  0  0  0  0  0  0  0  0  0  0  0
  152.6778  140.9471  157.0463 H   0  0  0  0  0  0  0  0  0  0  0  0
  151.1132  140.8635  159.6707 H   0  0  0  0  0  0  0  0  0  0  0  0
  152.6063  141.7323  159.3847 H   0  0  0  0  0  0  0  0  0  0  0  0
  150.6156  143.2479  159.2170 H   0  0  0  0  0  0  0  0  0  0  0  0
  151.4998  143.1784  157.7078 H   0  0  0  0  0  0  0  0  0  0  0  0
  148.9594  141.6266  158.3905 H   0  0  0  0  0  0  0  0  0  0  0  0
  149.1004  142.9760  157.2893 H   0  0  0  0  0  0  0  0  0  0  0  0
  150.5166  141.6439  155.7695 H   0  0  0  0  0  0  0  0  0  0  0  0
  148.1679  139.8527  156.5396 H   0  0  0  0  0  0  0  0  0  0  0  0
  147.0291  141.9595  156.5622 H   0  0  0  0  0  0  0  0  0  0  0  0
  147.9849  142.5648  155.2150 H   0  0  0  0  0  0  0  0  0  0  0  0
  145.6279  140.7467  155.1215 H   0  0  0  0  0  0  0  0  0  0  0  0
  146.2449  141.8421  153.8925 H   0  0  0  0  0  0  0  0  0  0  0  0
  146.7786  138.9776  154.2878 H   0  0  0  0  0  0  0  0  0  0  0  0
  147.1773  139.9294  152.8701 H   0  0  0  0  0  0  0  0  0  0  0  0
  149.1055  138.9350  154.4772 H   0  0  0  0  0  0  0  0  0  0  0  0
  149.1248  140.6219  152.7022 H   0  0  0  0  0  0  0  0  0  0  0  0
  152.4406  138.5189  153.2611 H   0  0  0  0  0  0  0  0  0  0  0  0
  148.7827  131.3661  155.6962 H   0  0  0  0  0  0  0  0  0  0  0  0
  151.5108  131.9875  156.5062 H   0  0  0  0  0  0  0  0  0  0  0  0
  150.4918  130.6013  156.8407 H   0  0  0  0  0  0  0  0  0  0  0  0
  152.3844  131.0104  154.5225 H   0  0  0  0  0  0  0  0  0  0  0  0
  152.0311  129.5138  155.3960 H   0  0  0  0  0  0  0  0  0  0  0  0
  148.8882  131.1330  153.3629 H   0  0  0  0  0  0  0  0  0  0  0  0
  150.4129  132.0094  153.2238 H   0  0  0  0  0  0  0  0  0  0  0  0
  1  2  1  0  0  0  0
  1 31  1  0  0  0  0
  2  3  1  0  0  0  0
  2 32  1  0  0  0  0
  2 33  1  0  0  0  0
  3  4  1  0  0  0  0
  3 26  1  0  0  0  0
  3 34  1  0  0  0  0
  4  5  1  0  0  0  0
  4 35  1  0  0  0  0
  4 36  1  0  0  0  0
  5 25  1  0  0  0  0
  5  6  1  0  0  0  0
  6  7  2  0  0  0  0
  6 37  1  0  0  0  0
  7  8  1  0  0  0  0
  8 25  2  0  0  0  0
  8  9  1  0  0  0  0
  9 10  1  0  0  0  0
  9 22  2  0  0  0  0
 10 15  1  0  0  0  0
 10 11  1  0  0  0  0
 11 12  1  0  0  0  0
 11 38  1  0  0  0  0
 11 39  1  0  0  0  0
 12 13  1  0  0  0  0
 12 40  1  0  0  0  0
 12 41  1  0  0  0  0
 13 14  1  0  0  0  0
 13 42  1  0  0  0  0
 13 43  1  0  0  0  0
 14 15  1  0  0  0  0
 14 44  1  0  0  0  0
 14 45  1  0  0  0  0
 15 16  1  0  0  0  0
 15 46  1  0  0  0  0
 16 20  1  0  0  0  0
 16 17  1  0  0  0  0
 16 47  1  0  0  0  0
 17 18  1  0  0  0  0
 17 48  1  0  0  0  0
 17 49  1  0  0  0  0
 18 19  1  0  0  0  0
 18 50  1  0  0  0  0
 18 51  1  0  0  0  0
 19 20  1  0  0  0  0
 19 52  1  0  0  0  0
 19 53  1  0  0  0  0
 20 21  1  0  0  0  0
 20 54  1  0  0  0  0
 21 55  1  0  0  0  0
 22 23  1  0  0  0  0
 23 24  2  0  0  0  0
 23 56  1  0  0  0  0
 24 25  1  0  0  0  0
 26 30  1  0  0  0  0
 26 27  1  0  0  0  0
 26 57  1  0  0  0  0
 27 28  1  0  0  0  0
 27 58  1  0  0  0  0
 27 59  1  0  0  0  0
 28 29  1  0  0  0  0
 28 60  1  0  0  0  0
 28 61  1  0  0  0  0
 29 30  1  0  0  0  0
 30 62  1  0  0  0  0
 30 63  1  0  0  0  0
M  END
> <s_m_source_file>
AV-unprocessed.smi

> <i_m_source_file_index>
148

> <i_lp_mmshare_version>
43012

> <i_f3d_flags>
0

> <s_epik_input>
W0NIMl0xT1tDSDJdW0NIMl1bQ0BIXTFbQ0BIXShbQ0gyXVtPSF0pW0NIMl1uKFtjSF1uMiljKGMyMyluW2NIXW5jM040W0NIMl1bQ0gyXVtDSDJdW0NIMl1bQ0BIXTRbQ0BASF01W0NIMl1bQ0gyXVtDSDJdW0NASF01W09IXQ==

> <s_epik_cmdline>
J2VwaWtfcHl0aG9uJywgJy1waCcsICc3LjAnLCAnLXRuJywgJzgnLCAnLW1hJywgJzIwMCcsICctbWV0YWxfYmluZGluZycsICctaW1hZScsICc8aW5maWxlLm1hZT4nLCAnLW9tYWUnLCAnPG91dGZpbGUubWFlPic=

> <r_lp_tautomer_probability>
1

> <r_epik_Ionization_Penalty>
0.00556303

> <r_epik_Ionization_Penalty_Charging>
0

> <r_epik_Ionization_Penalty_Neutral>
0.00556303

> <r_epik_State_Penalty>
0.00401767

> <r_epik_Charging_Adjusted_Penalty>
0.00401767

> <i_epik_Tot_Q>
0

> <i_epik_Tot_abs_Q>
0

> <r_epik_Metal_State_Penalty>
-0

> <b_epik_Metal_Only>
0

> <s_lp_Force_Field>
OPLS_2005

> <r_lp_Energy>
70.8238

> <b_lp_Chiralities_Consistent>
1

> <s_lp_Variant>
AV-unprocessed.smi:148-7

> <Gold.Version>
5.8.1

> <Gold.Id.Protein>
6NUR|6NUR_protein|mol2

> <Gold.PLP.Fitness>
51.0026

> <Gold.PLP.PLP>
-42.4548

> <Gold.PLP.part.hbond>
-4.7360

> <Gold.PLP.part.metal>
0.0000

> <Gold.PLP.part.buried>
-5.3666

> <Gold.PLP.part.nonpolar>
-32.4891

> <Gold.PLP.part.repulsive>
0.2957

> <Gold.PLP.ligand.clash>
0.0000

> <Gold.PLP.ligand.torsion>
1.1300

> <Gold.PLP.Chemscore.Hbond>
3.3680

> <Gold.PLP.Chemscore.CHOScore>
0.0000

> <Gold.PLP.Chemscore.Metal>
0.0000

> <Gold.Chemscore.Hbonds>
donor molecule, donor type, donor heavy atom, donor atom, acceptor molecule, acceptor atom, score
      L1  H     1    31       P1  7948  1.00
      L1  H    21    55       P1  7957  0.82
      P1  H  7989  7998       L1    22  0.46
      P1  H 10752 10764       L1    24  0.64

> <Gold.PLP.Chemscore.Internal.Correction>
0.7037

> <Gold.Rescore>
     Score         DG    S(hbond)    S(metal)    S(lipo)     H(rot)  DE(clash)    DE(int)     intcor
     13.81     -16.15       2.65        0.00      88.19       3.32       0.29       2.04       ----

> <Gold.Chemscore.Fitness>
13.8118

> <Gold.Chemscore.DG>
-16.1484

> <Gold.Chemscore.ZeroCoef>
-5.4800

> <Gold.Chemscore.Hbond>
2.6499

> <Gold.Chemscore.Metal>
0.0000

> <Gold.Chemscore.Lipo>
88.1860

> <Gold.Chemscore.Internal_Hbond>
0.0000

> <Gold.Chemscore.DEClash>
0.2932

> <Gold.Chemscore.DEInternal>
2.0434

> <Gold.Chemscore.Rot>
3.3203

> <Gold.Chemscore.Internal.Correction>
   9.000000E+99

> <Gold.Chemscore.Hbonds>
donor molecule, donor type, donor heavy atom, donor atom, acceptor molecule, acceptor atom, score
      L1  H     1    31       P1  7948  1.00
      L1  H    21    55       P1  7957  0.81
      P1  H  7989  7998       L1    21  0.19
      P1  H 10752 10764       L1    24  0.05

> <Gold.Chemscore.Hbond.Weighted>
-8.8506

> <Gold.Chemscore.Metal.Weighted>
-0.0000

> <Gold.Chemscore.Lipo.Weighted>
-10.3178

> <Gold.Chemscore.Internal_Hbond.Weighted>
0.0000

> <Gold.Chemscore.DEClash.Weighted>
0.2932

> <Gold.Chemscore.DEInternal.Weighted>
2.0434

> <Gold.Chemscore.Rot.Weighted>
8.5000

> <Gold.Chemscore.Internal.Correction.Weighted>
   9.000000E+99

> <Gold.Protein.RotatedTorsions>
[ 6907 6896 6895 6894 ] final  112.23 input  -60.11 | X-H torsion
[ 7974 7965 7964 7962 ] final   70.19 input  175.53 | X-H torsion
[ 8008 7997 7996 7995 ] final   -4.34 input   59.86 | X-H torsion
[ 10167 10162 10161 10158 ] final  -88.11 input  -65.29 | X-H torsion
[ 10718 10713 10712 10709 ] final  122.77 input   66.30 | X-H torsion
[ 10763 10752 10751 10750 ] final  -59.84 input  -60.55 | X-H torsion
[ 11005 11000 10999 10996 ] final  -84.25 input  -57.11 | X-H torsion

> <Gold.Protein.ActiveResidues>
 VAL166  LYS551  ARG553  GLY616  TRP617  ASP618  TYR619  PRO620  LYS621  CYS622 
 ASP623  PHE694  ASN695  SER759  ASP760  ASP761  ALA762  ILE779  LEU786  VAL792 
 PHE793  MET794  SER795  GLU796  ALA797  LYS798  CYS799  TRP800  GLU811  SER814 

> <Gold.Protein.RotatedAtoms>
  152.4927  133.8545  159.7218 H   0  0  0  0  0  0  0  0  0  0  0  0  # atno 6907 bound_to 6896
  150.9073  133.7033  159.2870 H   0  0  0  0  0  0  0  0  0  0  0  0  # atno 6908 bound_to 6896
  151.4454  135.1028  159.9734 H   0  0  0  0  0  0  0  0  0  0  0  0  # atno 6909 bound_to 6896
  145.7813  139.2889  143.1264 H   0  0  0  0  0  0  0  0  0  0  0  0  # atno 7974 bound_to 7965
  154.6153  140.2486  155.7617 H   0  0  0  0  0  0  0  0  0  0  0  0  # atno 8008 bound_to 7997
  156.2395  140.2938  156.0354 H   0  0  0  0  0  0  0  0  0  0  0  0  # atno 8009 bound_to 7997
  155.1985  140.0393  157.2903 H   0  0  0  0  0  0  0  0  0  0  0  0  # atno 8010 bound_to 7997
  140.3779  143.2763  151.9420 H   0  0  0  0  0  0  0  0  0  0  0  0  # atno 10167 bound_to 10162
  157.5716  131.1082  150.8356 H   0  0  0  0  0  0  0  0  0  0  0  0  # atno 10718 bound_to 10713
  154.2599  135.6310  153.5271 H   0  0  0  0  0  0  0  0  0  0  0  0  # atno 10763 bound_to 10752
  152.9897  135.5585  154.5715 H   0  0  0  0  0  0  0  0  0  0  0  0  # atno 10764 bound_to 10752
  154.5262  135.2885  155.1195 H   0  0  0  0  0  0  0  0  0  0  0  0  # atno 10765 bound_to 10752
  141.1652  133.7336  156.8840 H   0  0  0  0  0  0  0  0  0  0  0  0  # atno 11005 bound_to 11000
  146.0072  140.8468  142.9989 LP  0  0  0  0  0  0  0  0  0  0  0  0  # atno 17320 bound_to 7965
  144.6796  140.2437  143.7340 LP  0  0  0  0  0  0  0  0  0  0  0  0  # atno 17321 bound_to 7965
  139.4798  144.5846  151.7875 LP  0  0  0  0  0  0  0  0  0  0  0  0  # atno 17342 bound_to 10162
  140.4967  144.1229  150.5962 LP  0  0  0  0  0  0  0  0  0  0  0  0  # atno 17343 bound_to 10162
  156.8826  130.5184  149.5290 LP  0  0  0  0  0  0  0  0  0  0  0  0  # atno 17370 bound_to 10713
  156.0762  130.5783  150.9477 LP  0  0  0  0  0  0  0  0  0  0  0  0  # atno 17371 bound_to 10713
  140.1695  134.9110  157.2816 LP  0  0  0  0  0  0  0  0  0  0  0  0  # atno 17394 bound_to 11000
  140.2518  134.3674  155.7439 LP  0  0  0  0  0  0  0  0  0  0  0  0  # atno 17395 bound_to 11000

$$$$
