AV-unprocessed.smi:1065|AV-procd|sdf|4667|dock10
  -GOLD-   22720 3183D 1   1.00000     0.00000
 Structure written by MMmdl.
 39 40  0  0  0  0  0  0  0  0  1 V2000
  153.6984  143.1312  163.6637 C   0  0  0  0  0  0  0  0  0  0  0  0
  153.1102  142.3589  162.4745 C   0  0  0  0  0  0  0  0  0  0  0  0
  153.0341  143.1754  161.1683 C   0  0  2  0  0  0  0  0  0  0  0  0
  151.9701  144.2861  161.2799 C   0  0  0  0  0  0  0  0  0  0  0  0
  151.8650  145.1167  159.9884 C   0  0  0  0  0  0  0  0  0  0  0  0
  151.5911  144.2456  158.7461 C   0  0  2  0  0  0  0  0  0  0  0  0
  150.1376  143.7247  158.7104 C   0  0  0  0  0  0  0  0  0  0  0  0
  149.8479  143.0567  157.4489 N   0  0  0  0  0  0  0  0  0  0  0  0
  150.2747  141.8316  157.1103 C   0  0  0  0  0  0  0  0  0  0  0  0
  150.9129  141.1005  157.8668 O   0  0  0  0  0  0  0  0  0  0  0  0
  149.9383  141.3624  155.6945 C   0  0  0  0  0  0  0  0  0  0  0  0
  150.5085  140.0533  155.4340 N   0  0  0  0  0  0  0  0  0  0  0  0
  149.9790  138.8317  155.5271 C   0  0  0  0  0  0  0  0  0  0  0  0
  150.8593  137.8928  155.2154 N   0  0  0  0  0  0  0  0  0  0  0  0
  151.9999  138.6182  154.9128 N   0  0  0  0  0  0  0  0  0  0  0  0
  151.7981  139.9008  155.0410 N   0  0  0  0  0  0  0  0  0  0  0  0
  152.6552  143.1295  158.6461 C   0  0  0  0  0  0  0  0  0  0  0  0
  152.7521  142.2928  159.9333 C   0  0  0  0  0  0  0  0  0  0  0  0
  153.6515  142.5309  164.5726 H   0  0  0  0  0  0  0  0  0  0  0  0
  153.1460  144.0530  163.8475 H   0  0  0  0  0  0  0  0  0  0  0  0
  154.7440  143.3907  163.5001 H   0  0  0  0  0  0  0  0  0  0  0  0
  153.6858  141.4472  162.3102 H   0  0  0  0  0  0  0  0  0  0  0  0
  152.1058  142.0346  162.7489 H   0  0  0  0  0  0  0  0  0  0  0  0
  153.9999  143.6615  161.0221 H   0  0  0  0  0  0  0  0  0  0  0  0
  151.0007  143.8476  161.5186 H   0  0  0  0  0  0  0  0  0  0  0  0
  152.2132  144.9488  162.1113 H   0  0  0  0  0  0  0  0  0  0  0  0
  151.0897  145.8760  160.0958 H   0  0  0  0  0  0  0  0  0  0  0  0
  152.7993  145.6603  159.8427 H   0  0  0  0  0  0  0  0  0  0  0  0
  151.7124  144.8875  157.8719 H   0  0  0  0  0  0  0  0  0  0  0  0
  149.9561  143.0401  159.5397 H   0  0  0  0  0  0  0  0  0  0  0  0
  149.4394  144.5541  158.8291 H   0  0  0  0  0  0  0  0  0  0  0  0
  149.3252  143.5837  156.7639 H   0  0  0  0  0  0  0  0  0  0  0  0
  148.8571  141.3050  155.5634 H   0  0  0  0  0  0  0  0  0  0  0  0
  150.3169  142.0788  154.9638 H   0  0  0  0  0  0  0  0  0  0  0  0
  148.9603  138.6328  155.8269 H   0  0  0  0  0  0  0  0  0  0  0  0
  152.4622  142.4781  157.7932 H   0  0  0  0  0  0  0  0  0  0  0  0
  153.6271  143.5851  158.4521 H   0  0  0  0  0  0  0  0  0  0  0  0
  153.5430  141.5537  159.8081 H   0  0  0  0  0  0  0  0  0  0  0  0
  151.8299  141.7294  160.0792 H   0  0  0  0  0  0  0  0  0  0  0  0
  1  2  1  0  0  0  0
  1 19  1  0  0  0  0
  1 20  1  0  0  0  0
  1 21  1  0  0  0  0
  2  3  1  0  0  0  0
  2 22  1  0  0  0  0
  2 23  1  0  0  0  0
  3 18  1  0  0  0  0
  3  4  1  0  0  0  0
  3 24  1  0  0  0  0
  4  5  1  0  0  0  0
  4 25  1  0  0  0  0
  4 26  1  0  0  0  0
  5  6  1  0  0  0  0
  5 27  1  0  0  0  0
  5 28  1  0  0  0  0
  6  7  1  0  0  0  0
  6 17  1  0  0  0  0
  6 29  1  0  0  0  0
  7  8  1  0  0  0  0
  7 30  1  0  0  0  0
  7 31  1  0  0  0  0
  8  9  1  0  0  0  0
  8 32  1  0  0  0  0
  9 10  2  0  0  0  0
  9 11  1  0  0  0  0
 11 12  1  0  0  0  0
 11 33  1  0  0  0  0
 11 34  1  0  0  0  0
 12 16  1  0  0  0  0
 12 13  1  0  0  0  0
 13 14  2  0  0  0  0
 13 35  1  0  0  0  0
 14 15  1  0  0  0  0
 15 16  2  0  0  0  0
 17 18  1  0  0  0  0
 17 36  1  0  0  0  0
 17 37  1  0  0  0  0
 18 38  1  0  0  0  0
 18 39  1  0  0  0  0
M  END
> <s_m_source_file>
AV-unprocessed.smi

> <i_m_source_file_index>
1065

> <i_lp_mmshare_version>
43012

> <i_f3d_flags>
0

> <s_epik_input>
W0NIM11bQ0gyXVtDQEBIXTFbQ0gyXVtDSDJdW0NASF0oW0NIMl1bQ0gyXTEpW0NIMl1bTkhdQyg9TylbQ0gyXW4yW2NIXW5ubjI=

> <s_epik_cmdline>
J2VwaWtfcHl0aG9uJywgJy1waCcsICc3LjAnLCAnLXRuJywgJzgnLCAnLW1hJywgJzIwMCcsICctbWV0YWxfYmluZGluZycsICctaW1hZScsICc8aW5maWxlLm1hZT4nLCAnLW9tYWUnLCAnPG91dGZpbGUubWFlPic=

> <r_lp_tautomer_probability>
1

> <r_epik_Ionization_Penalty>
4.54759e-07

> <r_epik_Ionization_Penalty_Charging>
0

> <r_epik_Ionization_Penalty_Neutral>
4.54759e-07

> <r_epik_State_Penalty>
-0

> <r_epik_Charging_Adjusted_Penalty>
0

> <i_epik_Tot_Q>
0

> <i_epik_Tot_abs_Q>
0

> <r_epik_Metal_State_Penalty>
-0

> <b_epik_Metal_Only>
0

> <s_lp_Force_Field>
OPLS_2005

> <r_lp_Energy>
15.297

> <b_lp_Chiralities_Consistent>
1

> <s_lp_Variant>
AV-unprocessed.smi:1065-2

> <Gold.Version>
5.8.1

> <Gold.Id.Protein>
6NUR|6NUR_protein|mol2

> <Gold.PLP.Fitness>
49.5958

> <Gold.PLP.PLP>
-44.6898

> <Gold.PLP.part.hbond>
-2.0388

> <Gold.PLP.part.metal>
0.0000

> <Gold.PLP.part.buried>
-6.3240

> <Gold.PLP.part.nonpolar>
-36.6067

> <Gold.PLP.part.repulsive>
0.2721

> <Gold.PLP.ligand.clash>
0.0000

> <Gold.PLP.ligand.torsion>
0.5215

> <Gold.PLP.Chemscore.Hbond>
1.9760

> <Gold.PLP.Chemscore.CHOScore>
0.0000

> <Gold.PLP.Chemscore.Metal>
0.0000

> <Gold.Chemscore.Hbonds>
donor molecule, donor type, donor heavy atom, donor atom, acceptor molecule, acceptor atom, score
      L1  H     8    32       P1  8028  1.00
      P1  H  7989  7998       L1    16  0.83

> <Gold.PLP.Chemscore.Internal.Correction>
0.0210

> <Gold.Rescore>
     Score         DG    S(hbond)    S(metal)    S(lipo)     H(rot)  DE(clash)    DE(int)     intcor
     17.84     -18.29       1.89        0.00     109.17       2.45       0.10       0.35       ----

> <Gold.Chemscore.Fitness>
17.8381

> <Gold.Chemscore.DG>
-18.2928

> <Gold.Chemscore.ZeroCoef>
-5.4800

> <Gold.Chemscore.Hbond>
1.8907

> <Gold.Chemscore.Metal>
0.0000

> <Gold.Chemscore.Lipo>
109.1702

> <Gold.Chemscore.Internal_Hbond>
0.0000

> <Gold.Chemscore.DEClash>
0.0999

> <Gold.Chemscore.DEInternal>
0.3549

> <Gold.Chemscore.Rot>
2.4512

> <Gold.Chemscore.Internal.Correction>
   9.000000E+99

> <Gold.Chemscore.Hbonds>
donor molecule, donor type, donor heavy atom, donor atom, acceptor molecule, acceptor atom, score
      L1  H     8    32       P1  8028  0.95
      P1  H  7989  7998       L1    16  0.13

> <Gold.Chemscore.Hbond.Weighted>
-6.3149

> <Gold.Chemscore.Metal.Weighted>
-0.0000

> <Gold.Chemscore.Lipo.Weighted>
-12.7729

> <Gold.Chemscore.Internal_Hbond.Weighted>
0.0000

> <Gold.Chemscore.DEClash.Weighted>
0.0999

> <Gold.Chemscore.DEInternal.Weighted>
0.3549

> <Gold.Chemscore.Rot.Weighted>
6.2750

> <Gold.Chemscore.Internal.Correction.Weighted>
   9.000000E+99

> <Gold.Protein.RotatedTorsions>
[ 6907 6896 6895 6894 ] final  158.27 input  -60.11 | X-H torsion
[ 7974 7965 7964 7962 ] final   43.56 input  175.53 | X-H torsion
[ 8008 7997 7996 7995 ] final    7.74 input   59.86 | X-H torsion
[ 10167 10162 10161 10158 ] final   74.24 input  -65.29 | X-H torsion
[ 10718 10713 10712 10709 ] final -170.36 input   66.30 | X-H torsion
[ 10763 10752 10751 10750 ] final  126.81 input  -60.55 | X-H torsion
[ 11005 11000 10999 10996 ] final -105.01 input  -57.11 | X-H torsion

> <Gold.Protein.ActiveResidues>
 VAL166  LYS551  ARG553  GLY616  TRP617  ASP618  TYR619  PRO620  LYS621  CYS622 
 ASP623  PHE694  ASN695  SER759  ASP760  ASP761  ALA762  ILE779  LEU786  VAL792 
 PHE793  MET794  SER795  GLU796  ALA797  LYS798  CYS799  TRP800  GLU811  SER814 

> <Gold.Protein.RotatedAtoms>
  152.0028  133.3832  159.4188 H   0  0  0  0  0  0  0  0  0  0  0  0  # atno 6907 bound_to 6896
  150.6908  134.3815  159.5045 H   0  0  0  0  0  0  0  0  0  0  0  0  # atno 6908 bound_to 6896
  152.1565  134.8946  160.0595 H   0  0  0  0  0  0  0  0  0  0  0  0  # atno 6909 bound_to 6896
  146.0645  139.5173  142.9637 H   0  0  0  0  0  0  0  0  0  0  0  0  # atno 7974 bound_to 7965
  154.7578  140.2779  155.6239 H   0  0  0  0  0  0  0  0  0  0  0  0  # atno 8008 bound_to 7997
  156.2909  140.2666  156.2275 H   0  0  0  0  0  0  0  0  0  0  0  0  # atno 8009 bound_to 7997
  155.0056  140.0372  157.2368 H   0  0  0  0  0  0  0  0  0  0  0  0  # atno 8010 bound_to 7997
  140.0158  144.5579  150.7621 H   0  0  0  0  0  0  0  0  0  0  0  0  # atno 10167 bound_to 10162
  156.7250  130.9285  151.3100 H   0  0  0  0  0  0  0  0  0  0  0  0  # atno 10718 bound_to 10713
  153.6993  135.3286  155.3221 H   0  0  0  0  0  0  0  0  0  0  0  0  # atno 10763 bound_to 10752
  154.8417  135.4450  154.1427 H   0  0  0  0  0  0  0  0  0  0  0  0  # atno 10764 bound_to 10752
  153.2490  135.6979  153.7778 H   0  0  0  0  0  0  0  0  0  0  0  0  # atno 10765 bound_to 10752
  141.1073  133.8772  157.1682 H   0  0  0  0  0  0  0  0  0  0  0  0  # atno 11005 bound_to 11000
  145.6502  141.0265  143.1764 LP  0  0  0  0  0  0  0  0  0  0  0  0  # atno 17320 bound_to 7965
  144.7194  139.8082  143.7387 LP  0  0  0  0  0  0  0  0  0  0  0  0  # atno 17321 bound_to 7965
  140.7363  143.2751  151.3767 LP  0  0  0  0  0  0  0  0  0  0  0  0  # atno 17342 bound_to 10162
  139.6173  144.0976  152.2358 LP  0  0  0  0  0  0  0  0  0  0  0  0  # atno 17343 bound_to 10162
  157.6882  130.9207  150.0443 LP  0  0  0  0  0  0  0  0  0  0  0  0  # atno 17370 bound_to 10713
  156.1568  130.3643  149.9357 LP  0  0  0  0  0  0  0  0  0  0  0  0  # atno 17371 bound_to 10713
  139.9950  135.0050  157.0061 LP  0  0  0  0  0  0  0  0  0  0  0  0  # atno 17394 bound_to 11000
  140.4867  134.1234  155.7226 LP  0  0  0  0  0  0  0  0  0  0  0  0  # atno 17395 bound_to 11000

$$$$
