AV-unprocessed.smi:2807|AV-procd|sdf|10817|dock10
  -GOLD-   2272015253D 1   1.00000     0.00000
 Structure written by MMmdl.
 32 33  0  0  0  0  0  0  0  0  1 V2000
  149.0093  143.0773  158.7119 O   0  0  0  0  0  0  0  0  0  0  0  0
  150.1689  142.9098  158.3321 C   0  0  0  0  0  0  0  0  0  0  0  0
  150.5249  141.9493  157.4631 N   0  0  0  0  0  0  0  0  0  0  0  0
  149.6319  140.9293  156.9142 C   0  0  1  0  0  0  0  0  0  0  0  0
  148.4826  141.5956  156.1370 C   0  0  0  0  0  0  0  0  0  0  0  0
  148.7885  141.3621  154.6587 C   0  0  0  0  0  0  0  0  0  0  0  0
  149.4756  140.0000  154.6357 C   0  0  0  0  0  0  0  0  0  0  0  0
  150.3287  139.9678  155.9103 C   0  0  1  0  0  0  0  0  0  0  0  0
  151.6520  140.3569  155.5820 O   0  0  0  0  0  0  0  0  0  0  0  0
  151.3031  143.7903  158.8763 C   0  0  0  0  0  0  0  0  0  0  0  0
  152.0341  144.2243  157.8471 F   0  0  0  0  0  0  0  0  0  0  0  0
  150.7831  144.8563  159.4899 F   0  0  0  0  0  0  0  0  0  0  0  0
  152.1607  142.9917  159.8556 C   0  0  0  0  0  0  0  0  0  0  0  0
  152.9376  141.8938  159.4193 C   0  0  0  0  0  0  0  0  0  0  0  0
  153.6825  141.1726  160.3722 C   0  0  0  0  0  0  0  0  0  0  0  0
  153.6264  141.5710  161.7211 C   0  0  0  0  0  0  0  0  0  0  0  0
  152.8236  142.6775  162.0591 C   0  0  0  0  0  0  0  0  0  0  0  0
  152.1041  143.3741  161.1539 N   0  0  0  0  0  0  0  0  0  0  0  0
  151.4998  141.8811  157.2090 H   0  0  0  0  0  0  0  0  0  0  0  0
  149.1963  140.3534  157.7328 H   0  0  0  0  0  0  0  0  0  0  0  0
  147.5445  141.0992  156.3888 H   0  0  0  0  0  0  0  0  0  0  0  0
  148.3556  142.6540  156.3699 H   0  0  0  0  0  0  0  0  0  0  0  0
  147.8949  141.3935  154.0347 H   0  0  0  0  0  0  0  0  0  0  0  0
  149.4764  142.1282  154.2980 H   0  0  0  0  0  0  0  0  0  0  0  0
  148.7166  139.2186  154.6902 H   0  0  0  0  0  0  0  0  0  0  0  0
  150.0490  139.8307  153.7232 H   0  0  0  0  0  0  0  0  0  0  0  0
  150.3751  138.9555  156.3129 H   0  0  0  0  0  0  0  0  0  0  0  0
  152.2399  139.9873  156.2232 H   0  0  0  0  0  0  0  0  0  0  0  0
  152.9583  141.5998  158.3805 H   0  0  0  0  0  0  0  0  0  0  0  0
  154.2837  140.3265  160.0738 H   0  0  0  0  0  0  0  0  0  0  0  0
  154.1836  141.0407  162.4791 H   0  0  0  0  0  0  0  0  0  0  0  0
  152.7553  143.0103  163.0842 H   0  0  0  0  0  0  0  0  0  0  0  0
  1  2  2  0  0  0  0
  2  3  1  0  0  0  0
  2 10  1  0  0  0  0
  3  4  1  0  0  0  0
  3 19  1  0  0  0  0
  4  8  1  0  0  0  0
  4  5  1  0  0  0  0
  4 20  1  0  0  0  0
  5  6  1  0  0  0  0
  5 21  1  0  0  0  0
  5 22  1  0  0  0  0
  6  7  1  0  0  0  0
  6 23  1  0  0  0  0
  6 24  1  0  0  0  0
  7  8  1  0  0  0  0
  7 25  1  0  0  0  0
  7 26  1  0  0  0  0
  8  9  1  0  0  0  0
  8 27  1  0  0  0  0
  9 28  1  0  0  0  0
 10 11  1  0  0  0  0
 10 12  1  0  0  0  0
 10 13  1  0  0  0  0
 13 18  1  0  0  0  0
 13 14  2  0  0  0  0
 14 15  1  0  0  0  0
 14 29  1  0  0  0  0
 15 16  2  0  0  0  0
 15 30  1  0  0  0  0
 16 17  1  0  0  0  0
 16 31  1  0  0  0  0
 17 18  2  0  0  0  0
 17 32  1  0  0  0  0
M  END
> <s_m_source_file>
AV-unprocessed.smi

> <i_m_source_file_index>
2807

> <i_lp_mmshare_version>
43012

> <i_f3d_flags>
0

> <s_epik_input>
bjFbY0hdW2NIXVtjSF1bY0hdYzFDKEYpKEYpQyg9TylbTkhdW0NAQEhdMltDSDJdW0NIMl1bQ0gyXVtDQEhdMltPSF0=

> <s_epik_cmdline>
J2VwaWtfcHl0aG9uJywgJy1waCcsICc3LjAnLCAnLXRuJywgJzgnLCAnLW1hJywgJzIwMCcsICctbWV0YWxfYmluZGluZycsICctaW1hZScsICc8aW5maWxlLm1hZT4nLCAnLW9tYWUnLCAnPG91dGZpbGUubWFlPic=

> <r_lp_tautomer_probability>
1

> <r_epik_Ionization_Penalty>
4.08325e-05

> <r_epik_Ionization_Penalty_Charging>
0

> <r_epik_Ionization_Penalty_Neutral>
4.08325e-05

> <r_epik_State_Penalty>
-0

> <r_epik_Charging_Adjusted_Penalty>
0

> <i_epik_Tot_Q>
0

> <i_epik_Tot_abs_Q>
0

> <r_epik_Metal_State_Penalty>
0.034564

> <b_epik_Metal_Only>
0

> <s_lp_Force_Field>
OPLS_2005

> <r_lp_Energy>
28.4248

> <b_lp_Chiralities_Consistent>
1

> <s_lp_Variant>
AV-unprocessed.smi:2807-2

> <Gold.Version>
5.8.1

> <Gold.Id.Protein>
6NUR|6NUR_protein|mol2

> <Gold.PLP.Fitness>
43.9534

> <Gold.PLP.PLP>
-42.7904

> <Gold.PLP.part.hbond>
-1.2278

> <Gold.PLP.part.metal>
0.0000

> <Gold.PLP.part.buried>
-5.9991

> <Gold.PLP.part.nonpolar>
-37.1534

> <Gold.PLP.part.repulsive>
0.2936

> <Gold.PLP.ligand.clash>
0.0000

> <Gold.PLP.ligand.torsion>
0.5788

> <Gold.PLP.Chemscore.Hbond>
0.7680

> <Gold.PLP.Chemscore.CHOScore>
0.0000

> <Gold.PLP.Chemscore.Metal>
0.0000

> <Gold.Chemscore.Hbonds>
donor molecule, donor type, donor heavy atom, donor atom, acceptor molecule, acceptor atom, score
      P1  H  7989  7998       L1     9  0.61

> <Gold.PLP.Chemscore.Internal.Correction>
0.0165

> <Gold.Rescore>
     Score         DG    S(hbond)    S(metal)    S(lipo)     H(rot)  DE(clash)    DE(int)     intcor
     13.40     -14.11       0.93        0.00      91.97       2.05       0.02       0.69       ----

> <Gold.Chemscore.Fitness>
13.3994

> <Gold.Chemscore.DG>
-14.1121

> <Gold.Chemscore.ZeroCoef>
-5.4800

> <Gold.Chemscore.Hbond>
0.9306

> <Gold.Chemscore.Metal>
0.0000

> <Gold.Chemscore.Lipo>
91.9748

> <Gold.Chemscore.Internal_Hbond>
0.0000

> <Gold.Chemscore.DEClash>
0.0187

> <Gold.Chemscore.DEInternal>
0.6940

> <Gold.Chemscore.Rot>
2.0457

> <Gold.Chemscore.Internal.Correction>
   9.000000E+99

> <Gold.Chemscore.Hbonds>
donor molecule, donor type, donor heavy atom, donor atom, acceptor molecule, acceptor atom, score
      P1  H  7989  7998       L1     9  0.36

> <Gold.Chemscore.Hbond.Weighted>
-3.1082

> <Gold.Chemscore.Metal.Weighted>
-0.0000

> <Gold.Chemscore.Lipo.Weighted>
-10.7611

> <Gold.Chemscore.Internal_Hbond.Weighted>
0.0000

> <Gold.Chemscore.DEClash.Weighted>
0.0187

> <Gold.Chemscore.DEInternal.Weighted>
0.6940

> <Gold.Chemscore.Rot.Weighted>
5.2371

> <Gold.Chemscore.Internal.Correction.Weighted>
   9.000000E+99

> <Gold.Protein.RotatedTorsions>
[ 6907 6896 6895 6894 ] final   59.65 input  -60.11 | X-H torsion
[ 7974 7965 7964 7962 ] final  -62.94 input  175.53 | X-H torsion
[ 8008 7997 7996 7995 ] final -173.35 input   59.86 | X-H torsion
[ 10167 10162 10161 10158 ] final -166.29 input  -65.29 | X-H torsion
[ 10718 10713 10712 10709 ] final  176.05 input   66.30 | X-H torsion
[ 10763 10752 10751 10750 ] final -103.16 input  -60.55 | X-H torsion
[ 11005 11000 10999 10996 ] final   44.13 input  -57.11 | X-H torsion

> <Gold.Protein.ActiveResidues>
 VAL166  LYS551  ARG553  GLY616  TRP617  ASP618  TYR619  PRO620  LYS621  CYS622 
 ASP623  PHE694  ASN695  SER759  ASP760  ASP761  ALA762  ILE779  LEU786  VAL792 
 PHE793  MET794  SER795  GLU796  ALA797  LYS798  CYS799  TRP800  GLU811  SER814 

> <Gold.Protein.RotatedAtoms>
  152.3933  134.6406  160.0098 H   0  0  0  0  0  0  0  0  0  0  0  0  # atno 6907 bound_to 6896
  151.6633  133.3310  159.3187 H   0  0  0  0  0  0  0  0  0  0  0  0  # atno 6908 bound_to 6896
  150.7845  134.6862  159.6516 H   0  0  0  0  0  0  0  0  0  0  0  0  # atno 6909 bound_to 6896
  145.7852  140.8740  143.0309 H   0  0  0  0  0  0  0  0  0  0  0  0  # atno 7974 bound_to 7965
  155.9563  140.1136  157.0934 H   0  0  0  0  0  0  0  0  0  0  0  0  # atno 8008 bound_to 7997
  154.4121  140.1190  156.5186 H   0  0  0  0  0  0  0  0  0  0  0  0  # atno 8009 bound_to 7997
  155.6777  140.3473  155.4845 H   0  0  0  0  0  0  0  0  0  0  0  0  # atno 8010 bound_to 7997
  139.6124  144.0787  152.1855 H   0  0  0  0  0  0  0  0  0  0  0  0  # atno 10167 bound_to 10162
  156.9259  130.9955  151.2996 H   0  0  0  0  0  0  0  0  0  0  0  0  # atno 10718 bound_to 10713
  154.7787  135.4833  153.9799 H   0  0  0  0  0  0  0  0  0  0  0  0  # atno 10763 bound_to 10752
  153.1464  135.6783  153.8956 H   0  0  0  0  0  0  0  0  0  0  0  0  # atno 10764 bound_to 10752
  153.8614  135.3155  155.3416 H   0  0  0  0  0  0  0  0  0  0  0  0  # atno 10765 bound_to 10752
  140.1580  134.4377  155.8336 H   0  0  0  0  0  0  0  0  0  0  0  0  # atno 11005 bound_to 11000
  144.6790  140.0045  143.7484 LP  0  0  0  0  0  0  0  0  0  0  0  0  # atno 17320 bound_to 7965
  146.0033  139.3109  143.0914 LP  0  0  0  0  0  0  0  0  0  0  0  0  # atno 17321 bound_to 7965
  140.0409  144.6008  150.7412 LP  0  0  0  0  0  0  0  0  0  0  0  0  # atno 17342 bound_to 10162
  140.7328  143.2710  151.3888 LP  0  0  0  0  0  0  0  0  0  0  0  0  # atno 17343 bound_to 10162
  157.5878  130.8422  149.8615 LP  0  0  0  0  0  0  0  0  0  0  0  0  # atno 17370 bound_to 10713
  156.0469  130.3726  150.1295 LP  0  0  0  0  0  0  0  0  0  0  0  0  # atno 17371 bound_to 10713
  141.2206  133.6901  156.7543 LP  0  0  0  0  0  0  0  0  0  0  0  0  # atno 17394 bound_to 11000
  140.2524  134.8530  157.3680 LP  0  0  0  0  0  0  0  0  0  0  0  0  # atno 17395 bound_to 11000

$$$$
