AV-unprocessed.smi:2710|AV-procd|sdf|10466|dock7
  -GOLD-   2272014503D 1   1.00000     0.00000
 Structure written by MMmdl.
 53 54  0  0  0  0  0  0  0  0  2 V2000
  144.0593  136.8572  152.9489 C   0  0  0  0  0  0  0  0  0  0  0  0
  144.8036  137.5002  154.1309 C   0  0  0  0  0  0  0  0  0  0  0  0
  145.5141  138.7614  153.7687 N   0  3  2  0  0  0  0  0  0  0  0  0
  146.6625  138.5035  152.8532 C   0  0  0  0  0  0  0  0  0  0  0  0
  147.3133  139.8048  152.3616 C   0  0  0  0  0  0  0  0  0  0  0  0
  147.7781  140.6846  153.5317 C   0  0  2  0  0  0  0  0  0  0  0  0
  148.9201  140.1053  154.2397 N   0  0  0  0  0  0  0  0  0  0  0  0
  149.4997  140.6283  155.3298 C   0  0  0  0  0  0  0  0  0  0  0  0
  149.1338  141.6822  155.8477 O   0  0  0  0  0  0  0  0  0  0  0  0
  150.5103  139.8536  155.7598 N   0  0  0  0  0  0  0  0  0  0  0  0
  151.3787  140.0446  156.8698 C   0  0  0  0  0  0  0  0  0  0  0  0
  152.4976  139.2398  157.1959 C   0  0  0  0  0  0  0  0  0  0  0  0
  153.2662  139.4991  158.2748 N   0  0  0  0  0  0  0  0  0  0  0  0
  152.9218  140.5301  159.0568 C   0  0  0  0  0  0  0  0  0  0  0  0
  153.8885  140.9008  160.1954 C   0  0  0  0  0  0  0  0  0  0  0  0
  153.3482  142.0929  161.0201 C   0  0  0  0  0  0  0  0  0  0  0  0
  155.2622  141.2655  159.6030 C   0  0  0  0  0  0  0  0  0  0  0  0
  154.0483  139.7292  161.1929 C   0  0  0  0  0  0  0  0  0  0  0  0
  151.9119  141.3753  158.8126 N   0  0  0  0  0  0  0  0  0  0  0  0
  151.1341  141.1275  157.7385 C   0  0  0  0  0  0  0  0  0  0  0  0
  146.5998  140.9066  154.4898 C   0  0  0  0  0  0  0  0  0  0  0  0
  145.9301  139.5896  154.9484 C   0  0  1  0  0  0  0  0  0  0  0  0
  144.7608  139.9393  155.8927 C   0  0  0  0  0  0  0  0  0  0  0  0
  143.4300  136.0381  153.2978 H   0  0  0  0  0  0  0  0  0  0  0  0
  144.7375  136.4362  152.2076 H   0  0  0  0  0  0  0  0  0  0  0  0
  143.4112  137.5780  152.4496 H   0  0  0  0  0  0  0  0  0  0  0  0
  144.0438  137.6935  154.8844 H   0  0  0  0  0  0  0  0  0  0  0  0
  145.5046  136.7905  154.5725 H   0  0  0  0  0  0  0  0  0  0  0  0
  147.4004  137.8802  153.3608 H   0  0  0  0  0  0  0  0  0  0  0  0
  146.3388  137.9485  151.9747 H   0  0  0  0  0  0  0  0  0  0  0  0
  148.1467  139.5780  151.6958 H   0  0  0  0  0  0  0  0  0  0  0  0
  146.5916  140.3586  151.7596 H   0  0  0  0  0  0  0  0  0  0  0  0
  148.0841  141.6574  153.1418 H   0  0  0  0  0  0  0  0  0  0  0  0
  149.2824  139.2322  153.8856 H   0  0  0  0  0  0  0  0  0  0  0  0
  150.6806  139.0144  155.2254 H   0  0  0  0  0  0  0  0  0  0  0  0
  152.8057  138.3879  156.6119 H   0  0  0  0  0  0  0  0  0  0  0  0
  154.0061  142.3264  161.8581 H   0  0  0  0  0  0  0  0  0  0  0  0
  152.3604  141.8775  161.4294 H   0  0  0  0  0  0  0  0  0  0  0  0
  153.2676  143.0010  160.4218 H   0  0  0  0  0  0  0  0  0  0  0  0
  155.1863  142.1139  158.9220 H   0  0  0  0  0  0  0  0  0  0  0  0
  155.6851  140.4311  159.0423 H   0  0  0  0  0  0  0  0  0  0  0  0
  155.9749  141.5323  160.3840 H   0  0  0  0  0  0  0  0  0  0  0  0
  154.6971  140.0020  162.0260 H   0  0  0  0  0  0  0  0  0  0  0  0
  154.4929  138.8508  160.7239 H   0  0  0  0  0  0  0  0  0  0  0  0
  153.0867  139.4295  161.6113 H   0  0  0  0  0  0  0  0  0  0  0  0
  150.3113  141.8065  157.5687 H   0  0  0  0  0  0  0  0  0  0  0  0
  146.9385  141.4794  155.3545 H   0  0  0  0  0  0  0  0  0  0  0  0
  145.8557  141.5303  153.9919 H   0  0  0  0  0  0  0  0  0  0  0  0
  146.6591  139.0133  155.5206 H   0  0  0  0  0  0  0  0  0  0  0  0
  145.0684  140.6743  156.6374 H   0  0  0  0  0  0  0  0  0  0  0  0
  144.4072  139.0756  156.4546 H   0  0  0  0  0  0  0  0  0  0  0  0
  143.9179  140.3627  155.3454 H   0  0  0  0  0  0  0  0  0  0  0  0
  144.8504  139.3212  153.2522 H   0  0  0  0  0  0  0  0  0  0  0  0
  1  2  1  0  0  0  0
  1 24  1  0  0  0  0
  1 25  1  0  0  0  0
  1 26  1  0  0  0  0
  2  3  1  0  0  0  0
  2 27  1  0  0  0  0
  2 28  1  0  0  0  0
  3 22  1  0  0  0  0
  3  4  1  0  0  0  0
  3 53  1  0  0  0  0
  4  5  1  0  0  0  0
  4 29  1  0  0  0  0
  4 30  1  0  0  0  0
  5  6  1  0  0  0  0
  5 31  1  0  0  0  0
  5 32  1  0  0  0  0
  6  7  1  0  0  0  0
  6 21  1  0  0  0  0
  6 33  1  0  0  0  0
  7  8  1  0  0  0  0
  7 34  1  0  0  0  0
  8  9  2  0  0  0  0
  8 10  1  0  0  0  0
 10 11  1  0  0  0  0
 10 35  1  0  0  0  0
 11 20  1  0  0  0  0
 11 12  2  0  0  0  0
 12 13  1  0  0  0  0
 12 36  1  0  0  0  0
 13 14  2  0  0  0  0
 14 15  1  0  0  0  0
 14 19  1  0  0  0  0
 15 16  1  0  0  0  0
 15 17  1  0  0  0  0
 15 18  1  0  0  0  0
 16 37  1  0  0  0  0
 16 38  1  0  0  0  0
 16 39  1  0  0  0  0
 17 40  1  0  0  0  0
 17 41  1  0  0  0  0
 17 42  1  0  0  0  0
 18 43  1  0  0  0  0
 18 44  1  0  0  0  0
 18 45  1  0  0  0  0
 19 20  2  0  0  0  0
 20 46  1  0  0  0  0
 21 22  1  0  0  0  0
 21 47  1  0  0  0  0
 21 48  1  0  0  0  0
 22 23  1  0  0  0  0
 22 49  1  0  0  0  0
 23 50  1  0  0  0  0
 23 51  1  0  0  0  0
 23 52  1  0  0  0  0
M  CHG  1   3   1
M  END
> <s_m_source_file>
AV-unprocessed.smi

> <i_m_source_file_index>
2710

> <i_lp_mmshare_version>
43012

> <i_f3d_flags>
0

> <s_epik_input>
W0NIM11bQ0gyXU4xW0NIMl1bQ0gyXVtDQEhdKFtDSDJdW0NASF0xW0NIM10pW05IXUMoPU8pW05IXWMyW2NIXW5jKEMoW0NIM10pKFtDSDNdKVtDSDNdKW5bY0hdMg==

> <s_epik_cmdline>
J2VwaWtfcHl0aG9uJywgJy1waCcsICc3LjAnLCAnLXRuJywgJzgnLCAnLW1hJywgJzIwMCcsICctbWV0YWxfYmluZGluZycsICctaW1hZScsICc8aW5maWxlLm1hZT4nLCAnLW9tYWUnLCAnPG91dGZpbGUubWFlPic=

> <r_lp_tautomer_probability>
1

> <r_epik_Ionization_Penalty>
0.00396003

> <r_epik_Ionization_Penalty_Charging>
0.0039379

> <r_epik_Ionization_Penalty_Neutral>
2.21316e-05

> <r_epik_State_Penalty>
0.00281651

> <r_epik_Charging_Adjusted_Penalty>
0.00675441

> <i_epik_Tot_Q>
1

> <i_epik_Tot_abs_Q>
1

> <r_epik_Metal_State_Penalty>
-0

> <b_epik_Metal_Only>
0

> <s_lp_Force_Field>
OPLS_2005

> <r_lp_Energy>
19.072

> <b_lp_Chiralities_Consistent>
1

> <s_lp_Variant>
AV-unprocessed.smi:2710-3

> <Gold.Version>
5.8.1

> <Gold.Id.Protein>
6NUR|6NUR_protein|mol2

> <Gold.PLP.Fitness>
38.7088

> <Gold.PLP.PLP>
-30.3346

> <Gold.PLP.part.hbond>
-2.7004

> <Gold.PLP.part.metal>
0.0000

> <Gold.PLP.part.buried>
-0.1485

> <Gold.PLP.part.nonpolar>
-28.3271

> <Gold.PLP.part.repulsive>
1.1212

> <Gold.PLP.ligand.clash>
0.0000

> <Gold.PLP.ligand.torsion>
0.2129

> <Gold.PLP.Chemscore.Hbond>
2.8816

> <Gold.PLP.Chemscore.CHOScore>
0.0000

> <Gold.PLP.Chemscore.Metal>
0.0000

> <Gold.Chemscore.Hbonds>
donor molecule, donor type, donor heavy atom, donor atom, acceptor molecule, acceptor atom, score
      L1  H     3    53       P1 10175  2.00
      P1  H  7997  8008       L1    13  0.75

> <Gold.PLP.Chemscore.Internal.Correction>
0.1552

> <Gold.Rescore>
     Score         DG    S(hbond)    S(metal)    S(lipo)     H(rot)  DE(clash)    DE(int)     intcor
     12.56     -16.62       1.04        0.00      94.07       1.31       1.73       2.33       ----

> <Gold.Chemscore.Fitness>
12.5587

> <Gold.Chemscore.DG>
-16.6189

> <Gold.Chemscore.ZeroCoef>
-5.4800

> <Gold.Chemscore.Hbond>
1.0424

> <Gold.Chemscore.Metal>
0.0000

> <Gold.Chemscore.Lipo>
94.0680

> <Gold.Chemscore.Internal_Hbond>
0.0000

> <Gold.Chemscore.DEClash>
1.7326

> <Gold.Chemscore.DEInternal>
2.3276

> <Gold.Chemscore.Rot>
1.3081

> <Gold.Chemscore.Internal.Correction>
   9.000000E+99

> <Gold.Chemscore.Hbonds>
donor molecule, donor type, donor heavy atom, donor atom, acceptor molecule, acceptor atom, score
      L1  H     3    53       P1 10175  1.00
      P1  H  7997  8008       L1    13  0.06

> <Gold.Chemscore.Hbond.Weighted>
-3.4817

> <Gold.Chemscore.Metal.Weighted>
-0.0000

> <Gold.Chemscore.Lipo.Weighted>
-11.0060

> <Gold.Chemscore.Internal_Hbond.Weighted>
0.0000

> <Gold.Chemscore.DEClash.Weighted>
1.7326

> <Gold.Chemscore.DEInternal.Weighted>
2.3276

> <Gold.Chemscore.Rot.Weighted>
3.3488

> <Gold.Chemscore.Internal.Correction.Weighted>
   9.000000E+99

> <Gold.Protein.RotatedTorsions>
[ 6907 6896 6895 6894 ] final  -58.07 input  -60.11 | X-H torsion
[ 7974 7965 7964 7962 ] final -142.63 input  175.53 | X-H torsion
[ 8008 7997 7996 7995 ] final -105.22 input   59.86 | X-H torsion
[ 10167 10162 10161 10158 ] final   55.48 input  -65.29 | X-H torsion
[ 10718 10713 10712 10709 ] final  118.41 input   66.30 | X-H torsion
[ 10763 10752 10751 10750 ] final  170.23 input  -60.55 | X-H torsion
[ 11005 11000 10999 10996 ] final -164.32 input  -57.11 | X-H torsion

> <Gold.Protein.ActiveResidues>
 VAL166  LYS551  ARG553  GLY616  TRP617  ASP618  TYR619  PRO620  LYS621  CYS622 
 ASP623  PHE694  ASN695  SER759  ASP760  ASP761  ALA762  ILE779  LEU786  VAL792 
 PHE793  MET794  SER795  GLU796  ALA797  LYS798  CYS799  TRP800  GLU811  SER814 

> <Gold.Protein.RotatedAtoms>
  150.8036  134.7146  159.6622 H   0  0  0  0  0  0  0  0  0  0  0  0  # atno 6907 bound_to 6896
  152.4154  134.6047  160.0019 H   0  0  0  0  0  0  0  0  0  0  0  0  # atno 6908 bound_to 6896
  151.6278  133.3297  159.3138 H   0  0  0  0  0  0  0  0  0  0  0  0  # atno 6909 bound_to 6896
  144.8429  140.5934  143.5440 H   0  0  0  0  0  0  0  0  0  0  0  0  # atno 7974 bound_to 7965
  154.8966  140.0414  157.1869 H   0  0  0  0  0  0  0  0  0  0  0  0  # atno 8008 bound_to 7997
  154.8486  140.2925  155.5592 H   0  0  0  0  0  0  0  0  0  0  0  0  # atno 8009 bound_to 7997
  156.2995  140.2469  156.3441 H   0  0  0  0  0  0  0  0  0  0  0  0  # atno 8010 bound_to 7997
  140.2190  144.3808  150.6458 H   0  0  0  0  0  0  0  0  0  0  0  0  # atno 10167 bound_to 10162
  157.6032  131.1047  150.7752 H   0  0  0  0  0  0  0  0  0  0  0  0  # atno 10718 bound_to 10713
  154.3945  135.2754  155.2134 H   0  0  0  0  0  0  0  0  0  0  0  0  # atno 10763 bound_to 10752
  154.4186  135.6005  153.5999 H   0  0  0  0  0  0  0  0  0  0  0  0  # atno 10764 bound_to 10752
  152.9831  135.5967  154.4205 H   0  0  0  0  0  0  0  0  0  0  0  0  # atno 10765 bound_to 10752
  140.5882  134.5072  157.5189 H   0  0  0  0  0  0  0  0  0  0  0  0  # atno 11005 bound_to 11000
  145.4656  139.1508  143.3842 LP  0  0  0  0  0  0  0  0  0  0  0  0  # atno 17320 bound_to 7965
  146.2719  140.4788  142.8811 LP  0  0  0  0  0  0  0  0  0  0  0  0  # atno 17321 bound_to 7965
  140.6268  143.2182  151.6579 LP  0  0  0  0  0  0  0  0  0  0  0  0  # atno 17342 bound_to 10162
  139.5151  144.3389  152.0758 LP  0  0  0  0  0  0  0  0  0  0  0  0  # atno 17343 bound_to 10162
  156.8147  130.4964  149.5351 LP  0  0  0  0  0  0  0  0  0  0  0  0  # atno 17370 bound_to 10713
  156.1110  130.6040  151.0048 LP  0  0  0  0  0  0  0  0  0  0  0  0  # atno 17371 bound_to 10713
  139.9286  134.8007  156.0996 LP  0  0  0  0  0  0  0  0  0  0  0  0  # atno 17394 bound_to 11000
  141.0952  133.6698  156.2630 LP  0  0  0  0  0  0  0  0  0  0  0  0  # atno 17395 bound_to 11000

$$$$
