AV-unprocessed.smi:193|AV-procd|sdf|1502|dock7
  -GOLD-   2262019333D 1   1.00000     0.00000
 Structure written by MMmdl.
 62 66  0  0  0  0  0  0  0  0  2 V2000
  144.9810  138.3412  154.0812 C   0  0  0  0  0  0  0  0  0  0  0  0
  146.0817  137.3293  154.4344 C   0  0  2  0  0  0  0  0  0  0  0  0
  147.4746  137.9032  154.1108 C   0  0  0  0  0  0  0  0  0  0  0  0
  148.5043  137.3588  154.9939 N   0  0  0  0  0  0  0  0  0  0  0  0
  149.5635  138.1840  155.1270 C   0  0  0  0  0  0  0  0  0  0  0  0
  150.7958  137.6586  154.9229 N   0  0  0  0  0  0  0  0  0  0  0  0
  151.8780  138.4339  155.0470 C   0  0  0  0  0  0  0  0  0  0  0  0
  151.9455  139.7307  155.3584 N   0  0  0  0  0  0  0  0  0  0  0  0
  150.7043  140.2591  155.5620 C   0  0  0  0  0  0  0  0  0  0  0  0
  149.4683  139.5615  155.4689 C   0  0  0  0  0  0  0  0  0  0  0  0
  148.4122  140.4218  155.7432 N   0  0  0  0  0  0  0  0  0  0  0  0
  148.9925  141.5667  155.9824 C   0  0  0  0  0  0  0  0  0  0  0  0
  150.3665  141.5605  155.8898 N   0  0  0  0  0  0  0  0  0  0  0  0
  151.2590  142.6903  156.1012 C   0  0  0  0  0  0  0  0  0  0  0  0
  151.3464  143.1530  157.5768 C   0  0  0  0  0  0  0  0  0  0  0  0
  150.0447  143.5385  157.9839 O   0  0  0  0  0  0  0  0  0  0  0  0
  151.8147  141.9938  158.4798 C   0  0  0  0  0  0  0  0  0  0  0  0
  152.0788  142.4534  159.9250 C   0  0  0  0  0  0  0  0  0  0  0  0
  153.0141  143.5247  159.9320 O   0  0  0  0  0  0  0  0  0  0  0  0
  152.5340  144.6782  159.2528 C   0  0  0  0  0  0  0  0  0  0  0  0
  152.2944  144.3574  157.7668 C   0  0  0  0  0  0  0  0  0  0  0  0
  148.9076  135.9626  154.8564 C   0  0  0  0  0  0  0  0  0  0  0  0
  147.7372  134.9714  154.9452 C   0  0  0  0  0  0  0  0  0  0  0  0
  146.9246  135.0171  153.7059 N   0  3  1  0  0  0  0  0  0  0  0  0
  146.4908  133.6702  153.2657 C   0  0  1  0  0  0  0  0  0  0  0  0
  146.7936  133.3700  151.8148 C   0  0  0  0  0  0  0  0  0  0  0  0
  147.6164  132.7174  152.9044 C   0  0  1  0  0  0  0  0  0  0  0  0
  149.0860  133.0630  153.0625 C   0  0  0  0  0  0  0  0  0  0  0  0
  145.7901  135.9775  153.7407 C   0  0  0  0  0  0  0  0  0  0  0  0
  144.9796  138.5720  153.0155 H   0  0  0  0  0  0  0  0  0  0  0  0
  145.1181  139.2775  154.6234 H   0  0  0  0  0  0  0  0  0  0  0  0
  143.9942  137.9563  154.3408 H   0  0  0  0  0  0  0  0  0  0  0  0
  146.0216  137.1849  155.5144 H   0  0  0  0  0  0  0  0  0  0  0  0
  147.7331  137.7233  153.0663 H   0  0  0  0  0  0  0  0  0  0  0  0
  147.4511  138.9871  154.2393 H   0  0  0  0  0  0  0  0  0  0  0  0
  152.8258  137.9458  154.8726 H   0  0  0  0  0  0  0  0  0  0  0  0
  148.4312  142.4563  156.2293 H   0  0  0  0  0  0  0  0  0  0  0  0
  152.2478  142.4180  155.7292 H   0  0  0  0  0  0  0  0  0  0  0  0
  150.9167  143.5131  155.4721 H   0  0  0  0  0  0  0  0  0  0  0  0
  149.6004  143.9209  157.2426 H   0  0  0  0  0  0  0  0  0  0  0  0
  151.0852  141.1827  158.4726 H   0  0  0  0  0  0  0  0  0  0  0  0
  152.7388  141.5751  158.0788 H   0  0  0  0  0  0  0  0  0  0  0  0
  151.1542  142.7587  160.4173 H   0  0  0  0  0  0  0  0  0  0  0  0
  152.4877  141.6285  160.5088 H   0  0  0  0  0  0  0  0  0  0  0  0
  151.6216  145.0407  159.7288 H   0  0  0  0  0  0  0  0  0  0  0  0
  153.2740  145.4731  159.3462 H   0  0  0  0  0  0  0  0  0  0  0  0
  153.2556  144.1340  157.3023 H   0  0  0  0  0  0  0  0  0  0  0  0
  151.9074  145.2423  157.2602 H   0  0  0  0  0  0  0  0  0  0  0  0
  149.4444  135.8205  153.9179 H   0  0  0  0  0  0  0  0  0  0  0  0
  149.6161  135.7326  155.6538 H   0  0  0  0  0  0  0  0  0  0  0  0
  148.1683  133.9746  155.0495 H   0  0  0  0  0  0  0  0  0  0  0  0
  147.1281  135.1255  155.8368 H   0  0  0  0  0  0  0  0  0  0  0  0
  145.5733  133.2962  153.7168 H   0  0  0  0  0  0  0  0  0  0  0  0
  146.0928  132.7357  151.2756 H   0  0  0  0  0  0  0  0  0  0  0  0
  147.2726  134.1423  151.2153 H   0  0  0  0  0  0  0  0  0  0  0  0
  147.4059  131.6659  153.0910 H   0  0  0  0  0  0  0  0  0  0  0  0
  149.2902  134.0873  152.7492 H   0  0  0  0  0  0  0  0  0  0  0  0
  149.6918  132.3943  152.4506 H   0  0  0  0  0  0  0  0  0  0  0  0
  149.3894  132.9473  154.1031 H   0  0  0  0  0  0  0  0  0  0  0  0
  144.9387  135.5083  154.2362 H   0  0  0  0  0  0  0  0  0  0  0  0
  145.4831  136.1555  152.7093 H   0  0  0  0  0  0  0  0  0  0  0  0
  147.5536  135.3493  152.9889 H   0  0  0  0  0  0  0  0  0  0  0  0
  1  2  1  0  0  0  0
  1 30  1  0  0  0  0
  1 31  1  0  0  0  0
  1 32  1  0  0  0  0
  2 29  1  0  0  0  0
  2  3  1  0  0  0  0
  2 33  1  0  0  0  0
  3  4  1  0  0  0  0
  3 34  1  0  0  0  0
  3 35  1  0  0  0  0
  4  5  1  0  0  0  0
  4 22  1  0  0  0  0
  5 10  1  0  0  0  0
  5  6  2  0  0  0  0
  6  7  1  0  0  0  0
  7  8  2  0  0  0  0
  7 36  1  0  0  0  0
  8  9  1  0  0  0  0
  9 13  1  0  0  0  0
  9 10  2  0  0  0  0
 10 11  1  0  0  0  0
 11 12  2  0  0  0  0
 12 13  1  0  0  0  0
 12 37  1  0  0  0  0
 13 14  1  0  0  0  0
 14 15  1  0  0  0  0
 14 38  1  0  0  0  0
 14 39  1  0  0  0  0
 15 21  1  0  0  0  0
 15 16  1  0  0  0  0
 15 17  1  0  0  0  0
 16 40  1  0  0  0  0
 17 18  1  0  0  0  0
 17 41  1  0  0  0  0
 17 42  1  0  0  0  0
 18 19  1  0  0  0  0
 18 43  1  0  0  0  0
 18 44  1  0  0  0  0
 19 20  1  0  0  0  0
 20 21  1  0  0  0  0
 20 45  1  0  0  0  0
 20 46  1  0  0  0  0
 21 47  1  0  0  0  0
 21 48  1  0  0  0  0
 22 23  1  0  0  0  0
 22 49  1  0  0  0  0
 22 50  1  0  0  0  0
 23 24  1  0  0  0  0
 23 51  1  0  0  0  0
 23 52  1  0  0  0  0
 24 25  1  0  0  0  0
 24 29  1  0  0  0  0
 24 62  1  0  0  0  0
 25 27  1  0  0  0  0
 25 26  1  0  0  0  0
 25 53  1  0  0  0  0
 26 27  1  0  0  0  0
 26 54  1  0  0  0  0
 26 55  1  0  0  0  0
 27 28  1  0  0  0  0
 27 56  1  0  0  0  0
 28 57  1  0  0  0  0
 28 58  1  0  0  0  0
 28 59  1  0  0  0  0
 29 60  1  0  0  0  0
 29 61  1  0  0  0  0
M  CHG  1  24   1
M  END
> <s_m_source_file>
AV-unprocessed.smi

> <i_m_source_file_index>
193

> <i_lp_mmshare_version>
43012

> <i_f3d_flags>
0

> <s_epik_input>
W0NIM11bQ0BASF0xW0NIMl1bQ0BIXTFOKFtDSDJdMilbQ0gyXVtDSDJdTihbQ0gyXVtDQEhdMltDSDNdKWMobltjSF1uMyljKGMzNCluW2NIXW40W0NIMl1DNShbT0hdKVtDSDJdW0NIMl1PW0NIMl1bQ0gyXTU=

> <s_epik_cmdline>
J2VwaWtfcHl0aG9uJywgJy1waCcsICc3LjAnLCAnLXRuJywgJzgnLCAnLW1hJywgJzIwMCcsICctbWV0YWxfYmluZGluZycsICctaW1hZScsICc8aW5maWxlLm1hZT4nLCAnLW9tYWUnLCAnPG91dGZpbGUubWFlPic=

> <r_lp_tautomer_probability>
1

> <r_epik_Ionization_Penalty>
0.0540825

> <r_epik_Ionization_Penalty_Charging>
0.0538476

> <r_epik_Ionization_Penalty_Neutral>
0.000234891

> <r_epik_State_Penalty>
0.0200719

> <r_epik_Charging_Adjusted_Penalty>
0.0739194

> <i_epik_Tot_Q>
1

> <i_epik_Tot_abs_Q>
1

> <r_epik_Metal_State_Penalty>
0.0199414

> <b_epik_Metal_Only>
0

> <s_lp_Force_Field>
OPLS_2005

> <r_lp_Energy>
58.7768

> <b_lp_Chiralities_Consistent>
1

> <s_lp_Variant>
AV-unprocessed.smi:193-7

> <Gold.Version>
5.8.1

> <Gold.Id.Protein>
6NUR|6NUR_protein|mol2

> <Gold.PLP.Fitness>
51.7090

> <Gold.PLP.PLP>
-40.1297

> <Gold.PLP.part.hbond>
-3.0414

> <Gold.PLP.part.metal>
0.0000

> <Gold.PLP.part.buried>
-4.1203

> <Gold.PLP.part.nonpolar>
-32.3863

> <Gold.PLP.part.repulsive>
0.2920

> <Gold.PLP.ligand.clash>
0.0000

> <Gold.PLP.ligand.torsion>
0.9393

> <Gold.PLP.Chemscore.Hbond>
3.0507

> <Gold.PLP.Chemscore.CHOScore>
0.9089

> <Gold.PLP.Chemscore.Metal>
0.0000

> <Gold.Chemscore.Hbonds>
donor molecule, donor type, donor heavy atom, donor atom, acceptor molecule, acceptor atom, score
      L1  H    16    40       P1  8028  1.00
      L1  H    24    62       P1  7948  2.00
      L1  C    12    37       P1  8028  0.99

> <Gold.PLP.Chemscore.Internal.Correction>
1.5791

> <Gold.Rescore>
     Score         DG    S(hbond)    S(metal)    S(lipo)     H(rot)  DE(clash)    DE(int)     intcor
     13.86     -18.00       1.71        0.00     106.30       2.20       1.45       2.69       ----

> <Gold.Chemscore.Fitness>
13.8582

> <Gold.Chemscore.DG>
-17.9971

> <Gold.Chemscore.ZeroCoef>
-5.4800

> <Gold.Chemscore.Hbond>
1.7115

> <Gold.Chemscore.Metal>
0.0000

> <Gold.Chemscore.Lipo>
106.3010

> <Gold.Chemscore.Internal_Hbond>
0.0000

> <Gold.Chemscore.DEClash>
1.4458

> <Gold.Chemscore.DEInternal>
2.6931

> <Gold.Chemscore.Rot>
2.2018

> <Gold.Chemscore.Internal.Correction>
   9.000000E+99

> <Gold.Chemscore.Hbonds>
donor molecule, donor type, donor heavy atom, donor atom, acceptor molecule, acceptor atom, score
      L1  H    16    40       P1  8028  0.60
      L1  H    24    62       P1  7948  0.97

> <Gold.Chemscore.Hbond.Weighted>
-5.7165

> <Gold.Chemscore.Metal.Weighted>
-0.0000

> <Gold.Chemscore.Lipo.Weighted>
-12.4372

> <Gold.Chemscore.Internal_Hbond.Weighted>
0.0000

> <Gold.Chemscore.DEClash.Weighted>
1.4458

> <Gold.Chemscore.DEInternal.Weighted>
2.6931

> <Gold.Chemscore.Rot.Weighted>
5.6366

> <Gold.Chemscore.Internal.Correction.Weighted>
   9.000000E+99

> <Gold.Protein.RotatedTorsions>
[ 6907 6896 6895 6894 ] final  105.25 input  -60.11 | X-H torsion
[ 7974 7965 7964 7962 ] final  -87.37 input  175.53 | X-H torsion
[ 8008 7997 7996 7995 ] final   85.26 input   59.86 | X-H torsion
[ 10167 10162 10161 10158 ] final -135.06 input  -65.29 | X-H torsion
[ 10718 10713 10712 10709 ] final   91.68 input   66.30 | X-H torsion
[ 10763 10752 10751 10750 ] final  134.62 input  -60.55 | X-H torsion
[ 11005 11000 10999 10996 ] final -140.30 input  -57.11 | X-H torsion

> <Gold.Protein.ActiveResidues>
 VAL166  LYS551  ARG553  GLY616  TRP617  ASP618  TYR619  PRO620  LYS621  CYS622 
 ASP623  PHE694  ASN695  SER759  ASP760  ASP761  ALA762  ILE779  LEU786  VAL792 
 PHE793  MET794  SER795  GLU796  ALA797  LYS798  CYS799  TRP800  GLU811  SER814 

> <Gold.Protein.RotatedAtoms>
  152.5237  133.9557  159.7692 H   0  0  0  0  0  0  0  0  0  0  0  0  # atno 6907 bound_to 6896
  150.9858  133.6191  159.2722 H   0  0  0  0  0  0  0  0  0  0  0  0  # atno 6908 bound_to 6896
  151.3352  135.0857  159.9405 H   0  0  0  0  0  0  0  0  0  0  0  0  # atno 6909 bound_to 6896
  145.4674  140.9560  143.1936 H   0  0  0  0  0  0  0  0  0  0  0  0  # atno 7974 bound_to 7965
  155.9478  140.3403  155.6382 H   0  0  0  0  0  0  0  0  0  0  0  0  # atno 8008 bound_to 7997
  155.6959  140.0754  157.2448 H   0  0  0  0  0  0  0  0  0  0  0  0  # atno 8009 bound_to 7997
  154.4115  140.1649  156.2124 H   0  0  0  0  0  0  0  0  0  0  0  0  # atno 8010 bound_to 7997
  139.8818  143.6830  152.2626 H   0  0  0  0  0  0  0  0  0  0  0  0  # atno 10167 bound_to 10162
  157.6960  131.0416  150.3766 H   0  0  0  0  0  0  0  0  0  0  0  0  # atno 10718 bound_to 10713
  153.8266  135.3109  155.3415 H   0  0  0  0  0  0  0  0  0  0  0  0  # atno 10763 bound_to 10752
  154.7991  135.4738  154.0234 H   0  0  0  0  0  0  0  0  0  0  0  0  # atno 10764 bound_to 10752
  153.1660  135.6869  153.8764 H   0  0  0  0  0  0  0  0  0  0  0  0  # atno 10765 bound_to 10752
  140.8436  134.2372  157.4797 H   0  0  0  0  0  0  0  0  0  0  0  0  # atno 11005 bound_to 11000
  144.7966  139.6222  143.7090 LP  0  0  0  0  0  0  0  0  0  0  0  0  # atno 17320 bound_to 7965
  146.2416  139.6014  142.9487 LP  0  0  0  0  0  0  0  0  0  0  0  0  # atno 17321 bound_to 7965
  139.7189  144.7606  151.0987 LP  0  0  0  0  0  0  0  0  0  0  0  0  # atno 17342 bound_to 10162
  140.7743  143.5233  150.9510 LP  0  0  0  0  0  0  0  0  0  0  0  0  # atno 17343 bound_to 10162
  156.4185  130.3948  149.6841 LP  0  0  0  0  0  0  0  0  0  0  0  0  # atno 17370 bound_to 10713
  156.4101  130.7717  151.2730 LP  0  0  0  0  0  0  0  0  0  0  0  0  # atno 17371 bound_to 10713
  139.8703  134.9648  156.4506 LP  0  0  0  0  0  0  0  0  0  0  0  0  # atno 17394 bound_to 11000
  140.8868  133.7877  155.9528 LP  0  0  0  0  0  0  0  0  0  0  0  0  # atno 17395 bound_to 11000

$$$$
