AV-unprocessed.smi:1567|AV-procd|sdf|6307|dock4
  -GOLD-   22720 6503D 1   1.00000     0.00000
 Structure written by MMmdl.
 42 44  0  0  0  0  0  0  0  0  1 V2000
  154.9391  138.7641  158.7335 O   0  0  0  0  0  0  0  0  0  0  0  0
  154.4809  138.9830  160.0497 C   0  0  0  0  0  0  0  0  0  0  0  0
  153.1003  138.3353  160.2329 C   0  0  0  0  0  0  0  0  0  0  0  0
  152.0315  138.8510  159.2517 C   0  0  0  0  0  0  0  0  0  0  0  0
  151.9325  140.3511  159.1964 C   0  0  0  0  0  0  0  0  0  0  0  0
  152.7147  141.1222  159.9536 N   0  0  0  0  0  0  0  0  0  0  0  0
  152.3270  142.3986  159.5991 C   0  0  0  0  0  0  0  0  0  0  0  0
  152.7742  143.6561  160.0640 C   0  0  0  0  0  0  0  0  0  0  0  0
  152.2239  144.8459  159.5441 C   0  0  0  0  0  0  0  0  0  0  0  0
  151.2222  144.7951  158.5534 C   0  0  0  0  0  0  0  0  0  0  0  0
  150.7640  143.5521  158.0759 C   0  0  0  0  0  0  0  0  0  0  0  0
  151.3154  142.3669  158.5992 C   0  0  0  0  0  0  0  0  0  0  0  0
  151.0973  141.0138  158.3528 N   0  0  0  0  0  0  0  0  0  0  0  0
  150.1644  140.4679  157.3748 C   0  0  0  0  0  0  0  0  0  0  0  0
  150.4919  140.8894  155.9293 C   0  0  1  0  0  0  0  0  0  0  0  0
  151.6375  140.1960  155.4713 O   0  0  0  0  0  0  0  0  0  0  0  0
  149.2913  140.6955  155.0139 C   0  0  0  0  0  0  0  0  0  0  0  0
  148.3774  141.7523  154.8036 C   0  0  0  0  0  0  0  0  0  0  0  0
  147.2707  141.5778  153.9506 C   0  0  0  0  0  0  0  0  0  0  0  0
  146.3996  142.5958  153.7561 F   0  0  0  0  0  0  0  0  0  0  0  0
  147.0707  140.3458  153.2994 C   0  0  0  0  0  0  0  0  0  0  0  0
  147.9807  139.2904  153.4992 C   0  0  0  0  0  0  0  0  0  0  0  0
  149.0897  139.4634  154.3507 C   0  0  0  0  0  0  0  0  0  0  0  0
  149.9605  138.4399  154.5235 F   0  0  0  0  0  0  0  0  0  0  0  0
  155.2999  137.8921  158.6812 H   0  0  0  0  0  0  0  0  0  0  0  0
  155.2018  138.5521  160.7441 H   0  0  0  0  0  0  0  0  0  0  0  0
  154.4403  140.0568  160.2353 H   0  0  0  0  0  0  0  0  0  0  0  0
  153.1884  137.2523  160.1348 H   0  0  0  0  0  0  0  0  0  0  0  0
  152.7564  138.5170  161.2518 H   0  0  0  0  0  0  0  0  0  0  0  0
  152.2627  138.4946  158.2474 H   0  0  0  0  0  0  0  0  0  0  0  0
  151.0729  138.4067  159.5133 H   0  0  0  0  0  0  0  0  0  0  0  0
  153.5412  143.7049  160.8224 H   0  0  0  0  0  0  0  0  0  0  0  0
  152.5720  145.8018  159.9068 H   0  0  0  0  0  0  0  0  0  0  0  0
  150.8050  145.7107  158.1603 H   0  0  0  0  0  0  0  0  0  0  0  0
  149.9949  143.5112  157.3190 H   0  0  0  0  0  0  0  0  0  0  0  0
  150.1755  139.3805  157.4563 H   0  0  0  0  0  0  0  0  0  0  0  0
  149.1525  140.7693  157.6460 H   0  0  0  0  0  0  0  0  0  0  0  0
  150.7587  141.9439  155.9231 H   0  0  0  0  0  0  0  0  0  0  0  0
  151.8575  139.5282  156.1028 H   0  0  0  0  0  0  0  0  0  0  0  0
  148.5237  142.7038  155.2939 H   0  0  0  0  0  0  0  0  0  0  0  0
  146.2220  140.2115  152.6451 H   0  0  0  0  0  0  0  0  0  0  0  0
  147.8292  138.3467  152.9964 H   0  0  0  0  0  0  0  0  0  0  0  0
  1  2  1  0  0  0  0
  1 25  1  0  0  0  0
  2  3  1  0  0  0  0
  2 26  1  0  0  0  0
  2 27  1  0  0  0  0
  3  4  1  0  0  0  0
  3 28  1  0  0  0  0
  3 29  1  0  0  0  0
  4  5  1  0  0  0  0
  4 30  1  0  0  0  0
  4 31  1  0  0  0  0
  5 13  1  0  0  0  0
  5  6  2  0  0  0  0
  6  7  1  0  0  0  0
  7 12  2  0  0  0  0
  7  8  1  0  0  0  0
  8  9  2  0  0  0  0
  8 32  1  0  0  0  0
  9 10  1  0  0  0  0
  9 33  1  0  0  0  0
 10 11  2  0  0  0  0
 10 34  1  0  0  0  0
 11 12  1  0  0  0  0
 11 35  1  0  0  0  0
 12 13  1  0  0  0  0
 13 14  1  0  0  0  0
 14 15  1  0  0  0  0
 14 36  1  0  0  0  0
 14 37  1  0  0  0  0
 15 16  1  0  0  0  0
 15 17  1  0  0  0  0
 15 38  1  0  0  0  0
 16 39  1  0  0  0  0
 17 23  1  0  0  0  0
 17 18  2  0  0  0  0
 18 19  1  0  0  0  0
 18 40  1  0  0  0  0
 19 20  1  0  0  0  0
 19 21  2  0  0  0  0
 21 22  1  0  0  0  0
 21 41  1  0  0  0  0
 22 23  2  0  0  0  0
 22 42  1  0  0  0  0
 23 24  1  0  0  0  0
M  END
> <s_m_source_file>
AV-unprocessed.smi

> <i_m_source_file_index>
1567

> <i_lp_mmshare_version>
43012

> <i_f3d_flags>
0

> <s_epik_input>
W09IXVtDSDJdW0NIMl1bQ0gyXWMobjEpbihjKGMxMilbY0hdW2NIXVtjSF1bY0hdMilbQ0gyXVtDQEhdKFtPSF0pYzNbY0hdYyhGKVtjSF1bY0hdYzNG

> <s_epik_cmdline>
J2VwaWtfcHl0aG9uJywgJy1waCcsICc3LjAnLCAnLXRuJywgJzgnLCAnLW1hJywgJzIwMCcsICctbWV0YWxfYmluZGluZycsICctaW1hZScsICc8aW5maWxlLm1hZT4nLCAnLW9tYWUnLCAnPG91dGZpbGUubWFlPic=

> <r_epik_Ionization_Penalty>
0.182562

> <r_epik_Ionization_Penalty_Charging>
0

> <r_epik_Ionization_Penalty_Neutral>
0.182562

> <r_epik_State_Penalty>
0.172086

> <r_epik_Charging_Adjusted_Penalty>
0.172086

> <i_epik_Tot_Q>
0

> <i_epik_Tot_abs_Q>
0

> <r_epik_Metal_State_Penalty>
0.000199649

> <b_epik_Metal_Only>
0

> <s_lp_Force_Field>
OPLS_2005

> <r_lp_Energy>
10.1612

> <b_lp_Chiralities_Consistent>
1

> <s_lp_Variant>
AV-unprocessed.smi:1567-2

> <Gold.Version>
5.8.1

> <Gold.Id.Protein>
6NUR|6NUR_protein|mol2

> <Gold.PLP.Fitness>
56.9321

> <Gold.PLP.PLP>
-53.0022

> <Gold.PLP.part.hbond>
-2.0000

> <Gold.PLP.part.metal>
0.0000

> <Gold.PLP.part.buried>
-4.5377

> <Gold.PLP.part.nonpolar>
-47.1785

> <Gold.PLP.part.repulsive>
0.0000

> <Gold.PLP.ligand.clash>
0.0000

> <Gold.PLP.ligand.torsion>
0.8746

> <Gold.PLP.Chemscore.Hbond>
1.8640

> <Gold.PLP.Chemscore.CHOScore>
0.0000

> <Gold.PLP.Chemscore.Metal>
0.0000

> <Gold.Chemscore.Hbonds>
donor molecule, donor type, donor heavy atom, donor atom, acceptor molecule, acceptor atom, score
      P1  H  7989  7998       L1    16  0.76
      P1  H  7997  8009       L1     1  1.00

> <Gold.PLP.Chemscore.Internal.Correction>
0.0871

> <Gold.Rescore>
     Score         DG    S(hbond)    S(metal)    S(lipo)     H(rot)  DE(clash)    DE(int)     intcor
     15.25     -18.25       1.79        0.00     128.72       3.23       0.18       2.82       ----

> <Gold.Chemscore.Fitness>
15.2523

> <Gold.Chemscore.DG>
-18.2520

> <Gold.Chemscore.ZeroCoef>
-5.4800

> <Gold.Chemscore.Hbond>
1.7893

> <Gold.Chemscore.Metal>
0.0000

> <Gold.Chemscore.Lipo>
128.7159

> <Gold.Chemscore.Internal_Hbond>
0.0000

> <Gold.Chemscore.DEClash>
0.1802

> <Gold.Chemscore.DEInternal>
2.8196

> <Gold.Chemscore.Rot>
3.2281

> <Gold.Chemscore.Internal.Correction>
   9.000000E+99

> <Gold.Chemscore.Hbonds>
donor molecule, donor type, donor heavy atom, donor atom, acceptor molecule, acceptor atom, score
      P1  H  7989  7998       L1    16  0.16
      P1  H  7997  8009       L1     1  0.98

> <Gold.Chemscore.Hbond.Weighted>
-5.9761

> <Gold.Chemscore.Metal.Weighted>
-0.0000

> <Gold.Chemscore.Lipo.Weighted>
-15.0598

> <Gold.Chemscore.Internal_Hbond.Weighted>
0.0000

> <Gold.Chemscore.DEClash.Weighted>
0.1802

> <Gold.Chemscore.DEInternal.Weighted>
2.8196

> <Gold.Chemscore.Rot.Weighted>
8.2639

> <Gold.Chemscore.Internal.Correction.Weighted>
   9.000000E+99

> <Gold.Protein.RotatedTorsions>
[ 6907 6896 6895 6894 ] final  -61.18 input  -60.11 | X-H torsion
[ 7974 7965 7964 7962 ] final -149.96 input  175.53 | X-H torsion
[ 8008 7997 7996 7995 ] final  110.44 input   59.86 | X-H torsion
[ 10167 10162 10161 10158 ] final   -0.76 input  -65.29 | X-H torsion
[ 10718 10713 10712 10709 ] final  -48.39 input   66.30 | X-H torsion
[ 10763 10752 10751 10750 ] final  174.92 input  -60.55 | X-H torsion
[ 11005 11000 10999 10996 ] final  -76.74 input  -57.11 | X-H torsion

> <Gold.Protein.ActiveResidues>
 VAL166  LYS551  ARG553  GLY616  TRP617  ASP618  TYR619  PRO620  LYS621  CYS622 
 ASP623  PHE694  ASN695  SER759  ASP760  ASP761  ALA762  ILE779  LEU786  VAL792 
 PHE793  MET794  SER795  GLU796  ALA797  LYS798  CYS799  TRP800  GLU811  SER814 

> <Gold.Protein.RotatedAtoms>
  150.7803  134.6739  159.6406 H   0  0  0  0  0  0  0  0  0  0  0  0  # atno 6907 bound_to 6896
  152.3885  134.6475  160.0125 H   0  0  0  0  0  0  0  0  0  0  0  0  # atno 6908 bound_to 6896
  151.6783  133.3276  159.3249 H   0  0  0  0  0  0  0  0  0  0  0  0  # atno 6909 bound_to 6896
  144.7936  140.4995  143.5755 H   0  0  0  0  0  0  0  0  0  0  0  0  # atno 7974 bound_to 7965
  156.2053  140.3038  155.9614 H   0  0  0  0  0  0  0  0  0  0  0  0  # atno 8008 bound_to 7997
  155.2856  140.0439  157.3036 H   0  0  0  0  0  0  0  0  0  0  0  0  # atno 8009 bound_to 7997
  154.5625  140.2324  155.8322 H   0  0  0  0  0  0  0  0  0  0  0  0  # atno 8010 bound_to 7997
  140.6781  143.6856  150.8070 H   0  0  0  0  0  0  0  0  0  0  0  0  # atno 10167 bound_to 10162
  156.1992  130.4155  149.9264 H   0  0  0  0  0  0  0  0  0  0  0  0  # atno 10718 bound_to 10713
  154.4605  135.2767  155.1716 H   0  0  0  0  0  0  0  0  0  0  0  0  # atno 10763 bound_to 10752
  154.3506  135.6151  153.5644 H   0  0  0  0  0  0  0  0  0  0  0  0  # atno 10764 bound_to 10752
  152.9854  135.5810  154.4967 H   0  0  0  0  0  0  0  0  0  0  0  0  # atno 10765 bound_to 10752
  141.1656  133.6995  156.7715 H   0  0  0  0  0  0  0  0  0  0  0  0  # atno 11005 bound_to 11000
  145.5731  139.1484  143.3277 LP  0  0  0  0  0  0  0  0  0  0  0  0  # atno 17320 bound_to 7965
  146.2197  140.5863  142.9023 LP  0  0  0  0  0  0  0  0  0  0  0  0  # atno 17321 bound_to 7965
  140.0552  143.5210  152.2654 LP  0  0  0  0  0  0  0  0  0  0  0  0  # atno 17342 bound_to 10162
  139.6086  144.7603  151.3004 LP  0  0  0  0  0  0  0  0  0  0  0  0  # atno 17343 bound_to 10162
  156.6979  130.8921  151.3596 LP  0  0  0  0  0  0  0  0  0  0  0  0  # atno 17370 bound_to 10713
  157.6976  130.9298  150.0689 LP  0  0  0  0  0  0  0  0  0  0  0  0  # atno 17371 bound_to 10713
  140.2460  134.8577  157.3621 LP  0  0  0  0  0  0  0  0  0  0  0  0  # atno 17394 bound_to 11000
  140.1749  134.4563  155.7808 LP  0  0  0  0  0  0  0  0  0  0  0  0  # atno 17395 bound_to 11000

$$$$
