AV-unprocessed.smi:197|AV-procd|sdf|1550|dock1
  -GOLD-   2262019413D 1   1.00000     0.00000
 Structure written by MMmdl.
 54 57  0  0  0  0  0  0  0  0  1 V2000
  145.3265  129.9335  161.8782 C   0  0  0  0  0  0  0  0  0  0  0  0
  146.6893  129.8769  161.4833 O   0  0  0  0  0  0  0  0  0  0  0  0
  147.4098  131.0888  161.6733 C   0  0  0  0  0  0  0  0  0  0  0  0
  146.8668  132.2334  160.7976 C   0  0  0  0  0  0  0  0  0  0  0  0
  147.6077  133.5828  160.9978 C   0  0  2  0  0  0  0  0  0  0  0  0
  147.1213  134.2979  162.2799 C   0  0  0  0  0  0  0  0  0  0  0  0
  147.7937  135.5417  162.4420 O   0  0  0  0  0  0  0  0  0  0  0  0
  147.5354  136.4284  161.3616 C   0  0  0  0  0  0  0  0  0  0  0  0
  148.0592  135.7996  160.0638 C   0  0  0  0  0  0  0  0  0  0  0  0
  147.4494  134.4914  159.8542 N   0  0  0  0  0  0  0  0  0  0  0  0
  147.7975  133.9886  158.6482 C   0  0  0  0  0  0  0  0  0  0  0  0
  149.1183  133.9764  158.3442 N   0  0  0  0  0  0  0  0  0  0  0  0
  149.5237  133.5358  157.1493 C   0  0  0  0  0  0  0  0  0  0  0  0
  148.7879  133.0789  156.1336 N   0  0  0  0  0  0  0  0  0  0  0  0
  147.4593  133.0797  156.4425 C   0  0  0  0  0  0  0  0  0  0  0  0
  146.8816  133.5010  157.6726 C   0  0  0  0  0  0  0  0  0  0  0  0
  145.5018  133.3410  157.6270 N   0  0  0  0  0  0  0  0  0  0  0  0
  145.2749  132.8698  156.4321 C   0  0  0  0  0  0  0  0  0  0  0  0
  146.3928  132.6983  155.6471 N   0  0  0  0  0  0  0  0  0  0  0  0
  146.4299  132.2141  154.2758 C   0  0  0  0  0  0  0  0  0  0  0  0
  146.9223  133.2811  153.2620 C   0  0  2  0  0  0  0  0  0  0  0  0
  148.3280  133.4040  153.4013 O   0  0  0  0  0  0  0  0  0  0  0  0
  146.3121  134.6630  153.4849 C   0  0  0  0  0  0  0  0  0  0  0  0
  146.3190  135.2707  152.0909 C   0  0  0  0  0  0  0  0  0  0  0  0
  145.9589  134.1683  151.2782 O   0  0  0  0  0  0  0  0  0  0  0  0
  146.6187  133.0015  151.7626 C   0  0  2  0  0  0  0  0  0  0  0  0
  145.7198  131.7950  151.4504 C   0  0  0  0  0  0  0  0  0  0  0  0
  144.8703  128.9530  161.7419 H   0  0  0  0  0  0  0  0  0  0  0  0
  144.7546  130.6436  161.2820 H   0  0  0  0  0  0  0  0  0  0  0  0
  145.2303  130.2037  162.9303 H   0  0  0  0  0  0  0  0  0  0  0  0
  147.3941  131.3744  162.7260 H   0  0  0  0  0  0  0  0  0  0  0  0
  148.4550  130.8998  161.4316 H   0  0  0  0  0  0  0  0  0  0  0  0
  146.9122  131.9044  159.7609 H   0  0  0  0  0  0  0  0  0  0  0  0
  145.8045  132.3720  161.0010 H   0  0  0  0  0  0  0  0  0  0  0  0
  148.6721  133.3827  161.1186 H   0  0  0  0  0  0  0  0  0  0  0  0
  146.0427  134.4624  162.2517 H   0  0  0  0  0  0  0  0  0  0  0  0
  147.3263  133.6919  163.1616 H   0  0  0  0  0  0  0  0  0  0  0  0
  146.4670  136.6395  161.2915 H   0  0  0  0  0  0  0  0  0  0  0  0
  148.0383  137.3769  161.5506 H   0  0  0  0  0  0  0  0  0  0  0  0
  147.8369  136.4553  159.2206 H   0  0  0  0  0  0  0  0  0  0  0  0
  149.1441  135.6969  160.1154 H   0  0  0  0  0  0  0  0  0  0  0  0
  150.5900  133.5600  156.9798 H   0  0  0  0  0  0  0  0  0  0  0  0
  144.2771  132.6438  156.0853 H   0  0  0  0  0  0  0  0  0  0  0  0
  147.0711  131.3323  154.2429 H   0  0  0  0  0  0  0  0  0  0  0  0
  145.4253  131.8768  154.0198 H   0  0  0  0  0  0  0  0  0  0  0  0
  148.5923  134.2408  153.0505 H   0  0  0  0  0  0  0  0  0  0  0  0
  145.2780  134.5675  153.8183 H   0  0  0  0  0  0  0  0  0  0  0  0
  146.8436  135.2684  154.2205 H   0  0  0  0  0  0  0  0  0  0  0  0
  145.6154  136.0967  151.9854 H   0  0  0  0  0  0  0  0  0  0  0  0
  147.3146  135.6241  151.8182 H   0  0  0  0  0  0  0  0  0  0  0  0
  147.5480  132.8917  151.2005 H   0  0  0  0  0  0  0  0  0  0  0  0
  146.1786  130.8613  151.7762 H   0  0  0  0  0  0  0  0  0  0  0  0
  145.5462  131.7141  150.3772 H   0  0  0  0  0  0  0  0  0  0  0  0
  144.7457  131.8848  151.9315 H   0  0  0  0  0  0  0  0  0  0  0  0
  1  2  1  0  0  0  0
  1 28  1  0  0  0  0
  1 29  1  0  0  0  0
  1 30  1  0  0  0  0
  2  3  1  0  0  0  0
  3  4  1  0  0  0  0
  3 31  1  0  0  0  0
  3 32  1  0  0  0  0
  4  5  1  0  0  0  0
  4 33  1  0  0  0  0
  4 34  1  0  0  0  0
  5 10  1  0  0  0  0
  5  6  1  0  0  0  0
  5 35  1  0  0  0  0
  6  7  1  0  0  0  0
  6 36  1  0  0  0  0
  6 37  1  0  0  0  0
  7  8  1  0  0  0  0
  8  9  1  0  0  0  0
  8 38  1  0  0  0  0
  8 39  1  0  0  0  0
  9 10  1  0  0  0  0
  9 40  1  0  0  0  0
  9 41  1  0  0  0  0
 10 11  1  0  0  0  0
 11 16  1  0  0  0  0
 11 12  2  0  0  0  0
 12 13  1  0  0  0  0
 13 14  2  0  0  0  0
 13 42  1  0  0  0  0
 14 15  1  0  0  0  0
 15 19  1  0  0  0  0
 15 16  2  0  0  0  0
 16 17  1  0  0  0  0
 17 18  2  0  0  0  0
 18 19  1  0  0  0  0
 18 43  1  0  0  0  0
 19 20  1  0  0  0  0
 20 21  1  0  0  0  0
 20 44  1  0  0  0  0
 20 45  1  0  0  0  0
 21 26  1  0  0  0  0
 21 22  1  0  0  0  0
 21 23  1  0  0  0  0
 22 46  1  0  0  0  0
 23 24  1  0  0  0  0
 23 47  1  0  0  0  0
 23 48  1  0  0  0  0
 24 25  1  0  0  0  0
 24 49  1  0  0  0  0
 24 50  1  0  0  0  0
 25 26  1  0  0  0  0
 26 27  1  0  0  0  0
 26 51  1  0  0  0  0
 27 52  1  0  0  0  0
 27 53  1  0  0  0  0
 27 54  1  0  0  0  0
M  END
> <s_m_source_file>
AV-unprocessed.smi

> <i_m_source_file_index>
197

> <i_lp_mmshare_version>
43012

> <i_f3d_flags>
0

> <s_epik_input>
W0NIM11PW0NIMl1bQ0gyXVtDQEBIXTFbQ0gyXU9bQ0gyXVtDSDJdTjFjKG5bY0hdbjIpYyhjMjMpbltjSF1uM1tDSDJdW0NAQF00KFtPSF0pW0NIMl1bQ0gyXU9bQ0BIXTRbQ0gzXQ==

> <s_epik_cmdline>
J2VwaWtfcHl0aG9uJywgJy1waCcsICc3LjAnLCAnLXRuJywgJzgnLCAnLW1hJywgJzIwMCcsICctbWV0YWxfYmluZGluZycsICctaW1hZScsICc8aW5maWxlLm1hZT4nLCAnLW9tYWUnLCAnPG91dGZpbGUubWFlPic=

> <r_lp_tautomer_probability>
1

> <r_epik_Ionization_Penalty>
0.000106218

> <r_epik_Ionization_Penalty_Charging>
0

> <r_epik_Ionization_Penalty_Neutral>
0.000106218

> <r_epik_State_Penalty>
-0

> <r_epik_Charging_Adjusted_Penalty>
0

> <i_epik_Tot_Q>
0

> <i_epik_Tot_abs_Q>
0

> <r_epik_Metal_State_Penalty>
-0

> <b_epik_Metal_Only>
0

> <s_lp_Force_Field>
OPLS_2005

> <r_lp_Energy>
42.452

> <b_lp_Chiralities_Consistent>
1

> <s_lp_Variant>
AV-unprocessed.smi:197-7

> <Gold.Version>
5.8.1

> <Gold.Id.Protein>
6NUR|6NUR_protein|mol2

> <Gold.PLP.Fitness>
37.6792

> <Gold.PLP.PLP>
-29.8235

> <Gold.PLP.part.hbond>
-2.0000

> <Gold.PLP.part.metal>
0.0000

> <Gold.PLP.part.buried>
-5.0146

> <Gold.PLP.part.nonpolar>
-22.4131

> <Gold.PLP.part.repulsive>
0.1626

> <Gold.PLP.ligand.clash>
0.0000

> <Gold.PLP.ligand.torsion>
0.7619

> <Gold.PLP.Chemscore.Hbond>
2.0000

> <Gold.PLP.Chemscore.CHOScore>
1.0000

> <Gold.PLP.Chemscore.Metal>
0.0000

> <Gold.Chemscore.Hbonds>
donor molecule, donor type, donor heavy atom, donor atom, acceptor molecule, acceptor atom, score
      L1  H    22    46       P1  7948  0.26
      P1  H  6896  6908       L1    12  1.00
      L1  C    18    43       P1 10957  1.00

> <Gold.PLP.Chemscore.Internal.Correction>
0.3795

> <Gold.Rescore>
     Score         DG    S(hbond)    S(metal)    S(lipo)     H(rot)  DE(clash)    DE(int)     intcor
     10.40     -11.38       1.51        0.00      69.44       2.84       0.02       0.96       ----

> <Gold.Chemscore.Fitness>
10.4047

> <Gold.Chemscore.DG>
-11.3780

> <Gold.Chemscore.ZeroCoef>
-5.4800

> <Gold.Chemscore.Hbond>
1.5069

> <Gold.Chemscore.Metal>
0.0000

> <Gold.Chemscore.Lipo>
69.4386

> <Gold.Chemscore.Internal_Hbond>
0.0000

> <Gold.Chemscore.DEClash>
0.0174

> <Gold.Chemscore.DEInternal>
0.9559

> <Gold.Chemscore.Rot>
2.8358

> <Gold.Chemscore.Internal.Correction>
   9.000000E+99

> <Gold.Chemscore.Hbonds>
donor molecule, donor type, donor heavy atom, donor atom, acceptor molecule, acceptor atom, score
      L1  H    22    46       P1  7948  0.04
      P1  H  6896  6908       L1    12  0.50

> <Gold.Chemscore.Hbond.Weighted>
-5.0332

> <Gold.Chemscore.Metal.Weighted>
-0.0000

> <Gold.Chemscore.Lipo.Weighted>
-8.1243

> <Gold.Chemscore.Internal_Hbond.Weighted>
0.0000

> <Gold.Chemscore.DEClash.Weighted>
0.0174

> <Gold.Chemscore.DEInternal.Weighted>
0.9559

> <Gold.Chemscore.Rot.Weighted>
7.2596

> <Gold.Chemscore.Internal.Correction.Weighted>
   9.000000E+99

> <Gold.Protein.RotatedTorsions>
[ 6907 6896 6895 6894 ] final  138.05 input  -60.11 | X-H torsion
[ 7974 7965 7964 7962 ] final  110.54 input  175.53 | X-H torsion
[ 8008 7997 7996 7995 ] final  -26.84 input   59.86 | X-H torsion
[ 10167 10162 10161 10158 ] final  123.47 input  -65.29 | X-H torsion
[ 10718 10713 10712 10709 ] final -142.52 input   66.30 | X-H torsion
[ 10763 10752 10751 10750 ] final  165.77 input  -60.55 | X-H torsion
[ 11005 11000 10999 10996 ] final  -52.35 input  -57.11 | X-H torsion

> <Gold.Protein.ActiveResidues>
 VAL166  LYS551  ARG553  GLY616  TRP617  ASP618  TYR619  PRO620  LYS621  CYS622 
 ASP623  PHE694  ASN695  SER759  ASP760  ASP761  ALA762  ILE779  LEU786  VAL792 
 PHE793  MET794  SER795  GLU796  ALA797  LYS798  CYS799  TRP800  GLU811  SER814 

> <Gold.Protein.RotatedAtoms>
  152.2710  133.5383  159.5439 H   0  0  0  0  0  0  0  0  0  0  0  0  # atno 6907 bound_to 6896
  150.7159  134.0697  159.3869 H   0  0  0  0  0  0  0  0  0  0  0  0  # atno 6908 bound_to 6896
  151.8612  135.0523  160.0520 H   0  0  0  0  0  0  0  0  0  0  0  0  # atno 6909 bound_to 6896
  145.2537  139.2729  143.4054 H   0  0  0  0  0  0  0  0  0  0  0  0  # atno 7974 bound_to 7965
  154.4405  140.1888  156.0839 H   0  0  0  0  0  0  0  0  0  0  0  0  # atno 8008 bound_to 7997
  156.0418  140.3319  155.7225 H   0  0  0  0  0  0  0  0  0  0  0  0  # atno 8009 bound_to 7997
  155.5689  140.0610  157.2802 H   0  0  0  0  0  0  0  0  0  0  0  0  # atno 8010 bound_to 7997
  139.5797  144.6980  151.3560 H   0  0  0  0  0  0  0  0  0  0  0  0  # atno 10167 bound_to 10162
  156.3469  130.7667  151.1813 H   0  0  0  0  0  0  0  0  0  0  0  0  # atno 10718 bound_to 10713
  154.3290  135.2755  155.2481 H   0  0  0  0  0  0  0  0  0  0  0  0  # atno 10763 bound_to 10752
  154.4801  135.5860  153.6387 H   0  0  0  0  0  0  0  0  0  0  0  0  # atno 10764 bound_to 10752
  152.9868  135.6109  154.3481 H   0  0  0  0  0  0  0  0  0  0  0  0  # atno 10765 bound_to 10752
  141.0920  133.6631  156.4012 H   0  0  0  0  0  0  0  0  0  0  0  0  # atno 11005 bound_to 11000
  146.3295  140.2935  142.8616 LP  0  0  0  0  0  0  0  0  0  0  0  0  # atno 17320 bound_to 7965
  144.9480  140.8148  143.5589 LP  0  0  0  0  0  0  0  0  0  0  0  0  # atno 17321 bound_to 7965
  140.7077  143.7472  150.7510 LP  0  0  0  0  0  0  0  0  0  0  0  0  # atno 17342 bound_to 10162
  140.1001  143.4795  152.2430 LP  0  0  0  0  0  0  0  0  0  0  0  0  # atno 17343 bound_to 10162
  157.7455  131.0438  150.4764 LP  0  0  0  0  0  0  0  0  0  0  0  0  # atno 17370 bound_to 10713
  156.4953  130.4104  149.6383 LP  0  0  0  0  0  0  0  0  0  0  0  0  # atno 17371 bound_to 10713
  140.5230  134.6286  157.5324 LP  0  0  0  0  0  0  0  0  0  0  0  0  # atno 17394 bound_to 11000
  139.9748  134.7234  155.9972 LP  0  0  0  0  0  0  0  0  0  0  0  0  # atno 17395 bound_to 11000

$$$$
