AV-unprocessed.smi:3330|AV-procd|sdf|12815|dock10
  -GOLD-   2272019183D 1   1.00000     0.00000
 Structure written by MMmdl.
 37 38  0  0  0  0  0  0  0  0  2 V2000
  152.2811  138.8987  159.4436 C   0  0  0  0  0  0  0  0  0  0  0  0
  151.6129  140.2540  159.1477 C   0  0  2  0  0  0  0  0  0  0  0  0
  151.6967  140.4604  157.7060 N   0  0  0  0  0  0  0  0  0  0  0  0
  150.4083  140.8392  157.1477 C   0  0  0  0  0  0  0  0  0  0  0  0
  150.3592  140.4630  155.6600 C   0  0  0  0  0  0  0  0  0  0  0  0
  150.4552  139.0112  155.4862 N   0  0  0  0  0  0  0  0  0  0  0  0
  149.4018  138.1901  155.4367 C   0  0  0  0  0  0  0  0  0  0  0  0
  148.2084  138.4848  155.5081 O   0  0  0  0  0  0  0  0  0  0  0  0
  149.9291  136.7821  155.2868 C   0  0  0  0  0  0  0  0  0  0  0  0
  151.3598  136.9877  155.2775 N   0  5  0  0  0  0  0  0  0  0  0  0
  151.6039  138.3133  155.4025 C   0  0  0  0  0  0  0  0  0  0  0  0
  152.7072  138.8569  155.4459 O   0  0  0  0  0  0  0  0  0  0  0  0
  152.2785  141.4464  159.8868 C   0  0  1  0  0  0  0  0  0  0  0  0
  153.8069  141.3068  160.0096 C   0  0  0  0  0  0  0  0  0  0  0  0
  151.9563  142.7178  159.2512 N   0  0  0  0  0  0  0  0  0  0  0  0
  152.8146  143.6471  158.6976 C   0  0  0  0  0  0  0  0  0  0  0  0
  152.0529  144.6775  158.2262 C   0  0  0  0  0  0  0  0  0  0  0  0
  150.7226  144.2856  158.5429 C   0  0  0  0  0  0  0  0  0  0  0  0
  150.6679  143.1151  159.1571 N   0  0  0  0  0  0  0  0  0  0  0  0
  152.1865  138.6220  160.4935 H   0  0  0  0  0  0  0  0  0  0  0  0
  153.3439  138.9180  159.1999 H   0  0  0  0  0  0  0  0  0  0  0  0
  151.8210  138.0991  158.8616 H   0  0  0  0  0  0  0  0  0  0  0  0
  150.5696  140.1774  159.4588 H   0  0  0  0  0  0  0  0  0  0  0  0
  152.3815  141.1751  157.5047 H   0  0  0  0  0  0  0  0  0  0  0  0
  149.6110  140.3331  157.6936 H   0  0  0  0  0  0  0  0  0  0  0  0
  150.2529  141.9122  157.2636 H   0  0  0  0  0  0  0  0  0  0  0  0
  149.4335  140.8281  155.2113 H   0  0  0  0  0  0  0  0  0  0  0  0
  151.1663  140.9598  155.1185 H   0  0  0  0  0  0  0  0  0  0  0  0
  149.5873  136.1679  156.1205 H   0  0  0  0  0  0  0  0  0  0  0  0
  149.5510  136.3397  154.3647 H   0  0  0  0  0  0  0  0  0  0  0  0
  151.8731  141.4809  160.9004 H   0  0  0  0  0  0  0  0  0  0  0  0
  154.0822  140.4374  160.6066 H   0  0  0  0  0  0  0  0  0  0  0  0
  154.2411  142.1800  160.4972 H   0  0  0  0  0  0  0  0  0  0  0  0
  154.2787  141.2022  159.0321 H   0  0  0  0  0  0  0  0  0  0  0  0
  153.8843  143.4974  158.6842 H   0  0  0  0  0  0  0  0  0  0  0  0
  152.3933  145.5748  157.7311 H   0  0  0  0  0  0  0  0  0  0  0  0
  149.8011  144.8135  158.3469 H   0  0  0  0  0  0  0  0  0  0  0  0
  1  2  1  0  0  0  0
  1 20  1  0  0  0  0
  1 21  1  0  0  0  0
  1 22  1  0  0  0  0
  2  3  1  0  0  0  0
  2 13  1  0  0  0  0
  2 23  1  0  0  0  0
  3  4  1  0  0  0  0
  3 24  1  0  0  0  0
  4  5  1  0  0  0  0
  4 25  1  0  0  0  0
  4 26  1  0  0  0  0
  5  6  1  0  0  0  0
  5 27  1  0  0  0  0
  5 28  1  0  0  0  0
  6 11  1  0  0  0  0
  6  7  1  0  0  0  0
  7  8  2  0  0  0  0
  7  9  1  0  0  0  0
  9 10  1  0  0  0  0
  9 29  1  0  0  0  0
  9 30  1  0  0  0  0
 10 11  1  0  0  0  0
 11 12  2  0  0  0  0
 13 14  1  0  0  0  0
 13 15  1  0  0  0  0
 13 31  1  0  0  0  0
 14 32  1  0  0  0  0
 14 33  1  0  0  0  0
 14 34  1  0  0  0  0
 15 19  1  0  0  0  0
 15 16  1  0  0  0  0
 16 17  2  0  0  0  0
 16 35  1  0  0  0  0
 17 18  1  0  0  0  0
 17 36  1  0  0  0  0
 18 19  2  0  0  0  0
 18 37  1  0  0  0  0
M  CHG  1  10  -1
M  END
> <s_m_source_file>
AV-unprocessed.smi

> <i_m_source_file_index>
3330

> <i_lp_mmshare_version>
43012

> <i_f3d_flags>
0

> <s_epik_input>
bjFbY0hdW2NIXVtjSF1uMVtDQEBIXShbQ0gzXSlbQ0BIXShbQ0gzXSlbTkhdW0NIMl1bQ0gyXU4yQyg9TylbQ0gyXVtOSF1DMj1P

> <s_epik_cmdline>
J2VwaWtfcHl0aG9uJywgJy1waCcsICc3LjAnLCAnLXRuJywgJzgnLCAnLW1hJywgJzIwMCcsICctbWV0YWxfYmluZGluZycsICctaW1hZScsICc8aW5maWxlLm1hZT4nLCAnLW9tYWUnLCAnPG91dGZpbGUubWFlPic=

> <r_lp_tautomer_probability>
1

> <r_epik_Ionization_Penalty>
8.77477

> <r_epik_Ionization_Penalty_Charging>
6.28461

> <r_epik_Ionization_Penalty_Neutral>
2.49016

> <r_epik_State_Penalty>
8.73376

> <r_epik_Charging_Adjusted_Penalty>
15.0184

> <i_epik_Tot_Q>
-1

> <i_epik_Tot_abs_Q>
1

> <r_epik_Metal_State_Penalty>
4.73175

> <b_epik_Metal_Only>
1

> <s_lp_Force_Field>
OPLS_2005

> <r_lp_Energy>
21.2445

> <b_lp_Chiralities_Consistent>
1

> <s_lp_Variant>
AV-unprocessed.smi:3330-15

> <Gold.Version>
5.8.1

> <Gold.Id.Protein>
6NUR|6NUR_protein|mol2

> <Gold.PLP.Fitness>
49.4464

> <Gold.PLP.PLP>
-41.4760

> <Gold.PLP.part.hbond>
-2.0000

> <Gold.PLP.part.metal>
0.0000

> <Gold.PLP.part.buried>
-4.7747

> <Gold.PLP.part.nonpolar>
-36.0292

> <Gold.PLP.part.repulsive>
0.2707

> <Gold.PLP.ligand.clash>
0.0000

> <Gold.PLP.ligand.torsion>
1.6571

> <Gold.PLP.Chemscore.Hbond>
2.6640

> <Gold.PLP.Chemscore.CHOScore>
1.0540

> <Gold.PLP.Chemscore.Metal>
0.0000

> <Gold.Chemscore.Hbonds>
donor molecule, donor type, donor heavy atom, donor atom, acceptor molecule, acceptor atom, score
      P1  H  7997  8010       L1    12  0.55
      P1  H 10752 10763       L1    10  1.07
      L1  C    18    37       P1  8028  0.06
      L1  C    18    37       P1  8029  1.00

> <Gold.PLP.Chemscore.Internal.Correction>
0.1304

> <Gold.Rescore>
     Score         DG    S(hbond)    S(metal)    S(lipo)     H(rot)  DE(clash)    DE(int)     intcor
     13.52     -15.58       1.90        0.00      87.24       2.52       0.05       2.01       ----

> <Gold.Chemscore.Fitness>
13.5187

> <Gold.Chemscore.DG>
-15.5788

> <Gold.Chemscore.ZeroCoef>
-5.4800

> <Gold.Chemscore.Hbond>
1.8961

> <Gold.Chemscore.Metal>
0.0000

> <Gold.Chemscore.Lipo>
87.2392

> <Gold.Chemscore.Internal_Hbond>
0.0000

> <Gold.Chemscore.DEClash>
0.0530

> <Gold.Chemscore.DEInternal>
2.0071

> <Gold.Chemscore.Rot>
2.5160

> <Gold.Chemscore.Internal.Correction>
   9.000000E+99

> <Gold.Chemscore.Hbonds>
donor molecule, donor type, donor heavy atom, donor atom, acceptor molecule, acceptor atom, score
      P1  H  7997  8010       L1    12  0.56
      P1  H 10752 10763       L1    10  0.53

> <Gold.Chemscore.Hbond.Weighted>
-6.3328

> <Gold.Chemscore.Metal.Weighted>
-0.0000

> <Gold.Chemscore.Lipo.Weighted>
-10.2070

> <Gold.Chemscore.Internal_Hbond.Weighted>
0.0000

> <Gold.Chemscore.DEClash.Weighted>
0.0530

> <Gold.Chemscore.DEInternal.Weighted>
2.0071

> <Gold.Chemscore.Rot.Weighted>
6.4410

> <Gold.Chemscore.Internal.Correction.Weighted>
   9.000000E+99

> <Gold.Protein.RotatedTorsions>
[ 6907 6896 6895 6894 ] final   67.81 input  -60.11 | X-H torsion
[ 7974 7965 7964 7962 ] final   46.14 input  175.53 | X-H torsion
[ 8008 7997 7996 7995 ] final   94.60 input   59.86 | X-H torsion
[ 10167 10162 10161 10158 ] final   32.86 input  -65.29 | X-H torsion
[ 10718 10713 10712 10709 ] final -175.40 input   66.30 | X-H torsion
[ 10763 10752 10751 10750 ] final   55.58 input  -60.55 | X-H torsion
[ 11005 11000 10999 10996 ] final  -47.08 input  -57.11 | X-H torsion

> <Gold.Protein.ActiveResidues>
 VAL166  LYS551  ARG553  GLY616  TRP617  ASP618  TYR619  PRO620  LYS621  CYS622 
 ASP623  PHE694  ASN695  SER759  ASP760  ASP761  ALA762  ILE779  LEU786  VAL792 
 PHE793  MET794  SER795  GLU796  ALA797  LYS798  CYS799  TRP800  GLU811  SER814 

> <Gold.Protein.RotatedAtoms>
  152.4578  134.5253  159.9794 H   0  0  0  0  0  0  0  0  0  0  0  0  # atno 6907 bound_to 6896
  151.5310  133.3443  159.2926 H   0  0  0  0  0  0  0  0  0  0  0  0  # atno 6908 bound_to 6896
  150.8528  134.7889  159.7085 H   0  0  0  0  0  0  0  0  0  0  0  0  # atno 6909 bound_to 6896
  146.0417  139.4888  142.9774 H   0  0  0  0  0  0  0  0  0  0  0  0  # atno 7974 bound_to 7965
  156.0597  140.3297  155.7447 H   0  0  0  0  0  0  0  0  0  0  0  0  # atno 8008 bound_to 7997
  155.5473  140.0607  157.2875 H   0  0  0  0  0  0  0  0  0  0  0  0  # atno 8009 bound_to 7997
  154.4475  140.1900  156.0640 H   0  0  0  0  0  0  0  0  0  0  0  0  # atno 8010 bound_to 7997
  140.4460  144.1118  150.6182 H   0  0  0  0  0  0  0  0  0  0  0  0  # atno 10167 bound_to 10162
  156.7993  130.9546  151.3119 H   0  0  0  0  0  0  0  0  0  0  0  0  # atno 10718 bound_to 10713
  152.9819  135.5706  154.5090 H   0  0  0  0  0  0  0  0  0  0  0  0  # atno 10763 bound_to 10752
  154.4597  135.2781  155.1724 H   0  0  0  0  0  0  0  0  0  0  0  0  # atno 10764 bound_to 10752
  154.3317  135.6248  153.5608 H   0  0  0  0  0  0  0  0  0  0  0  0  # atno 10765 bound_to 10752
  141.0619  133.6706  156.3247 H   0  0  0  0  0  0  0  0  0  0  0  0  # atno 11005 bound_to 11000
  145.6874  141.0174  143.1574 LP  0  0  0  0  0  0  0  0  0  0  0  0  # atno 17320 bound_to 7965
  144.7077  139.8492  143.7424 LP  0  0  0  0  0  0  0  0  0  0  0  0  # atno 17321 bound_to 7965
  140.4263  143.2588  151.9652 LP  0  0  0  0  0  0  0  0  0  0  0  0  # atno 17342 bound_to 10162
  139.4793  144.5785  151.7972 LP  0  0  0  0  0  0  0  0  0  0  0  0  # atno 17343 bound_to 10162
  157.6562  130.8926  149.9733 LP  0  0  0  0  0  0  0  0  0  0  0  0  # atno 17370 bound_to 10713
  156.1111  130.3650  150.0048 LP  0  0  0  0  0  0  0  0  0  0  0  0  # atno 17371 bound_to 10713
  140.5852  134.5706  157.5488 LP  0  0  0  0  0  0  0  0  0  0  0  0  # atno 17394 bound_to 11000
  139.9440  134.7735  156.0607 LP  0  0  0  0  0  0  0  0  0  0  0  0  # atno 17395 bound_to 11000

$$$$
