AV-unprocessed.smi:1872|AV-procd|sdf|7605|dock1
  -GOLD-   22720 9323D 1   1.00000     0.00000
 Structure written by MMmdl.
 40 42  0  0  0  0  0  0  0  0  2 V2000
  149.7648  141.0238  155.4833 C   0  0  0  0  0  0  0  0  0  0  0  0
  150.4960  141.7437  156.5662 C   0  0  0  0  0  0  0  0  0  0  0  0
  150.3873  143.0688  156.8645 N   0  3  0  0  0  0  0  0  0  0  0  0
  151.2246  143.3816  157.9362 C   0  0  0  0  0  0  0  0  0  0  0  0
  151.4550  144.5888  158.5890 C   0  0  0  0  0  0  0  0  0  0  0  0
  152.3775  144.5656  159.6553 C   0  0  0  0  0  0  0  0  0  0  0  0
  153.0286  143.3744  160.0368 C   0  0  0  0  0  0  0  0  0  0  0  0
  152.7867  142.1568  159.3675 C   0  0  0  0  0  0  0  0  0  0  0  0
  151.8753  142.1880  158.3118 C   0  0  0  0  0  0  0  0  0  0  0  0
  151.3951  141.2046  157.4377 N   0  0  0  0  0  0  0  0  0  0  0  0
  151.8798  139.8200  157.5548 C   0  0  0  0  0  0  0  0  0  0  0  0
  151.0093  138.9553  158.4882 C   0  0  2  0  0  0  0  0  0  0  0  0
  151.8147  138.3400  159.4750 O   0  0  0  0  0  0  0  0  0  0  0  0
  150.1947  137.9439  157.6977 C   0  0  0  0  0  0  0  0  0  0  0  0
  150.3520  137.8502  156.2993 C   0  0  0  0  0  0  0  0  0  0  0  0
  149.6093  136.9076  155.5630 C   0  0  0  0  0  0  0  0  0  0  0  0
  148.6961  136.0501  156.2088 C   0  0  0  0  0  0  0  0  0  0  0  0
  148.0108  135.1403  155.4361 O   0  0  0  0  0  0  0  0  0  0  0  0
  148.7070  134.2708  154.6564 C   0  0  0  0  0  0  0  0  0  0  0  0
  149.3308  133.3554  155.4365 F   0  0  0  0  0  0  0  0  0  0  0  0
  147.8682  133.6000  153.8293 F   0  0  0  0  0  0  0  0  0  0  0  0
  148.5496  136.1357  157.6142 C   0  0  0  0  0  0  0  0  0  0  0  0
  149.2926  137.0775  158.3515 C   0  0  0  0  0  0  0  0  0  0  0  0
  149.1107  141.7076  154.9420 H   0  0  0  0  0  0  0  0  0  0  0  0
  149.1570  140.2236  155.9058 H   0  0  0  0  0  0  0  0  0  0  0  0
  150.4723  140.5886  154.7773 H   0  0  0  0  0  0  0  0  0  0  0  0
  150.9560  145.5021  158.2994 H   0  0  0  0  0  0  0  0  0  0  0  0
  152.5887  145.4790  160.1924 H   0  0  0  0  0  0  0  0  0  0  0  0
  153.7273  143.3941  160.8605 H   0  0  0  0  0  0  0  0  0  0  0  0
  153.2872  141.2503  159.6734 H   0  0  0  0  0  0  0  0  0  0  0  0
  151.8778  139.3944  156.5506 H   0  0  0  0  0  0  0  0  0  0  0  0
  152.9216  139.8272  157.8754 H   0  0  0  0  0  0  0  0  0  0  0  0
  150.3152  139.6070  159.0204 H   0  0  0  0  0  0  0  0  0  0  0  0
  151.9468  138.9566  160.1792 H   0  0  0  0  0  0  0  0  0  0  0  0
  151.0457  138.4989  155.7845 H   0  0  0  0  0  0  0  0  0  0  0  0
  149.7399  136.8433  154.4925 H   0  0  0  0  0  0  0  0  0  0  0  0
  149.4692  134.7797  154.0659 H   0  0  0  0  0  0  0  0  0  0  0  0
  147.8746  135.4784  158.1417 H   0  0  0  0  0  0  0  0  0  0  0  0
  149.1709  137.1277  159.4237 H   0  0  0  0  0  0  0  0  0  0  0  0
  149.7829  143.7117  156.3690 H   0  0  0  0  0  0  0  0  0  0  0  0
  1  2  1  0  0  0  0
  1 24  1  0  0  0  0
  1 25  1  0  0  0  0
  1 26  1  0  0  0  0
  2 10  1  0  0  0  0
  2  3  2  0  0  0  0
  3  4  1  0  0  0  0
  3 40  1  0  0  0  0
  4  9  2  0  0  0  0
  4  5  1  0  0  0  0
  5  6  2  0  0  0  0
  5 27  1  0  0  0  0
  6  7  1  0  0  0  0
  6 28  1  0  0  0  0
  7  8  2  0  0  0  0
  7 29  1  0  0  0  0
  8  9  1  0  0  0  0
  8 30  1  0  0  0  0
  9 10  1  0  0  0  0
 10 11  1  0  0  0  0
 11 12  1  0  0  0  0
 11 31  1  0  0  0  0
 11 32  1  0  0  0  0
 12 13  1  0  0  0  0
 12 14  1  0  0  0  0
 12 33  1  0  0  0  0
 13 34  1  0  0  0  0
 14 23  1  0  0  0  0
 14 15  2  0  0  0  0
 15 16  1  0  0  0  0
 15 35  1  0  0  0  0
 16 17  2  0  0  0  0
 16 36  1  0  0  0  0
 17 18  1  0  0  0  0
 17 22  1  0  0  0  0
 18 19  1  0  0  0  0
 19 20  1  0  0  0  0
 19 21  1  0  0  0  0
 19 37  1  0  0  0  0
 22 23  2  0  0  0  0
 22 38  1  0  0  0  0
 23 39  1  0  0  0  0
M  CHG  1   3   1
M  END
> <s_m_source_file>
AV-unprocessed.smi

> <i_m_source_file_index>
1872

> <i_lp_mmshare_version>
43012

> <i_f3d_flags>
0

> <s_epik_input>
W2NIXTFbY0hdW2NIXVtjSF1jKGMxMiluKGMobjIpW0NIM10pW0NIMl1bQ0BIXShbT0hdKWMzW2NIXVtjSF1jKE9bQ0hdKEYpRilbY0hdW2NIXTM=

> <s_epik_cmdline>
J2VwaWtfcHl0aG9uJywgJy1waCcsICc3LjAnLCAnLXRuJywgJzgnLCAnLW1hJywgJzIwMCcsICctbWV0YWxfYmluZGluZycsICctaW1hZScsICc8aW5maWxlLm1hZT4nLCAnLW9tYWUnLCAnPG91dGZpbGUubWFlPic=

> <r_lp_tautomer_probability>
1

> <r_epik_Ionization_Penalty>
0.963868

> <r_epik_Ionization_Penalty_Charging>
0.963868

> <r_epik_Ionization_Penalty_Neutral>
2.50501e-07

> <r_epik_State_Penalty>
1.00924

> <r_epik_Charging_Adjusted_Penalty>
1.9731

> <i_epik_Tot_Q>
1

> <i_epik_Tot_abs_Q>
1

> <r_epik_Metal_State_Penalty>
4.98304

> <b_epik_Metal_Only>
0

> <s_lp_Force_Field>
OPLS_2005

> <r_lp_Energy>
14.3509

> <b_lp_Chiralities_Consistent>
1

> <s_lp_Variant>
AV-unprocessed.smi:1872-3

> <Gold.Version>
5.8.1

> <Gold.Id.Protein>
6NUR|6NUR_protein|mol2

> <Gold.PLP.Fitness>
48.1682

> <Gold.PLP.PLP>
-44.2941

> <Gold.PLP.part.hbond>
-1.0000

> <Gold.PLP.part.metal>
0.0000

> <Gold.PLP.part.buried>
-6.3150

> <Gold.PLP.part.nonpolar>
-37.3555

> <Gold.PLP.part.repulsive>
0.1475

> <Gold.PLP.ligand.clash>
0.0000

> <Gold.PLP.ligand.torsion>
1.1490

> <Gold.PLP.Chemscore.Hbond>
2.0000

> <Gold.PLP.Chemscore.CHOScore>
0.0000

> <Gold.PLP.Chemscore.Metal>
0.0000

> <Gold.Chemscore.Hbonds>
donor molecule, donor type, donor heavy atom, donor atom, acceptor molecule, acceptor atom, score
      L1  H     3    40       P1  8028  1.95

> <Gold.PLP.Chemscore.Internal.Correction>
0.1719

> <Gold.Rescore>
     Score         DG    S(hbond)    S(metal)    S(lipo)     H(rot)  DE(clash)    DE(int)     intcor
     14.69     -15.95       1.00        0.00     111.69       2.32       0.07       1.19       ----

> <Gold.Chemscore.Fitness>
14.6900

> <Gold.Chemscore.DG>
-15.9488

> <Gold.Chemscore.ZeroCoef>
-5.4800

> <Gold.Chemscore.Hbond>
0.9999

> <Gold.Chemscore.Metal>
0.0000

> <Gold.Chemscore.Lipo>
111.6860

> <Gold.Chemscore.Internal_Hbond>
0.0000

> <Gold.Chemscore.DEClash>
0.0692

> <Gold.Chemscore.DEInternal>
1.1896

> <Gold.Chemscore.Rot>
2.3195

> <Gold.Chemscore.Internal.Correction>
   9.000000E+99

> <Gold.Chemscore.Hbonds>
donor molecule, donor type, donor heavy atom, donor atom, acceptor molecule, acceptor atom, score
      L1  H     3    40       P1  8028  0.91

> <Gold.Chemscore.Hbond.Weighted>
-3.3395

> <Gold.Chemscore.Metal.Weighted>
-0.0000

> <Gold.Chemscore.Lipo.Weighted>
-13.0673

> <Gold.Chemscore.Internal_Hbond.Weighted>
0.0000

> <Gold.Chemscore.DEClash.Weighted>
0.0692

> <Gold.Chemscore.DEInternal.Weighted>
1.1896

> <Gold.Chemscore.Rot.Weighted>
5.9379

> <Gold.Chemscore.Internal.Correction.Weighted>
   9.000000E+99

> <Gold.Protein.RotatedTorsions>
[ 6907 6896 6895 6894 ] final  131.72 input  -60.11 | X-H torsion
[ 7974 7965 7964 7962 ] final  167.99 input  175.53 | X-H torsion
[ 8008 7997 7996 7995 ] final   17.28 input   59.86 | X-H torsion
[ 10167 10162 10161 10158 ] final  -79.85 input  -65.29 | X-H torsion
[ 10718 10713 10712 10709 ] final  127.44 input   66.30 | X-H torsion
[ 10763 10752 10751 10750 ] final  106.16 input  -60.55 | X-H torsion
[ 11005 11000 10999 10996 ] final -152.24 input  -57.11 | X-H torsion

> <Gold.Protein.ActiveResidues>
 VAL166  LYS551  ARG553  GLY616  TRP617  ASP618  TYR619  PRO620  LYS621  CYS622 
 ASP623  PHE694  ASN695  SER759  ASP760  ASP761  ALA762  ILE779  LEU786  VAL792 
 PHE793  MET794  SER795  GLU796  ALA797  LYS798  CYS799  TRP800  GLU811  SER814 

> <Gold.Protein.RotatedAtoms>
  152.3397  133.6053  159.5867 H   0  0  0  0  0  0  0  0  0  0  0  0  # atno 6907 bound_to 6896
  150.7471  133.9741  159.3564 H   0  0  0  0  0  0  0  0  0  0  0  0  # atno 6908 bound_to 6896
  151.7606  135.0811  160.0396 H   0  0  0  0  0  0  0  0  0  0  0  0  # atno 6909 bound_to 6896
  144.7404  139.8841  143.6398 H   0  0  0  0  0  0  0  0  0  0  0  0  # atno 7974 bound_to 7965
  154.8891  140.2984  155.5381 H   0  0  0  0  0  0  0  0  0  0  0  0  # atno 8008 bound_to 7997
  156.3021  140.2428  156.3838 H   0  0  0  0  0  0  0  0  0  0  0  0  # atno 8009 bound_to 7997
  154.8637  140.0404  157.1670 H   0  0  0  0  0  0  0  0  0  0  0  0  # atno 8010 bound_to 7997
  140.4556  143.2469  151.8425 H   0  0  0  0  0  0  0  0  0  0  0  0  # atno 10167 bound_to 10162
  157.5332  131.1098  150.8976 H   0  0  0  0  0  0  0  0  0  0  0  0  # atno 10718 bound_to 10713
  153.3891  135.3886  155.1911 H   0  0  0  0  0  0  0  0  0  0  0  0  # atno 10763 bound_to 10752
  154.8717  135.3744  154.4760 H   0  0  0  0  0  0  0  0  0  0  0  0  # atno 10764 bound_to 10752
  153.5245  135.7086  153.5776 H   0  0  0  0  0  0  0  0  0  0  0  0  # atno 10765 bound_to 10752
  140.7210  134.3728  157.5183 H   0  0  0  0  0  0  0  0  0  0  0  0  # atno 11005 bound_to 11000
  146.1190  139.4205  143.0240 LP  0  0  0  0  0  0  0  0  0  0  0  0  # atno 17320 bound_to 7965
  145.7333  141.0034  143.1340 LP  0  0  0  0  0  0  0  0  0  0  0  0  # atno 17321 bound_to 7965
  139.4801  144.5069  151.8986 LP  0  0  0  0  0  0  0  0  0  0  0  0  # atno 17342 bound_to 10162
  140.4155  144.2313  150.5888 LP  0  0  0  0  0  0  0  0  0  0  0  0  # atno 17343 bound_to 10162
  156.9550  130.5434  149.5284 LP  0  0  0  0  0  0  0  0  0  0  0  0  # atno 17370 bound_to 10713
  156.0439  130.5518  150.8835 LP  0  0  0  0  0  0  0  0  0  0  0  0  # atno 17371 bound_to 10713
  139.8848  134.8954  156.2680 LP  0  0  0  0  0  0  0  0  0  0  0  0  # atno 17394 bound_to 11000
  141.0004  133.7155  156.0951 LP  0  0  0  0  0  0  0  0  0  0  0  0  # atno 17395 bound_to 11000

$$$$
