AV-unprocessed.smi:1980|AV-procd|sdf|8017|dock6
  -GOLD-   2272010213D 1   1.00000     0.00000
 Structure written by MMmdl.
 44 45  0  0  0  0  0  0  0  0  1 V2000
  148.6465  135.2164  155.0220 C   0  0  0  0  0  0  0  0  0  0  0  0
  147.1915  135.6390  154.7681 C   0  0  2  0  0  0  0  0  0  0  0  0
  146.8029  135.1074  153.5038 O   0  0  0  0  0  0  0  0  0  0  0  0
  145.4043  135.1199  153.2344 C   0  0  0  0  0  0  0  0  0  0  0  0
  145.1652  134.7562  151.7642 C   0  0  0  0  0  0  0  0  0  0  0  0
  145.6250  135.7381  150.9899 F   0  0  0  0  0  0  0  0  0  0  0  0
  145.8101  133.6313  151.4567 F   0  0  0  0  0  0  0  0  0  0  0  0
  143.8615  134.6037  151.5330 F   0  0  0  0  0  0  0  0  0  0  0  0
  147.0399  137.1691  154.7785 C   0  0  0  0  0  0  0  0  0  0  0  0
  146.2774  137.7128  155.5777 O   0  0  0  0  0  0  0  0  0  0  0  0
  147.7839  137.8466  153.8901 N   0  0  0  0  0  0  0  0  0  0  0  0
  147.7981  139.2955  153.7216 C   0  0  0  0  0  0  0  0  0  0  0  0
  148.6998  139.9915  154.7253 C   0  0  0  0  0  0  0  0  0  0  0  0
  148.1871  140.4731  155.9453 C   0  0  0  0  0  0  0  0  0  0  0  0
  149.0588  141.1105  156.8485 C   0  0  0  0  0  0  0  0  0  0  0  0
  150.4250  141.2553  156.5062 C   0  0  0  0  0  0  0  0  0  0  0  0
  151.3179  141.8943  157.3950 N   0  0  0  0  0  0  0  0  0  0  0  0
  151.1649  143.3331  157.6048 C   0  0  0  0  0  0  0  0  0  0  0  0
  152.3816  143.8988  158.3568 C   0  0  0  0  0  0  0  0  0  0  0  0
  152.5702  143.1828  159.5727 O   0  0  0  0  0  0  0  0  0  0  0  0
  152.8302  141.8031  159.3381 C   0  0  0  0  0  0  0  0  0  0  0  0
  151.6304  141.1616  158.6200 C   0  0  0  0  0  0  0  0  0  0  0  0
  150.9139  140.7839  155.3320 N   0  0  0  0  0  0  0  0  0  0  0  0
  150.0740  140.1736  154.4695 C   0  0  0  0  0  0  0  0  0  0  0  0
  149.0154  135.6115  155.9694 H   0  0  0  0  0  0  0  0  0  0  0  0
  149.3106  135.5669  154.2308 H   0  0  0  0  0  0  0  0  0  0  0  0
  148.7314  134.1303  155.0633 H   0  0  0  0  0  0  0  0  0  0  0  0
  146.5696  135.2022  155.5520 H   0  0  0  0  0  0  0  0  0  0  0  0
  144.8941  134.4020  153.8783 H   0  0  0  0  0  0  0  0  0  0  0  0
  144.9764  136.1021  153.4381 H   0  0  0  0  0  0  0  0  0  0  0  0
  148.3846  137.3145  153.2773 H   0  0  0  0  0  0  0  0  0  0  0  0
  148.1067  139.5744  152.7127 H   0  0  0  0  0  0  0  0  0  0  0  0
  146.7758  139.6572  153.8350 H   0  0  0  0  0  0  0  0  0  0  0  0
  147.1423  140.3532  156.1921 H   0  0  0  0  0  0  0  0  0  0  0  0
  148.6734  141.4646  157.7927 H   0  0  0  0  0  0  0  0  0  0  0  0
  151.0627  143.8470  156.6481 H   0  0  0  0  0  0  0  0  0  0  0  0
  150.2538  143.5196  158.1751 H   0  0  0  0  0  0  0  0  0  0  0  0
  153.2817  143.8379  157.7427 H   0  0  0  0  0  0  0  0  0  0  0  0
  152.2236  144.9524  158.5863 H   0  0  0  0  0  0  0  0  0  0  0  0
  153.7425  141.6884  158.7502 H   0  0  0  0  0  0  0  0  0  0  0  0
  153.0038  141.3077  160.2934 H   0  0  0  0  0  0  0  0  0  0  0  0
  150.7551  141.1770  159.2707 H   0  0  0  0  0  0  0  0  0  0  0  0
  151.8582  140.1157  158.4215 H   0  0  0  0  0  0  0  0  0  0  0  0
  150.5145  139.8215  153.5485 H   0  0  0  0  0  0  0  0  0  0  0  0
  1  2  1  0  0  0  0
  1 25  1  0  0  0  0
  1 26  1  0  0  0  0
  1 27  1  0  0  0  0
  2  3  1  0  0  0  0
  2  9  1  0  0  0  0
  2 28  1  0  0  0  0
  3  4  1  0  0  0  0
  4  5  1  0  0  0  0
  4 29  1  0  0  0  0
  4 30  1  0  0  0  0
  5  6  1  0  0  0  0
  5  7  1  0  0  0  0
  5  8  1  0  0  0  0
  9 10  2  0  0  0  0
  9 11  1  0  0  0  0
 11 12  1  0  0  0  0
 11 31  1  0  0  0  0
 12 13  1  0  0  0  0
 12 32  1  0  0  0  0
 12 33  1  0  0  0  0
 13 24  1  0  0  0  0
 13 14  2  0  0  0  0
 14 15  1  0  0  0  0
 14 34  1  0  0  0  0
 15 16  2  0  0  0  0
 15 35  1  0  0  0  0
 16 17  1  0  0  0  0
 16 23  1  0  0  0  0
 17 22  1  0  0  0  0
 17 18  1  0  0  0  0
 18 19  1  0  0  0  0
 18 36  1  0  0  0  0
 18 37  1  0  0  0  0
 19 20  1  0  0  0  0
 19 38  1  0  0  0  0
 19 39  1  0  0  0  0
 20 21  1  0  0  0  0
 21 22  1  0  0  0  0
 21 40  1  0  0  0  0
 21 41  1  0  0  0  0
 22 42  1  0  0  0  0
 22 43  1  0  0  0  0
 23 24  2  0  0  0  0
 24 44  1  0  0  0  0
M  END
> <s_m_source_file>
AV-unprocessed.smi

> <i_m_source_file_index>
1980

> <i_lp_mmshare_version>
43012

> <i_f3d_flags>
0

> <s_epik_input>
RkMoRikoRilbQ0gyXU9bQ0BASF0oW0NIM10pQyg9TylbTkhdW0NIMl1jMVtjSF1bY0hdYyhuW2NIXTEpTjJbQ0gyXVtDSDJdT1tDSDJdW0NIMl0y

> <s_epik_cmdline>
J2VwaWtfcHl0aG9uJywgJy1waCcsICc3LjAnLCAnLXRuJywgJzgnLCAnLW1hJywgJzIwMCcsICctbWV0YWxfYmluZGluZycsICctaW1hZScsICc8aW5maWxlLm1hZT4nLCAnLW9tYWUnLCAnPG91dGZpbGUubWFlPic=

> <r_lp_tautomer_probability>
1

> <r_epik_Ionization_Penalty>
0.00436425

> <r_epik_Ionization_Penalty_Charging>
0

> <r_epik_Ionization_Penalty_Neutral>
0.00436425

> <r_epik_State_Penalty>
0.00314317

> <r_epik_Charging_Adjusted_Penalty>
0.00314317

> <i_epik_Tot_Q>
0

> <i_epik_Tot_abs_Q>
0

> <r_epik_Metal_State_Penalty>
-0

> <b_epik_Metal_Only>
0

> <s_lp_Force_Field>
OPLS_2005

> <r_lp_Energy>
19.3234

> <b_lp_Chiralities_Consistent>
1

> <s_lp_Variant>
AV-unprocessed.smi:1980-1

> <Gold.Version>
5.8.1

> <Gold.Id.Protein>
6NUR|6NUR_protein|mol2

> <Gold.PLP.Fitness>
38.8726

> <Gold.PLP.PLP>
-34.1560

> <Gold.PLP.part.hbond>
-2.0000

> <Gold.PLP.part.metal>
0.0000

> <Gold.PLP.part.buried>
-3.0960

> <Gold.PLP.part.nonpolar>
-29.8192

> <Gold.PLP.part.repulsive>
1.5124

> <Gold.PLP.ligand.clash>
0.0000

> <Gold.PLP.ligand.torsion>
0.8655

> <Gold.PLP.Chemscore.Hbond>
1.0000

> <Gold.PLP.Chemscore.CHOScore>
0.9968

> <Gold.PLP.Chemscore.Metal>
0.0000

> <Gold.Chemscore.Hbonds>
donor molecule, donor type, donor heavy atom, donor atom, acceptor molecule, acceptor atom, score
      L1  H    11    31       P1  7948  1.00
      L1  C    24    44       P1  7957  0.93

> <Gold.PLP.Chemscore.Internal.Correction>
0.4571

> <Gold.Rescore>
     Score         DG    S(hbond)    S(metal)    S(lipo)     H(rot)  DE(clash)    DE(int)     intcor
      9.97     -11.19       1.00        0.00      74.81       2.49       0.34       0.89       ----

> <Gold.Chemscore.Fitness>
9.9670

> <Gold.Chemscore.DG>
-11.1912

> <Gold.Chemscore.ZeroCoef>
-5.4800

> <Gold.Chemscore.Hbond>
0.9978

> <Gold.Chemscore.Metal>
0.0000

> <Gold.Chemscore.Lipo>
74.8090

> <Gold.Chemscore.Internal_Hbond>
0.0000

> <Gold.Chemscore.DEClash>
0.3370

> <Gold.Chemscore.DEInternal>
0.8873

> <Gold.Chemscore.Rot>
2.4899

> <Gold.Chemscore.Internal.Correction>
   9.000000E+99

> <Gold.Chemscore.Hbonds>
donor molecule, donor type, donor heavy atom, donor atom, acceptor molecule, acceptor atom, score
      L1  H    11    31       P1  7948  1.00

> <Gold.Chemscore.Hbond.Weighted>
-3.3327

> <Gold.Chemscore.Metal.Weighted>
-0.0000

> <Gold.Chemscore.Lipo.Weighted>
-8.7526

> <Gold.Chemscore.Internal_Hbond.Weighted>
0.0000

> <Gold.Chemscore.DEClash.Weighted>
0.3370

> <Gold.Chemscore.DEInternal.Weighted>
0.8873

> <Gold.Chemscore.Rot.Weighted>
6.3741

> <Gold.Chemscore.Internal.Correction.Weighted>
   9.000000E+99

> <Gold.Protein.RotatedTorsions>
[ 6907 6896 6895 6894 ] final  -57.71 input  -60.11 | X-H torsion
[ 7974 7965 7964 7962 ] final  -54.98 input  175.53 | X-H torsion
[ 8008 7997 7996 7995 ] final   32.84 input   59.86 | X-H torsion
[ 10167 10162 10161 10158 ] final  -87.95 input  -65.29 | X-H torsion
[ 10718 10713 10712 10709 ] final  170.63 input   66.30 | X-H torsion
[ 10763 10752 10751 10750 ] final -179.32 input  -60.55 | X-H torsion
[ 11005 11000 10999 10996 ] final -170.94 input  -57.11 | X-H torsion

> <Gold.Protein.ActiveResidues>
 VAL166  LYS551  ARG553  GLY616  TRP617  ASP618  TYR619  PRO620  LYS621  CYS622 
 ASP623  PHE694  ASN695  SER759  ASP760  ASP761  ALA762  ILE779  LEU786  VAL792 
 PHE793  MET794  SER795  GLU796  ALA797  LYS798  CYS799  TRP800  GLU811  SER814 

> <Gold.Protein.RotatedAtoms>
  150.8065  134.7192  159.6648 H   0  0  0  0  0  0  0  0  0  0  0  0  # atno 6907 bound_to 6896
  152.4184  134.5996  160.0006 H   0  0  0  0  0  0  0  0  0  0  0  0  # atno 6908 bound_to 6896
  151.6219  133.3301  159.3126 H   0  0  0  0  0  0  0  0  0  0  0  0  # atno 6909 bound_to 6896
  145.8794  140.8156  142.9847 H   0  0  0  0  0  0  0  0  0  0  0  0  # atno 7974 bound_to 7965
  155.1290  140.3255  155.4479 H   0  0  0  0  0  0  0  0  0  0  0  0  # atno 8008 bound_to 7997
  156.2640  140.2014  156.6358 H   0  0  0  0  0  0  0  0  0  0  0  0  # atno 8009 bound_to 7997
  154.6627  140.0545  157.0066 H   0  0  0  0  0  0  0  0  0  0  0  0  # atno 8010 bound_to 7997
  140.3794  143.2756  151.9402 H   0  0  0  0  0  0  0  0  0  0  0  0  # atno 10167 bound_to 10162
  157.0054  131.0188  151.2819 H   0  0  0  0  0  0  0  0  0  0  0  0  # atno 10718 bound_to 10713
  154.5366  135.2803  155.1133 H   0  0  0  0  0  0  0  0  0  0  0  0  # atno 10763 bound_to 10752
  154.2632  135.6318  153.5286 H   0  0  0  0  0  0  0  0  0  0  0  0  # atno 10764 bound_to 10752
  152.9969  135.5610  154.5894 H   0  0  0  0  0  0  0  0  0  0  0  0  # atno 10765 bound_to 10752
  140.5138  134.5776  157.5027 H   0  0  0  0  0  0  0  0  0  0  0  0  # atno 11005 bound_to 11000
  144.6727  140.1361  143.7440 LP  0  0  0  0  0  0  0  0  0  0  0  0  # atno 17320 bound_to 7965
  145.9041  139.2448  143.1476 LP  0  0  0  0  0  0  0  0  0  0  0  0  # atno 17321 bound_to 7965
  139.4796  144.5832  151.7897 LP  0  0  0  0  0  0  0  0  0  0  0  0  # atno 17342 bound_to 10162
  140.4952  144.1250  150.5959 LP  0  0  0  0  0  0  0  0  0  0  0  0  # atno 17343 bound_to 10162
  157.5360  130.8089  149.7972 LP  0  0  0  0  0  0  0  0  0  0  0  0  # atno 17370 bound_to 10713
  156.0156  130.3815  150.2123 LP  0  0  0  0  0  0  0  0  0  0  0  0  # atno 17371 bound_to 10713
  139.9644  134.7398  156.0169 LP  0  0  0  0  0  0  0  0  0  0  0  0  # atno 17394 bound_to 11000
  141.1371  133.6572  156.3625 LP  0  0  0  0  0  0  0  0  0  0  0  0  # atno 17395 bound_to 11000

$$$$
