AV-unprocessed.smi:1381|AV-procd|sdf|5602|dock4
  -GOLD-   22720 5213D 1   1.00000     0.00000
 Structure written by MMmdl.
 42 43  0  0  0  0  0  0  0  0  1 V2000
  150.9601  142.1110  156.5383 C   0  0  0  0  0  0  0  0  0  0  0  0
  150.6581  140.9659  155.6332 C   0  0  0  0  0  0  0  0  0  0  0  0
  149.4941  140.4803  155.1069 C   0  0  0  0  0  0  0  0  0  0  0  0
  149.9306  139.3719  154.3336 C   0  0  0  0  0  0  0  0  0  0  0  0
  149.0036  138.5802  153.6086 N   0  0  0  0  0  0  0  0  0  0  0  0
  147.6807  138.7792  153.4798 C   0  0  0  0  0  0  0  0  0  0  0  0
  147.0495  139.7063  153.9884 O   0  0  0  0  0  0  0  0  0  0  0  0
  147.1167  137.8309  152.7177 N   0  0  0  0  0  0  0  0  0  0  0  0
  145.6987  137.7603  152.3859 C   0  0  0  0  0  0  0  0  0  0  0  0
  145.4460  136.7985  151.2097 C   0  0  0  0  0  0  0  0  0  0  0  0
  145.3102  135.3914  151.5814 N   0  0  0  0  0  0  0  0  0  0  0  0
  144.7073  134.5874  150.5206 C   0  0  0  0  0  0  0  0  0  0  0  0
  144.5951  133.1017  150.9151 C   0  0  1  0  0  0  0  0  0  0  0  0
  144.0443  132.2391  149.7748 C   0  0  0  0  0  0  0  0  0  0  0  0
  145.8865  132.6110  151.2640 O   0  0  0  0  0  0  0  0  0  0  0  0
  146.4950  133.3357  152.3290 C   0  0  1  0  0  0  0  0  0  0  0  0
  147.8630  132.7090  152.6182 C   0  0  0  0  0  0  0  0  0  0  0  0
  146.6061  134.8185  151.9270 C   0  0  0  0  0  0  0  0  0  0  0  0
  151.2422  139.1959  154.3841 N   0  0  0  0  0  0  0  0  0  0  0  0
  151.7151  140.2162  155.2176 O   0  0  0  0  0  0  0  0  0  0  0  0
  150.8265  141.8231  157.5811 H   0  0  0  0  0  0  0  0  0  0  0  0
  150.2990  142.9529  156.3320 H   0  0  0  0  0  0  0  0  0  0  0  0
  151.9879  142.4512  156.4101 H   0  0  0  0  0  0  0  0  0  0  0  0
  148.4937  140.8593  155.2537 H   0  0  0  0  0  0  0  0  0  0  0  0
  149.3895  137.7750  153.1383 H   0  0  0  0  0  0  0  0  0  0  0  0
  147.7081  137.1038  152.3428 H   0  0  0  0  0  0  0  0  0  0  0  0
  145.1620  137.4140  153.2695 H   0  0  0  0  0  0  0  0  0  0  0  0
  145.3302  138.7635  152.1690 H   0  0  0  0  0  0  0  0  0  0  0  0
  144.5613  137.1170  150.6560 H   0  0  0  0  0  0  0  0  0  0  0  0
  146.2830  136.8979  150.5171 H   0  0  0  0  0  0  0  0  0  0  0  0
  143.7110  134.9595  150.2849 H   0  0  0  0  0  0  0  0  0  0  0  0
  145.2990  134.6780  149.6082 H   0  0  0  0  0  0  0  0  0  0  0  0
  143.9351  133.0028  151.7787 H   0  0  0  0  0  0  0  0  0  0  0  0
  143.0480  132.5692  149.4790 H   0  0  0  0  0  0  0  0  0  0  0  0
  143.9718  131.1942  150.0772 H   0  0  0  0  0  0  0  0  0  0  0  0
  144.6882  132.2881  148.8963 H   0  0  0  0  0  0  0  0  0  0  0  0
  145.8718  133.2445  153.2205 H   0  0  0  0  0  0  0  0  0  0  0  0
  148.3656  133.2243  153.4368 H   0  0  0  0  0  0  0  0  0  0  0  0
  148.5117  132.7573  151.7431 H   0  0  0  0  0  0  0  0  0  0  0  0
  147.7594  131.6605  152.8983 H   0  0  0  0  0  0  0  0  0  0  0  0
  147.2887  134.9151  151.0808 H   0  0  0  0  0  0  0  0  0  0  0  0
  147.0491  135.3815  152.7496 H   0  0  0  0  0  0  0  0  0  0  0  0
  1  2  1  0  0  0  0
  1 21  1  0  0  0  0
  1 22  1  0  0  0  0
  1 23  1  0  0  0  0
  2 20  1  0  0  0  0
  2  3  2  0  0  0  0
  3  4  1  0  0  0  0
  3 24  1  0  0  0  0
  4  5  1  0  0  0  0
  4 19  2  0  0  0  0
  5  6  1  0  0  0  0
  5 25  1  0  0  0  0
  6  7  2  0  0  0  0
  6  8  1  0  0  0  0
  8  9  1  0  0  0  0
  8 26  1  0  0  0  0
  9 10  1  0  0  0  0
  9 27  1  0  0  0  0
  9 28  1  0  0  0  0
 10 11  1  0  0  0  0
 10 29  1  0  0  0  0
 10 30  1  0  0  0  0
 11 18  1  0  0  0  0
 11 12  1  0  0  0  0
 12 13  1  0  0  0  0
 12 31  1  0  0  0  0
 12 32  1  0  0  0  0
 13 14  1  0  0  0  0
 13 15  1  0  0  0  0
 13 33  1  0  0  0  0
 14 34  1  0  0  0  0
 14 35  1  0  0  0  0
 14 36  1  0  0  0  0
 15 16  1  0  0  0  0
 16 17  1  0  0  0  0
 16 18  1  0  0  0  0
 16 37  1  0  0  0  0
 17 38  1  0  0  0  0
 17 39  1  0  0  0  0
 17 40  1  0  0  0  0
 18 41  1  0  0  0  0
 18 42  1  0  0  0  0
 19 20  1  0  0  0  0
M  END
> <s_m_source_file>
AV-unprocessed.smi

> <i_m_source_file_index>
1381

> <i_lp_mmshare_version>
43012

> <i_f3d_flags>
0

> <s_epik_input>
W0NIM11jMVtjSF1jKG5vMSlbTkhdQyg9TylbTkhdW0NIMl1bQ0gyXU4yW0NIMl1bQ0BASF0oW0NIM10pT1tDQEBIXShbQ0gzXSlbQ0gyXTI=

> <s_epik_cmdline>
J2VwaWtfcHl0aG9uJywgJy1waCcsICc3LjAnLCAnLXRuJywgJzgnLCAnLW1hJywgJzIwMCcsICctbWV0YWxfYmluZGluZycsICctaW1hZScsICc8aW5maWxlLm1hZT4nLCAnLW9tYWUnLCAnPG91dGZpbGUubWFlPic=

> <r_epik_Ionization_Penalty>
0.214073

> <r_epik_Ionization_Penalty_Charging>
0

> <r_epik_Ionization_Penalty_Neutral>
0.214073

> <r_epik_State_Penalty>
0.204211

> <r_epik_Charging_Adjusted_Penalty>
0.204211

> <i_epik_Tot_Q>
0

> <i_epik_Tot_abs_Q>
0

> <r_epik_Metal_State_Penalty>
0.217067

> <b_epik_Metal_Only>
0

> <s_lp_Force_Field>
OPLS_2005

> <r_lp_Energy>
17.1752

> <b_lp_Chiralities_Consistent>
1

> <s_lp_Variant>
AV-unprocessed.smi:1381-1

> <Gold.Version>
5.8.1

> <Gold.Id.Protein>
6NUR|6NUR_protein|mol2

> <Gold.PLP.Fitness>
37.8583

> <Gold.PLP.PLP>
-32.7605

> <Gold.PLP.part.hbond>
-5.0000

> <Gold.PLP.part.metal>
0.0000

> <Gold.PLP.part.buried>
2.0198

> <Gold.PLP.part.nonpolar>
-29.8381

> <Gold.PLP.part.repulsive>
0.7138

> <Gold.PLP.ligand.clash>
0.0000

> <Gold.PLP.ligand.torsion>
0.3527

> <Gold.PLP.Chemscore.Hbond>
1.9280

> <Gold.PLP.Chemscore.CHOScore>
0.0000

> <Gold.PLP.Chemscore.Metal>
0.0000

> <Gold.Chemscore.Hbonds>
donor molecule, donor type, donor heavy atom, donor atom, acceptor molecule, acceptor atom, score
      L1  H     5    25       P1  7948  0.90
      L1  H     8    26       P1  7948  1.00

> <Gold.PLP.Chemscore.Internal.Correction>
0.0193

> <Gold.Rescore>
     Score         DG    S(hbond)    S(metal)    S(lipo)     H(rot)  DE(clash)    DE(int)     intcor
     13.90     -16.02       1.95        0.00      68.68       1.57       0.44       1.69       ----

> <Gold.Chemscore.Fitness>
13.8954

> <Gold.Chemscore.DG>
-16.0246

> <Gold.Chemscore.ZeroCoef>
-5.4800

> <Gold.Chemscore.Hbond>
1.9545

> <Gold.Chemscore.Metal>
0.0000

> <Gold.Chemscore.Lipo>
68.6768

> <Gold.Chemscore.Internal_Hbond>
0.0000

> <Gold.Chemscore.DEClash>
0.4398

> <Gold.Chemscore.DEInternal>
1.6895

> <Gold.Chemscore.Rot>
1.5697

> <Gold.Chemscore.Internal.Correction>
   9.000000E+99

> <Gold.Chemscore.Hbonds>
donor molecule, donor type, donor heavy atom, donor atom, acceptor molecule, acceptor atom, score
      L1  H     5    25       P1  7948  0.78
      L1  H     8    26       P1  7948  0.98

> <Gold.Chemscore.Hbond.Weighted>
-6.5279

> <Gold.Chemscore.Metal.Weighted>
-0.0000

> <Gold.Chemscore.Lipo.Weighted>
-8.0352

> <Gold.Chemscore.Internal_Hbond.Weighted>
0.0000

> <Gold.Chemscore.DEClash.Weighted>
0.4398

> <Gold.Chemscore.DEInternal.Weighted>
1.6895

> <Gold.Chemscore.Rot.Weighted>
4.0185

> <Gold.Chemscore.Internal.Correction.Weighted>
   9.000000E+99

> <Gold.Protein.RotatedTorsions>
[ 6907 6896 6895 6894 ] final   43.02 input  -60.11 | X-H torsion
[ 7974 7965 7964 7962 ] final  -20.76 input  175.53 | X-H torsion
[ 8008 7997 7996 7995 ] final  -44.77 input   59.86 | X-H torsion
[ 10167 10162 10161 10158 ] final   87.69 input  -65.29 | X-H torsion
[ 10718 10713 10712 10709 ] final  -86.69 input   66.30 | X-H torsion
[ 10763 10752 10751 10750 ] final -135.09 input  -60.55 | X-H torsion
[ 11005 11000 10999 10996 ] final  118.03 input  -57.11 | X-H torsion

> <Gold.Protein.ActiveResidues>
 VAL166  LYS551  ARG553  GLY616  TRP617  ASP618  TYR619  PRO620  LYS621  CYS622 
 ASP623  PHE694  ASN695  SER759  ASP760  ASP761  ALA762  ILE779  LEU786  VAL792 
 PHE793  MET794  SER795  GLU796  ALA797  LYS798  CYS799  TRP800  GLU811  SER814 

> <Gold.Protein.RotatedAtoms>
  152.2151  134.8466  160.0492 H   0  0  0  0  0  0  0  0  0  0  0  0  # atno 6907 bound_to 6896
  151.9270  133.3595  159.3925 H   0  0  0  0  0  0  0  0  0  0  0  0  # atno 6908 bound_to 6896
  150.6985  134.4502  159.5376 H   0  0  0  0  0  0  0  0  0  0  0  0  # atno 6909 bound_to 6896
  146.1770  140.4247  142.8509 H   0  0  0  0  0  0  0  0  0  0  0  0  # atno 7974 bound_to 7965
  154.3998  140.1413  156.3738 H   0  0  0  0  0  0  0  0  0  0  0  0  # atno 8008 bound_to 7997
  155.8067  140.3474  155.5413 H   0  0  0  0  0  0  0  0  0  0  0  0  # atno 8009 bound_to 7997
  155.8428  140.0929  157.1714 H   0  0  0  0  0  0  0  0  0  0  0  0  # atno 8010 bound_to 7997
  139.8749  144.6472  150.8908 H   0  0  0  0  0  0  0  0  0  0  0  0  # atno 10167 bound_to 10162
  155.9988  130.4774  150.4753 H   0  0  0  0  0  0  0  0  0  0  0  0  # atno 10718 bound_to 10713
  154.8709  135.3714  154.4841 H   0  0  0  0  0  0  0  0  0  0  0  0  # atno 10763 bound_to 10752
  153.5493  135.7025  153.5604 H   0  0  0  0  0  0  0  0  0  0  0  0  # atno 10764 bound_to 10752
  153.3730  135.4016  155.1766 H   0  0  0  0  0  0  0  0  0  0  0  0  # atno 10765 bound_to 10752
  139.9095  134.9616  156.7440 H   0  0  0  0  0  0  0  0  0  0  0  0  # atno 11005 bound_to 11000
  144.8253  140.6618  143.6326 LP  0  0  0  0  0  0  0  0  0  0  0  0  # atno 17320 bound_to 7965
  145.4182  139.1568  143.4088 LP  0  0  0  0  0  0  0  0  0  0  0  0  # atno 17321 bound_to 7965
  140.7754  143.3633  151.1786 LP  0  0  0  0  0  0  0  0  0  0  0  0  # atno 17342 bound_to 10162
  139.7250  143.9163  152.2999 LP  0  0  0  0  0  0  0  0  0  0  0  0  # atno 17343 bound_to 10162
  157.2764  131.0598  151.2226 LP  0  0  0  0  0  0  0  0  0  0  0  0  # atno 17370 bound_to 10713
  157.3288  130.6974  149.6312 LP  0  0  0  0  0  0  0  0  0  0  0  0  # atno 17371 bound_to 10713
  140.6826  133.9461  155.7919 LP  0  0  0  0  0  0  0  0  0  0  0  0  # atno 17394 bound_to 11000
  141.0499  134.0500  157.3797 LP  0  0  0  0  0  0  0  0  0  0  0  0  # atno 17395 bound_to 11000

$$$$
