AV-unprocessed.smi:232|AV-procd|sdf|1767|dock4
  -GOLD-   2262020303D 1   1.00000     0.00000
 Structure written by MMmdl.
 52 55  0  0  0  0  0  0  0  0  1 V2000
  152.1299  145.3160  158.8792 C   0  0  0  0  0  0  0  0  0  0  0  0
  151.4598  144.2869  157.9585 C   0  0  0  0  0  0  0  0  0  0  0  0
  151.4185  142.8383  158.4972 C   0  0  2  0  0  0  0  0  0  0  0  0
  152.7917  142.3888  159.0038 C   0  0  0  0  0  0  0  0  0  0  0  0
  152.7035  140.8694  158.9337 C   0  0  0  0  0  0  0  0  0  0  0  0
  151.8471  140.6091  157.6872 C   0  0  1  0  0  0  0  0  0  0  0  0
  151.0311  139.3050  157.8183 C   0  0  0  0  0  0  0  0  0  0  0  0
  151.0669  141.8365  157.4902 N   0  0  0  0  0  0  0  0  0  0  0  0
  149.8079  141.7429  157.0005 C   0  0  0  0  0  0  0  0  0  0  0  0
  148.7713  142.2935  157.6847 N   0  0  0  0  0  0  0  0  0  0  0  0
  147.5256  142.1819  157.2142 C   0  0  0  0  0  0  0  0  0  0  0  0
  147.1030  141.5672  156.1071 N   0  0  0  0  0  0  0  0  0  0  0  0
  148.1427  141.0100  155.4221 C   0  0  0  0  0  0  0  0  0  0  0  0
  149.5147  141.0534  155.7942 C   0  0  0  0  0  0  0  0  0  0  0  0
  150.2868  140.3838  154.8537 N   0  0  0  0  0  0  0  0  0  0  0  0
  149.4185  139.9636  153.9748 C   0  0  0  0  0  0  0  0  0  0  0  0
  148.1053  140.2754  154.2499 N   0  0  0  0  0  0  0  0  0  0  0  0
  146.9440  139.9285  153.4495 C   0  0  0  0  0  0  0  0  0  0  0  0
  146.9482  138.4655  152.9484 C   0  0  2  0  0  0  0  0  0  0  0  0
  147.7151  138.4717  151.7615 O   0  0  0  0  0  0  0  0  0  0  0  0
  145.5618  137.8786  152.5927 C   0  0  2  0  0  0  0  0  0  0  0  0
  144.6447  137.5414  153.7733 C   0  0  0  0  0  0  0  0  0  0  0  0
  143.7578  136.4215  153.2528 C   0  0  0  0  0  0  0  0  0  0  0  0
  144.4543  135.9676  151.9706 C   0  0  0  0  0  0  0  0  0  0  0  0
  145.7288  136.5909  152.0162 O   0  0  0  0  0  0  0  0  0  0  0  0
  152.2487  146.2696  158.3649 H   0  0  0  0  0  0  0  0  0  0  0  0
  153.1194  144.9822  159.1917 H   0  0  0  0  0  0  0  0  0  0  0  0
  151.5362  145.5065  159.7723 H   0  0  0  0  0  0  0  0  0  0  0  0
  150.4521  144.6209  157.7083 H   0  0  0  0  0  0  0  0  0  0  0  0
  152.0140  144.2825  157.0193 H   0  0  0  0  0  0  0  0  0  0  0  0
  150.7130  142.7734  159.3268 H   0  0  0  0  0  0  0  0  0  0  0  0
  153.5792  142.7375  158.3338 H   0  0  0  0  0  0  0  0  0  0  0  0
  153.0143  142.7560  160.0059 H   0  0  0  0  0  0  0  0  0  0  0  0
  153.6807  140.3886  158.8821 H   0  0  0  0  0  0  0  0  0  0  0  0
  152.1968  140.5009  159.8270 H   0  0  0  0  0  0  0  0  0  0  0  0
  152.5083  140.5225  156.8244 H   0  0  0  0  0  0  0  0  0  0  0  0
  151.6872  138.4622  158.0365 H   0  0  0  0  0  0  0  0  0  0  0  0
  150.4979  139.0626  156.8992 H   0  0  0  0  0  0  0  0  0  0  0  0
  150.3000  139.3705  158.6249 H   0  0  0  0  0  0  0  0  0  0  0  0
  146.7571  142.6483  157.8126 H   0  0  0  0  0  0  0  0  0  0  0  0
  149.7130  139.4007  153.1009 H   0  0  0  0  0  0  0  0  0  0  0  0
  146.0381  140.1305  154.0226 H   0  0  0  0  0  0  0  0  0  0  0  0
  146.9298  140.6129  152.5998 H   0  0  0  0  0  0  0  0  0  0  0  0
  147.4516  137.8253  153.6736 H   0  0  0  0  0  0  0  0  0  0  0  0
  148.3666  137.7898  151.8214 H   0  0  0  0  0  0  0  0  0  0  0  0
  145.0331  138.5282  151.8916 H   0  0  0  0  0  0  0  0  0  0  0  0
  145.2308  137.1706  154.6149 H   0  0  0  0  0  0  0  0  0  0  0  0
  144.0654  138.3992  154.1138 H   0  0  0  0  0  0  0  0  0  0  0  0
  143.6897  135.6127  153.9812 H   0  0  0  0  0  0  0  0  0  0  0  0
  142.7465  136.7708  153.0415 H   0  0  0  0  0  0  0  0  0  0  0  0
  144.5471  134.8833  151.9030 H   0  0  0  0  0  0  0  0  0  0  0  0
  143.9123  136.3203  151.0918 H   0  0  0  0  0  0  0  0  0  0  0  0
  1  2  1  0  0  0  0
  1 26  1  0  0  0  0
  1 27  1  0  0  0  0
  1 28  1  0  0  0  0
  2  3  1  0  0  0  0
  2 29  1  0  0  0  0
  2 30  1  0  0  0  0
  3  8  1  0  0  0  0
  3  4  1  0  0  0  0
  3 31  1  0  0  0  0
  4  5  1  0  0  0  0
  4 32  1  0  0  0  0
  4 33  1  0  0  0  0
  5  6  1  0  0  0  0
  5 34  1  0  0  0  0
  5 35  1  0  0  0  0
  6  7  1  0  0  0  0
  6  8  1  0  0  0  0
  6 36  1  0  0  0  0
  7 37  1  0  0  0  0
  7 38  1  0  0  0  0
  7 39  1  0  0  0  0
  8  9  1  0  0  0  0
  9 14  1  0  0  0  0
  9 10  2  0  0  0  0
 10 11  1  0  0  0  0
 11 12  2  0  0  0  0
 11 40  1  0  0  0  0
 12 13  1  0  0  0  0
 13 17  1  0  0  0  0
 13 14  2  0  0  0  0
 14 15  1  0  0  0  0
 15 16  2  0  0  0  0
 16 17  1  0  0  0  0
 16 41  1  0  0  0  0
 17 18  1  0  0  0  0
 18 19  1  0  0  0  0
 18 42  1  0  0  0  0
 18 43  1  0  0  0  0
 19 20  1  0  0  0  0
 19 21  1  0  0  0  0
 19 44  1  0  0  0  0
 20 45  1  0  0  0  0
 21 25  1  0  0  0  0
 21 22  1  0  0  0  0
 21 46  1  0  0  0  0
 22 23  1  0  0  0  0
 22 47  1  0  0  0  0
 22 48  1  0  0  0  0
 23 24  1  0  0  0  0
 23 49  1  0  0  0  0
 23 50  1  0  0  0  0
 24 25  1  0  0  0  0
 24 51  1  0  0  0  0
 24 52  1  0  0  0  0
M  END
> <s_m_source_file>
AV-unprocessed.smi

> <i_m_source_file_index>
232

> <i_lp_mmshare_version>
43012

> <i_f3d_flags>
0

> <s_epik_input>
W0NIM11bQ0gyXVtDQEBIXTFbQ0gyXVtDSDJdW0NAQEhdKFtDSDNdKU4xYyhuW2NIXW4yKWMoYzIzKW5bY0hdbjNbQ0gyXVtDQEhdKFtPSF0pW0NAQEhdNFtDSDJdW0NIMl1bQ0gyXU80

> <s_epik_cmdline>
J2VwaWtfcHl0aG9uJywgJy1waCcsICc3LjAnLCAnLXRuJywgJzgnLCAnLW1hJywgJzIwMCcsICctbWV0YWxfYmluZGluZycsICctaW1hZScsICc8aW5maWxlLm1hZT4nLCAnLW9tYWUnLCAnPG91dGZpbGUubWFlPic=

> <r_lp_tautomer_probability>
1

> <r_epik_Ionization_Penalty>
0.00258048

> <r_epik_Ionization_Penalty_Charging>
0

> <r_epik_Ionization_Penalty_Neutral>
0.00258048

> <r_epik_State_Penalty>
0.00168551

> <r_epik_Charging_Adjusted_Penalty>
0.00168551

> <i_epik_Tot_Q>
0

> <i_epik_Tot_abs_Q>
0

> <r_epik_Metal_State_Penalty>
-0

> <b_epik_Metal_Only>
0

> <s_lp_Force_Field>
OPLS_2005

> <r_lp_Energy>
58.3797

> <b_lp_Chiralities_Consistent>
1

> <s_lp_Variant>
AV-unprocessed.smi:232-1

> <Gold.Version>
5.8.1

> <Gold.Id.Protein>
6NUR|6NUR_protein|mol2

> <Gold.PLP.Fitness>
48.3087

> <Gold.PLP.PLP>
-42.1520

> <Gold.PLP.part.hbond>
-3.8667

> <Gold.PLP.part.metal>
0.0000

> <Gold.PLP.part.buried>
-3.1005

> <Gold.PLP.part.nonpolar>
-36.8746

> <Gold.PLP.part.repulsive>
0.5439

> <Gold.PLP.ligand.clash>
0.0000

> <Gold.PLP.ligand.torsion>
1.1973

> <Gold.PLP.Chemscore.Hbond>
1.7000

> <Gold.PLP.Chemscore.CHOScore>
0.9647

> <Gold.PLP.Chemscore.Metal>
0.0000

> <Gold.Chemscore.Hbonds>
donor molecule, donor type, donor heavy atom, donor atom, acceptor molecule, acceptor atom, score
      L1  H    20    45       P1  7948  1.00
      P1  H  7989  7998       L1    15  0.70
      L1  C    16    41       P1  7957  0.94

> <Gold.PLP.Chemscore.Internal.Correction>
0.5572

> <Gold.Rescore>
     Score         DG    S(hbond)    S(metal)    S(lipo)     H(rot)  DE(clash)    DE(int)     intcor
     12.99     -15.42       1.14        0.00     100.21       2.18       1.25       1.19       ----

> <Gold.Chemscore.Fitness>
12.9862

> <Gold.Chemscore.DG>
-15.4248

> <Gold.Chemscore.ZeroCoef>
-5.4800

> <Gold.Chemscore.Hbond>
1.1362

> <Gold.Chemscore.Metal>
0.0000

> <Gold.Chemscore.Lipo>
100.2068

> <Gold.Chemscore.Internal_Hbond>
0.0000

> <Gold.Chemscore.DEClash>
1.2506

> <Gold.Chemscore.DEInternal>
1.1880

> <Gold.Chemscore.Rot>
2.1775

> <Gold.Chemscore.Internal.Correction>
   9.000000E+99

> <Gold.Chemscore.Hbonds>
donor molecule, donor type, donor heavy atom, donor atom, acceptor molecule, acceptor atom, score
      L1  H    20    45       P1  7948  0.99
      P1  H  7989  7998       L1    15  0.07

> <Gold.Chemscore.Hbond.Weighted>
-3.7950

> <Gold.Chemscore.Metal.Weighted>
-0.0000

> <Gold.Chemscore.Lipo.Weighted>
-11.7242

> <Gold.Chemscore.Internal_Hbond.Weighted>
0.0000

> <Gold.Chemscore.DEClash.Weighted>
1.2506

> <Gold.Chemscore.DEInternal.Weighted>
1.1880

> <Gold.Chemscore.Rot.Weighted>
5.5744

> <Gold.Chemscore.Internal.Correction.Weighted>
   9.000000E+99

> <Gold.Protein.RotatedTorsions>
[ 6907 6896 6895 6894 ] final  -99.94 input  -60.11 | X-H torsion
[ 7974 7965 7964 7962 ] final   80.79 input  175.53 | X-H torsion
[ 8008 7997 7996 7995 ] final  -41.36 input   59.86 | X-H torsion
[ 10167 10162 10161 10158 ] final -170.09 input  -65.29 | X-H torsion
[ 10718 10713 10712 10709 ] final   91.87 input   66.30 | X-H torsion
[ 10763 10752 10751 10750 ] final   -6.00 input  -60.55 | X-H torsion
[ 11005 11000 10999 10996 ] final -149.49 input  -57.11 | X-H torsion

> <Gold.Protein.ActiveResidues>
 VAL166  LYS551  ARG553  GLY616  TRP617  ASP618  TYR619  PRO620  LYS621  CYS622 
 ASP623  PHE694  ASN695  SER759  ASP760  ASP761  ALA762  ILE779  LEU786  VAL792 
 PHE793  MET794  SER795  GLU796  ALA797  LYS798  CYS799  TRP800  GLU811  SER814 

> <Gold.Protein.RotatedAtoms>
  150.7097  134.0964  159.3949 H   0  0  0  0  0  0  0  0  0  0  0  0  # atno 6907 bound_to 6896
  151.8950  135.0399  160.0510 H   0  0  0  0  0  0  0  0  0  0  0  0  # atno 6908 bound_to 6896
  152.2461  133.5140  159.5334 H   0  0  0  0  0  0  0  0  0  0  0  0  # atno 6909 bound_to 6896
  145.6467  139.2438  143.2000 H   0  0  0  0  0  0  0  0  0  0  0  0  # atno 7974 bound_to 7965
  154.4005  140.1501  156.3178 H   0  0  0  0  0  0  0  0  0  0  0  0  # atno 8008 bound_to 7997
  155.8557  140.3456  155.5701 H   0  0  0  0  0  0  0  0  0  0  0  0  # atno 8009 bound_to 7997
  155.7935  140.0860  157.1986 H   0  0  0  0  0  0  0  0  0  0  0  0  # atno 8010 bound_to 7997
  139.5883  144.1270  152.1602 H   0  0  0  0  0  0  0  0  0  0  0  0  # atno 10167 bound_to 10162
  157.6959  131.0423  150.3796 H   0  0  0  0  0  0  0  0  0  0  0  0  # atno 10718 bound_to 10713
  153.4063  135.7006  153.6390 H   0  0  0  0  0  0  0  0  0  0  0  0  # atno 10763 bound_to 10752
  153.4903  135.3674  155.2488 H   0  0  0  0  0  0  0  0  0  0  0  0  # atno 10764 bound_to 10752
  154.8714  135.4087  154.3407 H   0  0  0  0  0  0  0  0  0  0  0  0  # atno 10765 bound_to 10752
  140.7502  134.3416  157.5127 H   0  0  0  0  0  0  0  0  0  0  0  0  # atno 11005 bound_to 11000
  146.1237  140.7276  142.9445 LP  0  0  0  0  0  0  0  0  0  0  0  0  # atno 17320 bound_to 7965
  144.7137  140.4134  143.7060 LP  0  0  0  0  0  0  0  0  0  0  0  0  # atno 17321 bound_to 7965
  140.0838  144.5678  150.7103 LP  0  0  0  0  0  0  0  0  0  0  0  0  # atno 17342 bound_to 10162
  140.7150  143.2537  151.4461 LP  0  0  0  0  0  0  0  0  0  0  0  0  # atno 17343 bound_to 10162
  156.4211  130.3953  149.6824 LP  0  0  0  0  0  0  0  0  0  0  0  0  # atno 17370 bound_to 10713
  156.4075  130.7705  151.2717 LP  0  0  0  0  0  0  0  0  0  0  0  0  # atno 17371 bound_to 10713
  139.8789  134.9137  156.3089 LP  0  0  0  0  0  0  0  0  0  0  0  0  # atno 17394 bound_to 11000
  140.9758  133.7298  156.0600 LP  0  0  0  0  0  0  0  0  0  0  0  0  # atno 17395 bound_to 11000

$$$$
