AV-unprocessed.smi:2162|AV-procd|sdf|8802|dock3
  -GOLD-   2272011583D 1   1.00000     0.00000
 Structure written by MMmdl.
 41 42  0  0  0  0  0  0  0  0  1 V2000
  153.3596  142.7768  160.8361 C   0  0  0  0  0  0  0  0  0  0  0  0
  152.6331  143.1879  159.6016 C   0  0  0  0  0  0  0  0  0  0  0  0
  152.2275  142.3304  158.6614 N   0  0  0  0  0  0  0  0  0  0  0  0
  151.5673  142.9639  157.6040 C   0  0  0  0  0  0  0  0  0  0  0  0
  151.0312  142.1524  156.4600 C   0  0  0  0  0  0  0  0  0  0  0  0
  150.1438  140.9769  156.9053 C   0  0  0  0  0  0  0  0  0  0  0  0
  148.9031  140.9216  156.1384 N   0  0  0  0  0  0  0  0  0  0  0  0
  148.8137  140.8656  154.8021 C   0  0  0  0  0  0  0  0  0  0  0  0
  149.7937  140.8541  154.0565 O   0  0  0  0  0  0  0  0  0  0  0  0
  147.3935  140.8190  154.2161 C   0  0  2  0  0  0  0  0  0  0  0  0
  147.1211  142.0206  153.2925 C   0  0  0  0  0  0  0  0  0  0  0  0
  146.1196  142.8593  154.0690 C   0  0  0  0  0  0  0  0  0  0  0  0
  145.7629  143.9764  153.6971 O   0  0  0  0  0  0  0  0  0  0  0  0
  145.7203  142.2325  155.1836 N   0  0  0  0  0  0  0  0  0  0  0  0
  144.8094  142.7876  156.1940 C   0  0  0  0  0  0  0  0  0  0  0  0
  145.5447  142.9574  157.5331 C   0  0  0  0  0  0  0  0  0  0  0  0
  143.5193  141.9621  156.3501 C   0  0  0  0  0  0  0  0  0  0  0  0
  146.3065  140.9037  155.3073 C   0  0  0  0  0  0  0  0  0  0  0  0
  151.4811  144.3253  157.7581 C   0  0  0  0  0  0  0  0  0  0  0  0
  152.2225  144.8600  159.2406 S   0  0  0  0  0  0  0  0  0  0  0  0
  153.5348  141.7004  160.8396 H   0  0  0  0  0  0  0  0  0  0  0  0
  152.7735  143.0385  161.7172 H   0  0  0  0  0  0  0  0  0  0  0  0
  154.3211  143.2877  160.8898 H   0  0  0  0  0  0  0  0  0  0  0  0
  150.4544  142.7959  155.7946 H   0  0  0  0  0  0  0  0  0  0  0  0
  151.8550  141.7705  155.8559 H   0  0  0  0  0  0  0  0  0  0  0  0
  150.7075  140.0465  156.8211 H   0  0  0  0  0  0  0  0  0  0  0  0
  149.8815  141.0909  157.9578 H   0  0  0  0  0  0  0  0  0  0  0  0
  148.0442  140.9212  156.6696 H   0  0  0  0  0  0  0  0  0  0  0  0
  147.2723  139.8904  153.6551 H   0  0  0  0  0  0  0  0  0  0  0  0
  148.0119  142.6058  153.0578 H   0  0  0  0  0  0  0  0  0  0  0  0
  146.6723  141.6994  152.3522 H   0  0  0  0  0  0  0  0  0  0  0  0
  144.5030  143.7798  155.8582 H   0  0  0  0  0  0  0  0  0  0  0  0
  144.8933  143.4050  158.2840 H   0  0  0  0  0  0  0  0  0  0  0  0
  146.4156  143.6052  157.4275 H   0  0  0  0  0  0  0  0  0  0  0  0
  145.8891  141.9977  157.9199 H   0  0  0  0  0  0  0  0  0  0  0  0
  142.8304  142.4497  157.0404 H   0  0  0  0  0  0  0  0  0  0  0  0
  143.7183  140.9643  156.7420 H   0  0  0  0  0  0  0  0  0  0  0  0
  143.0019  141.8540  155.3964 H   0  0  0  0  0  0  0  0  0  0  0  0
  145.5392  140.1479  155.1350 H   0  0  0  0  0  0  0  0  0  0  0  0
  146.7040  140.7486  156.3119 H   0  0  0  0  0  0  0  0  0  0  0  0
  151.0240  145.0429  157.0930 H   0  0  0  0  0  0  0  0  0  0  0  0
  1  2  1  0  0  0  0
  1 21  1  0  0  0  0
  1 22  1  0  0  0  0
  1 23  1  0  0  0  0
  2 20  1  0  0  0  0
  2  3  2  0  0  0  0
  3  4  1  0  0  0  0
  4  5  1  0  0  0  0
  4 19  2  0  0  0  0
  5  6  1  0  0  0  0
  5 24  1  0  0  0  0
  5 25  1  0  0  0  0
  6  7  1  0  0  0  0
  6 26  1  0  0  0  0
  6 27  1  0  0  0  0
  7  8  1  0  0  0  0
  7 28  1  0  0  0  0
  8  9  2  0  0  0  0
  8 10  1  0  0  0  0
 10 18  1  0  0  0  0
 10 11  1  0  0  0  0
 10 29  1  0  0  0  0
 11 12  1  0  0  0  0
 11 30  1  0  0  0  0
 11 31  1  0  0  0  0
 12 13  2  0  0  0  0
 12 14  1  0  0  0  0
 14 15  1  0  0  0  0
 14 18  1  0  0  0  0
 15 16  1  0  0  0  0
 15 17  1  0  0  0  0
 15 32  1  0  0  0  0
 16 33  1  0  0  0  0
 16 34  1  0  0  0  0
 16 35  1  0  0  0  0
 17 36  1  0  0  0  0
 17 37  1  0  0  0  0
 17 38  1  0  0  0  0
 18 39  1  0  0  0  0
 18 40  1  0  0  0  0
 19 20  1  0  0  0  0
 19 41  1  0  0  0  0
M  END
> <s_m_source_file>
AV-unprocessed.smi

> <i_m_source_file_index>
2162

> <i_lp_mmshare_version>
43012

> <i_f3d_flags>
0

> <s_epik_input>
W0NIM11jMW5jKFtjSF1zMSlbQ0gyXVtDSDJdW05IXUMoPU8pW0NAQEhdMltDSDJdQyg9TylOKFtDSDJdMilbQ0hdKFtDSDNdKVtDSDNd

> <s_epik_cmdline>
J2VwaWtfcHl0aG9uJywgJy1waCcsICc3LjAnLCAnLXRuJywgJzgnLCAnLW1hJywgJzIwMCcsICctbWV0YWxfYmluZGluZycsICctaW1hZScsICc8aW5maWxlLm1hZT4nLCAnLW9tYWUnLCAnPG91dGZpbGUubWFlPic=

> <r_epik_Ionization_Penalty>
0.000973993

> <r_epik_Ionization_Penalty_Charging>
0

> <r_epik_Ionization_Penalty_Neutral>
0.000973993

> <r_epik_State_Penalty>
0.000633765

> <r_epik_Charging_Adjusted_Penalty>
0.000633765

> <i_epik_Tot_Q>
0

> <i_epik_Tot_abs_Q>
0

> <r_epik_Metal_State_Penalty>
-0

> <b_epik_Metal_Only>
0

> <s_lp_Force_Field>
OPLS_2005

> <r_lp_Energy>
15.0968

> <b_lp_Chiralities_Consistent>
1

> <s_lp_Variant>
AV-unprocessed.smi:2162-1

> <Gold.Version>
5.8.1

> <Gold.Id.Protein>
6NUR|6NUR_protein|mol2

> <Gold.PLP.Fitness>
42.5939

> <Gold.PLP.PLP>
-39.2860

> <Gold.PLP.part.hbond>
-2.2937

> <Gold.PLP.part.metal>
0.0000

> <Gold.PLP.part.buried>
-4.9910

> <Gold.PLP.part.nonpolar>
-31.6620

> <Gold.PLP.part.repulsive>
0.9258

> <Gold.PLP.ligand.clash>
0.8525

> <Gold.PLP.ligand.torsion>
0.4320

> <Gold.PLP.Chemscore.Hbond>
0.7047

> <Gold.PLP.Chemscore.CHOScore>
0.9449

> <Gold.PLP.Chemscore.Metal>
0.0000

> <Gold.Chemscore.Hbonds>
donor molecule, donor type, donor heavy atom, donor atom, acceptor molecule, acceptor atom, score
      P1  H  7989  7998       L1     9  0.54
      P1  H  8011  8017       L1     9  0.24
      L1  C    19    41       P1  8028  0.94

> <Gold.PLP.Chemscore.Internal.Correction>
0.0757

> <Gold.Rescore>
     Score         DG    S(hbond)    S(metal)    S(lipo)     H(rot)  DE(clash)    DE(int)     intcor
     13.40     -15.05       0.96        0.00      90.62       1.66       0.12       1.53       ----

> <Gold.Chemscore.Fitness>
13.3959

> <Gold.Chemscore.DG>
-15.0459

> <Gold.Chemscore.ZeroCoef>
-5.4800

> <Gold.Chemscore.Hbond>
0.9609

> <Gold.Chemscore.Metal>
0.0000

> <Gold.Chemscore.Lipo>
90.6157

> <Gold.Chemscore.Internal_Hbond>
0.0000

> <Gold.Chemscore.DEClash>
0.1246

> <Gold.Chemscore.DEInternal>
1.5254

> <Gold.Chemscore.Rot>
1.6585

> <Gold.Chemscore.Internal.Correction>
   9.000000E+99

> <Gold.Chemscore.Hbonds>
donor molecule, donor type, donor heavy atom, donor atom, acceptor molecule, acceptor atom, score
      P1  H  7989  7998       L1     9  0.54
      P1  H  8011  8017       L1     9  0.22

> <Gold.Chemscore.Hbond.Weighted>
-3.2095

> <Gold.Chemscore.Metal.Weighted>
-0.0000

> <Gold.Chemscore.Lipo.Weighted>
-10.6020

> <Gold.Chemscore.Internal_Hbond.Weighted>
0.0000

> <Gold.Chemscore.DEClash.Weighted>
0.1246

> <Gold.Chemscore.DEInternal.Weighted>
1.5254

> <Gold.Chemscore.Rot.Weighted>
4.2457

> <Gold.Chemscore.Internal.Correction.Weighted>
   9.000000E+99

> <Gold.Protein.RotatedTorsions>
[ 6907 6896 6895 6894 ] final  -96.40 input  -60.11 | X-H torsion
[ 7974 7965 7964 7962 ] final   55.43 input  175.53 | X-H torsion
[ 8008 7997 7996 7995 ] final  175.12 input   59.86 | X-H torsion
[ 10167 10162 10161 10158 ] final  -71.31 input  -65.29 | X-H torsion
[ 10718 10713 10712 10709 ] final -118.39 input   66.30 | X-H torsion
[ 10763 10752 10751 10750 ] final   33.66 input  -60.55 | X-H torsion
[ 11005 11000 10999 10996 ] final   47.67 input  -57.11 | X-H torsion

> <Gold.Protein.ActiveResidues>
 VAL166  LYS551  ARG553  GLY616  TRP617  ASP618  TYR619  PRO620  LYS621  CYS622 
 ASP623  PHE694  ASN695  SER759  ASP760  ASP761  ALA762  ILE779  LEU786  VAL792 
 PHE793  MET794  SER795  GLU796  ALA797  LYS798  CYS799  TRP800  GLU811  SER814 

> <Gold.Protein.RotatedAtoms>
  150.6988  134.1509  159.4139 H   0  0  0  0  0  0  0  0  0  0  0  0  # atno 6907 bound_to 6896
  151.9492  135.0175  160.0550 H   0  0  0  0  0  0  0  0  0  0  0  0  # atno 6908 bound_to 6896
  152.2026  133.4817  159.5103 H   0  0  0  0  0  0  0  0  0  0  0  0  # atno 6909 bound_to 6896
  145.9504  139.3967  143.0309 H   0  0  0  0  0  0  0  0  0  0  0  0  # atno 7974 bound_to 7965
  156.0903  140.1417  156.9600 H   0  0  0  0  0  0  0  0  0  0  0  0  # atno 8008 bound_to 7997
  154.4638  140.0933  156.7012 H   0  0  0  0  0  0  0  0  0  0  0  0  # atno 8009 bound_to 7997
  155.4930  140.3448  155.4360 H   0  0  0  0  0  0  0  0  0  0  0  0  # atno 8010 bound_to 7997
  140.5283  143.2324  151.7308 H   0  0  0  0  0  0  0  0  0  0  0  0  # atno 10167 bound_to 10162
  156.1103  130.6243  150.9285 H   0  0  0  0  0  0  0  0  0  0  0  0  # atno 10718 bound_to 10713
  153.0201  135.6381  154.1546 H   0  0  0  0  0  0  0  0  0  0  0  0  # atno 10763 bound_to 10752
  154.1281  135.2842  155.3193 H   0  0  0  0  0  0  0  0  0  0  0  0  # atno 10764 bound_to 10752
  154.6214  135.5523  153.7642 H   0  0  0  0  0  0  0  0  0  0  0  0  # atno 10765 bound_to 10752
  140.1259  134.4769  155.8560 H   0  0  0  0  0  0  0  0  0  0  0  0  # atno 11005 bound_to 11000
  145.8178  140.9694  143.0914 LP  0  0  0  0  0  0  0  0  0  0  0  0  # atno 17320 bound_to 7965
  144.6795  140.0003  143.7484 LP  0  0  0  0  0  0  0  0  0  0  0  0  # atno 17321 bound_to 7965
  139.4945  144.4153  152.0037 LP  0  0  0  0  0  0  0  0  0  0  0  0  # atno 17342 bound_to 10162
  140.3253  144.3380  150.6000 LP  0  0  0  0  0  0  0  0  0  0  0  0  # atno 17343 bound_to 10162
  157.6284  131.0923  150.8490 LP  0  0  0  0  0  0  0  0  0  0  0  0  # atno 17370 bound_to 10713
  156.8602  130.5110  149.5304 LP  0  0  0  0  0  0  0  0  0  0  0  0  # atno 17371 bound_to 10713
  141.2161  133.6777  156.6977 LP  0  0  0  0  0  0  0  0  0  0  0  0  # atno 17394 bound_to 11000
  140.2905  134.8244  157.4012 LP  0  0  0  0  0  0  0  0  0  0  0  0  # atno 17395 bound_to 11000

$$$$
