AV-unprocessed.smi:1189|AV-procd|sdf|4978|dock8
  -GOLD-   22720 3573D 1   1.00000     0.00000
 Structure written by MMmdl.
 33 34  0  0  0  0  0  0  0  0  1 V2000
  151.1238  146.4668  159.7674 O   0  0  0  0  0  0  0  0  0  0  0  0
  150.9403  145.2486  159.7430 C   0  0  0  0  0  0  0  0  0  0  0  0
  152.0028  144.2937  159.1841 C   0  0  0  0  0  0  0  0  0  0  0  0
  152.5708  143.4176  160.1962 N   0  0  0  0  0  0  0  0  0  0  0  0
  152.4678  143.5125  161.5676 C   0  0  0  0  0  0  0  0  0  0  0  0
  153.1673  142.4682  162.0999 C   0  0  0  0  0  0  0  0  0  0  0  0
  153.6751  141.7748  160.9628 C   0  0  0  0  0  0  0  0  0  0  0  0
  154.5266  140.5327  160.9299 C   0  0  0  0  0  0  0  0  0  0  0  0
  153.8457  139.5193  160.3945 F   0  0  0  0  0  0  0  0  0  0  0  0
  155.6194  140.7497  160.1981 F   0  0  0  0  0  0  0  0  0  0  0  0
  154.8912  140.1969  162.1674 F   0  0  0  0  0  0  0  0  0  0  0  0
  153.3110  142.3509  159.8246 N   0  0  0  0  0  0  0  0  0  0  0  0
  149.8157  144.6683  160.1886 N   0  0  0  0  0  0  0  0  0  0  0  0
  148.6734  145.3753  160.7580 C   0  0  0  0  0  0  0  0  0  0  0  0
  147.3324  144.7644  160.3090 C   0  0  2  0  0  0  0  0  0  0  0  0
  146.3572  144.4742  161.4332 C   0  0  0  0  0  0  0  0  0  0  0  0
  145.4105  143.4800  160.7703 C   0  0  0  0  0  0  0  0  0  0  0  0
  146.2189  142.7244  159.8740 O   0  0  0  0  0  0  0  0  0  0  0  0
  147.4648  143.3843  159.6629 C   0  0  0  0  0  0  0  0  0  0  0  0
  151.5688  143.6859  158.3885 H   0  0  0  0  0  0  0  0  0  0  0  0
  152.8101  144.8766  158.7395 H   0  0  0  0  0  0  0  0  0  0  0  0
  151.9104  144.3055  162.0442 H   0  0  0  0  0  0  0  0  0  0  0  0
  153.2975  142.2338  163.1460 H   0  0  0  0  0  0  0  0  0  0  0  0
  149.7463  143.6624  160.1308 H   0  0  0  0  0  0  0  0  0  0  0  0
  148.7411  145.3773  161.8472 H   0  0  0  0  0  0  0  0  0  0  0  0
  148.7342  146.4182  160.4453 H   0  0  0  0  0  0  0  0  0  0  0  0
  146.8474  145.4321  159.5943 H   0  0  0  0  0  0  0  0  0  0  0  0
  146.8698  144.0018  162.2726 H   0  0  0  0  0  0  0  0  0  0  0  0
  145.8460  145.3649  161.7997 H   0  0  0  0  0  0  0  0  0  0  0  0
  144.9040  142.8379  161.4913 H   0  0  0  0  0  0  0  0  0  0  0  0
  144.6511  144.0075  160.1919 H   0  0  0  0  0  0  0  0  0  0  0  0
  147.7056  143.4457  158.6013 H   0  0  0  0  0  0  0  0  0  0  0  0
  148.2455  142.7993  160.1511 H   0  0  0  0  0  0  0  0  0  0  0  0
  1  2  2  0  0  0  0
  2  3  1  0  0  0  0
  2 13  1  0  0  0  0
  3  4  1  0  0  0  0
  3 20  1  0  0  0  0
  3 21  1  0  0  0  0
  4 12  1  0  0  0  0
  4  5  1  0  0  0  0
  5  6  2  0  0  0  0
  5 22  1  0  0  0  0
  6  7  1  0  0  0  0
  6 23  1  0  0  0  0
  7  8  1  0  0  0  0
  7 12  2  0  0  0  0
  8  9  1  0  0  0  0
  8 10  1  0  0  0  0
  8 11  1  0  0  0  0
 13 14  1  0  0  0  0
 13 24  1  0  0  0  0
 14 15  1  0  0  0  0
 14 25  1  0  0  0  0
 14 26  1  0  0  0  0
 15 19  1  0  0  0  0
 15 16  1  0  0  0  0
 15 27  1  0  0  0  0
 16 17  1  0  0  0  0
 16 28  1  0  0  0  0
 16 29  1  0  0  0  0
 17 18  1  0  0  0  0
 17 30  1  0  0  0  0
 17 31  1  0  0  0  0
 18 19  1  0  0  0  0
 19 32  1  0  0  0  0
 19 33  1  0  0  0  0
M  END
> <s_m_source_file>
AV-unprocessed.smi

> <i_m_source_file_index>
1189

> <i_lp_mmshare_version>
43012

> <i_f3d_flags>
0

> <s_epik_input>
W0NIMl0xT1tDSDJdW0NIMl1bQ0BIXTFbQ0gyXVtOSF1DKD1PKVtDSDJdbjJbY0hdW2NIXWMobjIpQyhGKShGKUY=

> <s_epik_cmdline>
J2VwaWtfcHl0aG9uJywgJy1waCcsICc3LjAnLCAnLXRuJywgJzgnLCAnLW1hJywgJzIwMCcsICctbWV0YWxfYmluZGluZycsICctaW1hZScsICc8aW5maWxlLm1hZT4nLCAnLW9tYWUnLCAnPG91dGZpbGUubWFlPic=

> <r_lp_tautomer_probability>
1

> <r_epik_Ionization_Penalty>
1.26564e-07

> <r_epik_Ionization_Penalty_Charging>
0

> <r_epik_Ionization_Penalty_Neutral>
1.26564e-07

> <r_epik_State_Penalty>
-0

> <r_epik_Charging_Adjusted_Penalty>
0

> <i_epik_Tot_Q>
0

> <i_epik_Tot_abs_Q>
0

> <r_epik_Metal_State_Penalty>
-0

> <b_epik_Metal_Only>
0

> <s_lp_Force_Field>
OPLS_2005

> <r_lp_Energy>
21.601

> <b_lp_Chiralities_Consistent>
1

> <s_lp_Variant>
AV-unprocessed.smi:1189-1

> <Gold.Version>
5.8.1

> <Gold.Id.Protein>
6NUR|6NUR_protein|mol2

> <Gold.PLP.Fitness>
45.0135

> <Gold.PLP.PLP>
-45.0471

> <Gold.PLP.part.hbond>
-2.9053

> <Gold.PLP.part.metal>
0.0000

> <Gold.PLP.part.buried>
-4.0005

> <Gold.PLP.part.nonpolar>
-39.1699

> <Gold.PLP.part.repulsive>
0.4618

> <Gold.PLP.ligand.clash>
0.7330

> <Gold.PLP.ligand.torsion>
1.1449

> <Gold.PLP.Chemscore.Hbond>
0.9913

> <Gold.PLP.Chemscore.CHOScore>
0.0000

> <Gold.PLP.Chemscore.Metal>
0.0000

> <Gold.Chemscore.Hbonds>
donor molecule, donor type, donor heavy atom, donor atom, acceptor molecule, acceptor atom, score
      P1  H  6934  6946       L1    18  0.68

> <Gold.PLP.Chemscore.Internal.Correction>
0.0156

> <Gold.Rescore>
     Score         DG    S(hbond)    S(metal)    S(lipo)     H(rot)  DE(clash)    DE(int)     intcor
      8.50      -9.71       0.00        0.00      77.58       1.89       0.38       0.83       ----

> <Gold.Chemscore.Fitness>
8.5038

> <Gold.Chemscore.DG>
-9.7118

> <Gold.Chemscore.ZeroCoef>
-5.4800

> <Gold.Chemscore.Hbond>
0.0000

> <Gold.Chemscore.Metal>
0.0000

> <Gold.Chemscore.Lipo>
77.5833

> <Gold.Chemscore.Internal_Hbond>
0.0000

> <Gold.Chemscore.DEClash>
0.3818

> <Gold.Chemscore.DEInternal>
0.8261

> <Gold.Chemscore.Rot>
1.8928

> <Gold.Chemscore.Internal.Correction>
   9.000000E+99

> <Gold.Chemscore.Hbonds>
donor molecule, donor type, donor heavy atom, donor atom, acceptor molecule, acceptor atom, score
      P1  H  6934  6946       L1    18  0.15

> <Gold.Chemscore.Hbond.Weighted>
-0.0000

> <Gold.Chemscore.Metal.Weighted>
-0.0000

> <Gold.Chemscore.Lipo.Weighted>
-9.0772

> <Gold.Chemscore.Internal_Hbond.Weighted>
0.0000

> <Gold.Chemscore.DEClash.Weighted>
0.3818

> <Gold.Chemscore.DEInternal.Weighted>
0.8261

> <Gold.Chemscore.Rot.Weighted>
4.8455

> <Gold.Chemscore.Internal.Correction.Weighted>
   9.000000E+99

> <Gold.Protein.RotatedTorsions>
[ 6907 6896 6895 6894 ] final -104.16 input  -60.11 | X-H torsion
[ 7974 7965 7964 7962 ] final    9.74 input  175.53 | X-H torsion
[ 8008 7997 7996 7995 ] final  -47.46 input   59.86 | X-H torsion
[ 10167 10162 10161 10158 ] final  -52.94 input  -65.29 | X-H torsion
[ 10718 10713 10712 10709 ] final  -99.80 input   66.30 | X-H torsion
[ 10763 10752 10751 10750 ] final -121.04 input  -60.55 | X-H torsion
[ 11005 11000 10999 10996 ] final  -52.40 input  -57.11 | X-H torsion

> <Gold.Protein.ActiveResidues>
 VAL166  LYS551  ARG553  GLY616  TRP617  ASP618  TYR619  PRO620  LYS621  CYS622 
 ASP623  PHE694  ASN695  SER759  ASP760  ASP761  ALA762  ILE779  LEU786  VAL792 
 PHE793  MET794  SER795  GLU796  ALA797  LYS798  CYS799  TRP800  GLU811  SER814 

> <Gold.Protein.RotatedAtoms>
  150.7274  134.0320  159.3736 H   0  0  0  0  0  0  0  0  0  0  0  0  # atno 6907 bound_to 6896
  151.8290  135.0625  160.0444 H   0  0  0  0  0  0  0  0  0  0  0  0  # atno 6908 bound_to 6896
  152.2947  133.5560  159.5616 H   0  0  0  0  0  0  0  0  0  0  0  0  # atno 6909 bound_to 6896
  146.2399  139.9738  142.8444 H   0  0  0  0  0  0  0  0  0  0  0  0  # atno 7974 bound_to 7965
  154.4017  140.1346  156.4178 H   0  0  0  0  0  0  0  0  0  0  0  0  # atno 8008 bound_to 7997
  155.7671  140.3485  155.5208 H   0  0  0  0  0  0  0  0  0  0  0  0  # atno 8009 bound_to 7997
  155.8802  140.0986  157.1480 H   0  0  0  0  0  0  0  0  0  0  0  0  # atno 8010 bound_to 7997
  140.6511  143.2567  151.4720 H   0  0  0  0  0  0  0  0  0  0  0  0  # atno 10167 bound_to 10162
  156.0144  130.5299  150.6724 H   0  0  0  0  0  0  0  0  0  0  0  0  # atno 10718 bound_to 10713
  154.8659  135.4182  154.2556 H   0  0  0  0  0  0  0  0  0  0  0  0  # atno 10763 bound_to 10752
  153.3494  135.6998  153.6807 H   0  0  0  0  0  0  0  0  0  0  0  0  # atno 10764 bound_to 10752
  153.5753  135.3583  155.2826 H   0  0  0  0  0  0  0  0  0  0  0  0  # atno 10765 bound_to 10752
  141.0922  133.6630  156.4018 H   0  0  0  0  0  0  0  0  0  0  0  0  # atno 11005 bound_to 11000
  145.1656  140.9695  143.4351 LP  0  0  0  0  0  0  0  0  0  0  0  0  # atno 17320 bound_to 7965
  145.0076  139.3540  143.6136 LP  0  0  0  0  0  0  0  0  0  0  0  0  # atno 17321 bound_to 7965
  139.5726  144.1892  152.1859 LP  0  0  0  0  0  0  0  0  0  0  0  0  # atno 17342 bound_to 10162
  140.1193  144.5388  150.6873 LP  0  0  0  0  0  0  0  0  0  0  0  0  # atno 17343 bound_to 10162
  157.4444  131.0865  151.0911 LP  0  0  0  0  0  0  0  0  0  0  0  0  # atno 17370 bound_to 10713
  157.1445  130.6157  149.5564 LP  0  0  0  0  0  0  0  0  0  0  0  0  # atno 17371 bound_to 10713
  140.5225  134.6290  157.5323 LP  0  0  0  0  0  0  0  0  0  0  0  0  # atno 17394 bound_to 11000
  139.9750  134.7230  155.9967 LP  0  0  0  0  0  0  0  0  0  0  0  0  # atno 17395 bound_to 11000

$$$$
