AV-unprocessed.smi:3023|AV-procd|sdf|11502|dock9
  -GOLD-   2272016433D 1   1.00000     0.00000
 Structure written by MMmdl.
 43 44  0  0  0  0  0  0  0  0  2 V2000
  145.2151  137.5153  152.8860 C   0  0  0  0  0  0  0  0  0  0  0  0
  145.7700  138.7709  153.4404 N   0  3  1  0  0  0  0  0  0  0  0  0
  146.2240  138.6024  154.8480 C   0  0  0  0  0  0  0  0  0  0  0  0
  145.9447  139.8404  155.7284 C   0  0  0  0  0  0  0  0  0  0  0  0
  146.3296  141.2000  155.1118 C   0  0  0  0  0  0  0  0  0  0  0  0
  147.4845  141.0803  154.2089 N   0  0  0  0  0  0  0  0  0  0  0  0
  148.7850  141.0668  154.5972 C   0  0  0  0  0  0  0  0  0  0  0  0
  149.7226  141.1126  153.8002 O   0  0  0  0  0  0  0  0  0  0  0  0
  148.9695  141.0131  155.9288 N   0  0  0  0  0  0  0  0  0  0  0  0
  150.2569  141.0760  156.6175 C   0  0  0  0  0  0  0  0  0  0  0  0
  150.7887  142.5185  156.7065 C   0  0  0  0  0  0  0  0  0  0  0  0
  151.6540  142.7477  157.9177 C   0  0  0  0  0  0  0  0  0  0  0  0
  152.2369  143.9702  158.3584 C   0  0  0  0  0  0  0  0  0  0  0  0
  152.9205  143.8376  159.4833 N   0  0  0  0  0  0  0  0  0  0  0  0
  152.8042  142.5306  159.7951 N   0  0  0  0  0  0  0  0  0  0  0  0
  153.4358  142.0227  160.9940 C   0  0  0  0  0  0  0  0  0  0  0  0
  152.0485  141.8478  158.8673 C   0  0  0  0  0  0  0  0  0  0  0  0
  147.1000  140.8397  152.8120 C   0  0  0  0  0  0  0  0  0  0  0  0
  146.8132  139.3481  152.5447 C   0  0  0  0  0  0  0  0  0  0  0  0
  145.9800  136.7391  152.8370 H   0  0  0  0  0  0  0  0  0  0  0  0
  144.8226  137.6738  151.8810 H   0  0  0  0  0  0  0  0  0  0  0  0
  144.3927  137.1502  153.5021 H   0  0  0  0  0  0  0  0  0  0  0  0
  145.7138  137.7552  155.3090 H   0  0  0  0  0  0  0  0  0  0  0  0
  147.2842  138.3450  154.8689 H   0  0  0  0  0  0  0  0  0  0  0  0
  144.8877  139.8675  155.9959 H   0  0  0  0  0  0  0  0  0  0  0  0
  146.4815  139.7121  156.6690 H   0  0  0  0  0  0  0  0  0  0  0  0
  145.4689  141.5868  154.5651 H   0  0  0  0  0  0  0  0  0  0  0  0
  146.5011  141.9413  155.8938 H   0  0  0  0  0  0  0  0  0  0  0  0
  148.1477  140.9739  156.5137 H   0  0  0  0  0  0  0  0  0  0  0  0
  150.1299  140.6698  157.6211 H   0  0  0  0  0  0  0  0  0  0  0  0
  150.9941  140.4395  156.1254 H   0  0  0  0  0  0  0  0  0  0  0  0
  151.3453  142.7436  155.7962 H   0  0  0  0  0  0  0  0  0  0  0  0
  149.9427  143.2066  156.7066 H   0  0  0  0  0  0  0  0  0  0  0  0
  152.1722  144.9470  157.9023 H   0  0  0  0  0  0  0  0  0  0  0  0
  153.4838  140.9339  160.9572 H   0  0  0  0  0  0  0  0  0  0  0  0
  152.8584  142.3243  161.8685 H   0  0  0  0  0  0  0  0  0  0  0  0
  154.4488  142.4175  161.0792 H   0  0  0  0  0  0  0  0  0  0  0  0
  151.8467  140.7911  158.9634 H   0  0  0  0  0  0  0  0  0  0  0  0
  146.2229  141.4327  152.5507 H   0  0  0  0  0  0  0  0  0  0  0  0
  147.8752  141.1888  152.1275 H   0  0  0  0  0  0  0  0  0  0  0  0
  147.7310  138.7630  152.6235 H   0  0  0  0  0  0  0  0  0  0  0  0
  146.4866  139.2560  151.5082 H   0  0  0  0  0  0  0  0  0  0  0  0
  144.9993  139.4236  153.4565 H   0  0  0  0  0  0  0  0  0  0  0  0
  1  2  1  0  0  0  0
  1 20  1  0  0  0  0
  1 21  1  0  0  0  0
  1 22  1  0  0  0  0
  2 19  1  0  0  0  0
  2  3  1  0  0  0  0
  2 43  1  0  0  0  0
  3  4  1  0  0  0  0
  3 23  1  0  0  0  0
  3 24  1  0  0  0  0
  4  5  1  0  0  0  0
  4 25  1  0  0  0  0
  4 26  1  0  0  0  0
  5  6  1  0  0  0  0
  5 27  1  0  0  0  0
  5 28  1  0  0  0  0
  6  7  1  0  0  0  0
  6 18  1  0  0  0  0
  7  8  2  0  0  0  0
  7  9  1  0  0  0  0
  9 10  1  0  0  0  0
  9 29  1  0  0  0  0
 10 11  1  0  0  0  0
 10 30  1  0  0  0  0
 10 31  1  0  0  0  0
 11 12  1  0  0  0  0
 11 32  1  0  0  0  0
 11 33  1  0  0  0  0
 12 17  2  0  0  0  0
 12 13  1  0  0  0  0
 13 14  2  0  0  0  0
 13 34  1  0  0  0  0
 14 15  1  0  0  0  0
 15 16  1  0  0  0  0
 15 17  1  0  0  0  0
 16 35  1  0  0  0  0
 16 36  1  0  0  0  0
 16 37  1  0  0  0  0
 17 38  1  0  0  0  0
 18 19  1  0  0  0  0
 18 39  1  0  0  0  0
 18 40  1  0  0  0  0
 19 41  1  0  0  0  0
 19 42  1  0  0  0  0
M  CHG  1   2   1
M  END
> <s_m_source_file>
AV-unprocessed.smi

> <i_m_source_file_index>
3023

> <i_lp_mmshare_version>
43012

> <i_f3d_flags>
0

> <s_epik_input>
W0NIM11OMVtDSDJdW0NIMl1bQ0gyXU4oW0NIMl1bQ0gyXTEpQyg9TylbTkhdW0NIMl1bQ0gyXWMyW2NIXW5uKFtDSDNdKVtjSF0y

> <s_epik_cmdline>
J2VwaWtfcHl0aG9uJywgJy1waCcsICc3LjAnLCAnLXRuJywgJzgnLCAnLW1hJywgJzIwMCcsICctbWV0YWxfYmluZGluZycsICctaW1hZScsICc8aW5maWxlLm1hZT4nLCAnLW9tYWUnLCAnPG91dGZpbGUubWFlPic=

> <r_lp_tautomer_probability>
1

> <r_epik_Ionization_Penalty>
0.00258886

> <r_epik_Ionization_Penalty_Charging>
0.00208099

> <r_epik_Ionization_Penalty_Neutral>
0.00050787

> <r_epik_State_Penalty>
-0

> <r_epik_Charging_Adjusted_Penalty>
0.00208099

> <i_epik_Tot_Q>
1

> <i_epik_Tot_abs_Q>
1

> <r_epik_Metal_State_Penalty>
-0

> <b_epik_Metal_Only>
0

> <s_lp_Force_Field>
OPLS_2005

> <r_lp_Energy>
39.0301

> <b_lp_Chiralities_Consistent>
1

> <s_lp_Variant>
AV-unprocessed.smi:3023-2

> <Gold.Version>
5.8.1

> <Gold.Id.Protein>
6NUR|6NUR_protein|mol2

> <Gold.PLP.Fitness>
43.9872

> <Gold.PLP.PLP>
-34.9807

> <Gold.PLP.part.hbond>
-3.0000

> <Gold.PLP.part.metal>
0.0000

> <Gold.PLP.part.buried>
-1.9350

> <Gold.PLP.part.nonpolar>
-31.2295

> <Gold.PLP.part.repulsive>
1.8412

> <Gold.PLP.ligand.clash>
0.0000

> <Gold.PLP.ligand.torsion>
0.3792

> <Gold.PLP.Chemscore.Hbond>
3.2480

> <Gold.PLP.Chemscore.CHOScore>
0.0000

> <Gold.PLP.Chemscore.Metal>
0.0000

> <Gold.Chemscore.Hbonds>
donor molecule, donor type, donor heavy atom, donor atom, acceptor molecule, acceptor atom, score
      L1  H     2    43       P1 10175  1.95
      P1  H  7989  7998       L1     8  0.32
      P1  H  8011  8017       L1     8  0.88

> <Gold.PLP.Chemscore.Internal.Correction>
0.0210

> <Gold.Rescore>
     Score         DG    S(hbond)    S(metal)    S(lipo)     H(rot)  DE(clash)    DE(int)     intcor
     17.37     -19.21       2.20        0.00      84.97       1.39       1.51       0.33       ----

> <Gold.Chemscore.Fitness>
17.3695

> <Gold.Chemscore.DG>
-19.2053

> <Gold.Chemscore.ZeroCoef>
-5.4800

> <Gold.Chemscore.Hbond>
2.1988

> <Gold.Chemscore.Metal>
0.0000

> <Gold.Chemscore.Lipo>
84.9681

> <Gold.Chemscore.Internal_Hbond>
0.0000

> <Gold.Chemscore.DEClash>
1.5061

> <Gold.Chemscore.DEInternal>
0.3297

> <Gold.Chemscore.Rot>
1.3906

> <Gold.Chemscore.Internal.Correction>
   9.000000E+99

> <Gold.Chemscore.Hbonds>
donor molecule, donor type, donor heavy atom, donor atom, acceptor molecule, acceptor atom, score
      L1  H     2    43       P1 10175  0.92
      P1  H  7989  7998       L1     8  0.32
      P1  H  8011  8017       L1     8  0.85

> <Gold.Chemscore.Hbond.Weighted>
-7.3439

> <Gold.Chemscore.Metal.Weighted>
-0.0000

> <Gold.Chemscore.Lipo.Weighted>
-9.9413

> <Gold.Chemscore.Internal_Hbond.Weighted>
0.0000

> <Gold.Chemscore.DEClash.Weighted>
1.5061

> <Gold.Chemscore.DEInternal.Weighted>
0.3297

> <Gold.Chemscore.Rot.Weighted>
3.5598

> <Gold.Chemscore.Internal.Correction.Weighted>
   9.000000E+99

> <Gold.Protein.RotatedTorsions>
[ 6907 6896 6895 6894 ] final  168.67 input  -60.11 | X-H torsion
[ 7974 7965 7964 7962 ] final   50.93 input  175.53 | X-H torsion
[ 8008 7997 7996 7995 ] final -162.86 input   59.86 | X-H torsion
[ 10167 10162 10161 10158 ] final  -72.66 input  -65.29 | X-H torsion
[ 10718 10713 10712 10709 ] final -126.02 input   66.30 | X-H torsion
[ 10763 10752 10751 10750 ] final -137.65 input  -60.55 | X-H torsion
[ 11005 11000 10999 10996 ] final  -94.54 input  -57.11 | X-H torsion

> <Gold.Protein.ActiveResidues>
 VAL166  LYS551  ARG553  GLY616  TRP617  ASP618  TYR619  PRO620  LYS621  CYS622 
 ASP623  PHE694  ASN695  SER759  ASP760  ASP761  ALA762  ILE779  LEU786  VAL792 
 PHE793  MET794  SER795  GLU796  ALA797  LYS798  CYS799  TRP800  GLU811  SER814 

> <Gold.Protein.RotatedAtoms>
  151.8439  133.3428  159.3651 H   0  0  0  0  0  0  0  0  0  0  0  0  # atno 6907 bound_to 6896
  150.7226  134.5364  159.5735 H   0  0  0  0  0  0  0  0  0  0  0  0  # atno 6908 bound_to 6896
  152.2844  134.7793  160.0441 H   0  0  0  0  0  0  0  0  0  0  0  0  # atno 6909 bound_to 6896
  145.9964  139.4392  143.0042 H   0  0  0  0  0  0  0  0  0  0  0  0  # atno 7974 bound_to 7965
  155.8130  140.0908  157.1893 H   0  0  0  0  0  0  0  0  0  0  0  0  # atno 8008 bound_to 7997
  154.3979  140.1451  156.3469 H   0  0  0  0  0  0  0  0  0  0  0  0  # atno 8009 bound_to 7997
  155.8345  140.3441  155.5596 H   0  0  0  0  0  0  0  0  0  0  0  0  # atno 8010 bound_to 7997
  140.5174  143.2336  151.7489 H   0  0  0  0  0  0  0  0  0  0  0  0  # atno 10167 bound_to 10162
  156.1727  130.6678  151.0201 H   0  0  0  0  0  0  0  0  0  0  0  0  # atno 10718 bound_to 10713
  154.8656  135.3635  154.5258 H   0  0  0  0  0  0  0  0  0  0  0  0  # atno 10763 bound_to 10752
  153.5886  135.7016  153.5437 H   0  0  0  0  0  0  0  0  0  0  0  0  # atno 10764 bound_to 10752
  153.3393  135.4102  155.1521 H   0  0  0  0  0  0  0  0  0  0  0  0  # atno 10765 bound_to 10752
  141.1467  133.7963  157.0312 H   0  0  0  0  0  0  0  0  0  0  0  0  # atno 11005 bound_to 11000
  145.7554  140.9956  143.1228 LP  0  0  0  0  0  0  0  0  0  0  0  0  # atno 17320 bound_to 7965
  144.6905  139.9265  143.7470 LP  0  0  0  0  0  0  0  0  0  0  0  0  # atno 17321 bound_to 7965
  139.4913  144.4304  151.9878 LP  0  0  0  0  0  0  0  0  0  0  0  0  # atno 17342 bound_to 10162
  140.3399  144.3216  150.5969 LP  0  0  0  0  0  0  0  0  0  0  0  0  # atno 17343 bound_to 10162
  157.6814  131.0837  150.7359 LP  0  0  0  0  0  0  0  0  0  0  0  0  # atno 17370 bound_to 10713
  156.7418  130.4741  149.5476 LP  0  0  0  0  0  0  0  0  0  0  0  0  # atno 17371 bound_to 10713
  140.0753  134.9679  157.1535 LP  0  0  0  0  0  0  0  0  0  0  0  0  # atno 17394 bound_to 11000
  140.3653  134.2449  155.7183 LP  0  0  0  0  0  0  0  0  0  0  0  0  # atno 17395 bound_to 11000

$$$$
