AV-unprocessed.smi:2090|AV-procd|sdf|8536|dock10
  -GOLD-   2272011253D 1   1.00000     0.00000
 Structure written by MMmdl.
 41 42  0  0  0  0  0  0  0  0  3 V2000
  150.8989  141.9079  157.7434 C   0  0  0  0  0  0  0  0  0  0  0  0
  150.5392  141.2278  156.4671 C   0  0  0  0  0  0  0  0  0  0  0  0
  149.4388  141.2895  155.6594 C   0  0  0  0  0  0  0  0  0  0  0  0
  149.7584  140.3854  154.6114 C   0  0  0  0  0  0  0  0  0  0  0  0
  148.8489  140.1649  153.5431 N   0  0  0  0  0  0  0  0  0  0  0  0
  147.5498  140.5050  153.4592 C   0  0  0  0  0  0  0  0  0  0  0  0
  146.9959  141.0931  154.3961 O   0  0  0  0  0  0  0  0  0  0  0  0
  146.9909  140.1224  152.2775 N   0  5  0  0  0  0  0  0  0  0  0  0
  146.9688  138.7504  151.7726 C   0  0  0  0  0  0  0  0  0  0  0  0
  146.3512  137.8054  152.8234 C   0  0  0  0  0  0  0  0  0  0  0  0
  146.3310  136.3949  152.3538 N   0  3  2  0  0  0  0  0  0  0  0  0
  145.3873  136.1600  151.2254 C   0  0  0  0  0  0  0  0  0  0  0  0
  145.5170  134.7271  150.6833 C   0  0  0  0  0  0  0  0  0  0  0  0
  145.2893  133.6887  151.7946 C   0  0  1  0  0  0  0  0  0  0  0  0
  145.4414  132.2533  151.2722 C   0  0  0  0  0  0  0  0  0  0  0  0
  146.2499  133.9762  152.9604 C   0  0  0  0  0  0  0  0  0  0  0  0
  146.1089  135.4249  153.4574 C   0  0  0  0  0  0  0  0  0  0  0  0
  150.9473  139.8219  154.7677 N   0  0  0  0  0  0  0  0  0  0  0  0
  151.4531  140.3580  155.9577 O   0  0  0  0  0  0  0  0  0  0  0  0
  150.3484  142.8423  157.8541 H   0  0  0  0  0  0  0  0  0  0  0  0
  151.9640  142.1385  157.7746 H   0  0  0  0  0  0  0  0  0  0  0  0
  150.6642  141.2729  158.5978 H   0  0  0  0  0  0  0  0  0  0  0  0
  148.5495  141.8865  155.7967 H   0  0  0  0  0  0  0  0  0  0  0  0
  149.2290  139.6880  152.7388 H   0  0  0  0  0  0  0  0  0  0  0  0
  146.4109  138.6664  150.8392 H   0  0  0  0  0  0  0  0  0  0  0  0
  147.9750  138.4021  151.5387 H   0  0  0  0  0  0  0  0  0  0  0  0
  146.9431  137.8859  153.7364 H   0  0  0  0  0  0  0  0  0  0  0  0
  145.3418  138.1196  153.0944 H   0  0  0  0  0  0  0  0  0  0  0  0
  144.3649  136.3419  151.5607 H   0  0  0  0  0  0  0  0  0  0  0  0
  145.5823  136.8668  150.4180 H   0  0  0  0  0  0  0  0  0  0  0  0
  144.7992  134.5748  149.8767 H   0  0  0  0  0  0  0  0  0  0  0  0
  146.5072  134.5926  150.2452 H   0  0  0  0  0  0  0  0  0  0  0  0
  144.2677  133.8011  152.1610 H   0  0  0  0  0  0  0  0  0  0  0  0
  146.4445  132.0754  150.8830 H   0  0  0  0  0  0  0  0  0  0  0  0
  144.7323  132.0513  150.4690 H   0  0  0  0  0  0  0  0  0  0  0  0
  145.2575  131.5263  152.0638 H   0  0  0  0  0  0  0  0  0  0  0  0
  146.0569  133.2867  153.7831 H   0  0  0  0  0  0  0  0  0  0  0  0
  147.2792  133.7996  152.6443 H   0  0  0  0  0  0  0  0  0  0  0  0
  146.8354  135.5994  154.2522 H   0  0  0  0  0  0  0  0  0  0  0  0
  145.1193  135.5833  153.8896 H   0  0  0  0  0  0  0  0  0  0  0  0
  147.2604  136.2113  152.0036 H   0  0  0  0  0  0  0  0  0  0  0  0
  1  2  1  0  0  0  0
  1 20  1  0  0  0  0
  1 21  1  0  0  0  0
  1 22  1  0  0  0  0
  2 19  1  0  0  0  0
  2  3  2  0  0  0  0
  3  4  1  0  0  0  0
  3 23  1  0  0  0  0
  4  5  1  0  0  0  0
  4 18  2  0  0  0  0
  5  6  1  0  0  0  0
  5 24  1  0  0  0  0
  6  7  2  0  0  0  0
  6  8  1  0  0  0  0
  8  9  1  0  0  0  0
  9 10  1  0  0  0  0
  9 25  1  0  0  0  0
  9 26  1  0  0  0  0
 10 11  1  0  0  0  0
 10 27  1  0  0  0  0
 10 28  1  0  0  0  0
 11 17  1  0  0  0  0
 11 12  1  0  0  0  0
 11 41  1  0  0  0  0
 12 13  1  0  0  0  0
 12 29  1  0  0  0  0
 12 30  1  0  0  0  0
 13 14  1  0  0  0  0
 13 31  1  0  0  0  0
 13 32  1  0  0  0  0
 14 15  1  0  0  0  0
 14 16  1  0  0  0  0
 14 33  1  0  0  0  0
 15 34  1  0  0  0  0
 15 35  1  0  0  0  0
 15 36  1  0  0  0  0
 16 17  1  0  0  0  0
 16 37  1  0  0  0  0
 16 38  1  0  0  0  0
 17 39  1  0  0  0  0
 17 40  1  0  0  0  0
 18 19  1  0  0  0  0
M  CHG  1   8  -1
M  CHG  1  11   1
M  END
> <s_m_source_file>
AV-unprocessed.smi

> <i_m_source_file_index>
2090

> <i_lp_mmshare_version>
43012

> <i_f3d_flags>
0

> <s_epik_input>
W0NIM11jMVtjSF1jKG5vMSlbTkhdQyg9TylbTkhdW0NIMl1bQ0gyXU4yW0NIMl1bQ0gyXVtDSF0oW0NIM10pW0NIMl1bQ0gyXTI=

> <s_epik_cmdline>
J2VwaWtfcHl0aG9uJywgJy1waCcsICc3LjAnLCAnLXRuJywgJzgnLCAnLW1hJywgJzIwMCcsICctbWV0YWxfYmluZGluZycsICctaW1hZScsICc8aW5maWxlLm1hZT4nLCAnLW9tYWUnLCAnPG91dGZpbGUubWFlPic=

> <r_epik_Ionization_Penalty>
6.7721

> <r_epik_Ionization_Penalty_Charging>
6.7721

> <r_epik_Ionization_Penalty_Neutral>
5.78572e-06

> <r_epik_State_Penalty>
6.79704

> <r_epik_Charging_Adjusted_Penalty>
13.5691

> <i_epik_Tot_Q>
0

> <i_epik_Tot_abs_Q>
2

> <r_epik_Metal_State_Penalty>
2.73105

> <b_epik_Metal_Only>
1

> <s_lp_Force_Field>
OPLS_2005

> <r_lp_Energy>
11.0836

> <b_lp_Chiralities_Consistent>
1

> <s_lp_Variant>
AV-unprocessed.smi:2090-5

> <Gold.Version>
5.8.1

> <Gold.Id.Protein>
6NUR|6NUR_protein|mol2

> <Gold.PLP.Fitness>
44.2932

> <Gold.PLP.PLP>
-33.8478

> <Gold.PLP.part.hbond>
-3.7564

> <Gold.PLP.part.metal>
0.0000

> <Gold.PLP.part.buried>
-2.9503

> <Gold.PLP.part.nonpolar>
-28.6809

> <Gold.PLP.part.repulsive>
1.4030

> <Gold.PLP.ligand.clash>
0.0000

> <Gold.PLP.ligand.torsion>
0.6682

> <Gold.PLP.Chemscore.Hbond>
3.9120

> <Gold.PLP.Chemscore.CHOScore>
0.0000

> <Gold.PLP.Chemscore.Metal>
0.0000

> <Gold.Chemscore.Hbonds>
donor molecule, donor type, donor heavy atom, donor atom, acceptor molecule, acceptor atom, score
      L1  H     5    24       P1  7957  0.77
      L1  H    11    41       P1  7948  2.00
      P1  H  7989  7998       L1    18  0.55

> <Gold.PLP.Chemscore.Internal.Correction>
0.0459

> <Gold.Rescore>
     Score         DG    S(hbond)    S(metal)    S(lipo)     H(rot)  DE(clash)    DE(int)     intcor
     15.11     -18.02       2.70        0.00      63.92       1.54       0.84       2.06       ----

> <Gold.Chemscore.Fitness>
15.1113

> <Gold.Chemscore.DG>
-18.0188

> <Gold.Chemscore.ZeroCoef>
-5.4800

> <Gold.Chemscore.Hbond>
2.6960

> <Gold.Chemscore.Metal>
0.0000

> <Gold.Chemscore.Lipo>
63.9208

> <Gold.Chemscore.Internal_Hbond>
0.0000

> <Gold.Chemscore.DEClash>
0.8441

> <Gold.Chemscore.DEInternal>
2.0634

> <Gold.Chemscore.Rot>
1.5409

> <Gold.Chemscore.Internal.Correction>
   9.000000E+99

> <Gold.Chemscore.Hbonds>
donor molecule, donor type, donor heavy atom, donor atom, acceptor molecule, acceptor atom, score
      L1  H     5    24       P1  7957  0.76
      L1  H    11    41       P1  7948  1.00
      P1  H  7989  7998       L1    18  0.01

> <Gold.Chemscore.Hbond.Weighted>
-9.0047

> <Gold.Chemscore.Metal.Weighted>
-0.0000

> <Gold.Chemscore.Lipo.Weighted>
-7.4787

> <Gold.Chemscore.Internal_Hbond.Weighted>
0.0000

> <Gold.Chemscore.DEClash.Weighted>
0.8441

> <Gold.Chemscore.DEInternal.Weighted>
2.0634

> <Gold.Chemscore.Rot.Weighted>
3.9446

> <Gold.Chemscore.Internal.Correction.Weighted>
   9.000000E+99

> <Gold.Protein.RotatedTorsions>
[ 6907 6896 6895 6894 ] final -104.19 input  -60.11 | X-H torsion
[ 7974 7965 7964 7962 ] final   17.64 input  175.53 | X-H torsion
[ 8008 7997 7996 7995 ] final -123.36 input   59.86 | X-H torsion
[ 10167 10162 10161 10158 ] final   68.08 input  -65.29 | X-H torsion
[ 10718 10713 10712 10709 ] final  -59.88 input   66.30 | X-H torsion
[ 10763 10752 10751 10750 ] final   66.63 input  -60.55 | X-H torsion
[ 11005 11000 10999 10996 ] final  -10.08 input  -57.11 | X-H torsion

> <Gold.Protein.ActiveResidues>
 VAL166  LYS551  ARG553  GLY616  TRP617  ASP618  TYR619  PRO620  LYS621  CYS622 
 ASP623  PHE694  ASN695  SER759  ASP760  ASP761  ALA762  ILE779  LEU786  VAL792 
 PHE793  MET794  SER795  GLU796  ALA797  LYS798  CYS799  TRP800  GLU811  SER814 

> <Gold.Protein.RotatedAtoms>
  150.7275  134.0316  159.3734 H   0  0  0  0  0  0  0  0  0  0  0  0  # atno 6907 bound_to 6896
  151.8285  135.0627  160.0443 H   0  0  0  0  0  0  0  0  0  0  0  0  # atno 6908 bound_to 6896
  152.2951  133.5563  159.5619 H   0  0  0  0  0  0  0  0  0  0  0  0  # atno 6909 bound_to 6896
  146.2212  139.8573  142.8611 H   0  0  0  0  0  0  0  0  0  0  0  0  # atno 7974 bound_to 7965
  155.1792  140.0410  157.2879 H   0  0  0  0  0  0  0  0  0  0  0  0  # atno 8008 bound_to 7997
  154.6215  140.2502  155.7516 H   0  0  0  0  0  0  0  0  0  0  0  0  # atno 8009 bound_to 7997
  156.2436  140.2894  156.0525 H   0  0  0  0  0  0  0  0  0  0  0  0  # atno 8010 bound_to 7997
  140.0825  144.5058  150.7152 H   0  0  0  0  0  0  0  0  0  0  0  0  # atno 10167 bound_to 10162
  156.1030  130.4184  150.0777 H   0  0  0  0  0  0  0  0  0  0  0  0  # atno 10718 bound_to 10713
  153.0149  135.5313  154.6854 H   0  0  0  0  0  0  0  0  0  0  0  0  # atno 10763 bound_to 10752
  154.6003  135.2867  155.0544 H   0  0  0  0  0  0  0  0  0  0  0  0  # atno 10764 bound_to 10752
  154.1604  135.6548  153.5037 H   0  0  0  0  0  0  0  0  0  0  0  0  # atno 10765 bound_to 10752
  140.7410  133.8670  155.8968 H   0  0  0  0  0  0  0  0  0  0  0  0  # atno 11005 bound_to 11000
  145.2740  141.0118  143.3755 LP  0  0  0  0  0  0  0  0  0  0  0  0  # atno 17320 bound_to 7965
  144.9201  139.4422  143.6545 LP  0  0  0  0  0  0  0  0  0  0  0  0  # atno 17321 bound_to 7965
  140.7070  143.2476  151.4695 LP  0  0  0  0  0  0  0  0  0  0  0  0  # atno 17342 bound_to 10162
  139.5771  144.1794  152.1918 LP  0  0  0  0  0  0  0  0  0  0  0  0  # atno 17343 bound_to 10162
  156.8759  130.9540  151.3604 LP  0  0  0  0  0  0  0  0  0  0  0  0  # atno 17370 bound_to 10713
  157.6203  130.8650  149.9097 LP  0  0  0  0  0  0  0  0  0  0  0  0  # atno 17371 bound_to 10713
  140.9837  134.1372  157.4472 LP  0  0  0  0  0  0  0  0  0  0  0  0  # atno 17394 bound_to 11000
  139.8806  135.0018  156.6092 LP  0  0  0  0  0  0  0  0  0  0  0  0  # atno 17395 bound_to 11000

$$$$
