AV-unprocessed.smi:3081|AV-procd|sdf|11741|dock9
  -GOLD-   2272017133D 1   1.00000     0.00000
 Structure written by MMmdl.
 26 27  0  0  0  0  0  0  0  0  2 V2000
  154.9125  140.2716  159.7976 C   0  0  0  0  0  0  0  0  0  0  0  0
  154.1366  141.4381  159.9558 C   0  0  0  0  0  0  0  0  0  0  0  0
  152.8426  141.4102  159.3923 C   0  0  0  0  0  0  0  0  0  0  0  0
  151.9075  142.6066  159.4991 C   0  0  1  0  0  0  0  0  0  0  0  0
  152.6036  143.8404  160.1074 C   0  0  0  0  0  0  0  0  0  0  0  0
  151.6254  145.0225  160.1904 C   0  0  0  0  0  0  0  0  0  0  0  0
  150.9956  145.3125  158.8177 C   0  0  0  0  0  0  0  0  0  0  0  0
  150.3305  144.1047  158.2822 N   0  3  0  0  0  0  0  0  0  0  0  0
  151.2472  142.9509  158.1471 C   0  0  0  0  0  0  0  0  0  0  0  0
  152.3799  140.3193  158.7390 N   0  0  0  0  0  0  0  0  0  0  0  0
  153.2044  139.2718  158.6504 C   0  0  0  0  0  0  0  0  0  0  0  0
  154.4420  139.1876  159.1439 N   0  0  0  0  0  0  0  0  0  0  0  0
  155.9135  140.2081  160.1980 H   0  0  0  0  0  0  0  0  0  0  0  0
  154.5194  142.3013  160.4801 H   0  0  0  0  0  0  0  0  0  0  0  0
  151.1070  142.3207  160.1836 H   0  0  0  0  0  0  0  0  0  0  0  0
  152.9888  143.6061  161.1005 H   0  0  0  0  0  0  0  0  0  0  0  0
  153.4630  144.1264  159.4992 H   0  0  0  0  0  0  0  0  0  0  0  0
  150.8407  144.7993  160.9144 H   0  0  0  0  0  0  0  0  0  0  0  0
  152.1424  145.9089  160.5590 H   0  0  0  0  0  0  0  0  0  0  0  0
  150.2630  146.1153  158.8998 H   0  0  0  0  0  0  0  0  0  0  0  0
  151.7577  145.6465  158.1122 H   0  0  0  0  0  0  0  0  0  0  0  0
  149.5795  143.8479  158.9069 H   0  0  0  0  0  0  0  0  0  0  0  0
  152.0032  143.1896  157.3975 H   0  0  0  0  0  0  0  0  0  0  0  0
  150.6843  142.0962  157.7712 H   0  0  0  0  0  0  0  0  0  0  0  0
  152.8307  138.4039  158.1277 H   0  0  0  0  0  0  0  0  0  0  0  0
  149.9402  144.3199  157.3755 H   0  0  0  0  0  0  0  0  0  0  0  0
  1 12  1  0  0  0  0
  1  2  2  0  0  0  0
  1 13  1  0  0  0  0
  2  3  1  0  0  0  0
  2 14  1  0  0  0  0
  3  4  1  0  0  0  0
  3 10  2  0  0  0  0
  4  9  1  0  0  0  0
  4  5  1  0  0  0  0
  4 15  1  0  0  0  0
  5  6  1  0  0  0  0
  5 16  1  0  0  0  0
  5 17  1  0  0  0  0
  6  7  1  0  0  0  0
  6 18  1  0  0  0  0
  6 19  1  0  0  0  0
  7  8  1  0  0  0  0
  7 20  1  0  0  0  0
  7 21  1  0  0  0  0
  8  9  1  0  0  0  0
  8 22  1  0  0  0  0
  8 26  1  0  0  0  0
  9 23  1  0  0  0  0
  9 24  1  0  0  0  0
 10 11  1  0  0  0  0
 11 12  2  0  0  0  0
 11 25  1  0  0  0  0
M  CHG  1   8   1
M  END
> <s_m_source_file>
AV-unprocessed.smi

> <i_m_source_file_index>
3081

> <i_lp_mmshare_version>
43012

> <i_f3d_flags>
0

> <s_epik_input>
bjFbY0hdbltjSF1bY0hdYzFbQ0BASF0yW0NIMl1bQ0gyXVtDSDJdW05IXVtDSDJdMg==

> <s_epik_cmdline>
J2VwaWtfcHl0aG9uJywgJy1waCcsICc3LjAnLCAnLXRuJywgJzgnLCAnLW1hJywgJzIwMCcsICctbWV0YWxfYmluZGluZycsICctaW1hZScsICc8aW5maWxlLm1hZT4nLCAnLW9tYWUnLCAnPG91dGZpbGUubWFlPic=

> <r_lp_tautomer_probability>
1

> <r_epik_Ionization_Penalty>
0.000373217

> <r_epik_Ionization_Penalty_Charging>
0.000372054

> <r_epik_Ionization_Penalty_Neutral>
1.16293e-06

> <r_epik_State_Penalty>
0.00022692

> <r_epik_Charging_Adjusted_Penalty>
0.000598973

> <i_epik_Tot_Q>
1

> <i_epik_Tot_abs_Q>
1

> <r_epik_Metal_State_Penalty>
-0

> <b_epik_Metal_Only>
0

> <s_epik_Chemistry_Notes>
This compound contains an electron-poor aromatic ring that is susceptible to covalent hydrolysis at low pH, typically resulting in measured values for nitrogen ring protonation that are around two units higher than predicted values.

> <s_lp_Force_Field>
OPLS_2005

> <r_lp_Energy>
7.17513

> <b_lp_Chiralities_Consistent>
1

> <s_lp_Variant>
AV-unprocessed.smi:3081-2

> <Gold.Version>
5.8.1

> <Gold.Id.Protein>
6NUR|6NUR_protein|mol2

> <Gold.PLP.Fitness>
33.8555

> <Gold.PLP.PLP>
-27.5656

> <Gold.PLP.part.hbond>
-2.3182

> <Gold.PLP.part.metal>
0.0000

> <Gold.PLP.part.buried>
-2.5240

> <Gold.PLP.part.nonpolar>
-22.9117

> <Gold.PLP.part.repulsive>
0.0671

> <Gold.PLP.ligand.clash>
0.0000

> <Gold.PLP.ligand.torsion>
0.2021

> <Gold.PLP.Chemscore.Hbond>
2.2194

> <Gold.PLP.Chemscore.CHOScore>
0.0000

> <Gold.PLP.Chemscore.Metal>
0.0000

> <Gold.Chemscore.Hbonds>
donor molecule, donor type, donor heavy atom, donor atom, acceptor molecule, acceptor atom, score
      L1  H     8    26       P1  8028  2.00
      P1  H  7997  8009       L1    12  0.15

> <Gold.PLP.Chemscore.Internal.Correction>
0.0360

> <Gold.Rescore>
     Score         DG    S(hbond)    S(metal)    S(lipo)     H(rot)  DE(clash)    DE(int)     intcor
     15.73     -15.82       0.94        0.00      83.43       1.00       0.07       0.02       ----

> <Gold.Chemscore.Fitness>
15.7347

> <Gold.Chemscore.DG>
-15.8178

> <Gold.Chemscore.ZeroCoef>
-5.4800

> <Gold.Chemscore.Hbond>
0.9389

> <Gold.Chemscore.Metal>
0.0000

> <Gold.Chemscore.Lipo>
83.4348

> <Gold.Chemscore.Internal_Hbond>
0.0000

> <Gold.Chemscore.DEClash>
0.0650

> <Gold.Chemscore.DEInternal>
0.0180

> <Gold.Chemscore.Rot>
1.0000

> <Gold.Chemscore.Internal.Correction>
   9.000000E+99

> <Gold.Chemscore.Hbonds>
donor molecule, donor type, donor heavy atom, donor atom, acceptor molecule, acceptor atom, score
      L1  H     8    26       P1  8028  0.37

> <Gold.Chemscore.Hbond.Weighted>
-3.1359

> <Gold.Chemscore.Metal.Weighted>
-0.0000

> <Gold.Chemscore.Lipo.Weighted>
-9.7619

> <Gold.Chemscore.Internal_Hbond.Weighted>
0.0000

> <Gold.Chemscore.DEClash.Weighted>
0.0650

> <Gold.Chemscore.DEInternal.Weighted>
0.0180

> <Gold.Chemscore.Rot.Weighted>
2.5600

> <Gold.Chemscore.Internal.Correction.Weighted>
   9.000000E+99

> <Gold.Protein.RotatedTorsions>
[ 6907 6896 6895 6894 ] final   62.25 input  -60.11 | X-H torsion
[ 7974 7965 7964 7962 ] final  174.05 input  175.53 | X-H torsion
[ 8008 7997 7996 7995 ] final  108.93 input   59.86 | X-H torsion
[ 10167 10162 10161 10158 ] final  116.24 input  -65.29 | X-H torsion
[ 10718 10713 10712 10709 ] final  -46.67 input   66.30 | X-H torsion
[ 10763 10752 10751 10750 ] final -167.78 input  -60.55 | X-H torsion
[ 11005 11000 10999 10996 ] final -157.62 input  -57.11 | X-H torsion

> <Gold.Protein.ActiveResidues>
 VAL166  LYS551  ARG553  GLY616  TRP617  ASP618  TYR619  PRO620  LYS621  CYS622 
 ASP623  PHE694  ASN695  SER759  ASP760  ASP761  ALA762  ILE779  LEU786  VAL792 
 PHE793  MET794  SER795  GLU796  ALA797  LYS798  CYS799  TRP800  GLU811  SER814 

> <Gold.Protein.RotatedAtoms>
  152.4157  134.6046  160.0009 H   0  0  0  0  0  0  0  0  0  0  0  0  # atno 6907 bound_to 6896
  151.6211  133.3333  159.3096 H   0  0  0  0  0  0  0  0  0  0  0  0  # atno 6908 bound_to 6896
  150.8045  134.7201  159.6698 H   0  0  0  0  0  0  0  0  0  0  0  0  # atno 6909 bound_to 6896
  144.7230  139.9738  143.6437 H   0  0  0  0  0  0  0  0  0  0  0  0  # atno 7974 bound_to 7965
  156.1940  140.3067  155.9390 H   0  0  0  0  0  0  0  0  0  0  0  0  # atno 8008 bound_to 7997
  155.3108  140.0451  157.3052 H   0  0  0  0  0  0  0  0  0  0  0  0  # atno 8009 bound_to 7997
  154.5487  140.2284  155.8529 H   0  0  0  0  0  0  0  0  0  0  0  0  # atno 8010 bound_to 7997
  139.6261  144.7108  151.2531 H   0  0  0  0  0  0  0  0  0  0  0  0  # atno 10167 bound_to 10162
  156.2160  130.4163  149.9053 H   0  0  0  0  0  0  0  0  0  0  0  0  # atno 10718 bound_to 10713
  154.6697  135.2937  154.9758 H   0  0  0  0  0  0  0  0  0  0  0  0  # atno 10763 bound_to 10752
  154.0790  135.6607  153.4839 H   0  0  0  0  0  0  0  0  0  0  0  0  # atno 10764 bound_to 10752
  153.0479  135.5193  154.7687 H   0  0  0  0  0  0  0  0  0  0  0  0  # atno 10765 bound_to 10752
  140.6626  134.4333  157.5234 H   0  0  0  0  0  0  0  0  0  0  0  0  # atno 11005 bound_to 11000
  146.0541  139.3540  143.0621 LP  0  0  0  0  0  0  0  0  0  0  0  0  # atno 17320 bound_to 7965
  145.8177  140.9695  143.0915 LP  0  0  0  0  0  0  0  0  0  0  0  0  # atno 17321 bound_to 7965
  140.7411  143.6566  150.8201 LP  0  0  0  0  0  0  0  0  0  0  0  0  # atno 17342 bound_to 10162
  140.0184  143.5569  152.2811 LP  0  0  0  0  0  0  0  0  0  0  0  0  # atno 17343 bound_to 10162
  156.6716  130.8822  151.3563 LP  0  0  0  0  0  0  0  0  0  0  0  0  # atno 17370 bound_to 10713
  157.7063  130.9389  150.0942 LP  0  0  0  0  0  0  0  0  0  0  0  0  # atno 17371 bound_to 10713
  139.9008  134.8561  156.1905 LP  0  0  0  0  0  0  0  0  0  0  0  0  # atno 17394 bound_to 11000
  141.0453  133.6916  156.1673 LP  0  0  0  0  0  0  0  0  0  0  0  0  # atno 17395 bound_to 11000

$$$$
