AV-unprocessed.smi:3029|AV-procd|sdf|11526|dock6
  -GOLD-   2272016473D 1   1.00000     0.00000
 Structure written by MMmdl.
 42 43  0  0  0  0  0  0  0  0  4 V2000
  147.6095  140.6617  155.3649 O   0  0  0  0  0  0  0  0  0  0  0  0
  148.7085  140.1315  155.2028 C   0  0  0  0  0  0  0  0  0  0  0  0
  148.9650  139.1848  154.1125 C   0  0  0  0  0  0  0  0  0  0  0  0
  150.1782  138.6268  153.9301 C   0  0  0  0  0  0  0  0  0  0  0  0
  151.2784  138.9523  154.8171 C   0  0  0  0  0  0  0  0  0  0  0  0
  152.5886  138.3721  154.6218 N   0  3  0  0  0  0  0  0  0  0  0  0
  152.6931  137.3536  153.9449 O   0  0  0  0  0  0  0  0  0  0  0  0
  153.5568  138.9172  155.1414 O   0  5  0  0  0  0  0  0  0  0  0  0
  151.0370  139.8149  155.8240 C   0  0  0  0  0  0  0  0  0  0  0  0
  149.7687  140.3920  156.0261 N   0  0  0  0  0  0  0  0  0  0  0  0
  149.6288  141.3158  157.1597 C   0  0  0  0  0  0  0  0  0  0  0  0
  150.7799  142.3335  157.2015 C   0  0  0  0  0  0  0  0  0  0  0  0
  151.5270  142.2256  158.4715 N   0  3  0  0  0  0  0  0  0  0  0  0
  152.7502  143.0585  158.5671 C   0  0  1  0  0  0  0  0  0  0  0  0
  152.4969  144.4948  158.0560 C   0  0  0  0  0  0  0  0  0  0  0  0
  151.5591  145.2825  158.9869 C   0  0  0  0  0  0  0  0  0  0  0  0
  152.0940  145.3045  160.4264 C   0  0  0  0  0  0  0  0  0  0  0  0
  152.3546  143.8839  160.9526 C   0  0  0  0  0  0  0  0  0  0  0  0
  153.3002  143.0963  160.0184 C   0  0  1  0  0  0  0  0  0  0  0  0
  153.6713  141.7054  160.5829 C   0  0  0  0  0  0  0  0  0  0  0  0
  153.8960  141.7538  161.8962 F   0  0  0  0  0  0  0  0  0  0  0  0
  152.6853  140.8401  160.3465 F   0  0  0  0  0  0  0  0  0  0  0  0
  154.7719  141.2553  159.9813 F   0  0  0  0  0  0  0  0  0  0  0  0
  148.1595  138.9282  153.4400 H   0  0  0  0  0  0  0  0  0  0  0  0
  150.3192  137.9343  153.1130 H   0  0  0  0  0  0  0  0  0  0  0  0
  151.7893  140.1245  156.5353 H   0  0  0  0  0  0  0  0  0  0  0  0
  148.6702  141.8358  157.1100 H   0  0  0  0  0  0  0  0  0  0  0  0
  149.5979  140.7572  158.0967 H   0  0  0  0  0  0  0  0  0  0  0  0
  151.4602  142.1577  156.3669 H   0  0  0  0  0  0  0  0  0  0  0  0
  150.3871  143.3440  157.0908 H   0  0  0  0  0  0  0  0  0  0  0  0
  150.9145  142.4572  159.2407 H   0  0  0  0  0  0  0  0  0  0  0  0
  153.5111  142.6002  157.9338 H   0  0  0  0  0  0  0  0  0  0  0  0
  153.4502  145.0212  157.9916 H   0  0  0  0  0  0  0  0  0  0  0  0
  152.0980  144.4895  157.0421 H   0  0  0  0  0  0  0  0  0  0  0  0
  151.4455  146.3030  158.6198 H   0  0  0  0  0  0  0  0  0  0  0  0
  150.5626  144.8395  158.9715 H   0  0  0  0  0  0  0  0  0  0  0  0
  153.0195  145.8805  160.4613 H   0  0  0  0  0  0  0  0  0  0  0  0
  151.3874  145.8189  161.0784 H   0  0  0  0  0  0  0  0  0  0  0  0
  152.7838  143.9474  161.9529 H   0  0  0  0  0  0  0  0  0  0  0  0
  151.4080  143.3537  161.0619 H   0  0  0  0  0  0  0  0  0  0  0  0
  154.2347  143.6589  159.9772 H   0  0  0  0  0  0  0  0  0  0  0  0
  151.8091  141.2604  158.5696 H   0  0  0  0  0  0  0  0  0  0  0  0
  1  2  2  0  0  0  0
  2 10  1  0  0  0  0
  2  3  1  0  0  0  0
  3  4  2  0  0  0  0
  3 24  1  0  0  0  0
  4  5  1  0  0  0  0
  4 25  1  0  0  0  0
  5  6  1  0  0  0  0
  5  9  2  0  0  0  0
  6  7  2  0  0  0  0
  6  8  1  0  0  0  0
  9 10  1  0  0  0  0
  9 26  1  0  0  0  0
 10 11  1  0  0  0  0
 11 12  1  0  0  0  0
 11 27  1  0  0  0  0
 11 28  1  0  0  0  0
 12 13  1  0  0  0  0
 12 29  1  0  0  0  0
 12 30  1  0  0  0  0
 13 14  1  0  0  0  0
 13 31  1  0  0  0  0
 13 42  1  0  0  0  0
 14 19  1  0  0  0  0
 14 15  1  0  0  0  0
 14 32  1  0  0  0  0
 15 16  1  0  0  0  0
 15 33  1  0  0  0  0
 15 34  1  0  0  0  0
 16 17  1  0  0  0  0
 16 35  1  0  0  0  0
 16 36  1  0  0  0  0
 17 18  1  0  0  0  0
 17 37  1  0  0  0  0
 17 38  1  0  0  0  0
 18 19  1  0  0  0  0
 18 39  1  0  0  0  0
 18 40  1  0  0  0  0
 19 20  1  0  0  0  0
 19 41  1  0  0  0  0
 20 21  1  0  0  0  0
 20 22  1  0  0  0  0
 20 23  1  0  0  0  0
M  CHG  1   6   1
M  CHG  1   8  -1
M  CHG  1  13   1
M  END
> <s_m_source_file>
AV-unprocessed.smi

> <i_m_source_file_index>
3029

> <i_lp_mmshare_version>
43012

> <i_f3d_flags>
0

> <s_epik_input>
Tz1jMVtjSF1bY0hdYyhbTitdKD1PKVtPLV0pW2NIXW4xW0NIMl1bQ0gyXVtOSF1bQ0BASF0yW0NIMl1bQ0gyXVtDSDJdW0NIMl1bQ0BIXTJDKEYpKEYpRg==

> <s_epik_cmdline>
J2VwaWtfcHl0aG9uJywgJy1waCcsICc3LjAnLCAnLXRuJywgJzgnLCAnLW1hJywgJzIwMCcsICctbWV0YWxfYmluZGluZycsICctaW1hZScsICc8aW5maWxlLm1hZT4nLCAnLW9tYWUnLCAnPG91dGZpbGUubWFlPic=

> <r_lp_tautomer_probability>
1

> <r_epik_Ionization_Penalty>
0.037386

> <r_epik_Ionization_Penalty_Charging>
0.037386

> <r_epik_Ionization_Penalty_Neutral>
0

> <r_epik_State_Penalty>
0.0312892

> <r_epik_Charging_Adjusted_Penalty>
0.0686752

> <i_epik_Tot_Q>
1

> <i_epik_Tot_abs_Q>
3

> <r_epik_Metal_State_Penalty>
0.0312892

> <b_epik_Metal_Only>
0

> <s_lp_Force_Field>
OPLS_2005

> <r_lp_Energy>
34.3569

> <b_lp_Chiralities_Consistent>
1

> <s_lp_Variant>
AV-unprocessed.smi:3029-2

> <Gold.Version>
5.8.1

> <Gold.Id.Protein>
6NUR|6NUR_protein|mol2

> <Gold.PLP.Fitness>
59.1379

> <Gold.PLP.PLP>
-56.5273

> <Gold.PLP.part.hbond>
-1.6948

> <Gold.PLP.part.metal>
0.0000

> <Gold.PLP.part.buried>
-5.6268

> <Gold.PLP.part.nonpolar>
-50.9773

> <Gold.PLP.part.repulsive>
0.2337

> <Gold.PLP.ligand.clash>
0.0000

> <Gold.PLP.ligand.torsion>
1.1452

> <Gold.PLP.Chemscore.Hbond>
1.5760

> <Gold.PLP.Chemscore.CHOScore>
0.0000

> <Gold.PLP.Chemscore.Metal>
0.0000

> <Gold.Chemscore.Hbonds>
donor molecule, donor type, donor heavy atom, donor atom, acceptor molecule, acceptor atom, score
      P1  H  7997  8008       L1     8  1.00
      P1  H 10752 10765       L1     7  0.66

> <Gold.PLP.Chemscore.Internal.Correction>
0.1731

> <Gold.Rescore>
     Score         DG    S(hbond)    S(metal)    S(lipo)     H(rot)  DE(clash)    DE(int)     intcor
     18.19     -20.87       1.73        0.00     123.71       1.90       0.20       2.48       ----

> <Gold.Chemscore.Fitness>
18.1894

> <Gold.Chemscore.DG>
-20.8661

> <Gold.Chemscore.ZeroCoef>
-5.4800

> <Gold.Chemscore.Hbond>
1.7323

> <Gold.Chemscore.Metal>
0.0000

> <Gold.Chemscore.Lipo>
123.7079

> <Gold.Chemscore.Internal_Hbond>
0.0000

> <Gold.Chemscore.DEClash>
0.1953

> <Gold.Chemscore.DEInternal>
2.4813

> <Gold.Chemscore.Rot>
1.9037

> <Gold.Chemscore.Internal.Correction>
   9.000000E+99

> <Gold.Chemscore.Hbonds>
donor molecule, donor type, donor heavy atom, donor atom, acceptor molecule, acceptor atom, score
      P1  H  7997  8008       L1     8  0.94
      P1  H 10752 10765       L1     7  0.66

> <Gold.Chemscore.Hbond.Weighted>
-5.7858

> <Gold.Chemscore.Metal.Weighted>
-0.0000

> <Gold.Chemscore.Lipo.Weighted>
-14.4738

> <Gold.Chemscore.Internal_Hbond.Weighted>
0.0000

> <Gold.Chemscore.DEClash.Weighted>
0.1953

> <Gold.Chemscore.DEInternal.Weighted>
2.4813

> <Gold.Chemscore.Rot.Weighted>
4.8736

> <Gold.Chemscore.Internal.Correction.Weighted>
   9.000000E+99

> <Gold.Protein.RotatedTorsions>
[ 6907 6896 6895 6894 ] final -110.73 input  -60.11 | X-H torsion
[ 7974 7965 7964 7962 ] final  121.44 input  175.53 | X-H torsion
[ 8008 7997 7996 7995 ] final  -14.45 input   59.86 | X-H torsion
[ 10167 10162 10161 10158 ] final   72.16 input  -65.29 | X-H torsion
[ 10718 10713 10712 10709 ] final  122.87 input   66.30 | X-H torsion
[ 10763 10752 10751 10750 ] final  141.69 input  -60.55 | X-H torsion
[ 11005 11000 10999 10996 ] final  145.90 input  -57.11 | X-H torsion

> <Gold.Protein.ActiveResidues>
 VAL166  LYS551  ARG553  GLY616  TRP617  ASP618  TYR619  PRO620  LYS621  CYS622 
 ASP623  PHE694  ASN695  SER759  ASP760  ASP761  ALA762  ILE779  LEU786  VAL792 
 PHE793  MET794  SER795  GLU796  ALA797  LYS798  CYS799  TRP800  GLU811  SER814 

> <Gold.Protein.RotatedAtoms>
  150.7644  133.9339  159.3435 H   0  0  0  0  0  0  0  0  0  0  0  0  # atno 6907 bound_to 6896
  151.7240  135.0886  160.0298 H   0  0  0  0  0  0  0  0  0  0  0  0  # atno 6908 bound_to 6896
  152.3632  133.6285  159.6066 H   0  0  0  0  0  0  0  0  0  0  0  0  # atno 6909 bound_to 6896
  145.1193  139.3399  143.4722 H   0  0  0  0  0  0  0  0  0  0  0  0  # atno 7974 bound_to 7965
  154.5209  140.2223  155.8977 H   0  0  0  0  0  0  0  0  0  0  0  0  # atno 8008 bound_to 7997
  156.1661  140.3132  155.8856 H   0  0  0  0  0  0  0  0  0  0  0  0  # atno 8009 bound_to 7997
  155.3653  140.0463  157.3036 H   0  0  0  0  0  0  0  0  0  0  0  0  # atno 8010 bound_to 7997
  140.0383  144.5410  150.7453 H   0  0  0  0  0  0  0  0  0  0  0  0  # atno 10167 bound_to 10162
  157.5709  131.1083  150.8368 H   0  0  0  0  0  0  0  0  0  0  0  0  # atno 10718 bound_to 10713
  153.9435  135.2977  155.3442 H   0  0  0  0  0  0  0  0  0  0  0  0  # atno 10763 bound_to 10752
  154.7464  135.5000  153.9215 H   0  0  0  0  0  0  0  0  0  0  0  0  # atno 10764 bound_to 10752
  153.1030  135.6739  153.9744 H   0  0  0  0  0  0  0  0  0  0  0  0  # atno 10765 bound_to 10752
  140.0749  134.9130  157.1407 H   0  0  0  0  0  0  0  0  0  0  0  0  # atno 11005 bound_to 11000
  146.3522  140.1146  142.8602 LP  0  0  0  0  0  0  0  0  0  0  0  0  # atno 17320 bound_to 7965
  145.0758  140.9187  143.4855 LP  0  0  0  0  0  0  0  0  0  0  0  0  # atno 17321 bound_to 7965
  140.7271  143.2648  151.4081 LP  0  0  0  0  0  0  0  0  0  0  0  0  # atno 17342 bound_to 10162
  139.6030  144.1255  152.2219 LP  0  0  0  0  0  0  0  0  0  0  0  0  # atno 17343 bound_to 10162
  156.8840  130.5189  149.5289 LP  0  0  0  0  0  0  0  0  0  0  0  0  # atno 17370 bound_to 10713
  156.0755  130.5778  150.9465 LP  0  0  0  0  0  0  0  0  0  0  0  0  # atno 17371 bound_to 10713
  140.3572  134.2534  155.7191 LP  0  0  0  0  0  0  0  0  0  0  0  0  # atno 17394 bound_to 11000
  141.2026  133.7934  157.0383 LP  0  0  0  0  0  0  0  0  0  0  0  0  # atno 17395 bound_to 11000

$$$$
