AV-unprocessed.smi:2846|AV-procd|sdf|10952|dock3
  -GOLD-   2272015403D 1   1.00000     0.00000
 Structure written by MMmdl.
 49 51  0  0  0  0  0  0  0  0  2 V2000
  149.7477  140.1227  156.7387 O   0  0  0  0  0  0  0  0  0  0  0  0
  149.6978  141.3400  156.5608 C   0  0  0  0  0  0  0  0  0  0  0  0
  150.9794  142.1739  156.4902 C   0  0  0  0  0  0  0  0  0  0  0  0
  151.6273  142.5260  157.8195 C   0  0  0  0  0  0  0  0  0  0  0  0
  152.0856  141.5827  158.6655 C   0  0  0  0  0  0  0  0  0  0  0  0
  152.7503  141.8834  159.9971 C   0  0  0  0  0  0  0  0  0  0  0  0
  153.1649  143.3592  160.1227 C   0  0  0  0  0  0  0  0  0  0  0  0
  152.0574  144.2912  159.6150 C   0  0  0  0  0  0  0  0  0  0  0  0
  151.7187  144.0132  158.1392 C   0  0  0  0  0  0  0  0  0  0  0  0
  148.5486  142.0158  156.4113 N   0  0  0  0  0  0  0  0  0  0  0  0
  147.2091  141.4303  156.4432 C   0  0  0  0  0  0  0  0  0  0  0  0
  146.5210  141.3822  155.0494 C   0  0  0  0  0  0  0  0  0  0  0  0
  145.5066  142.5305  154.9270 C   0  0  0  0  0  0  0  0  0  0  0  0
  145.5831  143.4382  153.8425 C   0  0  0  0  0  0  0  0  0  0  0  0
  144.6364  144.4765  153.7307 C   0  0  0  0  0  0  0  0  0  0  0  0
  143.6571  144.5954  154.6518 N   0  3  0  0  0  0  0  0  0  0  0  0
  143.5324  143.7496  155.6961 C   0  0  0  0  0  0  0  0  0  0  0  0
  144.4510  142.6929  155.8589 C   0  0  0  0  0  0  0  0  0  0  0  0
  147.5531  141.3637  153.8984 C   0  0  0  0  0  0  0  0  0  0  0  0
  148.0779  139.9280  153.8134 C   0  0  0  0  0  0  0  0  0  0  0  0
  146.9594  139.0450  154.3762 C   0  0  0  0  0  0  0  0  0  0  0  0
  145.8570  140.0036  154.8451 C   0  0  0  0  0  0  0  0  0  0  0  0
  151.6998  141.6095  155.8965 H   0  0  0  0  0  0  0  0  0  0  0  0
  150.7868  143.0932  155.9356 H   0  0  0  0  0  0  0  0  0  0  0  0
  151.9780  140.5381  158.4127 H   0  0  0  0  0  0  0  0  0  0  0  0
  152.0500  141.6192  160.7900 H   0  0  0  0  0  0  0  0  0  0  0  0
  153.6232  141.2414  160.1172 H   0  0  0  0  0  0  0  0  0  0  0  0
  153.4115  143.5905  161.1593 H   0  0  0  0  0  0  0  0  0  0  0  0
  154.0721  143.5334  159.5428 H   0  0  0  0  0  0  0  0  0  0  0  0
  151.1643  144.1494  160.2251 H   0  0  0  0  0  0  0  0  0  0  0  0
  152.3524  145.3336  159.7385 H   0  0  0  0  0  0  0  0  0  0  0  0
  152.4799  144.4504  157.4924 H   0  0  0  0  0  0  0  0  0  0  0  0
  150.7747  144.4981  157.8877 H   0  0  0  0  0  0  0  0  0  0  0  0
  148.6048  143.0147  156.2741 H   0  0  0  0  0  0  0  0  0  0  0  0
  147.2318  140.4438  156.9084 H   0  0  0  0  0  0  0  0  0  0  0  0
  146.6163  142.0520  157.1150 H   0  0  0  0  0  0  0  0  0  0  0  0
  146.3569  143.3439  153.0951 H   0  0  0  0  0  0  0  0  0  0  0  0
  144.6311  145.2075  152.9354 H   0  0  0  0  0  0  0  0  0  0  0  0
  142.7046  143.9394  156.3637 H   0  0  0  0  0  0  0  0  0  0  0  0
  144.3304  142.0173  156.6926 H   0  0  0  0  0  0  0  0  0  0  0  0
  147.0494  141.5823  152.9552 H   0  0  0  0  0  0  0  0  0  0  0  0
  148.3524  142.0965  154.0044 H   0  0  0  0  0  0  0  0  0  0  0  0
  148.3432  139.6558  152.7914 H   0  0  0  0  0  0  0  0  0  0  0  0
  148.9762  139.8212  154.4229 H   0  0  0  0  0  0  0  0  0  0  0  0
  146.5818  138.3442  153.6307 H   0  0  0  0  0  0  0  0  0  0  0  0
  147.3362  138.4574  155.2141 H   0  0  0  0  0  0  0  0  0  0  0  0
  145.3370  139.6368  155.7308 H   0  0  0  0  0  0  0  0  0  0  0  0
  145.1153  140.0736  154.0473 H   0  0  0  0  0  0  0  0  0  0  0  0
  142.9808  145.3530  154.5521 H   0  0  0  0  0  0  0  0  0  0  0  0
  1  2  2  0  0  0  0
  2  3  1  0  0  0  0
  2 10  1  0  0  0  0
  3  4  1  0  0  0  0
  3 23  1  0  0  0  0
  3 24  1  0  0  0  0
  4  9  1  0  0  0  0
  4  5  2  0  0  0  0
  5  6  1  0  0  0  0
  5 25  1  0  0  0  0
  6  7  1  0  0  0  0
  6 26  1  0  0  0  0
  6 27  1  0  0  0  0
  7  8  1  0  0  0  0
  7 28  1  0  0  0  0
  7 29  1  0  0  0  0
  8  9  1  0  0  0  0
  8 30  1  0  0  0  0
  8 31  1  0  0  0  0
  9 32  1  0  0  0  0
  9 33  1  0  0  0  0
 10 11  1  0  0  0  0
 10 34  1  0  0  0  0
 11 12  1  0  0  0  0
 11 35  1  0  0  0  0
 11 36  1  0  0  0  0
 12 22  1  0  0  0  0
 12 13  1  0  0  0  0
 12 19  1  0  0  0  0
 13 18  1  0  0  0  0
 13 14  2  0  0  0  0
 14 15  1  0  0  0  0
 14 37  1  0  0  0  0
 15 16  2  0  0  0  0
 15 38  1  0  0  0  0
 16 17  1  0  0  0  0
 16 49  1  0  0  0  0
 17 18  2  0  0  0  0
 17 39  1  0  0  0  0
 18 40  1  0  0  0  0
 19 20  1  0  0  0  0
 19 41  1  0  0  0  0
 19 42  1  0  0  0  0
 20 21  1  0  0  0  0
 20 43  1  0  0  0  0
 20 44  1  0  0  0  0
 21 22  1  0  0  0  0
 21 45  1  0  0  0  0
 21 46  1  0  0  0  0
 22 47  1  0  0  0  0
 22 48  1  0  0  0  0
M  CHG  1  16   1
M  END
> <s_m_source_file>
AV-unprocessed.smi

> <i_m_source_file_index>
2846

> <i_lp_mmshare_version>
43012

> <i_f3d_flags>
0

> <s_epik_input>
W0NIMl0xW0NIMl1bQ0gyXVtDSDJdW0NIXT1DMVtDSDJdQyg9TylbTkhdW0NIMl1DMihbQ0gyXVtDSDJdW0NIMl1bQ0gyXTIpYzNbY0hdW2NIXW5bY0hdW2NIXTM=

> <s_epik_cmdline>
J2VwaWtfcHl0aG9uJywgJy1waCcsICc3LjAnLCAnLXRuJywgJzgnLCAnLW1hJywgJzIwMCcsICctbWV0YWxfYmluZGluZycsICctaW1hZScsICc8aW5maWxlLm1hZT4nLCAnLW9tYWUnLCAnPG91dGZpbGUubWFlPic=

> <r_epik_Ionization_Penalty>
1.37043

> <r_epik_Ionization_Penalty_Charging>
1.37043

> <r_epik_Ionization_Penalty_Neutral>
1.66368e-08

> <r_epik_State_Penalty>
1.45009

> <r_epik_Charging_Adjusted_Penalty>
2.82052

> <i_epik_Tot_Q>
1

> <i_epik_Tot_abs_Q>
1

> <r_epik_Metal_State_Penalty>
1.50668

> <b_epik_Metal_Only>
0

> <s_lp_Force_Field>
OPLS_2005

> <r_lp_Energy>
37.4584

> <b_lp_Chiralities_Consistent>
1

> <s_lp_Variant>
AV-unprocessed.smi:2846-2

> <Gold.Version>
5.8.1

> <Gold.Id.Protein>
6NUR|6NUR_protein|mol2

> <Gold.PLP.Fitness>
47.0487

> <Gold.PLP.PLP>
-46.4325

> <Gold.PLP.part.hbond>
-1.0000

> <Gold.PLP.part.metal>
0.0000

> <Gold.PLP.part.buried>
-5.6084

> <Gold.PLP.part.nonpolar>
-39.3284

> <Gold.PLP.part.repulsive>
0.1414

> <Gold.PLP.ligand.clash>
0.0000

> <Gold.PLP.ligand.torsion>
1.2487

> <Gold.PLP.Chemscore.Hbond>
1.0000

> <Gold.PLP.Chemscore.CHOScore>
0.0000

> <Gold.PLP.Chemscore.Metal>
0.0000

> <Gold.Chemscore.Hbonds>
donor molecule, donor type, donor heavy atom, donor atom, acceptor molecule, acceptor atom, score
      L1  H    10    34       P1  8028  1.00

> <Gold.PLP.Chemscore.Internal.Correction>
0.1136

> <Gold.Rescore>
     Score         DG    S(hbond)    S(metal)    S(lipo)     H(rot)  DE(clash)    DE(int)     intcor
     19.01     -20.21       0.95        0.00     130.82       1.46       0.15       1.06       ----

> <Gold.Chemscore.Fitness>
19.0055

> <Gold.Chemscore.DG>
-20.2146

> <Gold.Chemscore.ZeroCoef>
-5.4800

> <Gold.Chemscore.Hbond>
0.9498

> <Gold.Chemscore.Metal>
0.0000

> <Gold.Chemscore.Lipo>
130.8241

> <Gold.Chemscore.Internal_Hbond>
0.0000

> <Gold.Chemscore.DEClash>
0.1465

> <Gold.Chemscore.DEInternal>
1.0627

> <Gold.Chemscore.Rot>
1.4625

> <Gold.Chemscore.Internal.Correction>
   9.000000E+99

> <Gold.Chemscore.Hbonds>
donor molecule, donor type, donor heavy atom, donor atom, acceptor molecule, acceptor atom, score
      L1  H    10    34       P1  8028  0.96

> <Gold.Chemscore.Hbond.Weighted>
-3.1723

> <Gold.Chemscore.Metal.Weighted>
-0.0000

> <Gold.Chemscore.Lipo.Weighted>
-15.3064

> <Gold.Chemscore.Internal_Hbond.Weighted>
0.0000

> <Gold.Chemscore.DEClash.Weighted>
0.1465

> <Gold.Chemscore.DEInternal.Weighted>
1.0627

> <Gold.Chemscore.Rot.Weighted>
3.7441

> <Gold.Chemscore.Internal.Correction.Weighted>
   9.000000E+99

> <Gold.Protein.RotatedTorsions>
[ 6907 6896 6895 6894 ] final   68.04 input  -60.11 | X-H torsion
[ 7974 7965 7964 7962 ] final -100.54 input  175.53 | X-H torsion
[ 8008 7997 7996 7995 ] final   22.70 input   59.86 | X-H torsion
[ 10167 10162 10161 10158 ] final  174.23 input  -65.29 | X-H torsion
[ 10718 10713 10712 10709 ] final  -99.40 input   66.30 | X-H torsion
[ 10763 10752 10751 10750 ] final    3.41 input  -60.55 | X-H torsion
[ 11005 11000 10999 10996 ] final   22.13 input  -57.11 | X-H torsion

> <Gold.Protein.ActiveResidues>
 VAL166  LYS551  ARG553  GLY616  TRP617  ASP618  TYR619  PRO620  LYS621  CYS622 
 ASP623  PHE694  ASN695  SER759  ASP760  ASP761  ALA762  ILE779  LEU786  VAL792 
 PHE793  MET794  SER795  GLU796  ALA797  LYS798  CYS799  TRP800  GLU811  SER814 

> <Gold.Protein.RotatedAtoms>
  152.4594  134.5219  159.9784 H   0  0  0  0  0  0  0  0  0  0  0  0  # atno 6907 bound_to 6896
  151.5272  133.3450  159.2919 H   0  0  0  0  0  0  0  0  0  0  0  0  # atno 6908 bound_to 6896
  150.8550  134.7916  159.7101 H   0  0  0  0  0  0  0  0  0  0  0  0  # atno 6909 bound_to 6896
  145.2933  140.9358  143.2865 H   0  0  0  0  0  0  0  0  0  0  0  0  # atno 7974 bound_to 7965
  154.9697  140.3088  155.4993 H   0  0  0  0  0  0  0  0  0  0  0  0  # atno 8008 bound_to 7997
  156.2967  140.2286  156.4728 H   0  0  0  0  0  0  0  0  0  0  0  0  # atno 8009 bound_to 7997
  154.7888  140.0441  157.1173 H   0  0  0  0  0  0  0  0  0  0  0  0  # atno 8010 bound_to 7997
  139.5135  144.3170  152.0238 H   0  0  0  0  0  0  0  0  0  0  0  0  # atno 10167 bound_to 10162
  156.0133  130.5281  150.6665 H   0  0  0  0  0  0  0  0  0  0  0  0  # atno 10718 bound_to 10713
  153.2836  135.6942  153.7361 H   0  0  0  0  0  0  0  0  0  0  0  0  # atno 10763 bound_to 10752
  153.6339  135.3405  155.3051 H   0  0  0  0  0  0  0  0  0  0  0  0  # atno 10764 bound_to 10752
  154.8503  135.4415  154.1897 H   0  0  0  0  0  0  0  0  0  0  0  0  # atno 10765 bound_to 10752
  140.3839  134.1891  155.7663 H   0  0  0  0  0  0  0  0  0  0  0  0  # atno 11005 bound_to 11000
  144.9155  139.4476  143.6566 LP  0  0  0  0  0  0  0  0  0  0  0  0  # atno 17320 bound_to 7965
  146.3177  139.7986  142.8970 LP  0  0  0  0  0  0  0  0  0  0  0  0  # atno 17321 bound_to 7965
  140.2613  144.4064  150.6185 LP  0  0  0  0  0  0  0  0  0  0  0  0  # atno 17342 bound_to 10162
  140.6155  143.2172  151.6800 LP  0  0  0  0  0  0  0  0  0  0  0  0  # atno 17343 bound_to 10162
  157.4397  131.0859  151.0956 LP  0  0  0  0  0  0  0  0  0  0  0  0  # atno 17370 bound_to 10713
  157.1504  130.6182  149.5580 LP  0  0  0  0  0  0  0  0  0  0  0  0  # atno 17371 bound_to 10713
  141.1914  133.8196  157.0881 LP  0  0  0  0  0  0  0  0  0  0  0  0  # atno 17394 bound_to 11000
  140.0457  134.9831  157.1045 LP  0  0  0  0  0  0  0  0  0  0  0  0  # atno 17395 bound_to 11000

$$$$
