AV-unprocessed.smi:1833|AV-procd|sdf|7466|dock5
  -GOLD-   22720 9163D 1   1.00000     0.00000
 Structure written by MMmdl.
 42 43  0  0  0  0  0  0  0  0  2 V2000
  146.5425  133.3446  150.6371 C   0  0  0  0  0  0  0  0  0  0  0  0
  146.1793  133.8390  152.0437 C   0  0  0  0  0  0  0  0  0  0  0  0
  147.3676  133.9860  152.9210 N   0  3  2  0  0  0  0  0  0  0  0  0
  148.1100  132.7066  153.0701 C   0  0  0  0  0  0  0  0  0  0  0  0
  149.4105  132.9008  153.8679 C   0  0  0  0  0  0  0  0  0  0  0  0
  149.1343  133.5505  155.2330 C   0  0  0  0  0  0  0  0  0  0  0  0
  148.3309  134.8519  155.0675 C   0  0  1  0  0  0  0  0  0  0  0  0
  149.1669  135.8765  154.4427 N   0  0  0  0  0  0  0  0  0  0  0  0
  150.2294  136.4616  155.0121 C   0  0  0  0  0  0  0  0  0  0  0  0
  150.6150  136.2243  156.1566 O   0  0  0  0  0  0  0  0  0  0  0  0
  150.8192  137.3313  154.1804 N   0  0  0  0  0  0  0  0  0  0  0  0
  152.0335  138.0895  154.4677 C   0  0  0  0  0  0  0  0  0  0  0  0
  152.1452  138.5007  155.9468 C   0  0  0  0  0  0  0  0  0  0  0  0
  151.4422  139.7762  156.2823 C   0  0  0  0  0  0  0  0  0  0  0  0
  150.7385  140.4932  155.4004 N   0  0  0  0  0  0  0  0  0  0  0  0
  150.1787  141.6384  155.9726 C   0  0  0  0  0  0  0  0  0  0  0  0
  150.4398  141.7663  157.3127 C   0  0  0  0  0  0  0  0  0  0  0  0
  151.4176  140.4536  157.9069 S   0  0  0  0  0  0  0  0  0  0  0  0
  147.0510  134.5848  154.2462 C   0  0  0  0  0  0  0  0  0  0  0  0
  145.6418  133.1467  150.0559 H   0  0  0  0  0  0  0  0  0  0  0  0
  147.1170  132.4188  150.6808 H   0  0  0  0  0  0  0  0  0  0  0  0
  147.1261  134.0796  150.0839 H   0  0  0  0  0  0  0  0  0  0  0  0
  145.6324  134.7813  151.9916 H   0  0  0  0  0  0  0  0  0  0  0  0
  145.4976  133.1100  152.4840 H   0  0  0  0  0  0  0  0  0  0  0  0
  147.4726  131.9716  153.5645 H   0  0  0  0  0  0  0  0  0  0  0  0
  148.3539  132.3036  152.0865 H   0  0  0  0  0  0  0  0  0  0  0  0
  149.9065  131.9400  154.0086 H   0  0  0  0  0  0  0  0  0  0  0  0
  150.1020  133.5196  153.2947 H   0  0  0  0  0  0  0  0  0  0  0  0
  148.5699  132.8544  155.8548 H   0  0  0  0  0  0  0  0  0  0  0  0
  150.0706  133.7410  155.7592 H   0  0  0  0  0  0  0  0  0  0  0  0
  148.0459  135.2022  156.0613 H   0  0  0  0  0  0  0  0  0  0  0  0
  148.9380  136.1339  153.4937 H   0  0  0  0  0  0  0  0  0  0  0  0
  150.4177  137.4567  153.2629 H   0  0  0  0  0  0  0  0  0  0  0  0
  152.9208  137.5325  154.1617 H   0  0  0  0  0  0  0  0  0  0  0  0
  152.0123  138.9862  153.8485 H   0  0  0  0  0  0  0  0  0  0  0  0
  151.7300  137.7116  156.5742 H   0  0  0  0  0  0  0  0  0  0  0  0
  153.1950  138.5923  156.2286 H   0  0  0  0  0  0  0  0  0  0  0  0
  149.6070  142.3118  155.3523 H   0  0  0  0  0  0  0  0  0  0  0  0
  150.1217  142.5512  157.9828 H   0  0  0  0  0  0  0  0  0  0  0  0
  146.5013  135.5175  154.1231 H   0  0  0  0  0  0  0  0  0  0  0  0
  146.3919  133.9115  154.7966 H   0  0  0  0  0  0  0  0  0  0  0  0
  147.9930  134.6255  152.4518 H   0  0  0  0  0  0  0  0  0  0  0  0
  1  2  1  0  0  0  0
  1 20  1  0  0  0  0
  1 21  1  0  0  0  0
  1 22  1  0  0  0  0
  2  3  1  0  0  0  0
  2 23  1  0  0  0  0
  2 24  1  0  0  0  0
  3 19  1  0  0  0  0
  3  4  1  0  0  0  0
  3 42  1  0  0  0  0
  4  5  1  0  0  0  0
  4 25  1  0  0  0  0
  4 26  1  0  0  0  0
  5  6  1  0  0  0  0
  5 27  1  0  0  0  0
  5 28  1  0  0  0  0
  6  7  1  0  0  0  0
  6 29  1  0  0  0  0
  6 30  1  0  0  0  0
  7  8  1  0  0  0  0
  7 19  1  0  0  0  0
  7 31  1  0  0  0  0
  8  9  1  0  0  0  0
  8 32  1  0  0  0  0
  9 10  2  0  0  0  0
  9 11  1  0  0  0  0
 11 12  1  0  0  0  0
 11 33  1  0  0  0  0
 12 13  1  0  0  0  0
 12 34  1  0  0  0  0
 12 35  1  0  0  0  0
 13 14  1  0  0  0  0
 13 36  1  0  0  0  0
 13 37  1  0  0  0  0
 14 18  1  0  0  0  0
 14 15  2  0  0  0  0
 15 16  1  0  0  0  0
 16 17  2  0  0  0  0
 16 38  1  0  0  0  0
 17 18  1  0  0  0  0
 17 39  1  0  0  0  0
 19 40  1  0  0  0  0
 19 41  1  0  0  0  0
M  CHG  1   3   1
M  END
> <s_m_source_file>
AV-unprocessed.smi

> <i_m_source_file_index>
1833

> <i_lp_mmshare_version>
43012

> <i_f3d_flags>
0

> <s_epik_input>
W0NIM11bQ0gyXU4xW0NIMl1bQ0gyXVtDSDJdW0NASF0oW0NIMl0xKVtOSF1DKD1PKVtOSF1bQ0gyXVtDSDJdYzJuW2NIXVtjSF1zMg==

> <s_epik_cmdline>
J2VwaWtfcHl0aG9uJywgJy1waCcsICc3LjAnLCAnLXRuJywgJzgnLCAnLW1hJywgJzIwMCcsICctbWV0YWxfYmluZGluZycsICctaW1hZScsICc8aW5maWxlLm1hZT4nLCAnLW9tYWUnLCAnPG91dGZpbGUubWFlPic=

> <r_lp_tautomer_probability>
1

> <r_epik_Ionization_Penalty>
0.00269629

> <r_epik_Ionization_Penalty_Charging>
0.00233899

> <r_epik_Ionization_Penalty_Neutral>
0.000357304

> <r_epik_State_Penalty>
-0

> <r_epik_Charging_Adjusted_Penalty>
0.00233899

> <i_epik_Tot_Q>
1

> <i_epik_Tot_abs_Q>
1

> <r_epik_Metal_State_Penalty>
-0

> <b_epik_Metal_Only>
0

> <s_lp_Force_Field>
OPLS_2005

> <r_lp_Energy>
14.5557

> <b_lp_Chiralities_Consistent>
1

> <s_lp_Variant>
AV-unprocessed.smi:1833-2

> <Gold.Version>
5.8.1

> <Gold.Id.Protein>
6NUR|6NUR_protein|mol2

> <Gold.PLP.Fitness>
50.4172

> <Gold.PLP.PLP>
-36.0584

> <Gold.PLP.part.hbond>
-4.6348

> <Gold.PLP.part.metal>
0.0000

> <Gold.PLP.part.buried>
-6.1978

> <Gold.PLP.part.nonpolar>
-26.4774

> <Gold.PLP.part.repulsive>
0.2010

> <Gold.PLP.ligand.clash>
0.0000

> <Gold.PLP.ligand.torsion>
0.4148

> <Gold.PLP.Chemscore.Hbond>
4.0565

> <Gold.PLP.Chemscore.CHOScore>
0.9884

> <Gold.PLP.Chemscore.Metal>
0.0000

> <Gold.Chemscore.Hbonds>
donor molecule, donor type, donor heavy atom, donor atom, acceptor molecule, acceptor atom, score
      L1  H     3    42       P1  7948  2.00
      L1  H     8    32       P1  7948  1.00
      L1  H    11    33       P1  7948  0.14
      P1  H  7989  7998       L1    15  0.73
      L1  C    16    38       P1  8028  1.00

> <Gold.PLP.Chemscore.Internal.Correction>
0.0537

> <Gold.Rescore>
     Score         DG    S(hbond)    S(metal)    S(lipo)     H(rot)  DE(clash)    DE(int)     intcor
     16.64     -18.56       2.70        0.00      72.28       1.71       0.02       1.91       ----

> <Gold.Chemscore.Fitness>
16.6408

> <Gold.Chemscore.DG>
-18.5629

> <Gold.Chemscore.ZeroCoef>
-5.4800

> <Gold.Chemscore.Hbond>
2.6993

> <Gold.Chemscore.Metal>
0.0000

> <Gold.Chemscore.Lipo>
72.2791

> <Gold.Chemscore.Internal_Hbond>
0.0000

> <Gold.Chemscore.DEClash>
0.0164

> <Gold.Chemscore.DEInternal>
1.9057

> <Gold.Chemscore.Rot>
1.7147

> <Gold.Chemscore.Internal.Correction>
   9.000000E+99

> <Gold.Chemscore.Hbonds>
donor molecule, donor type, donor heavy atom, donor atom, acceptor molecule, acceptor atom, score
      L1  H     3    42       P1  7948  0.50
      L1  H     8    32       P1  7948  0.98
      L1  H    11    33       P1  7948  0.01
      P1  H  7989  7998       L1    15  0.55

> <Gold.Chemscore.Hbond.Weighted>
-9.0158

> <Gold.Chemscore.Metal.Weighted>
-0.0000

> <Gold.Chemscore.Lipo.Weighted>
-8.4567

> <Gold.Chemscore.Internal_Hbond.Weighted>
0.0000

> <Gold.Chemscore.DEClash.Weighted>
0.0164

> <Gold.Chemscore.DEInternal.Weighted>
1.9057

> <Gold.Chemscore.Rot.Weighted>
4.3896

> <Gold.Chemscore.Internal.Correction.Weighted>
   9.000000E+99

> <Gold.Protein.RotatedTorsions>
[ 6907 6896 6895 6894 ] final   71.55 input  -60.11 | X-H torsion
[ 7974 7965 7964 7962 ] final -140.10 input  175.53 | X-H torsion
[ 8008 7997 7996 7995 ] final  -14.51 input   59.86 | X-H torsion
[ 10167 10162 10161 10158 ] final -113.19 input  -65.29 | X-H torsion
[ 10718 10713 10712 10709 ] final  159.90 input   66.30 | X-H torsion
[ 10763 10752 10751 10750 ] final -112.99 input  -60.55 | X-H torsion
[ 11005 11000 10999 10996 ] final -124.89 input  -57.11 | X-H torsion

> <Gold.Protein.ActiveResidues>
 VAL166  LYS551  ARG553  GLY616  TRP617  ASP618  TYR619  PRO620  LYS621  CYS622 
 ASP623  PHE694  ASN695  SER759  ASP760  ASP761  ALA762  ILE779  LEU786  VAL792 
 PHE793  MET794  SER795  GLU796  ALA797  LYS798  CYS799  TRP800  GLU811  SER814 

> <Gold.Protein.RotatedAtoms>
  152.4816  134.4704  159.9633 H   0  0  0  0  0  0  0  0  0  0  0  0  # atno 6907 bound_to 6896
  151.4709  133.3563  159.2831 H   0  0  0  0  0  0  0  0  0  0  0  0  # atno 6908 bound_to 6896
  150.8893  134.8321  159.7343 H   0  0  0  0  0  0  0  0  0  0  0  0  # atno 6909 bound_to 6896
  144.8624  140.6240  143.5320 H   0  0  0  0  0  0  0  0  0  0  0  0  # atno 7974 bound_to 7965
  154.5204  140.2221  155.8986 H   0  0  0  0  0  0  0  0  0  0  0  0  # atno 8008 bound_to 7997
  156.1656  140.3133  155.8847 H   0  0  0  0  0  0  0  0  0  0  0  0  # atno 8009 bound_to 7997
  155.3664  140.0464  157.3036 H   0  0  0  0  0  0  0  0  0  0  0  0  # atno 8010 bound_to 7997
  140.1145  143.4498  152.1731 H   0  0  0  0  0  0  0  0  0  0  0  0  # atno 10167 bound_to 10162
  157.1578  131.0580  151.2247 H   0  0  0  0  0  0  0  0  0  0  0  0  # atno 10718 bound_to 10713
  154.8375  135.4470  154.1279 H   0  0  0  0  0  0  0  0  0  0  0  0  # atno 10763 bound_to 10752
  153.2498  135.6925  153.7698 H   0  0  0  0  0  0  0  0  0  0  0  0  # atno 10764 bound_to 10752
  153.7015  135.3371  155.3201 H   0  0  0  0  0  0  0  0  0  0  0  0  # atno 10765 bound_to 10752
  140.9805  134.0679  157.3770 H   0  0  0  0  0  0  0  0  0  0  0  0  # atno 11005 bound_to 11000
  145.4286  139.1552  143.4034 LP  0  0  0  0  0  0  0  0  0  0  0  0  # atno 17320 bound_to 7965
  146.2870  140.4401  142.8754 LP  0  0  0  0  0  0  0  0  0  0  0  0  # atno 17321 bound_to 7965
  139.5601  144.7400  151.4179 LP  0  0  0  0  0  0  0  0  0  0  0  0  # atno 17342 bound_to 10162
  140.6907  143.7868  150.7251 LP  0  0  0  0  0  0  0  0  0  0  0  0  # atno 17343 bound_to 10162
  157.4160  130.7411  149.6876 LP  0  0  0  0  0  0  0  0  0  0  0  0  # atno 17370 bound_to 10713
  155.9759  130.4083  150.3817 LP  0  0  0  0  0  0  0  0  0  0  0  0  # atno 17371 bound_to 10713
  139.8948  135.0138  156.6971 LP  0  0  0  0  0  0  0  0  0  0  0  0  # atno 17394 bound_to 11000
  140.7193  133.9154  155.8136 LP  0  0  0  0  0  0  0  0  0  0  0  0  # atno 17395 bound_to 11000

$$$$
