AV-unprocessed.smi:2526|AV-procd|sdf|9938|dock9
  -GOLD-   2272013583D 1   1.00000     0.00000
 Structure written by MMmdl.
 28 29  0  0  0  0  0  0  0  0  1 V2000
  151.8907  145.4997  159.5009 C   0  0  0  0  0  0  0  0  0  0  0  0
  151.8674  144.0973  159.1442 N   0  0  0  0  0  0  0  0  0  0  0  0
  151.2363  143.4924  158.0790 C   0  0  0  0  0  0  0  0  0  0  0  0
  151.5022  142.1530  158.1457 C   0  0  0  0  0  0  0  0  0  0  0  0
  151.0488  141.0583  157.2083 C   0  0  2  0  0  0  0  0  0  0  0  0
  152.1976  140.2930  156.7137 N   0  0  0  0  0  0  0  0  0  0  0  0
  152.3707  139.7936  155.4767 C   0  0  0  0  0  0  0  0  0  0  0  0
  153.3574  139.1201  155.1894 O   0  0  0  0  0  0  0  0  0  0  0  0
  151.3267  140.1012  154.3938 C   0  0  0  0  0  0  0  0  0  0  0  0
  149.9802  140.5691  154.9650 C   0  0  0  0  0  0  0  0  0  0  0  0
  150.1951  141.6295  156.0508 C   0  0  1  0  0  0  0  0  0  0  0  0
  148.9095  142.1010  156.5336 N   0  0  0  0  0  0  0  0  0  0  0  0
  152.3203  142.0431  159.3086 C   0  0  0  0  0  0  0  0  0  0  0  0
  152.5358  143.2051  159.9024 N   0  0  0  0  0  0  0  0  0  0  0  0
  151.0559  146.0179  159.0285 H   0  0  0  0  0  0  0  0  0  0  0  0
  152.8252  145.9471  159.1620 H   0  0  0  0  0  0  0  0  0  0  0  0
  151.8097  145.6140  160.5826 H   0  0  0  0  0  0  0  0  0  0  0  0
  150.6575  144.0594  157.3647 H   0  0  0  0  0  0  0  0  0  0  0  0
  150.4408  140.3363  157.7561 H   0  0  0  0  0  0  0  0  0  0  0  0
  152.9177  140.0904  157.3919 H   0  0  0  0  0  0  0  0  0  0  0  0
  151.7393  140.8788  153.7501 H   0  0  0  0  0  0  0  0  0  0  0  0
  151.1815  139.2208  153.7665 H   0  0  0  0  0  0  0  0  0  0  0  0
  149.3645  140.9702  154.1589 H   0  0  0  0  0  0  0  0  0  0  0  0
  149.4381  139.7150  155.3745 H   0  0  0  0  0  0  0  0  0  0  0  0
  150.7155  142.4788  155.6050 H   0  0  0  0  0  0  0  0  0  0  0  0
  148.8324  143.0951  156.3730 H   0  0  0  0  0  0  0  0  0  0  0  0
  148.1686  141.6674  156.0015 H   0  0  0  0  0  0  0  0  0  0  0  0
  152.7643  141.1555  159.7351 H   0  0  0  0  0  0  0  0  0  0  0  0
  1  2  1  0  0  0  0
  1 15  1  0  0  0  0
  1 16  1  0  0  0  0
  1 17  1  0  0  0  0
  2 14  1  0  0  0  0
  2  3  1  0  0  0  0
  3  4  2  0  0  0  0
  3 18  1  0  0  0  0
  4  5  1  0  0  0  0
  4 13  1  0  0  0  0
  5 11  1  0  0  0  0
  5  6  1  0  0  0  0
  5 19  1  0  0  0  0
  6  7  1  0  0  0  0
  6 20  1  0  0  0  0
  7  8  2  0  0  0  0
  7  9  1  0  0  0  0
  9 10  1  0  0  0  0
  9 21  1  0  0  0  0
  9 22  1  0  0  0  0
 10 11  1  0  0  0  0
 10 23  1  0  0  0  0
 10 24  1  0  0  0  0
 11 12  1  0  0  0  0
 11 25  1  0  0  0  0
 12 26  1  0  0  0  0
 12 27  1  0  0  0  0
 13 14  2  0  0  0  0
 13 28  1  0  0  0  0
M  END
> <s_m_source_file>
AV-unprocessed.smi

> <i_m_source_file_index>
2526

> <i_lp_mmshare_version>
43012

> <i_f3d_flags>
0

> <s_epik_input>
W0NIM11uMVtjSF1jKFtjSF1uMSlbQ0BASF0yW05IXUMoPU8pW0NIMl1bQ0gyXVtDQEhdMltOSDJd

> <s_epik_cmdline>
J2VwaWtfcHl0aG9uJywgJy1waCcsICc3LjAnLCAnLXRuJywgJzgnLCAnLW1hJywgJzIwMCcsICctbWV0YWxfYmluZGluZycsICctaW1hZScsICc8aW5maWxlLm1hZT4nLCAnLW9tYWUnLCAnPG91dGZpbGUubWFlPic=

> <r_lp_tautomer_probability>
1

> <r_epik_Ionization_Penalty>
2.50279

> <r_epik_Ionization_Penalty_Charging>
0

> <r_epik_Ionization_Penalty_Neutral>
2.50279

> <r_epik_State_Penalty>
2.66754

> <r_epik_Charging_Adjusted_Penalty>
2.66754

> <i_epik_Tot_Q>
0

> <i_epik_Tot_abs_Q>
0

> <r_epik_Metal_State_Penalty>
2.66721

> <b_epik_Metal_Only>
0

> <s_lp_Force_Field>
OPLS_2005

> <r_lp_Energy>
8.43832

> <b_lp_Chiralities_Consistent>
1

> <s_lp_Variant>
AV-unprocessed.smi:2526-5

> <Gold.Version>
5.8.1

> <Gold.Id.Protein>
6NUR|6NUR_protein|mol2

> <Gold.PLP.Fitness>
38.2507

> <Gold.PLP.PLP>
-29.9002

> <Gold.PLP.part.hbond>
-2.0000

> <Gold.PLP.part.metal>
0.0000

> <Gold.PLP.part.buried>
-0.6119

> <Gold.PLP.part.nonpolar>
-27.3814

> <Gold.PLP.part.repulsive>
0.1204

> <Gold.PLP.ligand.clash>
0.0000

> <Gold.PLP.ligand.torsion>
0.0377

> <Gold.PLP.Chemscore.Hbond>
1.8000

> <Gold.PLP.Chemscore.CHOScore>
1.0000

> <Gold.PLP.Chemscore.Metal>
0.0000

> <Gold.Chemscore.Hbonds>
donor molecule, donor type, donor heavy atom, donor atom, acceptor molecule, acceptor atom, score
      L1  H    12    26       P1  8028  1.00
      P1  H  7997  8010       L1     8  0.75
      L1  C     3    18       P1  8028  1.00

> <Gold.PLP.Chemscore.Internal.Correction>
0.0258

> <Gold.Rescore>
     Score         DG    S(hbond)    S(metal)    S(lipo)     H(rot)  DE(clash)    DE(int)     intcor
     14.07     -14.14       1.01        0.00      67.14       1.00       0.04       0.02       ----

> <Gold.Chemscore.Fitness>
14.0730

> <Gold.Chemscore.DG>
-14.1389

> <Gold.Chemscore.ZeroCoef>
-5.4800

> <Gold.Chemscore.Hbond>
1.0071

> <Gold.Chemscore.Metal>
0.0000

> <Gold.Chemscore.Lipo>
67.1399

> <Gold.Chemscore.Internal_Hbond>
0.0000

> <Gold.Chemscore.DEClash>
0.0421

> <Gold.Chemscore.DEInternal>
0.0238

> <Gold.Chemscore.Rot>
1.0000

> <Gold.Chemscore.Internal.Correction>
   9.000000E+99

> <Gold.Chemscore.Hbonds>
donor molecule, donor type, donor heavy atom, donor atom, acceptor molecule, acceptor atom, score
      L1  H    12    26       P1  8028  0.98
      P1  H  7997  8010       L1     8  0.09

> <Gold.Chemscore.Hbond.Weighted>
-3.3636

> <Gold.Chemscore.Metal.Weighted>
-0.0000

> <Gold.Chemscore.Lipo.Weighted>
-7.8554

> <Gold.Chemscore.Internal_Hbond.Weighted>
0.0000

> <Gold.Chemscore.DEClash.Weighted>
0.0421

> <Gold.Chemscore.DEInternal.Weighted>
0.0238

> <Gold.Chemscore.Rot.Weighted>
2.5600

> <Gold.Chemscore.Internal.Correction.Weighted>
   9.000000E+99

> <Gold.Protein.RotatedTorsions>
[ 6907 6896 6895 6894 ] final  -34.46 input  -60.11 | X-H torsion
[ 7974 7965 7964 7962 ] final   18.40 input  175.53 | X-H torsion
[ 8008 7997 7996 7995 ] final  102.79 input   59.86 | X-H torsion
[ 10167 10162 10161 10158 ] final -102.96 input  -65.29 | X-H torsion
[ 10718 10713 10712 10709 ] final   54.34 input   66.30 | X-H torsion
[ 10763 10752 10751 10750 ] final  136.18 input  -60.55 | X-H torsion
[ 11005 11000 10999 10996 ] final   85.18 input  -57.11 | X-H torsion

> <Gold.Protein.ActiveResidues>
 VAL166  LYS551  ARG553  GLY616  TRP617  ASP618  TYR619  PRO620  LYS621  CYS622 
 ASP623  PHE694  ASN695  SER759  ASP760  ASP761  ALA762  ILE779  LEU786  VAL792 
 PHE793  MET794  SER795  GLU796  ALA797  LYS798  CYS799  TRP800  GLU811  SER814 

> <Gold.Protein.RotatedAtoms>
  151.0523  134.9681  159.8217 H   0  0  0  0  0  0  0  0  0  0  0  0  # atno 6907 bound_to 6896
  152.5382  134.2521  159.8913 H   0  0  0  0  0  0  0  0  0  0  0  0  # atno 6908 bound_to 6896
  151.2538  133.4294  159.2646 H   0  0  0  0  0  0  0  0  0  0  0  0  # atno 6909 bound_to 6896
  146.2186  139.8463  142.8631 H   0  0  0  0  0  0  0  0  0  0  0  0  # atno 7974 bound_to 7965
  156.1425  140.3175  155.8518 H   0  0  0  0  0  0  0  0  0  0  0  0  # atno 8008 bound_to 7997
  155.4127  140.0507  157.3048 H   0  0  0  0  0  0  0  0  0  0  0  0  # atno 8009 bound_to 7997
  154.4988  140.2121  155.9402 H   0  0  0  0  0  0  0  0  0  0  0  0  # atno 8010 bound_to 7997
  140.2251  143.3647  152.0935 H   0  0  0  0  0  0  0  0  0  0  0  0  # atno 10167 bound_to 10162
  157.5248  130.8589  149.8607 H   0  0  0  0  0  0  0  0  0  0  0  0  # atno 10718 bound_to 10713
  153.8523  135.3078  155.3433 H   0  0  0  0  0  0  0  0  0  0  0  0  # atno 10763 bound_to 10752
  154.7886  135.4795  154.0004 H   0  0  0  0  0  0  0  0  0  0  0  0  # atno 10764 bound_to 10752
  153.1511  135.6843  153.8974 H   0  0  0  0  0  0  0  0  0  0  0  0  # atno 10765 bound_to 10752
  139.8979  134.8269  156.2547 H   0  0  0  0  0  0  0  0  0  0  0  0  # atno 11005 bound_to 11000
  145.2847  141.0149  143.3697 LP  0  0  0  0  0  0  0  0  0  0  0  0  # atno 17320 bound_to 7965
  144.9123  139.4513  143.6581 LP  0  0  0  0  0  0  0  0  0  0  0  0  # atno 17321 bound_to 7965
  139.5130  144.6925  151.5720 LP  0  0  0  0  0  0  0  0  0  0  0  0  # atno 17342 bound_to 10162
  140.6226  143.9229  150.6538 LP  0  0  0  0  0  0  0  0  0  0  0  0  # atno 17343 bound_to 10162
  156.0379  130.3746  150.1512 LP  0  0  0  0  0  0  0  0  0  0  0  0  # atno 17370 bound_to 10713
  156.9699  130.9831  151.3461 LP  0  0  0  0  0  0  0  0  0  0  0  0  # atno 17371 bound_to 10713
  141.0201  133.7046  156.1254 LP  0  0  0  0  0  0  0  0  0  0  0  0  # atno 17394 bound_to 11000
  140.7246  134.4321  157.5572 LP  0  0  0  0  0  0  0  0  0  0  0  0  # atno 17395 bound_to 11000

$$$$
