AV-unprocessed.smi:1903|AV-procd|sdf|7722|dock1
  -GOLD-   22720 9463D 1   1.00000     0.00000
 Structure written by MMmdl.
 47 48  0  0  0  0  0  0  0  0  2 V2000
  153.0220  138.5204  154.9240 C   0  0  0  0  0  0  0  0  0  0  0  0
  152.1950  139.4290  155.7883 C   0  0  0  0  0  0  0  0  0  0  0  0
  152.6143  139.7258  157.0070 N   0  0  0  0  0  0  0  0  0  0  0  0
  151.6666  140.5429  157.5078 N   0  0  0  0  0  0  0  0  0  0  0  0
  151.8171  141.0676  158.8512 C   0  0  0  0  0  0  0  0  0  0  0  0
  150.6461  140.7635  156.6035 C   0  0  0  0  0  0  0  0  0  0  0  0
  149.4783  141.6401  156.9237 C   0  0  0  0  0  0  0  0  0  0  0  0
  150.9540  140.0559  155.4717 C   0  0  0  0  0  0  0  0  0  0  0  0
  150.1809  139.9489  154.1814 C   0  0  0  0  0  0  0  0  0  0  0  0
  148.7663  139.4440  154.4667 C   0  0  0  0  0  0  0  0  0  0  0  0
  148.4142  139.2160  155.6238 O   0  0  0  0  0  0  0  0  0  0  0  0
  147.9643  139.2721  153.4042 N   0  0  0  0  0  0  0  0  0  0  0  0
  146.5961  138.7725  153.4606 C   0  0  0  0  0  0  0  0  0  0  0  0
  146.5354  137.3500  154.0501 C   0  0  0  0  0  0  0  0  0  0  0  0
  146.4259  136.3048  153.0010 N   0  3  0  0  0  0  0  0  0  0  0  0
  146.3116  134.9399  153.5794 C   0  0  0  0  0  0  0  0  0  0  0  0
  146.3359  133.8634  152.4812 C   0  0  0  0  0  0  0  0  0  0  0  0
  145.2309  134.1083  151.4463 C   0  0  0  0  0  0  0  0  0  0  0  0
  145.3492  135.5304  150.8845 C   0  0  0  0  0  0  0  0  0  0  0  0
  145.3439  136.5728  152.0154 C   0  0  0  0  0  0  0  0  0  0  0  0
  153.2064  138.9716  153.9491 H   0  0  0  0  0  0  0  0  0  0  0  0
  152.5120  137.5713  154.7593 H   0  0  0  0  0  0  0  0  0  0  0  0
  153.9910  138.3026  155.3748 H   0  0  0  0  0  0  0  0  0  0  0  0
  150.9303  140.8313  159.4398 H   0  0  0  0  0  0  0  0  0  0  0  0
  151.9402  142.1500  158.8091 H   0  0  0  0  0  0  0  0  0  0  0  0
  152.6892  140.6314  159.3401 H   0  0  0  0  0  0  0  0  0  0  0  0
  148.7840  141.7003  156.0859 H   0  0  0  0  0  0  0  0  0  0  0  0
  149.8078  142.6528  157.1565 H   0  0  0  0  0  0  0  0  0  0  0  0
  148.9303  141.2560  157.7842 H   0  0  0  0  0  0  0  0  0  0  0  0
  150.1168  140.9149  153.6791 H   0  0  0  0  0  0  0  0  0  0  0  0
  150.6675  139.2770  153.4737 H   0  0  0  0  0  0  0  0  0  0  0  0
  148.3397  139.4802  152.4900 H   0  0  0  0  0  0  0  0  0  0  0  0
  146.0255  139.4721  154.0701 H   0  0  0  0  0  0  0  0  0  0  0  0
  146.1510  138.7941  152.4642 H   0  0  0  0  0  0  0  0  0  0  0  0
  147.4475  137.1790  154.6238 H   0  0  0  0  0  0  0  0  0  0  0  0
  145.7079  137.2558  154.7551 H   0  0  0  0  0  0  0  0  0  0  0  0
  147.1377  134.7612  154.2691 H   0  0  0  0  0  0  0  0  0  0  0  0
  145.3910  134.8653  154.1607 H   0  0  0  0  0  0  0  0  0  0  0  0
  147.3082  133.8661  151.9867 H   0  0  0  0  0  0  0  0  0  0  0  0
  146.2175  132.8744  152.9253 H   0  0  0  0  0  0  0  0  0  0  0  0
  145.2980  133.3765  150.6408 H   0  0  0  0  0  0  0  0  0  0  0  0
  144.2529  133.9745  151.9104 H   0  0  0  0  0  0  0  0  0  0  0  0
  146.2698  135.6211  150.3067 H   0  0  0  0  0  0  0  0  0  0  0  0
  144.5299  135.7272  150.1928 H   0  0  0  0  0  0  0  0  0  0  0  0
  144.3785  136.5683  152.5236 H   0  0  0  0  0  0  0  0  0  0  0  0
  145.4641  137.5629  151.5776 H   0  0  0  0  0  0  0  0  0  0  0  0
  147.2986  136.3196  152.4925 H   0  0  0  0  0  0  0  0  0  0  0  0
  1  2  1  0  0  0  0
  1 21  1  0  0  0  0
  1 22  1  0  0  0  0
  1 23  1  0  0  0  0
  2  8  1  0  0  0  0
  2  3  2  0  0  0  0
  3  4  1  0  0  0  0
  4  5  1  0  0  0  0
  4  6  1  0  0  0  0
  5 24  1  0  0  0  0
  5 25  1  0  0  0  0
  5 26  1  0  0  0  0
  6  7  1  0  0  0  0
  6  8  2  0  0  0  0
  7 27  1  0  0  0  0
  7 28  1  0  0  0  0
  7 29  1  0  0  0  0
  8  9  1  0  0  0  0
  9 10  1  0  0  0  0
  9 30  1  0  0  0  0
  9 31  1  0  0  0  0
 10 11  2  0  0  0  0
 10 12  1  0  0  0  0
 12 13  1  0  0  0  0
 12 32  1  0  0  0  0
 13 14  1  0  0  0  0
 13 33  1  0  0  0  0
 13 34  1  0  0  0  0
 14 15  1  0  0  0  0
 14 35  1  0  0  0  0
 14 36  1  0  0  0  0
 15 20  1  0  0  0  0
 15 16  1  0  0  0  0
 15 47  1  0  0  0  0
 16 17  1  0  0  0  0
 16 37  1  0  0  0  0
 16 38  1  0  0  0  0
 17 18  1  0  0  0  0
 17 39  1  0  0  0  0
 17 40  1  0  0  0  0
 18 19  1  0  0  0  0
 18 41  1  0  0  0  0
 18 42  1  0  0  0  0
 19 20  1  0  0  0  0
 19 43  1  0  0  0  0
 19 44  1  0  0  0  0
 20 45  1  0  0  0  0
 20 46  1  0  0  0  0
M  CHG  1  15   1
M  END
> <s_m_source_file>
AV-unprocessed.smi

> <i_m_source_file_index>
1903

> <i_lp_mmshare_version>
43012

> <i_f3d_flags>
0

> <s_epik_input>
W0NIM11jMW5uKFtDSDNdKWMoW0NIM10pYzFbQ0gyXUMoPU8pW05IXVtDSDJdW0NIMl1OMltDSDJdW0NIMl1bQ0gyXVtDSDJdW0NIMl0y

> <s_epik_cmdline>
J2VwaWtfcHl0aG9uJywgJy1waCcsICc3LjAnLCAnLXRuJywgJzgnLCAnLW1hJywgJzIwMCcsICctbWV0YWxfYmluZGluZycsICctaW1hZScsICc8aW5maWxlLm1hZT4nLCAnLW9tYWUnLCAnPG91dGZpbGUubWFlPic=

> <r_lp_tautomer_probability>
1

> <r_epik_Ionization_Penalty>
0.00456445

> <r_epik_Ionization_Penalty_Charging>
0.00240401

> <r_epik_Ionization_Penalty_Neutral>
0.00216044

> <r_epik_State_Penalty>
-0

> <r_epik_Charging_Adjusted_Penalty>
0.00240401

> <i_epik_Tot_Q>
1

> <i_epik_Tot_abs_Q>
1

> <r_epik_Metal_State_Penalty>
-0

> <b_epik_Metal_Only>
0

> <s_lp_Force_Field>
OPLS_2005

> <r_lp_Energy>
10.8117

> <b_lp_Chiralities_Consistent>
1

> <s_lp_Variant>
AV-unprocessed.smi:1903-1

> <Gold.Version>
5.8.1

> <Gold.Id.Protein>
6NUR|6NUR_protein|mol2

> <Gold.PLP.Fitness>
44.5582

> <Gold.PLP.PLP>
-33.0693

> <Gold.PLP.part.hbond>
-3.0000

> <Gold.PLP.part.metal>
0.0000

> <Gold.PLP.part.buried>
0.1337

> <Gold.PLP.part.nonpolar>
-30.2052

> <Gold.PLP.part.repulsive>
0.0607

> <Gold.PLP.ligand.clash>
0.0000

> <Gold.PLP.ligand.torsion>
0.3170

> <Gold.PLP.Chemscore.Hbond>
4.0000

> <Gold.PLP.Chemscore.CHOScore>
0.0000

> <Gold.PLP.Chemscore.Metal>
0.0000

> <Gold.Chemscore.Hbonds>
donor molecule, donor type, donor heavy atom, donor atom, acceptor molecule, acceptor atom, score
      L1  H    12    32       P1  7957  1.00
      L1  H    15    47       P1  7948  2.00
      P1  H  7997  8008       L1     3  0.80

> <Gold.PLP.Chemscore.Internal.Correction>
0.1230

> <Gold.Rescore>
     Score         DG    S(hbond)    S(metal)    S(lipo)     H(rot)  DE(clash)    DE(int)     intcor
     17.21     -20.05       2.69        0.00      83.83       1.65       1.46       1.38       ----

> <Gold.Chemscore.Fitness>
17.2144

> <Gold.Chemscore.DG>
-20.0526

> <Gold.Chemscore.ZeroCoef>
-5.4800

> <Gold.Chemscore.Hbond>
2.6886

> <Gold.Chemscore.Metal>
0.0000

> <Gold.Chemscore.Lipo>
83.8300

> <Gold.Chemscore.Internal_Hbond>
0.0000

> <Gold.Chemscore.DEClash>
1.4559

> <Gold.Chemscore.DEInternal>
1.3824

> <Gold.Chemscore.Rot>
1.6467

> <Gold.Chemscore.Internal.Correction>
   9.000000E+99

> <Gold.Chemscore.Hbonds>
donor molecule, donor type, donor heavy atom, donor atom, acceptor molecule, acceptor atom, score
      L1  H    12    32       P1  7957  0.99
      L1  H    15    47       P1  7948  1.00
      P1  H  7997  8008       L1     3  0.12

> <Gold.Chemscore.Hbond.Weighted>
-8.9800

> <Gold.Chemscore.Metal.Weighted>
-0.0000

> <Gold.Chemscore.Lipo.Weighted>
-9.8081

> <Gold.Chemscore.Internal_Hbond.Weighted>
0.0000

> <Gold.Chemscore.DEClash.Weighted>
1.4559

> <Gold.Chemscore.DEInternal.Weighted>
1.3824

> <Gold.Chemscore.Rot.Weighted>
4.2155

> <Gold.Chemscore.Internal.Correction.Weighted>
   9.000000E+99

> <Gold.Protein.RotatedTorsions>
[ 6907 6896 6895 6894 ] final -152.57 input  -60.11 | X-H torsion
[ 7974 7965 7964 7962 ] final   15.18 input  175.53 | X-H torsion
[ 8008 7997 7996 7995 ] final  -52.13 input   59.86 | X-H torsion
[ 10167 10162 10161 10158 ] final  173.55 input  -65.29 | X-H torsion
[ 10718 10713 10712 10709 ] final  138.51 input   66.30 | X-H torsion
[ 10763 10752 10751 10750 ] final    2.97 input  -60.55 | X-H torsion
[ 11005 11000 10999 10996 ] final   58.91 input  -57.11 | X-H torsion

> <Gold.Protein.ActiveResidues>
 VAL166  LYS551  ARG553  GLY616  TRP617  ASP618  TYR619  PRO620  LYS621  CYS622 
 ASP623  PHE694  ASN695  SER759  ASP760  ASP761  ALA762  ILE779  LEU786  VAL792 
 PHE793  MET794  SER795  GLU796  ALA797  LYS798  CYS799  TRP800  GLU811  SER814 

> <Gold.Protein.RotatedAtoms>
  151.2298  133.4456  159.2603 H   0  0  0  0  0  0  0  0  0  0  0  0  # atno 6907 bound_to 6896
  151.0805  134.9855  159.8364 H   0  0  0  0  0  0  0  0  0  0  0  0  # atno 6908 bound_to 6896
  152.5423  134.2238  159.8851 H   0  0  0  0  0  0  0  0  0  0  0  0  # atno 6909 bound_to 6896
  146.2285  139.8932  142.8551 H   0  0  0  0  0  0  0  0  0  0  0  0  # atno 7974 bound_to 7965
  154.4099  140.1231  156.4941 H   0  0  0  0  0  0  0  0  0  0  0  0  # atno 8008 bound_to 7997
  155.6960  140.3495  155.4894 H   0  0  0  0  0  0  0  0  0  0  0  0  # atno 8009 bound_to 7997
  155.9427  140.1090  157.1032 H   0  0  0  0  0  0  0  0  0  0  0  0  # atno 8010 bound_to 7997
  139.5112  144.3247  152.0169 H   0  0  0  0  0  0  0  0  0  0  0  0  # atno 10167 bound_to 10162
  157.4245  131.1042  151.0317 H   0  0  0  0  0  0  0  0  0  0  0  0  # atno 10718 bound_to 10713
  153.2890  135.6947  153.7311 H   0  0  0  0  0  0  0  0  0  0  0  0  # atno 10763 bound_to 10752
  153.6270  135.3417  155.3030 H   0  0  0  0  0  0  0  0  0  0  0  0  # atno 10764 bound_to 10752
  154.8518  135.4400  154.1967 H   0  0  0  0  0  0  0  0  0  0  0  0  # atno 10765 bound_to 10752
  140.0342  134.5967  155.9466 H   0  0  0  0  0  0  0  0  0  0  0  0  # atno 11005 bound_to 11000
  145.2397  141.0004  143.3943 LP  0  0  0  0  0  0  0  0  0  0  0  0  # atno 17320 bound_to 7965
  144.9462  139.4133  143.6425 LP  0  0  0  0  0  0  0  0  0  0  0  0  # atno 17321 bound_to 7965
  140.2688  144.3986  150.6158 LP  0  0  0  0  0  0  0  0  0  0  0  0  # atno 17342 bound_to 10162
  140.6103  143.2169  151.6899 LP  0  0  0  0  0  0  0  0  0  0  0  0  # atno 17343 bound_to 10162
  157.1236  130.6072  149.5511 LP  0  0  0  0  0  0  0  0  0  0  0  0  # atno 17370 bound_to 10713
  155.9892  130.4938  150.7202 LP  0  0  0  0  0  0  0  0  0  0  0  0  # atno 17371 bound_to 10713
  141.1848  133.6553  156.5173 LP  0  0  0  0  0  0  0  0  0  0  0  0  # atno 17394 bound_to 11000
  140.4174  134.7218  157.4871 LP  0  0  0  0  0  0  0  0  0  0  0  0  # atno 17395 bound_to 11000

$$$$
