AV-unprocessed.smi:2923|AV-procd|sdf|11211|dock2
  -GOLD-   2272016103D 1   1.00000     0.00000
 Structure written by MMmdl.
 46 48  0  0  0  0  0  0  0  0  1 V2000
  151.7183  140.6208  158.0253 C   0  0  0  0  0  0  0  0  0  0  0  0
  151.3256  141.2589  156.7783 N   0  0  0  0  0  0  0  0  0  0  0  0
  150.9118  142.6508  156.8691 C   0  0  0  0  0  0  0  0  0  0  0  0
  150.4442  140.4779  156.0194 C   0  0  0  0  0  0  0  0  0  0  0  0
  149.1292  140.2125  156.4640 C   0  0  0  0  0  0  0  0  0  0  0  0
  148.2886  139.4202  155.6594 C   0  0  0  0  0  0  0  0  0  0  0  0
  148.7917  138.9111  154.4386 C   0  0  0  0  0  0  0  0  0  0  0  0
  148.0374  138.1182  153.5326 N   0  0  0  0  0  0  0  0  0  0  0  0
  146.7034  137.9739  153.4610 C   0  0  0  0  0  0  0  0  0  0  0  0
  145.8880  138.4949  154.2219 O   0  0  0  0  0  0  0  0  0  0  0  0
  146.3579  137.1572  152.4576 N   0  0  0  0  0  0  0  0  0  0  0  0
  144.9862  136.7693  152.1519 C   0  0  1  0  0  0  0  0  0  0  0  0
  144.8675  135.3023  151.7398 C   0  0  2  0  0  0  0  0  0  0  0  0
  144.5009  134.5970  150.4829 C   0  0  0  0  0  0  0  0  0  0  0  0
  143.5178  133.5651  151.0978 C   0  0  0  0  0  0  0  0  0  0  0  0
  143.2894  133.9973  152.4618 O   0  0  0  0  0  0  0  0  0  0  0  0
  143.5117  135.3918  152.4138 C   0  0  1  0  0  0  0  0  0  0  0  0
  144.1519  136.3645  153.4246 C   0  0  0  0  0  0  0  0  0  0  0  0
  144.8701  135.7597  154.6487 C   0  0  0  0  0  0  0  0  0  0  0  0
  143.2235  137.4516  153.9667 C   0  0  0  0  0  0  0  0  0  0  0  0
  150.1138  139.2487  154.0820 C   0  0  0  0  0  0  0  0  0  0  0  0
  150.9252  140.0073  154.8485 N   0  0  0  0  0  0  0  0  0  0  0  0
  152.0291  139.5896  157.8516 H   0  0  0  0  0  0  0  0  0  0  0  0
  150.8956  140.6180  158.7413 H   0  0  0  0  0  0  0  0  0  0  0  0
  152.5579  141.1534  158.4730 H   0  0  0  0  0  0  0  0  0  0  0  0
  150.6456  143.0417  155.8863 H   0  0  0  0  0  0  0  0  0  0  0  0
  151.7250  143.2602  157.2636 H   0  0  0  0  0  0  0  0  0  0  0  0
  150.0508  142.7612  157.5294 H   0  0  0  0  0  0  0  0  0  0  0  0
  148.7659  140.6104  157.4002 H   0  0  0  0  0  0  0  0  0  0  0  0
  147.2780  139.2330  155.9870 H   0  0  0  0  0  0  0  0  0  0  0  0
  148.5804  137.5531  152.8962 H   0  0  0  0  0  0  0  0  0  0  0  0
  147.0872  136.7648  151.8806 H   0  0  0  0  0  0  0  0  0  0  0  0
  144.4668  137.4492  151.4700 H   0  0  0  0  0  0  0  0  0  0  0  0
  145.5833  134.6923  152.2958 H   0  0  0  0  0  0  0  0  0  0  0  0
  144.0067  135.2608  149.7717 H   0  0  0  0  0  0  0  0  0  0  0  0
  145.3544  134.1244  149.9964 H   0  0  0  0  0  0  0  0  0  0  0  0
  142.5800  133.5443  150.5416 H   0  0  0  0  0  0  0  0  0  0  0  0
  143.9332  132.5571  151.0993 H   0  0  0  0  0  0  0  0  0  0  0  0
  142.7455  135.8834  151.8031 H   0  0  0  0  0  0  0  0  0  0  0  0
  144.1562  135.3111  155.3399 H   0  0  0  0  0  0  0  0  0  0  0  0
  145.4192  136.5222  155.2022 H   0  0  0  0  0  0  0  0  0  0  0  0
  145.5883  134.9819  154.3967 H   0  0  0  0  0  0  0  0  0  0  0  0
  142.4824  137.0399  154.6525 H   0  0  0  0  0  0  0  0  0  0  0  0
  142.6790  137.9508  153.1648 H   0  0  0  0  0  0  0  0  0  0  0  0
  143.7795  138.2218  154.5025 H   0  0  0  0  0  0  0  0  0  0  0  0
  150.5383  138.8957  153.1533 H   0  0  0  0  0  0  0  0  0  0  0  0
  1  2  1  0  0  0  0
  1 23  1  0  0  0  0
  1 24  1  0  0  0  0
  1 25  1  0  0  0  0
  2  3  1  0  0  0  0
  2  4  1  0  0  0  0
  3 26  1  0  0  0  0
  3 27  1  0  0  0  0
  3 28  1  0  0  0  0
  4 22  1  0  0  0  0
  4  5  2  0  0  0  0
  5  6  1  0  0  0  0
  5 29  1  0  0  0  0
  6  7  2  0  0  0  0
  6 30  1  0  0  0  0
  7  8  1  0  0  0  0
  7 21  1  0  0  0  0
  8  9  1  0  0  0  0
  8 31  1  0  0  0  0
  9 10  2  0  0  0  0
  9 11  1  0  0  0  0
 11 12  1  0  0  0  0
 11 32  1  0  0  0  0
 12 18  1  0  0  0  0
 12 13  1  0  0  0  0
 12 33  1  0  0  0  0
 13 17  1  0  0  0  0
 13 14  1  0  0  0  0
 13 34  1  0  0  0  0
 14 15  1  0  0  0  0
 14 35  1  0  0  0  0
 14 36  1  0  0  0  0
 15 16  1  0  0  0  0
 15 37  1  0  0  0  0
 15 38  1  0  0  0  0
 16 17  1  0  0  0  0
 17 18  1  0  0  0  0
 17 39  1  0  0  0  0
 18 19  1  0  0  0  0
 18 20  1  0  0  0  0
 19 40  1  0  0  0  0
 19 41  1  0  0  0  0
 19 42  1  0  0  0  0
 20 43  1  0  0  0  0
 20 44  1  0  0  0  0
 20 45  1  0  0  0  0
 21 22  2  0  0  0  0
 21 46  1  0  0  0  0
M  END
> <s_m_source_file>
AV-unprocessed.smi

> <i_m_source_file_index>
2923

> <i_lp_mmshare_version>
43012

> <i_f3d_flags>
0

> <s_epik_input>
W0NIM11OKFtDSDNdKWMxW2NIXVtjSF1jKFtjSF1uMSlbTkhdQyg9TylbTkhdW0NASF0yQyhbQ0gzXSkoW0NIM10pW0NAQEhdKFtDQEhdMjMpT1tDSDJdW0NIMl0z

> <s_epik_cmdline>
J2VwaWtfcHl0aG9uJywgJy1waCcsICc3LjAnLCAnLXRuJywgJzgnLCAnLW1hJywgJzIwMCcsICctbWV0YWxfYmluZGluZycsICctaW1hZScsICc8aW5maWxlLm1hZT4nLCAnLW9tYWUnLCAnPG91dGZpbGUubWFlPic=

> <r_lp_tautomer_probability>
1

> <r_epik_Ionization_Penalty>
0.628785

> <r_epik_Ionization_Penalty_Charging>
0

> <r_epik_Ionization_Penalty_Neutral>
0.628785

> <r_epik_State_Penalty>
0.644286

> <r_epik_Charging_Adjusted_Penalty>
0.644286

> <i_epik_Tot_Q>
0

> <i_epik_Tot_abs_Q>
0

> <r_epik_Metal_State_Penalty>
0.308404

> <b_epik_Metal_Only>
0

> <s_lp_Force_Field>
OPLS_2005

> <r_lp_Energy>
66.101

> <b_lp_Chiralities_Consistent>
1

> <s_lp_Variant>
AV-unprocessed.smi:2923-10

> <Gold.Version>
5.8.1

> <Gold.Id.Protein>
6NUR|6NUR_protein|mol2

> <Gold.PLP.Fitness>
36.5073

> <Gold.PLP.PLP>
-26.8456

> <Gold.PLP.part.hbond>
-3.0000

> <Gold.PLP.part.metal>
0.0000

> <Gold.PLP.part.buried>
-1.9125

> <Gold.PLP.part.nonpolar>
-22.5746

> <Gold.PLP.part.repulsive>
0.4442

> <Gold.PLP.ligand.clash>
0.0000

> <Gold.PLP.ligand.torsion>
0.4193

> <Gold.PLP.Chemscore.Hbond>
2.6780

> <Gold.PLP.Chemscore.CHOScore>
0.6651

> <Gold.PLP.Chemscore.Metal>
0.0000

> <Gold.Chemscore.Hbonds>
donor molecule, donor type, donor heavy atom, donor atom, acceptor molecule, acceptor atom, score
      L1  H     8    31       P1  7948  1.00
      L1  H    11    32       P1  7948  0.91
      P1  H  7989  7998       L1    22  0.75
      L1  C    21    46       P1  7957  0.68

> <Gold.PLP.Chemscore.Internal.Correction>
0.4710

> <Gold.Rescore>
     Score         DG    S(hbond)    S(metal)    S(lipo)     H(rot)  DE(clash)    DE(int)     intcor
     12.36     -16.68       1.99        0.00      65.03       1.19       0.37       3.96       ----

> <Gold.Chemscore.Fitness>
12.3567

> <Gold.Chemscore.DG>
-16.6837

> <Gold.Chemscore.ZeroCoef>
-5.4800

> <Gold.Chemscore.Hbond>
1.9914

> <Gold.Chemscore.Metal>
0.0000

> <Gold.Chemscore.Lipo>
65.0292

> <Gold.Chemscore.Internal_Hbond>
0.0000

> <Gold.Chemscore.DEClash>
0.3688

> <Gold.Chemscore.DEInternal>
3.9582

> <Gold.Chemscore.Rot>
1.1937

> <Gold.Chemscore.Internal.Correction>
   9.000000E+99

> <Gold.Chemscore.Hbonds>
donor molecule, donor type, donor heavy atom, donor atom, acceptor molecule, acceptor atom, score
      L1  H     8    31       P1  7948  0.99
      L1  H    11    32       P1  7948  0.88
      P1  H  7989  7998       L1    22  0.09

> <Gold.Chemscore.Hbond.Weighted>
-6.6512

> <Gold.Chemscore.Metal.Weighted>
-0.0000

> <Gold.Chemscore.Lipo.Weighted>
-7.6084

> <Gold.Chemscore.Internal_Hbond.Weighted>
0.0000

> <Gold.Chemscore.DEClash.Weighted>
0.3688

> <Gold.Chemscore.DEInternal.Weighted>
3.9582

> <Gold.Chemscore.Rot.Weighted>
3.0559

> <Gold.Chemscore.Internal.Correction.Weighted>
   9.000000E+99

> <Gold.Protein.RotatedTorsions>
[ 6907 6896 6895 6894 ] final   -0.34 input  -60.11 | X-H torsion
[ 7974 7965 7964 7962 ] final  119.72 input  175.53 | X-H torsion
[ 8008 7997 7996 7995 ] final   -9.70 input   59.86 | X-H torsion
[ 10167 10162 10161 10158 ] final  138.37 input  -65.29 | X-H torsion
[ 10718 10713 10712 10709 ] final  -42.84 input   66.30 | X-H torsion
[ 10763 10752 10751 10750 ] final   -4.35 input  -60.55 | X-H torsion
[ 11005 11000 10999 10996 ] final -144.89 input  -57.11 | X-H torsion

> <Gold.Protein.ActiveResidues>
 VAL166  LYS551  ARG553  GLY616  TRP617  ASP618  TYR619  PRO620  LYS621  CYS622 
 ASP623  PHE694  ASN695  SER759  ASP760  ASP761  ALA762  ILE779  LEU786  VAL792 
 PHE793  MET794  SER795  GLU796  ALA797  LYS798  CYS799  TRP800  GLU811  SER814 

> <Gold.Protein.RotatedAtoms>
  151.5639  135.1064  159.9978 H   0  0  0  0  0  0  0  0  0  0  0  0  # atno 6907 bound_to 6896
  152.4433  133.7485  159.6691 H   0  0  0  0  0  0  0  0  0  0  0  0  # atno 6908 bound_to 6896
  150.8343  133.7970  159.3109 H   0  0  0  0  0  0  0  0  0  0  0  0  # atno 6909 bound_to 6896
  145.1398  139.3275  143.4622 H   0  0  0  0  0  0  0  0  0  0  0  0  # atno 7974 bound_to 7965
  154.5622  140.2348  155.8318 H   0  0  0  0  0  0  0  0  0  0  0  0  # atno 8008 bound_to 7997
  156.2039  140.3045  155.9544 H   0  0  0  0  0  0  0  0  0  0  0  0  # atno 8009 bound_to 7997
  155.2867  140.0425  157.3010 H   0  0  0  0  0  0  0  0  0  0  0  0  # atno 8010 bound_to 7997
  139.5113  144.6357  151.5702 H   0  0  0  0  0  0  0  0  0  0  0  0  # atno 10167 bound_to 10162
  156.2554  130.4192  149.8602 H   0  0  0  0  0  0  0  0  0  0  0  0  # atno 10718 bound_to 10713
  153.3836  135.6999  153.6546 H   0  0  0  0  0  0  0  0  0  0  0  0  # atno 10763 bound_to 10752
  153.5148  135.3624  155.2604 H   0  0  0  0  0  0  0  0  0  0  0  0  # atno 10764 bound_to 10752
  154.8695  135.4143  154.3139 H   0  0  0  0  0  0  0  0  0  0  0  0  # atno 10765 bound_to 10752
  140.7978  134.2893  157.4990 H   0  0  0  0  0  0  0  0  0  0  0  0  # atno 11005 bound_to 11000
  146.3506  140.1430  142.8594 LP  0  0  0  0  0  0  0  0  0  0  0  0  # atno 17320 bound_to 7965
  145.0544  140.9042  143.4976 LP  0  0  0  0  0  0  0  0  0  0  0  0  # atno 17321 bound_to 7965
  140.6105  143.9444  150.6450 LP  0  0  0  0  0  0  0  0  0  0  0  0  # atno 17342 bound_to 10162
  140.2685  143.3473  152.1259 LP  0  0  0  0  0  0  0  0  0  0  0  0  # atno 17343 bound_to 10162
  156.6137  130.8597  151.3460 LP  0  0  0  0  0  0  0  0  0  0  0  0  # atno 17370 bound_to 10713
  157.7230  130.9584  150.1518 LP  0  0  0  0  0  0  0  0  0  0  0  0  # atno 17371 bound_to 10713
  139.8724  134.9412  156.3790 LP  0  0  0  0  0  0  0  0  0  0  0  0  # atno 17394 bound_to 11000
  140.9325  133.7569  156.0043 LP  0  0  0  0  0  0  0  0  0  0  0  0  # atno 17395 bound_to 11000

$$$$
