AV-unprocessed.smi:2097|AV-procd|sdf|8563|dock10
  -GOLD-   2272011293D 1   1.00000     0.00000
 Structure written by MMmdl.
 41 42  0  0  0  0  0  0  0  0  1 V2000
  157.1922  136.8307  163.5342 C   0  0  0  0  0  0  0  0  0  0  0  0
  155.7959  136.9923  164.1535 C   0  0  2  0  0  0  0  0  0  0  0  0
  155.3254  135.6902  164.4942 O   0  0  0  0  0  0  0  0  0  0  0  0
  154.1215  135.6498  165.2543 C   0  0  0  0  0  0  0  0  0  0  0  0
  153.9087  134.2301  165.7932 C   0  0  0  0  0  0  0  0  0  0  0  0
  155.0635  133.7624  166.2658 F   0  0  0  0  0  0  0  0  0  0  0  0
  153.0151  134.2416  166.7818 F   0  0  0  0  0  0  0  0  0  0  0  0
  153.4883  133.4249  164.8179 F   0  0  0  0  0  0  0  0  0  0  0  0
  154.8253  137.6755  163.1761 C   0  0  0  0  0  0  0  0  0  0  0  0
  153.7871  137.1018  162.8476 O   0  0  0  0  0  0  0  0  0  0  0  0
  155.1788  138.9088  162.7687 N   0  0  0  0  0  0  0  0  0  0  0  0
  154.4811  139.7872  161.8966 C   0  0  0  0  0  0  0  0  0  0  0  0
  154.6222  141.1733  162.1011 C   0  0  0  0  0  0  0  0  0  0  0  0
  153.9504  142.0677  161.2467 C   0  0  0  0  0  0  0  0  0  0  0  0
  153.1547  141.5529  160.1963 C   0  0  0  0  0  0  0  0  0  0  0  0
  152.4634  142.4307  159.3329 N   0  0  0  0  0  0  0  0  0  0  0  0
  151.5257  141.7977  158.4083 C   0  0  0  0  0  0  0  0  0  0  0  0
  150.6268  142.8563  157.7466 C   0  0  0  0  0  0  0  0  0  0  0  0
  151.4315  143.8511  157.1225 O   0  0  0  0  0  0  0  0  0  0  0  0
  152.2544  144.5323  158.0636 C   0  0  0  0  0  0  0  0  0  0  0  0
  153.2131  143.5326  158.7321 C   0  0  0  0  0  0  0  0  0  0  0  0
  153.0406  140.2187  159.9843 N   0  0  0  0  0  0  0  0  0  0  0  0
  153.6838  139.3638  160.8072 C   0  0  0  0  0  0  0  0  0  0  0  0
  157.6088  137.7942  163.2379 H   0  0  0  0  0  0  0  0  0  0  0  0
  157.1694  136.1890  162.6525 H   0  0  0  0  0  0  0  0  0  0  0  0
  157.8812  136.3807  164.2491 H   0  0  0  0  0  0  0  0  0  0  0  0
  155.8923  137.5905  165.0618 H   0  0  0  0  0  0  0  0  0  0  0  0
  154.1820  136.3539  166.0853 H   0  0  0  0  0  0  0  0  0  0  0  0
  153.2644  135.9376  164.6445 H   0  0  0  0  0  0  0  0  0  0  0  0
  156.0165  139.2874  163.1860 H   0  0  0  0  0  0  0  0  0  0  0  0
  155.2349  141.5517  162.9062 H   0  0  0  0  0  0  0  0  0  0  0  0
  154.0636  143.1307  161.3981 H   0  0  0  0  0  0  0  0  0  0  0  0
  152.0925  141.2615  157.6462 H   0  0  0  0  0  0  0  0  0  0  0  0
  150.8966  141.0635  158.9094 H   0  0  0  0  0  0  0  0  0  0  0  0
  149.9914  142.3902  156.9936 H   0  0  0  0  0  0  0  0  0  0  0  0
  149.9639  143.3171  158.4808 H   0  0  0  0  0  0  0  0  0  0  0  0
  152.8209  145.3064  157.5461 H   0  0  0  0  0  0  0  0  0  0  0  0
  151.6350  145.0349  158.8083 H   0  0  0  0  0  0  0  0  0  0  0  0
  153.7999  144.0496  159.4924 H   0  0  0  0  0  0  0  0  0  0  0  0
  153.9113  143.1350  157.9940 H   0  0  0  0  0  0  0  0  0  0  0  0
  153.5607  138.3211  160.5592 H   0  0  0  0  0  0  0  0  0  0  0  0
  1  2  1  0  0  0  0
  1 24  1  0  0  0  0
  1 25  1  0  0  0  0
  1 26  1  0  0  0  0
  2  3  1  0  0  0  0
  2  9  1  0  0  0  0
  2 27  1  0  0  0  0
  3  4  1  0  0  0  0
  4  5  1  0  0  0  0
  4 28  1  0  0  0  0
  4 29  1  0  0  0  0
  5  6  1  0  0  0  0
  5  7  1  0  0  0  0
  5  8  1  0  0  0  0
  9 10  2  0  0  0  0
  9 11  1  0  0  0  0
 11 12  1  0  0  0  0
 11 30  1  0  0  0  0
 12 23  1  0  0  0  0
 12 13  2  0  0  0  0
 13 14  1  0  0  0  0
 13 31  1  0  0  0  0
 14 15  2  0  0  0  0
 14 32  1  0  0  0  0
 15 16  1  0  0  0  0
 15 22  1  0  0  0  0
 16 21  1  0  0  0  0
 16 17  1  0  0  0  0
 17 18  1  0  0  0  0
 17 33  1  0  0  0  0
 17 34  1  0  0  0  0
 18 19  1  0  0  0  0
 18 35  1  0  0  0  0
 18 36  1  0  0  0  0
 19 20  1  0  0  0  0
 20 21  1  0  0  0  0
 20 37  1  0  0  0  0
 20 38  1  0  0  0  0
 21 39  1  0  0  0  0
 21 40  1  0  0  0  0
 22 23  2  0  0  0  0
 23 41  1  0  0  0  0
M  END
> <s_m_source_file>
AV-unprocessed.smi

> <i_m_source_file_index>
2097

> <i_lp_mmshare_version>
43012

> <i_f3d_flags>
0

> <s_epik_input>
RkMoRikoRilbQ0gyXU9bQ0BASF0oW0NIM10pQyg9TylbTkhdYzFbY0hdW2NIXWMobltjSF0xKU4yW0NIMl1bQ0gyXU9bQ0gyXVtDSDJdMg==

> <s_epik_cmdline>
J2VwaWtfcHl0aG9uJywgJy1waCcsICc3LjAnLCAnLXRuJywgJzgnLCAnLW1hJywgJzIwMCcsICctbWV0YWxfYmluZGluZycsICctaW1hZScsICc8aW5maWxlLm1hZT4nLCAnLW9tYWUnLCAnPG91dGZpbGUubWFlPic=

> <r_lp_tautomer_probability>
1

> <r_epik_Ionization_Penalty>
0.000443452

> <r_epik_Ionization_Penalty_Charging>
0

> <r_epik_Ionization_Penalty_Neutral>
0.000443452

> <r_epik_State_Penalty>
0.00027288

> <r_epik_Charging_Adjusted_Penalty>
0.00027288

> <i_epik_Tot_Q>
0

> <i_epik_Tot_abs_Q>
0

> <r_epik_Metal_State_Penalty>
-0

> <b_epik_Metal_Only>
0

> <s_lp_Force_Field>
OPLS_2005

> <r_lp_Energy>
25.2007

> <b_lp_Chiralities_Consistent>
1

> <s_lp_Variant>
AV-unprocessed.smi:2097-1

> <Gold.Version>
5.8.1

> <Gold.Id.Protein>
6NUR|6NUR_protein|mol2

> <Gold.PLP.Fitness>
42.4920

> <Gold.PLP.PLP>
-43.3926

> <Gold.PLP.part.hbond>
0.0000

> <Gold.PLP.part.metal>
0.0000

> <Gold.PLP.part.buried>
-4.4519

> <Gold.PLP.part.nonpolar>
-38.4697

> <Gold.PLP.part.repulsive>
0.1989

> <Gold.PLP.ligand.clash>
0.0000

> <Gold.PLP.ligand.torsion>
0.6391

> <Gold.PLP.Chemscore.Hbond>
0.0000

> <Gold.PLP.Chemscore.CHOScore>
0.0000

> <Gold.PLP.Chemscore.Metal>
0.0000

> <Gold.PLP.Chemscore.Internal.Correction>
0.3775

> <Gold.Rescore>
     Score         DG    S(hbond)    S(metal)    S(lipo)     H(rot)  DE(clash)    DE(int)     intcor
     11.60     -12.59       0.00        0.00     103.41       1.95       0.01       0.98       ----

> <Gold.Chemscore.Fitness>
11.5980

> <Gold.Chemscore.DG>
-12.5888

> <Gold.Chemscore.ZeroCoef>
-5.4800

> <Gold.Chemscore.Hbond>
0.0000

> <Gold.Chemscore.Metal>
0.0000

> <Gold.Chemscore.Lipo>
103.4061

> <Gold.Chemscore.Internal_Hbond>
0.0000

> <Gold.Chemscore.DEClash>
0.0149

> <Gold.Chemscore.DEInternal>
0.9760

> <Gold.Chemscore.Rot>
1.9491

> <Gold.Chemscore.Internal.Correction>
   9.000000E+99

> <Gold.Chemscore.Hbond.Weighted>
-0.0000

> <Gold.Chemscore.Metal.Weighted>
-0.0000

> <Gold.Chemscore.Lipo.Weighted>
-12.0985

> <Gold.Chemscore.Internal_Hbond.Weighted>
0.0000

> <Gold.Chemscore.DEClash.Weighted>
0.0149

> <Gold.Chemscore.DEInternal.Weighted>
0.9760

> <Gold.Chemscore.Rot.Weighted>
4.9897

> <Gold.Chemscore.Internal.Correction.Weighted>
   9.000000E+99

> <Gold.Protein.RotatedTorsions>
[ 6907 6896 6895 6894 ] final  -56.15 input  -60.11 | X-H torsion
[ 7974 7965 7964 7962 ] final    6.13 input  175.53 | X-H torsion
[ 8008 7997 7996 7995 ] final   43.22 input   59.86 | X-H torsion
[ 10167 10162 10161 10158 ] final  136.61 input  -65.29 | X-H torsion
[ 10718 10713 10712 10709 ] final -126.34 input   66.30 | X-H torsion
[ 10763 10752 10751 10750 ] final -141.66 input  -60.55 | X-H torsion
[ 11005 11000 10999 10996 ] final  -94.45 input  -57.11 | X-H torsion

> <Gold.Protein.ActiveResidues>
 VAL166  LYS551  ARG553  GLY616  TRP617  ASP618  TYR619  PRO620  LYS621  CYS622 
 ASP623  PHE694  ASN695  SER759  ASP760  ASP761  ALA762  ILE779  LEU786  VAL792 
 PHE793  MET794  SER795  GLU796  ALA797  LYS798  CYS799  TRP800  GLU811  SER814 

> <Gold.Protein.RotatedAtoms>
  150.8191  134.7389  159.6756 H   0  0  0  0  0  0  0  0  0  0  0  0  # atno 6907 bound_to 6896
  152.4308  134.5778  159.9949 H   0  0  0  0  0  0  0  0  0  0  0  0  # atno 6908 bound_to 6896
  151.5966  133.3323  159.3075 H   0  0  0  0  0  0  0  0  0  0  0  0  # atno 6909 bound_to 6896
  146.2436  140.0280  142.8392 H   0  0  0  0  0  0  0  0  0  0  0  0  # atno 7974 bound_to 7965
  155.2992  140.3384  155.4248 H   0  0  0  0  0  0  0  0  0  0  0  0  # atno 8008 bound_to 7997
  156.2009  140.1732  156.7940 H   0  0  0  0  0  0  0  0  0  0  0  0  # atno 8009 bound_to 7997
  154.5558  140.0696  156.8725 H   0  0  0  0  0  0  0  0  0  0  0  0  # atno 8010 bound_to 7997
  139.5173  144.6455  151.5451 H   0  0  0  0  0  0  0  0  0  0  0  0  # atno 10167 bound_to 10162
  156.1756  130.6697  151.0238 H   0  0  0  0  0  0  0  0  0  0  0  0  # atno 10718 bound_to 10713
  154.8537  135.3518  154.5903 H   0  0  0  0  0  0  0  0  0  0  0  0  # atno 10763 bound_to 10752
  153.6513  135.6994  153.5212 H   0  0  0  0  0  0  0  0  0  0  0  0  # atno 10764 bound_to 10752
  153.2891  135.4240  155.1109 H   0  0  0  0  0  0  0  0  0  0  0  0  # atno 10765 bound_to 10752
  141.1470  133.7957  157.0299 H   0  0  0  0  0  0  0  0  0  0  0  0  # atno 11005 bound_to 11000
  145.1181  140.9446  143.4617 LP  0  0  0  0  0  0  0  0  0  0  0  0  # atno 17320 bound_to 7965
  145.0509  139.3183  143.5929 LP  0  0  0  0  0  0  0  0  0  0  0  0  # atno 17321 bound_to 7965
  140.6238  143.9207  150.6548 LP  0  0  0  0  0  0  0  0  0  0  0  0  # atno 17342 bound_to 10162
  140.2489  143.3607  152.1422 LP  0  0  0  0  0  0  0  0  0  0  0  0  # atno 17343 bound_to 10162
  157.6833  131.0832  150.7310 LP  0  0  0  0  0  0  0  0  0  0  0  0  # atno 17370 bound_to 10713
  156.7368  130.4727  149.5486 LP  0  0  0  0  0  0  0  0  0  0  0  0  # atno 17371 bound_to 10713
  140.0761  134.9675  157.1547 LP  0  0  0  0  0  0  0  0  0  0  0  0  # atno 17394 bound_to 11000
  140.3643  134.2460  155.7184 LP  0  0  0  0  0  0  0  0  0  0  0  0  # atno 17395 bound_to 11000

$$$$
