AV-unprocessed.smi:283|AV-procd|sdf|2125|dock10
  -GOLD-   2262021433D 1   1.00000     0.00000
 Structure written by MMmdl.
 48 51  0  0  0  0  0  0  0  0  1 V2000
  150.9701  142.4367  156.4053 C   0  0  0  0  0  0  0  0  0  0  0  0
  151.8273  141.7733  157.4988 C   0  0  2  0  0  0  0  0  0  0  0  0
  151.3416  140.4288  157.8085 N   0  0  0  0  0  0  0  0  0  0  0  0
  151.6366  139.3676  157.0249 C   0  0  0  0  0  0  0  0  0  0  0  0
  152.4503  139.4910  155.9440 N   0  0  0  0  0  0  0  0  0  0  0  0
  152.7232  138.4243  155.1871 C   0  0  0  0  0  0  0  0  0  0  0  0
  152.2957  137.1681  155.3312 N   0  0  0  0  0  0  0  0  0  0  0  0
  151.4823  137.0361  156.4190 C   0  0  0  0  0  0  0  0  0  0  0  0
  151.1104  138.0812  157.3104 C   0  0  0  0  0  0  0  0  0  0  0  0
  150.2758  137.5803  158.3009 N   0  0  0  0  0  0  0  0  0  0  0  0
  150.1627  136.3127  158.0071 C   0  0  0  0  0  0  0  0  0  0  0  0
  150.8504  135.9015  156.8868 N   0  0  0  0  0  0  0  0  0  0  0  0
  150.9020  134.5257  156.3055 C   0  0  2  0  0  0  0  0  0  0  0  0
  150.3681  134.5756  155.0180 O   0  0  0  0  0  0  0  0  0  0  0  0
  149.5414  133.4380  154.7997 C   0  0  2  0  0  0  0  0  0  0  0  0
  148.5214  133.7405  153.6913 C   0  0  0  0  0  0  0  0  0  0  0  0
  147.8908  134.9793  153.9367 O   0  0  0  0  0  0  0  0  0  0  0  0
  148.9059  133.2300  156.1753 C   0  0  1  0  0  0  0  0  0  0  0  0
  148.3681  131.9315  156.3496 O   0  0  0  0  0  0  0  0  0  0  0  0
  150.0518  133.5479  157.1334 C   0  0  1  0  0  0  0  0  0  0  0  0
  150.8027  132.3959  157.4725 O   0  0  0  0  0  0  0  0  0  0  0  0
  151.8848  142.6755  158.7307 C   0  0  0  0  0  0  0  0  0  0  0  0
  151.0825  143.8395  158.7920 C   0  0  0  0  0  0  0  0  0  0  0  0
  151.1319  144.6884  159.9136 C   0  0  0  0  0  0  0  0  0  0  0  0
  151.9899  144.3868  160.9859 C   0  0  0  0  0  0  0  0  0  0  0  0
  152.8012  143.2388  160.9318 C   0  0  0  0  0  0  0  0  0  0  0  0
  152.7568  142.3851  159.8111 C   0  0  0  0  0  0  0  0  0  0  0  0
  153.7925  141.0003  159.7930 Cl  0  0  0  0  0  0  0  0  0  0  0  0
  151.9630  134.2723  156.2772 H   0  0  0  0  0  0  0  0  0  0  0  0
  150.1646  132.5778  154.5470 H   0  0  0  0  0  0  0  0  0  0  0  0
  148.1046  133.9549  156.3190 H   0  0  0  0  0  0  0  0  0  0  0  0
  149.6904  134.0143  158.0512 H   0  0  0  0  0  0  0  0  0  0  0  0
  151.3630  143.4198  156.1447 H   0  0  0  0  0  0  0  0  0  0  0  0
  149.9401  142.5701  156.7375 H   0  0  0  0  0  0  0  0  0  0  0  0
  150.9471  141.8461  155.4899 H   0  0  0  0  0  0  0  0  0  0  0  0
  152.8447  141.6617  157.1261 H   0  0  0  0  0  0  0  0  0  0  0  0
  150.6997  140.3684  158.5857 H   0  0  0  0  0  0  0  0  0  0  0  0
  153.3759  138.6026  154.3455 H   0  0  0  0  0  0  0  0  0  0  0  0
  149.5641  135.6379  158.6018 H   0  0  0  0  0  0  0  0  0  0  0  0
  149.0251  133.8167  152.7274 H   0  0  0  0  0  0  0  0  0  0  0  0
  147.7799  132.9452  153.6066 H   0  0  0  0  0  0  0  0  0  0  0  0
  148.1454  135.5854  153.2579 H   0  0  0  0  0  0  0  0  0  0  0  0
  147.7265  131.7792  155.6727 H   0  0  0  0  0  0  0  0  0  0  0  0
  150.2307  131.6447  157.4351 H   0  0  0  0  0  0  0  0  0  0  0  0
  150.4246  144.0959  157.9749 H   0  0  0  0  0  0  0  0  0  0  0  0
  150.5134  145.5730  159.9495 H   0  0  0  0  0  0  0  0  0  0  0  0
  152.0301  145.0380  161.8467 H   0  0  0  0  0  0  0  0  0  0  0  0
  153.4646  143.0144  161.7541 H   0  0  0  0  0  0  0  0  0  0  0  0
  1  2  1  0  0  0  0
  1 33  1  0  0  0  0
  1 34  1  0  0  0  0
  1 35  1  0  0  0  0
  2  3  1  0  0  0  0
  2 22  1  0  0  0  0
  2 36  1  0  0  0  0
  3  4  1  0  0  0  0
  3 37  1  0  0  0  0
  4  9  1  0  0  0  0
  4  5  2  0  0  0  0
  5  6  1  0  0  0  0
  6  7  2  0  0  0  0
  6 38  1  0  0  0  0
  7  8  1  0  0  0  0
  8 12  1  0  0  0  0
  8  9  2  0  0  0  0
  9 10  1  0  0  0  0
 10 11  2  0  0  0  0
 11 12  1  0  0  0  0
 11 39  1  0  0  0  0
 12 13  1  0  0  0  0
 13 29  1  0  0  0  0
 13 20  1  0  0  0  0
 13 14  1  0  0  0  0
 14 15  1  0  0  0  0
 15 30  1  0  0  0  0
 15 16  1  0  0  0  0
 15 18  1  0  0  0  0
 16 17  1  0  0  0  0
 16 40  1  0  0  0  0
 16 41  1  0  0  0  0
 17 42  1  0  0  0  0
 18 31  1  0  0  0  0
 18 19  1  0  0  0  0
 18 20  1  0  0  0  0
 19 43  1  0  0  0  0
 20 32  1  0  0  0  0
 20 21  1  0  0  0  0
 21 44  1  0  0  0  0
 22 27  1  0  0  0  0
 22 23  2  0  0  0  0
 23 24  1  0  0  0  0
 23 45  1  0  0  0  0
 24 25  2  0  0  0  0
 24 46  1  0  0  0  0
 25 26  1  0  0  0  0
 25 47  1  0  0  0  0
 26 27  2  0  0  0  0
 26 48  1  0  0  0  0
 27 28  1  0  0  0  0
M  END
> <s_m_source_file>
AV-unprocessed.smi

> <i_m_source_file_index>
283

> <i_lp_mmshare_version>
43012

> <i_f3d_flags>
0

> <s_epik_input>
Q2xjMVtjSF1bY0hdW2NIXVtjSF1jMVtDQEhdKFtDSDNdKVtOSF1jKG5bY0hdbjIpYyhjMjMpbltjSF1uM1tDQEBIXTRPW0NASF0oW0NIMl1bT0hdKVtDQEBIXShbT0hdKVtDQEhdNFtPSF0=

> <s_epik_cmdline>
J2VwaWtfcHl0aG9uJywgJy1waCcsICc3LjAnLCAnLXRuJywgJzgnLCAnLW1hJywgJzIwMCcsICctbWV0YWxfYmluZGluZycsICctaW1hZScsICc8aW5maWxlLm1hZT4nLCAnLW9tYWUnLCAnPG91dGZpbGUubWFlPic=

> <r_lp_tautomer_probability>
1

> <r_epik_Ionization_Penalty>
0.000266407

> <r_epik_Ionization_Penalty_Charging>
0

> <r_epik_Ionization_Penalty_Neutral>
0.000266407

> <r_epik_State_Penalty>
-0

> <r_epik_Charging_Adjusted_Penalty>
0

> <i_epik_Tot_Q>
0

> <i_epik_Tot_abs_Q>
0

> <r_epik_Metal_State_Penalty>
-0

> <b_epik_Metal_Only>
0

> <s_epik_Chemistry_Notes>
This compound contains an acetal/aminal-like group ( X-CH(R)-Y where X, Y are N, S, or O) that may be acid/base labile, releasing an aldehyde.

> <s_lp_Force_Field>
OPLS_2005

> <r_lp_Energy>
47.4388

> <b_lp_Chiralities_Consistent>
1

> <s_lp_Variant>
AV-unprocessed.smi:283-1

> <Gold.Version>
5.8.1

> <Gold.Id.Protein>
6NUR|6NUR_protein|mol2

> <Gold.PLP.Fitness>
51.6321

> <Gold.PLP.PLP>
-42.5658

> <Gold.PLP.part.hbond>
-3.9121

> <Gold.PLP.part.metal>
0.0000

> <Gold.PLP.part.buried>
-4.7826

> <Gold.PLP.part.nonpolar>
-33.9056

> <Gold.PLP.part.repulsive>
0.2426

> <Gold.PLP.ligand.clash>
0.0000

> <Gold.PLP.ligand.torsion>
0.4213

> <Gold.PLP.Chemscore.Hbond>
3.2859

> <Gold.PLP.Chemscore.CHOScore>
0.0000

> <Gold.PLP.Chemscore.Metal>
0.0000

> <Gold.Chemscore.Hbonds>
donor molecule, donor type, donor heavy atom, donor atom, acceptor molecule, acceptor atom, score
      L1  H    17    42       P1  7948  1.00
      P1  H  6896  6907       L1    21  0.45
      P1  H  7997  8009       L1     5  1.00
      P1  H 10752 10765       L1     7  0.80

> <Gold.PLP.Chemscore.Internal.Correction>
0.0512

> <Gold.Rescore>
     Score         DG    S(hbond)    S(metal)    S(lipo)     H(rot)  DE(clash)    DE(int)     intcor
     15.18     -15.75       2.28        0.00     112.35       4.10       0.12       0.45       ----

> <Gold.Chemscore.Fitness>
15.1838

> <Gold.Chemscore.DG>
-15.7520

> <Gold.Chemscore.ZeroCoef>
-5.4800

> <Gold.Chemscore.Hbond>
2.2799

> <Gold.Chemscore.Metal>
0.0000

> <Gold.Chemscore.Lipo>
112.3515

> <Gold.Chemscore.Internal_Hbond>
0.0000

> <Gold.Chemscore.DEClash>
0.1156

> <Gold.Chemscore.DEInternal>
0.4527

> <Gold.Chemscore.Rot>
4.0968

> <Gold.Chemscore.Internal.Correction>
   9.000000E+99

> <Gold.Chemscore.Hbonds>
donor molecule, donor type, donor heavy atom, donor atom, acceptor molecule, acceptor atom, score
      L1  H    17    42       P1  7948  0.99
      P1  H  6896  6907       L1    21  0.02
      P1  H  7997  8009       L1     5  0.22
      P1  H 10752 10765       L1     7  0.72

> <Gold.Chemscore.Hbond.Weighted>
-7.6148

> <Gold.Chemscore.Metal.Weighted>
-0.0000

> <Gold.Chemscore.Lipo.Weighted>
-13.1451

> <Gold.Chemscore.Internal_Hbond.Weighted>
0.0000

> <Gold.Chemscore.DEClash.Weighted>
0.1156

> <Gold.Chemscore.DEInternal.Weighted>
0.4527

> <Gold.Chemscore.Rot.Weighted>
10.4879

> <Gold.Chemscore.Internal.Correction.Weighted>
   9.000000E+99

> <Gold.Protein.RotatedTorsions>
[ 6907 6896 6895 6894 ] final -171.73 input  -60.11 | X-H torsion
[ 7974 7965 7964 7962 ] final   49.65 input  175.53 | X-H torsion
[ 8008 7997 7996 7995 ] final -162.42 input   59.86 | X-H torsion
[ 10167 10162 10161 10158 ] final   46.99 input  -65.29 | X-H torsion
[ 10718 10713 10712 10709 ] final  167.45 input   66.30 | X-H torsion
[ 10763 10752 10751 10750 ] final -173.67 input  -60.55 | X-H torsion
[ 11005 11000 10999 10996 ] final -116.31 input  -57.11 | X-H torsion

> <Gold.Protein.ActiveResidues>
 VAL166  LYS551  ARG553  GLY616  TRP617  ASP618  TYR619  PRO620  LYS621  CYS622 
 ASP623  PHE694  ASN695  SER759  ASP760  ASP761  ALA762  ILE779  LEU786  VAL792 
 PHE793  MET794  SER795  GLU796  ALA797  LYS798  CYS799  TRP800  GLU811  SER814 

> <Gold.Protein.RotatedAtoms>
  151.5286  133.3453  159.2913 H   0  0  0  0  0  0  0  0  0  0  0  0  # atno 6907 bound_to 6896
  150.8607  134.7961  159.7092 H   0  0  0  0  0  0  0  0  0  0  0  0  # atno 6908 bound_to 6896
  152.4628  134.5155  159.9818 H   0  0  0  0  0  0  0  0  0  0  0  0  # atno 6909 bound_to 6896
  146.0088  139.4520  142.9969 H   0  0  0  0  0  0  0  0  0  0  0  0  # atno 7974 bound_to 7965
  155.8065  140.0899  157.1928 H   0  0  0  0  0  0  0  0  0  0  0  0  # atno 8008 bound_to 7997
  154.3980  140.1462  156.3395 H   0  0  0  0  0  0  0  0  0  0  0  0  # atno 8009 bound_to 7997
  155.8409  140.3439  155.5634 H   0  0  0  0  0  0  0  0  0  0  0  0  # atno 8010 bound_to 7997
  140.3083  144.2852  150.6205 H   0  0  0  0  0  0  0  0  0  0  0  0  # atno 10167 bound_to 10162
  157.0514  131.0314  151.2679 H   0  0  0  0  0  0  0  0  0  0  0  0  # atno 10718 bound_to 10713
  154.6051  135.2858  155.0493 H   0  0  0  0  0  0  0  0  0  0  0  0  # atno 10763 bound_to 10752
  154.1743  135.6467  153.5021 H   0  0  0  0  0  0  0  0  0  0  0  0  # atno 10764 bound_to 10752
  153.0172  135.5408  154.6784 H   0  0  0  0  0  0  0  0  0  0  0  0  # atno 10765 bound_to 10752
  141.0430  133.9806  157.2963 H   0  0  0  0  0  0  0  0  0  0  0  0  # atno 11005 bound_to 11000
  145.7374  141.0021  143.1319 LP  0  0  0  0  0  0  0  0  0  0  0  0  # atno 17320 bound_to 7965
  144.6945  139.9057  143.7461 LP  0  0  0  0  0  0  0  0  0  0  0  0  # atno 17321 bound_to 7965
  140.5591  143.2194  151.7796 LP  0  0  0  0  0  0  0  0  0  0  0  0  # atno 17342 bound_to 10162
  139.4899  144.4373  151.9804 LP  0  0  0  0  0  0  0  0  0  0  0  0  # atno 17343 bound_to 10162
  157.5027  130.7890  149.7622 LP  0  0  0  0  0  0  0  0  0  0  0  0  # atno 17370 bound_to 10713
  156.0006  130.3882  150.2619 LP  0  0  0  0  0  0  0  0  0  0  0  0  # atno 17371 bound_to 10713
  139.9290  135.0200  156.8336 LP  0  0  0  0  0  0  0  0  0  0  0  0  # atno 17394 bound_to 11000
  140.6198  134.0004  155.7613 LP  0  0  0  0  0  0  0  0  0  0  0  0  # atno 17395 bound_to 11000

$$$$
