AV-unprocessed.smi:2451|AV-procd|sdf|9683|dock6
  -GOLD-   2272013323D 1   1.00000     0.00000
 Structure written by MMmdl.
 37 38  0  0  0  0  0  0  0  0  2 V2000
  152.2938  144.8214  159.0600 C   0  0  0  0  0  0  0  0  0  0  0  0
  152.4864  143.3043  158.8898 C   0  0  2  0  0  0  0  0  0  0  0  0
  151.1374  142.5946  158.6110 C   0  0  0  0  0  0  0  0  0  0  0  0
  151.3729  141.0868  158.3736 C   0  0  0  0  0  0  0  0  0  0  0  0
  152.1973  140.4100  159.4979 C   0  0  0  0  0  0  0  0  0  0  0  0
  153.5434  141.1261  159.7740 C   0  0  2  0  0  0  0  0  0  0  0  0
  154.2661  140.4861  160.8647 N   0  5  0  0  0  0  0  0  0  0  0  0
  155.7671  139.9198  160.6216 S   0  0  0  0  0  0  0  0  0  0  0  0
  156.2645  140.1765  159.2596 O   0  0  0  0  0  0  0  0  0  0  0  0
  156.6663  140.2528  161.7383 O   0  0  0  0  0  0  0  0  0  0  0  0
  155.4718  138.1000  160.7379 C   0  0  0  0  0  0  0  0  0  0  0  0
  155.0452  137.7179  162.1299 C   0  0  0  0  0  0  0  0  0  0  0  0
  153.9373  136.9199  162.5311 C   0  0  0  0  0  0  0  0  0  0  0  0
  154.0315  136.9016  163.8922 C   0  0  0  0  0  0  0  0  0  0  0  0
  155.0966  137.6339  164.3044 O   0  0  0  0  0  0  0  0  0  0  0  0
  155.7352  138.1540  163.1728 N   0  0  0  0  0  0  0  0  0  0  0  0
  153.2806  142.6407  160.0677 C   0  0  2  0  0  0  0  0  0  0  0  0
  152.6137  142.9112  161.4455 C   0  0  0  0  0  0  0  0  0  0  0  0
  151.5963  145.0566  159.8638 H   0  0  0  0  0  0  0  0  0  0  0  0
  151.8946  145.2650  158.1474 H   0  0  0  0  0  0  0  0  0  0  0  0
  153.2407  145.3162  159.2773 H   0  0  0  0  0  0  0  0  0  0  0  0
  153.0889  143.2018  157.9833 H   0  0  0  0  0  0  0  0  0  0  0  0
  150.4558  142.7344  159.4504 H   0  0  0  0  0  0  0  0  0  0  0  0
  150.6492  143.0334  157.7404 H   0  0  0  0  0  0  0  0  0  0  0  0
  150.4115  140.5819  158.2760 H   0  0  0  0  0  0  0  0  0  0  0  0
  151.8754  140.9496  157.4140 H   0  0  0  0  0  0  0  0  0  0  0  0
  151.5995  140.3788  160.4096 H   0  0  0  0  0  0  0  0  0  0  0  0
  152.3775  139.3702  159.2247 H   0  0  0  0  0  0  0  0  0  0  0  0
  154.1279  141.0819  158.8539 H   0  0  0  0  0  0  0  0  0  0  0  0
  154.6949  137.8499  160.0152 H   0  0  0  0  0  0  0  0  0  0  0  0
  156.3780  137.5763  160.4353 H   0  0  0  0  0  0  0  0  0  0  0  0
  153.1983  136.4304  161.9143 H   0  0  0  0  0  0  0  0  0  0  0  0
  153.4442  136.4371  164.6703 H   0  0  0  0  0  0  0  0  0  0  0  0
  154.2579  143.1246  160.1034 H   0  0  0  0  0  0  0  0  0  0  0  0
  151.6045  142.5034  161.5120 H   0  0  0  0  0  0  0  0  0  0  0  0
  152.5411  143.9796  161.6440 H   0  0  0  0  0  0  0  0  0  0  0  0
  153.1879  142.5011  162.2779 H   0  0  0  0  0  0  0  0  0  0  0  0
  1  2  1  0  0  0  0
  1 19  1  0  0  0  0
  1 20  1  0  0  0  0
  1 21  1  0  0  0  0
  2 17  1  0  0  0  0
  2  3  1  0  0  0  0
  2 22  1  0  0  0  0
  3  4  1  0  0  0  0
  3 23  1  0  0  0  0
  3 24  1  0  0  0  0
  4  5  1  0  0  0  0
  4 25  1  0  0  0  0
  4 26  1  0  0  0  0
  5  6  1  0  0  0  0
  5 27  1  0  0  0  0
  5 28  1  0  0  0  0
  6  7  1  0  0  0  0
  6 17  1  0  0  0  0
  6 29  1  0  0  0  0
  7  8  1  0  0  0  0
  8  9  2  0  0  0  0
  8 10  2  0  0  0  0
  8 11  1  0  0  0  0
 11 12  1  0  0  0  0
 11 30  1  0  0  0  0
 11 31  1  0  0  0  0
 12 16  2  0  0  0  0
 12 13  1  0  0  0  0
 13 14  2  0  0  0  0
 13 32  1  0  0  0  0
 14 15  1  0  0  0  0
 14 33  1  0  0  0  0
 15 16  1  0  0  0  0
 17 18  1  0  0  0  0
 17 34  1  0  0  0  0
 18 35  1  0  0  0  0
 18 36  1  0  0  0  0
 18 37  1  0  0  0  0
M  CHG  1   7  -1
M  END
> <s_m_source_file>
AV-unprocessed.smi

> <i_m_source_file_index>
2451

> <i_lp_mmshare_version>
43012

> <i_f3d_flags>
0

> <s_epik_input>
W0NIM11bQ0BASF0xW0NIMl1bQ0gyXVtDSDJdW0NASF0oW0NASF0xW0NIM10pW05IXVMoPU8pKD1PKVtDSDJdYzJbY0hdW2NIXW9uMg==

> <s_epik_cmdline>
J2VwaWtfcHl0aG9uJywgJy1waCcsICc3LjAnLCAnLXRuJywgJzgnLCAnLW1hJywgJzIwMCcsICctbWV0YWxfYmluZGluZycsICctaW1hZScsICc8aW5maWxlLm1hZT4nLCAnLW9tYWUnLCAnPG91dGZpbGUubWFlPic=

> <r_lp_tautomer_probability>
1

> <r_epik_Ionization_Penalty>
5.22693

> <r_epik_Ionization_Penalty_Charging>
5.22693

> <r_epik_Ionization_Penalty_Neutral>
2.67702e-10

> <r_epik_State_Penalty>
5.22685

> <r_epik_Charging_Adjusted_Penalty>
10.4538

> <i_epik_Tot_Q>
-1

> <i_epik_Tot_abs_Q>
1

> <r_epik_Metal_State_Penalty>
1.28716

> <b_epik_Metal_Only>
1

> <s_lp_Force_Field>
OPLS_2005

> <r_lp_Energy>
15.3168

> <b_lp_Chiralities_Consistent>
1

> <s_lp_Variant>
AV-unprocessed.smi:2451-15

> <Gold.Version>
5.8.1

> <Gold.Id.Protein>
6NUR|6NUR_protein|mol2

> <Gold.PLP.Fitness>
42.1436

> <Gold.PLP.PLP>
-39.5295

> <Gold.PLP.part.hbond>
-2.0000

> <Gold.PLP.part.metal>
0.0000

> <Gold.PLP.part.buried>
-5.1681

> <Gold.PLP.part.nonpolar>
-32.7332

> <Gold.PLP.part.repulsive>
0.0792

> <Gold.PLP.ligand.clash>
0.0000

> <Gold.PLP.ligand.torsion>
0.6899

> <Gold.PLP.Chemscore.Hbond>
1.0000

> <Gold.PLP.Chemscore.CHOScore>
0.0000

> <Gold.PLP.Chemscore.Metal>
0.0000

> <Gold.Chemscore.Hbonds>
donor molecule, donor type, donor heavy atom, donor atom, acceptor molecule, acceptor atom, score
      P1  H  7997  8008       L1     9  1.00

> <Gold.PLP.Chemscore.Internal.Correction>
0.9938

> <Gold.Rescore>
     Score         DG    S(hbond)    S(metal)    S(lipo)     H(rot)  DE(clash)    DE(int)     intcor
     16.18     -18.11       0.99        0.00     110.20       1.40       0.05       1.88       ----

> <Gold.Chemscore.Fitness>
16.1765

> <Gold.Chemscore.DG>
-18.1081

> <Gold.Chemscore.ZeroCoef>
-5.4800

> <Gold.Chemscore.Hbond>
0.9926

> <Gold.Chemscore.Metal>
0.0000

> <Gold.Chemscore.Lipo>
110.1994

> <Gold.Chemscore.Internal_Hbond>
0.0000

> <Gold.Chemscore.DEClash>
0.0502

> <Gold.Chemscore.DEInternal>
1.8814

> <Gold.Chemscore.Rot>
1.3986

> <Gold.Chemscore.Internal.Correction>
   9.000000E+99

> <Gold.Chemscore.Hbonds>
donor molecule, donor type, donor heavy atom, donor atom, acceptor molecule, acceptor atom, score
      P1  H  7997  8008       L1     9  0.88

> <Gold.Chemscore.Hbond.Weighted>
-3.3151

> <Gold.Chemscore.Metal.Weighted>
-0.0000

> <Gold.Chemscore.Lipo.Weighted>
-12.8933

> <Gold.Chemscore.Internal_Hbond.Weighted>
0.0000

> <Gold.Chemscore.DEClash.Weighted>
0.0502

> <Gold.Chemscore.DEInternal.Weighted>
1.8814

> <Gold.Chemscore.Rot.Weighted>
3.5804

> <Gold.Chemscore.Internal.Correction.Weighted>
   9.000000E+99

> <Gold.Protein.RotatedTorsions>
[ 6907 6896 6895 6894 ] final -138.13 input  -60.11 | X-H torsion
[ 7974 7965 7964 7962 ] final -158.61 input  175.53 | X-H torsion
[ 8008 7997 7996 7995 ] final -150.19 input   59.86 | X-H torsion
[ 10167 10162 10161 10158 ] final   20.91 input  -65.29 | X-H torsion
[ 10718 10713 10712 10709 ] final  -79.49 input   66.30 | X-H torsion
[ 10763 10752 10751 10750 ] final  109.56 input  -60.55 | X-H torsion
[ 11005 11000 10999 10996 ] final   99.99 input  -57.11 | X-H torsion

> <Gold.Protein.ActiveResidues>
 VAL166  LYS551  ARG553  GLY616  TRP617  ASP618  TYR619  PRO620  LYS621  CYS622 
 ASP623  PHE694  ASN695  SER759  ASP760  ASP761  ALA762  ILE779  LEU786  VAL792 
 PHE793  MET794  SER795  GLU796  ALA797  LYS798  CYS799  TRP800  GLU811  SER814 

> <Gold.Protein.RotatedAtoms>
  151.0312  133.5789  159.2660 H   0  0  0  0  0  0  0  0  0  0  0  0  # atno 6907 bound_to 6896
  151.2870  135.0730  159.9200 H   0  0  0  0  0  0  0  0  0  0  0  0  # atno 6908 bound_to 6896
  152.5345  134.0017  159.7951 H   0  0  0  0  0  0  0  0  0  0  0  0  # atno 6909 bound_to 6896
  144.7498  140.3802  143.6056 H   0  0  0  0  0  0  0  0  0  0  0  0  # atno 7974 bound_to 7965
  155.6196  140.0680  157.2682 H   0  0  0  0  0  0  0  0  0  0  0  0  # atno 8008 bound_to 7997
  154.4232  140.1787  156.1406 H   0  0  0  0  0  0  0  0  0  0  0  0  # atno 8009 bound_to 7997
  156.0020  140.3335  155.6858 H   0  0  0  0  0  0  0  0  0  0  0  0  # atno 8010 bound_to 7997
  140.5468  143.9581  150.6552 H   0  0  0  0  0  0  0  0  0  0  0  0  # atno 10167 bound_to 10162
  156.0091  130.4547  150.3656 H   0  0  0  0  0  0  0  0  0  0  0  0  # atno 10718 bound_to 10713
  153.4365  135.3776  155.2202 H   0  0  0  0  0  0  0  0  0  0  0  0  # atno 10763 bound_to 10752
  154.8752  135.3852  154.4204 H   0  0  0  0  0  0  0  0  0  0  0  0  # atno 10764 bound_to 10752
  153.4744  135.7087  153.6037 H   0  0  0  0  0  0  0  0  0  0  0  0  # atno 10765 bound_to 10752
  139.8771  134.9120  156.4689 H   0  0  0  0  0  0  0  0  0  0  0  0  # atno 11005 bound_to 11000
  145.6985  139.1655  143.2606 LP  0  0  0  0  0  0  0  0  0  0  0  0  # atno 17320 bound_to 7965
  146.1432  140.7028  142.9357 LP  0  0  0  0  0  0  0  0  0  0  0  0  # atno 17321 bound_to 7965
  140.2996  143.3269  152.0984 LP  0  0  0  0  0  0  0  0  0  0  0  0  # atno 17342 bound_to 10162
  139.5010  144.6705  151.6254 LP  0  0  0  0  0  0  0  0  0  0  0  0  # atno 17343 bound_to 10162
  157.1742  131.0376  151.2780 LP  0  0  0  0  0  0  0  0  0  0  0  0  # atno 17370 bound_to 10713
  157.4202  130.7433  149.6907 LP  0  0  0  0  0  0  0  0  0  0  0  0  # atno 17371 bound_to 10713
  140.8810  133.7918  155.9467 LP  0  0  0  0  0  0  0  0  0  0  0  0  # atno 17394 bound_to 11000
  140.8854  134.2561  157.5122 LP  0  0  0  0  0  0  0  0  0  0  0  0  # atno 17395 bound_to 11000

$$$$
