AV-unprocessed.smi:471|AV-procd|sdf|2659|dock7
  -GOLD-   2262023 73D 1   1.00000     0.00000
 Structure written by MMmdl.
 16 16  0  0  0  0  0  0  0  0  3 V2000
  150.8440  139.8734  154.6619 O   0  0  0  0  0  0  0  0  0  0  0  0
  151.8366  139.2614  155.1137 C   0  0  0  0  0  0  0  0  0  0  0  0
  153.0139  139.6844  155.1106 O   0  5  0  0  0  0  0  0  0  0  0  0
  151.5896  137.8790  155.7269 C   0  0  0  0  0  0  0  0  0  0  0  0
  151.9728  137.8221  157.1486 N   0  0  0  0  0  0  0  0  0  0  0  0
  151.8545  139.0084  157.8969 C   0  0  0  0  0  0  0  0  0  0  0  0
  152.1509  139.0576  159.2094 C   0  0  0  0  0  0  0  0  0  0  0  0
  152.5982  137.8336  159.8609 C   0  0  0  0  0  0  0  0  0  0  0  0
  152.8790  137.8596  161.0579 O   0  0  0  0  0  0  0  0  0  0  0  0
  152.6797  136.7037  159.0997 N   0  5  0  0  0  0  0  0  0  0  0  0
  152.3714  136.6675  157.7651 C   0  0  0  0  0  0  0  0  0  0  0  0
  152.4430  135.6277  157.1096 O   0  0  0  0  0  0  0  0  0  0  0  0
  150.5287  137.6377  155.6444 H   0  0  0  0  0  0  0  0  0  0  0  0
  152.1001  137.1354  155.1138 H   0  0  0  0  0  0  0  0  0  0  0  0
  151.5086  139.8670  157.3402 H   0  0  0  0  0  0  0  0  0  0  0  0
  152.0546  139.9781  159.7660 H   0  0  0  0  0  0  0  0  0  0  0  0
  1  2  2  0  0  0  0
  2  3  1  0  0  0  0
  2  4  1  0  0  0  0
  4  5  1  0  0  0  0
  4 13  1  0  0  0  0
  4 14  1  0  0  0  0
  5 11  1  0  0  0  0
  5  6  1  0  0  0  0
  6  7  2  0  0  0  0
  6 15  1  0  0  0  0
  7  8  1  0  0  0  0
  7 16  1  0  0  0  0
  8  9  2  0  0  0  0
  8 10  1  0  0  0  0
 10 11  1  0  0  0  0
 11 12  2  0  0  0  0
M  CHG  1   3  -1
M  CHG  1  10  -1
M  END
> <s_m_source_file>
AV-unprocessed.smi

> <i_m_source_file_index>
471

> <i_lp_mmshare_version>
43012

> <i_f3d_flags>
0

> <s_epik_input>
Tz1DKFtPSF0pW0NIMl1uMVtjSF1bY0hdYyg9TylbbkhdYzE9Tw==

> <s_epik_cmdline>
J2VwaWtfcHl0aG9uJywgJy1waCcsICc3LjAnLCAnLXRuJywgJzgnLCAnLW1hJywgJzIwMCcsICctbWV0YWxfYmluZGluZycsICctaW1hZScsICc8aW5maWxlLm1hZT4nLCAnLW9tYWUnLCAnPG91dGZpbGUubWFlPic=

> <r_lp_tautomer_probability>
1

> <r_epik_Ionization_Penalty>
3.94908

> <r_epik_Ionization_Penalty_Charging>
0.000183212

> <r_epik_Ionization_Penalty_Neutral>
3.94889

> <r_epik_State_Penalty>
3.94814

> <r_epik_Charging_Adjusted_Penalty>
3.94832

> <i_epik_Tot_Q>
-2

> <i_epik_Tot_abs_Q>
2

> <r_epik_Metal_State_Penalty>
0.342776

> <b_epik_Metal_Only>
1

> <s_lp_Force_Field>
OPLS_2005

> <r_lp_Energy>
13.443

> <b_lp_Chiralities_Consistent>
1

> <s_lp_Variant>
AV-unprocessed.smi:471-2

> <Gold.Version>
5.8.1

> <Gold.Id.Protein>
6NUR|6NUR_protein|mol2

> <Gold.PLP.Fitness>
32.8858

> <Gold.PLP.PLP>
-16.4425

> <Gold.PLP.part.hbond>
-4.7891

> <Gold.PLP.part.metal>
0.0000

> <Gold.PLP.part.buried>
-3.5804

> <Gold.PLP.part.nonpolar>
-8.6431

> <Gold.PLP.part.repulsive>
0.0815

> <Gold.PLP.ligand.clash>
0.0000

> <Gold.PLP.ligand.torsion>
0.3728

> <Gold.PLP.Chemscore.Hbond>
5.7280

> <Gold.PLP.Chemscore.CHOScore>
0.0000

> <Gold.PLP.Chemscore.Metal>
0.0000

> <Gold.Chemscore.Hbonds>
donor molecule, donor type, donor heavy atom, donor atom, acceptor molecule, acceptor atom, score
      P1  H  6896  6908       L1    10  1.89
      P1  H  7989  7998       L1     1  0.95
      P1  H  7997  8010       L1     3  2.00
      P1  H 10752 10764       L1    12  0.81

> <Gold.PLP.Chemscore.Internal.Correction>
0.0048

> <Gold.Rescore>
     Score         DG    S(hbond)    S(metal)    S(lipo)     H(rot)  DE(clash)    DE(int)     intcor
     13.19     -14.37       3.37        0.00      15.57       1.64       0.00       1.18       ----

> <Gold.Chemscore.Fitness>
13.1914

> <Gold.Chemscore.DG>
-14.3694

> <Gold.Chemscore.ZeroCoef>
-5.4800

> <Gold.Chemscore.Hbond>
3.3734

> <Gold.Chemscore.Metal>
0.0000

> <Gold.Chemscore.Lipo>
15.5680

> <Gold.Chemscore.Internal_Hbond>
0.0000

> <Gold.Chemscore.DEClash>
0.0000

> <Gold.Chemscore.DEInternal>
1.1780

> <Gold.Chemscore.Rot>
1.6404

> <Gold.Chemscore.Internal.Correction>
   9.000000E+99

> <Gold.Chemscore.Hbonds>
donor molecule, donor type, donor heavy atom, donor atom, acceptor molecule, acceptor atom, score
      P1  H  6896  6908       L1    10  0.60
      P1  H  7989  7998       L1     1  0.22
      P1  H  7997  8010       L1     3  1.00
      P1  H 10752 10764       L1    12  0.78

> <Gold.Chemscore.Hbond.Weighted>
-11.2673

> <Gold.Chemscore.Metal.Weighted>
-0.0000

> <Gold.Chemscore.Lipo.Weighted>
-1.8215

> <Gold.Chemscore.Internal_Hbond.Weighted>
0.0000

> <Gold.Chemscore.DEClash.Weighted>
0.0000

> <Gold.Chemscore.DEInternal.Weighted>
1.1780

> <Gold.Chemscore.Rot.Weighted>
4.1994

> <Gold.Chemscore.Internal.Correction.Weighted>
   9.000000E+99

> <Gold.Protein.RotatedTorsions>
[ 6907 6896 6895 6894 ] final  -93.98 input  -60.11 | X-H torsion
[ 7974 7965 7964 7962 ] final  -94.44 input  175.53 | X-H torsion
[ 8008 7997 7996 7995 ] final  108.40 input   59.86 | X-H torsion
[ 10167 10162 10161 10158 ] final  168.49 input  -65.29 | X-H torsion
[ 10718 10713 10712 10709 ] final  -36.58 input   66.30 | X-H torsion
[ 10763 10752 10751 10750 ] final  -21.08 input  -60.55 | X-H torsion
[ 11005 11000 10999 10996 ] final  -35.57 input  -57.11 | X-H torsion

> <Gold.Protein.ActiveResidues>
 VAL166  LYS551  ARG553  GLY616  TRP617  ASP618  TYR619  PRO620  LYS621  CYS622 
 ASP623  PHE694  ASN695  SER759  ASP760  ASP761  ALA762  ILE779  LEU786  VAL792 
 PHE793  MET794  SER795  GLU796  ALA797  LYS798  CYS799  TRP800  GLU811  SER814 

> <Gold.Protein.RotatedAtoms>
  150.6933  134.1883  159.4275 H   0  0  0  0  0  0  0  0  0  0  0  0  # atno 6907 bound_to 6896
  151.9855  135.0004  160.0568 H   0  0  0  0  0  0  0  0  0  0  0  0  # atno 6908 bound_to 6896
  152.1716  133.4612  159.4949 H   0  0  0  0  0  0  0  0  0  0  0  0  # atno 6909 bound_to 6896
  145.3732  140.9508  143.2435 H   0  0  0  0  0  0  0  0  0  0  0  0  # atno 7974 bound_to 7965
  156.1900  140.3077  155.9313 H   0  0  0  0  0  0  0  0  0  0  0  0  # atno 8008 bound_to 7997
  155.3196  140.0455  157.3055 H   0  0  0  0  0  0  0  0  0  0  0  0  # atno 8009 bound_to 7997
  154.5440  140.2270  155.8602 H   0  0  0  0  0  0  0  0  0  0  0  0  # atno 8010 bound_to 7997
  139.4969  144.3809  151.9623 H   0  0  0  0  0  0  0  0  0  0  0  0  # atno 10167 bound_to 10162
  156.3252  130.4271  149.7923 H   0  0  0  0  0  0  0  0  0  0  0  0  # atno 10718 bound_to 10713
  153.6306  135.6989  153.5277 H   0  0  0  0  0  0  0  0  0  0  0  0  # atno 10763 bound_to 10752
  153.2863  135.4170  155.1125 H   0  0  0  0  0  0  0  0  0  0  0  0  # atno 10764 bound_to 10752
  154.8523  135.3614  154.5848 H   0  0  0  0  0  0  0  0  0  0  0  0  # atno 10765 bound_to 10752
  140.9806  133.7058  156.1678 H   0  0  0  0  0  0  0  0  0  0  0  0  # atno 11005 bound_to 11000
  144.8561  139.5247  143.6834 LP  0  0  0  0  0  0  0  0  0  0  0  0  # atno 17320 bound_to 7965
  146.2876  139.7047  142.9184 LP  0  0  0  0  0  0  0  0  0  0  0  0  # atno 17321 bound_to 7965
  140.3246  144.3388  150.6001 LP  0  0  0  0  0  0  0  0  0  0  0  0  # atno 17342 bound_to 10162
  140.5695  143.2182  151.7624 LP  0  0  0  0  0  0  0  0  0  0  0  0  # atno 17343 bound_to 10162
  156.5216  130.8217  151.3206 LP  0  0  0  0  0  0  0  0  0  0  0  0  # atno 17370 bound_to 10713
  157.7420  130.9881  150.2483 LP  0  0  0  0  0  0  0  0  0  0  0  0  # atno 17371 bound_to 10713
  140.7191  134.4377  157.5576 LP  0  0  0  0  0  0  0  0  0  0  0  0  # atno 17394 bound_to 11000
  139.8949  134.8696  156.2157 LP  0  0  0  0  0  0  0  0  0  0  0  0  # atno 17395 bound_to 11000

$$$$
