AV-unprocessed.smi:1225|AV-procd|sdf|5141|dock1
  -GOLD-   22720 4203D 1   1.00000     0.00000
 Structure written by MMmdl.
 49 51  0  0  0  0  0  0  0  0  2 V2000
  142.6113  135.1255  152.8392 C   0  0  0  0  0  0  0  0  0  0  0  0
  143.8446  135.9377  152.6375 C   0  0  0  0  0  0  0  0  0  0  0  0
  144.8321  135.5894  151.8096 N   0  0  0  0  0  0  0  0  0  0  0  0
  145.8739  136.5192  151.7999 C   0  0  0  0  0  0  0  0  0  0  0  0
  145.6667  137.5922  152.6314 C   0  0  0  0  0  0  0  0  0  0  0  0
  146.5622  138.7666  152.8518 C   0  0  0  0  0  0  0  0  0  0  0  0
  147.8245  138.3849  153.5355 N   0  3  2  0  0  0  0  0  0  0  0  0
  147.5930  137.8352  154.8917 C   0  0  0  0  0  0  0  0  0  0  0  0
  148.8364  139.4706  153.5371 C   0  0  0  0  0  0  0  0  0  0  0  0
  148.4379  140.6313  154.4762 C   0  0  2  0  0  0  0  0  0  0  0  0
  147.5121  141.4598  153.8035 O   0  0  0  0  0  0  0  0  0  0  0  0
  149.6274  141.5079  154.9167 C   0  0  0  0  0  0  0  0  0  0  0  0
  150.3554  140.9405  156.0374 N   0  0  0  0  0  0  0  0  0  0  0  0
  150.5611  139.6338  156.2937 C   0  0  0  0  0  0  0  0  0  0  0  0
  151.2500  139.3298  157.3894 N   0  0  0  0  0  0  0  0  0  0  0  0
  151.5376  140.5851  157.8965 C   0  0  0  0  0  0  0  0  0  0  0  0
  152.2500  140.9644  159.0548 C   0  0  0  0  0  0  0  0  0  0  0  0
  152.4234  142.3274  159.3853 C   0  0  0  0  0  0  0  0  0  0  0  0
  153.1980  142.6901  160.6401 C   0  0  0  0  0  0  0  0  0  0  0  0
  151.8806  143.3358  158.5492 C   0  0  0  0  0  0  0  0  0  0  0  0
  152.0562  144.8066  158.8834 C   0  0  0  0  0  0  0  0  0  0  0  0
  151.1669  142.9743  157.3875 C   0  0  0  0  0  0  0  0  0  0  0  0
  150.9974  141.6147  157.0712 C   0  0  0  0  0  0  0  0  0  0  0  0
  144.1401  137.4609  153.4664 S   0  0  0  0  0  0  0  0  0  0  0  0
  142.7273  134.1346  152.3989 H   0  0  0  0  0  0  0  0  0  0  0  0
  141.7598  135.6193  152.3709 H   0  0  0  0  0  0  0  0  0  0  0  0
  142.4088  135.0117  153.9042 H   0  0  0  0  0  0  0  0  0  0  0  0
  146.7280  136.3404  151.1633 H   0  0  0  0  0  0  0  0  0  0  0  0
  146.7754  139.2188  151.8835 H   0  0  0  0  0  0  0  0  0  0  0  0
  146.0479  139.5352  153.4309 H   0  0  0  0  0  0  0  0  0  0  0  0
  147.1693  138.5926  155.5525 H   0  0  0  0  0  0  0  0  0  0  0  0
  148.5271  137.4829  155.3303 H   0  0  0  0  0  0  0  0  0  0  0  0
  146.9101  136.9859  154.8624 H   0  0  0  0  0  0  0  0  0  0  0  0
  149.8004  139.0427  153.8145 H   0  0  0  0  0  0  0  0  0  0  0  0
  148.9638  139.8708  152.5300 H   0  0  0  0  0  0  0  0  0  0  0  0
  147.9440  140.2454  155.3669 H   0  0  0  0  0  0  0  0  0  0  0  0
  147.9900  142.0630  153.2540 H   0  0  0  0  0  0  0  0  0  0  0  0
  150.3229  141.6461  154.0871 H   0  0  0  0  0  0  0  0  0  0  0  0
  149.2816  142.5017  155.2045 H   0  0  0  0  0  0  0  0  0  0  0  0
  150.1748  138.8611  155.6452 H   0  0  0  0  0  0  0  0  0  0  0  0
  152.6659  140.1961  159.6903 H   0  0  0  0  0  0  0  0  0  0  0  0
  152.5741  143.2678  161.3223 H   0  0  0  0  0  0  0  0  0  0  0  0
  154.0772  143.2831  160.3872 H   0  0  0  0  0  0  0  0  0  0  0  0
  153.5374  141.7997  161.1700 H   0  0  0  0  0  0  0  0  0  0  0  0
  151.5773  145.4442  158.1396 H   0  0  0  0  0  0  0  0  0  0  0  0
  153.1144  145.0675  158.9159 H   0  0  0  0  0  0  0  0  0  0  0  0
  151.6131  145.0338  159.8532 H   0  0  0  0  0  0  0  0  0  0  0  0
  150.7532  143.7341  156.7414 H   0  0  0  0  0  0  0  0  0  0  0  0
  148.2336  137.6358  152.9946 H   0  0  0  0  0  0  0  0  0  0  0  0
  1  2  1  0  0  0  0
  1 25  1  0  0  0  0
  1 26  1  0  0  0  0
  1 27  1  0  0  0  0
  2 24  1  0  0  0  0
  2  3  2  0  0  0  0
  3  4  1  0  0  0  0
  4  5  2  0  0  0  0
  4 28  1  0  0  0  0
  5  6  1  0  0  0  0
  5 24  1  0  0  0  0
  6  7  1  0  0  0  0
  6 29  1  0  0  0  0
  6 30  1  0  0  0  0
  7  8  1  0  0  0  0
  7  9  1  0  0  0  0
  7 49  1  0  0  0  0
  8 31  1  0  0  0  0
  8 32  1  0  0  0  0
  8 33  1  0  0  0  0
  9 10  1  0  0  0  0
  9 34  1  0  0  0  0
  9 35  1  0  0  0  0
 10 11  1  0  0  0  0
 10 12  1  0  0  0  0
 10 36  1  0  0  0  0
 11 37  1  0  0  0  0
 12 13  1  0  0  0  0
 12 38  1  0  0  0  0
 12 39  1  0  0  0  0
 13 23  1  0  0  0  0
 13 14  1  0  0  0  0
 14 15  2  0  0  0  0
 14 40  1  0  0  0  0
 15 16  1  0  0  0  0
 16 23  2  0  0  0  0
 16 17  1  0  0  0  0
 17 18  2  0  0  0  0
 17 41  1  0  0  0  0
 18 19  1  0  0  0  0
 18 20  1  0  0  0  0
 19 42  1  0  0  0  0
 19 43  1  0  0  0  0
 19 44  1  0  0  0  0
 20 21  1  0  0  0  0
 20 22  2  0  0  0  0
 21 45  1  0  0  0  0
 21 46  1  0  0  0  0
 21 47  1  0  0  0  0
 22 23  1  0  0  0  0
 22 48  1  0  0  0  0
M  CHG  1   7   1
M  END
> <s_m_source_file>
AV-unprocessed.smi

> <i_m_source_file_index>
1225

> <i_lp_mmshare_version>
43012

> <i_f3d_flags>
0

> <s_epik_input>
W0NIM11jMW5bY0hdYyhzMSlbQ0gyXU4oW0NIM10pW0NIMl1bQ0BIXShbT0hdKVtDSDJdbihbY0hdbjIpYyhjMjMpW2NIXWMoW0NIM10pYyhbY0hdMylbQ0gzXQ==

> <s_epik_cmdline>
J2VwaWtfcHl0aG9uJywgJy1waCcsICc3LjAnLCAnLXRuJywgJzgnLCAnLW1hJywgJzIwMCcsICctbWV0YWxfYmluZGluZycsICctaW1hZScsICc8aW5maWxlLm1hZT4nLCAnLW9tYWUnLCAnPG91dGZpbGUubWFlPic=

> <r_epik_Ionization_Penalty>
1.62543

> <r_epik_Ionization_Penalty_Charging>
1.53932

> <r_epik_Ionization_Penalty_Neutral>
0.0861152

> <r_epik_State_Penalty>
1.73127

> <r_epik_Charging_Adjusted_Penalty>
3.27059

> <i_epik_Tot_Q>
1

> <i_epik_Tot_abs_Q>
1

> <r_epik_Metal_State_Penalty>
1.71387

> <b_epik_Metal_Only>
0

> <s_lp_Force_Field>
OPLS_2005

> <r_lp_Energy>
11.3811

> <b_lp_Chiralities_Consistent>
1

> <s_lp_Variant>
AV-unprocessed.smi:1225-6

> <Gold.Version>
5.8.1

> <Gold.Id.Protein>
6NUR|6NUR_protein|mol2

> <Gold.PLP.Fitness>
51.0590

> <Gold.PLP.PLP>
-43.9940

> <Gold.PLP.part.hbond>
-1.0000

> <Gold.PLP.part.metal>
0.0000

> <Gold.PLP.part.buried>
-0.1020

> <Gold.PLP.part.nonpolar>
-43.0383

> <Gold.PLP.part.repulsive>
0.1794

> <Gold.PLP.ligand.clash>
0.0000

> <Gold.PLP.ligand.torsion>
0.9205

> <Gold.PLP.Chemscore.Hbond>
2.0000

> <Gold.PLP.Chemscore.CHOScore>
0.9328

> <Gold.PLP.Chemscore.Metal>
0.0000

> <Gold.Chemscore.Hbonds>
donor molecule, donor type, donor heavy atom, donor atom, acceptor molecule, acceptor atom, score
      L1  H     7    49       P1  7948  2.00
      L1  C     4    28       P1  7948  0.95

> <Gold.PLP.Chemscore.Internal.Correction>
0.1076

> <Gold.Rescore>
     Score         DG    S(hbond)    S(metal)    S(lipo)     H(rot)  DE(clash)    DE(int)     intcor
     14.66     -18.01       0.99        0.00     130.78       2.37       1.60       1.75       ----

> <Gold.Chemscore.Fitness>
14.6629

> <Gold.Chemscore.DG>
-18.0059

> <Gold.Chemscore.ZeroCoef>
-5.4800

> <Gold.Chemscore.Hbond>
0.9893

> <Gold.Chemscore.Metal>
0.0000

> <Gold.Chemscore.Lipo>
130.7820

> <Gold.Chemscore.Internal_Hbond>
0.0000

> <Gold.Chemscore.DEClash>
1.5954

> <Gold.Chemscore.DEInternal>
1.7476

> <Gold.Chemscore.Rot>
2.3750

> <Gold.Chemscore.Internal.Correction>
   9.000000E+99

> <Gold.Chemscore.Hbonds>
donor molecule, donor type, donor heavy atom, donor atom, acceptor molecule, acceptor atom, score
      L1  H     7    49       P1  7948  0.99

> <Gold.Chemscore.Hbond.Weighted>
-3.3044

> <Gold.Chemscore.Metal.Weighted>
-0.0000

> <Gold.Chemscore.Lipo.Weighted>
-15.3015

> <Gold.Chemscore.Internal_Hbond.Weighted>
0.0000

> <Gold.Chemscore.DEClash.Weighted>
1.5954

> <Gold.Chemscore.DEInternal.Weighted>
1.7476

> <Gold.Chemscore.Rot.Weighted>
6.0800

> <Gold.Chemscore.Internal.Correction.Weighted>
   9.000000E+99

> <Gold.Protein.RotatedTorsions>
[ 6907 6896 6895 6894 ] final    5.64 input  -60.11 | X-H torsion
[ 7974 7965 7964 7962 ] final   30.99 input  175.53 | X-H torsion
[ 8008 7997 7996 7995 ] final   58.08 input   59.86 | X-H torsion
[ 10167 10162 10161 10158 ] final  107.91 input  -65.29 | X-H torsion
[ 10718 10713 10712 10709 ] final  -61.77 input   66.30 | X-H torsion
[ 10763 10752 10751 10750 ] final -140.26 input  -60.55 | X-H torsion
[ 11005 11000 10999 10996 ] final   20.41 input  -57.11 | X-H torsion

> <Gold.Protein.ActiveResidues>
 VAL166  LYS551  ARG553  GLY616  TRP617  ASP618  TYR619  PRO620  LYS621  CYS622 
 ASP623  PHE694  ASN695  SER759  ASP760  ASP761  ALA762  ILE779  LEU786  VAL792 
 PHE793  MET794  SER795  GLU796  ALA797  LYS798  CYS799  TRP800  GLU811  SER814 

> <Gold.Protein.RotatedAtoms>
  151.6608  135.0989  160.0178 H   0  0  0  0  0  0  0  0  0  0  0  0  # atno 6907 bound_to 6896
  152.3948  133.6726  159.6275 H   0  0  0  0  0  0  0  0  0  0  0  0  # atno 6908 bound_to 6896
  150.7857  133.8810  159.3327 H   0  0  0  0  0  0  0  0  0  0  0  0  # atno 6909 bound_to 6896
  146.1578  139.6716  142.9054 H   0  0  0  0  0  0  0  0  0  0  0  0  # atno 7974 bound_to 7965
  155.5442  140.3485  155.4453 H   0  0  0  0  0  0  0  0  0  0  0  0  # atno 8008 bound_to 7997
  156.0630  140.1344  156.9945 H   0  0  0  0  0  0  0  0  0  0  0  0  # atno 8009 bound_to 7997
  154.4489  140.0981  156.6529 H   0  0  0  0  0  0  0  0  0  0  0  0  # atno 8010 bound_to 7997
  139.6889  144.7110  151.1384 H   0  0  0  0  0  0  0  0  0  0  0  0  # atno 10167 bound_to 10162
  156.0899  130.4202  150.1041 H   0  0  0  0  0  0  0  0  0  0  0  0  # atno 10718 bound_to 10713
  154.8584  135.3558  154.5679 H   0  0  0  0  0  0  0  0  0  0  0  0  # atno 10763 bound_to 10752
  153.6292  135.7003  153.5286 H   0  0  0  0  0  0  0  0  0  0  0  0  # atno 10764 bound_to 10752
  153.3064  135.4191  155.1257 H   0  0  0  0  0  0  0  0  0  0  0  0  # atno 10765 bound_to 10752
  140.4030  134.1698  155.7664 H   0  0  0  0  0  0  0  0  0  0  0  0  # atno 11005 bound_to 11000
  145.4665  141.0435  143.2722 LP  0  0  0  0  0  0  0  0  0  0  0  0  # atno 17320 bound_to 7965
  144.7986  139.6185  143.7081 LP  0  0  0  0  0  0  0  0  0  0  0  0  # atno 17321 bound_to 7965
  140.7676  143.5589  150.9121 LP  0  0  0  0  0  0  0  0  0  0  0  0  # atno 17342 bound_to 10162
  139.9265  143.6544  152.3085 LP  0  0  0  0  0  0  0  0  0  0  0  0  # atno 17343 bound_to 10162
  156.9053  130.9634  151.3570 LP  0  0  0  0  0  0  0  0  0  0  0  0  # atno 17370 bound_to 10713
  157.6045  130.8537  149.8854 LP  0  0  0  0  0  0  0  0  0  0  0  0  # atno 17371 bound_to 10713
  141.1850  133.8333  157.1121 LP  0  0  0  0  0  0  0  0  0  0  0  0  # atno 17394 bound_to 11000
  140.0323  134.9895  157.0803 LP  0  0  0  0  0  0  0  0  0  0  0  0  # atno 17395 bound_to 11000

$$$$
