AV-unprocessed.smi:174|AV-procd|sdf|1427|dock5
  -GOLD-   2262019203D 1   1.00000     0.00000
 Structure written by MMmdl.
 51 54  0  0  0  0  0  0  0  0  1 V2000
  143.3314  134.3370  156.1936 N   0  0  0  0  0  0  0  0  0  0  0  0
  143.8812  135.0543  155.2115 C   0  0  0  0  0  0  0  0  0  0  0  0
  143.2334  135.4297  154.2355 O   0  0  0  0  0  0  0  0  0  0  0  0
  145.3774  135.3715  155.3467 C   0  0  0  0  0  0  0  0  0  0  0  0
  145.7243  136.7348  154.9191 N   0  0  0  0  0  0  0  0  0  0  0  0
  146.4920  136.8289  153.6667 C   0  0  0  0  0  0  0  0  0  0  0  0
  146.5062  138.2389  153.0531 C   0  0  0  0  0  0  0  0  0  0  0  0
  146.7474  139.2322  154.0914 N   0  0  0  0  0  0  0  0  0  0  0  0
  148.0565  139.4096  154.4135 C   0  0  0  0  0  0  0  0  0  0  0  0
  149.0114  138.6162  153.8572 N   0  0  0  0  0  0  0  0  0  0  0  0
  150.3006  138.7969  154.1572 C   0  0  0  0  0  0  0  0  0  0  0  0
  150.8485  139.6973  154.9752 N   0  0  0  0  0  0  0  0  0  0  0  0
  149.8968  140.4954  155.5378 C   0  0  0  0  0  0  0  0  0  0  0  0
  148.4927  140.4209  155.3149 C   0  0  0  0  0  0  0  0  0  0  0  0
  147.8422  141.3891  156.0715 N   0  0  0  0  0  0  0  0  0  0  0  0
  148.8058  142.0002  156.7049 C   0  0  0  0  0  0  0  0  0  0  0  0
  150.0707  141.5244  156.4463 N   0  0  0  0  0  0  0  0  0  0  0  0
  151.3120  142.0054  157.0244 C   0  0  0  0  0  0  0  0  0  0  0  0
  151.1051  143.1870  157.9950 C   0  0  2  0  0  0  0  0  0  0  0  0
  151.2046  144.3749  157.2354 O   0  0  0  0  0  0  0  0  0  0  0  0
  152.1215  143.2442  159.1577 C   0  0  1  0  0  0  0  0  0  0  0  0
  151.8998  144.3960  160.1425 C   0  0  0  0  0  0  0  0  0  0  0  0
  152.5105  143.8927  161.4425 C   0  0  0  0  0  0  0  0  0  0  0  0
  152.7311  142.3993  161.1947 C   0  0  0  0  0  0  0  0  0  0  0  0
  151.9898  142.1217  160.0176 O   0  0  0  0  0  0  0  0  0  0  0  0
  145.7533  139.2258  155.1716 C   0  0  0  0  0  0  0  0  0  0  0  0
  145.3624  137.8164  155.6569 C   0  0  0  0  0  0  0  0  0  0  0  0
  144.7273  137.7222  156.7076 O   0  0  0  0  0  0  0  0  0  0  0  0
  142.3496  134.1053  156.1539 H   0  0  0  0  0  0  0  0  0  0  0  0
  143.8949  134.0319  156.9738 H   0  0  0  0  0  0  0  0  0  0  0  0
  145.6952  135.2083  156.3784 H   0  0  0  0  0  0  0  0  0  0  0  0
  145.9334  134.6456  154.7516 H   0  0  0  0  0  0  0  0  0  0  0  0
  147.5153  136.5199  153.8837 H   0  0  0  0  0  0  0  0  0  0  0  0
  146.1025  136.1196  152.9351 H   0  0  0  0  0  0  0  0  0  0  0  0
  147.2335  138.2917  152.2432 H   0  0  0  0  0  0  0  0  0  0  0  0
  145.5368  138.4515  152.6002 H   0  0  0  0  0  0  0  0  0  0  0  0
  150.9914  138.1235  153.6718 H   0  0  0  0  0  0  0  0  0  0  0  0
  148.6194  142.8147  157.3897 H   0  0  0  0  0  0  0  0  0  0  0  0
  151.8021  141.1755  157.5355 H   0  0  0  0  0  0  0  0  0  0  0  0
  151.9726  142.2988  156.2074 H   0  0  0  0  0  0  0  0  0  0  0  0
  150.0948  143.1446  158.4041 H   0  0  0  0  0  0  0  0  0  0  0  0
  150.3997  144.4907  156.7538 H   0  0  0  0  0  0  0  0  0  0  0  0
  153.1417  143.2795  158.7699 H   0  0  0  0  0  0  0  0  0  0  0  0
  152.3457  145.3306  159.8008 H   0  0  0  0  0  0  0  0  0  0  0  0
  150.8321  144.5680  160.2865 H   0  0  0  0  0  0  0  0  0  0  0  0
  153.4534  144.3919  161.6681 H   0  0  0  0  0  0  0  0  0  0  0  0
  151.8305  144.0630  162.2780 H   0  0  0  0  0  0  0  0  0  0  0  0
  153.7860  142.1900  161.0111 H   0  0  0  0  0  0  0  0  0  0  0  0
  152.3994  141.7792  162.0276 H   0  0  0  0  0  0  0  0  0  0  0  0
  146.0713  139.8350  156.0191 H   0  0  0  0  0  0  0  0  0  0  0  0
  144.8506  139.7045  154.7912 H   0  0  0  0  0  0  0  0  0  0  0  0
  1  2  1  0  0  0  0
  1 29  1  0  0  0  0
  1 30  1  0  0  0  0
  2  3  2  0  0  0  0
  2  4  1  0  0  0  0
  4  5  1  0  0  0  0
  4 31  1  0  0  0  0
  4 32  1  0  0  0  0
  5 27  1  0  0  0  0
  5  6  1  0  0  0  0
  6  7  1  0  0  0  0
  6 33  1  0  0  0  0
  6 34  1  0  0  0  0
  7  8  1  0  0  0  0
  7 35  1  0  0  0  0
  7 36  1  0  0  0  0
  8  9  1  0  0  0  0
  8 26  1  0  0  0  0
  9 14  1  0  0  0  0
  9 10  2  0  0  0  0
 10 11  1  0  0  0  0
 11 12  2  0  0  0  0
 11 37  1  0  0  0  0
 12 13  1  0  0  0  0
 13 17  1  0  0  0  0
 13 14  2  0  0  0  0
 14 15  1  0  0  0  0
 15 16  2  0  0  0  0
 16 17  1  0  0  0  0
 16 38  1  0  0  0  0
 17 18  1  0  0  0  0
 18 19  1  0  0  0  0
 18 39  1  0  0  0  0
 18 40  1  0  0  0  0
 19 20  1  0  0  0  0
 19 21  1  0  0  0  0
 19 41  1  0  0  0  0
 20 42  1  0  0  0  0
 21 25  1  0  0  0  0
 21 22  1  0  0  0  0
 21 43  1  0  0  0  0
 22 23  1  0  0  0  0
 22 44  1  0  0  0  0
 22 45  1  0  0  0  0
 23 24  1  0  0  0  0
 23 46  1  0  0  0  0
 23 47  1  0  0  0  0
 24 25  1  0  0  0  0
 24 48  1  0  0  0  0
 24 49  1  0  0  0  0
 26 27  1  0  0  0  0
 26 50  1  0  0  0  0
 26 51  1  0  0  0  0
 27 28  2  0  0  0  0
M  END
> <s_m_source_file>
AV-unprocessed.smi

> <i_m_source_file_index>
174

> <i_lp_mmshare_version>
43012

> <i_f3d_flags>
0

> <s_epik_input>
W05IMl1DKD1PKVtDSDJdTjFbQ0gyXVtDSDJdTihbQ0gyXUMxPU8pYyhuW2NIXW4yKWMoYzIzKW5bY0hdbjNbQ0gyXVtDQEhdKFtPSF0pW0NAQEhdNFtDSDJdW0NIMl1bQ0gyXU80

> <s_epik_cmdline>
J2VwaWtfcHl0aG9uJywgJy1waCcsICc3LjAnLCAnLXRuJywgJzgnLCAnLW1hJywgJzIwMCcsICctbWV0YWxfYmluZGluZycsICctaW1hZScsICc8aW5maWxlLm1hZT4nLCAnLW9tYWUnLCAnPG91dGZpbGUubWFlPic=

> <r_lp_tautomer_probability>
1

> <r_epik_Ionization_Penalty>
0.000250477

> <r_epik_Ionization_Penalty_Charging>
0

> <r_epik_Ionization_Penalty_Neutral>
0.000250477

> <r_epik_State_Penalty>
-0

> <r_epik_Charging_Adjusted_Penalty>
0

> <i_epik_Tot_Q>
0

> <i_epik_Tot_abs_Q>
0

> <r_epik_Metal_State_Penalty>
-0

> <b_epik_Metal_Only>
0

> <s_lp_Force_Field>
OPLS_2005

> <r_lp_Energy>
34.8675

> <b_lp_Chiralities_Consistent>
1

> <s_lp_Variant>
AV-unprocessed.smi:174-3

> <Gold.Version>
5.8.1

> <Gold.Id.Protein>
6NUR|6NUR_protein|mol2

> <Gold.PLP.Fitness>
44.4670

> <Gold.PLP.PLP>
-36.7413

> <Gold.PLP.part.hbond>
-4.1834

> <Gold.PLP.part.metal>
0.0000

> <Gold.PLP.part.buried>
-4.5933

> <Gold.PLP.part.nonpolar>
-28.1560

> <Gold.PLP.part.repulsive>
1.4675

> <Gold.PLP.ligand.clash>
0.0000

> <Gold.PLP.ligand.torsion>
1.0013

> <Gold.PLP.Chemscore.Hbond>
2.7500

> <Gold.PLP.Chemscore.CHOScore>
0.3253

> <Gold.PLP.Chemscore.Metal>
0.0000

> <Gold.Chemscore.Hbonds>
donor molecule, donor type, donor heavy atom, donor atom, acceptor molecule, acceptor atom, score
      L1  H     1    29       P1 11000  0.98
      L1  H    20    42       P1  8028  1.00
      P1  H  7989  7998       L1    12  0.78
      L1  C    16    38       P1  8028  0.31

> <Gold.PLP.Chemscore.Internal.Correction>
0.5024

> <Gold.Rescore>
     Score         DG    S(hbond)    S(metal)    S(lipo)     H(rot)  DE(clash)    DE(int)     intcor
      9.44     -10.79       1.90        0.00      76.50       3.90       0.18       1.17       ----

> <Gold.Chemscore.Fitness>
9.4441

> <Gold.Chemscore.DG>
-10.7900

> <Gold.Chemscore.ZeroCoef>
-5.4800

> <Gold.Chemscore.Hbond>
1.8985

> <Gold.Chemscore.Metal>
0.0000

> <Gold.Chemscore.Lipo>
76.4950

> <Gold.Chemscore.Internal_Hbond>
0.0000

> <Gold.Chemscore.DEClash>
0.1802

> <Gold.Chemscore.DEInternal>
1.1657

> <Gold.Chemscore.Rot>
3.8988

> <Gold.Chemscore.Internal.Correction>
   9.000000E+99

> <Gold.Chemscore.Hbonds>
donor molecule, donor type, donor heavy atom, donor atom, acceptor molecule, acceptor atom, score
      L1  H     1    29       P1 11000  0.80
      L1  H    20    42       P1  8028  0.93
      P1  H  7989  7998       L1    12  0.05

> <Gold.Chemscore.Hbond.Weighted>
-6.3409

> <Gold.Chemscore.Metal.Weighted>
-0.0000

> <Gold.Chemscore.Lipo.Weighted>
-8.9499

> <Gold.Chemscore.Internal_Hbond.Weighted>
0.0000

> <Gold.Chemscore.DEClash.Weighted>
0.1802

> <Gold.Chemscore.DEInternal.Weighted>
1.1657

> <Gold.Chemscore.Rot.Weighted>
9.9808

> <Gold.Chemscore.Internal.Correction.Weighted>
   9.000000E+99

> <Gold.Protein.RotatedTorsions>
[ 6907 6896 6895 6894 ] final -136.68 input  -60.11 | X-H torsion
[ 7974 7965 7964 7962 ] final  -25.50 input  175.53 | X-H torsion
[ 8008 7997 7996 7995 ] final  163.35 input   59.86 | X-H torsion
[ 10167 10162 10161 10158 ] final  155.26 input  -65.29 | X-H torsion
[ 10718 10713 10712 10709 ] final   66.26 input   66.30 | X-H torsion
[ 10763 10752 10751 10750 ] final  -49.73 input  -60.55 | X-H torsion
[ 11005 11000 10999 10996 ] final  129.97 input  -57.11 | X-H torsion

> <Gold.Protein.ActiveResidues>
 VAL166  LYS551  ARG553  GLY616  TRP617  ASP618  TYR619  PRO620  LYS621  CYS622 
 ASP623  PHE694  ASN695  SER759  ASP760  ASP761  ALA762  ILE779  LEU786  VAL792 
 PHE793  MET794  SER795  GLU796  ALA797  LYS798  CYS799  TRP800  GLU811  SER814 

> <Gold.Protein.RotatedAtoms>
  151.0130  133.5947  159.2680 H   0  0  0  0  0  0  0  0  0  0  0  0  # atno 6907 bound_to 6896
  151.3092  135.0788  159.9276 H   0  0  0  0  0  0  0  0  0  0  0  0  # atno 6908 bound_to 6896
  152.5304  133.9798  159.7855 H   0  0  0  0  0  0  0  0  0  0  0  0  # atno 6909 bound_to 6896
  146.1487  140.4895  142.8621 H   0  0  0  0  0  0  0  0  0  0  0  0  # atno 7974 bound_to 7965
  156.1964  140.1726  156.7990 H   0  0  0  0  0  0  0  0  0  0  0  0  # atno 8008 bound_to 7997
  154.5535  140.0713  156.8737 H   0  0  0  0  0  0  0  0  0  0  0  0  # atno 8009 bound_to 7997
  155.2984  140.3360  155.4251 H   0  0  0  0  0  0  0  0  0  0  0  0  # atno 8010 bound_to 7997
  139.4821  144.5114  151.8018 H   0  0  0  0  0  0  0  0  0  0  0  0  # atno 10167 bound_to 10162
  157.6158  130.9258  150.0086 H   0  0  0  0  0  0  0  0  0  0  0  0  # atno 10718 bound_to 10713
  154.0988  135.6566  153.4865 H   0  0  0  0  0  0  0  0  0  0  0  0  # atno 10763 bound_to 10752
  153.0296  135.5220  154.7307 H   0  0  0  0  0  0  0  0  0  0  0  0  # atno 10764 bound_to 10752
  154.6453  135.2994  155.0023 H   0  0  0  0  0  0  0  0  0  0  0  0  # atno 10765 bound_to 10752
  139.9645  134.9594  156.9226 H   0  0  0  0  0  0  0  0  0  0  0  0  # atno 11005 bound_to 11000
  144.7877  140.5970  143.6562 LP  0  0  0  0  0  0  0  0  0  0  0  0  # atno 17320 bound_to 7965
  145.4876  139.1491  143.3727 LP  0  0  0  0  0  0  0  0  0  0  0  0  # atno 17321 bound_to 7965
  140.4618  144.1711  150.5907 LP  0  0  0  0  0  0  0  0  0  0  0  0  # atno 17342 bound_to 10162
  140.4476  143.2500  151.9390 LP  0  0  0  0  0  0  0  0  0  0  0  0  # atno 17343 bound_to 10162
  156.1280  130.3644  149.9778 LP  0  0  0  0  0  0  0  0  0  0  0  0  # atno 17370 bound_to 10713
  156.7845  130.9233  151.3646 LP  0  0  0  0  0  0  0  0  0  0  0  0  # atno 17371 bound_to 10713
  140.5426  134.0705  155.7346 LP  0  0  0  0  0  0  0  0  0  0  0  0  # atno 17394 bound_to 11000
  141.1324  133.9279  157.2506 LP  0  0  0  0  0  0  0  0  0  0  0  0  # atno 17395 bound_to 11000

$$$$
