AV-unprocessed.smi:1050|AV-procd|sdf|4612|dock10
  -GOLD-   22720 3113D 1   1.00000     0.00000
 Structure written by MMmdl.
 48 49  0  0  0  0  0  0  0  0  1 V2000
  147.1016  141.1935  153.3316 C   0  0  0  0  0  0  0  0  0  0  0  0
  148.1273  141.9354  153.9830 O   0  0  0  0  0  0  0  0  0  0  0  0
  149.1663  141.2402  154.5671 C   0  0  0  0  0  0  0  0  0  0  0  0
  149.3180  139.8740  154.2695 C   0  0  0  0  0  0  0  0  0  0  0  0
  150.3769  139.1649  154.8642 C   0  0  0  0  0  0  0  0  0  0  0  0
  151.2649  139.8444  155.7331 C   0  0  0  0  0  0  0  0  0  0  0  0
  152.3397  139.1957  156.4080 N   0  0  0  0  0  0  0  0  0  0  0  0
  152.7470  137.9160  156.3254 C   0  0  0  0  0  0  0  0  0  0  0  0
  152.2174  137.0566  155.6213 O   0  0  0  0  0  0  0  0  0  0  0  0
  153.9720  137.5544  157.1825 C   0  0  2  0  0  0  0  0  0  0  0  0
  153.6540  136.4271  158.1769 C   0  0  0  0  0  0  0  0  0  0  0  0
  154.4057  138.6846  157.9349 O   0  0  0  0  0  0  0  0  0  0  0  0
  155.4615  138.4342  158.8543 C   0  0  0  0  0  0  0  0  0  0  0  0
  151.0242  141.2212  155.9851 C   0  0  0  0  0  0  0  0  0  0  0  0
  151.8701  141.9493  156.8444 N   0  0  0  0  0  0  0  0  0  0  0  0
  151.8873  141.5408  158.2504 C   0  0  0  0  0  0  0  0  0  0  0  0
  153.0061  142.2761  159.0106 C   0  0  0  0  0  0  0  0  0  0  0  0
  152.8215  143.7225  158.8329 N   0  0  0  0  0  0  0  0  0  0  0  0
  152.4532  144.5936  159.8022 C   0  0  0  0  0  0  0  0  0  0  0  0
  152.2237  146.0623  159.4397 C   0  0  0  0  0  0  0  0  0  0  0  0
  152.2940  144.2550  160.9749 O   0  0  0  0  0  0  0  0  0  0  0  0
  152.9408  144.1040  157.4194 C   0  0  0  0  0  0  0  0  0  0  0  0
  151.8367  143.3937  156.6119 C   0  0  0  0  0  0  0  0  0  0  0  0
  150.0002  141.8950  155.4093 N   0  0  0  0  0  0  0  0  0  0  0  0
  146.3592  141.8817  152.9280 H   0  0  0  0  0  0  0  0  0  0  0  0
  146.5903  140.5253  154.0262 H   0  0  0  0  0  0  0  0  0  0  0  0
  147.4985  140.6095  152.4997 H   0  0  0  0  0  0  0  0  0  0  0  0
  148.6302  139.3759  153.6022 H   0  0  0  0  0  0  0  0  0  0  0  0
  150.4730  138.1114  154.6539 H   0  0  0  0  0  0  0  0  0  0  0  0
  152.9188  139.8031  156.9699 H   0  0  0  0  0  0  0  0  0  0  0  0
  154.7853  137.2157  156.5374 H   0  0  0  0  0  0  0  0  0  0  0  0
  153.3008  135.5328  157.6620 H   0  0  0  0  0  0  0  0  0  0  0  0
  152.8887  136.7262  158.8945 H   0  0  0  0  0  0  0  0  0  0  0  0
  154.5433  136.1503  158.7435 H   0  0  0  0  0  0  0  0  0  0  0  0
  155.6611  139.3386  159.4288 H   0  0  0  0  0  0  0  0  0  0  0  0
  156.3875  138.1541  158.3514 H   0  0  0  0  0  0  0  0  0  0  0  0
  155.1922  137.6453  159.5577 H   0  0  0  0  0  0  0  0  0  0  0  0
  150.9237  141.7623  158.7116 H   0  0  0  0  0  0  0  0  0  0  0  0
  152.0376  140.4626  158.3165 H   0  0  0  0  0  0  0  0  0  0  0  0
  153.0155  141.9577  160.0518 H   0  0  0  0  0  0  0  0  0  0  0  0
  153.9795  141.9898  158.6089 H   0  0  0  0  0  0  0  0  0  0  0  0
  153.1257  146.5016  159.0123 H   0  0  0  0  0  0  0  0  0  0  0  0
  151.9608  146.6409  160.3259 H   0  0  0  0  0  0  0  0  0  0  0  0
  151.4069  146.1601  158.7242 H   0  0  0  0  0  0  0  0  0  0  0  0
  152.8761  145.1815  157.2630 H   0  0  0  0  0  0  0  0  0  0  0  0
  153.9239  143.8078  157.0505 H   0  0  0  0  0  0  0  0  0  0  0  0
  151.9579  143.6149  155.5514 H   0  0  0  0  0  0  0  0  0  0  0  0
  150.8576  143.7764  156.9035 H   0  0  0  0  0  0  0  0  0  0  0  0
  1  2  1  0  0  0  0
  1 25  1  0  0  0  0
  1 26  1  0  0  0  0
  1 27  1  0  0  0  0
  2  3  1  0  0  0  0
  3 24  1  0  0  0  0
  3  4  2  0  0  0  0
  4  5  1  0  0  0  0
  4 28  1  0  0  0  0
  5  6  2  0  0  0  0
  5 29  1  0  0  0  0
  6  7  1  0  0  0  0
  6 14  1  0  0  0  0
  7  8  1  0  0  0  0
  7 30  1  0  0  0  0
  8  9  2  0  0  0  0
  8 10  1  0  0  0  0
 10 11  1  0  0  0  0
 10 12  1  0  0  0  0
 10 31  1  0  0  0  0
 11 32  1  0  0  0  0
 11 33  1  0  0  0  0
 11 34  1  0  0  0  0
 12 13  1  0  0  0  0
 13 35  1  0  0  0  0
 13 36  1  0  0  0  0
 13 37  1  0  0  0  0
 14 15  1  0  0  0  0
 14 24  2  0  0  0  0
 15 23  1  0  0  0  0
 15 16  1  0  0  0  0
 16 17  1  0  0  0  0
 16 38  1  0  0  0  0
 16 39  1  0  0  0  0
 17 18  1  0  0  0  0
 17 40  1  0  0  0  0
 17 41  1  0  0  0  0
 18 19  1  0  0  0  0
 18 22  1  0  0  0  0
 19 20  1  0  0  0  0
 19 21  2  0  0  0  0
 20 42  1  0  0  0  0
 20 43  1  0  0  0  0
 20 44  1  0  0  0  0
 22 23  1  0  0  0  0
 22 45  1  0  0  0  0
 22 46  1  0  0  0  0
 23 47  1  0  0  0  0
 23 48  1  0  0  0  0
M  END
> <s_m_source_file>
AV-unprocessed.smi

> <i_m_source_file_index>
1050

> <i_lp_mmshare_version>
43012

> <i_f3d_flags>
0

> <s_epik_input>
W0NIM11PYzFbY0hdW2NIXWMoW05IXUMoPU8pW0NASF0oW0NIM10pT1tDSDNdKWMobjEpTjJbQ0gyXVtDSDJdTihDKD1PKVtDSDNdKVtDSDJdW0NIMl0y

> <s_epik_cmdline>
J2VwaWtfcHl0aG9uJywgJy1waCcsICc3LjAnLCAnLXRuJywgJzgnLCAnLW1hJywgJzIwMCcsICctbWV0YWxfYmluZGluZycsICctaW1hZScsICc8aW5maWxlLm1hZT4nLCAnLW9tYWUnLCAnPG91dGZpbGUubWFlPic=

> <r_lp_tautomer_probability>
1

> <r_epik_Ionization_Penalty>
0.000150604

> <r_epik_Ionization_Penalty_Charging>
0

> <r_epik_Ionization_Penalty_Neutral>
0.000150604

> <r_epik_State_Penalty>
-0

> <r_epik_Charging_Adjusted_Penalty>
0

> <i_epik_Tot_Q>
0

> <i_epik_Tot_abs_Q>
0

> <r_epik_Metal_State_Penalty>
-0

> <b_epik_Metal_Only>
0

> <s_lp_Force_Field>
OPLS_2005

> <r_lp_Energy>
41.1233

> <b_lp_Chiralities_Consistent>
1

> <s_lp_Variant>
AV-unprocessed.smi:1050-1

> <Gold.Version>
5.8.1

> <Gold.Id.Protein>
6NUR|6NUR_protein|mol2

> <Gold.PLP.Fitness>
48.4132

> <Gold.PLP.PLP>
-43.8863

> <Gold.PLP.part.hbond>
-2.3028

> <Gold.PLP.part.metal>
0.0000

> <Gold.PLP.part.buried>
-6.1287

> <Gold.PLP.part.nonpolar>
-37.8779

> <Gold.PLP.part.repulsive>
1.2000

> <Gold.PLP.ligand.clash>
0.1958

> <Gold.PLP.ligand.torsion>
0.5105

> <Gold.PLP.Chemscore.Hbond>
1.8000

> <Gold.PLP.Chemscore.CHOScore>
0.0000

> <Gold.PLP.Chemscore.Metal>
0.0000

> <Gold.Chemscore.Hbonds>
donor molecule, donor type, donor heavy atom, donor atom, acceptor molecule, acceptor atom, score
      P1  H  7997  8008       L1    12  0.98
      P1  H  8011  8017       L1     2  0.01
      P1  H 10752 10765       L1     9  0.90

> <Gold.PLP.Chemscore.Internal.Correction>
0.3437

> <Gold.Rescore>
     Score         DG    S(hbond)    S(metal)    S(lipo)     H(rot)  DE(clash)    DE(int)     intcor
     13.80     -16.70       1.53        0.00      89.55       1.71       0.05       2.85       ----

> <Gold.Chemscore.Fitness>
13.7961

> <Gold.Chemscore.DG>
-16.6982

> <Gold.Chemscore.ZeroCoef>
-5.4800

> <Gold.Chemscore.Hbond>
1.5329

> <Gold.Chemscore.Metal>
0.0000

> <Gold.Chemscore.Lipo>
89.5484

> <Gold.Chemscore.Internal_Hbond>
0.0000

> <Gold.Chemscore.DEClash>
0.0491

> <Gold.Chemscore.DEInternal>
2.8530

> <Gold.Chemscore.Rot>
1.7106

> <Gold.Chemscore.Internal.Correction>
   9.000000E+99

> <Gold.Chemscore.Hbonds>
donor molecule, donor type, donor heavy atom, donor atom, acceptor molecule, acceptor atom, score
      P1  H  7997  8008       L1    12  0.60
      P1  H 10752 10765       L1     9  0.88

> <Gold.Chemscore.Hbond.Weighted>
-5.1200

> <Gold.Chemscore.Metal.Weighted>
-0.0000

> <Gold.Chemscore.Lipo.Weighted>
-10.4772

> <Gold.Chemscore.Internal_Hbond.Weighted>
0.0000

> <Gold.Chemscore.DEClash.Weighted>
0.0491

> <Gold.Chemscore.DEInternal.Weighted>
2.8530

> <Gold.Chemscore.Rot.Weighted>
4.3790

> <Gold.Chemscore.Internal.Correction.Weighted>
   9.000000E+99

> <Gold.Protein.RotatedTorsions>
[ 6907 6896 6895 6894 ] final    7.46 input  -60.11 | X-H torsion
[ 7974 7965 7964 7962 ] final -172.50 input  175.53 | X-H torsion
[ 8008 7997 7996 7995 ] final  -94.09 input   59.86 | X-H torsion
[ 10167 10162 10161 10158 ] final -157.44 input  -65.29 | X-H torsion
[ 10718 10713 10712 10709 ] final  -90.79 input   66.30 | X-H torsion
[ 10763 10752 10751 10750 ] final -158.60 input  -60.55 | X-H torsion
[ 11005 11000 10999 10996 ] final  -69.92 input  -57.11 | X-H torsion

> <Gold.Protein.ActiveResidues>
 VAL166  LYS551  ARG553  GLY616  TRP617  ASP618  TYR619  PRO620  LYS621  CYS622 
 ASP623  PHE694  ASN695  SER759  ASP760  ASP761  ALA762  ILE779  LEU786  VAL792 
 PHE793  MET794  SER795  GLU796  ALA797  LYS798  CYS799  TRP800  GLU811  SER814 

> <Gold.Protein.RotatedAtoms>
  151.6903  135.0947  160.0232 H   0  0  0  0  0  0  0  0  0  0  0  0  # atno 6907 bound_to 6896
  152.3783  133.6506  159.6149 H   0  0  0  0  0  0  0  0  0  0  0  0  # atno 6908 bound_to 6896
  150.7726  133.9073  159.3400 H   0  0  0  0  0  0  0  0  0  0  0  0  # atno 6909 bound_to 6896
  144.7146  140.1762  143.6362 H   0  0  0  0  0  0  0  0  0  0  0  0  # atno 7974 bound_to 7965
  154.7440  140.0492  157.0836 H   0  0  0  0  0  0  0  0  0  0  0  0  # atno 8008 bound_to 7997
  155.0142  140.3139  155.4799 H   0  0  0  0  0  0  0  0  0  0  0  0  # atno 8009 bound_to 7997
  156.2870  140.2178  156.5258 H   0  0  0  0  0  0  0  0  0  0  0  0  # atno 8010 bound_to 7997
  139.6770  143.9646  152.2316 H   0  0  0  0  0  0  0  0  0  0  0  0  # atno 10167 bound_to 10162
  155.9989  130.4923  150.5376 H   0  0  0  0  0  0  0  0  0  0  0  0  # atno 10718 bound_to 10713
  154.7544  135.3100  154.8498 H   0  0  0  0  0  0  0  0  0  0  0  0  # atno 10763 bound_to 10752
  153.9276  135.6789  153.4750 H   0  0  0  0  0  0  0  0  0  0  0  0  # atno 10764 bound_to 10752
  153.1140  135.4853  154.9014 H   0  0  0  0  0  0  0  0  0  0  0  0  # atno 10765 bound_to 10752
  141.1564  133.6776  156.6673 H   0  0  0  0  0  0  0  0  0  0  0  0  # atno 11005 bound_to 11000
  145.8898  139.2369  143.1556 LP  0  0  0  0  0  0  0  0  0  0  0  0  # atno 17320 bound_to 7965
  145.9914  140.8599  143.0064 LP  0  0  0  0  0  0  0  0  0  0  0  0  # atno 17321 bound_to 7965
  139.9425  144.6672  150.8252 LP  0  0  0  0  0  0  0  0  0  0  0  0  # atno 17342 bound_to 10162
  140.7639  143.3235  151.2569 LP  0  0  0  0  0  0  0  0  0  0  0  0  # atno 17343 bound_to 10162
  157.3317  131.0701  151.1856 LP  0  0  0  0  0  0  0  0  0  0  0  0  # atno 17370 bound_to 10713
  157.2734  130.6715  149.6030 LP  0  0  0  0  0  0  0  0  0  0  0  0  # atno 17371 bound_to 10713
  140.3202  134.8014  157.4246 LP  0  0  0  0  0  0  0  0  0  0  0  0  # atno 17394 bound_to 11000
  140.1104  134.5354  155.8272 LP  0  0  0  0  0  0  0  0  0  0  0  0  # atno 17395 bound_to 11000

$$$$
