AV-unprocessed.smi:2688|AV-procd|sdf|10386|dock3
  -GOLD-   2272014413D 1   1.00000     0.00000
 Structure written by MMmdl.
 51 54  0  0  0  0  0  0  0  0  1 V2000
  151.3997  144.0350  159.9595 C   0  0  0  0  0  0  0  0  0  0  0  0
  152.1192  143.0838  160.8689 C   0  0  0  0  0  0  0  0  0  0  0  0
  151.9408  143.0832  162.3083 C   0  0  0  0  0  0  0  0  0  0  0  0
  152.6214  142.1906  163.0591 C   0  0  0  0  0  0  0  0  0  0  0  0
  153.5350  141.2206  162.4590 C   0  0  0  0  0  0  0  0  0  0  0  0
  154.1655  140.3914  163.1147 O   0  0  0  0  0  0  0  0  0  0  0  0
  153.6231  141.3167  161.0988 N   0  0  0  0  0  0  0  0  0  0  0  0
  154.4802  140.4057  160.3266 C   0  0  0  0  0  0  0  0  0  0  0  0
  153.7415  139.7323  159.1613 C   0  0  0  0  0  0  0  0  0  0  0  0
  154.3166  138.9110  158.4454 O   0  0  0  0  0  0  0  0  0  0  0  0
  152.4565  140.0804  158.9919 N   0  0  0  0  0  0  0  0  0  0  0  0
  151.5905  139.5739  157.9335 C   0  0  0  0  0  0  0  0  0  0  0  0
  151.0872  140.7204  157.0314 C   0  0  0  0  0  0  0  0  0  0  0  0
  149.9114  140.3821  156.0804 C   0  0  0  0  0  0  0  0  0  0  0  0
  150.2879  139.2453  155.0909 C   0  0  0  0  0  0  0  0  0  0  0  0
  149.1218  138.9701  154.1172 C   0  0  1  0  0  0  0  0  0  0  0  0
  147.8710  138.5475  154.9167 C   0  0  0  0  0  0  0  0  0  0  0  0
  147.4739  139.6852  155.8815 C   0  0  2  0  0  0  0  0  0  0  0  0
  147.1589  140.9607  155.0734 C   0  0  0  0  0  0  0  0  0  0  0  0
  148.4118  141.3754  154.2752 C   0  0  2  0  0  0  0  0  0  0  0  0
  148.8113  140.2442  153.3058 C   0  0  0  0  0  0  0  0  0  0  0  0
  149.5747  141.6508  155.2507 C   0  0  0  0  0  0  0  0  0  0  0  0
  148.6361  139.9630  156.8609 C   0  0  0  0  0  0  0  0  0  0  0  0
  152.9290  142.2343  160.3270 N   0  0  0  0  0  0  0  0  0  0  0  0
  150.7375  144.6935  160.5222 H   0  0  0  0  0  0  0  0  0  0  0  0
  150.7930  143.4935  159.2330 H   0  0  0  0  0  0  0  0  0  0  0  0
  152.1067  144.6595  159.4128 H   0  0  0  0  0  0  0  0  0  0  0  0
  151.2680  143.7930  162.7668 H   0  0  0  0  0  0  0  0  0  0  0  0
  152.4872  142.1906  164.1310 H   0  0  0  0  0  0  0  0  0  0  0  0
  155.3352  140.9464  159.9168 H   0  0  0  0  0  0  0  0  0  0  0  0
  154.9034  139.6455  160.9862 H   0  0  0  0  0  0  0  0  0  0  0  0
  152.0575  140.7562  159.6270 H   0  0  0  0  0  0  0  0  0  0  0  0
  152.1278  138.8190  157.3596 H   0  0  0  0  0  0  0  0  0  0  0  0
  150.7518  139.0663  158.4089 H   0  0  0  0  0  0  0  0  0  0  0  0
  150.7984  141.5560  157.6707 H   0  0  0  0  0  0  0  0  0  0  0  0
  151.9202  141.0877  156.4298 H   0  0  0  0  0  0  0  0  0  0  0  0
  151.1861  139.5112  154.5316 H   0  0  0  0  0  0  0  0  0  0  0  0
  150.5229  138.3257  155.6265 H   0  0  0  0  0  0  0  0  0  0  0  0
  149.4032  138.1674  153.4348 H   0  0  0  0  0  0  0  0  0  0  0  0
  147.0475  138.3225  154.2380 H   0  0  0  0  0  0  0  0  0  0  0  0
  148.0700  137.6311  155.4736 H   0  0  0  0  0  0  0  0  0  0  0  0
  146.5889  139.3883  156.4452 H   0  0  0  0  0  0  0  0  0  0  0  0
  146.3210  140.7843  154.3976 H   0  0  0  0  0  0  0  0  0  0  0  0
  146.8520  141.7663  155.7418 H   0  0  0  0  0  0  0  0  0  0  0  0
  148.1949  142.2798  153.7057 H   0  0  0  0  0  0  0  0  0  0  0  0
  149.6808  140.5395  152.7172 H   0  0  0  0  0  0  0  0  0  0  0  0
  148.0070  140.0533  152.5945 H   0  0  0  0  0  0  0  0  0  0  0  0
  149.3094  142.4763  155.9130 H   0  0  0  0  0  0  0  0  0  0  0  0
  150.4518  141.9810  154.6922 H   0  0  0  0  0  0  0  0  0  0  0  0
  148.8227  139.0671  157.4531 H   0  0  0  0  0  0  0  0  0  0  0  0
  148.3497  140.7436  157.5670 H   0  0  0  0  0  0  0  0  0  0  0  0
  1  2  1  0  0  0  0
  1 25  1  0  0  0  0
  1 26  1  0  0  0  0
  1 27  1  0  0  0  0
  2 24  2  0  0  0  0
  2  3  1  0  0  0  0
  3  4  2  0  0  0  0
  3 28  1  0  0  0  0
  4  5  1  0  0  0  0
  4 29  1  0  0  0  0
  5  6  2  0  0  0  0
  5  7  1  0  0  0  0
  7  8  1  0  0  0  0
  7 24  1  0  0  0  0
  8  9  1  0  0  0  0
  8 30  1  0  0  0  0
  8 31  1  0  0  0  0
  9 10  2  0  0  0  0
  9 11  1  0  0  0  0
 11 12  1  0  0  0  0
 11 32  1  0  0  0  0
 12 13  1  0  0  0  0
 12 33  1  0  0  0  0
 12 34  1  0  0  0  0
 13 14  1  0  0  0  0
 13 35  1  0  0  0  0
 13 36  1  0  0  0  0
 14 22  1  0  0  0  0
 14 23  1  0  0  0  0
 14 15  1  0  0  0  0
 15 16  1  0  0  0  0
 15 37  1  0  0  0  0
 15 38  1  0  0  0  0
 16 21  1  0  0  0  0
 16 17  1  0  0  0  0
 16 39  1  0  0  0  0
 17 18  1  0  0  0  0
 17 40  1  0  0  0  0
 17 41  1  0  0  0  0
 18 19  1  0  0  0  0
 18 23  1  0  0  0  0
 18 42  1  0  0  0  0
 19 20  1  0  0  0  0
 19 43  1  0  0  0  0
 19 44  1  0  0  0  0
 20 21  1  0  0  0  0
 20 22  1  0  0  0  0
 20 45  1  0  0  0  0
 21 46  1  0  0  0  0
 21 47  1  0  0  0  0
 22 48  1  0  0  0  0
 22 49  1  0  0  0  0
 23 50  1  0  0  0  0
 23 51  1  0  0  0  0
M  END
> <s_m_source_file>
AV-unprocessed.smi

> <i_m_source_file_index>
2688

> <i_lp_mmshare_version>
43012

> <i_f3d_flags>
0

> <s_epik_input>
W0NIM11jMVtjSF1bY0hdYyg9TyluKG4xKVtDSDJdQyg9TylbTkhdW0NIMl1bQ0gyXUMyM1tDSDJdW0NASF00W0NIMl1bQ0BASF0oW0NIMl0zKVtDSDJdW0NASF0oW0NIMl00KVtDSDJdMg==

> <s_epik_cmdline>
J2VwaWtfcHl0aG9uJywgJy1waCcsICc3LjAnLCAnLXRuJywgJzgnLCAnLW1hJywgJzIwMCcsICctbWV0YWxfYmluZGluZycsICctaW1hZScsICc8aW5maWxlLm1hZT4nLCAnLW9tYWUnLCAnPG91dGZpbGUubWFlPic=

> <r_lp_tautomer_probability>
1

> <r_epik_Ionization_Penalty>
8.74812e-07

> <r_epik_Ionization_Penalty_Charging>
8.53005e-07

> <r_epik_Ionization_Penalty_Neutral>
2.18061e-08

> <r_epik_State_Penalty>
-0

> <r_epik_Charging_Adjusted_Penalty>
8.53005e-07

> <i_epik_Tot_Q>
0

> <i_epik_Tot_abs_Q>
0

> <r_epik_Metal_State_Penalty>
-0

> <b_epik_Metal_Only>
0

> <s_lp_Force_Field>
OPLS_2005

> <r_lp_Energy>
47.4944

> <b_lp_Chiralities_Consistent>
1

> <s_lp_Variant>
AV-unprocessed.smi:2688-1

> <Gold.Version>
5.8.1

> <Gold.Id.Protein>
6NUR|6NUR_protein|mol2

> <Gold.PLP.Fitness>
46.9291

> <Gold.PLP.PLP>
-44.6102

> <Gold.PLP.part.hbond>
-1.8604

> <Gold.PLP.part.metal>
0.0000

> <Gold.PLP.part.buried>
0.9764

> <Gold.PLP.part.nonpolar>
-43.5650

> <Gold.PLP.part.repulsive>
0.1201

> <Gold.PLP.ligand.clash>
0.0000

> <Gold.PLP.ligand.torsion>
0.1292

> <Gold.PLP.Chemscore.Hbond>
0.8500

> <Gold.PLP.Chemscore.CHOScore>
0.0000

> <Gold.PLP.Chemscore.Metal>
0.0000

> <Gold.Chemscore.Hbonds>
donor molecule, donor type, donor heavy atom, donor atom, acceptor molecule, acceptor atom, score
      P1  H  7997  8009       L1    10  0.80

> <Gold.PLP.Chemscore.Internal.Correction>
0.0272

> <Gold.Rescore>
     Score         DG    S(hbond)    S(metal)    S(lipo)     H(rot)  DE(clash)    DE(int)     intcor
     11.13     -14.99       0.00        0.00     119.24       1.73       1.87       2.00       ----

> <Gold.Chemscore.Fitness>
11.1302

> <Gold.Chemscore.DG>
-14.9943

> <Gold.Chemscore.ZeroCoef>
-5.4800

> <Gold.Chemscore.Hbond>
0.0000

> <Gold.Chemscore.Metal>
0.0000

> <Gold.Chemscore.Lipo>
119.2393

> <Gold.Chemscore.Internal_Hbond>
0.0000

> <Gold.Chemscore.DEClash>
1.8661

> <Gold.Chemscore.DEInternal>
1.9980

> <Gold.Chemscore.Rot>
1.7331

> <Gold.Chemscore.Internal.Correction>
   9.000000E+99

> <Gold.Chemscore.Hbonds>
donor molecule, donor type, donor heavy atom, donor atom, acceptor molecule, acceptor atom, score
      P1  H  7997  8009       L1    10  0.14

> <Gold.Chemscore.Hbond.Weighted>
-0.0000

> <Gold.Chemscore.Metal.Weighted>
-0.0000

> <Gold.Chemscore.Lipo.Weighted>
-13.9510

> <Gold.Chemscore.Internal_Hbond.Weighted>
0.0000

> <Gold.Chemscore.DEClash.Weighted>
1.8661

> <Gold.Chemscore.DEInternal.Weighted>
1.9980

> <Gold.Chemscore.Rot.Weighted>
4.4367

> <Gold.Chemscore.Internal.Correction.Weighted>
   9.000000E+99

> <Gold.Protein.RotatedTorsions>
[ 6907 6896 6895 6894 ] final   -0.12 input  -60.11 | X-H torsion
[ 7974 7965 7964 7962 ] final   11.69 input  175.53 | X-H torsion
[ 8008 7997 7996 7995 ] final  154.10 input   59.86 | X-H torsion
[ 10167 10162 10161 10158 ] final -179.34 input  -65.29 | X-H torsion
[ 10718 10713 10712 10709 ] final   85.09 input   66.30 | X-H torsion
[ 10763 10752 10751 10750 ] final    9.81 input  -60.55 | X-H torsion
[ 11005 11000 10999 10996 ] final  -88.85 input  -57.11 | X-H torsion

> <Gold.Protein.ActiveResidues>
 VAL166  LYS551  ARG553  GLY616  TRP617  ASP618  TYR619  PRO620  LYS621  CYS622 
 ASP623  PHE694  ASN695  SER759  ASP760  ASP761  ALA762  ILE779  LEU786  VAL792 
 PHE793  MET794  SER795  GLU796  ALA797  LYS798  CYS799  TRP800  GLU811  SER814 

> <Gold.Protein.RotatedAtoms>
  151.5673  135.1063  159.9986 H   0  0  0  0  0  0  0  0  0  0  0  0  # atno 6907 bound_to 6896
  152.4418  133.7457  159.6676 H   0  0  0  0  0  0  0  0  0  0  0  0  # atno 6908 bound_to 6896
  150.8324  133.7999  159.3116 H   0  0  0  0  0  0  0  0  0  0  0  0  # atno 6909 bound_to 6896
  146.2366  139.9448  142.8478 H   0  0  0  0  0  0  0  0  0  0  0  0  # atno 7974 bound_to 7965
  156.2548  140.1976  156.6594 H   0  0  0  0  0  0  0  0  0  0  0  0  # atno 8008 bound_to 7997
  154.6476  140.0576  156.9944 H   0  0  0  0  0  0  0  0  0  0  0  0  # atno 8009 bound_to 7997
  155.1467  140.3247  155.4443 H   0  0  0  0  0  0  0  0  0  0  0  0  # atno 8010 bound_to 7997
  139.5391  144.2414  152.0857 H   0  0  0  0  0  0  0  0  0  0  0  0  # atno 10167 bound_to 10162
  157.6909  131.0160  150.2770 H   0  0  0  0  0  0  0  0  0  0  0  0  # atno 10718 bound_to 10713
  153.2099  135.6867  153.8126 H   0  0  0  0  0  0  0  0  0  0  0  0  # atno 10763 bound_to 10752
  153.7362  135.3245  155.3296 H   0  0  0  0  0  0  0  0  0  0  0  0  # atno 10764 bound_to 10752
  154.8217  135.4647  154.0903 H   0  0  0  0  0  0  0  0  0  0  0  0  # atno 10765 bound_to 10752
  141.1595  133.7594  156.9510 H   0  0  0  0  0  0  0  0  0  0  0  0  # atno 11005 bound_to 11000
  145.1918  140.9815  143.4206 LP  0  0  0  0  0  0  0  0  0  0  0  0  # atno 17320 bound_to 7965
  144.9851  139.3745  143.6243 LP  0  0  0  0  0  0  0  0  0  0  0  0  # atno 17321 bound_to 7965
  140.1890  144.4771  150.6489 LP  0  0  0  0  0  0  0  0  0  0  0  0  # atno 17342 bound_to 10162
  140.6612  143.2253  151.5852 LP  0  0  0  0  0  0  0  0  0  0  0  0  # atno 17343 bound_to 10162
  156.3323  130.3802  149.7480 LP  0  0  0  0  0  0  0  0  0  0  0  0  # atno 17370 bound_to 10713
  156.5016  130.8131  151.3134 LP  0  0  0  0  0  0  0  0  0  0  0  0  # atno 17371 bound_to 10713
  140.1257  134.9388  157.2267 LP  0  0  0  0  0  0  0  0  0  0  0  0  # atno 17394 bound_to 11000
  140.3016  134.3125  155.7288 LP  0  0  0  0  0  0  0  0  0  0  0  0  # atno 17395 bound_to 11000

$$$$
