AV-unprocessed.smi:1055|AV-procd|sdf|4628|dock5
  -GOLD-   22720 3133D 1   1.00000     0.00000
 Structure written by MMmdl.
 51 52  0  0  0  0  0  0  0  0  2 V2000
  151.5536  140.6283  156.5332 C   0  0  0  0  0  0  0  0  0  0  0  0
  150.9788  141.5203  157.3566 C   0  0  0  0  0  0  0  0  0  0  0  0
  151.7725  142.2699  158.4103 C   0  0  0  0  0  0  0  0  0  0  0  0
  149.4966  141.8552  157.2704 C   0  0  0  0  0  0  0  0  0  0  0  0
  148.7839  141.0941  156.2439 N   0  0  0  0  0  0  0  0  0  0  0  0
  149.0278  141.6390  154.9034 C   0  0  0  0  0  0  0  0  0  0  0  0
  148.3187  140.7844  153.8386 C   0  0  0  0  0  0  0  0  0  0  0  0
  146.8056  140.7103  154.1045 C   0  0  0  0  0  0  0  0  0  0  0  0
  146.1564  139.7915  153.1739 N   0  0  0  0  0  0  0  0  0  0  0  0
  146.3924  138.4738  153.1017 C   0  0  0  0  0  0  0  0  0  0  0  0
  147.2045  137.8896  153.8188 O   0  0  0  0  0  0  0  0  0  0  0  0
  145.6445  137.8960  152.1456 N   0  0  0  0  0  0  0  0  0  0  0  0
  145.5764  136.5227  151.7855 C   0  0  0  0  0  0  0  0  0  0  0  0
  145.6421  135.5655  152.8194 C   0  0  0  0  0  0  0  0  0  0  0  0
  145.5938  134.1909  152.5083 C   0  0  0  0  0  0  0  0  0  0  0  0
  145.4887  133.7772  151.1574 C   0  0  0  0  0  0  0  0  0  0  0  0
  145.4360  132.4222  150.7651 N   0  0  0  0  0  0  0  0  0  0  0  0
  145.5577  132.0693  149.3566 C   0  0  0  0  0  0  0  0  0  0  0  0
  145.2411  131.3835  151.7706 C   0  0  0  0  0  0  0  0  0  0  0  0
  145.4416  134.7340  150.1984 N   0  3  0  0  0  0  0  0  0  0  0  0
  145.4833  136.0597  150.4514 C   0  0  0  0  0  0  0  0  0  0  0  0
  146.5738  140.2454  155.5492 C   0  0  0  0  0  0  0  0  0  0  0  0
  147.3508  141.1265  156.5426 C   0  0  0  0  0  0  0  0  0  0  0  0
  152.6083  140.4040  156.5975 H   0  0  0  0  0  0  0  0  0  0  0  0
  150.9777  140.1076  155.7822 H   0  0  0  0  0  0  0  0  0  0  0  0
  151.6963  143.3449  158.2459 H   0  0  0  0  0  0  0  0  0  0  0  0
  152.8279  141.9962  158.3831 H   0  0  0  0  0  0  0  0  0  0  0  0
  151.3928  142.0474  159.4078 H   0  0  0  0  0  0  0  0  0  0  0  0
  149.0528  141.6481  158.2452 H   0  0  0  0  0  0  0  0  0  0  0  0
  149.3727  142.9241  157.0877 H   0  0  0  0  0  0  0  0  0  0  0  0
  148.6822  142.6726  154.8513 H   0  0  0  0  0  0  0  0  0  0  0  0
  150.0955  141.6490  154.6847 H   0  0  0  0  0  0  0  0  0  0  0  0
  148.5080  141.2037  152.8500 H   0  0  0  0  0  0  0  0  0  0  0  0
  148.7480  139.7812  153.8362 H   0  0  0  0  0  0  0  0  0  0  0  0
  146.3732  141.7064  153.9912 H   0  0  0  0  0  0  0  0  0  0  0  0
  145.4743  140.1905  152.5455 H   0  0  0  0  0  0  0  0  0  0  0  0
  145.0822  138.5203  151.5858 H   0  0  0  0  0  0  0  0  0  0  0  0
  145.7249  135.8788  153.8499 H   0  0  0  0  0  0  0  0  0  0  0  0
  145.6404  133.4751  153.3153 H   0  0  0  0  0  0  0  0  0  0  0  0
  144.7457  132.5137  148.7803 H   0  0  0  0  0  0  0  0  0  0  0  0
  145.5161  130.9894  149.2130 H   0  0  0  0  0  0  0  0  0  0  0  0
  146.5075  132.4214  148.9532 H   0  0  0  0  0  0  0  0  0  0  0  0
  144.3042  131.5390  152.3065 H   0  0  0  0  0  0  0  0  0  0  0  0
  146.0588  131.3906  152.4919 H   0  0  0  0  0  0  0  0  0  0  0  0
  145.2047  130.3928  151.3174 H   0  0  0  0  0  0  0  0  0  0  0  0
  145.4531  136.6877  149.5739 H   0  0  0  0  0  0  0  0  0  0  0  0
  145.5096  140.2754  155.7857 H   0  0  0  0  0  0  0  0  0  0  0  0
  146.8880  139.2068  155.6650 H   0  0  0  0  0  0  0  0  0  0  0  0
  147.1802  140.7599  157.5556 H   0  0  0  0  0  0  0  0  0  0  0  0
  146.9820  142.1531  156.5076 H   0  0  0  0  0  0  0  0  0  0  0  0
  145.3733  134.4361  149.2251 H   0  0  0  0  0  0  0  0  0  0  0  0
  1  2  2  0  0  0  0
  1 24  1  0  0  0  0
  1 25  1  0  0  0  0
  2  3  1  0  0  0  0
  2  4  1  0  0  0  0
  3 26  1  0  0  0  0
  3 27  1  0  0  0  0
  3 28  1  0  0  0  0
  4  5  1  0  0  0  0
  4 29  1  0  0  0  0
  4 30  1  0  0  0  0
  5 23  1  0  0  0  0
  5  6  1  0  0  0  0
  6  7  1  0  0  0  0
  6 31  1  0  0  0  0
  6 32  1  0  0  0  0
  7  8  1  0  0  0  0
  7 33  1  0  0  0  0
  7 34  1  0  0  0  0
  8  9  1  0  0  0  0
  8 22  1  0  0  0  0
  8 35  1  0  0  0  0
  9 10  1  0  0  0  0
  9 36  1  0  0  0  0
 10 11  2  0  0  0  0
 10 12  1  0  0  0  0
 12 13  1  0  0  0  0
 12 37  1  0  0  0  0
 13 21  1  0  0  0  0
 13 14  2  0  0  0  0
 14 15  1  0  0  0  0
 14 38  1  0  0  0  0
 15 16  2  0  0  0  0
 15 39  1  0  0  0  0
 16 17  1  0  0  0  0
 16 20  1  0  0  0  0
 17 18  1  0  0  0  0
 17 19  1  0  0  0  0
 18 40  1  0  0  0  0
 18 41  1  0  0  0  0
 18 42  1  0  0  0  0
 19 43  1  0  0  0  0
 19 44  1  0  0  0  0
 19 45  1  0  0  0  0
 20 21  2  0  0  0  0
 20 51  1  0  0  0  0
 21 46  1  0  0  0  0
 22 23  1  0  0  0  0
 22 47  1  0  0  0  0
 22 48  1  0  0  0  0
 23 49  1  0  0  0  0
 23 50  1  0  0  0  0
M  CHG  1  20   1
M  END
> <s_m_source_file>
AV-unprocessed.smi

> <i_m_source_file_index>
1055

> <i_lp_mmshare_version>
43012

> <i_f3d_flags>
0

> <s_epik_input>
W0NIMl09QyhbQ0gzXSlbQ0gyXU4xW0NIMl1bQ0gyXVtDSF0oW0NIMl1bQ0gyXTEpW05IXUMoPU8pW05IXWMyW2NIXVtjSF1jKE4oW0NIM10pW0NIM10pbltjSF0y

> <s_epik_cmdline>
J2VwaWtfcHl0aG9uJywgJy1waCcsICc3LjAnLCAnLXRuJywgJzgnLCAnLW1hJywgJzIwMCcsICctbWV0YWxfYmluZGluZycsICctaW1hZScsICc8aW5maWxlLm1hZT4nLCAnLW9tYWUnLCAnPG91dGZpbGUubWFlPic=

> <r_epik_Ionization_Penalty>
2.2313

> <r_epik_Ionization_Penalty_Charging>
0.252156

> <r_epik_Ionization_Penalty_Neutral>
1.97915

> <r_epik_State_Penalty>
2.37644

> <r_epik_Charging_Adjusted_Penalty>
2.62859

> <i_epik_Tot_Q>
1

> <i_epik_Tot_abs_Q>
1

> <r_epik_Metal_State_Penalty>
2.63815

> <b_epik_Metal_Only>
0

> <s_lp_Force_Field>
OPLS_2005

> <r_lp_Energy>
24.1414

> <b_lp_Chiralities_Consistent>
1

> <s_lp_Variant>
AV-unprocessed.smi:1055-5

> <Gold.Version>
5.8.1

> <Gold.Id.Protein>
6NUR|6NUR_protein|mol2

> <Gold.PLP.Fitness>
42.7205

> <Gold.PLP.PLP>
-36.9504

> <Gold.PLP.part.hbond>
-3.3392

> <Gold.PLP.part.metal>
0.0000

> <Gold.PLP.part.buried>
-1.7481

> <Gold.PLP.part.nonpolar>
-31.8417

> <Gold.PLP.part.repulsive>
0.7185

> <Gold.PLP.ligand.clash>
0.0000

> <Gold.PLP.ligand.torsion>
0.5239

> <Gold.PLP.Chemscore.Hbond>
2.2618

> <Gold.PLP.Chemscore.CHOScore>
0.0000

> <Gold.PLP.Chemscore.Metal>
0.0000

> <Gold.Chemscore.Hbonds>
donor molecule, donor type, donor heavy atom, donor atom, acceptor molecule, acceptor atom, score
      L1  H     9    36       P1 10175  0.80
      L1  H    12    37       P1 10171  0.62
      L1  H    20    51       P1  7921  0.77

> <Gold.PLP.Chemscore.Internal.Correction>
0.0324

> <Gold.Rescore>
     Score         DG    S(hbond)    S(metal)    S(lipo)     H(rot)  DE(clash)    DE(int)     intcor
     16.98     -20.98       2.37        0.00      93.77       1.32       1.10       2.91       ----

> <Gold.Chemscore.Fitness>
16.9750

> <Gold.Chemscore.DG>
-20.9849

> <Gold.Chemscore.ZeroCoef>
-5.4800

> <Gold.Chemscore.Hbond>
2.3716

> <Gold.Chemscore.Metal>
0.0000

> <Gold.Chemscore.Lipo>
93.7673

> <Gold.Chemscore.Internal_Hbond>
0.0000

> <Gold.Chemscore.DEClash>
1.0957

> <Gold.Chemscore.DEInternal>
2.9141

> <Gold.Chemscore.Rot>
1.3231

> <Gold.Chemscore.Internal.Correction>
   9.000000E+99

> <Gold.Chemscore.Hbonds>
donor molecule, donor type, donor heavy atom, donor atom, acceptor molecule, acceptor atom, score
      L1  H     9    36       P1 10175  0.68
      L1  H    12    37       P1 10171  0.62
      L1  H    20    51       P1  7921  0.76

> <Gold.Chemscore.Hbond.Weighted>
-7.9212

> <Gold.Chemscore.Metal.Weighted>
-0.0000

> <Gold.Chemscore.Lipo.Weighted>
-10.9708

> <Gold.Chemscore.Internal_Hbond.Weighted>
0.0000

> <Gold.Chemscore.DEClash.Weighted>
1.0957

> <Gold.Chemscore.DEInternal.Weighted>
2.9141

> <Gold.Chemscore.Rot.Weighted>
3.3871

> <Gold.Chemscore.Internal.Correction.Weighted>
   9.000000E+99

> <Gold.Protein.RotatedTorsions>
[ 6907 6896 6895 6894 ] final  163.90 input  -60.11 | X-H torsion
[ 7974 7965 7964 7962 ] final  114.27 input  175.53 | X-H torsion
[ 8008 7997 7996 7995 ] final  -58.52 input   59.86 | X-H torsion
[ 10167 10162 10161 10158 ] final    0.68 input  -65.29 | X-H torsion
[ 10718 10713 10712 10709 ] final   86.75 input   66.30 | X-H torsion
[ 10763 10752 10751 10750 ] final  144.79 input  -60.55 | X-H torsion
[ 11005 11000 10999 10996 ] final   10.49 input  -57.11 | X-H torsion

> <Gold.Protein.ActiveResidues>
 VAL166  LYS551  ARG553  GLY616  TRP617  ASP618  TYR619  PRO620  LYS621  CYS622 
 ASP623  PHE694  ASN695  SER759  ASP760  ASP761  ALA762  ILE779  LEU786  VAL792 
 PHE793  MET794  SER795  GLU796  ALA797  LYS798  CYS799  TRP800  GLU811  SER814 

> <Gold.Protein.RotatedAtoms>
  151.9181  133.3578  159.3886 H   0  0  0  0  0  0  0  0  0  0  0  0  # atno 6907 bound_to 6896
  150.7043  134.4664  159.5414 H   0  0  0  0  0  0  0  0  0  0  0  0  # atno 6908 bound_to 6896
  152.2282  134.8348  160.0528 H   0  0  0  0  0  0  0  0  0  0  0  0  # atno 6909 bound_to 6896
  145.2065  139.2927  143.4291 H   0  0  0  0  0  0  0  0  0  0  0  0  # atno 7974 bound_to 7965
  154.4312  140.1082  156.5971 H   0  0  0  0  0  0  0  0  0  0  0  0  # atno 8008 bound_to 7997
  155.5951  140.3492  155.4558 H   0  0  0  0  0  0  0  0  0  0  0  0  # atno 8009 bound_to 7997
  156.0217  140.1241  157.0340 H   0  0  0  0  0  0  0  0  0  0  0  0  # atno 8010 bound_to 7997
  140.6718  143.7028  150.7938 H   0  0  0  0  0  0  0  0  0  0  0  0  # atno 10167 bound_to 10162
  157.6932  131.0228  150.3019 H   0  0  0  0  0  0  0  0  0  0  0  0  # atno 10718 bound_to 10713
  153.9947  135.2929  155.3408 H   0  0  0  0  0  0  0  0  0  0  0  0  # atno 10763 bound_to 10752
  154.7194  135.5115  153.8791 H   0  0  0  0  0  0  0  0  0  0  0  0  # atno 10764 bound_to 10752
  153.0793  135.6674  154.0195 H   0  0  0  0  0  0  0  0  0  0  0  0  # atno 10765 bound_to 10752
  140.5139  134.0625  155.7826 H   0  0  0  0  0  0  0  0  0  0  0  0  # atno 11005 bound_to 11000
  146.3406  140.2327  142.8593 LP  0  0  0  0  0  0  0  0  0  0  0  0  # atno 17320 bound_to 7965
  144.9897  140.8535  143.5347 LP  0  0  0  0  0  0  0  0  0  0  0  0  # atno 17321 bound_to 7965
  140.0715  143.5057  152.2577 LP  0  0  0  0  0  0  0  0  0  0  0  0  # atno 17342 bound_to 10162
  139.5990  144.7576  151.3218 LP  0  0  0  0  0  0  0  0  0  0  0  0  # atno 17343 bound_to 10162
  156.3534  130.3835  149.7310 LP  0  0  0  0  0  0  0  0  0  0  0  0  # atno 17370 bound_to 10713
  156.4781  130.8028  151.3043 LP  0  0  0  0  0  0  0  0  0  0  0  0  # atno 17371 bound_to 10713
  141.1371  133.9203  157.2410 LP  0  0  0  0  0  0  0  0  0  0  0  0  # atno 17394 bound_to 11000
  139.9643  135.0146  156.9346 LP  0  0  0  0  0  0  0  0  0  0  0  0  # atno 17395 bound_to 11000

$$$$
