AV-unprocessed.smi:1240|AV-procd|sdf|5207|dock1
  -GOLD-   22720 4293D 1   1.00000     0.00000
 Structure written by MMmdl.
 49 51  0  0  0  0  0  0  0  0  3 V2000
  149.5497  133.8347  155.7168 O   0  0  0  0  0  0  0  0  0  0  0  0
  149.3012  134.4798  154.6991 C   0  0  0  0  0  0  0  0  0  0  0  0
  148.4077  134.0922  153.7793 N   0  0  0  0  0  0  0  0  0  0  0  0
  147.5812  132.8938  153.8667 C   0  0  0  0  0  0  0  0  0  0  0  0
  147.3955  132.2001  152.4902 C   0  0  2  0  0  0  0  0  0  0  0  0
  146.0095  132.4683  151.8364 C   0  0  2  0  0  0  0  0  0  0  0  0
  145.8196  131.8014  150.4832 C   0  0  0  0  0  0  0  0  0  0  0  0
  144.6351  132.5685  149.9107 C   0  0  0  0  0  0  0  0  0  0  0  0
  144.8125  133.9040  150.3614 O   0  0  0  0  0  0  0  0  0  0  0  0
  145.7107  133.9287  151.4666 C   0  0  0  0  0  0  0  0  0  0  0  0
  147.6406  130.7280  152.5711 N   0  3  0  0  0  0  0  0  0  0  0  0
  148.7169  130.3427  153.5165 C   0  0  0  0  0  0  0  0  0  0  0  0
  149.0255  128.8415  153.3827 C   0  0  0  0  0  0  0  0  0  0  0  0
  147.8394  128.0849  153.5956 O   0  0  0  0  0  0  0  0  0  0  0  0
  146.8292  128.3917  152.6419 C   0  0  0  0  0  0  0  0  0  0  0  0
  146.4408  129.8742  152.7659 C   0  0  0  0  0  0  0  0  0  0  0  0
  149.8826  135.6408  154.3506 N   0  0  0  0  0  0  0  0  0  0  0  0
  150.8365  136.4111  155.0707 C   0  0  0  0  0  0  0  0  0  0  0  0
  151.3147  137.5914  154.4594 C   0  0  0  0  0  0  0  0  0  0  0  0
  152.2465  138.4004  155.1410 C   0  0  0  0  0  0  0  0  0  0  0  0
  152.6678  138.0476  156.3742 N   0  3  0  0  0  0  0  0  0  0  0  0
  152.2306  136.9366  157.0047 C   0  0  0  0  0  0  0  0  0  0  0  0
  151.2985  136.0883  156.3727 C   0  0  0  0  0  0  0  0  0  0  0  0
  148.2770  134.6770  152.9666 H   0  0  0  0  0  0  0  0  0  0  0  0
  148.0597  132.2220  154.5792 H   0  0  0  0  0  0  0  0  0  0  0  0
  146.6067  133.1533  154.2834 H   0  0  0  0  0  0  0  0  0  0  0  0
  148.1471  132.6039  151.8095 H   0  0  0  0  0  0  0  0  0  0  0  0
  145.2158  132.1229  152.5003 H   0  0  0  0  0  0  0  0  0  0  0  0
  146.6997  131.9496  149.8555 H   0  0  0  0  0  0  0  0  0  0  0  0
  145.6251  130.7308  150.5532 H   0  0  0  0  0  0  0  0  0  0  0  0
  144.5837  132.5152  148.8232 H   0  0  0  0  0  0  0  0  0  0  0  0
  143.6987  132.1829  150.3161 H   0  0  0  0  0  0  0  0  0  0  0  0
  145.2747  134.4838  152.2972 H   0  0  0  0  0  0  0  0  0  0  0  0
  146.6169  134.4471  151.1513 H   0  0  0  0  0  0  0  0  0  0  0  0
  149.6200  130.9186  153.3118 H   0  0  0  0  0  0  0  0  0  0  0  0
  148.4175  130.5665  154.5407 H   0  0  0  0  0  0  0  0  0  0  0  0
  149.4425  128.6157  152.3998 H   0  0  0  0  0  0  0  0  0  0  0  0
  149.7711  128.5443  154.1205 H   0  0  0  0  0  0  0  0  0  0  0  0
  147.1800  128.1629  151.6342 H   0  0  0  0  0  0  0  0  0  0  0  0
  145.9620  127.7583  152.8292 H   0  0  0  0  0  0  0  0  0  0  0  0
  146.0058  130.0492  153.7505 H   0  0  0  0  0  0  0  0  0  0  0  0
  145.6761  130.1118  152.0270 H   0  0  0  0  0  0  0  0  0  0  0  0
  149.6348  136.0034  153.4416 H   0  0  0  0  0  0  0  0  0  0  0  0
  150.9756  137.8769  153.4740 H   0  0  0  0  0  0  0  0  0  0  0  0
  152.6615  139.3138  154.7405 H   0  0  0  0  0  0  0  0  0  0  0  0
  152.6314  136.7636  157.9928 H   0  0  0  0  0  0  0  0  0  0  0  0
  150.9492  135.2175  156.9056 H   0  0  0  0  0  0  0  0  0  0  0  0
  148.0005  130.4811  151.6601 H   0  0  0  0  0  0  0  0  0  0  0  0
  153.3411  138.6478  156.8515 H   0  0  0  0  0  0  0  0  0  0  0  0
  1  2  2  0  0  0  0
  2  3  1  0  0  0  0
  2 17  1  0  0  0  0
  3  4  1  0  0  0  0
  3 24  1  0  0  0  0
  4  5  1  0  0  0  0
  4 25  1  0  0  0  0
  4 26  1  0  0  0  0
  5  6  1  0  0  0  0
  5 11  1  0  0  0  0
  5 27  1  0  0  0  0
  6 10  1  0  0  0  0
  6  7  1  0  0  0  0
  6 28  1  0  0  0  0
  7  8  1  0  0  0  0
  7 29  1  0  0  0  0
  7 30  1  0  0  0  0
  8  9  1  0  0  0  0
  8 31  1  0  0  0  0
  8 32  1  0  0  0  0
  9 10  1  0  0  0  0
 10 33  1  0  0  0  0
 10 34  1  0  0  0  0
 11 16  1  0  0  0  0
 11 12  1  0  0  0  0
 11 48  1  0  0  0  0
 12 13  1  0  0  0  0
 12 35  1  0  0  0  0
 12 36  1  0  0  0  0
 13 14  1  0  0  0  0
 13 37  1  0  0  0  0
 13 38  1  0  0  0  0
 14 15  1  0  0  0  0
 15 16  1  0  0  0  0
 15 39  1  0  0  0  0
 15 40  1  0  0  0  0
 16 41  1  0  0  0  0
 16 42  1  0  0  0  0
 17 18  1  0  0  0  0
 17 43  1  0  0  0  0
 18 23  1  0  0  0  0
 18 19  2  0  0  0  0
 19 20  1  0  0  0  0
 19 44  1  0  0  0  0
 20 21  2  0  0  0  0
 20 45  1  0  0  0  0
 21 22  1  0  0  0  0
 21 49  1  0  0  0  0
 22 23  2  0  0  0  0
 22 46  1  0  0  0  0
 23 47  1  0  0  0  0
M  CHG  1  11   1
M  CHG  1  21   1
M  END
> <s_m_source_file>
AV-unprocessed.smi

> <i_m_source_file_index>
1240

> <i_lp_mmshare_version>
43012

> <i_f3d_flags>
0

> <s_epik_input>
W2NIXTFbY0hdbltjSF1bY0hdYzFbTkhdQyg9TylbTkhdW0NIMl1bQ0BIXShbQ0BASF0yW0NIMl1bQ0gyXU9bQ0gyXTIpTjNbQ0gyXVtDSDJdT1tDSDJdW0NIMl0z

> <s_epik_cmdline>
J2VwaWtfcHl0aG9uJywgJy1waCcsICc3LjAnLCAnLXRuJywgJzgnLCAnLW1hJywgJzIwMCcsICctbWV0YWxfYmluZGluZycsICctaW1hZScsICc8aW5maWxlLm1hZT4nLCAnLW9tYWUnLCAnPG91dGZpbGUubWFlPic=

> <r_epik_Ionization_Penalty>
2.08105

> <r_epik_Ionization_Penalty_Charging>
2.08103

> <r_epik_Ionization_Penalty_Neutral>
2.04144e-05

> <r_epik_State_Penalty>
2.15598

> <r_epik_Charging_Adjusted_Penalty>
4.23701

> <i_epik_Tot_Q>
2

> <i_epik_Tot_abs_Q>
2

> <r_epik_Metal_State_Penalty>
2.25158

> <b_epik_Metal_Only>
0

> <s_lp_Force_Field>
OPLS_2005

> <r_lp_Energy>
50.7828

> <b_lp_Chiralities_Consistent>
1

> <s_lp_Variant>
AV-unprocessed.smi:1240-13

> <Gold.Version>
5.8.1

> <Gold.Id.Protein>
6NUR|6NUR_protein|mol2

> <Gold.PLP.Fitness>
42.7721

> <Gold.PLP.PLP>
-36.5442

> <Gold.PLP.part.hbond>
-3.5907

> <Gold.PLP.part.metal>
0.0000

> <Gold.PLP.part.buried>
-4.2699

> <Gold.PLP.part.nonpolar>
-29.6007

> <Gold.PLP.part.repulsive>
0.4401

> <Gold.PLP.ligand.clash>
0.0000

> <Gold.PLP.ligand.torsion>
1.4382

> <Gold.PLP.Chemscore.Hbond>
2.9440

> <Gold.PLP.Chemscore.CHOScore>
0.0000

> <Gold.PLP.Chemscore.Metal>
0.0000

> <Gold.Chemscore.Hbonds>
donor molecule, donor type, donor heavy atom, donor atom, acceptor molecule, acceptor atom, score
      L1  H     3    24       P1  7948  0.94
      L1  H    11    48       P1 10747  1.00
      L1  H    17    43       P1  7948  0.95

> <Gold.PLP.Chemscore.Internal.Correction>
0.2723

> <Gold.Rescore>
     Score         DG    S(hbond)    S(metal)    S(lipo)     H(rot)  DE(clash)    DE(int)     intcor
     18.09     -20.71       2.56        0.00      95.10       1.74       0.15       2.48       ----

> <Gold.Chemscore.Fitness>
18.0878

> <Gold.Chemscore.DG>
-20.7118

> <Gold.Chemscore.ZeroCoef>
-5.4800

> <Gold.Chemscore.Hbond>
2.5644

> <Gold.Chemscore.Metal>
0.0000

> <Gold.Chemscore.Lipo>
95.0981

> <Gold.Chemscore.Internal_Hbond>
0.0000

> <Gold.Chemscore.DEClash>
0.1451

> <Gold.Chemscore.DEInternal>
2.4789

> <Gold.Chemscore.Rot>
1.7421

> <Gold.Chemscore.Internal.Correction>
   9.000000E+99

> <Gold.Chemscore.Hbonds>
donor molecule, donor type, donor heavy atom, donor atom, acceptor molecule, acceptor atom, score
      L1  H     3    24       P1  7948  0.53
      L1  H    11    48       P1 10747  0.95
      L1  H    17    43       P1  7948  0.22

> <Gold.Chemscore.Hbond.Weighted>
-8.5651

> <Gold.Chemscore.Metal.Weighted>
-0.0000

> <Gold.Chemscore.Lipo.Weighted>
-11.1265

> <Gold.Chemscore.Internal_Hbond.Weighted>
0.0000

> <Gold.Chemscore.DEClash.Weighted>
0.1451

> <Gold.Chemscore.DEInternal.Weighted>
2.4789

> <Gold.Chemscore.Rot.Weighted>
4.4597

> <Gold.Chemscore.Internal.Correction.Weighted>
   9.000000E+99

> <Gold.Protein.RotatedTorsions>
[ 6907 6896 6895 6894 ] final  121.53 input  -60.11 | X-H torsion
[ 7974 7965 7964 7962 ] final  -40.07 input  175.53 | X-H torsion
[ 8008 7997 7996 7995 ] final  -73.95 input   59.86 | X-H torsion
[ 10167 10162 10161 10158 ] final   15.05 input  -65.29 | X-H torsion
[ 10718 10713 10712 10709 ] final  -28.63 input   66.30 | X-H torsion
[ 10763 10752 10751 10750 ] final  -52.65 input  -60.55 | X-H torsion
[ 11005 11000 10999 10996 ] final  -18.44 input  -57.11 | X-H torsion

> <Gold.Protein.ActiveResidues>
 VAL166  LYS551  ARG553  GLY616  TRP617  ASP618  TYR619  PRO620  LYS621  CYS622 
 ASP623  PHE694  ASN695  SER759  ASP760  ASP761  ALA762  ILE779  LEU786  VAL792 
 PHE793  MET794  SER795  GLU796  ALA797  LYS798  CYS799  TRP800  GLU811  SER814 

> <Gold.Protein.RotatedAtoms>
  152.4314  133.7284  159.6573 H   0  0  0  0  0  0  0  0  0  0  0  0  # atno 6907 bound_to 6896
  150.8194  133.8269  159.3152 H   0  0  0  0  0  0  0  0  0  0  0  0  # atno 6908 bound_to 6896
  151.5956  135.1053  160.0100 H   0  0  0  0  0  0  0  0  0  0  0  0  # atno 6909 bound_to 6896
  146.0339  140.6697  142.9119 H   0  0  0  0  0  0  0  0  0  0  0  0  # atno 7974 bound_to 7965
  154.5290  140.0770  156.8311 H   0  0  0  0  0  0  0  0  0  0  0  0  # atno 8008 bound_to 7997
  155.3414  140.3407  155.4221 H   0  0  0  0  0  0  0  0  0  0  0  0  # atno 8009 bound_to 7997
  156.1762  140.1636  156.8346 H   0  0  0  0  0  0  0  0  0  0  0  0  # atno 8010 bound_to 7997
  140.5894  143.8825  150.6860 H   0  0  0  0  0  0  0  0  0  0  0  0  # atno 10167 bound_to 10162
  156.4227  130.4429  149.7172 H   0  0  0  0  0  0  0  0  0  0  0  0  # atno 10718 bound_to 10713
  154.1461  135.6497  153.4953 H   0  0  0  0  0  0  0  0  0  0  0  0  # atno 10763 bound_to 10752
  153.0151  135.5327  154.6855 H   0  0  0  0  0  0  0  0  0  0  0  0  # atno 10764 bound_to 10752
  154.6130  135.2956  155.0382 H   0  0  0  0  0  0  0  0  0  0  0  0  # atno 10765 bound_to 10752
  140.8268  133.8027  155.9717 H   0  0  0  0  0  0  0  0  0  0  0  0  # atno 11005 bound_to 11000
  144.7043  140.3785  143.7131 LP  0  0  0  0  0  0  0  0  0  0  0  0  # atno 17320 bound_to 7965
  145.6996  139.1658  143.2600 LP  0  0  0  0  0  0  0  0  0  0  0  0  # atno 17321 bound_to 7965
  140.2344  143.3711  152.1538 LP  0  0  0  0  0  0  0  0  0  0  0  0  # atno 17342 bound_to 10162
  139.5218  144.7050  151.5380 LP  0  0  0  0  0  0  0  0  0  0  0  0  # atno 17343 bound_to 10162
  156.4106  130.7720  151.2733 LP  0  0  0  0  0  0  0  0  0  0  0  0  # atno 17370 bound_to 10713
  157.7508  131.0212  150.3742 LP  0  0  0  0  0  0  0  0  0  0  0  0  # atno 17371 bound_to 10713
  140.9040  134.2342  157.5025 LP  0  0  0  0  0  0  0  0  0  0  0  0  # atno 17394 bound_to 11000
  139.8706  134.9720  156.4756 LP  0  0  0  0  0  0  0  0  0  0  0  0  # atno 17395 bound_to 11000

$$$$
