AV-unprocessed.smi:1196|AV-procd|sdf|5007|dock5
  -GOLD-   22720 4 23D 1   1.00000     0.00000
 Structure written by MMmdl.
 36 37  0  0  0  0  0  0  0  0  2 V2000
  145.5030  137.5557  152.3042 C   0  0  0  0  0  0  0  0  0  0  0  0
  145.5827  136.0209  152.3216 C   0  0  1  0  0  0  0  0  0  0  0  0
  145.6331  135.4447  150.8929 C   0  0  0  0  0  0  0  0  0  0  0  0
  145.4196  134.0082  150.8665 N   0  0  0  0  0  0  0  0  0  0  0  0
  144.2311  133.3230  150.7286 C   0  0  0  0  0  0  0  0  0  0  0  0
  144.5234  131.9898  150.7685 C   0  0  0  0  0  0  0  0  0  0  0  0
  145.9360  131.9586  150.9369 C   0  0  0  0  0  0  0  0  0  0  0  0
  146.4700  133.1679  150.9934 N   0  0  0  0  0  0  0  0  0  0  0  0
  146.7566  135.5923  153.0788 N   0  0  0  0  0  0  0  0  0  0  0  0
  146.7342  134.9127  154.2353 C   0  0  0  0  0  0  0  0  0  0  0  0
  145.6946  134.5767  154.8028 O   0  0  0  0  0  0  0  0  0  0  0  0
  148.0937  134.5513  154.8373 C   0  0  0  0  0  0  0  0  0  0  0  0
  148.4686  133.0778  154.5927 C   0  0  0  0  0  0  0  0  0  0  0  0
  149.8362  132.6964  155.1929 C   0  0  1  0  0  0  0  0  0  0  0  0
  150.7482  133.8199  155.1748 N   0  0  0  0  0  0  0  0  0  0  0  0
  151.1757  134.1187  156.3999 C   0  0  0  0  0  0  0  0  0  0  0  0
  151.9736  135.0314  156.6016 O   0  0  0  0  0  0  0  0  0  0  0  0
  150.6070  133.2970  157.3031 N   0  5  0  0  0  0  0  0  0  0  0  0
  149.7850  132.4149  156.6944 C   0  0  0  0  0  0  0  0  0  0  0  0
  149.0931  131.5154  157.1683 O   0  0  0  0  0  0  0  0  0  0  0  0
  144.6230  137.8960  151.7579 H   0  0  0  0  0  0  0  0  0  0  0  0
  146.3810  137.9931  151.8278 H   0  0  0  0  0  0  0  0  0  0  0  0
  145.4363  137.9602  153.3147 H   0  0  0  0  0  0  0  0  0  0  0  0
  144.6825  135.6398  152.8077 H   0  0  0  0  0  0  0  0  0  0  0  0
  144.8599  135.9065  150.2775 H   0  0  0  0  0  0  0  0  0  0  0  0
  146.5870  135.6744  150.4148 H   0  0  0  0  0  0  0  0  0  0  0  0
  143.2872  133.8356  150.6160 H   0  0  0  0  0  0  0  0  0  0  0  0
  143.8334  131.1629  150.6907 H   0  0  0  0  0  0  0  0  0  0  0  0
  146.5850  131.0992  151.0182 H   0  0  0  0  0  0  0  0  0  0  0  0
  147.6581  135.8166  152.6823 H   0  0  0  0  0  0  0  0  0  0  0  0
  148.8478  135.2043  154.3970 H   0  0  0  0  0  0  0  0  0  0  0  0
  148.0870  134.7620  155.9078 H   0  0  0  0  0  0  0  0  0  0  0  0
  147.6910  132.4258  154.9951 H   0  0  0  0  0  0  0  0  0  0  0  0
  148.4939  132.8907  153.5179 H   0  0  0  0  0  0  0  0  0  0  0  0
  150.2761  131.8443  154.6735 H   0  0  0  0  0  0  0  0  0  0  0  0
  151.0345  134.2934  154.3311 H   0  0  0  0  0  0  0  0  0  0  0  0
  1  2  1  0  0  0  0
  1 21  1  0  0  0  0
  1 22  1  0  0  0  0
  1 23  1  0  0  0  0
  2  3  1  0  0  0  0
  2  9  1  0  0  0  0
  2 24  1  0  0  0  0
  3  4  1  0  0  0  0
  3 25  1  0  0  0  0
  3 26  1  0  0  0  0
  4  8  1  0  0  0  0
  4  5  1  0  0  0  0
  5  6  2  0  0  0  0
  5 27  1  0  0  0  0
  6  7  1  0  0  0  0
  6 28  1  0  0  0  0
  7  8  2  0  0  0  0
  7 29  1  0  0  0  0
  9 10  1  0  0  0  0
  9 30  1  0  0  0  0
 10 11  2  0  0  0  0
 10 12  1  0  0  0  0
 12 13  1  0  0  0  0
 12 31  1  0  0  0  0
 12 32  1  0  0  0  0
 13 14  1  0  0  0  0
 13 33  1  0  0  0  0
 13 34  1  0  0  0  0
 14 19  1  0  0  0  0
 14 15  1  0  0  0  0
 14 35  1  0  0  0  0
 15 16  1  0  0  0  0
 15 36  1  0  0  0  0
 16 17  2  0  0  0  0
 16 18  1  0  0  0  0
 18 19  1  0  0  0  0
 19 20  2  0  0  0  0
M  CHG  1  18  -1
M  END
> <s_m_source_file>
AV-unprocessed.smi

> <i_m_source_file_index>
1196

> <i_lp_mmshare_version>
43012

> <i_f3d_flags>
0

> <s_epik_input>
bjFbY0hdW2NIXVtjSF1uMVtDSDJdW0NAQEhdKFtDSDNdKVtOSF1DKD1PKVtDSDJdW0NIMl1bQ0BASF0yW05IXUMoPU8pW05IXUMyPU8=

> <s_epik_cmdline>
J2VwaWtfcHl0aG9uJywgJy1waCcsICc3LjAnLCAnLXRuJywgJzgnLCAnLW1hJywgJzIwMCcsICctbWV0YWxfYmluZGluZycsICctaW1hZScsICc8aW5maWxlLm1hZT4nLCAnLW9tYWUnLCAnPG91dGZpbGUubWFlPic=

> <r_lp_tautomer_probability>
1

> <r_epik_Ionization_Penalty>
2.57056

> <r_epik_Ionization_Penalty_Charging>
2.57023

> <r_epik_Ionization_Penalty_Neutral>
0.000331301

> <r_epik_State_Penalty>
2.56828

> <r_epik_Charging_Adjusted_Penalty>
5.13851

> <i_epik_Tot_Q>
-1

> <i_epik_Tot_abs_Q>
1

> <r_epik_Metal_State_Penalty>
0.444883

> <b_epik_Metal_Only>
1

> <s_lp_Force_Field>
OPLS_2005

> <r_lp_Energy>
6.594

> <b_lp_Chiralities_Consistent>
1

> <s_lp_Variant>
AV-unprocessed.smi:1196-12

> <Gold.Version>
5.8.1

> <Gold.Id.Protein>
6NUR|6NUR_protein|mol2

> <Gold.PLP.Fitness>
42.5646

> <Gold.PLP.PLP>
-26.3849

> <Gold.PLP.part.hbond>
-3.0000

> <Gold.PLP.part.metal>
0.0000

> <Gold.PLP.part.buried>
-1.8935

> <Gold.PLP.part.nonpolar>
-21.3305

> <Gold.PLP.part.repulsive>
0.3470

> <Gold.PLP.ligand.clash>
0.0000

> <Gold.PLP.ligand.torsion>
0.9568

> <Gold.PLP.Chemscore.Hbond>
3.9753

> <Gold.PLP.Chemscore.CHOScore>
1.9990

> <Gold.PLP.Chemscore.Metal>
0.0000

> <Gold.Chemscore.Hbonds>
donor molecule, donor type, donor heavy atom, donor atom, acceptor molecule, acceptor atom, score
      L1  H     9    30       P1  7948  1.00
      P1  H  6896  6908       L1    18  1.82
      P1  H 10752 10764       L1    17  1.00
      L1  C     5    27       P1 10186  0.87
      L1  C     7    29       P1 10747  0.98

> <Gold.PLP.Chemscore.Internal.Correction>
0.1706

> <Gold.Rescore>
     Score         DG    S(hbond)    S(metal)    S(lipo)     H(rot)  DE(clash)    DE(int)     intcor
     12.82     -13.72       2.75        0.00      55.27       2.89       0.11       0.79       ----

> <Gold.Chemscore.Fitness>
12.8164

> <Gold.Chemscore.DG>
-13.7203

> <Gold.Chemscore.ZeroCoef>
-5.4800

> <Gold.Chemscore.Hbond>
2.7498

> <Gold.Chemscore.Metal>
0.0000

> <Gold.Chemscore.Lipo>
55.2654

> <Gold.Chemscore.Internal_Hbond>
0.0000

> <Gold.Chemscore.DEClash>
0.1141

> <Gold.Chemscore.DEInternal>
0.7898

> <Gold.Chemscore.Rot>
2.8946

> <Gold.Chemscore.Internal.Correction>
   9.000000E+99

> <Gold.Chemscore.Hbonds>
donor molecule, donor type, donor heavy atom, donor atom, acceptor molecule, acceptor atom, score
      L1  H     9    30       P1  7948  0.97
      P1  H  6896  6908       L1    18  0.84
      P1  H 10752 10764       L1    17  0.89

> <Gold.Chemscore.Hbond.Weighted>
-9.1843

> <Gold.Chemscore.Metal.Weighted>
-0.0000

> <Gold.Chemscore.Lipo.Weighted>
-6.4660

> <Gold.Chemscore.Internal_Hbond.Weighted>
0.0000

> <Gold.Chemscore.DEClash.Weighted>
0.1141

> <Gold.Chemscore.DEInternal.Weighted>
0.7898

> <Gold.Chemscore.Rot.Weighted>
7.4101

> <Gold.Chemscore.Internal.Correction.Weighted>
   9.000000E+99

> <Gold.Protein.RotatedTorsions>
[ 6907 6896 6895 6894 ] final   91.38 input  -60.11 | X-H torsion
[ 7974 7965 7964 7962 ] final -127.14 input  175.53 | X-H torsion
[ 8008 7997 7996 7995 ] final   68.34 input   59.86 | X-H torsion
[ 10167 10162 10161 10158 ] final  141.18 input  -65.29 | X-H torsion
[ 10718 10713 10712 10709 ] final -141.23 input   66.30 | X-H torsion
[ 10763 10752 10751 10750 ] final  -24.02 input  -60.55 | X-H torsion
[ 11005 11000 10999 10996 ] final -119.81 input  -57.11 | X-H torsion

> <Gold.Protein.ActiveResidues>
 VAL166  LYS551  ARG553  GLY616  TRP617  ASP618  TYR619  PRO620  LYS621  CYS622 
 ASP623  PHE694  ASN695  SER759  ASP760  ASP761  ALA762  ILE779  LEU786  VAL792 
 PHE793  MET794  SER795  GLU796  ALA797  LYS798  CYS799  TRP800  GLU811  SER814 

> <Gold.Protein.RotatedAtoms>
  152.5449  134.1665  159.8578 H   0  0  0  0  0  0  0  0  0  0  0  0  # atno 6907 bound_to 6896
  151.1679  133.4796  159.2601 H   0  0  0  0  0  0  0  0  0  0  0  0  # atno 6908 bound_to 6896
  151.1305  135.0139  159.8635 H   0  0  0  0  0  0  0  0  0  0  0  0  # atno 6909 bound_to 6896
  144.9801  140.7632  143.4617 H   0  0  0  0  0  0  0  0  0  0  0  0  # atno 7974 bound_to 7965
  155.7069  140.3495  155.4957 H   0  0  0  0  0  0  0  0  0  0  0  0  # atno 8008 bound_to 7997
  155.9391  140.1098  157.1092 H   0  0  0  0  0  0  0  0  0  0  0  0  # atno 8009 bound_to 7997
  154.4099  140.1216  156.4889 H   0  0  0  0  0  0  0  0  0  0  0  0  # atno 8010 bound_to 7997
  139.5027  144.6187  151.6102 H   0  0  0  0  0  0  0  0  0  0  0  0  # atno 10167 bound_to 10162
  156.3316  130.7589  151.1708 H   0  0  0  0  0  0  0  0  0  0  0  0  # atno 10718 bound_to 10713
  153.6771  135.6969  153.5129 H   0  0  0  0  0  0  0  0  0  0  0  0  # atno 10763 bound_to 10752
  153.2513  135.4274  155.0800 H   0  0  0  0  0  0  0  0  0  0  0  0  # atno 10764 bound_to 10752
  154.8410  135.3532  154.6314 H   0  0  0  0  0  0  0  0  0  0  0  0  # atno 10765 bound_to 10752
  141.0189  134.0154  157.3311 H   0  0  0  0  0  0  0  0  0  0  0  0  # atno 11005 bound_to 11000
  145.2433  139.2063  143.4981 LP  0  0  0  0  0  0  0  0  0  0  0  0  # atno 17320 bound_to 7965
  146.3406  140.2332  142.8594 LP  0  0  0  0  0  0  0  0  0  0  0  0  # atno 17321 bound_to 7965
  140.5883  143.9825  150.6309 LP  0  0  0  0  0  0  0  0  0  0  0  0  # atno 17342 bound_to 10162
  140.2997  143.3269  152.0984 LP  0  0  0  0  0  0  0  0  0  0  0  0  # atno 17343 bound_to 10162
  157.7431  131.0480  150.4971 LP  0  0  0  0  0  0  0  0  0  0  0  0  # atno 17370 bound_to 10713
  156.5138  130.4145  149.6287 LP  0  0  0  0  0  0  0  0  0  0  0  0  # atno 17371 bound_to 10713
  139.9134  135.0193  156.7782 LP  0  0  0  0  0  0  0  0  0  0  0  0  # atno 17394 bound_to 11000
  140.6607  133.9647  155.7803 LP  0  0  0  0  0  0  0  0  0  0  0  0  # atno 17395 bound_to 11000

$$$$
