AV-unprocessed.smi:102|AV-procd|sdf|975|dock1
  -GOLD-   2262017533D 1   1.00000     0.00000
 Structure written by MMmdl.
 43 44  0  0  0  0  0  0  0  0  2 V2000
  152.5990  143.2811  161.6360 C   0  0  0  0  0  0  0  0  0  0  0  0
  152.8600  142.4520  160.3854 C   0  0  0  0  0  0  0  0  0  0  0  0
  153.8050  141.6656  160.3198 O   0  0  0  0  0  0  0  0  0  0  0  0
  151.9619  142.6886  159.4180 O   0  0  0  0  0  0  0  0  0  0  0  0
  152.0350  141.9607  158.2034 C   0  0  0  0  0  0  0  0  0  0  0  0
  150.8428  142.3326  157.3112 C   0  0  2  0  0  0  0  0  0  0  0  0
  149.6079  142.0331  157.9509 O   0  0  0  0  0  0  0  0  0  0  0  0
  148.6057  141.9112  156.9846 C   0  0  2  0  0  0  0  0  0  0  0  0
  147.7518  140.7064  157.3229 N   0  0  0  0  0  0  0  0  0  0  0  0
  148.3203  139.4483  157.4294 C   0  0  0  0  0  0  0  0  0  0  0  0
  147.5700  138.3628  157.7053 C   0  0  0  0  0  0  0  0  0  0  0  0
  148.1508  137.1542  157.7993 F   0  0  0  0  0  0  0  0  0  0  0  0
  146.1285  138.5102  157.8967 C   0  0  0  0  0  0  0  0  0  0  0  0
  145.4493  137.5174  158.1536 O   0  0  0  0  0  0  0  0  0  0  0  0
  145.5940  139.7603  157.7786 N   0  5  0  0  0  0  0  0  0  0  0  0
  146.3481  140.8611  157.4895 C   0  0  0  0  0  0  0  0  0  0  0  0
  145.8691  141.9867  157.3521 O   0  0  0  0  0  0  0  0  0  0  0  0
  149.2971  141.7847  155.6096 C   0  0  2  0  0  0  0  0  0  0  0  0
  148.7563  140.7452  154.7978 O   0  0  0  0  0  0  0  0  0  0  0  0
  147.6561  140.9618  154.0608 C   0  0  0  0  0  0  0  0  0  0  0  0
  147.2242  139.7206  153.2921 C   0  0  0  0  0  0  0  0  0  0  0  0
  147.0383  142.0229  153.9726 O   0  0  0  0  0  0  0  0  0  0  0  0
  150.7567  141.5584  155.9939 C   0  0  2  0  0  0  0  0  0  0  0  0
  151.0314  140.1803  156.2434 O   0  0  0  0  0  0  0  0  0  0  0  0
  151.1918  139.3109  155.2307 C   0  0  0  0  0  0  0  0  0  0  0  0
  151.9784  138.0747  155.6461 C   0  0  0  0  0  0  0  0  0  0  0  0
  150.7681  139.4450  154.0829 O   0  0  0  0  0  0  0  0  0  0  0  0
  151.5758  143.1335  161.9822 H   0  0  0  0  0  0  0  0  0  0  0  0
  152.7448  144.3404  161.4245 H   0  0  0  0  0  0  0  0  0  0  0  0
  153.2796  142.9914  162.4369 H   0  0  0  0  0  0  0  0  0  0  0  0
  152.9679  142.2147  157.6982 H   0  0  0  0  0  0  0  0  0  0  0  0
  152.0473  140.8872  158.3982 H   0  0  0  0  0  0  0  0  0  0  0  0
  150.8666  143.4002  157.0851 H   0  0  0  0  0  0  0  0  0  0  0  0
  147.9549  142.7838  157.0536 H   0  0  0  0  0  0  0  0  0  0  0  0
  149.3828  139.3216  157.2868 H   0  0  0  0  0  0  0  0  0  0  0  0
  149.1961  142.7552  155.1212 H   0  0  0  0  0  0  0  0  0  0  0  0
  147.0748  138.8854  153.9767 H   0  0  0  0  0  0  0  0  0  0  0  0
  147.9879  139.4420  152.5661 H   0  0  0  0  0  0  0  0  0  0  0  0
  146.2904  139.9038  152.7604 H   0  0  0  0  0  0  0  0  0  0  0  0
  151.4404  141.9742  155.2525 H   0  0  0  0  0  0  0  0  0  0  0  0
  152.0819  138.0258  156.7305 H   0  0  0  0  0  0  0  0  0  0  0  0
  152.9740  138.0960  155.2037 H   0  0  0  0  0  0  0  0  0  0  0  0
  151.4680  137.1724  155.3087 H   0  0  0  0  0  0  0  0  0  0  0  0
  1  2  1  0  0  0  0
  1 28  1  0  0  0  0
  1 29  1  0  0  0  0
  1 30  1  0  0  0  0
  2  3  2  0  0  0  0
  2  4  1  0  0  0  0
  4  5  1  0  0  0  0
  5  6  1  0  0  0  0
  5 31  1  0  0  0  0
  5 32  1  0  0  0  0
  6 23  1  0  0  0  0
  6  7  1  0  0  0  0
  6 33  1  0  0  0  0
  7  8  1  0  0  0  0
  8  9  1  0  0  0  0
  8 18  1  0  0  0  0
  8 34  1  0  0  0  0
  9 16  1  0  0  0  0
  9 10  1  0  0  0  0
 10 11  2  0  0  0  0
 10 35  1  0  0  0  0
 11 12  1  0  0  0  0
 11 13  1  0  0  0  0
 13 14  2  0  0  0  0
 13 15  1  0  0  0  0
 15 16  1  0  0  0  0
 16 17  2  0  0  0  0
 18 19  1  0  0  0  0
 18 23  1  0  0  0  0
 18 36  1  0  0  0  0
 19 20  1  0  0  0  0
 20 21  1  0  0  0  0
 20 22  2  0  0  0  0
 21 37  1  0  0  0  0
 21 38  1  0  0  0  0
 21 39  1  0  0  0  0
 23 24  1  0  0  0  0
 23 40  1  0  0  0  0
 24 25  1  0  0  0  0
 25 26  1  0  0  0  0
 25 27  2  0  0  0  0
 26 41  1  0  0  0  0
 26 42  1  0  0  0  0
 26 43  1  0  0  0  0
M  CHG  1  15  -1
M  END
> <s_m_source_file>
AV-unprocessed.smi

> <i_m_source_file_index>
102

> <i_lp_mmshare_version>
43012

> <i_f3d_flags>
0

> <s_epik_input>
W0NIM11DKD1PKU9bQ0gyXVtDQEBIXTFPW0NASF0oW0NAQEhdKE9DKD1PKVtDSDNdKVtDQEhdMU9DKD1PKVtDSDNdKW4yW2NIXWMoRiljKD1PKVtuSF1jMj1P

> <s_epik_cmdline>
J2VwaWtfcHl0aG9uJywgJy1waCcsICc3LjAnLCAnLXRuJywgJzgnLCAnLW1hJywgJzIwMCcsICctbWV0YWxfYmluZGluZycsICctaW1hZScsICc8aW5maWxlLm1hZT4nLCAnLW9tYWUnLCAnPG91dGZpbGUubWFlPic=

> <r_epik_Ionization_Penalty>
1.40304

> <r_epik_Ionization_Penalty_Charging>
1.43915e-08

> <r_epik_Ionization_Penalty_Neutral>
1.40304

> <r_epik_State_Penalty>
1.48536

> <r_epik_Charging_Adjusted_Penalty>
1.48536

> <i_epik_Tot_Q>
-1

> <i_epik_Tot_abs_Q>
1

> <r_epik_Metal_State_Penalty>
0.00663881

> <b_epik_Metal_Only>
0

> <s_epik_Chemistry_Notes>
This compound has an ester and may undergo hydrolysis at high or low pH. This compound contains an acetal/aminal-like group ( X-CH(R)-Y where X, Y are N, S, or O) that may be acid/base labile, releasing an aldehyde.

> <s_lp_Force_Field>
OPLS_2005

> <r_lp_Energy>
23.9264

> <b_lp_Chiralities_Consistent>
1

> <s_lp_Variant>
AV-unprocessed.smi:102-31

> <Gold.Version>
5.8.1

> <Gold.Id.Protein>
6NUR|6NUR_protein|mol2

> <Gold.PLP.Fitness>
34.9858

> <Gold.PLP.PLP>
-33.0928

> <Gold.PLP.part.hbond>
-1.0000

> <Gold.PLP.part.metal>
0.0000

> <Gold.PLP.part.buried>
-5.8290

> <Gold.PLP.part.nonpolar>
-27.0434

> <Gold.PLP.part.repulsive>
0.5862

> <Gold.PLP.ligand.clash>
0.0091

> <Gold.PLP.ligand.torsion>
0.6516

> <Gold.PLP.Chemscore.Hbond>
1.0000

> <Gold.PLP.Chemscore.CHOScore>
0.0000

> <Gold.PLP.Chemscore.Metal>
0.0000

> <Gold.Chemscore.Hbonds>
donor molecule, donor type, donor heavy atom, donor atom, acceptor molecule, acceptor atom, score
      P1  H  7989  7998       L1    27  1.00

> <Gold.PLP.Chemscore.Internal.Correction>
0.2053

> <Gold.Rescore>
     Score         DG    S(hbond)    S(metal)    S(lipo)     H(rot)  DE(clash)    DE(int)     intcor
      1.68      -5.46       1.00        0.00      58.83       4.00       0.06       3.72       ----

> <Gold.Chemscore.Fitness>
1.6805

> <Gold.Chemscore.DG>
-5.4599

> <Gold.Chemscore.ZeroCoef>
-5.4800

> <Gold.Chemscore.Hbond>
0.9954

> <Gold.Chemscore.Metal>
0.0000

> <Gold.Chemscore.Lipo>
58.8265

> <Gold.Chemscore.Internal_Hbond>
0.0000

> <Gold.Chemscore.DEClash>
0.0563

> <Gold.Chemscore.DEInternal>
3.7231

> <Gold.Chemscore.Rot>
3.9951

> <Gold.Chemscore.Internal.Correction>
   9.000000E+99

> <Gold.Chemscore.Hbonds>
donor molecule, donor type, donor heavy atom, donor atom, acceptor molecule, acceptor atom, score
      P1  H  7989  7998       L1    27  0.45

> <Gold.Chemscore.Hbond.Weighted>
-3.3246

> <Gold.Chemscore.Metal.Weighted>
-0.0000

> <Gold.Chemscore.Lipo.Weighted>
-6.8827

> <Gold.Chemscore.Internal_Hbond.Weighted>
0.0000

> <Gold.Chemscore.DEClash.Weighted>
0.0563

> <Gold.Chemscore.DEInternal.Weighted>
3.7231

> <Gold.Chemscore.Rot.Weighted>
10.2274

> <Gold.Chemscore.Internal.Correction.Weighted>
   9.000000E+99

> <Gold.Protein.RotatedTorsions>
[ 6907 6896 6895 6894 ] final  106.76 input  -60.11 | X-H torsion
[ 7974 7965 7964 7962 ] final  158.83 input  175.53 | X-H torsion
[ 8008 7997 7996 7995 ] final  -21.33 input   59.86 | X-H torsion
[ 10167 10162 10161 10158 ] final   25.40 input  -65.29 | X-H torsion
[ 10718 10713 10712 10709 ] final   63.06 input   66.30 | X-H torsion
[ 10763 10752 10751 10750 ] final  134.62 input  -60.55 | X-H torsion
[ 11005 11000 10999 10996 ] final -175.90 input  -57.11 | X-H torsion

> <Gold.Protein.ActiveResidues>
 VAL166  LYS551  ARG553  GLY616  TRP617  ASP618  TYR619  PRO620  LYS621  CYS622 
 ASP623  PHE694  ASN695  SER759  ASP760  ASP761  ALA762  ILE779  LEU786  VAL792 
 PHE793  MET794  SER795  GLU796  ALA797  LYS798  CYS799  TRP800  GLU811  SER814 

> <Gold.Protein.RotatedAtoms>
  152.5181  133.9333  159.7590 H   0  0  0  0  0  0  0  0  0  0  0  0  # atno 6907 bound_to 6896
  150.9679  133.6367  159.2750 H   0  0  0  0  0  0  0  0  0  0  0  0  # atno 6908 bound_to 6896
  151.3588  135.0905  159.9480 H   0  0  0  0  0  0  0  0  0  0  0  0  # atno 6909 bound_to 6896
  144.7824  139.7532  143.6254 H   0  0  0  0  0  0  0  0  0  0  0  0  # atno 7974 bound_to 7965
  154.4712  140.2037  155.9990 H   0  0  0  0  0  0  0  0  0  0  0  0  # atno 8008 bound_to 7997
  156.1014  140.3243  155.7917 H   0  0  0  0  0  0  0  0  0  0  0  0  # atno 8009 bound_to 7997
  155.4791  140.0537  157.2960 H   0  0  0  0  0  0  0  0  0  0  0  0  # atno 8010 bound_to 7997
  140.5109  144.0161  150.6372 H   0  0  0  0  0  0  0  0  0  0  0  0  # atno 10167 bound_to 10162
  157.5945  130.9085  149.9668 H   0  0  0  0  0  0  0  0  0  0  0  0  # atno 10718 bound_to 10713
  153.8266  135.3109  155.3415 H   0  0  0  0  0  0  0  0  0  0  0  0  # atno 10763 bound_to 10752
  154.7991  135.4738  154.0234 H   0  0  0  0  0  0  0  0  0  0  0  0  # atno 10764 bound_to 10752
  153.1660  135.6869  153.8765 H   0  0  0  0  0  0  0  0  0  0  0  0  # atno 10765 bound_to 10752
  140.4582  134.6280  157.4831 H   0  0  0  0  0  0  0  0  0  0  0  0  # atno 11005 bound_to 11000
  146.2039  139.5350  142.9725 LP  0  0  0  0  0  0  0  0  0  0  0  0  # atno 17320 bound_to 7965
  145.6014  141.0354  143.2016 LP  0  0  0  0  0  0  0  0  0  0  0  0  # atno 17321 bound_to 7965
  140.3484  143.2978  152.0514 LP  0  0  0  0  0  0  0  0  0  0  0  0  # atno 17342 bound_to 10162
  139.4896  144.6392  151.6912 LP  0  0  0  0  0  0  0  0  0  0  0  0  # atno 17343 bound_to 10162
  156.1005  130.3656  150.0227 LP  0  0  0  0  0  0  0  0  0  0  0  0  # atno 17370 bound_to 10713
  156.8343  130.9403  151.3635 LP  0  0  0  0  0  0  0  0  0  0  0  0  # atno 17371 bound_to 10713
  139.9963  134.6907  155.9605 LP  0  0  0  0  0  0  0  0  0  0  0  0  # atno 17394 bound_to 11000
  141.1633  133.6538  156.4394 LP  0  0  0  0  0  0  0  0  0  0  0  0  # atno 17395 bound_to 11000

$$$$
