AV-unprocessed.smi:450|AV-procd|sdf|2607|dock4
  -GOLD-   2262023 03D 1   1.00000     0.00000
 Structure written by MMmdl.
 32 32  0  0  0  0  0  0  0  0  1 V2000
  145.8574  130.9354  151.1667 C   0  0  0  0  0  0  0  0  0  0  0  0
  145.8063  132.3656  150.6099 C   0  0  0  0  0  0  0  0  0  0  0  0
  145.9473  133.4592  151.6865 C   0  0  2  0  0  0  0  0  0  0  0  0
  145.4146  134.8122  151.1947 C   0  0  0  0  0  0  0  0  0  0  0  0
  147.3460  133.6093  152.0851 N   0  0  0  0  0  0  0  0  0  0  0  0
  148.0707  132.7153  152.7755 C   0  0  0  0  0  0  0  0  0  0  0  0
  147.6237  131.6362  153.1675 O   0  0  0  0  0  0  0  0  0  0  0  0
  149.5246  133.1169  153.0522 C   0  0  0  0  0  0  0  0  0  0  0  0
  150.1197  132.3656  154.1566 N   0  0  0  0  0  0  0  0  0  0  0  0
  150.3022  131.0332  154.2546 C   0  0  0  0  0  0  0  0  0  0  0  0
  149.9112  130.1810  153.2323 N   0  0  0  0  0  0  0  0  0  0  0  0
  150.8687  130.6377  155.3913 N   0  0  0  0  0  0  0  0  0  0  0  0
  151.0743  131.8078  156.1197 C   0  0  0  0  0  0  0  0  0  0  0  0
  151.6650  131.7941  157.4153 C   0  0  0  0  0  0  0  0  0  0  0  0
  152.1457  131.7801  158.4675 N   0  0  0  0  0  0  0  0  0  0  0  0
  150.6122  132.8620  155.3614 C   0  0  0  0  0  0  0  0  0  0  0  0
  150.6203  134.2246  155.7276 C   0  0  0  0  0  0  0  0  0  0  0  0
  150.6283  135.3417  156.0277 N   0  0  0  0  0  0  0  0  0  0  0  0
  145.6918  130.2061  150.3736 H   0  0  0  0  0  0  0  0  0  0  0  0
  145.0896  130.7810  151.9252 H   0  0  0  0  0  0  0  0  0  0  0  0
  146.8246  130.7141  151.6183 H   0  0  0  0  0  0  0  0  0  0  0  0
  146.5847  132.4859  149.8554 H   0  0  0  0  0  0  0  0  0  0  0  0
  144.8576  132.4998  150.0891 H   0  0  0  0  0  0  0  0  0  0  0  0
  145.3398  133.1645  152.5438 H   0  0  0  0  0  0  0  0  0  0  0  0
  144.3639  134.7407  150.9122 H   0  0  0  0  0  0  0  0  0  0  0  0
  145.9694  135.1667  150.3254 H   0  0  0  0  0  0  0  0  0  0  0  0
  145.4939  135.5719  151.9732 H   0  0  0  0  0  0  0  0  0  0  0  0
  147.8019  134.4662  151.8067 H   0  0  0  0  0  0  0  0  0  0  0  0
  150.1213  132.9655  152.1520 H   0  0  0  0  0  0  0  0  0  0  0  0
  149.5706  134.1832  153.2757 H   0  0  0  0  0  0  0  0  0  0  0  0
  149.4810  130.5357  152.3903 H   0  0  0  0  0  0  0  0  0  0  0  0
  150.0827  129.1871  153.2762 H   0  0  0  0  0  0  0  0  0  0  0  0
  1  2  1  0  0  0  0
  1 19  1  0  0  0  0
  1 20  1  0  0  0  0
  1 21  1  0  0  0  0
  2  3  1  0  0  0  0
  2 22  1  0  0  0  0
  2 23  1  0  0  0  0
  3  4  1  0  0  0  0
  3  5  1  0  0  0  0
  3 24  1  0  0  0  0
  4 25  1  0  0  0  0
  4 26  1  0  0  0  0
  4 27  1  0  0  0  0
  5  6  1  0  0  0  0
  5 28  1  0  0  0  0
  6  7  2  0  0  0  0
  6  8  1  0  0  0  0
  8  9  1  0  0  0  0
  8 29  1  0  0  0  0
  8 30  1  0  0  0  0
  9 16  1  0  0  0  0
  9 10  1  0  0  0  0
 10 11  1  0  0  0  0
 10 12  2  0  0  0  0
 11 31  1  0  0  0  0
 11 32  1  0  0  0  0
 12 13  1  0  0  0  0
 13 14  1  0  0  0  0
 13 16  2  0  0  0  0
 14 15  3  0  0  0  0
 16 17  1  0  0  0  0
 17 18  3  0  0  0  0
M  END
> <s_m_source_file>
AV-unprocessed.smi

> <i_m_source_file_index>
450

> <i_lp_mmshare_version>
43012

> <i_f3d_flags>
0

> <s_epik_input>
W0NIM11bQ0gyXVtDQEhdKFtDSDNdKVtOSF1DKD1PKVtDSDJdbjFjKFtOSDJdKW5jKEMjTiljMUMjTg==

> <s_epik_cmdline>
J2VwaWtfcHl0aG9uJywgJy1waCcsICc3LjAnLCAnLXRuJywgJzgnLCAnLW1hJywgJzIwMCcsICctbWV0YWxfYmluZGluZycsICctaW1hZScsICc8aW5maWxlLm1hZT4nLCAnLW9tYWUnLCAnPG91dGZpbGUubWFlPic=

> <r_epik_Ionization_Penalty>
0.000482749

> <r_epik_Ionization_Penalty_Charging>
7.71074e-10

> <r_epik_Ionization_Penalty_Neutral>
0.000482748

> <r_epik_State_Penalty>
0.000433536

> <r_epik_Charging_Adjusted_Penalty>
0.000433537

> <i_epik_Tot_Q>
0

> <i_epik_Tot_abs_Q>
0

> <r_epik_Metal_State_Penalty>
-0

> <b_epik_Metal_Only>
0

> <s_lp_Force_Field>
OPLS_2005

> <r_lp_Energy>
6.35239

> <b_lp_Chiralities_Consistent>
1

> <s_lp_Variant>
AV-unprocessed.smi:450-1

> <Gold.Version>
5.8.1

> <Gold.Id.Protein>
6NUR|6NUR_protein|mol2

> <Gold.PLP.Fitness>
36.7870

> <Gold.PLP.PLP>
-29.7670

> <Gold.PLP.part.hbond>
-3.0000

> <Gold.PLP.part.metal>
0.0000

> <Gold.PLP.part.buried>
-3.8886

> <Gold.PLP.part.nonpolar>
-22.7735

> <Gold.PLP.part.repulsive>
0.2760

> <Gold.PLP.ligand.clash>
0.0000

> <Gold.PLP.ligand.torsion>
0.5569

> <Gold.PLP.Chemscore.Hbond>
2.7020

> <Gold.PLP.Chemscore.CHOScore>
0.0000

> <Gold.PLP.Chemscore.Metal>
0.0000

> <Gold.Chemscore.Hbonds>
donor molecule, donor type, donor heavy atom, donor atom, acceptor molecule, acceptor atom, score
      L1  H     5    28       P1  7948  0.86
      L1  H    11    31       P1 10747  0.29
      P1  H  6896  6907       L1    15  1.00

> <Gold.PLP.Chemscore.Internal.Correction>
0.0277

> <Gold.Rescore>
     Score         DG    S(hbond)    S(metal)    S(lipo)     H(rot)  DE(clash)    DE(int)     intcor
      9.88     -12.33       2.15        0.00      45.49       2.21       0.54       1.90       ----

> <Gold.Chemscore.Fitness>
9.8825

> <Gold.Chemscore.DG>
-12.3316

> <Gold.Chemscore.ZeroCoef>
-5.4800

> <Gold.Chemscore.Hbond>
2.1532

> <Gold.Chemscore.Metal>
0.0000

> <Gold.Chemscore.Lipo>
45.4934

> <Gold.Chemscore.Internal_Hbond>
0.0000

> <Gold.Chemscore.DEClash>
0.5445

> <Gold.Chemscore.DEInternal>
1.9045

> <Gold.Chemscore.Rot>
2.2121

> <Gold.Chemscore.Internal.Correction>
   9.000000E+99

> <Gold.Chemscore.Hbonds>
donor molecule, donor type, donor heavy atom, donor atom, acceptor molecule, acceptor atom, score
      L1  H     5    28       P1  7948  0.16
      L1  H    11    31       P1 10747  0.01
      P1  H  6896  6907       L1    15  0.70

> <Gold.Chemscore.Hbond.Weighted>
-7.1917

> <Gold.Chemscore.Metal.Weighted>
-0.0000

> <Gold.Chemscore.Lipo.Weighted>
-5.3227

> <Gold.Chemscore.Internal_Hbond.Weighted>
0.0000

> <Gold.Chemscore.DEClash.Weighted>
0.5445

> <Gold.Chemscore.DEInternal.Weighted>
1.9045

> <Gold.Chemscore.Rot.Weighted>
5.6629

> <Gold.Chemscore.Internal.Correction.Weighted>
   9.000000E+99

> <Gold.Protein.RotatedTorsions>
[ 6907 6896 6895 6894 ] final  175.91 input  -60.11 | X-H torsion
[ 7974 7965 7964 7962 ] final -158.77 input  175.53 | X-H torsion
[ 8008 7997 7996 7995 ] final  -39.83 input   59.86 | X-H torsion
[ 10167 10162 10161 10158 ] final -105.91 input  -65.29 | X-H torsion
[ 10718 10713 10712 10709 ] final  161.89 input   66.30 | X-H torsion
[ 10763 10752 10751 10750 ] final  178.37 input  -60.55 | X-H torsion
[ 11005 11000 10999 10996 ] final -127.38 input  -57.11 | X-H torsion

> <Gold.Protein.ActiveResidues>
 VAL166  LYS551  ARG553  GLY616  TRP617  ASP618  TYR619  PRO620  LYS621  CYS622 
 ASP623  PHE694  ASN695  SER759  ASP760  ASP761  ALA762  ILE779  LEU786  VAL792 
 PHE793  MET794  SER795  GLU796  ALA797  LYS798  CYS799  TRP800  GLU811  SER814 

> <Gold.Protein.RotatedAtoms>
  151.7286  133.3317  159.3334 H   0  0  0  0  0  0  0  0  0  0  0  0  # atno 6907 bound_to 6896
  150.7622  134.6383  159.6233 H   0  0  0  0  0  0  0  0  0  0  0  0  # atno 6908 bound_to 6896
  152.3606  134.6880  160.0260 H   0  0  0  0  0  0  0  0  0  0  0  0  # atno 6909 bound_to 6896
  144.7492  140.3779  143.6061 H   0  0  0  0  0  0  0  0  0  0  0  0  # atno 7974 bound_to 7965
  154.4018  140.1541  156.2927 H   0  0  0  0  0  0  0  0  0  0  0  0  # atno 8008 bound_to 7997
  155.8771  140.3446  155.5840 H   0  0  0  0  0  0  0  0  0  0  0  0  # atno 8009 bound_to 7997
  155.7709  140.0830  157.2099 H   0  0  0  0  0  0  0  0  0  0  0  0  # atno 8010 bound_to 7997
  140.1934  143.3874  152.1188 H   0  0  0  0  0  0  0  0  0  0  0  0  # atno 10167 bound_to 10162
  157.1302  131.0514  151.2375 H   0  0  0  0  0  0  0  0  0  0  0  0  # atno 10718 bound_to 10713
  154.5067  135.2786  155.1376 H   0  0  0  0  0  0  0  0  0  0  0  0  # atno 10763 bound_to 10752
  154.2987  135.6252  153.5419 H   0  0  0  0  0  0  0  0  0  0  0  0  # atno 10764 bound_to 10752
  152.9911  135.5691  154.5523 H   0  0  0  0  0  0  0  0  0  0  0  0  # atno 10765 bound_to 10752
  140.9604  134.0944  157.3974 H   0  0  0  0  0  0  0  0  0  0  0  0  # atno 11005 bound_to 11000
  145.7008  139.1661  143.2594 LP  0  0  0  0  0  0  0  0  0  0  0  0  # atno 17320 bound_to 7965
  146.1417  140.7049  142.9364 LP  0  0  0  0  0  0  0  0  0  0  0  0  # atno 17321 bound_to 7965
  139.5246  144.7086  151.5277 LP  0  0  0  0  0  0  0  0  0  0  0  0  # atno 17342 bound_to 10162
  140.6440  143.8832  150.6719 LP  0  0  0  0  0  0  0  0  0  0  0  0  # atno 17343 bound_to 10162
  157.4399  130.7538  149.7061 LP  0  0  0  0  0  0  0  0  0  0  0  0  # atno 17370 bound_to 10713
  155.9809  130.4024  150.3499 LP  0  0  0  0  0  0  0  0  0  0  0  0  # atno 17371 bound_to 10713
  139.8876  135.0091  156.6571 LP  0  0  0  0  0  0  0  0  0  0  0  0  # atno 17394 bound_to 11000
  140.7476  133.8925  155.8323 LP  0  0  0  0  0  0  0  0  0  0  0  0  # atno 17395 bound_to 11000

$$$$
