AV-unprocessed.smi:138|AV-procd|sdf|1180|dock5
  -GOLD-   2262018333D 1   1.00000     0.00000
 Structure written by MMmdl.
 52 55  0  0  0  0  0  0  0  0  1 V2000
  145.7089  139.0980  156.9855 C   0  0  0  0  0  0  0  0  0  0  0  0
  146.8493  138.4697  157.7209 C   0  0  0  0  0  0  0  0  0  0  0  0
  148.1826  138.7478  157.6587 C   0  0  0  0  0  0  0  0  0  0  0  0
  148.8695  137.8776  158.5502 C   0  0  0  0  0  0  0  0  0  0  0  0
  150.3300  137.7907  158.8059 C   0  0  0  0  0  0  0  0  0  0  0  0
  150.8212  137.0748  159.6797 O   0  0  0  0  0  0  0  0  0  0  0  0
  151.2211  138.6542  157.8933 C   0  0  0  0  0  0  0  0  0  0  0  0
  151.8564  139.7621  158.5971 N   0  0  0  0  0  0  0  0  0  0  0  0
  152.8379  139.4515  159.5712 C   0  0  0  0  0  0  0  0  0  0  0  0
  153.1643  138.2911  159.8271 O   0  0  0  0  0  0  0  0  0  0  0  0
  153.4067  140.6115  160.2474 C   0  0  0  0  0  0  0  0  0  0  0  0
  154.3400  140.4356  161.1983 F   0  0  0  0  0  0  0  0  0  0  0  0
  153.0082  141.8640  159.9374 C   0  0  0  0  0  0  0  0  0  0  0  0
  152.0583  142.1420  158.9711 N   0  0  0  0  0  0  0  0  0  0  0  0
  151.6505  143.5813  158.7411 C   0  0  1  0  0  0  0  0  0  0  0  0
  150.1952  143.8831  159.1291 C   0  0  0  0  0  0  0  0  0  0  0  0
  150.3180  145.2996  159.6475 C   0  0  0  0  0  0  0  0  0  0  0  0
  151.6912  145.2773  160.3100 C   0  0  0  0  0  0  0  0  0  0  0  0
  152.4819  144.4203  159.4901 O   0  0  0  0  0  0  0  0  0  0  0  0
  151.4260  141.0758  158.2886 C   0  0  0  0  0  0  0  0  0  0  0  0
  150.5290  141.2824  157.4694 O   0  0  0  0  0  0  0  0  0  0  0  0
  147.9236  137.0850  159.1605 C   0  0  0  0  0  0  0  0  0  0  0  0
  148.0675  136.0088  160.2016 C   0  0  0  0  0  0  0  0  0  0  0  0
  146.6784  137.4353  158.6330 N   0  0  0  0  0  0  0  0  0  0  0  0
  145.3915  136.8380  158.9764 C   0  0  0  0  0  0  0  0  0  0  0  0
  145.0355  137.0300  160.4153 C   0  0  0  0  0  0  0  0  0  0  0  0
  143.9191  136.7438  161.1517 C   0  0  0  0  0  0  0  0  0  0  0  0
  144.1916  137.1752  162.4793 C   0  0  0  0  0  0  0  0  0  0  0  0
  145.4554  137.6920  162.4551 C   0  0  0  0  0  0  0  0  0  0  0  0
  145.9845  137.6099  161.2042 O   0  0  0  0  0  0  0  0  0  0  0  0
  146.0523  139.9428  156.3880 H   0  0  0  0  0  0  0  0  0  0  0  0
  144.9519  139.4676  157.6770 H   0  0  0  0  0  0  0  0  0  0  0  0
  145.2376  138.3837  156.3099 H   0  0  0  0  0  0  0  0  0  0  0  0
  148.6216  139.5039  157.0245 H   0  0  0  0  0  0  0  0  0  0  0  0
  152.0042  138.0523  157.4302 H   0  0  0  0  0  0  0  0  0  0  0  0
  150.6468  139.0678  157.0626 H   0  0  0  0  0  0  0  0  0  0  0  0
  153.4617  142.6837  160.4754 H   0  0  0  0  0  0  0  0  0  0  0  0
  151.8352  143.7823  157.6851 H   0  0  0  0  0  0  0  0  0  0  0  0
  149.5338  143.7898  158.2675 H   0  0  0  0  0  0  0  0  0  0  0  0
  149.8413  143.2166  159.9146 H   0  0  0  0  0  0  0  0  0  0  0  0
  150.3160  146.0040  158.8146 H   0  0  0  0  0  0  0  0  0  0  0  0
  149.5172  145.5769  160.3333 H   0  0  0  0  0  0  0  0  0  0  0  0
  152.1335  146.2704  160.3888 H   0  0  0  0  0  0  0  0  0  0  0  0
  151.6245  144.8593  161.3146 H   0  0  0  0  0  0  0  0  0  0  0  0
  148.8227  136.2750  160.9404 H   0  0  0  0  0  0  0  0  0  0  0  0
  148.3623  135.0654  159.7419 H   0  0  0  0  0  0  0  0  0  0  0  0
  147.1507  135.8388  160.7626 H   0  0  0  0  0  0  0  0  0  0  0  0
  144.6196  137.2773  158.3442 H   0  0  0  0  0  0  0  0  0  0  0  0
  145.3942  135.7789  158.7219 H   0  0  0  0  0  0  0  0  0  0  0  0
  143.0161  136.2830  160.7792 H   0  0  0  0  0  0  0  0  0  0  0  0
  143.5449  137.1158  163.3423 H   0  0  0  0  0  0  0  0  0  0  0  0
  146.0985  138.1375  163.1995 H   0  0  0  0  0  0  0  0  0  0  0  0
  1  2  1  0  0  0  0
  1 31  1  0  0  0  0
  1 32  1  0  0  0  0
  1 33  1  0  0  0  0
  2 24  1  0  0  0  0
  2  3  2  0  0  0  0
  3  4  1  0  0  0  0
  3 34  1  0  0  0  0
  4  5  1  0  0  0  0
  4 22  2  0  0  0  0
  5  6  2  0  0  0  0
  5  7  1  0  0  0  0
  7  8  1  0  0  0  0
  7 35  1  0  0  0  0
  7 36  1  0  0  0  0
  8 20  1  0  0  0  0
  8  9  1  0  0  0  0
  9 10  2  0  0  0  0
  9 11  1  0  0  0  0
 11 12  1  0  0  0  0
 11 13  2  0  0  0  0
 13 14  1  0  0  0  0
 13 37  1  0  0  0  0
 14 15  1  0  0  0  0
 14 20  1  0  0  0  0
 15 19  1  0  0  0  0
 15 16  1  0  0  0  0
 15 38  1  0  0  0  0
 16 17  1  0  0  0  0
 16 39  1  0  0  0  0
 16 40  1  0  0  0  0
 17 18  1  0  0  0  0
 17 41  1  0  0  0  0
 17 42  1  0  0  0  0
 18 19  1  0  0  0  0
 18 43  1  0  0  0  0
 18 44  1  0  0  0  0
 20 21  2  0  0  0  0
 22 23  1  0  0  0  0
 22 24  1  0  0  0  0
 23 45  1  0  0  0  0
 23 46  1  0  0  0  0
 23 47  1  0  0  0  0
 24 25  1  0  0  0  0
 25 26  1  0  0  0  0
 25 48  1  0  0  0  0
 25 49  1  0  0  0  0
 26 30  1  0  0  0  0
 26 27  2  0  0  0  0
 27 28  1  0  0  0  0
 27 50  1  0  0  0  0
 28 29  2  0  0  0  0
 28 51  1  0  0  0  0
 29 30  1  0  0  0  0
 29 52  1  0  0  0  0
M  END
> <s_m_source_file>
AV-unprocessed.smi

> <i_m_source_file_index>
138

> <i_lp_mmshare_version>
43012

> <i_f3d_flags>
0

> <s_epik_input>
bzFbY0hdW2NIXVtjSF1jMVtDSDJdbjJjKFtDSDNdKWMoW2NIXWMyW0NIM10pQyg9TylbQ0gyXW4zYyg9TyljKEYpW2NIXW4oYzM9TylbQ0BASF00W0NIMl1bQ0gyXVtDSDJdTzQ=

> <s_epik_cmdline>
J2VwaWtfcHl0aG9uJywgJy1waCcsICc3LjAnLCAnLXRuJywgJzgnLCAnLW1hJywgJzIwMCcsICctbWV0YWxfYmluZGluZycsICctaW1hZScsICc8aW5maWxlLm1hZT4nLCAnLW9tYWUnLCAnPG91dGZpbGUubWFlPic=

> <r_lp_tautomer_probability>
1

> <r_epik_Ionization_Penalty>
5.03107e-09

> <r_epik_Ionization_Penalty_Charging>
5.01743e-09

> <r_epik_Ionization_Penalty_Neutral>
1.36377e-11

> <r_epik_State_Penalty>
-0

> <r_epik_Charging_Adjusted_Penalty>
5.01743e-09

> <i_epik_Tot_Q>
0

> <i_epik_Tot_abs_Q>
0

> <r_epik_Metal_State_Penalty>
-0

> <b_epik_Metal_Only>
0

> <s_epik_Chemistry_Notes>
This compound contains an acetal/aminal-like group ( X-CH(R)-Y where X, Y are N, S, or O) that may be acid/base labile, releasing an aldehyde.

> <s_lp_Force_Field>
OPLS_2005

> <r_lp_Energy>
34.2081

> <b_lp_Chiralities_Consistent>
1

> <s_lp_Variant>
AV-unprocessed.smi:138-2

> <Gold.Version>
5.8.1

> <Gold.Id.Protein>
6NUR|6NUR_protein|mol2

> <Gold.PLP.Fitness>
54.8075

> <Gold.PLP.PLP>
-49.1212

> <Gold.PLP.part.hbond>
-2.0000

> <Gold.PLP.part.metal>
0.0000

> <Gold.PLP.part.buried>
-7.7805

> <Gold.PLP.part.nonpolar>
-39.3973

> <Gold.PLP.part.repulsive>
0.0305

> <Gold.PLP.ligand.clash>
0.0000

> <Gold.PLP.ligand.torsion>
0.2575

> <Gold.PLP.Chemscore.Hbond>
2.0000

> <Gold.PLP.Chemscore.CHOScore>
0.0000

> <Gold.PLP.Chemscore.Metal>
0.0000

> <Gold.Chemscore.Hbonds>
donor molecule, donor type, donor heavy atom, donor atom, acceptor molecule, acceptor atom, score
      P1  H  6896  6907       L1     6  0.98
      P1  H  6934  6947       L1    30  1.00

> <Gold.PLP.Chemscore.Internal.Correction>
0.2012

> <Gold.Rescore>
     Score         DG    S(hbond)    S(metal)    S(lipo)     H(rot)  DE(clash)    DE(int)     intcor
     12.74     -16.65       1.90        0.00      84.75       2.00       0.03       3.88       ----

> <Gold.Chemscore.Fitness>
12.7409

> <Gold.Chemscore.DG>
-16.6455

> <Gold.Chemscore.ZeroCoef>
-5.4800

> <Gold.Chemscore.Hbond>
1.9039

> <Gold.Chemscore.Metal>
0.0000

> <Gold.Chemscore.Lipo>
84.7488

> <Gold.Chemscore.Internal_Hbond>
0.0000

> <Gold.Chemscore.DEClash>
0.0294

> <Gold.Chemscore.DEInternal>
3.8752

> <Gold.Chemscore.Rot>
1.9958

> <Gold.Chemscore.Internal.Correction>
   9.000000E+99

> <Gold.Chemscore.Hbonds>
donor molecule, donor type, donor heavy atom, donor atom, acceptor molecule, acceptor atom, score
      P1  H  6896  6907       L1     6  0.91
      P1  H  6934  6947       L1    30  0.69

> <Gold.Chemscore.Hbond.Weighted>
-6.3591

> <Gold.Chemscore.Metal.Weighted>
-0.0000

> <Gold.Chemscore.Lipo.Weighted>
-9.9156

> <Gold.Chemscore.Internal_Hbond.Weighted>
0.0000

> <Gold.Chemscore.DEClash.Weighted>
0.0294

> <Gold.Chemscore.DEInternal.Weighted>
3.8752

> <Gold.Chemscore.Rot.Weighted>
5.1092

> <Gold.Chemscore.Internal.Correction.Weighted>
   9.000000E+99

> <Gold.Protein.RotatedTorsions>
[ 6907 6896 6895 6894 ] final   -2.80 input  -60.11 | X-H torsion
[ 7974 7965 7964 7962 ] final  -94.82 input  175.53 | X-H torsion
[ 8008 7997 7996 7995 ] final   41.78 input   59.86 | X-H torsion
[ 10167 10162 10161 10158 ] final  -15.38 input  -65.29 | X-H torsion
[ 10718 10713 10712 10709 ] final  -59.39 input   66.30 | X-H torsion
[ 10763 10752 10751 10750 ] final -142.54 input  -60.55 | X-H torsion
[ 11005 11000 10999 10996 ] final   16.89 input  -57.11 | X-H torsion

> <Gold.Protein.ActiveResidues>
 VAL166  LYS551  ARG553  GLY616  TRP617  ASP618  TYR619  PRO620  LYS621  CYS622 
 ASP623  PHE694  ASN695  SER759  ASP760  ASP761  ALA762  ILE779  LEU786  VAL792 
 PHE793  MET794  SER795  GLU796  ALA797  LYS798  CYS799  TRP800  GLU811  SER814 

> <Gold.Protein.RotatedAtoms>
  151.5240  135.1067  159.9885 H   0  0  0  0  0  0  0  0  0  0  0  0  # atno 6907 bound_to 6896
  152.4608  133.7814  159.6863 H   0  0  0  0  0  0  0  0  0  0  0  0  # atno 6908 bound_to 6896
  150.8569  133.7637  159.3031 H   0  0  0  0  0  0  0  0  0  0  0  0  # atno 6909 bound_to 6896
  145.3682  140.9501  143.2462 H   0  0  0  0  0  0  0  0  0  0  0  0  # atno 7974 bound_to 7965
  155.2753  140.3369  155.4262 H   0  0  0  0  0  0  0  0  0  0  0  0  # atno 8008 bound_to 7997
  156.2114  140.1771  156.7728 H   0  0  0  0  0  0  0  0  0  0  0  0  # atno 8009 bound_to 7997
  154.5692  140.0673  156.8922 H   0  0  0  0  0  0  0  0  0  0  0  0  # atno 8010 bound_to 7997
  140.7217  143.5224  150.9618 H   0  0  0  0  0  0  0  0  0  0  0  0  # atno 10167 bound_to 10162
  156.1065  130.4180  150.0709 H   0  0  0  0  0  0  0  0  0  0  0  0  # atno 10718 bound_to 10713
  154.8505  135.3493  154.6044 H   0  0  0  0  0  0  0  0  0  0  0  0  # atno 10763 bound_to 10752
  153.6652  135.6987  153.5169 H   0  0  0  0  0  0  0  0  0  0  0  0  # atno 10764 bound_to 10752
  153.2786  135.4270  155.1014 H   0  0  0  0  0  0  0  0  0  0  0  0  # atno 10765 bound_to 10752
  140.4421  134.1311  155.7691 H   0  0  0  0  0  0  0  0  0  0  0  0  # atno 11005 bound_to 11000
  144.8596  139.5197  143.6818 LP  0  0  0  0  0  0  0  0  0  0  0  0  # atno 17320 bound_to 7965
  146.2897  139.7105  142.9170 LP  0  0  0  0  0  0  0  0  0  0  0  0  # atno 17321 bound_to 7965
  139.8941  143.6916  152.3141 LP  0  0  0  0  0  0  0  0  0  0  0  0  # atno 17342 bound_to 10162
  139.7242  144.7596  151.0905 LP  0  0  0  0  0  0  0  0  0  0  0  0  # atno 17343 bound_to 10162
  156.8683  130.9515  151.3611 LP  0  0  0  0  0  0  0  0  0  0  0  0  # atno 17370 bound_to 10713
  157.6242  130.8679  149.9161 LP  0  0  0  0  0  0  0  0  0  0  0  0  # atno 17371 bound_to 10713
  141.1701  133.8626  157.1597 LP  0  0  0  0  0  0  0  0  0  0  0  0  # atno 17394 bound_to 11000
  140.0063  135.0007  157.0299 LP  0  0  0  0  0  0  0  0  0  0  0  0  # atno 17395 bound_to 11000

$$$$
