AV-unprocessed.smi:909|AV-procd|sdf|4115|dock9
  -GOLD-   22720 2 13D 1   1.00000     0.00000
 Structure written by MMmdl.
 39 40  0  0  0  0  0  0  0  0  2 V2000
  147.4252  136.2402  160.7758 C   0  0  0  0  0  0  0  0  0  0  0  0
  148.2379  135.7711  159.6036 C   0  0  0  0  0  0  0  0  0  0  0  0
  148.2668  134.4832  159.3044 N   0  0  0  0  0  0  0  0  0  0  0  0
  149.0868  134.3704  158.1777 O   0  0  0  0  0  0  0  0  0  0  0  0
  149.5285  135.6093  157.8417 C   0  0  0  0  0  0  0  0  0  0  0  0
  150.4163  135.7029  156.6469 C   0  0  0  0  0  0  0  0  0  0  0  0
  149.0338  136.5436  158.7101 C   0  0  0  0  0  0  0  0  0  0  0  0
  149.2591  138.0339  158.7217 C   0  0  0  0  0  0  0  0  0  0  0  0
  149.0954  138.5861  157.3065 C   0  0  0  0  0  0  0  0  0  0  0  0
  147.9684  138.8457  156.8894 O   0  0  0  0  0  0  0  0  0  0  0  0
  150.2374  138.7233  156.6074 N   0  0  0  0  0  0  0  0  0  0  0  0
  150.5210  139.1986  155.2428 C   0  0  0  0  0  0  0  0  0  0  0  0
  151.9639  138.7186  154.9465 C   0  0  0  0  0  0  0  0  0  0  0  0
  152.1706  137.4864  154.8751 O   0  0  0  0  0  0  0  0  0  0  0  0
  152.8587  139.5880  154.8396 O   0  5  0  0  0  0  0  0  0  0  0  0
  149.5533  138.7011  154.1183 C   0  0  0  0  0  0  0  0  0  0  0  0
  148.1527  139.3455  154.1570 C   0  0  0  0  0  0  0  0  0  0  0  0
  148.2356  140.8752  154.1677 C   0  0  0  0  0  0  0  0  0  0  0  0
  149.0988  141.3572  155.3382 C   0  0  0  0  0  0  0  0  0  0  0  0
  150.5120  140.7550  155.2696 C   0  0  0  0  0  0  0  0  0  0  0  0
  148.0381  136.3009  161.6749 H   0  0  0  0  0  0  0  0  0  0  0  0
  146.5941  135.5652  160.9827 H   0  0  0  0  0  0  0  0  0  0  0  0
  147.0048  137.2291  160.5917 H   0  0  0  0  0  0  0  0  0  0  0  0
  149.8566  136.0526  155.7794 H   0  0  0  0  0  0  0  0  0  0  0  0
  150.8480  134.7323  156.4010 H   0  0  0  0  0  0  0  0  0  0  0  0
  151.2346  136.4007  156.8248 H   0  0  0  0  0  0  0  0  0  0  0  0
  148.5541  138.5378  159.3840 H   0  0  0  0  0  0  0  0  0  0  0  0
  150.2530  138.2848  159.0946 H   0  0  0  0  0  0  0  0  0  0  0  0
  151.0669  138.4314  157.1027 H   0  0  0  0  0  0  0  0  0  0  0  0
  149.9903  138.9461  153.1487 H   0  0  0  0  0  0  0  0  0  0  0  0
  149.4641  137.6146  154.1155 H   0  0  0  0  0  0  0  0  0  0  0  0
  147.5738  139.0143  153.2945 H   0  0  0  0  0  0  0  0  0  0  0  0
  147.6018  139.0133  155.0356 H   0  0  0  0  0  0  0  0  0  0  0  0
  148.6581  141.2293  153.2267 H   0  0  0  0  0  0  0  0  0  0  0  0
  147.2352  141.3021  154.2405 H   0  0  0  0  0  0  0  0  0  0  0  0
  149.1612  142.4456  155.3261 H   0  0  0  0  0  0  0  0  0  0  0  0
  148.6255  141.0857  156.2826 H   0  0  0  0  0  0  0  0  0  0  0  0
  151.0933  141.1301  156.1138 H   0  0  0  0  0  0  0  0  0  0  0  0
  151.0030  141.1410  154.3743 H   0  0  0  0  0  0  0  0  0  0  0  0
  1  2  1  0  0  0  0
  1 21  1  0  0  0  0
  1 22  1  0  0  0  0
  1 23  1  0  0  0  0
  2  7  1  0  0  0  0
  2  3  2  0  0  0  0
  3  4  1  0  0  0  0
  4  5  1  0  0  0  0
  5  6  1  0  0  0  0
  5  7  2  0  0  0  0
  6 24  1  0  0  0  0
  6 25  1  0  0  0  0
  6 26  1  0  0  0  0
  7  8  1  0  0  0  0
  8  9  1  0  0  0  0
  8 27  1  0  0  0  0
  8 28  1  0  0  0  0
  9 10  2  0  0  0  0
  9 11  1  0  0  0  0
 11 12  1  0  0  0  0
 11 29  1  0  0  0  0
 12 20  1  0  0  0  0
 12 13  1  0  0  0  0
 12 16  1  0  0  0  0
 13 14  2  0  0  0  0
 13 15  1  0  0  0  0
 16 17  1  0  0  0  0
 16 30  1  0  0  0  0
 16 31  1  0  0  0  0
 17 18  1  0  0  0  0
 17 32  1  0  0  0  0
 17 33  1  0  0  0  0
 18 19  1  0  0  0  0
 18 34  1  0  0  0  0
 18 35  1  0  0  0  0
 19 20  1  0  0  0  0
 19 36  1  0  0  0  0
 19 37  1  0  0  0  0
 20 38  1  0  0  0  0
 20 39  1  0  0  0  0
M  CHG  1  15  -1
M  END
> <s_m_source_file>
AV-unprocessed.smi

> <i_m_source_file_index>
909

> <i_lp_mmshare_version>
43012

> <i_f3d_flags>
0

> <s_epik_input>
W0NIM11jMW5vYyhbQ0gzXSljMVtDSDJdQyg9TylbTkhdQzIoQyg9TylbT0hdKVtDSDJdW0NIMl1bQ0gyXVtDSDJdW0NIMl0y

> <s_epik_cmdline>
J2VwaWtfcHl0aG9uJywgJy1waCcsICc3LjAnLCAnLXRuJywgJzgnLCAnLW1hJywgJzIwMCcsICctbWV0YWxfYmluZGluZycsICctaW1hZScsICc8aW5maWxlLm1hZT4nLCAnLW9tYWUnLCAnPG91dGZpbGUubWFlPic=

> <r_epik_Ionization_Penalty>
0.000391234

> <r_epik_Ionization_Penalty_Charging>
0.000391215

> <r_epik_Ionization_Penalty_Neutral>
1.90707e-08

> <r_epik_State_Penalty>
0.000239413

> <r_epik_Charging_Adjusted_Penalty>
0.000630628

> <i_epik_Tot_Q>
-1

> <i_epik_Tot_abs_Q>
1

> <r_epik_Metal_State_Penalty>
-0

> <b_epik_Metal_Only>
0

> <s_lp_Force_Field>
OPLS_2005

> <r_lp_Energy>
2.68806

> <b_lp_Chiralities_Consistent>
1

> <s_lp_Variant>
AV-unprocessed.smi:909-1

> <Gold.Version>
5.8.1

> <Gold.Id.Protein>
6NUR|6NUR_protein|mol2

> <Gold.PLP.Fitness>
39.4233

> <Gold.PLP.PLP>
-28.3956

> <Gold.PLP.part.hbond>
-4.5077

> <Gold.PLP.part.metal>
0.0000

> <Gold.PLP.part.buried>
-2.1599

> <Gold.PLP.part.nonpolar>
-23.1750

> <Gold.PLP.part.repulsive>
0.1161

> <Gold.PLP.ligand.clash>
0.0000

> <Gold.PLP.ligand.torsion>
0.9115

> <Gold.PLP.Chemscore.Hbond>
4.2626

> <Gold.PLP.Chemscore.CHOScore>
0.0000

> <Gold.PLP.Chemscore.Metal>
0.0000

> <Gold.Chemscore.Hbonds>
donor molecule, donor type, donor heavy atom, donor atom, acceptor molecule, acceptor atom, score
      P1  H  6896  6909       L1     4  0.49
      P1  H  7989  7998       L1    15  0.22
      P1  H  7997  8008       L1    15  2.00
      P1  H 10752 10763       L1    14  1.47

> <Gold.PLP.Chemscore.Internal.Correction>
0.0628

> <Gold.Rescore>
     Score         DG    S(hbond)    S(metal)    S(lipo)     H(rot)  DE(clash)    DE(int)     intcor
     11.57     -14.04       1.86        0.00      62.24       1.93       0.26       2.21       ----

> <Gold.Chemscore.Fitness>
11.5686

> <Gold.Chemscore.DG>
-14.0376

> <Gold.Chemscore.ZeroCoef>
-5.4800

> <Gold.Chemscore.Hbond>
1.8604

> <Gold.Chemscore.Metal>
0.0000

> <Gold.Chemscore.Lipo>
62.2369

> <Gold.Chemscore.Internal_Hbond>
0.0000

> <Gold.Chemscore.DEClash>
0.2616

> <Gold.Chemscore.DEInternal>
2.2074

> <Gold.Chemscore.Rot>
1.9289

> <Gold.Chemscore.Internal.Correction>
   9.000000E+99

> <Gold.Chemscore.Hbonds>
donor molecule, donor type, donor heavy atom, donor atom, acceptor molecule, acceptor atom, score
      P1  H  6896  6909       L1     4  0.01
      P1  H  7989  7998       L1    15  0.03
      P1  H  7997  8008       L1    15  0.96
      P1  H 10752 10763       L1    14  0.69

> <Gold.Chemscore.Hbond.Weighted>
-6.2138

> <Gold.Chemscore.Metal.Weighted>
-0.0000

> <Gold.Chemscore.Lipo.Weighted>
-7.2817

> <Gold.Chemscore.Internal_Hbond.Weighted>
0.0000

> <Gold.Chemscore.DEClash.Weighted>
0.2616

> <Gold.Chemscore.DEInternal.Weighted>
2.2074

> <Gold.Chemscore.Rot.Weighted>
4.9379

> <Gold.Chemscore.Internal.Correction.Weighted>
   9.000000E+99

> <Gold.Protein.RotatedTorsions>
[ 6907 6896 6895 6894 ] final    1.68 input  -60.11 | X-H torsion
[ 7974 7965 7964 7962 ] final   10.26 input  175.53 | X-H torsion
[ 8008 7997 7996 7995 ] final   -9.76 input   59.86 | X-H torsion
[ 10167 10162 10161 10158 ] final    8.87 input  -65.29 | X-H torsion
[ 10718 10713 10712 10709 ] final  -78.11 input   66.30 | X-H torsion
[ 10763 10752 10751 10750 ] final   50.55 input  -60.55 | X-H torsion
[ 11005 11000 10999 10996 ] final  172.20 input  -57.11 | X-H torsion

> <Gold.Protein.ActiveResidues>
 VAL166  LYS551  ARG553  GLY616  TRP617  ASP618  TYR619  PRO620  LYS621  CYS622 
 ASP623  PHE694  ASN695  SER759  ASP760  ASP761  ALA762  ILE779  LEU786  VAL792 
 PHE793  MET794  SER795  GLU796  ALA797  LYS798  CYS799  TRP800  GLU811  SER814 

> <Gold.Protein.RotatedAtoms>
  151.5966  135.1050  160.0050 H   0  0  0  0  0  0  0  0  0  0  0  0  # atno 6907 bound_to 6896
  152.4279  133.7223  159.6551 H   0  0  0  0  0  0  0  0  0  0  0  0  # atno 6908 bound_to 6896
  150.8169  133.8249  159.3179 H   0  0  0  0  0  0  0  0  0  0  0  0  # atno 6909 bound_to 6896
  146.2391  139.9661  142.8452 H   0  0  0  0  0  0  0  0  0  0  0  0  # atno 7974 bound_to 7965
  154.5617  140.2346  155.8326 H   0  0  0  0  0  0  0  0  0  0  0  0  # atno 8008 bound_to 7997
  156.2034  140.3046  155.9535 H   0  0  0  0  0  0  0  0  0  0  0  0  # atno 8009 bound_to 7997
  155.2877  140.0425  157.3011 H   0  0  0  0  0  0  0  0  0  0  0  0  # atno 8010 bound_to 7997
  140.6289  143.8039  150.7269 H   0  0  0  0  0  0  0  0  0  0  0  0  # atno 10167 bound_to 10162
  156.0126  130.4509  150.3446 H   0  0  0  0  0  0  0  0  0  0  0  0  # atno 10718 bound_to 10713
  152.9784  135.5875  154.4270 H   0  0  0  0  0  0  0  0  0  0  0  0  # atno 10763 bound_to 10752
  154.3888  135.2767  155.2169 H   0  0  0  0  0  0  0  0  0  0  0  0  # atno 10764 bound_to 10752
  154.4051  135.6094  153.5974 H   0  0  0  0  0  0  0  0  0  0  0  0  # atno 10765 bound_to 10752
  140.3271  134.7388  157.4107 H   0  0  0  0  0  0  0  0  0  0  0  0  # atno 11005 bound_to 11000
  145.1725  140.9728  143.4313 LP  0  0  0  0  0  0  0  0  0  0  0  0  # atno 17320 bound_to 7965
  145.0016  139.3593  143.6165 LP  0  0  0  0  0  0  0  0  0  0  0  0  # atno 17321 bound_to 7965
  140.1646  143.4246  152.2043 LP  0  0  0  0  0  0  0  0  0  0  0  0  # atno 17342 bound_to 10162
  139.5505  144.7334  151.4449 LP  0  0  0  0  0  0  0  0  0  0  0  0  # atno 17343 bound_to 10162
  157.1541  131.0328  151.2871 LP  0  0  0  0  0  0  0  0  0  0  0  0  # atno 17370 bound_to 10713
  157.4367  130.7521  149.7035 LP  0  0  0  0  0  0  0  0  0  0  0  0  # atno 17371 bound_to 10713
  140.0892  134.5624  155.8461 LP  0  0  0  0  0  0  0  0  0  0  0  0  # atno 17394 bound_to 11000
  141.2072  133.6662  156.6293 LP  0  0  0  0  0  0  0  0  0  0  0  0  # atno 17395 bound_to 11000

$$$$
