AV-unprocessed.smi:2667|AV-procd|sdf|10336|dock10
  -GOLD-   2272014353D 1   1.00000     0.00000
 Structure written by MMmdl.
 45 47  0  0  0  0  0  0  0  0  2 V2000
  152.0946  140.4576  159.2470 C   0  0  0  0  0  0  0  0  0  0  0  0
  151.5515  140.9976  157.9145 C   0  0  0  0  0  0  0  0  0  0  0  0
  151.6515  140.0004  156.7497 C   0  0  0  0  0  0  0  0  0  0  0  0
  152.7533  139.5701  156.4058 O   0  0  0  0  0  0  0  0  0  0  0  0
  150.3800  139.5956  156.0825 C   0  0  0  0  0  0  0  0  0  0  0  0
  150.0432  140.0372  154.7815 C   0  0  0  0  0  0  0  0  0  0  0  0
  148.8334  139.6370  154.1826 C   0  0  0  0  0  0  0  0  0  0  0  0
  147.9336  138.7934  154.8620 C   0  0  0  0  0  0  0  0  0  0  0  0
  146.7723  138.4591  154.2014 O   0  0  0  0  0  0  0  0  0  0  0  0
  146.7661  138.4890  152.7806 C   0  0  0  0  0  0  0  0  0  0  0  0
  145.7046  137.5272  152.2119 C   0  0  2  0  0  0  0  0  0  0  0  0
  144.4329  137.9023  152.6990 O   0  0  0  0  0  0  0  0  0  0  0  0
  145.9808  136.0129  152.3867 C   0  0  0  0  0  0  0  0  0  0  0  0
  145.1258  135.1181  151.5899 N   0  0  0  0  0  0  0  0  0  0  0  0
  143.9882  135.3945  150.8945 C   0  0  0  0  0  0  0  0  0  0  0  0
  143.5621  134.2359  150.3208 N   0  3  0  0  0  0  0  0  0  0  0  0
  144.4281  133.1978  150.6696 C   0  0  0  0  0  0  0  0  0  0  0  0
  144.4085  131.8462  150.3388 C   0  0  0  0  0  0  0  0  0  0  0  0
  145.4439  131.0493  150.8697 C   0  0  0  0  0  0  0  0  0  0  0  0
  146.4444  131.6007  151.6960 C   0  0  0  0  0  0  0  0  0  0  0  0
  146.4539  132.9722  152.0252 C   0  0  0  0  0  0  0  0  0  0  0  0
  145.4308  133.7553  151.4918 C   0  0  0  0  0  0  0  0  0  0  0  0
  148.2694  138.3469  156.1630 C   0  0  0  0  0  0  0  0  0  0  0  0
  149.4791  138.7460  156.7635 C   0  0  0  0  0  0  0  0  0  0  0  0
  151.9911  141.2053  160.0334 H   0  0  0  0  0  0  0  0  0  0  0  0
  153.1526  140.2034  159.1722 H   0  0  0  0  0  0  0  0  0  0  0  0
  151.5530  139.5666  159.5669 H   0  0  0  0  0  0  0  0  0  0  0  0
  150.5061  141.2795  158.0419 H   0  0  0  0  0  0  0  0  0  0  0  0
  152.0965  141.9028  157.6455 H   0  0  0  0  0  0  0  0  0  0  0  0
  150.6983  140.6858  154.2197 H   0  0  0  0  0  0  0  0  0  0  0  0
  148.5921  139.9835  153.1883 H   0  0  0  0  0  0  0  0  0  0  0  0
  146.5766  139.5036  152.4265 H   0  0  0  0  0  0  0  0  0  0  0  0
  147.7449  138.1855  152.4059 H   0  0  0  0  0  0  0  0  0  0  0  0
  145.6622  137.7127  151.1381 H   0  0  0  0  0  0  0  0  0  0  0  0
  144.4048  138.8438  152.7716 H   0  0  0  0  0  0  0  0  0  0  0  0
  147.0233  135.7830  152.1642 H   0  0  0  0  0  0  0  0  0  0  0  0
  145.8328  135.7403  153.4324 H   0  0  0  0  0  0  0  0  0  0  0  0
  143.5186  136.3634  150.8004 H   0  0  0  0  0  0  0  0  0  0  0  0
  143.6415  131.4204  149.7086 H   0  0  0  0  0  0  0  0  0  0  0  0
  145.4704  129.9938  150.6398 H   0  0  0  0  0  0  0  0  0  0  0  0
  147.2212  130.9588  152.0852 H   0  0  0  0  0  0  0  0  0  0  0  0
  147.2251  133.3835  152.6586 H   0  0  0  0  0  0  0  0  0  0  0  0
  147.6161  137.6958  156.7234 H   0  0  0  0  0  0  0  0  0  0  0  0
  149.7056  138.3886  157.7578 H   0  0  0  0  0  0  0  0  0  0  0  0
  142.7384  134.1617  149.7376 H   0  0  0  0  0  0  0  0  0  0  0  0
  1  2  1  0  0  0  0
  1 25  1  0  0  0  0
  1 26  1  0  0  0  0
  1 27  1  0  0  0  0
  2  3  1  0  0  0  0
  2 28  1  0  0  0  0
  2 29  1  0  0  0  0
  3  4  2  0  0  0  0
  3  5  1  0  0  0  0
  5 24  1  0  0  0  0
  5  6  2  0  0  0  0
  6  7  1  0  0  0  0
  6 30  1  0  0  0  0
  7  8  2  0  0  0  0
  7 31  1  0  0  0  0
  8  9  1  0  0  0  0
  8 23  1  0  0  0  0
  9 10  1  0  0  0  0
 10 11  1  0  0  0  0
 10 32  1  0  0  0  0
 10 33  1  0  0  0  0
 11 12  1  0  0  0  0
 11 13  1  0  0  0  0
 11 34  1  0  0  0  0
 12 35  1  0  0  0  0
 13 14  1  0  0  0  0
 13 36  1  0  0  0  0
 13 37  1  0  0  0  0
 14 22  1  0  0  0  0
 14 15  1  0  0  0  0
 15 16  2  0  0  0  0
 15 38  1  0  0  0  0
 16 17  1  0  0  0  0
 16 45  1  0  0  0  0
 17 22  2  0  0  0  0
 17 18  1  0  0  0  0
 18 19  2  0  0  0  0
 18 39  1  0  0  0  0
 19 20  1  0  0  0  0
 19 40  1  0  0  0  0
 20 21  2  0  0  0  0
 20 41  1  0  0  0  0
 21 22  1  0  0  0  0
 21 42  1  0  0  0  0
 23 24  2  0  0  0  0
 23 43  1  0  0  0  0
 24 44  1  0  0  0  0
M  CHG  1  16   1
M  END
> <s_m_source_file>
AV-unprocessed.smi

> <i_m_source_file_index>
2667

> <i_lp_mmshare_version>
43012

> <i_f3d_flags>
0

> <s_epik_input>
W0NIM11bQ0gyXUMoPU8pYzFbY0hdW2NIXWMoW2NIXVtjSF0xKU9bQ0gyXVtDQEhdKFtPSF0pW0NIMl1uKFtjSF1uMiljKGMyMylbY0hdW2NIXVtjSF1bY0hdMw==

> <s_epik_cmdline>
J2VwaWtfcHl0aG9uJywgJy1waCcsICc3LjAnLCAnLXRuJywgJzgnLCAnLW1hJywgJzIwMCcsICctbWV0YWxfYmluZGluZycsICctaW1hZScsICc8aW5maWxlLm1hZT4nLCAnLW9tYWUnLCAnPG91dGZpbGUubWFlPic=

> <r_lp_tautomer_probability>
0.9999

> <r_epik_Ionization_Penalty>
1.40272

> <r_epik_Ionization_Penalty_Charging>
1.40272

> <r_epik_Ionization_Penalty_Neutral>
2.3993e-06

> <r_epik_State_Penalty>
1.48501

> <r_epik_Charging_Adjusted_Penalty>
2.88772

> <i_epik_Tot_Q>
1

> <i_epik_Tot_abs_Q>
1

> <r_epik_Metal_State_Penalty>
5.5274

> <b_epik_Metal_Only>
0

> <s_lp_Force_Field>
OPLS_2005

> <r_lp_Energy>
30.2491

> <b_lp_Chiralities_Consistent>
1

> <s_lp_Variant>
AV-unprocessed.smi:2667-3

> <Gold.Version>
5.8.1

> <Gold.Id.Protein>
6NUR|6NUR_protein|mol2

> <Gold.PLP.Fitness>
49.7536

> <Gold.PLP.PLP>
-38.7184

> <Gold.PLP.part.hbond>
-4.0000

> <Gold.PLP.part.metal>
0.0000

> <Gold.PLP.part.buried>
-2.0222

> <Gold.PLP.part.nonpolar>
-33.7612

> <Gold.PLP.part.repulsive>
0.1601

> <Gold.PLP.ligand.clash>
0.0351

> <Gold.PLP.ligand.torsion>
2.0464

> <Gold.PLP.Chemscore.Hbond>
4.0000

> <Gold.PLP.Chemscore.CHOScore>
1.0000

> <Gold.PLP.Chemscore.Metal>
0.0000

> <Gold.Chemscore.Hbonds>
donor molecule, donor type, donor heavy atom, donor atom, acceptor molecule, acceptor atom, score
      L1  H    12    35       P1 10175  1.00
      L1  H    16    45       P1 10186  1.92
      P1  H  7997  8008       L1     4  1.00
      L1  C    15    38       P1 10171  1.00

> <Gold.PLP.Chemscore.Internal.Correction>
0.1630

> <Gold.Rescore>
     Score         DG    S(hbond)    S(metal)    S(lipo)     H(rot)  DE(clash)    DE(int)     intcor
     18.14     -20.12       2.96        0.00      97.25       2.59       0.03       1.95       ----

> <Gold.Chemscore.Fitness>
18.1361

> <Gold.Chemscore.DG>
-20.1237

> <Gold.Chemscore.ZeroCoef>
-5.4800

> <Gold.Chemscore.Hbond>
2.9609

> <Gold.Chemscore.Metal>
0.0000

> <Gold.Chemscore.Lipo>
97.2453

> <Gold.Chemscore.Internal_Hbond>
0.0000

> <Gold.Chemscore.DEClash>
0.0336

> <Gold.Chemscore.DEInternal>
1.9540

> <Gold.Chemscore.Rot>
2.5873

> <Gold.Chemscore.Internal.Correction>
   9.000000E+99

> <Gold.Chemscore.Hbonds>
donor molecule, donor type, donor heavy atom, donor atom, acceptor molecule, acceptor atom, score
      L1  H    12    35       P1 10175  0.96
      L1  H    16    45       P1 10186  0.92
      P1  H  7997  8008       L1     4  1.00

> <Gold.Chemscore.Hbond.Weighted>
-9.8896

> <Gold.Chemscore.Metal.Weighted>
-0.0000

> <Gold.Chemscore.Lipo.Weighted>
-11.3777

> <Gold.Chemscore.Internal_Hbond.Weighted>
0.0000

> <Gold.Chemscore.DEClash.Weighted>
0.0336

> <Gold.Chemscore.DEInternal.Weighted>
1.9540

> <Gold.Chemscore.Rot.Weighted>
6.6235

> <Gold.Chemscore.Internal.Correction.Weighted>
   9.000000E+99

> <Gold.Protein.RotatedTorsions>
[ 6907 6896 6895 6894 ] final  -54.69 input  -60.11 | X-H torsion
[ 7974 7965 7964 7962 ] final   95.87 input  175.53 | X-H torsion
[ 8008 7997 7996 7995 ] final  -58.88 input   59.86 | X-H torsion
[ 10167 10162 10161 10158 ] final  132.22 input  -65.29 | X-H torsion
[ 10718 10713 10712 10709 ] final   85.74 input   66.30 | X-H torsion
[ 10763 10752 10751 10750 ] final  -99.92 input  -60.55 | X-H torsion
[ 11005 11000 10999 10996 ] final  154.59 input  -57.11 | X-H torsion

> <Gold.Protein.ActiveResidues>
 VAL166  LYS551  ARG553  GLY616  TRP617  ASP618  TYR619  PRO620  LYS621  CYS622 
 ASP623  PHE694  ASN695  SER759  ASP760  ASP761  ALA762  ILE779  LEU786  VAL792 
 PHE793  MET794  SER795  GLU796  ALA797  LYS798  CYS799  TRP800  GLU811  SER814 

> <Gold.Protein.RotatedAtoms>
  150.8316  134.7571  159.6857 H   0  0  0  0  0  0  0  0  0  0  0  0  # atno 6907 bound_to 6896
  152.4419  134.5570  159.9893 H   0  0  0  0  0  0  0  0  0  0  0  0  # atno 6908 bound_to 6896
  151.5729  133.3350  159.3029 H   0  0  0  0  0  0  0  0  0  0  0  0  # atno 6909 bound_to 6896
  145.4465  139.2297  143.3063 H   0  0  0  0  0  0  0  0  0  0  0  0  # atno 7974 bound_to 7965
  154.4328  140.1074  156.6028 H   0  0  0  0  0  0  0  0  0  0  0  0  # atno 8008 bound_to 7997
  155.5893  140.3492  155.4543 H   0  0  0  0  0  0  0  0  0  0  0  0  # atno 8009 bound_to 7997
  156.0259  140.1250  157.0299 H   0  0  0  0  0  0  0  0  0  0  0  0  # atno 8010 bound_to 7997
  139.5349  144.6671  151.4821 H   0  0  0  0  0  0  0  0  0  0  0  0  # atno 10167 bound_to 10162
  157.6919  131.0187  150.2868 H   0  0  0  0  0  0  0  0  0  0  0  0  # atno 10718 bound_to 10713
  154.7537  135.4954  153.9336 H   0  0  0  0  0  0  0  0  0  0  0  0  # atno 10763 bound_to 10752
  153.1172  135.6723  153.9406 H   0  0  0  0  0  0  0  0  0  0  0  0  # atno 10764 bound_to 10752
  153.9148  135.3095  155.3427 H   0  0  0  0  0  0  0  0  0  0  0  0  # atno 10765 bound_to 10752
  140.1503  134.8679  157.2446 H   0  0  0  0  0  0  0  0  0  0  0  0  # atno 11005 bound_to 11000
  146.2528  140.5219  142.8886 LP  0  0  0  0  0  0  0  0  0  0  0  0  # atno 17320 bound_to 7965
  144.8088  140.6349  143.6429 LP  0  0  0  0  0  0  0  0  0  0  0  0  # atno 17321 bound_to 7965
  140.6549  143.8619  150.6825 LP  0  0  0  0  0  0  0  0  0  0  0  0  # atno 17342 bound_to 10162
  140.1995  143.3970  152.1802 LP  0  0  0  0  0  0  0  0  0  0  0  0  # atno 17343 bound_to 10162
  156.3405  130.3814  149.7413 LP  0  0  0  0  0  0  0  0  0  0  0  0  # atno 17370 bound_to 10713
  156.4923  130.8091  151.3099 LP  0  0  0  0  0  0  0  0  0  0  0  0  # atno 17371 bound_to 10713
  140.2612  134.3568  155.7406 LP  0  0  0  0  0  0  0  0  0  0  0  0  # atno 17394 bound_to 11000
  141.2198  133.7371  156.9083 LP  0  0  0  0  0  0  0  0  0  0  0  0  # atno 17395 bound_to 11000

$$$$
