AV-unprocessed.smi:2310|AV-procd|sdf|9260|dock2
  -GOLD-   2272012483D 1   1.00000     0.00000
 Structure written by MMmdl.
 45 46  0  0  0  0  0  0  0  0  3 V2000
  148.6105  134.2862  153.6085 C   0  0  0  0  0  0  0  0  0  0  0  0
  150.0213  134.6926  154.0770 C   0  0  0  0  0  0  0  0  0  0  0  0
  150.0700  135.9352  154.9947 C   0  0  1  0  0  0  0  0  0  0  0  0
  148.7682  136.1094  155.8028 C   0  0  0  0  0  0  0  0  0  0  0  0
  148.6808  135.2981  157.0308 C   0  0  0  0  0  0  0  0  0  0  0  0
  148.6103  134.6569  157.9931 N   0  0  0  0  0  0  0  0  0  0  0  0
  151.2067  135.8238  155.9161 N   0  5  0  0  0  0  0  0  0  0  0  0
  151.4969  136.7090  156.9064 C   0  0  0  0  0  0  0  0  0  0  0  0
  151.7864  136.4591  158.0823 O   0  0  0  0  0  0  0  0  0  0  0  0
  151.4722  137.9806  156.4708 N   0  0  0  0  0  0  0  0  0  0  0  0
  151.7052  139.1748  157.2054 C   0  0  0  0  0  0  0  0  0  0  0  0
  152.3318  139.1809  158.4749 C   0  0  0  0  0  0  0  0  0  0  0  0
  152.5062  140.3991  159.1614 C   0  0  0  0  0  0  0  0  0  0  0  0
  152.0408  141.6025  158.5823 C   0  0  0  0  0  0  0  0  0  0  0  0
  152.1843  142.8567  159.2051 N   0  0  0  0  0  0  0  0  0  0  0  0
  151.9159  144.1008  158.4951 C   0  0  0  0  0  0  0  0  0  0  0  0
  151.4934  145.1060  159.5725 C   0  0  0  0  0  0  0  0  0  0  0  0
  152.0699  144.5301  160.8661 C   0  0  0  0  0  0  0  0  0  0  0  0
  151.9989  143.0210  160.6371 C   0  0  0  0  0  0  0  0  0  0  0  0
  151.4355  141.5458  157.3726 N   0  3  0  0  0  0  0  0  0  0  0  0
  151.2455  140.4029  156.6761 C   0  0  0  0  0  0  0  0  0  0  0  0
  150.5450  140.5078  155.3339 C   0  0  0  0  0  0  0  0  0  0  0  0
  148.6626  133.3877  152.9935 H   0  0  0  0  0  0  0  0  0  0  0  0
  148.1387  135.0613  153.0020 H   0  0  0  0  0  0  0  0  0  0  0  0
  147.9473  134.0636  154.4463 H   0  0  0  0  0  0  0  0  0  0  0  0
  150.4529  133.8476  154.6144 H   0  0  0  0  0  0  0  0  0  0  0  0
  150.6584  134.8455  153.2048 H   0  0  0  0  0  0  0  0  0  0  0  0
  150.1659  136.8115  154.3516 H   0  0  0  0  0  0  0  0  0  0  0  0
  148.6244  137.1543  156.0798 H   0  0  0  0  0  0  0  0  0  0  0  0
  147.9152  135.8340  155.1826 H   0  0  0  0  0  0  0  0  0  0  0  0
  151.3472  138.0946  155.4755 H   0  0  0  0  0  0  0  0  0  0  0  0
  152.6693  138.2662  158.9388 H   0  0  0  0  0  0  0  0  0  0  0  0
  152.9914  140.3905  160.1259 H   0  0  0  0  0  0  0  0  0  0  0  0
  152.8309  144.4268  157.9996 H   0  0  0  0  0  0  0  0  0  0  0  0
  151.1379  143.9900  157.7388 H   0  0  0  0  0  0  0  0  0  0  0  0
  151.8394  146.1191  159.3660 H   0  0  0  0  0  0  0  0  0  0  0  0
  150.4052  145.1324  159.6404 H   0  0  0  0  0  0  0  0  0  0  0  0
  153.1105  144.8391  160.9750 H   0  0  0  0  0  0  0  0  0  0  0  0
  151.5273  144.8501  161.7559 H   0  0  0  0  0  0  0  0  0  0  0  0
  151.0207  142.6331  160.9246 H   0  0  0  0  0  0  0  0  0  0  0  0
  152.7642  142.4931  161.2066 H   0  0  0  0  0  0  0  0  0  0  0  0
  149.6221  139.9274  155.3417 H   0  0  0  0  0  0  0  0  0  0  0  0
  151.1863  140.1222  154.5410 H   0  0  0  0  0  0  0  0  0  0  0  0
  150.2949  141.5417  155.0936 H   0  0  0  0  0  0  0  0  0  0  0  0
  151.1017  142.4169  156.9606 H   0  0  0  0  0  0  0  0  0  0  0  0
  1  2  1  0  0  0  0
  1 23  1  0  0  0  0
  1 24  1  0  0  0  0
  1 25  1  0  0  0  0
  2  3  1  0  0  0  0
  2 26  1  0  0  0  0
  2 27  1  0  0  0  0
  3  4  1  0  0  0  0
  3  7  1  0  0  0  0
  3 28  1  0  0  0  0
  4  5  1  0  0  0  0
  4 29  1  0  0  0  0
  4 30  1  0  0  0  0
  5  6  3  0  0  0  0
  7  8  1  0  0  0  0
  8  9  2  0  0  0  0
  8 10  1  0  0  0  0
 10 11  1  0  0  0  0
 10 31  1  0  0  0  0
 11 21  1  0  0  0  0
 11 12  2  0  0  0  0
 12 13  1  0  0  0  0
 12 32  1  0  0  0  0
 13 14  2  0  0  0  0
 13 33  1  0  0  0  0
 14 15  1  0  0  0  0
 14 20  1  0  0  0  0
 15 19  1  0  0  0  0
 15 16  1  0  0  0  0
 16 17  1  0  0  0  0
 16 34  1  0  0  0  0
 16 35  1  0  0  0  0
 17 18  1  0  0  0  0
 17 36  1  0  0  0  0
 17 37  1  0  0  0  0
 18 19  1  0  0  0  0
 18 38  1  0  0  0  0
 18 39  1  0  0  0  0
 19 40  1  0  0  0  0
 19 41  1  0  0  0  0
 20 21  2  0  0  0  0
 20 45  1  0  0  0  0
 21 22  1  0  0  0  0
 22 42  1  0  0  0  0
 22 43  1  0  0  0  0
 22 44  1  0  0  0  0
M  CHG  1   7  -1
M  CHG  1  20   1
M  END
> <s_m_source_file>
AV-unprocessed.smi

> <i_m_source_file_index>
2310

> <i_lp_mmshare_version>
43012

> <i_f3d_flags>
0

> <s_epik_input>
TiNDW0NIMl1bQ0BASF0oW0NIMl1bQ0gzXSlbTkhdQyg9TylbTkhdYzFbY0hdW2NIXWMobmMxW0NIM10pTjJbQ0gyXVtDSDJdW0NIMl1bQ0gyXTI=

> <s_epik_cmdline>
J2VwaWtfcHl0aG9uJywgJy1waCcsICc3LjAnLCAnLXRuJywgJzgnLCAnLW1hJywgJzIwMCcsICctbWV0YWxfYmluZGluZycsICctaW1hZScsICc8aW5maWxlLm1hZT4nLCAnLW9tYWUnLCAnPG91dGZpbGUubWFlPic=

> <r_lp_tautomer_probability>
0.999994

> <r_epik_Ionization_Penalty>
7.34515

> <r_epik_Ionization_Penalty_Charging>
7.34514

> <r_epik_Ionization_Penalty_Neutral>
2.56118e-06

> <r_epik_State_Penalty>
6.99243

> <r_epik_Charging_Adjusted_Penalty>
14.3376

> <i_epik_Tot_Q>
0

> <i_epik_Tot_abs_Q>
2

> <r_epik_Metal_State_Penalty>
3.10684

> <b_epik_Metal_Only>
1

> <s_lp_Force_Field>
OPLS_2005

> <r_lp_Energy>
34.805

> <b_lp_Chiralities_Consistent>
1

> <s_lp_Variant>
AV-unprocessed.smi:2310-6

> <Gold.Version>
5.8.1

> <Gold.Id.Protein>
6NUR|6NUR_protein|mol2

> <Gold.PLP.Fitness>
47.8234

> <Gold.PLP.PLP>
-40.0922

> <Gold.PLP.part.hbond>
-3.0000

> <Gold.PLP.part.metal>
0.0000

> <Gold.PLP.part.buried>
-5.1263

> <Gold.PLP.part.nonpolar>
-31.7119

> <Gold.PLP.part.repulsive>
0.1538

> <Gold.PLP.ligand.clash>
0.0000

> <Gold.PLP.ligand.torsion>
1.4500

> <Gold.PLP.Chemscore.Hbond>
3.4420

> <Gold.PLP.Chemscore.CHOScore>
0.0000

> <Gold.PLP.Chemscore.Metal>
0.0000

> <Gold.Chemscore.Hbonds>
donor molecule, donor type, donor heavy atom, donor atom, acceptor molecule, acceptor atom, score
      P1  H  6896  6909       L1     9  0.07
      P1  H 10752 10765       L1     7  1.40

> <Gold.PLP.Chemscore.Internal.Correction>
0.3053

> <Gold.Rescore>
     Score         DG    S(hbond)    S(metal)    S(lipo)     H(rot)  DE(clash)    DE(int)     intcor
     14.61     -17.56       1.48        0.00      92.64       1.45       0.40       2.56       ----

> <Gold.Chemscore.Fitness>
14.6066

> <Gold.Chemscore.DG>
-17.5634

> <Gold.Chemscore.ZeroCoef>
-5.4800

> <Gold.Chemscore.Hbond>
1.4833

> <Gold.Chemscore.Metal>
0.0000

> <Gold.Chemscore.Lipo>
92.6410

> <Gold.Chemscore.Internal_Hbond>
0.0000

> <Gold.Chemscore.DEClash>
0.3976

> <Gold.Chemscore.DEInternal>
2.5593

> <Gold.Chemscore.Rot>
1.4492

> <Gold.Chemscore.Internal.Correction>
   9.000000E+99

> <Gold.Chemscore.Hbonds>
donor molecule, donor type, donor heavy atom, donor atom, acceptor molecule, acceptor atom, score
      P1  H  6896  6908       L1     6  0.01
      P1  H  6896  6909       L1     9  0.07
      P1  H 10752 10765       L1     7  0.23

> <Gold.Chemscore.Hbond.Weighted>
-4.9544

> <Gold.Chemscore.Metal.Weighted>
-0.0000

> <Gold.Chemscore.Lipo.Weighted>
-10.8390

> <Gold.Chemscore.Internal_Hbond.Weighted>
0.0000

> <Gold.Chemscore.DEClash.Weighted>
0.3976

> <Gold.Chemscore.DEInternal.Weighted>
2.5593

> <Gold.Chemscore.Rot.Weighted>
3.7100

> <Gold.Chemscore.Internal.Correction.Weighted>
   9.000000E+99

> <Gold.Protein.RotatedTorsions>
[ 6907 6896 6895 6894 ] final  138.72 input  -60.11 | X-H torsion
[ 7974 7965 7964 7962 ] final  -75.28 input  175.53 | X-H torsion
[ 8008 7997 7996 7995 ] final  125.74 input   59.86 | X-H torsion
[ 10167 10162 10161 10158 ] final  106.89 input  -65.29 | X-H torsion
[ 10718 10713 10712 10709 ] final   94.60 input   66.30 | X-H torsion
[ 10763 10752 10751 10750 ] final -148.40 input  -60.55 | X-H torsion
[ 11005 11000 10999 10996 ] final  128.37 input  -57.11 | X-H torsion

> <Gold.Protein.ActiveResidues>
 VAL166  LYS551  ARG553  GLY616  TRP617  ASP618  TYR619  PRO620  LYS621  CYS622 
 ASP623  PHE694  ASN695  SER759  ASP760  ASP761  ALA762  ILE779  LEU786  VAL792 
 PHE793  MET794  SER795  GLU796  ALA797  LYS798  CYS799  TRP800  GLU811  SER814 

> <Gold.Protein.RotatedAtoms>
  152.2633  133.5316  159.5394 H   0  0  0  0  0  0  0  0  0  0  0  0  # atno 6907 bound_to 6896
  150.7133  134.0800  159.3903 H   0  0  0  0  0  0  0  0  0  0  0  0  # atno 6908 bound_to 6896
  151.8717  135.0487  160.0530 H   0  0  0  0  0  0  0  0  0  0  0  0  # atno 6909 bound_to 6896
  145.6281  140.9345  143.1102 H   0  0  0  0  0  0  0  0  0  0  0  0  # atno 7974 bound_to 7965
  156.2843  140.2709  156.1999 H   0  0  0  0  0  0  0  0  0  0  0  0  # atno 8008 bound_to 7997
  155.0372  140.0386  157.2514 H   0  0  0  0  0  0  0  0  0  0  0  0  # atno 8009 bound_to 7997
  154.7305  140.2705  155.6466 H   0  0  0  0  0  0  0  0  0  0  0  0  # atno 8010 bound_to 7997
  139.6971  144.7100  151.1248 H   0  0  0  0  0  0  0  0  0  0  0  0  # atno 10167 bound_to 10162
  157.6946  131.0518  150.4211 H   0  0  0  0  0  0  0  0  0  0  0  0  # atno 10718 bound_to 10713
  154.8235  135.3335  154.6967 H   0  0  0  0  0  0  0  0  0  0  0  0  # atno 10763 bound_to 10752
  153.7597  135.6933  153.4932 H   0  0  0  0  0  0  0  0  0  0  0  0  # atno 10764 bound_to 10752
  153.2119  135.4479  155.0339 H   0  0  0  0  0  0  0  0  0  0  0  0  # atno 10765 bound_to 10752
  139.9557  134.9613  156.8991 H   0  0  0  0  0  0  0  0  0  0  0  0  # atno 11005 bound_to 11000
  144.7204  139.8049  143.7384 LP  0  0  0  0  0  0  0  0  0  0  0  0  # atno 17320 bound_to 7965
  146.1378  139.4428  143.0128 LP  0  0  0  0  0  0  0  0  0  0  0  0  # atno 17321 bound_to 7965
  140.7699  143.5476  150.9241 LP  0  0  0  0  0  0  0  0  0  0  0  0  # atno 17342 bound_to 10162
  139.9156  143.6668  152.3107 LP  0  0  0  0  0  0  0  0  0  0  0  0  # atno 17343 bound_to 10162
  156.4586  130.4027  149.6590 LP  0  0  0  0  0  0  0  0  0  0  0  0  # atno 17370 bound_to 10713
  156.3713  130.7532  151.2515 LP  0  0  0  0  0  0  0  0  0  0  0  0  # atno 17371 bound_to 10713
  140.5615  134.0530  155.7400 LP  0  0  0  0  0  0  0  0  0  0  0  0  # atno 17394 bound_to 11000
  141.1228  133.9433  157.2696 LP  0  0  0  0  0  0  0  0  0  0  0  0  # atno 17395 bound_to 11000

$$$$
