AV-unprocessed.smi:1558|AV-procd|sdf|6273|dock2
  -GOLD-   22720 6463D 1   1.00000     0.00000
 Structure written by MMmdl.
 36 37  0  0  0  0  0  0  0  0  1 V2000
  144.9201  138.3096  153.5950 N   0  0  0  0  0  0  0  0  0  0  0  0
  146.2485  138.1796  153.5418 C   0  0  0  0  0  0  0  0  0  0  0  0
  146.8333  137.2086  154.0166 O   0  0  0  0  0  0  0  0  0  0  0  0
  147.0334  139.3003  152.8574 C   0  0  0  0  0  0  0  0  0  0  0  0
  148.0243  139.8697  153.7533 N   0  0  0  0  0  0  0  0  0  0  0  0
  148.1417  141.1806  154.1731 C   0  0  0  0  0  0  0  0  0  0  0  0
  149.2250  141.2081  155.0051 C   0  0  0  0  0  0  0  0  0  0  0  0
  149.7885  142.3007  155.7114 N   0  0  0  0  0  0  0  0  0  0  0  0
  150.8402  142.2757  156.5462 C   0  0  0  0  0  0  0  0  0  0  0  0
  151.4919  141.2710  156.8328 O   0  0  0  0  0  0  0  0  0  0  0  0
  151.1017  143.4960  157.0354 N   0  0  0  0  0  0  0  0  0  0  0  0
  152.1975  143.8188  157.9424 C   0  0  0  0  0  0  0  0  0  0  0  0
  152.0254  143.1206  159.3011 C   0  0  1  0  0  0  0  0  0  0  0  0
  153.2920  142.4296  159.8001 C   0  0  0  0  0  0  0  0  0  0  0  0
  153.0212  142.3386  161.2847 C   0  0  0  0  0  0  0  0  0  0  0  0
  152.3031  143.6578  161.5618 C   0  0  0  0  0  0  0  0  0  0  0  0
  151.7130  144.0586  160.3273 O   0  0  0  0  0  0  0  0  0  0  0  0
  149.7195  139.8784  155.0402 C   0  0  0  0  0  0  0  0  0  0  0  0
  148.9889  139.0753  154.2818 N   0  0  0  0  0  0  0  0  0  0  0  0
  144.3650  137.5933  154.0405 H   0  0  0  0  0  0  0  0  0  0  0  0
  144.4748  139.1219  153.1936 H   0  0  0  0  0  0  0  0  0  0  0  0
  147.5274  138.9132  151.9647 H   0  0  0  0  0  0  0  0  0  0  0  0
  146.3591  140.0931  152.5308 H   0  0  0  0  0  0  0  0  0  0  0  0
  147.4570  141.9496  153.8477 H   0  0  0  0  0  0  0  0  0  0  0  0
  149.3503  143.1970  155.5581 H   0  0  0  0  0  0  0  0  0  0  0  0
  150.5117  144.2618  156.7453 H   0  0  0  0  0  0  0  0  0  0  0  0
  153.1222  143.4813  157.4742 H   0  0  0  0  0  0  0  0  0  0  0  0
  152.2945  144.8981  158.0717 H   0  0  0  0  0  0  0  0  0  0  0  0
  151.2166  142.3896  159.2513 H   0  0  0  0  0  0  0  0  0  0  0  0
  153.4587  141.4578  159.3349 H   0  0  0  0  0  0  0  0  0  0  0  0
  154.1689  143.0529  159.6178 H   0  0  0  0  0  0  0  0  0  0  0  0
  152.3559  141.4990  161.4902 H   0  0  0  0  0  0  0  0  0  0  0  0
  153.9253  142.2116  161.8805 H   0  0  0  0  0  0  0  0  0  0  0  0
  151.5512  143.5572  162.3446 H   0  0  0  0  0  0  0  0  0  0  0  0
  153.0128  144.4259  161.8707 H   0  0  0  0  0  0  0  0  0  0  0  0
  150.5647  139.4767  155.5793 H   0  0  0  0  0  0  0  0  0  0  0  0
  1  2  1  0  0  0  0
  1 20  1  0  0  0  0
  1 21  1  0  0  0  0
  2  3  2  0  0  0  0
  2  4  1  0  0  0  0
  4  5  1  0  0  0  0
  4 22  1  0  0  0  0
  4 23  1  0  0  0  0
  5 19  1  0  0  0  0
  5  6  1  0  0  0  0
  6  7  2  0  0  0  0
  6 24  1  0  0  0  0
  7  8  1  0  0  0  0
  7 18  1  0  0  0  0
  8  9  1  0  0  0  0
  8 25  1  0  0  0  0
  9 10  2  0  0  0  0
  9 11  1  0  0  0  0
 11 12  1  0  0  0  0
 11 26  1  0  0  0  0
 12 13  1  0  0  0  0
 12 27  1  0  0  0  0
 12 28  1  0  0  0  0
 13 17  1  0  0  0  0
 13 14  1  0  0  0  0
 13 29  1  0  0  0  0
 14 15  1  0  0  0  0
 14 30  1  0  0  0  0
 14 31  1  0  0  0  0
 15 16  1  0  0  0  0
 15 32  1  0  0  0  0
 15 33  1  0  0  0  0
 16 17  1  0  0  0  0
 16 34  1  0  0  0  0
 16 35  1  0  0  0  0
 18 19  2  0  0  0  0
 18 36  1  0  0  0  0
M  END
> <s_m_source_file>
AV-unprocessed.smi

> <i_m_source_file_index>
1558

> <i_lp_mmshare_version>
43012

> <i_f3d_flags>
0

> <s_epik_input>
W05IMl1DKD1PKVtDSDJdbjFbY0hdYyhbY0hdbjEpW05IXUMoPU8pW05IXVtDSDJdW0NAQEhdMltDSDJdW0NIMl1bQ0gyXU8y

> <s_epik_cmdline>
J2VwaWtfcHl0aG9uJywgJy1waCcsICc3LjAnLCAnLXRuJywgJzgnLCAnLW1hJywgJzIwMCcsICctbWV0YWxfYmluZGluZycsICctaW1hZScsICc8aW5maWxlLm1hZT4nLCAnLW9tYWUnLCAnPG91dGZpbGUubWFlPic=

> <r_lp_tautomer_probability>
1

> <r_epik_Ionization_Penalty>
4.01684e-05

> <r_epik_Ionization_Penalty_Charging>
0

> <r_epik_Ionization_Penalty_Neutral>
4.01684e-05

> <r_epik_State_Penalty>
-0

> <r_epik_Charging_Adjusted_Penalty>
0

> <i_epik_Tot_Q>
0

> <i_epik_Tot_abs_Q>
0

> <r_epik_Metal_State_Penalty>
-0

> <b_epik_Metal_Only>
0

> <s_lp_Force_Field>
OPLS_2005

> <r_lp_Energy>
20.8688

> <b_lp_Chiralities_Consistent>
1

> <s_lp_Variant>
AV-unprocessed.smi:1558-2

> <Gold.Version>
5.8.1

> <Gold.Id.Protein>
6NUR|6NUR_protein|mol2

> <Gold.PLP.Fitness>
46.5245

> <Gold.PLP.PLP>
-39.2221

> <Gold.PLP.part.hbond>
-3.0000

> <Gold.PLP.part.metal>
0.0000

> <Gold.PLP.part.buried>
-4.1038

> <Gold.PLP.part.nonpolar>
-32.8184

> <Gold.PLP.part.repulsive>
0.5476

> <Gold.PLP.ligand.clash>
0.0000

> <Gold.PLP.ligand.torsion>
0.7076

> <Gold.PLP.Chemscore.Hbond>
2.8960

> <Gold.PLP.Chemscore.CHOScore>
0.0000

> <Gold.PLP.Chemscore.Metal>
0.0000

> <Gold.Chemscore.Hbonds>
donor molecule, donor type, donor heavy atom, donor atom, acceptor molecule, acceptor atom, score
      L1  H     1    21       P1 10175  1.00
      L1  H     8    25       P1  8028  1.00
      L1  H    11    26       P1  8028  0.90

> <Gold.PLP.Chemscore.Internal.Correction>
0.0297

> <Gold.Rescore>
     Score         DG    S(hbond)    S(metal)    S(lipo)     H(rot)  DE(clash)    DE(int)     intcor
     17.22     -19.45       2.92        0.00      87.15       2.33       0.03       2.20       ----

> <Gold.Chemscore.Fitness>
17.2212

> <Gold.Chemscore.DG>
-19.4535

> <Gold.Chemscore.ZeroCoef>
-5.4800

> <Gold.Chemscore.Hbond>
2.9171

> <Gold.Chemscore.Metal>
0.0000

> <Gold.Chemscore.Lipo>
87.1460

> <Gold.Chemscore.Internal_Hbond>
0.0000

> <Gold.Chemscore.DEClash>
0.0274

> <Gold.Chemscore.DEInternal>
2.2049

> <Gold.Chemscore.Rot>
2.3303

> <Gold.Chemscore.Internal.Correction>
   9.000000E+99

> <Gold.Chemscore.Hbonds>
donor molecule, donor type, donor heavy atom, donor atom, acceptor molecule, acceptor atom, score
      L1  H     1    21       P1 10175  1.00
      L1  H     8    25       P1  8028  0.98
      L1  H    11    26       P1  8028  0.85

> <Gold.Chemscore.Hbond.Weighted>
-9.7430

> <Gold.Chemscore.Metal.Weighted>
-0.0000

> <Gold.Chemscore.Lipo.Weighted>
-10.1961

> <Gold.Chemscore.Internal_Hbond.Weighted>
0.0000

> <Gold.Chemscore.DEClash.Weighted>
0.0274

> <Gold.Chemscore.DEInternal.Weighted>
2.2049

> <Gold.Chemscore.Rot.Weighted>
5.9656

> <Gold.Chemscore.Internal.Correction.Weighted>
   9.000000E+99

> <Gold.Protein.RotatedTorsions>
[ 6907 6896 6895 6894 ] final    7.92 input  -60.11 | X-H torsion
[ 7974 7965 7964 7962 ] final   26.28 input  175.53 | X-H torsion
[ 8008 7997 7996 7995 ] final   16.62 input   59.86 | X-H torsion
[ 10167 10162 10161 10158 ] final   15.17 input  -65.29 | X-H torsion
[ 10718 10713 10712 10709 ] final -162.47 input   66.30 | X-H torsion
[ 10763 10752 10751 10750 ] final   93.69 input  -60.55 | X-H torsion
[ 11005 11000 10999 10996 ] final -106.73 input  -57.11 | X-H torsion

> <Gold.Protein.ActiveResidues>
 VAL166  LYS551  ARG553  GLY616  TRP617  ASP618  TYR619  PRO620  LYS621  CYS622 
 ASP623  PHE694  ASN695  SER759  ASP760  ASP761  ALA762  ILE779  LEU786  VAL792 
 PHE793  MET794  SER795  GLU796  ALA797  LYS798  CYS799  TRP800  GLU811  SER814 

> <Gold.Protein.RotatedAtoms>
  151.6976  135.0935  160.0244 H   0  0  0  0  0  0  0  0  0  0  0  0  # atno 6907 bound_to 6896
  152.3740  133.6452  159.6117 H   0  0  0  0  0  0  0  0  0  0  0  0  # atno 6908 bound_to 6896
  150.7695  133.9140  159.3419 H   0  0  0  0  0  0  0  0  0  0  0  0  # atno 6909 bound_to 6896
  146.1845  139.7349  142.8876 H   0  0  0  0  0  0  0  0  0  0  0  0  # atno 7974 bound_to 7965
  154.8796  140.2971  155.5433 H   0  0  0  0  0  0  0  0  0  0  0  0  # atno 8008 bound_to 7997
  156.3022  140.2445  156.3730 H   0  0  0  0  0  0  0  0  0  0  0  0  # atno 8009 bound_to 7997
  154.8731  140.0400  157.1726 H   0  0  0  0  0  0  0  0  0  0  0  0  # atno 8010 bound_to 7997
  140.5885  143.8841  150.6852 H   0  0  0  0  0  0  0  0  0  0  0  0  # atno 10167 bound_to 10162
  156.6110  130.8850  151.2936 H   0  0  0  0  0  0  0  0  0  0  0  0  # atno 10718 bound_to 10713
  153.2331  135.4316  155.0617 H   0  0  0  0  0  0  0  0  0  0  0  0  # atno 10763 bound_to 10752
  154.8306  135.3384  154.6758 H   0  0  0  0  0  0  0  0  0  0  0  0  # atno 10764 bound_to 10752
  153.7184  135.7018  153.5075 H   0  0  0  0  0  0  0  0  0  0  0  0  # atno 10765 bound_to 10752
  141.0990  133.8919  157.1891 H   0  0  0  0  0  0  0  0  0  0  0  0  # atno 11005 bound_to 11000
  145.3978  141.0381  143.3087 LP  0  0  0  0  0  0  0  0  0  0  0  0  # atno 17320 bound_to 7965
  144.8373  139.5529  143.6916 LP  0  0  0  0  0  0  0  0  0  0  0  0  # atno 17321 bound_to 7965
  140.2358  143.3701  152.1528 LP  0  0  0  0  0  0  0  0  0  0  0  0  # atno 17342 bound_to 10162
  139.5213  144.7044  151.5398 LP  0  0  0  0  0  0  0  0  0  0  0  0  # atno 17343 bound_to 10162
  157.7254  130.9616  150.1614 LP  0  0  0  0  0  0  0  0  0  0  0  0  # atno 17370 bound_to 10713
  156.2390  130.3689  149.8358 LP  0  0  0  0  0  0  0  0  0  0  0  0  # atno 17371 bound_to 10713
  139.9835  135.0090  156.9806 LP  0  0  0  0  0  0  0  0  0  0  0  0  # atno 17394 bound_to 11000
  140.5070  134.1040  155.7262 LP  0  0  0  0  0  0  0  0  0  0  0  0  # atno 17395 bound_to 11000

$$$$
