AV-unprocessed.smi:910|AV-procd|sdf|4125|dock8
  -GOLD-   22720 2 23D 1   1.00000     0.00000
 Structure written by MMmdl.
 46 47  0  0  0  0  0  0  0  0  1 V2000
  156.5518  133.8872  157.4431 C   0  0  0  0  0  0  0  0  0  0  0  0
  155.6696  134.5512  158.4770 C   0  0  0  0  0  0  0  0  0  0  0  0
  155.2380  135.8410  158.3415 N   0  0  0  0  0  0  0  0  0  0  0  0
  154.4472  136.1543  159.4447 C   0  0  0  0  0  0  0  0  0  0  0  0
  153.8160  137.2331  159.7941 N   0  0  0  0  0  0  0  0  0  0  0  0
  153.8803  138.3275  158.9484 C   0  0  0  0  0  0  0  0  0  0  0  0
  154.8298  138.6618  158.2326 O   0  0  0  0  0  0  0  0  0  0  0  0
  152.7679  139.0714  159.0495 N   0  0  0  0  0  0  0  0  0  0  0  0
  152.5530  140.3603  158.3986 C   0  0  0  0  0  0  0  0  0  0  0  0
  151.2271  140.9896  158.8484 C   0  0  0  0  0  0  0  0  0  0  0  0
  151.4802  141.8537  159.9464 O   0  0  0  0  0  0  0  0  0  0  0  0
  152.5936  142.7266  159.7993 C   0  0  1  0  0  0  0  0  0  0  0  0
  152.4549  143.5975  158.5305 C   0  0  0  0  0  0  0  0  0  0  0  0
  151.2331  144.5267  158.6117 C   0  0  0  0  0  0  0  0  0  0  0  0
  151.2938  145.4076  159.8682 C   0  0  0  0  0  0  0  0  0  0  0  0
  151.4391  144.5575  161.1407 C   0  0  0  0  0  0  0  0  0  0  0  0
  152.6619  143.6198  161.0591 C   0  0  1  0  0  0  0  0  0  0  0  0
  152.8338  142.7949  162.3441 C   0  0  0  0  0  0  0  0  0  0  0  0
  154.4227  135.0298  160.2304 O   0  0  0  0  0  0  0  0  0  0  0  0
  155.1738  134.0737  159.6156 C   0  0  0  0  0  0  0  0  0  0  0  0
  155.3125  132.7204  160.2752 C   0  0  0  0  0  0  0  0  0  0  0  0
  156.0652  132.9951  157.0487 H   0  0  0  0  0  0  0  0  0  0  0  0
  157.5015  133.5936  157.8907 H   0  0  0  0  0  0  0  0  0  0  0  0
  156.7568  134.5626  156.6119 H   0  0  0  0  0  0  0  0  0  0  0  0
  155.4745  136.4306  157.5563 H   0  0  0  0  0  0  0  0  0  0  0  0
  152.0358  138.7431  159.6627 H   0  0  0  0  0  0  0  0  0  0  0  0
  153.3847  141.0412  158.5862 H   0  0  0  0  0  0  0  0  0  0  0  0
  152.5298  140.1922  157.3218 H   0  0  0  0  0  0  0  0  0  0  0  0
  150.7887  141.5585  158.0276 H   0  0  0  0  0  0  0  0  0  0  0  0
  150.5220  140.2024  159.1133 H   0  0  0  0  0  0  0  0  0  0  0  0
  153.5098  142.1365  159.7382 H   0  0  0  0  0  0  0  0  0  0  0  0
  153.3548  144.2028  158.4145 H   0  0  0  0  0  0  0  0  0  0  0  0
  152.3976  142.9845  157.6322 H   0  0  0  0  0  0  0  0  0  0  0  0
  151.1822  145.1536  157.7212 H   0  0  0  0  0  0  0  0  0  0  0  0
  150.3191  143.9317  158.6217 H   0  0  0  0  0  0  0  0  0  0  0  0
  152.1372  146.0946  159.7907 H   0  0  0  0  0  0  0  0  0  0  0  0
  150.3990  146.0262  159.9310 H   0  0  0  0  0  0  0  0  0  0  0  0
  151.5287  145.2132  162.0073 H   0  0  0  0  0  0  0  0  0  0  0  0
  150.5324  143.9710  161.2933 H   0  0  0  0  0  0  0  0  0  0  0  0
  153.5492  144.2479  160.9660 H   0  0  0  0  0  0  0  0  0  0  0  0
  151.9700  142.1549  162.5268 H   0  0  0  0  0  0  0  0  0  0  0  0
  152.9540  143.4433  163.2123 H   0  0  0  0  0  0  0  0  0  0  0  0
  153.7153  142.1561  162.2855 H   0  0  0  0  0  0  0  0  0  0  0  0
  155.0832  131.9271  159.5637 H   0  0  0  0  0  0  0  0  0  0  0  0
  154.6295  132.6347  161.1203 H   0  0  0  0  0  0  0  0  0  0  0  0
  156.3312  132.5793  160.6367 H   0  0  0  0  0  0  0  0  0  0  0  0
  1 22  1  0  0  0  0
  1 23  1  0  0  0  0
  1 24  1  0  0  0  0
  1  2  1  0  0  0  0
  2  3  1  0  0  0  0
  2 20  2  0  0  0  0
  3 25  1  0  0  0  0
  3  4  1  0  0  0  0
  4 19  1  0  0  0  0
  4  5  2  0  0  0  0
  5  6  1  0  0  0  0
  6  8  1  0  0  0  0
  6  7  2  0  0  0  0
  8  9  1  0  0  0  0
  8 26  1  0  0  0  0
  9 10  1  0  0  0  0
  9 27  1  0  0  0  0
  9 28  1  0  0  0  0
 10 11  1  0  0  0  0
 10 29  1  0  0  0  0
 10 30  1  0  0  0  0
 11 12  1  0  0  0  0
 12 17  1  0  0  0  0
 12 13  1  0  0  0  0
 12 31  1  0  0  0  0
 13 14  1  0  0  0  0
 13 32  1  0  0  0  0
 13 33  1  0  0  0  0
 14 15  1  0  0  0  0
 14 34  1  0  0  0  0
 14 35  1  0  0  0  0
 15 16  1  0  0  0  0
 15 36  1  0  0  0  0
 15 37  1  0  0  0  0
 16 17  1  0  0  0  0
 16 38  1  0  0  0  0
 16 39  1  0  0  0  0
 17 18  1  0  0  0  0
 17 40  1  0  0  0  0
 18 41  1  0  0  0  0
 18 42  1  0  0  0  0
 18 43  1  0  0  0  0
 19 20  1  0  0  0  0
 20 21  1  0  0  0  0
 21 44  1  0  0  0  0
 21 45  1  0  0  0  0
 21 46  1  0  0  0  0
M  END
> <s_m_source_file>
AV-unprocessed.smi

> <i_m_source_file_index>
910

> <i_lp_mmshare_version>
43012

> <i_f3d_flags>
0

> <s_epik_input>
W0NIM11jMW5jKG9jMVtDSDNdKVtOSF1DKD1PKVtOSF1bQ0gyXVtDSDJdT1tDQEBIXTJbQ0gyXVtDSDJdW0NIMl1bQ0gyXVtDQEhdMltDSDNd

> <s_epik_cmdline>
J2VwaWtfcHl0aG9uJywgJy1waCcsICc3LjAnLCAnLXRuJywgJzgnLCAnLW1hJywgJzIwMCcsICctbWV0YWxfYmluZGluZycsICctaW1hZScsICc8aW5maWxlLm1hZT4nLCAnLW9tYWUnLCAnPG91dGZpbGUubWFlPic=

> <r_lp_tautomer_probability>
0.107061

> <r_epik_Ionization_Penalty>
0.727192

> <r_epik_Ionization_Penalty_Charging>
0.726719

> <r_epik_Ionization_Penalty_Neutral>
0.000473387

> <r_epik_State_Penalty>
2.53712

> <r_epik_Charging_Adjusted_Penalty>
3.26383

> <i_epik_Tot_Q>
0

> <i_epik_Tot_abs_Q>
0

> <r_epik_Metal_State_Penalty>
3.71015

> <b_epik_Metal_Only>
0

> <s_lp_Force_Field>
OPLS_2005

> <r_lp_Energy>
28.9635

> <b_lp_Chiralities_Consistent>
1

> <s_lp_Variant>
AV-unprocessed.smi:910-10

> <Gold.Version>
5.8.1

> <Gold.Id.Protein>
6NUR|6NUR_protein|mol2

> <Gold.PLP.Fitness>
42.6726

> <Gold.PLP.PLP>
-37.6292

> <Gold.PLP.part.hbond>
-2.6930

> <Gold.PLP.part.metal>
0.0000

> <Gold.PLP.part.buried>
-3.4500

> <Gold.PLP.part.nonpolar>
-30.3277

> <Gold.PLP.part.repulsive>
0.1528

> <Gold.PLP.ligand.clash>
0.0000

> <Gold.PLP.ligand.torsion>
0.4940

> <Gold.PLP.Chemscore.Hbond>
2.0000

> <Gold.PLP.Chemscore.CHOScore>
0.0000

> <Gold.PLP.Chemscore.Metal>
0.0000

> <Gold.Chemscore.Hbonds>
donor molecule, donor type, donor heavy atom, donor atom, acceptor molecule, acceptor atom, score
      P1  H  6896  6908       L1    19  0.90
      P1  H  7997  8008       L1     7  0.94

> <Gold.PLP.Chemscore.Internal.Correction>
0.0314

> <Gold.Rescore>
     Score         DG    S(hbond)    S(metal)    S(lipo)     H(rot)  DE(clash)    DE(int)     intcor
     17.62     -19.59       1.75        0.00     106.77       1.66       0.15       1.82       ----

> <Gold.Chemscore.Fitness>
17.6204

> <Gold.Chemscore.DG>
-19.5865

> <Gold.Chemscore.ZeroCoef>
-5.4800

> <Gold.Chemscore.Hbond>
1.7540

> <Gold.Chemscore.Metal>
0.0000

> <Gold.Chemscore.Lipo>
106.7659

> <Gold.Chemscore.Internal_Hbond>
0.0000

> <Gold.Chemscore.DEClash>
0.1484

> <Gold.Chemscore.DEInternal>
1.8178

> <Gold.Chemscore.Rot>
1.6576

> <Gold.Chemscore.Internal.Correction>
   9.000000E+99

> <Gold.Chemscore.Hbonds>
donor molecule, donor type, donor heavy atom, donor atom, acceptor molecule, acceptor atom, score
      P1  H  6896  6908       L1    19  0.11
      P1  H  7997  8008       L1     7  0.91

> <Gold.Chemscore.Hbond.Weighted>
-5.8585

> <Gold.Chemscore.Metal.Weighted>
-0.0000

> <Gold.Chemscore.Lipo.Weighted>
-12.4916

> <Gold.Chemscore.Internal_Hbond.Weighted>
0.0000

> <Gold.Chemscore.DEClash.Weighted>
0.1484

> <Gold.Chemscore.DEInternal.Weighted>
1.8178

> <Gold.Chemscore.Rot.Weighted>
4.2436

> <Gold.Chemscore.Internal.Correction.Weighted>
   9.000000E+99

> <Gold.Protein.RotatedTorsions>
[ 6907 6896 6895 6894 ] final  -54.16 input  -60.11 | X-H torsion
[ 7974 7965 7964 7962 ] final   94.81 input  175.53 | X-H torsion
[ 8008 7997 7996 7995 ] final -133.49 input   59.86 | X-H torsion
[ 10167 10162 10161 10158 ] final   30.95 input  -65.29 | X-H torsion
[ 10718 10713 10712 10709 ] final   -2.46 input   66.30 | X-H torsion
[ 10763 10752 10751 10750 ] final  -51.37 input  -60.55 | X-H torsion
[ 11005 11000 10999 10996 ] final   -4.86 input  -57.11 | X-H torsion

> <Gold.Protein.ActiveResidues>
 VAL166  LYS551  ARG553  GLY616  TRP617  ASP618  TYR619  PRO620  LYS621  CYS622 
 ASP623  PHE694  ASN695  SER759  ASP760  ASP761  ALA762  ILE779  LEU786  VAL792 
 PHE793  MET794  SER795  GLU796  ALA797  LYS798  CYS799  TRP800  GLU811  SER814 

> <Gold.Protein.RotatedAtoms>
  150.8362  134.7637  159.6894 H   0  0  0  0  0  0  0  0  0  0  0  0  # atno 6907 bound_to 6896
  152.4459  134.5493  159.9872 H   0  0  0  0  0  0  0  0  0  0  0  0  # atno 6908 bound_to 6896
  151.5643  133.3361  159.3013 H   0  0  0  0  0  0  0  0  0  0  0  0  # atno 6909 bound_to 6896
  145.4606  139.2287  143.2989 H   0  0  0  0  0  0  0  0  0  0  0  0  # atno 7974 bound_to 7965
  155.3464  140.0475  157.3045 H   0  0  0  0  0  0  0  0  0  0  0  0  # atno 8008 bound_to 7997
  154.5250  140.2238  155.8871 H   0  0  0  0  0  0  0  0  0  0  0  0  # atno 8009 bound_to 7997
  156.1730  140.3091  155.9014 H   0  0  0  0  0  0  0  0  0  0  0  0  # atno 8010 bound_to 7997
  140.4632  144.0875  150.6218 H   0  0  0  0  0  0  0  0  0  0  0  0  # atno 10167 bound_to 10162
  156.7904  130.5360  149.5736 H   0  0  0  0  0  0  0  0  0  0  0  0  # atno 10718 bound_to 10713
  154.1255  135.6528  153.4911 H   0  0  0  0  0  0  0  0  0  0  0  0  # atno 10763 bound_to 10752
  153.0211  135.5280  154.7054 H   0  0  0  0  0  0  0  0  0  0  0  0  # atno 10764 bound_to 10752
  154.6273  135.2972  155.0227 H   0  0  0  0  0  0  0  0  0  0  0  0  # atno 10765 bound_to 10752
  140.6849  133.9122  155.8579 H   0  0  0  0  0  0  0  0  0  0  0  0  # atno 11005 bound_to 11000
  146.2453  140.5375  142.8916 LP  0  0  0  0  0  0  0  0  0  0  0  0  # atno 17320 bound_to 7965
  144.8005  140.6204  143.6481 LP  0  0  0  0  0  0  0  0  0  0  0  0  # atno 17321 bound_to 7965
  140.4068  143.2676  151.9881 LP  0  0  0  0  0  0  0  0  0  0  0  0  # atno 17342 bound_to 10162
  139.4809  144.5950  151.7706 LP  0  0  0  0  0  0  0  0  0  0  0  0  # atno 17343 bound_to 10162
  156.1162  130.6077  151.0124 LP  0  0  0  0  0  0  0  0  0  0  0  0  # atno 17370 bound_to 10713
  157.6603  131.0882  150.7854 LP  0  0  0  0  0  0  0  0  0  0  0  0  # atno 17371 bound_to 10713
  141.0288  134.0785  157.4038 LP  0  0  0  0  0  0  0  0  0  0  0  0  # atno 17394 bound_to 11000
  139.8941  135.0134  156.6931 LP  0  0  0  0  0  0  0  0  0  0  0  0  # atno 17395 bound_to 11000

$$$$
