AV-unprocessed.smi:227|AV-procd|sdf|1733|dock7
  -GOLD-   2262020223D 1   1.00000     0.00000
 Structure written by MMmdl.
 54 58  0  0  0  0  0  0  0  0  1 V2000
  147.5951  138.6209  158.0704 O   0  0  0  0  0  0  0  0  0  0  0  0
  148.7222  138.5714  157.2186 C   0  0  0  0  0  0  0  0  0  0  0  0
  148.4062  137.8416  155.8923 C   0  0  2  0  0  0  0  0  0  0  0  0
  148.0841  136.3539  156.1881 C   0  0  0  0  0  0  0  0  0  0  0  0
  147.2434  135.7148  155.1908 N   0  0  0  0  0  0  0  0  0  0  0  0
  145.9554  136.0644  154.8565 C   0  0  0  0  0  0  0  0  0  0  0  0
  145.4047  135.3314  153.9287 N   0  0  0  0  0  0  0  0  0  0  0  0
  146.3751  134.3869  153.6134 C   0  0  0  0  0  0  0  0  0  0  0  0
  146.4467  133.2969  152.6980 C   0  0  0  0  0  0  0  0  0  0  0  0
  145.4312  132.9450  151.8626 N   0  0  0  0  0  0  0  0  0  0  0  0
  144.1143  133.5588  151.9780 C   0  0  1  0  0  0  0  0  0  0  0  0
  144.3032  134.9738  151.3916 C   0  0  0  0  0  0  0  0  0  0  0  0
  145.3577  134.7083  150.3073 C   0  0  0  0  0  0  0  0  0  0  0  0
  145.5440  133.1798  150.4308 C   0  0  2  0  0  0  0  0  0  0  0  0
  144.3133  132.4063  149.9024 C   0  0  2  0  0  0  0  0  0  0  0  0
  143.8528  132.7052  148.4635 C   0  0  0  0  0  0  0  0  0  0  0  0
  142.6486  132.0236  148.1842 O   0  0  0  0  0  0  0  0  0  0  0  0
  143.2741  132.7275  150.9925 C   0  0  0  0  0  0  0  0  0  0  0  0
  147.6141  132.6009  152.6508 N   0  0  0  0  0  0  0  0  0  0  0  0
  148.6293  132.9219  153.4571 C   0  0  0  0  0  0  0  0  0  0  0  0
  148.6965  133.8964  154.3649 N   0  0  0  0  0  0  0  0  0  0  0  0
  147.5383  134.6146  154.4042 C   0  0  0  0  0  0  0  0  0  0  0  0
  149.5155  138.0529  154.8206 C   0  0  2  0  0  0  0  0  0  0  0  0
  150.8825  137.5087  155.2062 C   0  0  0  0  0  0  0  0  0  0  0  0
  151.8031  138.2422  154.2426 C   0  0  0  0  0  0  0  0  0  0  0  0
  151.2571  139.5495  154.1632 O   0  0  0  0  0  0  0  0  0  0  0  0
  149.8729  139.5138  154.5003 C   0  0  0  0  0  0  0  0  0  0  0  0
  147.3819  139.5266  158.2360 H   0  0  0  0  0  0  0  0  0  0  0  0
  149.0537  139.5914  157.0221 H   0  0  0  0  0  0  0  0  0  0  0  0
  149.5416  138.0862  157.7488 H   0  0  0  0  0  0  0  0  0  0  0  0
  147.4946  138.3040  155.5115 H   0  0  0  0  0  0  0  0  0  0  0  0
  149.0065  135.7818  156.2923 H   0  0  0  0  0  0  0  0  0  0  0  0
  147.5644  136.2681  157.1432 H   0  0  0  0  0  0  0  0  0  0  0  0
  145.4374  136.8926  155.3180 H   0  0  0  0  0  0  0  0  0  0  0  0
  143.6944  133.5589  152.9845 H   0  0  0  0  0  0  0  0  0  0  0  0
  143.3784  135.3894  150.9901 H   0  0  0  0  0  0  0  0  0  0  0  0
  144.6869  135.6685  152.1395 H   0  0  0  0  0  0  0  0  0  0  0  0
  145.0529  135.0402  149.3162 H   0  0  0  0  0  0  0  0  0  0  0  0
  146.2866  135.2260  150.5500 H   0  0  0  0  0  0  0  0  0  0  0  0
  146.4671  132.8284  149.9735 H   0  0  0  0  0  0  0  0  0  0  0  0
  144.5421  131.3404  149.9623 H   0  0  0  0  0  0  0  0  0  0  0  0
  143.6763  133.7748  148.3474 H   0  0  0  0  0  0  0  0  0  0  0  0
  144.6078  132.4349  147.7261 H   0  0  0  0  0  0  0  0  0  0  0  0
  142.3367  132.2991  147.3358 H   0  0  0  0  0  0  0  0  0  0  0  0
  142.9155  131.8095  151.4598 H   0  0  0  0  0  0  0  0  0  0  0  0
  142.4076  133.2750  150.6195 H   0  0  0  0  0  0  0  0  0  0  0  0
  149.5147  132.3113  153.3587 H   0  0  0  0  0  0  0  0  0  0  0  0
  149.2134  137.5655  153.8919 H   0  0  0  0  0  0  0  0  0  0  0  0
  151.1279  137.7779  156.2348 H   0  0  0  0  0  0  0  0  0  0  0  0
  150.9589  136.4255  155.1066 H   0  0  0  0  0  0  0  0  0  0  0  0
  152.8403  138.2588  154.5777 H   0  0  0  0  0  0  0  0  0  0  0  0
  151.7684  137.7815  153.2544 H   0  0  0  0  0  0  0  0  0  0  0  0
  149.2796  139.9063  153.6753 H   0  0  0  0  0  0  0  0  0  0  0  0
  149.7218  140.1606  155.3651 H   0  0  0  0  0  0  0  0  0  0  0  0
  1  2  1  0  0  0  0
  1 28  1  0  0  0  0
  2  3  1  0  0  0  0
  2 29  1  0  0  0  0
  2 30  1  0  0  0  0
  3  4  1  0  0  0  0
  3 23  1  0  0  0  0
  3 31  1  0  0  0  0
  4  5  1  0  0  0  0
  4 32  1  0  0  0  0
  4 33  1  0  0  0  0
  5 22  1  0  0  0  0
  5  6  1  0  0  0  0
  6  7  2  0  0  0  0
  6 34  1  0  0  0  0
  7  8  1  0  0  0  0
  8 22  2  0  0  0  0
  8  9  1  0  0  0  0
  9 10  1  0  0  0  0
  9 19  2  0  0  0  0
 10 14  1  0  0  0  0
 10 11  1  0  0  0  0
 11 18  1  0  0  0  0
 11 12  1  0  0  0  0
 11 35  1  0  0  0  0
 12 13  1  0  0  0  0
 12 36  1  0  0  0  0
 12 37  1  0  0  0  0
 13 14  1  0  0  0  0
 13 38  1  0  0  0  0
 13 39  1  0  0  0  0
 14 15  1  0  0  0  0
 14 40  1  0  0  0  0
 15 16  1  0  0  0  0
 15 18  1  0  0  0  0
 15 41  1  0  0  0  0
 16 17  1  0  0  0  0
 16 42  1  0  0  0  0
 16 43  1  0  0  0  0
 17 44  1  0  0  0  0
 18 45  1  0  0  0  0
 18 46  1  0  0  0  0
 19 20  1  0  0  0  0
 20 21  2  0  0  0  0
 20 47  1  0  0  0  0
 21 22  1  0  0  0  0
 23 27  1  0  0  0  0
 23 24  1  0  0  0  0
 23 48  1  0  0  0  0
 24 25  1  0  0  0  0
 24 49  1  0  0  0  0
 24 50  1  0  0  0  0
 25 26  1  0  0  0  0
 25 51  1  0  0  0  0
 25 52  1  0  0  0  0
 26 27  1  0  0  0  0
 27 53  1  0  0  0  0
 27 54  1  0  0  0  0
M  END
> <s_m_source_file>
AV-unprocessed.smi

> <i_m_source_file_index>
227

> <i_lp_mmshare_version>
43012

> <i_f3d_flags>
0

> <s_epik_input>
W0NIMl0xT1tDSDJdW0NIMl1bQ0BIXTFbQ0BIXShbQ0gyXVtPSF0pW0NIMl1uKFtjSF1uMiljKGMyMyluW2NIXW5jM04oW0NASF00NSlbQ0BASF0oW0NIMl1bQ0gyXTQpW0NASF0oW0NIMl01KVtDSDJdW09IXQ==

> <s_epik_cmdline>
J2VwaWtfcHl0aG9uJywgJy1waCcsICc3LjAnLCAnLXRuJywgJzgnLCAnLW1hJywgJzIwMCcsICctbWV0YWxfYmluZGluZycsICctaW1hZScsICc8aW5maWxlLm1hZT4nLCAnLW9tYWUnLCAnPG91dGZpbGUubWFlPic=

> <r_lp_tautomer_probability>
1

> <r_epik_Ionization_Penalty>
0.0055791

> <r_epik_Ionization_Penalty_Charging>
0

> <r_epik_Ionization_Penalty_Neutral>
0.0055791

> <r_epik_State_Penalty>
0.00401299

> <r_epik_Charging_Adjusted_Penalty>
0.00401299

> <i_epik_Tot_Q>
0

> <i_epik_Tot_abs_Q>
0

> <r_epik_Metal_State_Penalty>
-0

> <b_epik_Metal_Only>
0

> <s_lp_Force_Field>
OPLS_2005

> <r_lp_Energy>
89.6515

> <b_lp_Chiralities_Consistent>
1

> <s_lp_Variant>
AV-unprocessed.smi:227-7

> <Gold.Version>
5.8.1

> <Gold.Id.Protein>
6NUR|6NUR_protein|mol2

> <Gold.PLP.Fitness>
48.5843

> <Gold.PLP.PLP>
-41.4208

> <Gold.PLP.part.hbond>
-5.3489

> <Gold.PLP.part.metal>
0.0000

> <Gold.PLP.part.buried>
-5.3889

> <Gold.PLP.part.nonpolar>
-30.4078

> <Gold.PLP.part.repulsive>
0.5585

> <Gold.PLP.ligand.clash>
0.0000

> <Gold.PLP.ligand.torsion>
0.4547

> <Gold.PLP.Chemscore.Hbond>
2.6537

> <Gold.PLP.Chemscore.CHOScore>
0.0000

> <Gold.PLP.Chemscore.Metal>
0.0000

> <Gold.Chemscore.Hbonds>
donor molecule, donor type, donor heavy atom, donor atom, acceptor molecule, acceptor atom, score
      L1  H    17    44       P1 10195  0.89
      P1  H  7989  7998       L1    26  0.96
      P1  H 10785 10796       L1    17  0.77

> <Gold.PLP.Chemscore.Internal.Correction>
0.1118

> <Gold.Rescore>
     Score         DG    S(hbond)    S(metal)    S(lipo)     H(rot)  DE(clash)    DE(int)     intcor
     10.17     -13.42       2.24        0.00      82.89       3.61       0.39       2.86       ----

> <Gold.Chemscore.Fitness>
10.1659

> <Gold.Chemscore.DG>
-13.4192

> <Gold.Chemscore.ZeroCoef>
-5.4800

> <Gold.Chemscore.Hbond>
2.2380

> <Gold.Chemscore.Metal>
0.0000

> <Gold.Chemscore.Lipo>
82.8940

> <Gold.Chemscore.Internal_Hbond>
0.0000

> <Gold.Chemscore.DEClash>
0.3928

> <Gold.Chemscore.DEInternal>
2.8605

> <Gold.Chemscore.Rot>
3.6071

> <Gold.Chemscore.Internal.Correction>
   9.000000E+99

> <Gold.Chemscore.Hbonds>
donor molecule, donor type, donor heavy atom, donor atom, acceptor molecule, acceptor atom, score
      L1  H    17    44       P1 10195  0.87
      P1  H  7989  7998       L1    26  0.75
      P1  H 10785 10796       L1    17  0.18

> <Gold.Chemscore.Hbond.Weighted>
-7.4748

> <Gold.Chemscore.Metal.Weighted>
-0.0000

> <Gold.Chemscore.Lipo.Weighted>
-9.6986

> <Gold.Chemscore.Internal_Hbond.Weighted>
0.0000

> <Gold.Chemscore.DEClash.Weighted>
0.3928

> <Gold.Chemscore.DEInternal.Weighted>
2.8605

> <Gold.Chemscore.Rot.Weighted>
9.2342

> <Gold.Chemscore.Internal.Correction.Weighted>
   9.000000E+99

> <Gold.Protein.RotatedTorsions>
[ 6907 6896 6895 6894 ] final  -78.60 input  -60.11 | X-H torsion
[ 7974 7965 7964 7962 ] final -146.56 input  175.53 | X-H torsion
[ 8008 7997 7996 7995 ] final  159.39 input   59.86 | X-H torsion
[ 10167 10162 10161 10158 ] final  -67.56 input  -65.29 | X-H torsion
[ 10718 10713 10712 10709 ] final   23.19 input   66.30 | X-H torsion
[ 10763 10752 10751 10750 ] final -171.92 input  -60.55 | X-H torsion
[ 11005 11000 10999 10996 ] final -122.62 input  -57.11 | X-H torsion

> <Gold.Protein.ActiveResidues>
 VAL166  LYS551  ARG553  GLY616  TRP617  ASP618  TYR619  PRO620  LYS621  CYS622 
 ASP623  PHE694  ASN695  SER759  ASP760  ASP761  ALA762  ILE779  LEU786  VAL792 
 PHE793  MET794  SER795  GLU796  ALA797  LYS798  CYS799  TRP800  GLU811  SER814 

> <Gold.Protein.RotatedAtoms>
  150.6969  134.4247  159.5220 H   0  0  0  0  0  0  0  0  0  0  0  0  # atno 6907 bound_to 6896
  152.1984  134.8607  160.0519 H   0  0  0  0  0  0  0  0  0  0  0  0  # atno 6908 bound_to 6896
  151.9536  133.3638  159.4046 H   0  0  0  0  0  0  0  0  0  0  0  0  # atno 6909 bound_to 6896
  144.8151  140.5439  143.5616 H   0  0  0  0  0  0  0  0  0  0  0  0  # atno 7974 bound_to 7965
  156.2241  140.1832  156.7405 H   0  0  0  0  0  0  0  0  0  0  0  0  # atno 8008 bound_to 7997
  154.5913  140.0650  156.9271 H   0  0  0  0  0  0  0  0  0  0  0  0  # atno 8009 bound_to 7997
  155.2331  140.3316  155.4303 H   0  0  0  0  0  0  0  0  0  0  0  0  # atno 8010 bound_to 7997
  140.5573  143.2312  151.6796 H   0  0  0  0  0  0  0  0  0  0  0  0  # atno 10167 bound_to 10162
  157.1627  130.6724  149.6049 H   0  0  0  0  0  0  0  0  0  0  0  0  # atno 10718 bound_to 10713
  154.6251  135.2880  155.0281 H   0  0  0  0  0  0  0  0  0  0  0  0  # atno 10763 bound_to 10752
  154.1462  135.6510  153.4957 H   0  0  0  0  0  0  0  0  0  0  0  0  # atno 10764 bound_to 10752
  153.0253  135.5345  154.7056 H   0  0  0  0  0  0  0  0  0  0  0  0  # atno 10765 bound_to 10752
  140.9981  134.0442  157.3571 H   0  0  0  0  0  0  0  0  0  0  0  0  # atno 11005 bound_to 11000
  145.5233  139.1476  143.3540 LP  0  0  0  0  0  0  0  0  0  0  0  0  # atno 17320 bound_to 7965
  146.2453  140.5374  142.8916 LP  0  0  0  0  0  0  0  0  0  0  0  0  # atno 17321 bound_to 7965
  139.5054  144.3719  152.0461 LP  0  0  0  0  0  0  0  0  0  0  0  0  # atno 17342 bound_to 10162
  140.2842  144.3825  150.6109 LP  0  0  0  0  0  0  0  0  0  0  0  0  # atno 17343 bound_to 10162
  155.9751  130.4706  150.6436 LP  0  0  0  0  0  0  0  0  0  0  0  0  # atno 17370 bound_to 10713
  157.4118  131.0824  151.1214 LP  0  0  0  0  0  0  0  0  0  0  0  0  # atno 17371 bound_to 10713
  139.9025  135.0169  156.7335 LP  0  0  0  0  0  0  0  0  0  0  0  0  # atno 17394 bound_to 11000
  140.6933  133.9371  155.7979 LP  0  0  0  0  0  0  0  0  0  0  0  0  # atno 17395 bound_to 11000

$$$$
