AV-unprocessed.smi:466|AV-procd|sdf|2642|dock5
  -GOLD-   2262023 53D 1   1.00000     0.00000
 Structure written by MMmdl.
 44 46  0  0  0  0  0  0  0  0  2 V2000
  157.2023  140.3661  159.7709 C   0  0  0  0  0  0  0  0  0  0  0  0
  155.8673  140.1673  159.3306 O   0  0  0  0  0  0  0  0  0  0  0  0
  155.1142  139.1870  159.9446 C   0  0  0  0  0  0  0  0  0  0  0  0
  155.5898  138.3797  161.0085 C   0  0  0  0  0  0  0  0  0  0  0  0
  154.7608  137.4016  161.5874 C   0  0  0  0  0  0  0  0  0  0  0  0
  153.4514  137.2177  161.1110 C   0  0  0  0  0  0  0  0  0  0  0  0
  152.9693  138.0122  160.0549 C   0  0  0  0  0  0  0  0  0  0  0  0
  153.7965  139.0015  159.4673 C   0  0  0  0  0  0  0  0  0  0  0  0
  153.3965  139.8174  158.4324 O   0  0  0  0  0  0  0  0  0  0  0  0
  152.3300  139.3986  157.5934 C   0  0  0  0  0  0  0  0  0  0  0  0
  151.0085  139.8868  158.2054 C   0  0  0  0  0  0  0  0  0  0  0  0
  150.8089  141.3322  158.0073 N   0  0  0  0  0  0  0  0  0  0  0  0
  150.0818  142.0045  157.0661 C   0  0  0  0  0  0  0  0  0  0  0  0
  149.2582  141.4054  155.9664 C   0  0  0  0  0  0  0  0  0  0  0  0
  150.1092  140.6503  154.9339 C   0  0  0  0  0  0  0  0  0  0  0  0
  149.5981  140.8787  153.6384 O   0  0  0  0  0  0  0  0  0  0  0  0
  150.1866  143.3338  157.3557 N   0  3  0  0  0  0  0  0  0  0  0  0
  150.9943  143.5153  158.4779 C   0  0  0  0  0  0  0  0  0  0  0  0
  151.3831  144.6749  159.1416 C   0  0  0  0  0  0  0  0  0  0  0  0
  152.2058  144.5097  160.2751 C   0  0  0  0  0  0  0  0  0  0  0  0
  152.6124  143.2306  160.7061 C   0  0  0  0  0  0  0  0  0  0  0  0
  152.2163  142.0633  160.0209 C   0  0  0  0  0  0  0  0  0  0  0  0
  151.3997  142.2342  158.9024 C   0  0  0  0  0  0  0  0  0  0  0  0
  157.6560  141.1671  159.1872 H   0  0  0  0  0  0  0  0  0  0  0  0
  157.8073  139.4700  159.6271 H   0  0  0  0  0  0  0  0  0  0  0  0
  157.2367  140.6626  160.8200 H   0  0  0  0  0  0  0  0  0  0  0  0
  156.5892  138.4918  161.4002 H   0  0  0  0  0  0  0  0  0  0  0  0
  155.1311  136.7915  162.3980 H   0  0  0  0  0  0  0  0  0  0  0  0
  152.8158  136.4657  161.5555 H   0  0  0  0  0  0  0  0  0  0  0  0
  151.9606  137.8422  159.7109 H   0  0  0  0  0  0  0  0  0  0  0  0
  152.4510  139.8154  156.5927 H   0  0  0  0  0  0  0  0  0  0  0  0
  152.3135  138.3105  157.5095 H   0  0  0  0  0  0  0  0  0  0  0  0
  150.1610  139.3466  157.7829 H   0  0  0  0  0  0  0  0  0  0  0  0
  150.9902  139.6831  159.2754 H   0  0  0  0  0  0  0  0  0  0  0  0
  148.5228  140.7240  156.3933 H   0  0  0  0  0  0  0  0  0  0  0  0
  148.6976  142.2044  155.4801 H   0  0  0  0  0  0  0  0  0  0  0  0
  151.1481  140.9800  154.9645 H   0  0  0  0  0  0  0  0  0  0  0  0
  150.0972  139.5786  155.1350 H   0  0  0  0  0  0  0  0  0  0  0  0
  149.8437  140.1540  153.0834 H   0  0  0  0  0  0  0  0  0  0  0  0
  151.0691  145.6556  158.8154 H   0  0  0  0  0  0  0  0  0  0  0  0
  152.5288  145.3809  160.8266 H   0  0  0  0  0  0  0  0  0  0  0  0
  153.2383  143.1412  161.5819 H   0  0  0  0  0  0  0  0  0  0  0  0
  152.5262  141.0887  160.3677 H   0  0  0  0  0  0  0  0  0  0  0  0
  149.7284  144.0637  156.8255 H   0  0  0  0  0  0  0  0  0  0  0  0
  1  2  1  0  0  0  0
  1 24  1  0  0  0  0
  1 25  1  0  0  0  0
  1 26  1  0  0  0  0
  2  3  1  0  0  0  0
  3  8  1  0  0  0  0
  3  4  2  0  0  0  0
  4  5  1  0  0  0  0
  4 27  1  0  0  0  0
  5  6  2  0  0  0  0
  5 28  1  0  0  0  0
  6  7  1  0  0  0  0
  6 29  1  0  0  0  0
  7  8  2  0  0  0  0
  7 30  1  0  0  0  0
  8  9  1  0  0  0  0
  9 10  1  0  0  0  0
 10 11  1  0  0  0  0
 10 31  1  0  0  0  0
 10 32  1  0  0  0  0
 11 12  1  0  0  0  0
 11 33  1  0  0  0  0
 11 34  1  0  0  0  0
 12 23  1  0  0  0  0
 12 13  1  0  0  0  0
 13 14  1  0  0  0  0
 13 17  2  0  0  0  0
 14 15  1  0  0  0  0
 14 35  1  0  0  0  0
 14 36  1  0  0  0  0
 15 16  1  0  0  0  0
 15 37  1  0  0  0  0
 15 38  1  0  0  0  0
 16 39  1  0  0  0  0
 17 18  1  0  0  0  0
 17 44  1  0  0  0  0
 18 23  2  0  0  0  0
 18 19  1  0  0  0  0
 19 20  2  0  0  0  0
 19 40  1  0  0  0  0
 20 21  1  0  0  0  0
 20 41  1  0  0  0  0
 21 22  2  0  0  0  0
 21 42  1  0  0  0  0
 22 23  1  0  0  0  0
 22 43  1  0  0  0  0
M  CHG  1  17   1
M  END
> <s_m_source_file>
AV-unprocessed.smi

> <i_m_source_file_index>
466

> <i_lp_mmshare_version>
43012

> <i_f3d_flags>
0

> <s_epik_input>
W0NIM11PYzFbY0hdW2NIXVtjSF1bY0hdYzFPW0NIMl1bQ0gyXW4oYyhuMilbQ0gyXVtDSDJdW09IXSljKGMyMylbY0hdW2NIXVtjSF1bY0hdMw==

> <s_epik_cmdline>
J2VwaWtfcHl0aG9uJywgJy1waCcsICc3LjAnLCAnLXRuJywgJzgnLCAnLW1hJywgJzIwMCcsICctbWV0YWxfYmluZGluZycsICctaW1hZScsICc8aW5maWxlLm1hZT4nLCAnLW9tYWUnLCAnPG91dGZpbGUubWFlPic=

> <r_lp_tautomer_probability>
1

> <r_epik_Ionization_Penalty>
0.720978

> <r_epik_Ionization_Penalty_Charging>
0.720978

> <r_epik_Ionization_Penalty_Neutral>
5.89567e-08

> <r_epik_State_Penalty>
0.7454

> <r_epik_Charging_Adjusted_Penalty>
1.46638

> <i_epik_Tot_Q>
1

> <i_epik_Tot_abs_Q>
1

> <r_epik_Metal_State_Penalty>
4.64029

> <b_epik_Metal_Only>
0

> <s_lp_Force_Field>
OPLS_2005

> <r_lp_Energy>
24.0837

> <b_lp_Chiralities_Consistent>
1

> <s_lp_Variant>
AV-unprocessed.smi:466-2

> <Gold.Version>
5.8.1

> <Gold.Id.Protein>
6NUR|6NUR_protein|mol2

> <Gold.PLP.Fitness>
55.9938

> <Gold.PLP.PLP>
-44.5225

> <Gold.PLP.part.hbond>
-6.0000

> <Gold.PLP.part.metal>
0.0000

> <Gold.PLP.part.buried>
-3.9030

> <Gold.PLP.part.nonpolar>
-34.8013

> <Gold.PLP.part.repulsive>
0.0097

> <Gold.PLP.ligand.clash>
0.0000

> <Gold.PLP.ligand.torsion>
1.1698

> <Gold.PLP.Chemscore.Hbond>
4.5440

> <Gold.PLP.Chemscore.CHOScore>
0.0000

> <Gold.PLP.Chemscore.Metal>
0.0000

> <Gold.Chemscore.Hbonds>
donor molecule, donor type, donor heavy atom, donor atom, acceptor molecule, acceptor atom, score
      L1  H    16    39       P1  7957  0.53
      L1  H    17    44       P1  8028  2.00
      P1  H  7997  8010       L1     9  1.00
      P1  H  8011  8017       L1    16  1.00

> <Gold.PLP.Chemscore.Internal.Correction>
0.1788

> <Gold.Rescore>
     Score         DG    S(hbond)    S(metal)    S(lipo)     H(rot)  DE(clash)    DE(int)     intcor
     18.31     -21.18       2.17        0.00     130.95       2.68       0.51       2.36       ----

> <Gold.Chemscore.Fitness>
18.3113

> <Gold.Chemscore.DG>
-21.1797

> <Gold.Chemscore.ZeroCoef>
-5.4800

> <Gold.Chemscore.Hbond>
2.1704

> <Gold.Chemscore.Metal>
0.0000

> <Gold.Chemscore.Lipo>
130.9542

> <Gold.Chemscore.Internal_Hbond>
0.0000

> <Gold.Chemscore.DEClash>
0.5071

> <Gold.Chemscore.DEInternal>
2.3612

> <Gold.Chemscore.Rot>
2.6840

> <Gold.Chemscore.Internal.Correction>
   9.000000E+99

> <Gold.Chemscore.Hbonds>
donor molecule, donor type, donor heavy atom, donor atom, acceptor molecule, acceptor atom, score
      L1  H    16    39       P1  7957  0.54
      L1  H    17    44       P1  8028  0.87
      P1  H  7997  8010       L1     9  0.26
      P1  H  8011  8017       L1    16  0.23

> <Gold.Chemscore.Hbond.Weighted>
-7.2490

> <Gold.Chemscore.Metal.Weighted>
-0.0000

> <Gold.Chemscore.Lipo.Weighted>
-15.3216

> <Gold.Chemscore.Internal_Hbond.Weighted>
0.0000

> <Gold.Chemscore.DEClash.Weighted>
0.5071

> <Gold.Chemscore.DEInternal.Weighted>
2.3612

> <Gold.Chemscore.Rot.Weighted>
6.8710

> <Gold.Chemscore.Internal.Correction.Weighted>
   9.000000E+99

> <Gold.Protein.RotatedTorsions>
[ 6907 6896 6895 6894 ] final  -75.30 input  -60.11 | X-H torsion
[ 7974 7965 7964 7962 ] final   43.06 input  175.53 | X-H torsion
[ 8008 7997 7996 7995 ] final   15.21 input   59.86 | X-H torsion
[ 10167 10162 10161 10158 ] final  117.93 input  -65.29 | X-H torsion
[ 10718 10713 10712 10709 ] final  -89.87 input   66.30 | X-H torsion
[ 10763 10752 10751 10750 ] final   27.40 input  -60.55 | X-H torsion
[ 11005 11000 10999 10996 ] final -117.99 input  -57.11 | X-H torsion

> <Gold.Protein.ActiveResidues>
 VAL166  LYS551  ARG553  GLY616  TRP617  ASP618  TYR619  PRO620  LYS621  CYS622 
 ASP623  PHE694  ASN695  SER759  ASP760  ASP761  ALA762  ILE779  LEU786  VAL792 
 PHE793  MET794  SER795  GLU796  ALA797  LYS798  CYS799  TRP800  GLU811  SER814 

> <Gold.Protein.RotatedAtoms>
  150.7063  134.4741  159.5439 H   0  0  0  0  0  0  0  0  0  0  0  0  # atno 6907 bound_to 6896
  152.2392  134.8243  160.0472 H   0  0  0  0  0  0  0  0  0  0  0  0  # atno 6908 bound_to 6896
  151.9031  133.3508  159.3874 H   0  0  0  0  0  0  0  0  0  0  0  0  # atno 6909 bound_to 6896
  146.0688  139.5230  142.9611 H   0  0  0  0  0  0  0  0  0  0  0  0  # atno 7974 bound_to 7965
  154.8594  140.2942  155.5548 H   0  0  0  0  0  0  0  0  0  0  0  0  # atno 8008 bound_to 7997
  156.3019  140.2481  156.3498 H   0  0  0  0  0  0  0  0  0  0  0  0  # atno 8009 bound_to 7997
  154.8935  140.0393  157.1841 H   0  0  0  0  0  0  0  0  0  0  0  0  # atno 8010 bound_to 7997
  139.6145  144.7089  151.2770 H   0  0  0  0  0  0  0  0  0  0  0  0  # atno 10167 bound_to 10162
  155.9985  130.4888  150.5237 H   0  0  0  0  0  0  0  0  0  0  0  0  # atno 10718 bound_to 10713
  153.0559  135.6538  154.0580 H   0  0  0  0  0  0  0  0  0  0  0  0  # atno 10763 bound_to 10752
  154.0258  135.2916  155.3376 H   0  0  0  0  0  0  0  0  0  0  0  0  # atno 10764 bound_to 10752
  154.6873  135.5296  153.8411 H   0  0  0  0  0  0  0  0  0  0  0  0  # atno 10765 bound_to 10752
  141.0317  133.9971  157.3133 H   0  0  0  0  0  0  0  0  0  0  0  0  # atno 11005 bound_to 11000
  145.6429  141.0280  143.1802 LP  0  0  0  0  0  0  0  0  0  0  0  0  # atno 17320 bound_to 7965
  144.7219  139.8003  143.7379 LP  0  0  0  0  0  0  0  0  0  0  0  0  # atno 17321 bound_to 7965
  140.7342  143.6774  150.8030 LP  0  0  0  0  0  0  0  0  0  0  0  0  # atno 17342 bound_to 10162
  140.0374  143.5381  152.2733 LP  0  0  0  0  0  0  0  0  0  0  0  0  # atno 17343 bound_to 10162
  157.3195  131.0679  151.1942 LP  0  0  0  0  0  0  0  0  0  0  0  0  # atno 17370 bound_to 10713
  157.2860  130.6773  149.6090 LP  0  0  0  0  0  0  0  0  0  0  0  0  # atno 17371 bound_to 10713
  139.9212  135.0200  156.8072 LP  0  0  0  0  0  0  0  0  0  0  0  0  # atno 17394 bound_to 11000
  140.6395  133.9832  155.7700 LP  0  0  0  0  0  0  0  0  0  0  0  0  # atno 17395 bound_to 11000

$$$$
