AV-unprocessed.smi:2963|AV-procd|sdf|11319|dock2
  -GOLD-   2272016223D 1   1.00000     0.00000
 Structure written by MMmdl.
 41 43  0  0  0  0  0  0  0  0  1 V2000
  156.4534  140.0380  159.7254 C   0  0  0  0  0  0  0  0  0  0  0  0
  155.1241  139.8761  159.2565 O   0  0  0  0  0  0  0  0  0  0  0  0
  154.1440  140.4337  160.1213 C   0  0  0  0  0  0  0  0  0  0  0  0
  152.7121  140.1289  159.6460 C   0  0  0  0  0  0  0  0  0  0  0  0
  152.1139  141.2636  158.9565 N   0  0  0  0  0  0  0  0  0  0  0  0
  151.5176  141.2936  157.7390 C   0  0  0  0  0  0  0  0  0  0  0  0
  151.3716  139.8595  156.7283 S   0  0  0  0  0  0  0  0  0  0  0  0
  150.5435  140.6462  155.3136 C   0  0  0  0  0  0  0  0  0  0  0  0
  149.5078  139.7570  154.6070 C   0  0  0  0  0  0  0  0  0  0  0  0
  149.7912  138.5759  154.3907 O   0  0  0  0  0  0  0  0  0  0  0  0
  148.3209  140.3246  154.2634 N   0  0  0  0  0  0  0  0  0  0  0  0
  147.9955  141.7297  154.5153 C   0  0  0  0  0  0  0  0  0  0  0  0
  146.5883  141.8979  153.9529 C   0  0  0  0  0  0  0  0  0  0  0  0
  146.2960  140.5705  153.4719 N   0  0  0  0  0  0  0  0  0  0  0  0
  147.2873  139.6952  153.6552 C   0  0  0  0  0  0  0  0  0  0  0  0
  147.2232  138.5146  153.3100 O   0  0  0  0  0  0  0  0  0  0  0  0
  151.0404  142.4785  157.3570 N   0  0  0  0  0  0  0  0  0  0  0  0
  151.3592  143.2943  158.4243 C   0  0  0  0  0  0  0  0  0  0  0  0
  151.1214  144.6720  158.6313 C   0  0  0  0  0  0  0  0  0  0  0  0
  151.5442  145.2982  159.8222 C   0  0  0  0  0  0  0  0  0  0  0  0
  152.2082  144.5572  160.8212 C   0  0  0  0  0  0  0  0  0  0  0  0
  152.4556  143.1835  160.6346 C   0  0  0  0  0  0  0  0  0  0  0  0
  152.0326  142.5640  159.4435 C   0  0  0  0  0  0  0  0  0  0  0  0
  157.1486  139.6052  159.0060 H   0  0  0  0  0  0  0  0  0  0  0  0
  156.5981  139.5273  160.6781 H   0  0  0  0  0  0  0  0  0  0  0  0
  156.7144  141.0887  159.8516 H   0  0  0  0  0  0  0  0  0  0  0  0
  154.2907  139.9943  161.1083 H   0  0  0  0  0  0  0  0  0  0  0  0
  154.2937  141.5076  160.2441 H   0  0  0  0  0  0  0  0  0  0  0  0
  152.7274  139.2836  158.9572 H   0  0  0  0  0  0  0  0  0  0  0  0
  152.0790  139.8226  160.4777 H   0  0  0  0  0  0  0  0  0  0  0  0
  150.0427  141.5435  155.6784 H   0  0  0  0  0  0  0  0  0  0  0  0
  151.3067  140.9619  154.6018 H   0  0  0  0  0  0  0  0  0  0  0  0
  148.0121  141.9516  155.5835 H   0  0  0  0  0  0  0  0  0  0  0  0
  148.6969  142.3950  154.0093 H   0  0  0  0  0  0  0  0  0  0  0  0
  145.8713  142.1964  154.7187 H   0  0  0  0  0  0  0  0  0  0  0  0
  146.5566  142.6176  153.1340 H   0  0  0  0  0  0  0  0  0  0  0  0
  145.4159  140.3362  153.0359 H   0  0  0  0  0  0  0  0  0  0  0  0
  150.6131  145.2481  157.8726 H   0  0  0  0  0  0  0  0  0  0  0  0
  151.3572  146.3517  159.9701 H   0  0  0  0  0  0  0  0  0  0  0  0
  152.5274  145.0442  161.7311 H   0  0  0  0  0  0  0  0  0  0  0  0
  152.9627  142.6126  161.3982 H   0  0  0  0  0  0  0  0  0  0  0  0
  1  2  1  0  0  0  0
  1 24  1  0  0  0  0
  1 25  1  0  0  0  0
  1 26  1  0  0  0  0
  2  3  1  0  0  0  0
  3  4  1  0  0  0  0
  3 27  1  0  0  0  0
  3 28  1  0  0  0  0
  4  5  1  0  0  0  0
  4 29  1  0  0  0  0
  4 30  1  0  0  0  0
  5 23  1  0  0  0  0
  5  6  1  0  0  0  0
  6  7  1  0  0  0  0
  6 17  2  0  0  0  0
  7  8  1  0  0  0  0
  8  9  1  0  0  0  0
  8 31  1  0  0  0  0
  8 32  1  0  0  0  0
  9 10  2  0  0  0  0
  9 11  1  0  0  0  0
 11 15  1  0  0  0  0
 11 12  1  0  0  0  0
 12 13  1  0  0  0  0
 12 33  1  0  0  0  0
 12 34  1  0  0  0  0
 13 14  1  0  0  0  0
 13 35  1  0  0  0  0
 13 36  1  0  0  0  0
 14 15  1  0  0  0  0
 14 37  1  0  0  0  0
 15 16  2  0  0  0  0
 17 18  1  0  0  0  0
 18 23  2  0  0  0  0
 18 19  1  0  0  0  0
 19 20  2  0  0  0  0
 19 38  1  0  0  0  0
 20 21  1  0  0  0  0
 20 39  1  0  0  0  0
 21 22  2  0  0  0  0
 21 40  1  0  0  0  0
 22 23  1  0  0  0  0
 22 41  1  0  0  0  0
M  END
> <s_m_source_file>
AV-unprocessed.smi

> <i_m_source_file_index>
2963

> <i_lp_mmshare_version>
43012

> <i_f3d_flags>
0

> <s_epik_input>
W2NIXTFbY0hdW2NIXVtjSF1jKGMxMiluKFtDSDJdW0NIMl1PW0NIM10pYyhuMilTW0NIMl1DKD1PKU4zW0NIMl1bQ0gyXVtOSF1DMz1P

> <s_epik_cmdline>
J2VwaWtfcHl0aG9uJywgJy1waCcsICc3LjAnLCAnLXRuJywgJzgnLCAnLW1hJywgJzIwMCcsICctbWV0YWxfYmluZGluZycsICctaW1hZScsICc8aW5maWxlLm1hZT4nLCAnLW9tYWUnLCAnPG91dGZpbGUubWFlPic=

> <r_lp_tautomer_probability>
0.9999

> <r_epik_Ionization_Penalty>
0.0341365

> <r_epik_Ionization_Penalty_Charging>
0

> <r_epik_Ionization_Penalty_Neutral>
0.0341365

> <r_epik_State_Penalty>
0.0283589

> <r_epik_Charging_Adjusted_Penalty>
0.0283589

> <i_epik_Tot_Q>
0

> <i_epik_Tot_abs_Q>
0

> <r_epik_Metal_State_Penalty>
0.0267964

> <b_epik_Metal_Only>
0

> <s_lp_Force_Field>
OPLS_2005

> <r_lp_Energy>
40.6732

> <b_lp_Chiralities_Consistent>
1

> <s_lp_Variant>
AV-unprocessed.smi:2963-1

> <Gold.Version>
5.8.1

> <Gold.Id.Protein>
6NUR|6NUR_protein|mol2

> <Gold.PLP.Fitness>
54.6521

> <Gold.PLP.PLP>
-50.1318

> <Gold.PLP.part.hbond>
-2.0000

> <Gold.PLP.part.metal>
0.0000

> <Gold.PLP.part.buried>
-3.9485

> <Gold.PLP.part.nonpolar>
-43.5506

> <Gold.PLP.part.repulsive>
0.5711

> <Gold.PLP.ligand.clash>
0.0000

> <Gold.PLP.ligand.torsion>
0.8118

> <Gold.PLP.Chemscore.Hbond>
2.0000

> <Gold.PLP.Chemscore.CHOScore>
0.0000

> <Gold.PLP.Chemscore.Metal>
0.0000

> <Gold.Chemscore.Hbonds>
donor molecule, donor type, donor heavy atom, donor atom, acceptor molecule, acceptor atom, score
      L1  H    14    37       P1 10175  1.00
      P1  H  7997  8010       L1     2  0.90

> <Gold.PLP.Chemscore.Internal.Correction>
0.1439

> <Gold.Rescore>
     Score         DG    S(hbond)    S(metal)    S(lipo)     H(rot)  DE(clash)    DE(int)     intcor
     15.89     -18.36       1.55        0.00     116.78       2.33       0.08       2.39       ----

> <Gold.Chemscore.Fitness>
15.8881

> <Gold.Chemscore.DG>
-18.3625

> <Gold.Chemscore.ZeroCoef>
-5.4800

> <Gold.Chemscore.Hbond>
1.5505

> <Gold.Chemscore.Metal>
0.0000

> <Gold.Chemscore.Lipo>
116.7841

> <Gold.Chemscore.Internal_Hbond>
0.0000

> <Gold.Chemscore.DEClash>
0.0814

> <Gold.Chemscore.DEInternal>
2.3930

> <Gold.Chemscore.Rot>
2.3280

> <Gold.Chemscore.Internal.Correction>
   9.000000E+99

> <Gold.Chemscore.Hbonds>
donor molecule, donor type, donor heavy atom, donor atom, acceptor molecule, acceptor atom, score
      L1  H    14    37       P1 10175  0.95
      P1  H  7997  8010       L1     2  0.17

> <Gold.Chemscore.Hbond.Weighted>
-5.1785

> <Gold.Chemscore.Metal.Weighted>
-0.0000

> <Gold.Chemscore.Lipo.Weighted>
-13.6637

> <Gold.Chemscore.Internal_Hbond.Weighted>
0.0000

> <Gold.Chemscore.DEClash.Weighted>
0.0814

> <Gold.Chemscore.DEInternal.Weighted>
2.3930

> <Gold.Chemscore.Rot.Weighted>
5.9598

> <Gold.Chemscore.Internal.Correction.Weighted>
   9.000000E+99

> <Gold.Protein.RotatedTorsions>
[ 6907 6896 6895 6894 ] final  -82.09 input  -60.11 | X-H torsion
[ 7974 7965 7964 7962 ] final -105.57 input  175.53 | X-H torsion
[ 8008 7997 7996 7995 ] final  -21.43 input   59.86 | X-H torsion
[ 10167 10162 10161 10158 ] final -115.33 input  -65.29 | X-H torsion
[ 10718 10713 10712 10709 ] final    9.53 input   66.30 | X-H torsion
[ 10763 10752 10751 10750 ] final   96.39 input  -60.55 | X-H torsion
[ 11005 11000 10999 10996 ] final  -27.14 input  -57.11 | X-H torsion

> <Gold.Protein.ActiveResidues>
 VAL166  LYS551  ARG553  GLY616  TRP617  ASP618  TYR619  PRO620  LYS621  CYS622 
 ASP623  PHE694  ASN695  SER759  ASP760  ASP761  ALA762  ILE779  LEU786  VAL792 
 PHE793  MET794  SER795  GLU796  ALA797  LYS798  CYS799  TRP800  GLU811  SER814 

> <Gold.Protein.RotatedAtoms>
  150.6902  134.3717  159.4994 H   0  0  0  0  0  0  0  0  0  0  0  0  # atno 6907 bound_to 6896
  152.1532  134.8969  160.0556 H   0  0  0  0  0  0  0  0  0  0  0  0  # atno 6908 bound_to 6896
  152.0058  133.3808  159.4237 H   0  0  0  0  0  0  0  0  0  0  0  0  # atno 6909 bound_to 6896
  145.2288  140.9163  143.3216 H   0  0  0  0  0  0  0  0  0  0  0  0  # atno 7974 bound_to 7965
  154.4706  140.2035  156.0004 H   0  0  0  0  0  0  0  0  0  0  0  0  # atno 8008 bound_to 7997
  156.1005  140.3244  155.7906 H   0  0  0  0  0  0  0  0  0  0  0  0  # atno 8009 bound_to 7997
  155.4806  140.0538  157.2958 H   0  0  0  0  0  0  0  0  0  0  0  0  # atno 8010 bound_to 7997
  140.0912  143.4698  152.1869 H   0  0  0  0  0  0  0  0  0  0  0  0  # atno 10167 bound_to 10162
  156.9677  130.5957  149.5666 H   0  0  0  0  0  0  0  0  0  0  0  0  # atno 10718 bound_to 10713
  153.2644  135.4220  155.0925 H   0  0  0  0  0  0  0  0  0  0  0  0  # atno 10763 bound_to 10752
  154.8432  135.3457  154.6333 H   0  0  0  0  0  0  0  0  0  0  0  0  # atno 10764 bound_to 10752
  153.6753  135.7041  153.5192 H   0  0  0  0  0  0  0  0  0  0  0  0  # atno 10765 bound_to 10752
  140.9093  133.7472  156.0648 H   0  0  0  0  0  0  0  0  0  0  0  0  # atno 11005 bound_to 11000
  144.9695  139.3894  143.6316 LP  0  0  0  0  0  0  0  0  0  0  0  0  # atno 17320 bound_to 7965
  146.3358  139.8787  142.8828 LP  0  0  0  0  0  0  0  0  0  0  0  0  # atno 17321 bound_to 7965
  139.5723  144.7469  151.3856 LP  0  0  0  0  0  0  0  0  0  0  0  0  # atno 17342 bound_to 10162
  140.7027  143.7591  150.7430 LP  0  0  0  0  0  0  0  0  0  0  0  0  # atno 17343 bound_to 10162
  156.0296  130.5388  150.8498 LP  0  0  0  0  0  0  0  0  0  0  0  0  # atno 17370 bound_to 10713
  157.5614  131.0946  150.9553 LP  0  0  0  0  0  0  0  0  0  0  0  0  # atno 17371 bound_to 10713
  140.8131  134.3376  157.5405 LP  0  0  0  0  0  0  0  0  0  0  0  0  # atno 17394 bound_to 11000
  139.8754  134.9266  156.3403 LP  0  0  0  0  0  0  0  0  0  0  0  0  # atno 17395 bound_to 11000

$$$$
