AV-unprocessed.smi:1815|AV-procd|sdf|7351|dock4
  -GOLD-   22720 9 13D 1   1.00000     0.00000
 Structure written by MMmdl.
 39 40  0  0  0  0  0  0  0  0  1 V2000
  153.3290  138.7703  154.1391 C   0  0  0  0  0  0  0  0  0  0  0  0
  151.8237  138.4883  154.1836 C   0  0  1  0  0  0  0  0  0  0  0  0
  151.4862  137.2600  155.0500 C   0  0  0  0  0  0  0  0  0  0  0  0
  150.0481  137.0406  155.1510 N   0  0  0  0  0  0  0  0  0  0  0  0
  149.7534  135.8635  155.9690 C   0  0  0  0  0  0  0  0  0  0  0  0
  149.8722  134.5075  155.2449 C   0  0  0  0  0  0  0  0  0  0  0  0
  149.1194  134.4879  153.9950 N   0  0  0  0  0  0  0  0  0  0  0  0
  148.2798  133.5137  153.6172 C   0  0  0  0  0  0  0  0  0  0  0  0
  148.0367  132.5222  154.3061 O   0  0  0  0  0  0  0  0  0  0  0  0
  147.7557  133.7663  152.4051 N   0  0  0  0  0  0  0  0  0  0  0  0
  146.8298  132.9824  151.6681 C   0  0  0  0  0  0  0  0  0  0  0  0
  146.3855  133.2909  150.4440 N   0  0  0  0  0  0  0  0  0  0  0  0
  145.4837  132.3407  149.9584 C   0  0  0  0  0  0  0  0  0  0  0  0
  145.2507  131.3079  150.8321 C   0  0  0  0  0  0  0  0  0  0  0  0
  146.1609  131.4884  152.3082 S   0  0  0  0  0  0  0  0  0  0  0  0
  149.4184  138.2537  155.6651 C   0  0  0  0  0  0  0  0  0  0  0  0
  149.7536  139.4863  154.8036 C   0  0  1  0  0  0  0  0  0  0  0  0
  149.1676  140.7759  155.3874 C   0  0  0  0  0  0  0  0  0  0  0  0
  151.1689  139.6321  154.7252 O   0  0  0  0  0  0  0  0  0  0  0  0
  153.8743  137.9235  153.7216 H   0  0  0  0  0  0  0  0  0  0  0  0
  153.7240  138.9648  155.1366 H   0  0  0  0  0  0  0  0  0  0  0  0
  153.5439  139.6416  153.5199 H   0  0  0  0  0  0  0  0  0  0  0  0
  151.4676  138.3256  153.1648 H   0  0  0  0  0  0  0  0  0  0  0  0
  151.9635  136.3769  154.6234 H   0  0  0  0  0  0  0  0  0  0  0  0
  151.9093  137.3916  156.0473 H   0  0  0  0  0  0  0  0  0  0  0  0
  150.4337  135.8462  156.8215 H   0  0  0  0  0  0  0  0  0  0  0  0
  148.7529  135.9551  156.3941 H   0  0  0  0  0  0  0  0  0  0  0  0
  150.9222  134.2881  155.0446 H   0  0  0  0  0  0  0  0  0  0  0  0
  149.5162  133.6953  155.8778 H   0  0  0  0  0  0  0  0  0  0  0  0
  149.2640  135.2638  153.3657 H   0  0  0  0  0  0  0  0  0  0  0  0
  148.0539  134.6200  151.9566 H   0  0  0  0  0  0  0  0  0  0  0  0
  145.0535  132.4791  148.9775 H   0  0  0  0  0  0  0  0  0  0  0  0
  144.6015  130.4554  150.6972 H   0  0  0  0  0  0  0  0  0  0  0  0
  148.3358  138.1329  155.6926 H   0  0  0  0  0  0  0  0  0  0  0  0
  149.7403  138.4288  156.6928 H   0  0  0  0  0  0  0  0  0  0  0  0
  149.3573  139.3456  153.7963 H   0  0  0  0  0  0  0  0  0  0  0  0
  148.0814  140.7158  155.4592 H   0  0  0  0  0  0  0  0  0  0  0  0
  149.4124  141.6336  154.7606 H   0  0  0  0  0  0  0  0  0  0  0  0
  149.5590  140.9703  156.3864 H   0  0  0  0  0  0  0  0  0  0  0  0
  1  2  1  0  0  0  0
  1 20  1  0  0  0  0
  1 21  1  0  0  0  0
  1 22  1  0  0  0  0
  2 19  1  0  0  0  0
  2  3  1  0  0  0  0
  2 23  1  0  0  0  0
  3  4  1  0  0  0  0
  3 24  1  0  0  0  0
  3 25  1  0  0  0  0
  4  5  1  0  0  0  0
  4 16  1  0  0  0  0
  5  6  1  0  0  0  0
  5 26  1  0  0  0  0
  5 27  1  0  0  0  0
  6  7  1  0  0  0  0
  6 28  1  0  0  0  0
  6 29  1  0  0  0  0
  7  8  1  0  0  0  0
  7 30  1  0  0  0  0
  8  9  2  0  0  0  0
  8 10  1  0  0  0  0
 10 11  1  0  0  0  0
 10 31  1  0  0  0  0
 11 15  1  0  0  0  0
 11 12  2  0  0  0  0
 12 13  1  0  0  0  0
 13 14  2  0  0  0  0
 13 32  1  0  0  0  0
 14 15  1  0  0  0  0
 14 33  1  0  0  0  0
 16 17  1  0  0  0  0
 16 34  1  0  0  0  0
 16 35  1  0  0  0  0
 17 18  1  0  0  0  0
 17 19  1  0  0  0  0
 17 36  1  0  0  0  0
 18 37  1  0  0  0  0
 18 38  1  0  0  0  0
 18 39  1  0  0  0  0
M  END
> <s_m_source_file>
AV-unprocessed.smi

> <i_m_source_file_index>
1815

> <i_lp_mmshare_version>
43012

> <i_f3d_flags>
0

> <s_epik_input>
W0NIM11bQ0BASF0xW0NIMl1OKFtDSDJdW0NASF0oTzEpW0NIM10pW0NIMl1bQ0gyXVtOSF1DKD1PKVtOSF1jMm5bY0hdW2NIXXMy

> <s_epik_cmdline>
J2VwaWtfcHl0aG9uJywgJy1waCcsICc3LjAnLCAnLXRuJywgJzgnLCAnLW1hJywgJzIwMCcsICctbWV0YWxfYmluZGluZycsICctaW1hZScsICc8aW5maWxlLm1hZT4nLCAnLW9tYWUnLCAnPG91dGZpbGUubWFlPic=

> <r_lp_tautomer_probability>
0.999

> <r_epik_Ionization_Penalty>
0.219201

> <r_epik_Ionization_Penalty_Charging>
0

> <r_epik_Ionization_Penalty_Neutral>
0.219201

> <r_epik_State_Penalty>
0.209349

> <r_epik_Charging_Adjusted_Penalty>
0.209349

> <i_epik_Tot_Q>
0

> <i_epik_Tot_abs_Q>
0

> <r_epik_Metal_State_Penalty>
0.247737

> <b_epik_Metal_Only>
0

> <s_lp_Force_Field>
OPLS_2005

> <r_lp_Energy>
22.4698

> <b_lp_Chiralities_Consistent>
1

> <s_lp_Variant>
AV-unprocessed.smi:1815-2

> <Gold.Version>
5.8.1

> <Gold.Id.Protein>
6NUR|6NUR_protein|mol2

> <Gold.PLP.Fitness>
40.6657

> <Gold.PLP.PLP>
-31.4911

> <Gold.PLP.part.hbond>
-3.0000

> <Gold.PLP.part.metal>
0.0000

> <Gold.PLP.part.buried>
-5.7743

> <Gold.PLP.part.nonpolar>
-22.6666

> <Gold.PLP.part.repulsive>
0.5888

> <Gold.PLP.ligand.clash>
0.0000

> <Gold.PLP.ligand.torsion>
0.3155

> <Gold.PLP.Chemscore.Hbond>
3.0000

> <Gold.PLP.Chemscore.CHOScore>
0.2610

> <Gold.PLP.Chemscore.Metal>
0.0000

> <Gold.Chemscore.Hbonds>
donor molecule, donor type, donor heavy atom, donor atom, acceptor molecule, acceptor atom, score
      L1  H     7    30       P1  7948  0.90
      L1  H    10    31       P1  7948  0.85
      P1  H  7989  7998       L1    19  0.95
      L1  C    13    32       P1  7921  0.07

> <Gold.PLP.Chemscore.Internal.Correction>
0.0226

> <Gold.Rescore>
     Score         DG    S(hbond)    S(metal)    S(lipo)     H(rot)  DE(clash)    DE(int)     intcor
     15.47     -17.21       2.16        0.00      73.54       1.60       0.05       1.70       ----

> <Gold.Chemscore.Fitness>
15.4694

> <Gold.Chemscore.DG>
-17.2128

> <Gold.Chemscore.ZeroCoef>
-5.4800

> <Gold.Chemscore.Hbond>
2.1631

> <Gold.Chemscore.Metal>
0.0000

> <Gold.Chemscore.Lipo>
73.5400

> <Gold.Chemscore.Internal_Hbond>
0.0000

> <Gold.Chemscore.DEClash>
0.0469

> <Gold.Chemscore.DEInternal>
1.6964

> <Gold.Chemscore.Rot>
1.6001

> <Gold.Chemscore.Internal.Correction>
   9.000000E+99

> <Gold.Chemscore.Hbonds>
donor molecule, donor type, donor heavy atom, donor atom, acceptor molecule, acceptor atom, score
      L1  H     7    30       P1  7948  0.17
      L1  H    10    31       P1  7948  0.14
      P1  H  7989  7998       L1    19  0.18

> <Gold.Chemscore.Hbond.Weighted>
-7.2248

> <Gold.Chemscore.Metal.Weighted>
-0.0000

> <Gold.Chemscore.Lipo.Weighted>
-8.6042

> <Gold.Chemscore.Internal_Hbond.Weighted>
0.0000

> <Gold.Chemscore.DEClash.Weighted>
0.0469

> <Gold.Chemscore.DEInternal.Weighted>
1.6964

> <Gold.Chemscore.Rot.Weighted>
4.0963

> <Gold.Chemscore.Internal.Correction.Weighted>
   9.000000E+99

> <Gold.Protein.RotatedTorsions>
[ 6907 6896 6895 6894 ] final  -99.21 input  -60.11 | X-H torsion
[ 7974 7965 7964 7962 ] final  144.38 input  175.53 | X-H torsion
[ 8008 7997 7996 7995 ] final   53.14 input   59.86 | X-H torsion
[ 10167 10162 10161 10158 ] final  115.11 input  -65.29 | X-H torsion
[ 10718 10713 10712 10709 ] final -110.42 input   66.30 | X-H torsion
[ 10763 10752 10751 10750 ] final  -91.69 input  -60.55 | X-H torsion
[ 11005 11000 10999 10996 ] final  -54.95 input  -57.11 | X-H torsion

> <Gold.Protein.ActiveResidues>
 VAL166  LYS551  ARG553  GLY616  TRP617  ASP618  TYR619  PRO620  LYS621  CYS622 
 ASP623  PHE694  ASN695  SER759  ASP760  ASP761  ALA762  ILE779  LEU786  VAL792 
 PHE793  MET794  SER795  GLU796  ALA797  LYS798  CYS799  TRP800  GLU811  SER814 

> <Gold.Protein.RotatedAtoms>
  150.7072  134.1076  159.3988 H   0  0  0  0  0  0  0  0  0  0  0  0  # atno 6907 bound_to 6896
  151.9062  135.0355  160.0520 H   0  0  0  0  0  0  0  0  0  0  0  0  # atno 6908 bound_to 6896
  152.2373  133.5071  159.5287 H   0  0  0  0  0  0  0  0  0  0  0  0  # atno 6909 bound_to 6896
  144.8841  139.5655  143.5829 H   0  0  0  0  0  0  0  0  0  0  0  0  # atno 7974 bound_to 7965
  155.4634  140.3462  155.4316 H   0  0  0  0  0  0  0  0  0  0  0  0  # atno 8008 bound_to 7997
  156.1146  140.1470  156.9319 H   0  0  0  0  0  0  0  0  0  0  0  0  # atno 8009 bound_to 7997
  154.4780  140.0879  156.7289 H   0  0  0  0  0  0  0  0  0  0  0  0  # atno 8010 bound_to 7997
  139.6341  144.7118  151.2372 H   0  0  0  0  0  0  0  0  0  0  0  0  # atno 10167 bound_to 10162
  156.0590  130.5814  150.8234 H   0  0  0  0  0  0  0  0  0  0  0  0  # atno 10718 bound_to 10713
  154.6786  135.5258  153.8232 H   0  0  0  0  0  0  0  0  0  0  0  0  # atno 10763 bound_to 10752
  153.0549  135.6547  154.0612 H   0  0  0  0  0  0  0  0  0  0  0  0  # atno 10764 bound_to 10752
  154.0502  135.2970  155.3321 H   0  0  0  0  0  0  0  0  0  0  0  0  # atno 10765 bound_to 10752
  141.1051  133.6614  156.4397 H   0  0  0  0  0  0  0  0  0  0  0  0  # atno 11005 bound_to 11000
  146.3013  139.7436  142.9089 LP  0  0  0  0  0  0  0  0  0  0  0  0  # atno 17320 bound_to 7965
  145.3901  141.0371  143.3129 LP  0  0  0  0  0  0  0  0  0  0  0  0  # atno 17321 bound_to 7965
  140.7455  143.6428  150.8319 LP  0  0  0  0  0  0  0  0  0  0  0  0  # atno 17342 bound_to 10162
  140.0057  143.5696  152.2858 LP  0  0  0  0  0  0  0  0  0  0  0  0  # atno 17343 bound_to 10162
  157.5583  131.0945  150.9596 LP  0  0  0  0  0  0  0  0  0  0  0  0  # atno 17370 bound_to 10713
  156.9840  130.5538  149.5298 LP  0  0  0  0  0  0  0  0  0  0  0  0  # atno 17371 bound_to 10713
  140.4924  134.6563  157.5216 LP  0  0  0  0  0  0  0  0  0  0  0  0  # atno 17394 bound_to 11000
  139.9917  134.6974  155.9678 LP  0  0  0  0  0  0  0  0  0  0  0  0  # atno 17395 bound_to 11000

$$$$
