AV-unprocessed.smi:671|AV-procd|sdf|3284|dock10
  -GOLD-   22720 0243D 1   1.00000     0.00000
 Structure written by MMmdl.
 50 51  0  0  0  0  0  0  0  0  2 V2000
  146.9458  142.3068  154.1495 C   0  0  0  0  0  0  0  0  0  0  0  0
  146.2184  141.3942  155.0785 C   0  0  0  0  0  0  0  0  0  0  0  0
  145.0718  140.7337  154.7642 N   0  3  0  0  0  0  0  0  0  0  0  0
  144.6608  139.9964  155.8058 N   0  0  0  0  0  0  0  0  0  0  0  0
  143.4402  139.2008  155.6709 C   0  0  0  0  0  0  0  0  0  0  0  0
  145.5229  140.1386  156.8522 C   0  0  0  0  0  0  0  0  0  0  0  0
  145.3747  139.4570  158.1731 C   0  0  0  0  0  0  0  0  0  0  0  0
  146.5109  141.0200  156.3951 C   0  0  0  0  0  0  0  0  0  0  0  0
  147.6954  141.4908  157.1923 C   0  0  0  0  0  0  0  0  0  0  0  0
  149.0212  140.8171  156.7734 C   0  0  1  0  0  0  0  0  0  0  0  0
  148.9432  140.1730  155.3802 C   0  0  0  0  0  0  0  0  0  0  0  0
  150.1088  141.7979  156.7774 N   0  0  0  0  0  0  0  0  0  0  0  0
  150.5706  142.5314  157.8067 C   0  0  0  0  0  0  0  0  0  0  0  0
  150.0812  142.4475  158.9311 O   0  0  0  0  0  0  0  0  0  0  0  0
  151.5889  143.3536  157.4990 N   0  0  0  0  0  0  0  0  0  0  0  0
  152.2790  144.2452  158.4318 C   0  0  1  0  0  0  0  0  0  0  0  0
  151.2897  145.2845  158.9770 C   0  0  0  0  0  0  0  0  0  0  0  0
  150.8260  144.7251  160.3186 C   0  0  0  0  0  0  0  0  0  0  0  0
  152.0653  144.0407  160.8889 C   0  0  0  0  0  0  0  0  0  0  0  0
  152.8637  143.5230  159.6787 C   0  0  1  0  0  0  0  0  0  0  0  0
  152.9048  141.9835  159.6208 C   0  0  0  0  0  0  0  0  0  0  0  0
  146.9131  143.3292  154.5268 H   0  0  0  0  0  0  0  0  0  0  0  0
  146.4931  142.2873  153.1577 H   0  0  0  0  0  0  0  0  0  0  0  0
  147.9885  142.0017  154.0600 H   0  0  0  0  0  0  0  0  0  0  0  0
  142.9496  139.1180  156.6409 H   0  0  0  0  0  0  0  0  0  0  0  0
  143.7024  138.2068  155.3081 H   0  0  0  0  0  0  0  0  0  0  0  0
  142.7599  139.6813  154.9665 H   0  0  0  0  0  0  0  0  0  0  0  0
  146.1165  139.8234  158.8809 H   0  0  0  0  0  0  0  0  0  0  0  0
  145.5088  138.3814  158.0581 H   0  0  0  0  0  0  0  0  0  0  0  0
  144.3851  139.6449  158.5893 H   0  0  0  0  0  0  0  0  0  0  0  0
  147.7998  142.5733  157.1096 H   0  0  0  0  0  0  0  0  0  0  0  0
  147.5059  141.3050  158.2499 H   0  0  0  0  0  0  0  0  0  0  0  0
  149.2594  140.0211  157.4807 H   0  0  0  0  0  0  0  0  0  0  0  0
  148.1822  139.3933  155.3412 H   0  0  0  0  0  0  0  0  0  0  0  0
  149.8930  139.7109  155.1093 H   0  0  0  0  0  0  0  0  0  0  0  0
  148.7037  140.9113  154.6140 H   0  0  0  0  0  0  0  0  0  0  0  0
  150.5593  141.9514  155.8866 H   0  0  0  0  0  0  0  0  0  0  0  0
  151.9144  143.3616  156.5439 H   0  0  0  0  0  0  0  0  0  0  0  0
  153.0748  144.7699  157.8996 H   0  0  0  0  0  0  0  0  0  0  0  0
  151.8127  146.2272  159.1448 H   0  0  0  0  0  0  0  0  0  0  0  0
  150.4599  145.4927  158.2998 H   0  0  0  0  0  0  0  0  0  0  0  0
  150.4300  145.4957  160.9807 H   0  0  0  0  0  0  0  0  0  0  0  0
  150.0410  143.9852  160.1611 H   0  0  0  0  0  0  0  0  0  0  0  0
  152.6643  144.7745  161.4299 H   0  0  0  0  0  0  0  0  0  0  0  0
  151.8043  143.2547  161.5987 H   0  0  0  0  0  0  0  0  0  0  0  0
  153.8946  143.8583  159.8023 H   0  0  0  0  0  0  0  0  0  0  0  0
  151.9059  141.5563  159.5258 H   0  0  0  0  0  0  0  0  0  0  0  0
  153.3506  141.5743  160.5277 H   0  0  0  0  0  0  0  0  0  0  0  0
  153.5052  141.6348  158.7803 H   0  0  0  0  0  0  0  0  0  0  0  0
  144.5513  140.7496  153.8960 H   0  0  0  0  0  0  0  0  0  0  0  0
  1  2  1  0  0  0  0
  1 22  1  0  0  0  0
  1 23  1  0  0  0  0
  1 24  1  0  0  0  0
  2  8  1  0  0  0  0
  2  3  2  0  0  0  0
  3  4  1  0  0  0  0
  3 50  1  0  0  0  0
  4  5  1  0  0  0  0
  4  6  1  0  0  0  0
  5 25  1  0  0  0  0
  5 26  1  0  0  0  0
  5 27  1  0  0  0  0
  6  7  1  0  0  0  0
  6  8  2  0  0  0  0
  7 28  1  0  0  0  0
  7 29  1  0  0  0  0
  7 30  1  0  0  0  0
  8  9  1  0  0  0  0
  9 10  1  0  0  0  0
  9 31  1  0  0  0  0
  9 32  1  0  0  0  0
 10 11  1  0  0  0  0
 10 12  1  0  0  0  0
 10 33  1  0  0  0  0
 11 34  1  0  0  0  0
 11 35  1  0  0  0  0
 11 36  1  0  0  0  0
 12 13  1  0  0  0  0
 12 37  1  0  0  0  0
 13 14  2  0  0  0  0
 13 15  1  0  0  0  0
 15 16  1  0  0  0  0
 15 38  1  0  0  0  0
 16 20  1  0  0  0  0
 16 17  1  0  0  0  0
 16 39  1  0  0  0  0
 17 18  1  0  0  0  0
 17 40  1  0  0  0  0
 17 41  1  0  0  0  0
 18 19  1  0  0  0  0
 18 42  1  0  0  0  0
 18 43  1  0  0  0  0
 19 20  1  0  0  0  0
 19 44  1  0  0  0  0
 19 45  1  0  0  0  0
 20 21  1  0  0  0  0
 20 46  1  0  0  0  0
 21 47  1  0  0  0  0
 21 48  1  0  0  0  0
 21 49  1  0  0  0  0
M  CHG  1   3   1
M  END
> <s_m_source_file>
AV-unprocessed.smi

> <i_m_source_file_index>
671

> <i_lp_mmshare_version>
43012

> <i_f3d_flags>
0

> <s_epik_input>
W0NIM11jMW5uKFtDSDNdKWMoW0NIM10pYzFbQ0gyXVtDQEhdKFtDSDNdKVtOSF1DKD1PKVtOSF1bQ0BASF0yW0NIMl1bQ0gyXVtDSDJdW0NASF0yW0NIM10=

> <s_epik_cmdline>
J2VwaWtfcHl0aG9uJywgJy1waCcsICc3LjAnLCAnLXRuJywgJzgnLCAnLW1hJywgJzIwMCcsICctbWV0YWxfYmluZGluZycsICctaW1hZScsICc8aW5maWxlLm1hZT4nLCAnLW9tYWUnLCAnPG91dGZpbGUubWFlPic=

> <r_lp_tautomer_probability>
1

> <r_epik_Ionization_Penalty>
2.28705

> <r_epik_Ionization_Penalty_Charging>
2.28698

> <r_epik_Ionization_Penalty_Neutral>
6.23157e-05

> <r_epik_State_Penalty>
2.43671

> <r_epik_Charging_Adjusted_Penalty>
4.72369

> <i_epik_Tot_Q>
1

> <i_epik_Tot_abs_Q>
1

> <r_epik_Metal_State_Penalty>
2.44911

> <b_epik_Metal_Only>
0

> <s_lp_Force_Field>
OPLS_2005

> <r_lp_Energy>
36.9698

> <b_lp_Chiralities_Consistent>
1

> <s_lp_Variant>
AV-unprocessed.smi:671-12

> <Gold.Version>
5.8.1

> <Gold.Id.Protein>
6NUR|6NUR_protein|mol2

> <Gold.PLP.Fitness>
42.2207

> <Gold.PLP.PLP>
-37.7788

> <Gold.PLP.part.hbond>
-1.7869

> <Gold.PLP.part.metal>
0.0000

> <Gold.PLP.part.buried>
-5.8204

> <Gold.PLP.part.nonpolar>
-30.6133

> <Gold.PLP.part.repulsive>
0.1170

> <Gold.PLP.ligand.clash>
0.0000

> <Gold.PLP.ligand.torsion>
0.7908

> <Gold.PLP.Chemscore.Hbond>
2.0000

> <Gold.PLP.Chemscore.CHOScore>
0.0000

> <Gold.PLP.Chemscore.Metal>
0.0000

> <Gold.Chemscore.Hbonds>
donor molecule, donor type, donor heavy atom, donor atom, acceptor molecule, acceptor atom, score
      L1  H     3    50       P1 10175  2.00

> <Gold.PLP.Chemscore.Internal.Correction>
0.0234

> <Gold.Rescore>
     Score         DG    S(hbond)    S(metal)    S(lipo)     H(rot)  DE(clash)    DE(int)     intcor
     12.69     -16.26       1.00        0.00      96.60       1.51       0.00       3.56       ----

> <Gold.Chemscore.Fitness>
12.6926

> <Gold.Chemscore.DG>
-16.2581

> <Gold.Chemscore.ZeroCoef>
-5.4800

> <Gold.Chemscore.Hbond>
0.9973

> <Gold.Chemscore.Metal>
0.0000

> <Gold.Chemscore.Lipo>
96.5966

> <Gold.Chemscore.Internal_Hbond>
0.0000

> <Gold.Chemscore.DEClash>
0.0047

> <Gold.Chemscore.DEInternal>
3.5607

> <Gold.Chemscore.Rot>
1.5057

> <Gold.Chemscore.Internal.Correction>
   9.000000E+99

> <Gold.Chemscore.Hbonds>
donor molecule, donor type, donor heavy atom, donor atom, acceptor molecule, acceptor atom, score
      L1  H     3    50       P1 10175  0.98

> <Gold.Chemscore.Hbond.Weighted>
-3.3309

> <Gold.Chemscore.Metal.Weighted>
-0.0000

> <Gold.Chemscore.Lipo.Weighted>
-11.3018

> <Gold.Chemscore.Internal_Hbond.Weighted>
0.0000

> <Gold.Chemscore.DEClash.Weighted>
0.0047

> <Gold.Chemscore.DEInternal.Weighted>
3.5607

> <Gold.Chemscore.Rot.Weighted>
3.8547

> <Gold.Chemscore.Internal.Correction.Weighted>
   9.000000E+99

> <Gold.Protein.RotatedTorsions>
[ 6907 6896 6895 6894 ] final    2.93 input  -60.11 | X-H torsion
[ 7974 7965 7964 7962 ] final  -32.51 input  175.53 | X-H torsion
[ 8008 7997 7996 7995 ] final   53.14 input   59.86 | X-H torsion
[ 10167 10162 10161 10158 ] final  163.51 input  -65.29 | X-H torsion
[ 10718 10713 10712 10709 ] final -116.05 input   66.30 | X-H torsion
[ 10763 10752 10751 10750 ] final  109.56 input  -60.55 | X-H torsion
[ 11005 11000 10999 10996 ] final  111.89 input  -57.11 | X-H torsion

> <Gold.Protein.ActiveResidues>
 VAL166  LYS551  ARG553  GLY616  TRP617  ASP618  TYR619  PRO620  LYS621  CYS622 
 ASP623  PHE694  ASN695  SER759  ASP760  ASP761  ALA762  ILE779  LEU786  VAL792 
 PHE793  MET794  SER795  GLU796  ALA797  LYS798  CYS799  TRP800  GLU811  SER814 

> <Gold.Protein.RotatedAtoms>
  151.6168  135.1035  160.0092 H   0  0  0  0  0  0  0  0  0  0  0  0  # atno 6907 bound_to 6896
  152.4179  133.7064  159.6464 H   0  0  0  0  0  0  0  0  0  0  0  0  # atno 6908 bound_to 6896
  150.8067  133.8424  159.3224 H   0  0  0  0  0  0  0  0  0  0  0  0  # atno 6909 bound_to 6896
  146.0984  140.5801  142.8832 H   0  0  0  0  0  0  0  0  0  0  0  0  # atno 7974 bound_to 7965
  155.4634  140.3462  155.4316 H   0  0  0  0  0  0  0  0  0  0  0  0  # atno 8008 bound_to 7997
  156.1146  140.1470  156.9319 H   0  0  0  0  0  0  0  0  0  0  0  0  # atno 8009 bound_to 7997
  154.4780  140.0879  156.7288 H   0  0  0  0  0  0  0  0  0  0  0  0  # atno 8010 bound_to 7997
  139.4875  144.4330  151.9047 H   0  0  0  0  0  0  0  0  0  0  0  0  # atno 10167 bound_to 10162
  156.0937  130.6114  150.8986 H   0  0  0  0  0  0  0  0  0  0  0  0  # atno 10718 bound_to 10713
  153.4365  135.3776  155.2202 H   0  0  0  0  0  0  0  0  0  0  0  0  # atno 10763 bound_to 10752
  154.8752  135.3852  154.4204 H   0  0  0  0  0  0  0  0  0  0  0  0  # atno 10764 bound_to 10752
  153.4744  135.7087  153.6038 H   0  0  0  0  0  0  0  0  0  0  0  0  # atno 10765 bound_to 10752
  139.8914  134.9518  156.6502 H   0  0  0  0  0  0  0  0  0  0  0  0  # atno 11005 bound_to 11000
  144.7413  140.4951  143.6867 LP  0  0  0  0  0  0  0  0  0  0  0  0  # atno 17320 bound_to 7965
  145.5902  139.1495  143.3186 LP  0  0  0  0  0  0  0  0  0  0  0  0  # atno 17321 bound_to 7965
  140.3778  144.2774  150.5912 LP  0  0  0  0  0  0  0  0  0  0  0  0  # atno 17342 bound_to 10162
  140.5260  143.2254  151.8313 LP  0  0  0  0  0  0  0  0  0  0  0  0  # atno 17343 bound_to 10162
  157.6093  131.0937  150.8823 LP  0  0  0  0  0  0  0  0  0  0  0  0  # atno 17370 bound_to 10713
  156.8966  130.5232  149.5284 LP  0  0  0  0  0  0  0  0  0  0  0  0  # atno 17371 bound_to 10713
  140.7526  133.8884  155.8358 LP  0  0  0  0  0  0  0  0  0  0  0  0  # atno 17394 bound_to 11000
  140.9988  134.1179  157.4337 LP  0  0  0  0  0  0  0  0  0  0  0  0  # atno 17395 bound_to 11000

$$$$
