AV-unprocessed.smi:1365|AV-procd|sdf|5569|dock5
  -GOLD-   22720 5163D 1   1.00000     0.00000
 Structure written by MMmdl.
 41 42  0  0  0  0  0  0  0  0  3 V2000
  150.9656  141.0657  156.0436 C   0  0  0  0  0  0  0  0  0  0  0  0
  151.4161  139.6961  155.6658 C   0  0  0  0  0  0  0  0  0  0  0  0
  150.8280  138.4669  155.7620 C   0  0  0  0  0  0  0  0  0  0  0  0
  151.8131  137.5929  155.2259 C   0  0  0  0  0  0  0  0  0  0  0  0
  151.7006  136.2623  155.0920 N   0  5  0  0  0  0  0  0  0  0  0  0
  150.5004  135.6603  155.2565 C   0  0  0  0  0  0  0  0  0  0  0  0
  149.7012  135.8563  156.1749 O   0  0  0  0  0  0  0  0  0  0  0  0
  150.2078  134.7730  154.2964 N   0  0  0  0  0  0  0  0  0  0  0  0
  148.9920  133.9735  154.2340 C   0  0  0  0  0  0  0  0  0  0  0  0
  149.2295  132.6992  153.4135 C   0  0  0  0  0  0  0  0  0  0  0  0
  148.0648  131.7028  153.5384 C   0  0  0  0  0  0  0  0  0  0  0  0
  147.1106  131.8012  152.4050 N   0  3  0  0  0  0  0  0  0  0  0  0
  146.7550  133.2101  152.0914 C   0  0  0  0  0  0  0  0  0  0  0  0
  145.8749  133.2973  150.8328 C   0  0  0  0  0  0  0  0  0  0  0  0
  144.6128  132.4386  150.9823 C   0  0  0  0  0  0  0  0  0  0  0  0
  145.0006  130.9976  151.3370 C   0  0  0  0  0  0  0  0  0  0  0  0
  145.8969  130.9592  152.5866 C   0  0  0  0  0  0  0  0  0  0  0  0
  152.8953  138.2374  154.8228 N   0  0  0  0  0  0  0  0  0  0  0  0
  152.6517  139.5861  155.1079 O   0  0  0  0  0  0  0  0  0  0  0  0
  149.9899  141.2840  155.6094 H   0  0  0  0  0  0  0  0  0  0  0  0
  151.6681  141.8220  155.6928 H   0  0  0  0  0  0  0  0  0  0  0  0
  150.8828  141.1581  157.1266 H   0  0  0  0  0  0  0  0  0  0  0  0
  149.8522  138.2287  156.1577 H   0  0  0  0  0  0  0  0  0  0  0  0
  150.8866  134.6428  153.5607 H   0  0  0  0  0  0  0  0  0  0  0  0
  148.6748  133.7100  155.2444 H   0  0  0  0  0  0  0  0  0  0  0  0
  148.1946  134.5702  153.7886 H   0  0  0  0  0  0  0  0  0  0  0  0
  149.3693  132.9643  152.3645 H   0  0  0  0  0  0  0  0  0  0  0  0
  150.1611  132.2403  153.7437 H   0  0  0  0  0  0  0  0  0  0  0  0
  148.4349  130.6801  153.6259 H   0  0  0  0  0  0  0  0  0  0  0  0
  147.5398  131.9205  154.4696 H   0  0  0  0  0  0  0  0  0  0  0  0
  146.2395  133.6547  152.9442 H   0  0  0  0  0  0  0  0  0  0  0  0
  147.6627  133.7931  151.9302 H   0  0  0  0  0  0  0  0  0  0  0  0
  145.5986  134.3348  150.6421 H   0  0  0  0  0  0  0  0  0  0  0  0
  146.4440  132.9643  149.9636 H   0  0  0  0  0  0  0  0  0  0  0  0
  143.9743  132.8524  151.7640 H   0  0  0  0  0  0  0  0  0  0  0  0
  144.0310  132.4574  150.0601 H   0  0  0  0  0  0  0  0  0  0  0  0
  144.1028  130.4014  151.5033 H   0  0  0  0  0  0  0  0  0  0  0  0
  145.5240  130.5403  150.4964 H   0  0  0  0  0  0  0  0  0  0  0  0
  146.1760  129.9253  152.7862 H   0  0  0  0  0  0  0  0  0  0  0  0
  145.3388  131.3076  153.4571 H   0  0  0  0  0  0  0  0  0  0  0  0
  147.5964  131.4484  151.5928 H   0  0  0  0  0  0  0  0  0  0  0  0
  1  2  1  0  0  0  0
  1 20  1  0  0  0  0
  1 21  1  0  0  0  0
  1 22  1  0  0  0  0
  2 19  1  0  0  0  0
  2  3  2  0  0  0  0
  3  4  1  0  0  0  0
  3 23  1  0  0  0  0
  4  5  1  0  0  0  0
  4 18  2  0  0  0  0
  5  6  1  0  0  0  0
  6  7  2  0  0  0  0
  6  8  1  0  0  0  0
  8  9  1  0  0  0  0
  8 24  1  0  0  0  0
  9 10  1  0  0  0  0
  9 25  1  0  0  0  0
  9 26  1  0  0  0  0
 10 11  1  0  0  0  0
 10 27  1  0  0  0  0
 10 28  1  0  0  0  0
 11 12  1  0  0  0  0
 11 29  1  0  0  0  0
 11 30  1  0  0  0  0
 12 17  1  0  0  0  0
 12 13  1  0  0  0  0
 12 41  1  0  0  0  0
 13 14  1  0  0  0  0
 13 31  1  0  0  0  0
 13 32  1  0  0  0  0
 14 15  1  0  0  0  0
 14 33  1  0  0  0  0
 14 34  1  0  0  0  0
 15 16  1  0  0  0  0
 15 35  1  0  0  0  0
 15 36  1  0  0  0  0
 16 17  1  0  0  0  0
 16 37  1  0  0  0  0
 16 38  1  0  0  0  0
 17 39  1  0  0  0  0
 17 40  1  0  0  0  0
 18 19  1  0  0  0  0
M  CHG  1   5  -1
M  CHG  1  12   1
M  END
> <s_m_source_file>
AV-unprocessed.smi

> <i_m_source_file_index>
1365

> <i_lp_mmshare_version>
43012

> <i_f3d_flags>
0

> <s_epik_input>
W0NIM11jMVtjSF1jKG5vMSlbTkhdQyg9TylbTkhdW0NIMl1bQ0gyXVtDSDJdTjJbQ0gyXVtDSDJdW0NIMl1bQ0gyXVtDSDJdMg==

> <s_epik_cmdline>
J2VwaWtfcHl0aG9uJywgJy1waCcsICc3LjAnLCAnLXRuJywgJzgnLCAnLW1hJywgJzIwMCcsICctbWV0YWxfYmluZGluZycsICctaW1hZScsICc8aW5maWxlLm1hZT4nLCAnLW9tYWUnLCAnPG91dGZpbGUubWFlPic=

> <r_epik_Ionization_Penalty>
6.42355

> <r_epik_Ionization_Penalty_Charging>
6.42345

> <r_epik_Ionization_Penalty_Neutral>
0.000108417

> <r_epik_State_Penalty>
6.4233

> <r_epik_Charging_Adjusted_Penalty>
12.8467

> <i_epik_Tot_Q>
0

> <i_epik_Tot_abs_Q>
2

> <r_epik_Metal_State_Penalty>
2.35308

> <b_epik_Metal_Only>
1

> <s_lp_Force_Field>
OPLS_2005

> <r_lp_Energy>
6.88196

> <b_lp_Chiralities_Consistent>
1

> <s_lp_Variant>
AV-unprocessed.smi:1365-2

> <Gold.Version>
5.8.1

> <Gold.Id.Protein>
6NUR|6NUR_protein|mol2

> <Gold.PLP.Fitness>
46.0423

> <Gold.PLP.PLP>
-35.8612

> <Gold.PLP.part.hbond>
-5.0002

> <Gold.PLP.part.metal>
0.0000

> <Gold.PLP.part.buried>
-5.0185

> <Gold.PLP.part.nonpolar>
-26.5007

> <Gold.PLP.part.repulsive>
0.2248

> <Gold.PLP.ligand.clash>
0.0000

> <Gold.PLP.ligand.torsion>
0.9477

> <Gold.PLP.Chemscore.Hbond>
4.0000

> <Gold.PLP.Chemscore.CHOScore>
0.0000

> <Gold.PLP.Chemscore.Metal>
0.0000

> <Gold.Chemscore.Hbonds>
donor molecule, donor type, donor heavy atom, donor atom, acceptor molecule, acceptor atom, score
      L1  H    12    41       P1 10747  1.00
      P1  H  7989  7998       L1    19  0.02
      P1  H  7997  8010       L1    19  0.96
      P1  H 10752 10763       L1     5  1.79

> <Gold.PLP.Chemscore.Internal.Correction>
0.0765

> <Gold.Rescore>
     Score         DG    S(hbond)    S(metal)    S(lipo)     H(rot)  DE(clash)    DE(int)     intcor
     16.00     -18.24       2.48        0.00      77.28       1.78       0.04       2.21       ----

> <Gold.Chemscore.Fitness>
15.9959

> <Gold.Chemscore.DG>
-18.2394

> <Gold.Chemscore.ZeroCoef>
-5.4800

> <Gold.Chemscore.Hbond>
2.4755

> <Gold.Chemscore.Metal>
0.0000

> <Gold.Chemscore.Lipo>
77.2819

> <Gold.Chemscore.Internal_Hbond>
0.0000

> <Gold.Chemscore.DEClash>
0.0351

> <Gold.Chemscore.DEInternal>
2.2084

> <Gold.Chemscore.Rot>
1.7776

> <Gold.Chemscore.Internal.Correction>
   9.000000E+99

> <Gold.Chemscore.Hbonds>
donor molecule, donor type, donor heavy atom, donor atom, acceptor molecule, acceptor atom, score
      L1  H    12    41       P1 10747  0.96
      P1  H  7997  8010       L1    19  0.31
      P1  H 10752 10763       L1     5  0.77

> <Gold.Chemscore.Hbond.Weighted>
-8.2680

> <Gold.Chemscore.Metal.Weighted>
-0.0000

> <Gold.Chemscore.Lipo.Weighted>
-9.0420

> <Gold.Chemscore.Internal_Hbond.Weighted>
0.0000

> <Gold.Chemscore.DEClash.Weighted>
0.0351

> <Gold.Chemscore.DEInternal.Weighted>
2.2084

> <Gold.Chemscore.Rot.Weighted>
4.5506

> <Gold.Chemscore.Internal.Correction.Weighted>
   9.000000E+99

> <Gold.Protein.RotatedTorsions>
[ 6907 6896 6895 6894 ] final   75.48 input  -60.11 | X-H torsion
[ 7974 7965 7964 7962 ] final -119.91 input  175.53 | X-H torsion
[ 8008 7997 7996 7995 ] final   99.89 input   59.86 | X-H torsion
[ 10167 10162 10161 10158 ] final -164.19 input  -65.29 | X-H torsion
[ 10718 10713 10712 10709 ] final  -92.75 input   66.30 | X-H torsion
[ 10763 10752 10751 10750 ] final   58.48 input  -60.55 | X-H torsion
[ 11005 11000 10999 10996 ] final  -52.87 input  -57.11 | X-H torsion

> <Gold.Protein.ActiveResidues>
 VAL166  LYS551  ARG553  GLY616  TRP617  ASP618  TYR619  PRO620  LYS621  CYS622 
 ASP623  PHE694  ASN695  SER759  ASP760  ASP761  ALA762  ILE779  LEU786  VAL792 
 PHE793  MET794  SER795  GLU796  ALA797  LYS798  CYS799  TRP800  GLU811  SER814 

> <Gold.Protein.RotatedAtoms>
  152.5028  134.4114  159.9449 H   0  0  0  0  0  0  0  0  0  0  0  0  # atno 6907 bound_to 6896
  151.4083  133.3729  159.2748 H   0  0  0  0  0  0  0  0  0  0  0  0  # atno 6908 bound_to 6896
  150.9311  134.8747  159.7611 H   0  0  0  0  0  0  0  0  0  0  0  0  # atno 6909 bound_to 6896
  145.0573  140.8263  143.4173 H   0  0  0  0  0  0  0  0  0  0  0  0  # atno 7974 bound_to 7965
  156.1149  140.3222  155.8125 H   0  0  0  0  0  0  0  0  0  0  0  0  # atno 8008 bound_to 7997
  155.4607  140.0539  157.3008 H   0  0  0  0  0  0  0  0  0  0  0  0  # atno 8009 bound_to 7997
  154.4786  140.2043  155.9832 H   0  0  0  0  0  0  0  0  0  0  0  0  # atno 8010 bound_to 7997
  139.6267  144.0518  152.1981 H   0  0  0  0  0  0  0  0  0  0  0  0  # atno 10167 bound_to 10162
  156.0005  130.4999  150.5672 H   0  0  0  0  0  0  0  0  0  0  0  0  # atno 10718 bound_to 10713
  152.9872  135.5605  154.5559 H   0  0  0  0  0  0  0  0  0  0  0  0  # atno 10763 bound_to 10752
  154.4988  135.2796  155.1440 H   0  0  0  0  0  0  0  0  0  0  0  0  # atno 10764 bound_to 10752
  154.2879  135.6332  153.5426 H   0  0  0  0  0  0  0  0  0  0  0  0  # atno 10765 bound_to 10752
  141.0947  133.6626  156.4088 H   0  0  0  0  0  0  0  0  0  0  0  0  # atno 11005 bound_to 11000
  145.1453  139.2547  143.5469 LP  0  0  0  0  0  0  0  0  0  0  0  0  # atno 17320 bound_to 7965
  146.3522  140.1141  142.8603 LP  0  0  0  0  0  0  0  0  0  0  0  0  # atno 17321 bound_to 7965
  140.0173  144.6179  150.7596 LP  0  0  0  0  0  0  0  0  0  0  0  0  # atno 17342 bound_to 10162
  140.7415  143.2819  151.3573 LP  0  0  0  0  0  0  0  0  0  0  0  0  # atno 17343 bound_to 10162
  157.3573  131.0744  151.1665 LP  0  0  0  0  0  0  0  0  0  0  0  0  # atno 17370 bound_to 10713
  157.2462  130.6592  149.5911 LP  0  0  0  0  0  0  0  0  0  0  0  0  # atno 17371 bound_to 10713
  140.5169  134.6341  157.5304 LP  0  0  0  0  0  0  0  0  0  0  0  0  # atno 17394 bound_to 11000
  139.9780  134.7183  155.9912 LP  0  0  0  0  0  0  0  0  0  0  0  0  # atno 17395 bound_to 11000

$$$$
