AV-unprocessed.smi:1381|AV-procd|sdf|5614|dock1
  -GOLD-   22720 5223D 1   1.00000     0.00000
 Structure written by MMmdl.
 42 43  0  0  0  0  0  0  0  0  3 V2000
  150.9678  140.8147  157.0479 C   0  0  0  0  0  0  0  0  0  0  0  0
  151.3906  139.6233  156.2587 C   0  0  0  0  0  0  0  0  0  0  0  0
  150.7970  138.4193  156.0054 C   0  0  0  0  0  0  0  0  0  0  0  0
  151.7514  137.7518  155.1904 C   0  0  0  0  0  0  0  0  0  0  0  0
  151.6224  136.5217  154.6696 N   0  5  0  0  0  0  0  0  0  0  0  0
  150.6192  135.7121  155.0780 C   0  0  0  0  0  0  0  0  0  0  0  0
  150.0941  135.7016  156.1940 O   0  0  0  0  0  0  0  0  0  0  0  0
  150.2006  134.8549  154.1359 N   0  0  0  0  0  0  0  0  0  0  0  0
  149.1556  133.8526  154.3040 C   0  0  0  0  0  0  0  0  0  0  0  0
  148.8515  133.1338  152.9757 C   0  0  0  0  0  0  0  0  0  0  0  0
  147.7084  133.7441  152.2536 N   0  3  1  0  0  0  0  0  0  0  0  0
  147.3080  132.9594  151.0633 C   0  0  0  0  0  0  0  0  0  0  0  0
  146.1965  133.6884  150.2880 C   0  0  1  0  0  0  0  0  0  0  0  0
  145.6937  132.8669  149.0955 C   0  0  0  0  0  0  0  0  0  0  0  0
  145.0898  133.9254  151.1542 O   0  0  0  0  0  0  0  0  0  0  0  0
  145.3962  134.6798  152.3270 C   0  0  2  0  0  0  0  0  0  0  0  0
  145.6694  136.1613  152.0119 C   0  0  0  0  0  0  0  0  0  0  0  0
  146.5306  133.9999  153.1189 C   0  0  0  0  0  0  0  0  0  0  0  0
  152.8216  138.4923  154.9549 N   0  0  0  0  0  0  0  0  0  0  0  0
  152.6009  139.6919  155.6419 O   0  0  0  0  0  0  0  0  0  0  0  0
  150.2287  141.3977  156.4989 H   0  0  0  0  0  0  0  0  0  0  0  0
  151.8170  141.4629  157.2656 H   0  0  0  0  0  0  0  0  0  0  0  0
  150.5238  140.5118  157.9964 H   0  0  0  0  0  0  0  0  0  0  0  0
  149.8362  138.0688  156.3514 H   0  0  0  0  0  0  0  0  0  0  0  0
  150.6539  134.9000  153.2347 H   0  0  0  0  0  0  0  0  0  0  0  0
  149.4558  133.1513  155.0830 H   0  0  0  0  0  0  0  0  0  0  0  0
  148.2596  134.3559  154.6677 H   0  0  0  0  0  0  0  0  0  0  0  0
  149.7435  133.1922  152.3499 H   0  0  0  0  0  0  0  0  0  0  0  0
  148.6576  132.0719  153.1346 H   0  0  0  0  0  0  0  0  0  0  0  0
  148.1702  132.8122  150.4114 H   0  0  0  0  0  0  0  0  0  0  0  0
  146.9698  131.9699  151.3760 H   0  0  0  0  0  0  0  0  0  0  0  0
  146.5769  134.6367  149.9079 H   0  0  0  0  0  0  0  0  0  0  0  0
  146.5016  132.6545  148.3949 H   0  0  0  0  0  0  0  0  0  0  0  0
  144.9167  133.4052  148.5521 H   0  0  0  0  0  0  0  0  0  0  0  0
  145.2731  131.9146  149.4204 H   0  0  0  0  0  0  0  0  0  0  0  0
  144.4984  134.6519  152.9452 H   0  0  0  0  0  0  0  0  0  0  0  0
  145.7597  136.7406  152.9311 H   0  0  0  0  0  0  0  0  0  0  0  0
  144.8530  136.5915  151.4312 H   0  0  0  0  0  0  0  0  0  0  0  0
  146.5919  136.3029  151.4495 H   0  0  0  0  0  0  0  0  0  0  0  0
  146.1749  133.0508  153.5234 H   0  0  0  0  0  0  0  0  0  0  0  0
  146.8011  134.6203  153.9727 H   0  0  0  0  0  0  0  0  0  0  0  0
  148.0292  134.6384  151.9113 H   0  0  0  0  0  0  0  0  0  0  0  0
  1  2  1  0  0  0  0
  1 21  1  0  0  0  0
  1 22  1  0  0  0  0
  1 23  1  0  0  0  0
  2 20  1  0  0  0  0
  2  3  2  0  0  0  0
  3  4  1  0  0  0  0
  3 24  1  0  0  0  0
  4  5  1  0  0  0  0
  4 19  2  0  0  0  0
  5  6  1  0  0  0  0
  6  7  2  0  0  0  0
  6  8  1  0  0  0  0
  8  9  1  0  0  0  0
  8 25  1  0  0  0  0
  9 10  1  0  0  0  0
  9 26  1  0  0  0  0
  9 27  1  0  0  0  0
 10 11  1  0  0  0  0
 10 28  1  0  0  0  0
 10 29  1  0  0  0  0
 11 18  1  0  0  0  0
 11 12  1  0  0  0  0
 11 42  1  0  0  0  0
 12 13  1  0  0  0  0
 12 30  1  0  0  0  0
 12 31  1  0  0  0  0
 13 14  1  0  0  0  0
 13 15  1  0  0  0  0
 13 32  1  0  0  0  0
 14 33  1  0  0  0  0
 14 34  1  0  0  0  0
 14 35  1  0  0  0  0
 15 16  1  0  0  0  0
 16 17  1  0  0  0  0
 16 18  1  0  0  0  0
 16 36  1  0  0  0  0
 17 37  1  0  0  0  0
 17 38  1  0  0  0  0
 17 39  1  0  0  0  0
 18 40  1  0  0  0  0
 18 41  1  0  0  0  0
 19 20  1  0  0  0  0
M  CHG  1   5  -1
M  CHG  1  11   1
M  END
> <s_m_source_file>
AV-unprocessed.smi

> <i_m_source_file_index>
1381

> <i_lp_mmshare_version>
43012

> <i_f3d_flags>
0

> <s_epik_input>
W0NIM11jMVtjSF1jKG5vMSlbTkhdQyg9TylbTkhdW0NIMl1bQ0gyXU4yW0NIMl1bQ0BASF0oW0NIM10pT1tDQEBIXShbQ0gzXSlbQ0gyXTI=

> <s_epik_cmdline>
J2VwaWtfcHl0aG9uJywgJy1waCcsICc3LjAnLCAnLXRuJywgJzgnLCAnLW1hJywgJzIwMCcsICctbWV0YWxfYmluZGluZycsICctaW1hZScsICc8aW5maWxlLm1hZT4nLCAnLW9tYWUnLCAnPG91dGZpbGUubWFlPic=

> <r_epik_Ionization_Penalty>
6.73511

> <r_epik_Ionization_Penalty_Charging>
6.73502

> <r_epik_Ionization_Penalty_Neutral>
9.26583e-05

> <r_epik_State_Penalty>
6.93549

> <r_epik_Charging_Adjusted_Penalty>
13.6705

> <i_epik_Tot_Q>
0

> <i_epik_Tot_abs_Q>
2

> <r_epik_Metal_State_Penalty>
2.87211

> <b_epik_Metal_Only>
1

> <s_lp_Force_Field>
OPLS_2005

> <r_lp_Energy>
5.23247

> <b_lp_Chiralities_Consistent>
1

> <s_lp_Variant>
AV-unprocessed.smi:1381-13

> <Gold.Version>
5.8.1

> <Gold.Id.Protein>
6NUR|6NUR_protein|mol2

> <Gold.PLP.Fitness>
48.1277

> <Gold.PLP.PLP>
-33.8194

> <Gold.PLP.part.hbond>
-5.2814

> <Gold.PLP.part.metal>
0.0000

> <Gold.PLP.part.buried>
-2.5258

> <Gold.PLP.part.nonpolar>
-26.2232

> <Gold.PLP.part.repulsive>
0.4223

> <Gold.PLP.ligand.clash>
0.0000

> <Gold.PLP.ligand.torsion>
0.5137

> <Gold.PLP.Chemscore.Hbond>
5.0513

> <Gold.PLP.Chemscore.CHOScore>
0.0000

> <Gold.PLP.Chemscore.Metal>
0.0000

> <Gold.Chemscore.Hbonds>
donor molecule, donor type, donor heavy atom, donor atom, acceptor molecule, acceptor atom, score
      L1  H     8    25       P1  7949  0.13
      L1  H    11    42       P1  7948  1.70
      P1  H  7997  8009       L1    20  0.90
      P1  H 10752 10764       L1     5  2.00

> <Gold.PLP.Chemscore.Internal.Correction>
0.1818

> <Gold.Rescore>
     Score         DG    S(hbond)    S(metal)    S(lipo)     H(rot)  DE(clash)    DE(int)     intcor
     14.67     -16.54       2.46        0.00      58.97       1.58       0.03       1.84       ----

> <Gold.Chemscore.Fitness>
14.6694

> <Gold.Chemscore.DG>
-16.5412

> <Gold.Chemscore.ZeroCoef>
-5.4800

> <Gold.Chemscore.Hbond>
2.4565

> <Gold.Chemscore.Metal>
0.0000

> <Gold.Chemscore.Lipo>
58.9681

> <Gold.Chemscore.Internal_Hbond>
0.0000

> <Gold.Chemscore.DEClash>
0.0271

> <Gold.Chemscore.DEInternal>
1.8447

> <Gold.Chemscore.Rot>
1.5792

> <Gold.Chemscore.Internal.Correction>
   9.000000E+99

> <Gold.Chemscore.Hbonds>
donor molecule, donor type, donor heavy atom, donor atom, acceptor molecule, acceptor atom, score
      L1  H    11    42       P1  7948  0.15
      P1  H  7997  8009       L1    20  0.17
      P1  H 10752 10764       L1     5  0.57

> <Gold.Chemscore.Hbond.Weighted>
-8.2047

> <Gold.Chemscore.Metal.Weighted>
-0.0000

> <Gold.Chemscore.Lipo.Weighted>
-6.8993

> <Gold.Chemscore.Internal_Hbond.Weighted>
0.0000

> <Gold.Chemscore.DEClash.Weighted>
0.0271

> <Gold.Chemscore.DEInternal.Weighted>
1.8447

> <Gold.Chemscore.Rot.Weighted>
4.0428

> <Gold.Chemscore.Internal.Correction.Weighted>
   9.000000E+99

> <Gold.Protein.RotatedTorsions>
[ 6907 6896 6895 6894 ] final -170.74 input  -60.11 | X-H torsion
[ 7974 7965 7964 7962 ] final   60.61 input  175.53 | X-H torsion
[ 8008 7997 7996 7995 ] final -132.06 input   59.86 | X-H torsion
[ 10167 10162 10161 10158 ] final -144.83 input  -65.29 | X-H torsion
[ 10718 10713 10712 10709 ] final  -12.92 input   66.30 | X-H torsion
[ 10763 10752 10751 10750 ] final  -64.65 input  -60.55 | X-H torsion
[ 11005 11000 10999 10996 ] final -155.38 input  -57.11 | X-H torsion

> <Gold.Protein.ActiveResidues>
 VAL166  LYS551  ARG553  GLY616  TRP617  ASP618  TYR619  PRO620  LYS621  CYS622 
 ASP623  PHE694  ASN695  SER759  ASP760  ASP761  ALA762  ILE779  LEU786  VAL792 
 PHE793  MET794  SER795  GLU796  ALA797  LYS798  CYS799  TRP800  GLU811  SER814 

> <Gold.Protein.RotatedAtoms>
  151.5125  133.3482  159.2887 H   0  0  0  0  0  0  0  0  0  0  0  0  # atno 6907 bound_to 6896
  150.8703  134.8077  159.7160 H   0  0  0  0  0  0  0  0  0  0  0  0  # atno 6908 bound_to 6896
  152.4693  134.5008  159.9776 H   0  0  0  0  0  0  0  0  0  0  0  0  # atno 6909 bound_to 6896
  145.8940  139.3532  143.0632 H   0  0  0  0  0  0  0  0  0  0  0  0  # atno 7974 bound_to 7965
  155.3227  140.0463  157.3040 H   0  0  0  0  0  0  0  0  0  0  0  0  # atno 8008 bound_to 7997
  154.5371  140.2276  155.8670 H   0  0  0  0  0  0  0  0  0  0  0  0  # atno 8009 bound_to 7997
  156.1845  140.3066  155.9219 H   0  0  0  0  0  0  0  0  0  0  0  0  # atno 8010 bound_to 7997
  139.7862  143.8031  152.2645 H   0  0  0  0  0  0  0  0  0  0  0  0  # atno 10167 bound_to 10162
  156.6376  130.4919  149.6106 H   0  0  0  0  0  0  0  0  0  0  0  0  # atno 10718 bound_to 10713
  154.3332  135.6172  153.5561 H   0  0  0  0  0  0  0  0  0  0  0  0  # atno 10763 bound_to 10752
  152.9810  135.5752  154.4937 H   0  0  0  0  0  0  0  0  0  0  0  0  # atno 10764 bound_to 10752
  154.4628  135.2856  155.1677 H   0  0  0  0  0  0  0  0  0  0  0  0  # atno 10765 bound_to 10752
  140.6871  134.4081  157.5222 H   0  0  0  0  0  0  0  0  0  0  0  0  # atno 11005 bound_to 11000
  145.8873  140.9326  143.0570 LP  0  0  0  0  0  0  0  0  0  0  0  0  # atno 17320 bound_to 7965
  144.6732  140.0858  143.7467 LP  0  0  0  0  0  0  0  0  0  0  0  0  # atno 17321 bound_to 7965
  139.8108  144.7336  150.9700 LP  0  0  0  0  0  0  0  0  0  0  0  0  # atno 17342 bound_to 10162
  140.7819  143.4252  151.0779 LP  0  0  0  0  0  0  0  0  0  0  0  0  # atno 17343 bound_to 10162
  156.2184  130.6722  151.1343 LP  0  0  0  0  0  0  0  0  0  0  0  0  # atno 17370 bound_to 10713
  157.7181  131.0698  150.6248 LP  0  0  0  0  0  0  0  0  0  0  0  0  # atno 17371 bound_to 10713
  139.8934  134.8731  156.2224 LP  0  0  0  0  0  0  0  0  0  0  0  0  # atno 17394 bound_to 11000
  141.0271  133.7009  156.1366 LP  0  0  0  0  0  0  0  0  0  0  0  0  # atno 17395 bound_to 11000

$$$$
