AV-unprocessed.smi:2488|AV-procd|sdf|9794|dock9
  -GOLD-   2272013433D 1   1.00000     0.00000
 Structure written by MMmdl.
 33 34  0  0  0  0  0  0  0  0  1 V2000
  152.7771  142.8311  161.2656 C   0  0  0  0  0  0  0  0  0  0  0  0
  153.2948  142.1984  159.9689 C   0  0  0  0  0  0  0  0  0  0  0  0
  152.1688  141.8035  159.0313 C   0  0  0  0  0  0  0  0  0  0  0  0
  151.3899  142.8036  158.5621 N   0  0  0  0  0  0  0  0  0  0  0  0
  150.3930  142.4567  157.7450 C   0  0  0  0  0  0  0  0  0  0  0  0
  150.0828  141.2218  157.3435 N   0  0  0  0  0  0  0  0  0  0  0  0
  150.8543  140.2054  157.8012 C   0  0  0  0  0  0  0  0  0  0  0  0
  150.5539  138.8828  157.4148 N   0  0  0  0  0  0  0  0  0  0  0  0
  150.0940  138.1132  158.5689 C   0  0  0  0  0  0  0  0  0  0  0  0
  149.9130  136.6343  158.2024 C   0  0  0  0  0  0  0  0  0  0  0  0
  149.0117  136.5368  157.1090 O   0  0  0  0  0  0  0  0  0  0  0  0
  149.5277  137.1787  155.9496 C   0  0  0  0  0  0  0  0  0  0  0  0
  149.7354  138.6913  156.2035 C   0  0  2  0  0  0  0  0  0  0  0  0
  150.2849  139.3135  154.9020 C   0  0  0  0  0  0  0  0  0  0  0  0
  149.5660  139.1917  153.7810 N   0  0  0  0  0  0  0  0  0  0  0  0
  151.3669  139.8962  154.9121 O   0  0  0  0  0  0  0  0  0  0  0  0
  151.9358  140.4570  158.6766 C   0  0  0  0  0  0  0  0  0  0  0  0
  152.7151  139.4536  159.1493 F   0  0  0  0  0  0  0  0  0  0  0  0
  153.6036  143.1021  161.9227 H   0  0  0  0  0  0  0  0  0  0  0  0
  152.1320  142.1399  161.8089 H   0  0  0  0  0  0  0  0  0  0  0  0
  152.2036  143.7357  161.0615 H   0  0  0  0  0  0  0  0  0  0  0  0
  153.9561  142.8979  159.4559 H   0  0  0  0  0  0  0  0  0  0  0  0
  153.9011  141.3227  160.2018 H   0  0  0  0  0  0  0  0  0  0  0  0
  149.7716  143.2572  157.3718 H   0  0  0  0  0  0  0  0  0  0  0  0
  150.8032  138.1929  159.3941 H   0  0  0  0  0  0  0  0  0  0  0  0
  149.1468  138.5238  158.9236 H   0  0  0  0  0  0  0  0  0  0  0  0
  150.8688  136.1710  157.9517 H   0  0  0  0  0  0  0  0  0  0  0  0
  149.5039  136.0841  159.0497 H   0  0  0  0  0  0  0  0  0  0  0  0
  150.4616  136.6969  155.6526 H   0  0  0  0  0  0  0  0  0  0  0  0
  148.8211  137.0212  155.1335 H   0  0  0  0  0  0  0  0  0  0  0  0
  148.7530  139.1307  156.3876 H   0  0  0  0  0  0  0  0  0  0  0  0
  149.9093  139.5880  152.9180 H   0  0  0  0  0  0  0  0  0  0  0  0
  148.6844  138.7003  153.8019 H   0  0  0  0  0  0  0  0  0  0  0  0
  1  2  1  0  0  0  0
  1 19  1  0  0  0  0
  1 20  1  0  0  0  0
  1 21  1  0  0  0  0
  2  3  1  0  0  0  0
  2 22  1  0  0  0  0
  2 23  1  0  0  0  0
  3 17  1  0  0  0  0
  3  4  2  0  0  0  0
  4  5  1  0  0  0  0
  5  6  2  0  0  0  0
  5 24  1  0  0  0  0
  6  7  1  0  0  0  0
  7  8  1  0  0  0  0
  7 17  2  0  0  0  0
  8 13  1  0  0  0  0
  8  9  1  0  0  0  0
  9 10  1  0  0  0  0
  9 25  1  0  0  0  0
  9 26  1  0  0  0  0
 10 11  1  0  0  0  0
 10 27  1  0  0  0  0
 10 28  1  0  0  0  0
 11 12  1  0  0  0  0
 12 13  1  0  0  0  0
 12 29  1  0  0  0  0
 12 30  1  0  0  0  0
 13 14  1  0  0  0  0
 13 31  1  0  0  0  0
 14 15  1  0  0  0  0
 14 16  2  0  0  0  0
 15 32  1  0  0  0  0
 15 33  1  0  0  0  0
 17 18  1  0  0  0  0
M  END
> <s_m_source_file>
AV-unprocessed.smi

> <i_m_source_file_index>
2488

> <i_lp_mmshare_version>
43012

> <i_f3d_flags>
0

> <s_epik_input>
W0NIM11bQ0gyXWMxbltjSF1uYyhjMUYpTjJbQ0gyXVtDSDJdT1tDSDJdW0NASF0yQyg9TylbTkgyXQ==

> <s_epik_cmdline>
J2VwaWtfcHl0aG9uJywgJy1waCcsICc3LjAnLCAnLXRuJywgJzgnLCAnLW1hJywgJzIwMCcsICctbWV0YWxfYmluZGluZycsICctaW1hZScsICc8aW5maWxlLm1hZT4nLCAnLW9tYWUnLCAnPG91dGZpbGUubWFlPic=

> <r_lp_tautomer_probability>
1

> <r_epik_Ionization_Penalty>
2.73136e-05

> <r_epik_Ionization_Penalty_Charging>
0

> <r_epik_Ionization_Penalty_Neutral>
2.73136e-05

> <r_epik_State_Penalty>
-0

> <r_epik_Charging_Adjusted_Penalty>
0

> <i_epik_Tot_Q>
0

> <i_epik_Tot_abs_Q>
0

> <r_epik_Metal_State_Penalty>
-0

> <b_epik_Metal_Only>
0

> <s_lp_Force_Field>
OPLS_2005

> <r_lp_Energy>
13.0675

> <b_lp_Chiralities_Consistent>
1

> <s_lp_Variant>
AV-unprocessed.smi:2488-2

> <Gold.Version>
5.8.1

> <Gold.Id.Protein>
6NUR|6NUR_protein|mol2

> <Gold.PLP.Fitness>
35.3239

> <Gold.PLP.PLP>
-26.8540

> <Gold.PLP.part.hbond>
-2.0000

> <Gold.PLP.part.metal>
0.0000

> <Gold.PLP.part.buried>
-6.1898

> <Gold.PLP.part.nonpolar>
-19.3445

> <Gold.PLP.part.repulsive>
0.2529

> <Gold.PLP.ligand.clash>
0.0000

> <Gold.PLP.ligand.torsion>
0.3432

> <Gold.PLP.Chemscore.Hbond>
1.9920

> <Gold.PLP.Chemscore.CHOScore>
1.0000

> <Gold.PLP.Chemscore.Metal>
0.0000

> <Gold.Chemscore.Hbonds>
donor molecule, donor type, donor heavy atom, donor atom, acceptor molecule, acceptor atom, score
      L1  H    15    32       P1  7957  0.99
      P1  H  7989  7998       L1    16  1.00
      L1  C     5    24       P1  8028  1.00

> <Gold.PLP.Chemscore.Internal.Correction>
0.1805

> <Gold.Rescore>
     Score         DG    S(hbond)    S(metal)    S(lipo)     H(rot)  DE(clash)    DE(int)     intcor
     12.50     -13.52       1.99        0.00      52.39       1.86       0.02       1.00       ----

> <Gold.Chemscore.Fitness>
12.5003

> <Gold.Chemscore.DG>
-13.5153

> <Gold.Chemscore.ZeroCoef>
-5.4800

> <Gold.Chemscore.Hbond>
1.9948

> <Gold.Chemscore.Metal>
0.0000

> <Gold.Chemscore.Lipo>
52.3899

> <Gold.Chemscore.Internal_Hbond>
0.0000

> <Gold.Chemscore.DEClash>
0.0176

> <Gold.Chemscore.DEInternal>
0.9974

> <Gold.Chemscore.Rot>
1.8582

> <Gold.Chemscore.Internal.Correction>
   9.000000E+99

> <Gold.Chemscore.Hbonds>
donor molecule, donor type, donor heavy atom, donor atom, acceptor molecule, acceptor atom, score
      L1  H    15    32       P1  7957  0.94
      P1  H  7989  7998       L1    16  0.88

> <Gold.Chemscore.Hbond.Weighted>
-6.6627

> <Gold.Chemscore.Metal.Weighted>
-0.0000

> <Gold.Chemscore.Lipo.Weighted>
-6.1296

> <Gold.Chemscore.Internal_Hbond.Weighted>
0.0000

> <Gold.Chemscore.DEClash.Weighted>
0.0176

> <Gold.Chemscore.DEInternal.Weighted>
0.9974

> <Gold.Chemscore.Rot.Weighted>
4.7570

> <Gold.Chemscore.Internal.Correction.Weighted>
   9.000000E+99

> <Gold.Protein.RotatedTorsions>
[ 6907 6896 6895 6894 ] final -174.97 input  -60.11 | X-H torsion
[ 7974 7965 7964 7962 ] final -140.56 input  175.53 | X-H torsion
[ 8008 7997 7996 7995 ] final   95.47 input   59.86 | X-H torsion
[ 10167 10162 10161 10158 ] final   66.48 input  -65.29 | X-H torsion
[ 10718 10713 10712 10709 ] final   80.02 input   66.30 | X-H torsion
[ 10763 10752 10751 10750 ] final   36.82 input  -60.55 | X-H torsion
[ 11005 11000 10999 10996 ] final   52.28 input  -57.11 | X-H torsion

> <Gold.Protein.ActiveResidues>
 VAL166  LYS551  ARG553  GLY616  TRP617  ASP618  TYR619  PRO620  LYS621  CYS622 
 ASP623  PHE694  ASN695  SER759  ASP760  ASP761  ALA762  ILE779  LEU786  VAL792 
 PHE793  MET794  SER795  GLU796  ALA797  LYS798  CYS799  TRP800  GLU811  SER814 

> <Gold.Protein.RotatedAtoms>
  151.5810  133.3378  159.3008 H   0  0  0  0  0  0  0  0  0  0  0  0  # atno 6907 bound_to 6896
  150.8313  134.7571  159.6867 H   0  0  0  0  0  0  0  0  0  0  0  0  # atno 6908 bound_to 6896
  152.4396  134.5623  159.9949 H   0  0  0  0  0  0  0  0  0  0  0  0  # atno 6909 bound_to 6896
  144.8587  140.6185  143.5342 H   0  0  0  0  0  0  0  0  0  0  0  0  # atno 7974 bound_to 7965
  156.0692  140.3286  155.7555 H   0  0  0  0  0  0  0  0  0  0  0  0  # atno 8008 bound_to 7997
  155.5333  140.0595  157.2902 H   0  0  0  0  0  0  0  0  0  0  0  0  # atno 8009 bound_to 7997
  154.4521  140.1923  156.0506 H   0  0  0  0  0  0  0  0  0  0  0  0  # atno 8010 bound_to 7997
  140.0999  144.4913  150.7044 H   0  0  0  0  0  0  0  0  0  0  0  0  # atno 10167 bound_to 10162
  157.6794  130.9940  150.2017 H   0  0  0  0  0  0  0  0  0  0  0  0  # atno 10718 bound_to 10713
  153.0062  135.6295  154.2046 H   0  0  0  0  0  0  0  0  0  0  0  0  # atno 10763 bound_to 10752
  154.1789  135.2814  155.3060 H   0  0  0  0  0  0  0  0  0  0  0  0  # atno 10764 bound_to 10752
  154.5850  135.5635  153.7282 H   0  0  0  0  0  0  0  0  0  0  0  0  # atno 10765 bound_to 10752
  140.0862  134.5271  155.8897 H   0  0  0  0  0  0  0  0  0  0  0  0  # atno 11005 bound_to 11000
  145.4355  139.1543  143.3999 LP  0  0  0  0  0  0  0  0  0  0  0  0  # atno 17320 bound_to 7965
  146.2843  140.4473  142.8764 LP  0  0  0  0  0  0  0  0  0  0  0  0  # atno 17321 bound_to 7965
  140.6983  143.2418  151.4937 LP  0  0  0  0  0  0  0  0  0  0  0  0  # atno 17342 bound_to 10162
  139.5677  144.2003  152.1790 LP  0  0  0  0  0  0  0  0  0  0  0  0  # atno 17343 bound_to 10162
  156.2707  130.3721  149.8035 LP  0  0  0  0  0  0  0  0  0  0  0  0  # atno 17370 bound_to 10713
  156.5753  130.8442  151.3368 LP  0  0  0  0  0  0  0  0  0  0  0  0  # atno 17371 bound_to 10713
  141.2063  133.6654  156.6236 LP  0  0  0  0  0  0  0  0  0  0  0  0  # atno 17394 bound_to 11000
  140.3416  134.7844  157.4402 LP  0  0  0  0  0  0  0  0  0  0  0  0  # atno 17395 bound_to 11000

$$$$
