AV-unprocessed.smi:2998|AV-procd|sdf|11416|dock3
  -GOLD-   2272016343D 1   1.00000     0.00000
 Structure written by MMmdl.
 41 43  0  0  0  0  0  0  0  0  1 V2000
  147.4944  141.0102  155.4956 O   0  0  0  0  0  0  0  0  0  0  0  0
  148.2654  140.8111  154.5557 C   0  0  0  0  0  0  0  0  0  0  0  0
  149.6674  141.4384  154.5402 C   0  0  0  0  0  0  0  0  0  0  0  0
  150.4005  141.2665  155.8082 N   0  0  0  0  0  0  0  0  0  0  0  0
  149.8741  141.9243  156.9373 C   0  0  0  0  0  0  0  0  0  0  0  0
  150.4335  141.8340  158.1016 N   0  0  0  0  0  0  0  0  0  0  0  0
  151.5964  141.0708  158.2580 C   0  0  0  0  0  0  0  0  0  0  0  0
  152.2270  141.0168  159.6429 C   0  0  0  0  0  0  0  0  0  0  0  0
  152.5884  142.3680  160.2830 C   0  0  0  0  0  0  0  0  0  0  0  0
  153.8575  141.6990  160.8226 C   0  0  0  0  0  0  0  0  0  0  0  0
  153.7273  140.6835  159.6819 C   0  0  0  0  0  0  0  0  0  0  0  0
  152.1478  140.4310  157.1996 C   0  0  0  0  0  0  0  0  0  0  0  0
  151.5348  140.5087  155.8737 C   0  0  0  0  0  0  0  0  0  0  0  0
  152.0040  139.9339  154.8911 O   0  0  0  0  0  0  0  0  0  0  0  0
  147.9572  140.0378  153.5041 N   0  0  0  0  0  0  0  0  0  0  0  0
  146.6827  139.3520  153.3105 C   0  0  0  0  0  0  0  0  0  0  0  0
  146.5091  138.2353  154.3554 C   0  0  0  0  0  0  0  0  0  0  0  0
  146.7214  136.9225  153.6018 C   0  0  0  0  0  0  0  0  0  0  0  0
  146.1986  137.2127  152.1987 C   0  0  0  0  0  0  0  0  0  0  0  0
  146.6099  138.6623  151.9311 C   0  0  0  0  0  0  0  0  0  0  0  0
  150.2173  141.0154  153.6975 H   0  0  0  0  0  0  0  0  0  0  0  0
  149.5803  142.5027  154.3126 H   0  0  0  0  0  0  0  0  0  0  0  0
  148.9719  142.5125  156.7609 H   0  0  0  0  0  0  0  0  0  0  0  0
  151.6530  140.3854  160.3235 H   0  0  0  0  0  0  0  0  0  0  0  0
  152.8117  143.1526  159.5574 H   0  0  0  0  0  0  0  0  0  0  0  0
  151.8920  142.7119  161.0484 H   0  0  0  0  0  0  0  0  0  0  0  0
  154.7536  142.3189  160.7835 H   0  0  0  0  0  0  0  0  0  0  0  0
  153.7154  141.2510  161.8075 H   0  0  0  0  0  0  0  0  0  0  0  0
  153.9600  139.6542  159.9565 H   0  0  0  0  0  0  0  0  0  0  0  0
  154.2655  140.9941  158.7846 H   0  0  0  0  0  0  0  0  0  0  0  0
  153.0504  139.8512  157.3275 H   0  0  0  0  0  0  0  0  0  0  0  0
  148.6505  139.9242  152.7787 H   0  0  0  0  0  0  0  0  0  0  0  0
  145.8665  140.0686  153.4202 H   0  0  0  0  0  0  0  0  0  0  0  0
  147.1783  138.3323  155.2116 H   0  0  0  0  0  0  0  0  0  0  0  0
  145.4898  138.2624  154.7427 H   0  0  0  0  0  0  0  0  0  0  0  0
  147.7864  136.6912  153.5567 H   0  0  0  0  0  0  0  0  0  0  0  0
  146.2157  136.0797  154.0740 H   0  0  0  0  0  0  0  0  0  0  0  0
  146.5900  136.5203  151.4526 H   0  0  0  0  0  0  0  0  0  0  0  0
  145.1109  137.1314  152.1900 H   0  0  0  0  0  0  0  0  0  0  0  0
  145.9120  139.1634  151.2597 H   0  0  0  0  0  0  0  0  0  0  0  0
  147.5855  138.6709  151.4422 H   0  0  0  0  0  0  0  0  0  0  0  0
  1  2  2  0  0  0  0
  2  3  1  0  0  0  0
  2 15  1  0  0  0  0
  3  4  1  0  0  0  0
  3 21  1  0  0  0  0
  3 22  1  0  0  0  0
  4 13  1  0  0  0  0
  4  5  1  0  0  0  0
  5  6  2  0  0  0  0
  5 23  1  0  0  0  0
  6  7  1  0  0  0  0
  7  8  1  0  0  0  0
  7 12  2  0  0  0  0
  8 11  1  0  0  0  0
  8  9  1  0  0  0  0
  8 24  1  0  0  0  0
  9 10  1  0  0  0  0
  9 25  1  0  0  0  0
  9 26  1  0  0  0  0
 10 11  1  0  0  0  0
 10 27  1  0  0  0  0
 10 28  1  0  0  0  0
 11 29  1  0  0  0  0
 11 30  1  0  0  0  0
 12 13  1  0  0  0  0
 12 31  1  0  0  0  0
 13 14  2  0  0  0  0
 15 16  1  0  0  0  0
 15 32  1  0  0  0  0
 16 20  1  0  0  0  0
 16 17  1  0  0  0  0
 16 33  1  0  0  0  0
 17 18  1  0  0  0  0
 17 34  1  0  0  0  0
 17 35  1  0  0  0  0
 18 19  1  0  0  0  0
 18 36  1  0  0  0  0
 18 37  1  0  0  0  0
 19 20  1  0  0  0  0
 19 38  1  0  0  0  0
 19 39  1  0  0  0  0
 20 40  1  0  0  0  0
 20 41  1  0  0  0  0
M  END
> <s_m_source_file>
AV-unprocessed.smi

> <i_m_source_file_index>
2998

> <i_lp_mmshare_version>
43012

> <i_f3d_flags>
0

> <s_epik_input>
W0NIMl0xW0NIMl1bQ0gyXVtDSDJdW0NIXTFbTkhdQyg9TylbQ0gyXW4yW2NIXW5jKFtjSF1jMj1PKVtDSF0zW0NIMl1bQ0gyXVtDSDJdMw==

> <s_epik_cmdline>
J2VwaWtfcHl0aG9uJywgJy1waCcsICc3LjAnLCAnLXRuJywgJzgnLCAnLW1hJywgJzIwMCcsICctbWV0YWxfYmluZGluZycsICctaW1hZScsICc8aW5maWxlLm1hZT4nLCAnLW9tYWUnLCAnPG91dGZpbGUubWFlPic=

> <r_lp_tautomer_probability>
1

> <r_epik_Ionization_Penalty>
7.51496e-06

> <r_epik_Ionization_Penalty_Charging>
8.69507e-09

> <r_epik_Ionization_Penalty_Neutral>
7.50627e-06

> <r_epik_State_Penalty>
-0

> <r_epik_Charging_Adjusted_Penalty>
8.69507e-09

> <i_epik_Tot_Q>
0

> <i_epik_Tot_abs_Q>
0

> <r_epik_Metal_State_Penalty>
-0

> <b_epik_Metal_Only>
0

> <s_lp_Force_Field>
OPLS_2005

> <r_lp_Energy>
32.6408

> <b_lp_Chiralities_Consistent>
1

> <s_lp_Variant>
AV-unprocessed.smi:2998-1

> <Gold.Version>
5.8.1

> <Gold.Id.Protein>
6NUR|6NUR_protein|mol2

> <Gold.PLP.Fitness>
44.3261

> <Gold.PLP.PLP>
-36.2031

> <Gold.PLP.part.hbond>
-2.0000

> <Gold.PLP.part.metal>
0.0000

> <Gold.PLP.part.buried>
0.0483

> <Gold.PLP.part.nonpolar>
-34.2152

> <Gold.PLP.part.repulsive>
0.2203

> <Gold.PLP.ligand.clash>
0.0000

> <Gold.PLP.ligand.torsion>
0.5433

> <Gold.PLP.Chemscore.Hbond>
1.9440

> <Gold.PLP.Chemscore.CHOScore>
1.0000

> <Gold.PLP.Chemscore.Metal>
0.0000

> <Gold.Chemscore.Hbonds>
donor molecule, donor type, donor heavy atom, donor atom, acceptor molecule, acceptor atom, score
      L1  H    15    32       P1  7957  1.00
      P1  H  7989  7998       L1    14  0.86
      L1  C     5    23       P1  8028  0.92

> <Gold.PLP.Chemscore.Internal.Correction>
0.3775

> <Gold.Rescore>
     Score         DG    S(hbond)    S(metal)    S(lipo)     H(rot)  DE(clash)    DE(int)     intcor
     14.64     -16.78       1.79        0.00      81.20       1.63       0.32       1.82       ----

> <Gold.Chemscore.Fitness>
14.6375

> <Gold.Chemscore.DG>
-16.7797

> <Gold.Chemscore.ZeroCoef>
-5.4800

> <Gold.Chemscore.Hbond>
1.7873

> <Gold.Chemscore.Metal>
0.0000

> <Gold.Chemscore.Lipo>
81.1995

> <Gold.Chemscore.Internal_Hbond>
0.0000

> <Gold.Chemscore.DEClash>
0.3173

> <Gold.Chemscore.DEInternal>
1.8249

> <Gold.Chemscore.Rot>
1.6290

> <Gold.Chemscore.Internal.Correction>
   9.000000E+99

> <Gold.Chemscore.Hbonds>
donor molecule, donor type, donor heavy atom, donor atom, acceptor molecule, acceptor atom, score
      L1  H    15    32       P1  7957  1.00
      P1  H  7989  7998       L1    14  0.59

> <Gold.Chemscore.Hbond.Weighted>
-5.9695

> <Gold.Chemscore.Metal.Weighted>
-0.0000

> <Gold.Chemscore.Lipo.Weighted>
-9.5003

> <Gold.Chemscore.Internal_Hbond.Weighted>
0.0000

> <Gold.Chemscore.DEClash.Weighted>
0.3173

> <Gold.Chemscore.DEInternal.Weighted>
1.8249

> <Gold.Chemscore.Rot.Weighted>
4.1702

> <Gold.Chemscore.Internal.Correction.Weighted>
   9.000000E+99

> <Gold.Protein.RotatedTorsions>
[ 6907 6896 6895 6894 ] final -154.19 input  -60.11 | X-H torsion
[ 7974 7965 7964 7962 ] final    7.06 input  175.53 | X-H torsion
[ 8008 7997 7996 7995 ] final -100.43 input   59.86 | X-H torsion
[ 10167 10162 10161 10158 ] final  -35.55 input  -65.29 | X-H torsion
[ 10718 10713 10712 10709 ] final -146.90 input   66.30 | X-H torsion
[ 10763 10752 10751 10750 ] final  -65.38 input  -60.55 | X-H torsion
[ 11005 11000 10999 10996 ] final -146.60 input  -57.11 | X-H torsion

> <Gold.Protein.ActiveResidues>
 VAL166  LYS551  ARG553  GLY616  TRP617  ASP618  TYR619  PRO620  LYS621  CYS622 
 ASP623  PHE694  ASN695  SER759  ASP760  ASP761  ALA762  ILE779  LEU786  VAL792 
 PHE793  MET794  SER795  GLU796  ALA797  LYS798  CYS799  TRP800  GLU811  SER814 

> <Gold.Protein.RotatedAtoms>
  151.2538  133.4336  159.2612 H   0  0  0  0  0  0  0  0  0  0  0  0  # atno 6907 bound_to 6896
  151.0593  134.9726  159.8262 H   0  0  0  0  0  0  0  0  0  0  0  0  # atno 6908 bound_to 6896
  152.5395  134.2489  159.8944 H   0  0  0  0  0  0  0  0  0  0  0  0  # atno 6909 bound_to 6896
  146.2430  140.0140  142.8404 H   0  0  0  0  0  0  0  0  0  0  0  0  # atno 7974 bound_to 7965
  154.8285  140.0441  157.1460 H   0  0  0  0  0  0  0  0  0  0  0  0  # atno 8008 bound_to 7997
  154.9179  140.3023  155.5211 H   0  0  0  0  0  0  0  0  0  0  0  0  # atno 8009 bound_to 7997
  156.2985  140.2346  156.4226 H   0  0  0  0  0  0  0  0  0  0  0  0  # atno 8010 bound_to 7997
  140.7162  143.3469  151.2237 H   0  0  0  0  0  0  0  0  0  0  0  0  # atno 10167 bound_to 10162
  156.4007  130.7932  151.2142 H   0  0  0  0  0  0  0  0  0  0  0  0  # atno 10718 bound_to 10713
  154.3442  135.6150  153.5611 H   0  0  0  0  0  0  0  0  0  0  0  0  # atno 10763 bound_to 10752
  152.9802  135.5777  154.4818 H   0  0  0  0  0  0  0  0  0  0  0  0  # atno 10764 bound_to 10752
  154.4528  135.2853  155.1746 H   0  0  0  0  0  0  0  0  0  0  0  0  # atno 10765 bound_to 10752
  140.7803  134.3086  157.5047 H   0  0  0  0  0  0  0  0  0  0  0  0  # atno 11005 bound_to 11000
  145.1302  140.9513  143.4549 LP  0  0  0  0  0  0  0  0  0  0  0  0  # atno 17320 bound_to 7965
  145.0395  139.3272  143.5983 LP  0  0  0  0  0  0  0  0  0  0  0  0  # atno 17321 bound_to 7965
  139.6991  143.9563  152.2897 LP  0  0  0  0  0  0  0  0  0  0  0  0  # atno 17342 bound_to 10162
  139.9250  144.6776  150.8421 LP  0  0  0  0  0  0  0  0  0  0  0  0  # atno 17343 bound_to 10162
  157.7503  131.0287  150.4063 LP  0  0  0  0  0  0  0  0  0  0  0  0  # atno 17370 bound_to 10713
  156.4342  130.3978  149.6740 LP  0  0  0  0  0  0  0  0  0  0  0  0  # atno 17371 bound_to 10713
  139.8743  134.9314  156.3528 LP  0  0  0  0  0  0  0  0  0  0  0  0  # atno 17394 bound_to 11000
  140.9489  133.7464  156.0245 LP  0  0  0  0  0  0  0  0  0  0  0  0  # atno 17395 bound_to 11000

$$$$
