AV-unprocessed.smi:2724|AV-procd|sdf|10509|dock1
  -GOLD-   2272014553D 1   1.00000     0.00000
 Structure written by MMmdl.
 25 26  0  0  0  0  0  0  0  0  1 V2000
  151.3078  144.0674  156.5614 O   0  0  0  0  0  0  0  0  0  0  0  0
  151.2374  143.6118  157.8990 C   0  0  2  0  0  0  0  0  0  0  0  0
  152.5374  143.9652  158.6394 C   0  0  0  0  0  0  0  0  0  0  0  0
  152.7951  142.7909  159.5826 C   0  0  0  0  0  0  0  0  0  0  0  0
  152.3152  141.5787  158.7881 C   0  0  0  0  0  0  0  0  0  0  0  0
  151.0593  142.0797  158.0560 C   0  0  2  0  0  0  0  0  0  0  0  0
  150.7084  141.3047  156.7876 C   0  0  0  0  0  0  0  0  0  0  0  0
  151.5023  140.2309  156.3260 C   0  0  0  0  0  0  0  0  0  0  0  0
  151.1235  139.5580  155.1487 C   0  0  0  0  0  0  0  0  0  0  0  0
  149.9624  139.9860  154.4762 C   0  0  0  0  0  0  0  0  0  0  0  0
  149.1947  141.0110  154.9036 N   0  0  0  0  0  0  0  0  0  0  0  0
  149.5653  141.6504  156.0336 C   0  0  0  0  0  0  0  0  0  0  0  0
  150.4402  144.3220  156.2861 H   0  0  0  0  0  0  0  0  0  0  0  0
  150.3936  144.1155  158.3725 H   0  0  0  0  0  0  0  0  0  0  0  0
  153.3685  144.0354  157.9353 H   0  0  0  0  0  0  0  0  0  0  0  0
  152.4733  144.9185  159.1647 H   0  0  0  0  0  0  0  0  0  0  0  0
  153.8416  142.7126  159.8789 H   0  0  0  0  0  0  0  0  0  0  0  0
  152.1967  142.9026  160.4877 H   0  0  0  0  0  0  0  0  0  0  0  0
  153.0986  141.3026  158.0824 H   0  0  0  0  0  0  0  0  0  0  0  0
  152.1179  140.7083  159.4146 H   0  0  0  0  0  0  0  0  0  0  0  0
  150.2309  141.9392  158.7529 H   0  0  0  0  0  0  0  0  0  0  0  0
  152.3933  139.9295  156.8565 H   0  0  0  0  0  0  0  0  0  0  0  0
  151.7104  138.7348  154.7689 H   0  0  0  0  0  0  0  0  0  0  0  0
  149.6430  139.4932  153.5700 H   0  0  0  0  0  0  0  0  0  0  0  0
  148.9271  142.4651  156.3425 H   0  0  0  0  0  0  0  0  0  0  0  0
  1  2  1  0  0  0  0
  1 13  1  0  0  0  0
  2  6  1  0  0  0  0
  2  3  1  0  0  0  0
  2 14  1  0  0  0  0
  3  4  1  0  0  0  0
  3 15  1  0  0  0  0
  3 16  1  0  0  0  0
  4  5  1  0  0  0  0
  4 17  1  0  0  0  0
  4 18  1  0  0  0  0
  5  6  1  0  0  0  0
  5 19  1  0  0  0  0
  5 20  1  0  0  0  0
  6  7  1  0  0  0  0
  6 21  1  0  0  0  0
  7 12  1  0  0  0  0
  7  8  2  0  0  0  0
  8  9  1  0  0  0  0
  8 22  1  0  0  0  0
  9 10  2  0  0  0  0
  9 23  1  0  0  0  0
 10 11  1  0  0  0  0
 10 24  1  0  0  0  0
 11 12  2  0  0  0  0
 12 25  1  0  0  0  0
M  END
> <s_m_source_file>
AV-unprocessed.smi

> <i_m_source_file_index>
2724

> <i_lp_mmshare_version>
43012

> <i_f3d_flags>
0

> <s_epik_input>
W09IXVtDQEBIXTFbQ0gyXVtDSDJdW0NIMl1bQ0BIXTFjMltjSF1bY0hdW2NIXW5bY0hdMg==

> <s_epik_cmdline>
J2VwaWtfcHl0aG9uJywgJy1waCcsICc3LjAnLCAnLXRuJywgJzgnLCAnLW1hJywgJzIwMCcsICctbWV0YWxfYmluZGluZycsICctaW1hZScsICc8aW5maWxlLm1hZT4nLCAnLW9tYWUnLCAnPG91dGZpbGUubWFlPic=

> <r_epik_Ionization_Penalty>
0.0175299

> <r_epik_Ionization_Penalty_Charging>
0

> <r_epik_Ionization_Penalty_Neutral>
0.0175299

> <r_epik_State_Penalty>
0.0138989

> <r_epik_Charging_Adjusted_Penalty>
0.0138989

> <i_epik_Tot_Q>
0

> <i_epik_Tot_abs_Q>
0

> <r_epik_Metal_State_Penalty>
1.40631e-05

> <b_epik_Metal_Only>
0

> <s_lp_Force_Field>
OPLS_2005

> <r_lp_Energy>
24.0212

> <b_lp_Chiralities_Consistent>
1

> <s_lp_Variant>
AV-unprocessed.smi:2724-3

> <Gold.Version>
5.8.1

> <Gold.Id.Protein>
6NUR|6NUR_protein|mol2

> <Gold.PLP.Fitness>
37.2384

> <Gold.PLP.PLP>
-28.2609

> <Gold.PLP.part.hbond>
-1.0000

> <Gold.PLP.part.metal>
0.0000

> <Gold.PLP.part.buried>
-1.2815

> <Gold.PLP.part.nonpolar>
-26.4358

> <Gold.PLP.part.repulsive>
0.1169

> <Gold.PLP.ligand.clash>
0.0000

> <Gold.PLP.ligand.torsion>
0.0134

> <Gold.PLP.Chemscore.Hbond>
1.0000

> <Gold.PLP.Chemscore.CHOScore>
1.9944

> <Gold.PLP.Chemscore.Metal>
0.0000

> <Gold.Chemscore.Hbonds>
donor molecule, donor type, donor heavy atom, donor atom, acceptor molecule, acceptor atom, score
      L1  H     1    13       P1  8028  1.00
      L1  C    10    24       P1  7957  1.00
      L1  C    12    25       P1  8028  1.00

> <Gold.PLP.Chemscore.Internal.Correction>
0.0212

> <Gold.Rescore>
     Score         DG    S(hbond)    S(metal)    S(lipo)     H(rot)  DE(clash)    DE(int)     intcor
     15.66     -15.73       1.00        0.00      87.92       1.32       0.00       0.06       ----

> <Gold.Chemscore.Fitness>
15.6631

> <Gold.Chemscore.DG>
-15.7290

> <Gold.Chemscore.ZeroCoef>
-5.4800

> <Gold.Chemscore.Hbond>
0.9999

> <Gold.Chemscore.Metal>
0.0000

> <Gold.Chemscore.Lipo>
87.9179

> <Gold.Chemscore.Internal_Hbond>
0.0000

> <Gold.Chemscore.DEClash>
0.0042

> <Gold.Chemscore.DEInternal>
0.0616

> <Gold.Chemscore.Rot>
1.3192

> <Gold.Chemscore.Internal.Correction>
   9.000000E+99

> <Gold.Chemscore.Hbonds>
donor molecule, donor type, donor heavy atom, donor atom, acceptor molecule, acceptor atom, score
      L1  H     1    13       P1  8028  1.00

> <Gold.Chemscore.Hbond.Weighted>
-3.3397

> <Gold.Chemscore.Metal.Weighted>
-0.0000

> <Gold.Chemscore.Lipo.Weighted>
-10.2864

> <Gold.Chemscore.Internal_Hbond.Weighted>
0.0000

> <Gold.Chemscore.DEClash.Weighted>
0.0042

> <Gold.Chemscore.DEInternal.Weighted>
0.0616

> <Gold.Chemscore.Rot.Weighted>
3.3772

> <Gold.Chemscore.Internal.Correction.Weighted>
   9.000000E+99

> <Gold.Protein.RotatedTorsions>
[ 6907 6896 6895 6894 ] final -145.22 input  -60.11 | X-H torsion
[ 7974 7965 7964 7962 ] final   74.08 input  175.53 | X-H torsion
[ 8008 7997 7996 7995 ] final  -97.81 input   59.86 | X-H torsion
[ 10167 10162 10161 10158 ] final -159.16 input  -65.29 | X-H torsion
[ 10718 10713 10712 10709 ] final  162.42 input   66.30 | X-H torsion
[ 10763 10752 10751 10750 ] final  -50.22 input  -60.55 | X-H torsion
[ 11005 11000 10999 10996 ] final  -41.99 input  -57.11 | X-H torsion

> <Gold.Protein.ActiveResidues>
 VAL166  LYS551  ARG553  GLY616  TRP617  ASP618  TYR619  PRO620  LYS621  CYS622 
 ASP623  PHE694  ASN695  SER759  ASP760  ASP761  ALA762  ILE779  LEU786  VAL792 
 PHE793  MET794  SER795  GLU796  ALA797  LYS798  CYS799  TRP800  GLU811  SER814 

> <Gold.Protein.RotatedAtoms>
  151.1248  133.5078  159.2600 H   0  0  0  0  0  0  0  0  0  0  0  0  # atno 6907 bound_to 6896
  151.1822  135.0365  159.8807 H   0  0  0  0  0  0  0  0  0  0  0  0  # atno 6908 bound_to 6896
  152.5457  134.1099  159.8407 H   0  0  0  0  0  0  0  0  0  0  0  0  # atno 6909 bound_to 6896
  145.7327  139.2690  143.1532 H   0  0  0  0  0  0  0  0  0  0  0  0  # atno 7974 bound_to 7965
  154.7928  140.0460  157.1214 H   0  0  0  0  0  0  0  0  0  0  0  0  # atno 8008 bound_to 7997
  154.9571  140.3072  155.5028 H   0  0  0  0  0  0  0  0  0  0  0  0  # atno 8009 bound_to 7997
  156.2952  140.2277  156.4653 H   0  0  0  0  0  0  0  0  0  0  0  0  # atno 8010 bound_to 7997
  139.6636  143.9869  152.2241 H   0  0  0  0  0  0  0  0  0  0  0  0  # atno 10167 bound_to 10162
  157.1228  131.0496  151.2407 H   0  0  0  0  0  0  0  0  0  0  0  0  # atno 10718 bound_to 10713
  154.1068  135.6555  153.4878 H   0  0  0  0  0  0  0  0  0  0  0  0  # atno 10763 bound_to 10752
  153.0270  135.5238  154.7232 H   0  0  0  0  0  0  0  0  0  0  0  0  # atno 10764 bound_to 10752
  154.6400  135.2987  155.0084 H   0  0  0  0  0  0  0  0  0  0  0  0  # atno 10765 bound_to 10752
  141.0285  133.6831  156.2533 H   0  0  0  0  0  0  0  0  0  0  0  0  # atno 11005 bound_to 11000
  146.0522  140.8057  142.9776 LP  0  0  0  0  0  0  0  0  0  0  0  0  # atno 17320 bound_to 7965
  144.6889  140.3070  143.7254 LP  0  0  0  0  0  0  0  0  0  0  0  0  # atno 17321 bound_to 7965
  139.9614  144.6555  150.8075 LP  0  0  0  0  0  0  0  0  0  0  0  0  # atno 17342 bound_to 10162
  140.7590  143.3119  151.2823 LP  0  0  0  0  0  0  0  0  0  0  0  0  # atno 17343 bound_to 10162
  157.4462  130.7572  149.7111 LP  0  0  0  0  0  0  0  0  0  0  0  0  # atno 17370 bound_to 10713
  155.9825  130.4009  150.3414 LP  0  0  0  0  0  0  0  0  0  0  0  0  # atno 17371 bound_to 10713
  140.6449  134.5127  157.5573 LP  0  0  0  0  0  0  0  0  0  0  0  0  # atno 17394 bound_to 11000
  139.9192  134.8184  156.1267 LP  0  0  0  0  0  0  0  0  0  0  0  0  # atno 17395 bound_to 11000

$$$$
