AV-unprocessed.smi:3279|AV-procd|sdf|12548|dock4
  -GOLD-   2272018463D 1   1.00000     0.00000
 Structure written by MMmdl.
 35 35  0  0  0  0  0  0  0  0  2 V2000
  152.8547  138.4080  154.5328 C   0  0  0  0  0  0  0  0  0  0  0  0
  151.3904  138.1635  154.9281 C   0  0  2  0  0  0  0  0  0  0  0  0
  150.6185  139.4762  155.1916 C   0  0  0  0  0  0  0  0  0  0  0  0
  151.3490  140.3827  156.0716 N   0  0  0  0  0  0  0  0  0  0  0  0
  150.7980  141.3708  156.7927 C   0  0  0  0  0  0  0  0  0  0  0  0
  149.6032  141.6630  156.7441 O   0  0  0  0  0  0  0  0  0  0  0  0
  151.7332  142.1244  157.7350 C   0  0  0  0  0  0  0  0  0  0  0  0
  151.0064  143.1857  158.3488 O   0  0  0  0  0  0  0  0  0  0  0  0
  151.7228  144.0920  159.1914 C   0  0  0  0  0  0  0  0  0  0  0  0
  150.8002  145.1920  159.7541 C   0  0  0  0  0  0  0  0  0  0  0  0
  152.7725  144.7275  158.2660 C   0  0  0  0  0  0  0  0  0  0  0  0
  152.4327  143.3256  160.3249 C   0  0  0  0  0  0  0  0  0  0  0  0
  151.2783  137.1909  156.0700 C   0  0  0  0  0  0  0  0  0  0  0  0
  150.6682  137.4907  157.2269 N   0  0  0  0  0  0  0  0  0  0  0  0
  150.8144  136.3766  157.9567 N   0  0  0  0  0  0  0  0  0  0  0  0
  151.4852  135.4583  157.2512 N   0  0  0  0  0  0  0  0  0  0  0  0
  151.7936  135.9511  156.0444 N   0  5  0  0  0  0  0  0  0  0  0  0
  153.3485  137.4729  154.2666 H   0  0  0  0  0  0  0  0  0  0  0  0
  153.4172  138.8623  155.3490 H   0  0  0  0  0  0  0  0  0  0  0  0
  152.9224  139.0737  153.6721 H   0  0  0  0  0  0  0  0  0  0  0  0
  150.9286  137.7239  154.0423 H   0  0  0  0  0  0  0  0  0  0  0  0
  150.4520  140.0001  154.2497 H   0  0  0  0  0  0  0  0  0  0  0  0
  149.6298  139.2653  155.6024 H   0  0  0  0  0  0  0  0  0  0  0  0
  152.3378  140.2100  156.1844 H   0  0  0  0  0  0  0  0  0  0  0  0
  152.1194  141.4314  158.4828 H   0  0  0  0  0  0  0  0  0  0  0  0
  152.5748  142.4926  157.1494 H   0  0  0  0  0  0  0  0  0  0  0  0
  151.3764  145.9537  160.2802 H   0  0  0  0  0  0  0  0  0  0  0  0
  150.0764  144.7937  160.4652 H   0  0  0  0  0  0  0  0  0  0  0  0
  150.2472  145.6889  158.9563 H   0  0  0  0  0  0  0  0  0  0  0  0
  152.2995  145.2580  157.4387 H   0  0  0  0  0  0  0  0  0  0  0  0
  153.4314  143.9713  157.8375 H   0  0  0  0  0  0  0  0  0  0  0  0
  153.3962  145.4428  158.8035 H   0  0  0  0  0  0  0  0  0  0  0  0
  153.1033  143.9821  160.8804 H   0  0  0  0  0  0  0  0  0  0  0  0
  153.0295  142.5024  159.9304 H   0  0  0  0  0  0  0  0  0  0  0  0
  151.7288  142.9101  161.0455 H   0  0  0  0  0  0  0  0  0  0  0  0
  1  2  1  0  0  0  0
  1 18  1  0  0  0  0
  1 19  1  0  0  0  0
  1 20  1  0  0  0  0
  2  3  1  0  0  0  0
  2 13  1  0  0  0  0
  2 21  1  0  0  0  0
  3  4  1  0  0  0  0
  3 22  1  0  0  0  0
  3 23  1  0  0  0  0
  4  5  1  0  0  0  0
  4 24  1  0  0  0  0
  5  6  2  0  0  0  0
  5  7  1  0  0  0  0
  7  8  1  0  0  0  0
  7 25  1  0  0  0  0
  7 26  1  0  0  0  0
  8  9  1  0  0  0  0
  9 10  1  0  0  0  0
  9 11  1  0  0  0  0
  9 12  1  0  0  0  0
 10 27  1  0  0  0  0
 10 28  1  0  0  0  0
 10 29  1  0  0  0  0
 11 30  1  0  0  0  0
 11 31  1  0  0  0  0
 11 32  1  0  0  0  0
 12 33  1  0  0  0  0
 12 34  1  0  0  0  0
 12 35  1  0  0  0  0
 13 17  1  0  0  0  0
 13 14  2  0  0  0  0
 14 15  1  0  0  0  0
 15 16  2  0  0  0  0
 16 17  1  0  0  0  0
M  CHG  1  17  -1
M  END
> <s_m_source_file>
AV-unprocessed.smi

> <i_m_source_file_index>
3279

> <i_lp_mmshare_version>
43012

> <i_f3d_flags>
0

> <s_epik_input>
W25IXTFubm5jMVtDQEhdKFtDSDNdKVtDSDJdW05IXUMoPU8pW0NIMl1PQyhbQ0gzXSkoW0NIM10pW0NIM10=

> <s_epik_cmdline>
J2VwaWtfcHl0aG9uJywgJy1waCcsICc3LjAnLCAnLXRuJywgJzgnLCAnLW1hJywgJzIwMCcsICctbWV0YWxfYmluZGluZycsICctaW1hZScsICc8aW5maWxlLm1hZT4nLCAnLW9tYWUnLCAnPG91dGZpbGUubWFlPic=

> <r_epik_Ionization_Penalty>
0.054353

> <r_epik_Ionization_Penalty_Charging>
0.054353

> <r_epik_Ionization_Penalty_Neutral>
3.0997e-08

> <r_epik_State_Penalty>
0.0139445

> <r_epik_Charging_Adjusted_Penalty>
0.0682975

> <i_epik_Tot_Q>
-1

> <i_epik_Tot_abs_Q>
1

> <r_epik_Metal_State_Penalty>
0.0109703

> <b_epik_Metal_Only>
0

> <s_lp_Force_Field>
OPLS_2005

> <r_lp_Energy>
-0.4509

> <b_lp_Chiralities_Consistent>
1

> <s_lp_Variant>
AV-unprocessed.smi:3279-1

> <Gold.Version>
5.8.1

> <Gold.Id.Protein>
6NUR|6NUR_protein|mol2

> <Gold.PLP.Fitness>
39.6179

> <Gold.PLP.PLP>
-34.1307

> <Gold.PLP.part.hbond>
-2.4951

> <Gold.PLP.part.metal>
0.0000

> <Gold.PLP.part.buried>
-6.4020

> <Gold.PLP.part.nonpolar>
-25.2898

> <Gold.PLP.part.repulsive>
0.3766

> <Gold.PLP.ligand.clash>
0.0000

> <Gold.PLP.ligand.torsion>
0.3358

> <Gold.PLP.Chemscore.Hbond>
2.0094

> <Gold.PLP.Chemscore.CHOScore>
0.0000

> <Gold.PLP.Chemscore.Metal>
0.0000

> <Gold.Chemscore.Hbonds>
donor molecule, donor type, donor heavy atom, donor atom, acceptor molecule, acceptor atom, score
      P1  H  6896  6908       L1    15  0.06
      P1  H 10752 10765       L1    17  2.00

> <Gold.PLP.Chemscore.Internal.Correction>
0.1304

> <Gold.Rescore>
     Score         DG    S(hbond)    S(metal)    S(lipo)     H(rot)  DE(clash)    DE(int)     intcor
     11.17     -11.53       0.99        0.00      81.22       2.64       0.02       0.35       ----

> <Gold.Chemscore.Fitness>
11.1668

> <Gold.Chemscore.DG>
-11.5325

> <Gold.Chemscore.ZeroCoef>
-5.4800

> <Gold.Chemscore.Hbond>
0.9911

> <Gold.Chemscore.Metal>
0.0000

> <Gold.Chemscore.Lipo>
81.2223

> <Gold.Chemscore.Internal_Hbond>
0.0000

> <Gold.Chemscore.DEClash>
0.0162

> <Gold.Chemscore.DEInternal>
0.3495

> <Gold.Chemscore.Rot>
2.6409

> <Gold.Chemscore.Internal.Correction>
   9.000000E+99

> <Gold.Chemscore.Hbonds>
donor molecule, donor type, donor heavy atom, donor atom, acceptor molecule, acceptor atom, score
      P1  H 10752 10765       L1    17  0.99

> <Gold.Chemscore.Hbond.Weighted>
-3.3101

> <Gold.Chemscore.Metal.Weighted>
-0.0000

> <Gold.Chemscore.Lipo.Weighted>
-9.5030

> <Gold.Chemscore.Internal_Hbond.Weighted>
0.0000

> <Gold.Chemscore.DEClash.Weighted>
0.0162

> <Gold.Chemscore.DEInternal.Weighted>
0.3495

> <Gold.Chemscore.Rot.Weighted>
6.7607

> <Gold.Chemscore.Internal.Correction.Weighted>
   9.000000E+99

> <Gold.Protein.RotatedTorsions>
[ 6907 6896 6895 6894 ] final -139.72 input  -60.11 | X-H torsion
[ 7974 7965 7964 7962 ] final -174.97 input  175.53 | X-H torsion
[ 8008 7997 7996 7995 ] final    4.22 input   59.86 | X-H torsion
[ 10167 10162 10161 10158 ] final  158.07 input  -65.29 | X-H torsion
[ 10718 10713 10712 10709 ] final  -30.86 input   66.30 | X-H torsion
[ 10763 10752 10751 10750 ] final -144.06 input  -60.55 | X-H torsion
[ 11005 11000 10999 10996 ] final  -46.74 input  -57.11 | X-H torsion

> <Gold.Protein.ActiveResidues>
 VAL166  LYS551  ARG553  GLY616  TRP617  ASP618  TYR619  PRO620  LYS621  CYS622 
 ASP623  PHE694  ASN695  SER759  ASP760  ASP761  ALA762  ILE779  LEU786  VAL792 
 PHE793  MET794  SER795  GLU796  ALA797  LYS798  CYS799  TRP800  GLU811  SER814 

> <Gold.Protein.RotatedAtoms>
  151.0514  133.5621  159.2641 H   0  0  0  0  0  0  0  0  0  0  0  0  # atno 6907 bound_to 6896
  151.2630  135.0659  159.9115 H   0  0  0  0  0  0  0  0  0  0  0  0  # atno 6908 bound_to 6896
  152.5382  134.0257  159.8056 H   0  0  0  0  0  0  0  0  0  0  0  0  # atno 6909 bound_to 6896
  144.7129  140.1392  143.6393 H   0  0  0  0  0  0  0  0  0  0  0  0  # atno 7974 bound_to 7965
  154.7132  140.2697  155.6609 H   0  0  0  0  0  0  0  0  0  0  0  0  # atno 8008 bound_to 7997
  156.2802  140.2749  156.1705 H   0  0  0  0  0  0  0  0  0  0  0  0  # atno 8009 bound_to 7997
  155.0606  140.0371  157.2565 H   0  0  0  0  0  0  0  0  0  0  0  0  # atno 8010 bound_to 7997
  139.4825  144.4858  151.8379 H   0  0  0  0  0  0  0  0  0  0  0  0  # atno 10167 bound_to 10162
  156.3946  130.4379  149.7369 H   0  0  0  0  0  0  0  0  0  0  0  0  # atno 10718 bound_to 10713
  154.8444  135.3451  154.6285 H   0  0  0  0  0  0  0  0  0  0  0  0  # atno 10763 bound_to 10752
  153.6895  135.6975  153.5099 H   0  0  0  0  0  0  0  0  0  0  0  0  # atno 10764 bound_to 10752
  153.2606  135.4324  155.0845 H   0  0  0  0  0  0  0  0  0  0  0  0  # atno 10765 bound_to 10752
  141.0598  133.6713  156.3198 H   0  0  0  0  0  0  0  0  0  0  0  0  # atno 11005 bound_to 11000
  145.9217  139.2550  143.1377 LP  0  0  0  0  0  0  0  0  0  0  0  0  # atno 17320 bound_to 7965
  145.9613  140.8833  143.0209 LP  0  0  0  0  0  0  0  0  0  0  0  0  # atno 17321 bound_to 7965
  140.4338  144.2079  150.5888 LP  0  0  0  0  0  0  0  0  0  0  0  0  # atno 17342 bound_to 10162
  140.4752  143.2398  151.9033 LP  0  0  0  0  0  0  0  0  0  0  0  0  # atno 17343 bound_to 10162
  156.4409  130.7860  151.2882 LP  0  0  0  0  0  0  0  0  0  0  0  0  # atno 17370 bound_to 10713
  157.7501  131.0125  150.3387 LP  0  0  0  0  0  0  0  0  0  0  0  0  # atno 17371 bound_to 10713
  140.5892  134.5668  157.5496 LP  0  0  0  0  0  0  0  0  0  0  0  0  # atno 17394 bound_to 11000
  139.9422  134.7766  156.0650 LP  0  0  0  0  0  0  0  0  0  0  0  0  # atno 17395 bound_to 11000

$$$$
