AV-unprocessed.smi:12|AV-procd|sdf|61|dock2
  -GOLD-   2262015183D 1   1.00000     0.00000
 Structure written by MMmdl.
 41 44  0  0  0  0  0  0  0  0  1 V2000
  145.0597  143.9950  155.5005 C   0  0  0  0  0  0  0  0  0  0  0  0
  145.5476  142.5992  155.1568 C   0  0  0  0  0  0  0  0  0  0  0  0
  146.7196  142.3941  154.5107 C   0  0  0  0  0  0  0  0  0  0  0  0
  147.1186  141.1164  154.2338 N   0  0  0  0  0  0  0  0  0  0  0  0
  146.2967  140.0307  154.6061 C   0  0  0  0  0  0  0  0  0  0  0  0
  145.1625  140.1442  155.2240 N   0  0  0  0  0  0  0  0  0  0  0  0
  144.7102  141.4376  155.5483 C   0  0  0  0  0  0  0  0  0  0  0  0
  143.6438  141.5954  156.1411 O   0  0  0  0  0  0  0  0  0  0  0  0
  146.8906  138.8726  154.2073 O   0  0  0  0  0  0  0  0  0  0  0  0
  148.1461  139.1607  153.5748 C   0  0  2  0  0  0  0  0  0  0  0  0
  149.2977  138.6854  154.4569 C   0  0  1  0  0  0  0  0  0  0  0  0
  150.3649  138.2020  153.6628 O   0  0  0  0  0  0  0  0  0  0  0  0
  149.6816  139.9396  155.2544 C   0  0  1  0  0  0  0  0  0  0  0  0
  151.1207  139.9798  155.7858 C   0  0  0  0  0  0  0  0  0  0  0  0
  151.2615  141.1033  156.6390 O   0  0  0  0  0  0  0  0  0  0  0  0
  151.9954  141.0107  157.7642 C   0  0  0  0  0  0  0  0  0  0  0  0
  152.5994  139.9908  158.1031 O   0  0  0  0  0  0  0  0  0  0  0  0
  151.9963  142.2721  158.5601 C   0  0  0  0  0  0  0  0  0  0  0  0
  152.4749  142.2522  159.8910 C   0  0  0  0  0  0  0  0  0  0  0  0
  152.4871  143.4279  160.6663 C   0  0  0  0  0  0  0  0  0  0  0  0
  152.0230  144.6385  160.1196 C   0  0  0  0  0  0  0  0  0  0  0  0
  151.5458  144.6717  158.7964 C   0  0  0  0  0  0  0  0  0  0  0  0
  151.5314  143.4966  158.0198 C   0  0  0  0  0  0  0  0  0  0  0  0
  149.4437  140.9950  154.3315 O   0  0  0  0  0  0  0  0  0  0  0  0
  148.3369  140.6912  153.5369 C   0  0  2  0  0  0  0  0  0  0  0  0
  145.7592  144.7558  155.1529 H   0  0  0  0  0  0  0  0  0  0  0  0
  144.9507  144.1050  156.5799 H   0  0  0  0  0  0  0  0  0  0  0  0
  144.0928  144.1880  155.0347 H   0  0  0  0  0  0  0  0  0  0  0  0
  147.3471  143.2232  154.2176 H   0  0  0  0  0  0  0  0  0  0  0  0
  148.1716  138.7420  152.5675 H   0  0  0  0  0  0  0  0  0  0  0  0
  148.9898  137.8749  155.1187 H   0  0  0  0  0  0  0  0  0  0  0  0
  150.0567  137.4623  153.1618 H   0  0  0  0  0  0  0  0  0  0  0  0
  148.9837  140.0457  156.0871 H   0  0  0  0  0  0  0  0  0  0  0  0
  151.3292  139.0721  156.3539 H   0  0  0  0  0  0  0  0  0  0  0  0
  151.8375  140.0311  154.9650 H   0  0  0  0  0  0  0  0  0  0  0  0
  152.8363  141.3345  160.3323 H   0  0  0  0  0  0  0  0  0  0  0  0
  152.8529  143.3999  161.6820 H   0  0  0  0  0  0  0  0  0  0  0  0
  152.0332  145.5402  160.7140 H   0  0  0  0  0  0  0  0  0  0  0  0
  151.1897  145.6002  158.3749 H   0  0  0  0  0  0  0  0  0  0  0  0
  151.1603  143.5577  157.0071 H   0  0  0  0  0  0  0  0  0  0  0  0
  148.3080  141.1668  152.5562 H   0  0  0  0  0  0  0  0  0  0  0  0
  1  2  1  0  0  0  0
  1 26  1  0  0  0  0
  1 27  1  0  0  0  0
  1 28  1  0  0  0  0
  2  7  1  0  0  0  0
  2  3  2  0  0  0  0
  3  4  1  0  0  0  0
  3 29  1  0  0  0  0
  4 25  1  0  0  0  0
  4  5  1  0  0  0  0
  5  6  2  0  0  0  0
  5  9  1  0  0  0  0
  6  7  1  0  0  0  0
  7  8  2  0  0  0  0
  9 10  1  0  0  0  0
 10 25  1  0  0  0  0
 10 11  1  0  0  0  0
 10 30  1  0  0  0  0
 11 12  1  0  0  0  0
 11 13  1  0  0  0  0
 11 31  1  0  0  0  0
 12 32  1  0  0  0  0
 13 14  1  0  0  0  0
 13 24  1  0  0  0  0
 13 33  1  0  0  0  0
 14 15  1  0  0  0  0
 14 34  1  0  0  0  0
 14 35  1  0  0  0  0
 15 16  1  0  0  0  0
 16 17  2  0  0  0  0
 16 18  1  0  0  0  0
 18 23  1  0  0  0  0
 18 19  2  0  0  0  0
 19 20  1  0  0  0  0
 19 36  1  0  0  0  0
 20 21  2  0  0  0  0
 20 37  1  0  0  0  0
 21 22  1  0  0  0  0
 21 38  1  0  0  0  0
 22 23  2  0  0  0  0
 22 39  1  0  0  0  0
 23 40  1  0  0  0  0
 24 25  1  0  0  0  0
 25 41  1  0  0  0  0
M  END
> <s_m_source_file>
AV-unprocessed.smi

> <i_m_source_file_index>
12

> <i_lp_mmshare_version>
43012

> <i_f3d_flags>
0

> <s_epik_input>
W0NIM11jKFtjSF0xKWMoPU8pbmMobjEyKU9bQ0BIXTNbQ0BASF0yT1tDQEBIXShbQ0BASF0zW09IXSlbQ0gyXU9DKD1PKWM0W2NIXVtjSF1bY0hdW2NIXVtjSF00

> <s_epik_cmdline>
J2VwaWtfcHl0aG9uJywgJy1waCcsICc3LjAnLCAnLXRuJywgJzgnLCAnLW1hJywgJzIwMCcsICctbWV0YWxfYmluZGluZycsICctaW1hZScsICc8aW5maWxlLm1hZT4nLCAnLW9tYWUnLCAnPG91dGZpbGUubWFlPic=

> <r_lp_tautomer_probability>
0.933681

> <r_epik_Ionization_Penalty>
0.00399549

> <r_epik_Ionization_Penalty_Charging>
3.09373e-09

> <r_epik_Ionization_Penalty_Neutral>
0.00399549

> <r_epik_State_Penalty>
0.00284953

> <r_epik_Charging_Adjusted_Penalty>
0.00284953

> <i_epik_Tot_Q>
0

> <i_epik_Tot_abs_Q>
0

> <r_epik_Metal_State_Penalty>
-0

> <b_epik_Metal_Only>
0

> <s_epik_Chemistry_Notes>
This compound has an ester and may undergo hydrolysis at high or low pH. This compound contains an acetal/aminal-like group ( X-CH(R)-Y where X, Y are N, S, or O) that may be acid/base labile, releasing an aldehyde.

> <s_lp_Force_Field>
OPLS_2005

> <r_lp_Energy>
39.7302

> <b_lp_Chiralities_Consistent>
1

> <s_lp_Variant>
AV-unprocessed.smi:12-1

> <Gold.Version>
5.8.1

> <Gold.Id.Protein>
6NUR|6NUR_protein|mol2

> <Gold.PLP.Fitness>
53.6249

> <Gold.PLP.PLP>
-45.5078

> <Gold.PLP.part.hbond>
-4.7528

> <Gold.PLP.part.metal>
0.0000

> <Gold.PLP.part.buried>
-2.1400

> <Gold.PLP.part.nonpolar>
-37.8530

> <Gold.PLP.part.repulsive>
0.5107

> <Gold.PLP.ligand.clash>
0.0000

> <Gold.PLP.ligand.torsion>
0.3962

> <Gold.PLP.Chemscore.Hbond>
2.0268

> <Gold.PLP.Chemscore.CHOScore>
0.9305

> <Gold.PLP.Chemscore.Metal>
0.0000

> <Gold.Chemscore.Hbonds>
donor molecule, donor type, donor heavy atom, donor atom, acceptor molecule, acceptor atom, score
      L1  H    12    32       P1  7948  0.90
      P1  H  7989  7998       L1    24  0.09
      P1  H  7997  8010       L1    17  0.46
      L1  C     3    29       P1  8028  1.00

> <Gold.PLP.Chemscore.Internal.Correction>
0.0376

> <Gold.Rescore>
     Score         DG    S(hbond)    S(metal)    S(lipo)     H(rot)  DE(clash)    DE(int)     intcor
     17.89     -18.58       1.95        0.00     104.07       2.18       0.28       0.42       ----

> <Gold.Chemscore.Fitness>
17.8859

> <Gold.Chemscore.DG>
-18.5784

> <Gold.Chemscore.ZeroCoef>
-5.4800

> <Gold.Chemscore.Hbond>
1.9471

> <Gold.Chemscore.Metal>
0.0000

> <Gold.Chemscore.Lipo>
104.0661

> <Gold.Chemscore.Internal_Hbond>
0.0000

> <Gold.Chemscore.DEClash>
0.2759

> <Gold.Chemscore.DEInternal>
0.4166

> <Gold.Chemscore.Rot>
2.1800

> <Gold.Chemscore.Internal.Correction>
   9.000000E+99

> <Gold.Chemscore.Hbonds>
donor molecule, donor type, donor heavy atom, donor atom, acceptor molecule, acceptor atom, score
      L1  H    12    32       P1  7948  0.19
      P1  H  7989  7998       L1    24  0.01
      P1  H  7997  8010       L1    17  0.15

> <Gold.Chemscore.Hbond.Weighted>
-6.5034

> <Gold.Chemscore.Metal.Weighted>
-0.0000

> <Gold.Chemscore.Lipo.Weighted>
-12.1757

> <Gold.Chemscore.Internal_Hbond.Weighted>
0.0000

> <Gold.Chemscore.DEClash.Weighted>
0.2759

> <Gold.Chemscore.DEInternal.Weighted>
0.4166

> <Gold.Chemscore.Rot.Weighted>
5.5807

> <Gold.Chemscore.Internal.Correction.Weighted>
   9.000000E+99

> <Gold.Protein.RotatedTorsions>
[ 6907 6896 6895 6894 ] final  139.80 input  -60.11 | X-H torsion
[ 7974 7965 7964 7962 ] final -109.74 input  175.53 | X-H torsion
[ 8008 7997 7996 7995 ] final   48.97 input   59.86 | X-H torsion
[ 10167 10162 10161 10158 ] final  -84.28 input  -65.29 | X-H torsion
[ 10718 10713 10712 10709 ] final  141.37 input   66.30 | X-H torsion
[ 10763 10752 10751 10750 ] final   23.92 input  -60.55 | X-H torsion
[ 11005 11000 10999 10996 ] final   25.99 input  -57.11 | X-H torsion

> <Gold.Protein.ActiveResidues>
 VAL166  LYS551  ARG553  GLY616  TRP617  ASP618  TYR619  PRO620  LYS621  CYS622 
 ASP623  PHE694  ASN695  SER759  ASP760  ASP761  ALA762  ILE779  LEU786  VAL792 
 PHE793  MET794  SER795  GLU796  ALA797  LYS798  CYS799  TRP800  GLU811  SER814 

> <Gold.Protein.RotatedAtoms>
  152.2506  133.5212  159.5322 H   0  0  0  0  0  0  0  0  0  0  0  0  # atno 6907 bound_to 6896
  150.7092  134.0965  159.3959 H   0  0  0  0  0  0  0  0  0  0  0  0  # atno 6908 bound_to 6896
  151.8885  135.0426  160.0546 H   0  0  0  0  0  0  0  0  0  0  0  0  # atno 6909 bound_to 6896
  145.1768  140.8952  143.3503 H   0  0  0  0  0  0  0  0  0  0  0  0  # atno 7974 bound_to 7965
  155.3945  140.3435  155.4253 H   0  0  0  0  0  0  0  0  0  0  0  0  # atno 8008 bound_to 7997
  156.1538  140.1579  156.8758 H   0  0  0  0  0  0  0  0  0  0  0  0  # atno 8009 bound_to 7997
  154.5076  140.0798  156.7908 H   0  0  0  0  0  0  0  0  0  0  0  0  # atno 8010 bound_to 7997
  140.4147  143.2608  151.8970 H   0  0  0  0  0  0  0  0  0  0  0  0  # atno 10167 bound_to 10162
  157.3927  131.1007  151.0630 H   0  0  0  0  0  0  0  0  0  0  0  0  # atno 10718 bound_to 10713
  153.0802  135.6616  154.0061 H   0  0  0  0  0  0  0  0  0  0  0  0  # atno 10763 bound_to 10752
  153.9685  135.2967  155.3430 H   0  0  0  0  0  0  0  0  0  0  0  0  # atno 10764 bound_to 10752
  154.7199  135.5169  153.8867 H   0  0  0  0  0  0  0  0  0  0  0  0  # atno 10765 bound_to 10752
  140.3419  134.2324  155.7689 H   0  0  0  0  0  0  0  0  0  0  0  0  # atno 11005 bound_to 11000
  145.0177  139.3452  143.6088 LP  0  0  0  0  0  0  0  0  0  0  0  0  # atno 17320 bound_to 7965
  146.3460  139.9465  142.8734 LP  0  0  0  0  0  0  0  0  0  0  0  0  # atno 17321 bound_to 7965
  139.4782  144.5500  151.8400 LP  0  0  0  0  0  0  0  0  0  0  0  0  # atno 17342 bound_to 10162
  140.4599  144.1736  150.5905 LP  0  0  0  0  0  0  0  0  0  0  0  0  # atno 17343 bound_to 10162
  157.1658  130.6245  149.5625 LP  0  0  0  0  0  0  0  0  0  0  0  0  # atno 17370 bound_to 10713
  155.9802  130.4802  150.6761 LP  0  0  0  0  0  0  0  0  0  0  0  0  # atno 17371 bound_to 10713
  141.2036  133.7908  157.0330 LP  0  0  0  0  0  0  0  0  0  0  0  0  # atno 17394 bound_to 11000
  140.0774  134.9668  157.1568 LP  0  0  0  0  0  0  0  0  0  0  0  0  # atno 17395 bound_to 11000

$$$$
