AV-unprocessed.smi:1225|AV-procd|sdf|5138|dock1
  -GOLD-   22720 4203D 1   1.00000     0.00000
 Structure written by MMmdl.
 49 51  0  0  0  0  0  0  0  0  2 V2000
  148.0253  135.9043  160.7415 C   0  0  0  0  0  0  0  0  0  0  0  0
  148.4069  135.8345  159.3025 C   0  0  0  0  0  0  0  0  0  0  0  0
  148.6504  134.6922  158.6562 N   0  0  0  0  0  0  0  0  0  0  0  0
  148.9863  134.8992  157.3162 C   0  0  0  0  0  0  0  0  0  0  0  0
  148.9913  136.2203  156.9420 C   0  0  0  0  0  0  0  0  0  0  0  0
  149.3072  136.7823  155.5920 C   0  0  0  0  0  0  0  0  0  0  0  0
  149.2875  138.2450  155.5403 N   0  0  0  0  0  0  0  0  0  0  0  0
  147.9213  138.7480  155.3973 C   0  0  0  0  0  0  0  0  0  0  0  0
  150.1569  138.7296  154.4655 C   0  0  0  0  0  0  0  0  0  0  0  0
  151.6525  138.8411  154.8218 C   0  0  2  0  0  0  0  0  0  0  0  0
  152.2125  137.5445  154.7708 O   0  0  0  0  0  0  0  0  0  0  0  0
  151.8789  139.4319  156.2285 C   0  0  0  0  0  0  0  0  0  0  0  0
  151.3418  140.7912  156.3700 N   0  0  0  0  0  0  0  0  0  0  0  0
  150.5285  141.5041  155.5443 C   0  0  0  0  0  0  0  0  0  0  0  0
  150.3199  142.7189  156.1242 N   0  3  0  0  0  0  0  0  0  0  0  0
  151.0140  142.7828  157.3347 C   0  0  0  0  0  0  0  0  0  0  0  0
  151.1134  143.8002  158.2763 C   0  0  0  0  0  0  0  0  0  0  0  0
  151.9097  143.5481  159.4166 C   0  0  0  0  0  0  0  0  0  0  0  0
  152.0391  144.6396  160.4655 C   0  0  0  0  0  0  0  0  0  0  0  0
  152.5748  142.3054  159.5832 C   0  0  0  0  0  0  0  0  0  0  0  0
  153.4281  142.0447  160.8129 C   0  0  0  0  0  0  0  0  0  0  0  0
  152.4616  141.2836  158.6135 C   0  0  0  0  0  0  0  0  0  0  0  0
  151.6727  141.5491  157.4973 C   0  0  0  0  0  0  0  0  0  0  0  0
  148.5802  137.2584  158.2840 S   0  0  0  0  0  0  0  0  0  0  0  0
  148.0827  134.9181  161.2033 H   0  0  0  0  0  0  0  0  0  0  0  0
  147.0054  136.2769  160.8377 H   0  0  0  0  0  0  0  0  0  0  0  0
  148.6969  136.5786  161.2732 H   0  0  0  0  0  0  0  0  0  0  0  0
  149.2058  134.0438  156.6944 H   0  0  0  0  0  0  0  0  0  0  0  0
  150.2963  136.4227  155.3060 H   0  0  0  0  0  0  0  0  0  0  0  0
  148.6158  136.3767  154.8517 H   0  0  0  0  0  0  0  0  0  0  0  0
  147.8899  139.8355  155.4388 H   0  0  0  0  0  0  0  0  0  0  0  0
  147.2816  138.3886  156.2035 H   0  0  0  0  0  0  0  0  0  0  0  0
  147.4815  138.4298  154.4513 H   0  0  0  0  0  0  0  0  0  0  0  0
  150.0728  138.0602  153.6080 H   0  0  0  0  0  0  0  0  0  0  0  0
  149.7929  139.6989  154.1200 H   0  0  0  0  0  0  0  0  0  0  0  0
  152.1772  139.4362  154.0755 H   0  0  0  0  0  0  0  0  0  0  0  0
  151.5080  136.9156  154.7401 H   0  0  0  0  0  0  0  0  0  0  0  0
  151.4248  138.8047  156.9968 H   0  0  0  0  0  0  0  0  0  0  0  0
  152.9451  139.4738  156.4560 H   0  0  0  0  0  0  0  0  0  0  0  0
  150.1212  141.1663  154.6019 H   0  0  0  0  0  0  0  0  0  0  0  0
  150.6044  144.7435  158.1424 H   0  0  0  0  0  0  0  0  0  0  0  0
  151.6386  144.3006  161.4210 H   0  0  0  0  0  0  0  0  0  0  0  0
  151.4943  145.5385  160.1752 H   0  0  0  0  0  0  0  0  0  0  0  0
  153.0845  144.9155  160.6058 H   0  0  0  0  0  0  0  0  0  0  0  0
  153.8453  141.0373  160.8026 H   0  0  0  0  0  0  0  0  0  0  0  0
  152.8345  142.1490  161.7214 H   0  0  0  0  0  0  0  0  0  0  0  0
  154.2588  142.7494  160.8581 H   0  0  0  0  0  0  0  0  0  0  0  0
  152.9679  140.3375  158.7380 H   0  0  0  0  0  0  0  0  0  0  0  0
  149.7472  143.4491  155.7204 H   0  0  0  0  0  0  0  0  0  0  0  0
  1  2  1  0  0  0  0
  1 25  1  0  0  0  0
  1 26  1  0  0  0  0
  1 27  1  0  0  0  0
  2 24  1  0  0  0  0
  2  3  2  0  0  0  0
  3  4  1  0  0  0  0
  4  5  2  0  0  0  0
  4 28  1  0  0  0  0
  5  6  1  0  0  0  0
  5 24  1  0  0  0  0
  6  7  1  0  0  0  0
  6 29  1  0  0  0  0
  6 30  1  0  0  0  0
  7  8  1  0  0  0  0
  7  9  1  0  0  0  0
  8 31  1  0  0  0  0
  8 32  1  0  0  0  0
  8 33  1  0  0  0  0
  9 10  1  0  0  0  0
  9 34  1  0  0  0  0
  9 35  1  0  0  0  0
 10 11  1  0  0  0  0
 10 12  1  0  0  0  0
 10 36  1  0  0  0  0
 11 37  1  0  0  0  0
 12 13  1  0  0  0  0
 12 38  1  0  0  0  0
 12 39  1  0  0  0  0
 13 23  1  0  0  0  0
 13 14  1  0  0  0  0
 14 15  2  0  0  0  0
 14 40  1  0  0  0  0
 15 16  1  0  0  0  0
 15 49  1  0  0  0  0
 16 23  2  0  0  0  0
 16 17  1  0  0  0  0
 17 18  2  0  0  0  0
 17 41  1  0  0  0  0
 18 19  1  0  0  0  0
 18 20  1  0  0  0  0
 19 42  1  0  0  0  0
 19 43  1  0  0  0  0
 19 44  1  0  0  0  0
 20 21  1  0  0  0  0
 20 22  2  0  0  0  0
 21 45  1  0  0  0  0
 21 46  1  0  0  0  0
 21 47  1  0  0  0  0
 22 23  1  0  0  0  0
 22 48  1  0  0  0  0
M  CHG  1  15   1
M  END
> <s_m_source_file>
AV-unprocessed.smi

> <i_m_source_file_index>
1225

> <i_lp_mmshare_version>
43012

> <i_f3d_flags>
0

> <s_epik_input>
W0NIM11jMW5bY0hdYyhzMSlbQ0gyXU4oW0NIM10pW0NIMl1bQ0BIXShbT0hdKVtDSDJdbihbY0hdbjIpYyhjMjMpW2NIXWMoW0NIM10pYyhbY0hdMylbQ0gzXQ==

> <s_epik_cmdline>
J2VwaWtfcHl0aG9uJywgJy1waCcsICc3LjAnLCAnLXRuJywgJzgnLCAnLW1hJywgJzIwMCcsICctbWV0YWxfYmluZGluZycsICctaW1hZScsICc8aW5maWxlLm1hZT4nLCAnLW9tYWUnLCAnPG91dGZpbGUubWFlPic=

> <r_epik_Ionization_Penalty>
1.25968

> <r_epik_Ionization_Penalty_Charging>
1.21782

> <r_epik_Ionization_Penalty_Neutral>
0.0418565

> <r_epik_State_Penalty>
1.29962

> <r_epik_Charging_Adjusted_Penalty>
2.51745

> <i_epik_Tot_Q>
1

> <i_epik_Tot_abs_Q>
1

> <r_epik_Metal_State_Penalty>
1.36802

> <b_epik_Metal_Only>
0

> <s_lp_Force_Field>
OPLS_2005

> <r_lp_Energy>
21.2232

> <b_lp_Chiralities_Consistent>
1

> <s_lp_Variant>
AV-unprocessed.smi:1225-3

> <Gold.Version>
5.8.1

> <Gold.Id.Protein>
6NUR|6NUR_protein|mol2

> <Gold.PLP.Fitness>
53.9279

> <Gold.PLP.PLP>
-46.1028

> <Gold.PLP.part.hbond>
-2.8700

> <Gold.PLP.part.metal>
0.0000

> <Gold.PLP.part.buried>
-6.4955

> <Gold.PLP.part.nonpolar>
-37.2559

> <Gold.PLP.part.repulsive>
0.1610

> <Gold.PLP.ligand.clash>
0.0037

> <Gold.PLP.ligand.torsion>
0.8131

> <Gold.PLP.Chemscore.Hbond>
2.9249

> <Gold.PLP.Chemscore.CHOScore>
0.0000

> <Gold.PLP.Chemscore.Metal>
0.0000

> <Gold.Chemscore.Hbonds>
donor molecule, donor type, donor heavy atom, donor atom, acceptor molecule, acceptor atom, score
      L1  H    15    49       P1  8028  2.00
      P1  H  6896  6907       L1     3  0.34

> <Gold.PLP.Chemscore.Internal.Correction>
0.6802

> <Gold.Rescore>
     Score         DG    S(hbond)    S(metal)    S(lipo)     H(rot)  DE(clash)    DE(int)     intcor
     16.32     -18.01       1.51        0.00     115.88       2.36       0.04       1.65       ----

> <Gold.Chemscore.Fitness>
16.3248

> <Gold.Chemscore.DG>
-18.0122

> <Gold.Chemscore.ZeroCoef>
-5.4800

> <Gold.Chemscore.Hbond>
1.5054

> <Gold.Chemscore.Metal>
0.0000

> <Gold.Chemscore.Lipo>
115.8810

> <Gold.Chemscore.Internal_Hbond>
0.0000

> <Gold.Chemscore.DEClash>
0.0398

> <Gold.Chemscore.DEInternal>
1.6477

> <Gold.Chemscore.Rot>
2.3649

> <Gold.Chemscore.Internal.Correction>
   9.000000E+99

> <Gold.Chemscore.Hbonds>
donor molecule, donor type, donor heavy atom, donor atom, acceptor molecule, acceptor atom, score
      L1  H    15    49       P1  8028  0.93
      P1  H  6896  6907       L1     3  0.04

> <Gold.Chemscore.Hbond.Weighted>
-5.0282

> <Gold.Chemscore.Metal.Weighted>
-0.0000

> <Gold.Chemscore.Lipo.Weighted>
-13.5581

> <Gold.Chemscore.Internal_Hbond.Weighted>
0.0000

> <Gold.Chemscore.DEClash.Weighted>
0.0398

> <Gold.Chemscore.DEInternal.Weighted>
1.6477

> <Gold.Chemscore.Rot.Weighted>
6.0540

> <Gold.Chemscore.Internal.Correction.Weighted>
   9.000000E+99

> <Gold.Protein.RotatedTorsions>
[ 6907 6896 6895 6894 ] final -108.41 input  -60.11 | X-H torsion
[ 7974 7965 7964 7962 ] final  -45.85 input  175.53 | X-H torsion
[ 8008 7997 7996 7995 ] final  -24.38 input   59.86 | X-H torsion
[ 10167 10162 10161 10158 ] final -116.40 input  -65.29 | X-H torsion
[ 10718 10713 10712 10709 ] final  116.10 input   66.30 | X-H torsion
[ 10763 10752 10751 10750 ] final  153.31 input  -60.55 | X-H torsion
[ 11005 11000 10999 10996 ] final -117.17 input  -57.11 | X-H torsion

> <Gold.Protein.ActiveResidues>
 VAL166  LYS551  ARG553  GLY616  TRP617  ASP618  TYR619  PRO620  LYS621  CYS622 
 ASP623  PHE694  ASN695  SER759  ASP760  ASP761  ALA762  ILE779  LEU786  VAL792 
 PHE793  MET794  SER795  GLU796  ALA797  LYS798  CYS799  TRP800  GLU811  SER814 

> <Gold.Protein.RotatedAtoms>
  150.7500  133.9681  159.3536 H   0  0  0  0  0  0  0  0  0  0  0  0  # atno 6907 bound_to 6896
  151.7613  135.0807  160.0355 H   0  0  0  0  0  0  0  0  0  0  0  0  # atno 6908 bound_to 6896
  152.3401  133.6020  159.5906 H   0  0  0  0  0  0  0  0  0  0  0  0  # atno 6909 bound_to 6896
  145.9779  140.7315  142.9378 H   0  0  0  0  0  0  0  0  0  0  0  0  # atno 7974 bound_to 7965
  154.4532  140.1955  156.0455 H   0  0  0  0  0  0  0  0  0  0  0  0  # atno 8008 bound_to 7997
  156.0693  140.3286  155.7528 H   0  0  0  0  0  0  0  0  0  0  0  0  # atno 8009 bound_to 7997
  155.5289  140.0576  157.2883 H   0  0  0  0  0  0  0  0  0  0  0  0  # atno 8010 bound_to 7997
  140.0796  143.4800  152.1933 H   0  0  0  0  0  0  0  0  0  0  0  0  # atno 10167 bound_to 10162
  157.6181  131.1021  150.7424 H   0  0  0  0  0  0  0  0  0  0  0  0  # atno 10718 bound_to 10713
  154.1342  135.2825  155.3177 H   0  0  0  0  0  0  0  0  0  0  0  0  # atno 10763 bound_to 10752
  154.6334  135.5427  153.7709 H   0  0  0  0  0  0  0  0  0  0  0  0  # atno 10764 bound_to 10752
  153.0271  135.6468  154.1491 H   0  0  0  0  0  0  0  0  0  0  0  0  # atno 10765 bound_to 10752
  141.0373  133.9890  157.3051 H   0  0  0  0  0  0  0  0  0  0  0  0  # atno 11005 bound_to 11000
  144.6853  140.2858  143.7285 LP  0  0  0  0  0  0  0  0  0  0  0  0  # atno 17320 bound_to 7965
  145.7812  139.1892  143.2156 LP  0  0  0  0  0  0  0  0  0  0  0  0  # atno 17321 bound_to 7965
  139.5787  144.7500  151.3696 LP  0  0  0  0  0  0  0  0  0  0  0  0  # atno 17342 bound_to 10162
  140.7084  143.7453  150.7523 LP  0  0  0  0  0  0  0  0  0  0  0  0  # atno 17343 bound_to 10162
  156.7787  130.4852  149.5405 LP  0  0  0  0  0  0  0  0  0  0  0  0  # atno 17370 bound_to 10713
  156.1313  130.6180  151.0338 LP  0  0  0  0  0  0  0  0  0  0  0  0  # atno 17371 bound_to 10713
  139.9250  135.0201  156.8200 LP  0  0  0  0  0  0  0  0  0  0  0  0  # atno 17394 bound_to 11000
  140.6299  133.9915  155.7657 LP  0  0  0  0  0  0  0  0  0  0  0  0  # atno 17395 bound_to 11000

$$$$
