AV-unprocessed.smi:671|AV-procd|sdf|3279|dock7
  -GOLD-   22720 0243D 1   1.00000     0.00000
 Structure written by MMmdl.
 49 50  0  0  0  0  0  0  0  0  1 V2000
  152.5057  138.4991  154.6331 C   0  0  0  0  0  0  0  0  0  0  0  0
  151.8289  139.4949  155.5316 C   0  0  0  0  0  0  0  0  0  0  0  0
  152.4854  139.9892  156.5678 N   0  0  0  0  0  0  0  0  0  0  0  0
  151.6146  140.8352  157.1544 N   0  0  0  0  0  0  0  0  0  0  0  0
  152.0201  141.5613  158.3423 C   0  0  0  0  0  0  0  0  0  0  0  0
  150.4069  140.8789  156.4849 C   0  0  0  0  0  0  0  0  0  0  0  0
  149.2782  141.7488  156.9364 C   0  0  0  0  0  0  0  0  0  0  0  0
  150.5086  140.0206  155.4228 C   0  0  0  0  0  0  0  0  0  0  0  0
  149.4875  139.6862  154.3673 C   0  0  0  0  0  0  0  0  0  0  0  0
  148.4275  138.6861  154.8786 C   0  0  2  0  0  0  0  0  0  0  0  0
  148.9954  137.7139  155.9240 C   0  0  0  0  0  0  0  0  0  0  0  0
  147.8783  137.9145  153.7613 N   0  0  0  0  0  0  0  0  0  0  0  0
  146.5882  137.7764  153.4027 C   0  0  0  0  0  0  0  0  0  0  0  0
  145.6804  138.3241  154.0249 O   0  0  0  0  0  0  0  0  0  0  0  0
  146.3869  136.9996  152.3247 N   0  0  0  0  0  0  0  0  0  0  0  0
  145.0883  136.6524  151.7562 C   0  0  1  0  0  0  0  0  0  0  0  0
  145.2385  135.5235  150.7176 C   0  0  0  0  0  0  0  0  0  0  0  0
  144.5103  134.3074  151.2928 C   0  0  0  0  0  0  0  0  0  0  0  0
  143.4435  134.9028  152.2053 C   0  0  0  0  0  0  0  0  0  0  0  0
  144.1301  136.1141  152.8418 C   0  0  2  0  0  0  0  0  0  0  0  0
  143.1462  137.1622  153.3796 C   0  0  0  0  0  0  0  0  0  0  0  0
  152.8109  138.9646  153.6960 H   0  0  0  0  0  0  0  0  0  0  0  0
  151.8359  137.6742  154.3898 H   0  0  0  0  0  0  0  0  0  0  0  0
  153.3953  138.0732  155.0982 H   0  0  0  0  0  0  0  0  0  0  0  0
  152.1283  142.6198  158.1041 H   0  0  0  0  0  0  0  0  0  0  0  0
  152.9721  141.1837  158.7186 H   0  0  0  0  0  0  0  0  0  0  0  0
  151.2652  141.4461  159.1205 H   0  0  0  0  0  0  0  0  0  0  0  0
  148.4583  141.7402  156.2187 H   0  0  0  0  0  0  0  0  0  0  0  0
  149.6065  142.7820  157.0511 H   0  0  0  0  0  0  0  0  0  0  0  0
  148.8877  141.4082  157.8955 H   0  0  0  0  0  0  0  0  0  0  0  0
  148.9972  140.6035  154.0397 H   0  0  0  0  0  0  0  0  0  0  0  0
  149.9620  139.2885  153.4697 H   0  0  0  0  0  0  0  0  0  0  0  0
  147.6157  139.2367  155.3570 H   0  0  0  0  0  0  0  0  0  0  0  0
  149.3547  138.2444  156.8061 H   0  0  0  0  0  0  0  0  0  0  0  0
  149.8282  137.1371  155.5205 H   0  0  0  0  0  0  0  0  0  0  0  0
  148.2332  137.0094  156.2585 H   0  0  0  0  0  0  0  0  0  0  0  0
  148.5575  137.4504  153.1757 H   0  0  0  0  0  0  0  0  0  0  0  0
  147.1980  136.5989  151.8770 H   0  0  0  0  0  0  0  0  0  0  0  0
  144.6513  137.5184  151.2550 H   0  0  0  0  0  0  0  0  0  0  0  0
  144.7566  135.8260  149.7870 H   0  0  0  0  0  0  0  0  0  0  0  0
  146.2774  135.2928  150.4767 H   0  0  0  0  0  0  0  0  0  0  0  0
  144.0899  133.6656  150.5182 H   0  0  0  0  0  0  0  0  0  0  0  0
  145.2030  133.7060  151.8820 H   0  0  0  0  0  0  0  0  0  0  0  0
  142.5903  135.2240  151.6061 H   0  0  0  0  0  0  0  0  0  0  0  0
  143.0811  134.1892  152.9460 H   0  0  0  0  0  0  0  0  0  0  0  0
  144.7214  135.7400  153.6799 H   0  0  0  0  0  0  0  0  0  0  0  0
  142.5218  137.5674  152.5828 H   0  0  0  0  0  0  0  0  0  0  0  0
  143.6765  137.9944  153.8432 H   0  0  0  0  0  0  0  0  0  0  0  0
  142.4876  136.7289  154.1327 H   0  0  0  0  0  0  0  0  0  0  0  0
  1  2  1  0  0  0  0
  1 22  1  0  0  0  0
  1 23  1  0  0  0  0
  1 24  1  0  0  0  0
  2  8  1  0  0  0  0
  2  3  2  0  0  0  0
  3  4  1  0  0  0  0
  4  5  1  0  0  0  0
  4  6  1  0  0  0  0
  5 25  1  0  0  0  0
  5 26  1  0  0  0  0
  5 27  1  0  0  0  0
  6  7  1  0  0  0  0
  6  8  2  0  0  0  0
  7 28  1  0  0  0  0
  7 29  1  0  0  0  0
  7 30  1  0  0  0  0
  8  9  1  0  0  0  0
  9 10  1  0  0  0  0
  9 31  1  0  0  0  0
  9 32  1  0  0  0  0
 10 11  1  0  0  0  0
 10 12  1  0  0  0  0
 10 33  1  0  0  0  0
 11 34  1  0  0  0  0
 11 35  1  0  0  0  0
 11 36  1  0  0  0  0
 12 13  1  0  0  0  0
 12 37  1  0  0  0  0
 13 14  2  0  0  0  0
 13 15  1  0  0  0  0
 15 16  1  0  0  0  0
 15 38  1  0  0  0  0
 16 20  1  0  0  0  0
 16 17  1  0  0  0  0
 16 39  1  0  0  0  0
 17 18  1  0  0  0  0
 17 40  1  0  0  0  0
 17 41  1  0  0  0  0
 18 19  1  0  0  0  0
 18 42  1  0  0  0  0
 18 43  1  0  0  0  0
 19 20  1  0  0  0  0
 19 44  1  0  0  0  0
 19 45  1  0  0  0  0
 20 21  1  0  0  0  0
 20 46  1  0  0  0  0
 21 47  1  0  0  0  0
 21 48  1  0  0  0  0
 21 49  1  0  0  0  0
M  END
> <s_m_source_file>
AV-unprocessed.smi

> <i_m_source_file_index>
671

> <i_lp_mmshare_version>
43012

> <i_f3d_flags>
0

> <s_epik_input>
W0NIM11jMW5uKFtDSDNdKWMoW0NIM10pYzFbQ0gyXVtDQEhdKFtDSDNdKVtOSF1DKD1PKVtOSF1bQ0BASF0yW0NIMl1bQ0gyXVtDSDJdW0NASF0yW0NIM10=

> <s_epik_cmdline>
J2VwaWtfcHl0aG9uJywgJy1waCcsICc3LjAnLCAnLXRuJywgJzgnLCAnLW1hJywgJzIwMCcsICctbWV0YWxfYmluZGluZycsICctaW1hZScsICc8aW5maWxlLm1hZT4nLCAnLW9tYWUnLCAnPG91dGZpbGUubWFlPic=

> <r_lp_tautomer_probability>
1

> <r_epik_Ionization_Penalty>
0.0126855

> <r_epik_Ionization_Penalty_Charging>
0

> <r_epik_Ionization_Penalty_Neutral>
0.0126855

> <r_epik_State_Penalty>
0.00977547

> <r_epik_Charging_Adjusted_Penalty>
0.00977547

> <i_epik_Tot_Q>
0

> <i_epik_Tot_abs_Q>
0

> <r_epik_Metal_State_Penalty>
0.00957132

> <b_epik_Metal_Only>
0

> <s_lp_Force_Field>
OPLS_2005

> <r_lp_Energy>
21.5891

> <b_lp_Chiralities_Consistent>
1

> <s_lp_Variant>
AV-unprocessed.smi:671-7

> <Gold.Version>
5.8.1

> <Gold.Id.Protein>
6NUR|6NUR_protein|mol2

> <Gold.PLP.Fitness>
42.7592

> <Gold.PLP.PLP>
-35.2187

> <Gold.PLP.part.hbond>
-3.0000

> <Gold.PLP.part.metal>
0.0000

> <Gold.PLP.part.buried>
-3.6200

> <Gold.PLP.part.nonpolar>
-29.6116

> <Gold.PLP.part.repulsive>
0.1825

> <Gold.PLP.ligand.clash>
0.0000

> <Gold.PLP.ligand.torsion>
0.7399

> <Gold.PLP.Chemscore.Hbond>
3.0000

> <Gold.PLP.Chemscore.CHOScore>
0.0000

> <Gold.PLP.Chemscore.Metal>
0.0000

> <Gold.Chemscore.Hbonds>
donor molecule, donor type, donor heavy atom, donor atom, acceptor molecule, acceptor atom, score
      L1  H    12    37       P1  7948  1.00
      L1  H    15    38       P1  7948  1.00
      P1  H  7997  8008       L1     3  1.00

> <Gold.PLP.Chemscore.Internal.Correction>
0.0202

> <Gold.Rescore>
     Score         DG    S(hbond)    S(metal)    S(lipo)     H(rot)  DE(clash)    DE(int)     intcor
     20.49     -21.26       2.90        0.00      83.74       1.45       0.05       0.72       ----

> <Gold.Chemscore.Fitness>
20.4857

> <Gold.Chemscore.DG>
-21.2558

> <Gold.Chemscore.ZeroCoef>
-5.4800

> <Gold.Chemscore.Hbond>
2.9013

> <Gold.Chemscore.Metal>
0.0000

> <Gold.Chemscore.Lipo>
83.7373

> <Gold.Chemscore.Internal_Hbond>
0.0000

> <Gold.Chemscore.DEClash>
0.0525

> <Gold.Chemscore.DEInternal>
0.7176

> <Gold.Chemscore.Rot>
1.4499

> <Gold.Chemscore.Internal.Correction>
   9.000000E+99

> <Gold.Chemscore.Hbonds>
donor molecule, donor type, donor heavy atom, donor atom, acceptor molecule, acceptor atom, score
      L1  H    12    37       P1  7948  0.95
      L1  H    15    38       P1  7948  0.96
      P1  H  7997  8008       L1     3  0.83

> <Gold.Chemscore.Hbond.Weighted>
-9.6904

> <Gold.Chemscore.Metal.Weighted>
-0.0000

> <Gold.Chemscore.Lipo.Weighted>
-9.7973

> <Gold.Chemscore.Internal_Hbond.Weighted>
0.0000

> <Gold.Chemscore.DEClash.Weighted>
0.0525

> <Gold.Chemscore.DEInternal.Weighted>
0.7176

> <Gold.Chemscore.Rot.Weighted>
3.7118

> <Gold.Chemscore.Internal.Correction.Weighted>
   9.000000E+99

> <Gold.Protein.RotatedTorsions>
[ 6907 6896 6895 6894 ] final  -46.41 input  -60.11 | X-H torsion
[ 7974 7965 7964 7962 ] final  -36.30 input  175.53 | X-H torsion
[ 8008 7997 7996 7995 ] final  -35.61 input   59.86 | X-H torsion
[ 10167 10162 10161 10158 ] final   57.54 input  -65.29 | X-H torsion
[ 10718 10713 10712 10709 ] final -176.08 input   66.30 | X-H torsion
[ 10763 10752 10751 10750 ] final  154.05 input  -60.55 | X-H torsion
[ 11005 11000 10999 10996 ] final -165.98 input  -57.11 | X-H torsion

> <Gold.Protein.ActiveResidues>
 VAL166  LYS551  ARG553  GLY616  TRP617  ASP618  TYR619  PRO620  LYS621  CYS622 
 ASP623  PHE694  ASN695  SER759  ASP760  ASP761  ALA762  ILE779  LEU786  VAL792 
 PHE793  MET794  SER795  GLU796  ALA797  LYS798  CYS799  TRP800  GLU811  SER814 

> <Gold.Protein.RotatedAtoms>
  150.9115  134.8532  159.7428 H   0  0  0  0  0  0  0  0  0  0  0  0  # atno 6907 bound_to 6896
  152.4946  134.4352  159.9535 H   0  0  0  0  0  0  0  0  0  0  0  0  # atno 6908 bound_to 6896
  151.4394  133.3608  159.2815 H   0  0  0  0  0  0  0  0  0  0  0  0  # atno 6909 bound_to 6896
  146.0673  140.6262  142.8969 H   0  0  0  0  0  0  0  0  0  0  0  0  # atno 7974 bound_to 7965
  154.4091  140.1652  156.2240 H   0  0  0  0  0  0  0  0  0  0  0  0  # atno 8008 bound_to 7997
  155.9339  140.3413  155.6249 H   0  0  0  0  0  0  0  0  0  0  0  0  # atno 8009 bound_to 7997
  155.7072  140.0752  157.2377 H   0  0  0  0  0  0  0  0  0  0  0  0  # atno 8010 bound_to 7997
  140.1969  144.4028  150.6546 H   0  0  0  0  0  0  0  0  0  0  0  0  # atno 10167 bound_to 10162
  156.8094  130.9580  151.3116 H   0  0  0  0  0  0  0  0  0  0  0  0  # atno 10718 bound_to 10713
  154.1460  135.2818  155.3148 H   0  0  0  0  0  0  0  0  0  0  0  0  # atno 10763 bound_to 10752
  154.6252  135.5454  153.7622 H   0  0  0  0  0  0  0  0  0  0  0  0  # atno 10764 bound_to 10752
  153.0236  135.6449  154.1606 H   0  0  0  0  0  0  0  0  0  0  0  0  # atno 10765 bound_to 10752
  140.5696  134.5251  157.5159 H   0  0  0  0  0  0  0  0  0  0  0  0  # atno 11005 bound_to 11000
  144.7210  140.4373  143.7008 LP  0  0  0  0  0  0  0  0  0  0  0  0  # atno 17320 bound_to 7965
  145.6454  139.1556  143.2892 LP  0  0  0  0  0  0  0  0  0  0  0  0  # atno 17321 bound_to 7965
  140.6417  143.2205  151.6275 LP  0  0  0  0  0  0  0  0  0  0  0  0  # atno 17342 bound_to 10162
  139.5233  144.3137  152.0970 LP  0  0  0  0  0  0  0  0  0  0  0  0  # atno 17343 bound_to 10162
  157.6514  130.8887  149.9640 LP  0  0  0  0  0  0  0  0  0  0  0  0  # atno 17370 bound_to 10713
  156.1054  130.3653  150.0144 LP  0  0  0  0  0  0  0  0  0  0  0  0  # atno 17371 bound_to 10713
  139.9368  134.7860  156.0781 LP  0  0  0  0  0  0  0  0  0  0  0  0  # atno 17394 bound_to 11000
  141.1064  133.6658  156.2875 LP  0  0  0  0  0  0  0  0  0  0  0  0  # atno 17395 bound_to 11000

$$$$
