AV-unprocessed.smi:1215|AV-procd|sdf|5096|dock3
  -GOLD-   22720 4143D 1   1.00000     0.00000
 Structure written by MMmdl.
 46 47  0  0  0  0  0  0  0  0  2 V2000
  150.2116  140.8761  157.0907 C   0  0  0  0  0  0  0  0  0  0  0  0
  151.6155  140.8130  156.4771 C   0  0  0  0  0  0  0  0  0  0  0  0
  151.8039  139.6112  155.6881 N   0  0  0  0  0  0  0  0  0  0  0  0
  150.9258  138.5603  155.5110 C   0  0  0  0  0  0  0  0  0  0  0  0
  151.5649  137.6805  154.6836 C   0  0  0  0  0  0  0  0  0  0  0  0
  151.1185  136.4333  154.1782 N   0  0  0  0  0  0  0  0  0  0  0  0
  150.3135  135.5477  154.7877 C   0  0  0  0  0  0  0  0  0  0  0  0
  149.8207  135.6898  155.9071 O   0  0  0  0  0  0  0  0  0  0  0  0
  150.1078  134.4661  154.0229 N   0  0  0  0  0  0  0  0  0  0  0  0
  149.2798  133.3256  154.3974 C   0  0  0  0  0  0  0  0  0  0  0  0
  148.4245  132.8340  153.2124 C   0  0  0  0  0  0  0  0  0  0  0  0
  147.3949  133.8173  152.7788 N   0  3  2  0  0  0  0  0  0  0  0  0
  146.5838  134.3154  153.9230 C   0  0  0  0  0  0  0  0  0  0  0  0
  145.6798  135.4857  153.5044 C   0  0  0  0  0  0  0  0  0  0  0  0
  144.7806  135.0946  152.3274 C   0  0  0  0  0  0  0  0  0  0  0  0
  145.6393  134.5692  151.1689 C   0  0  0  0  0  0  0  0  0  0  0  0
  146.5606  133.4095  151.6040 C   0  0  2  0  0  0  0  0  0  0  0  0
  145.7795  132.0963  151.8242 C   0  0  0  0  0  0  0  0  0  0  0  0
  152.8268  138.2644  154.3984 C   0  0  0  0  0  0  0  0  0  0  0  0
  152.9646  139.4306  155.0104 N   0  0  0  0  0  0  0  0  0  0  0  0
  150.0917  141.7770  157.6926 H   0  0  0  0  0  0  0  0  0  0  0  0
  150.0259  140.0172  157.7361 H   0  0  0  0  0  0  0  0  0  0  0  0
  149.4423  140.8881  156.3180 H   0  0  0  0  0  0  0  0  0  0  0  0
  151.7926  141.6824  155.8422 H   0  0  0  0  0  0  0  0  0  0  0  0
  152.3706  140.8359  157.2637 H   0  0  0  0  0  0  0  0  0  0  0  0
  149.9529  138.5411  155.9795 H   0  0  0  0  0  0  0  0  0  0  0  0
  151.4528  136.1884  153.2576 H   0  0  0  0  0  0  0  0  0  0  0  0
  150.5497  134.4330  153.1154 H   0  0  0  0  0  0  0  0  0  0  0  0
  149.9057  132.5184  154.7821 H   0  0  0  0  0  0  0  0  0  0  0  0
  148.6479  133.6542  155.2218 H   0  0  0  0  0  0  0  0  0  0  0  0
  149.0572  132.5490  152.3716 H   0  0  0  0  0  0  0  0  0  0  0  0
  147.9095  131.9223  153.5180 H   0  0  0  0  0  0  0  0  0  0  0  0
  145.9869  133.5045  154.3414 H   0  0  0  0  0  0  0  0  0  0  0  0
  147.2458  134.6544  154.7206 H   0  0  0  0  0  0  0  0  0  0  0  0
  145.0691  135.8059  154.3492 H   0  0  0  0  0  0  0  0  0  0  0  0
  146.2954  136.3419  153.2255 H   0  0  0  0  0  0  0  0  0  0  0  0
  144.0647  134.3345  152.6413 H   0  0  0  0  0  0  0  0  0  0  0  0
  144.1956  135.9549  152.0009 H   0  0  0  0  0  0  0  0  0  0  0  0
  145.0001  134.2568  150.3423 H   0  0  0  0  0  0  0  0  0  0  0  0
  146.2508  135.3863  150.7833 H   0  0  0  0  0  0  0  0  0  0  0  0
  147.2319  133.2405  150.7628 H   0  0  0  0  0  0  0  0  0  0  0  0
  145.1724  131.8599  150.9501 H   0  0  0  0  0  0  0  0  0  0  0  0
  145.1060  132.1511  152.6789 H   0  0  0  0  0  0  0  0  0  0  0  0
  146.4466  131.2486  151.9788 H   0  0  0  0  0  0  0  0  0  0  0  0
  153.6306  137.8898  153.7819 H   0  0  0  0  0  0  0  0  0  0  0  0
  147.9184  134.6218  152.4640 H   0  0  0  0  0  0  0  0  0  0  0  0
  1  2  1  0  0  0  0
  1 21  1  0  0  0  0
  1 22  1  0  0  0  0
  1 23  1  0  0  0  0
  2  3  1  0  0  0  0
  2 24  1  0  0  0  0
  2 25  1  0  0  0  0
  3 20  1  0  0  0  0
  3  4  1  0  0  0  0
  4  5  2  0  0  0  0
  4 26  1  0  0  0  0
  5  6  1  0  0  0  0
  5 19  1  0  0  0  0
  6  7  1  0  0  0  0
  6 27  1  0  0  0  0
  7  8  2  0  0  0  0
  7  9  1  0  0  0  0
  9 10  1  0  0  0  0
  9 28  1  0  0  0  0
 10 11  1  0  0  0  0
 10 29  1  0  0  0  0
 10 30  1  0  0  0  0
 11 12  1  0  0  0  0
 11 31  1  0  0  0  0
 11 32  1  0  0  0  0
 12 17  1  0  0  0  0
 12 13  1  0  0  0  0
 12 46  1  0  0  0  0
 13 14  1  0  0  0  0
 13 33  1  0  0  0  0
 13 34  1  0  0  0  0
 14 15  1  0  0  0  0
 14 35  1  0  0  0  0
 14 36  1  0  0  0  0
 15 16  1  0  0  0  0
 15 37  1  0  0  0  0
 15 38  1  0  0  0  0
 16 17  1  0  0  0  0
 16 39  1  0  0  0  0
 16 40  1  0  0  0  0
 17 18  1  0  0  0  0
 17 41  1  0  0  0  0
 18 42  1  0  0  0  0
 18 43  1  0  0  0  0
 18 44  1  0  0  0  0
 19 20  2  0  0  0  0
 19 45  1  0  0  0  0
M  CHG  1  12   1
M  END
> <s_m_source_file>
AV-unprocessed.smi

> <i_m_source_file_index>
1215

> <i_lp_mmshare_version>
43012

> <i_f3d_flags>
0

> <s_epik_input>
W0NIM11bQ0gyXW4xW2NIXWMoW2NIXW4xKVtOSF1DKD1PKVtOSF1bQ0gyXVtDSDJdTjJbQ0gyXVtDSDJdW0NIMl1bQ0gyXVtDQEhdMltDSDNd

> <s_epik_cmdline>
J2VwaWtfcHl0aG9uJywgJy1waCcsICc3LjAnLCAnLXRuJywgJzgnLCAnLW1hJywgJzIwMCcsICctbWV0YWxfYmluZGluZycsICctaW1hZScsICc8aW5maWxlLm1hZT4nLCAnLW9tYWUnLCAnPG91dGZpbGUubWFlPic=

> <r_lp_tautomer_probability>
1

> <r_epik_Ionization_Penalty>
0.00247187

> <r_epik_Ionization_Penalty_Charging>
0.00232067

> <r_epik_Ionization_Penalty_Neutral>
0.000151201

> <r_epik_State_Penalty>
0.00160128

> <r_epik_Charging_Adjusted_Penalty>
0.00392194

> <i_epik_Tot_Q>
1

> <i_epik_Tot_abs_Q>
1

> <r_epik_Metal_State_Penalty>
-0

> <b_epik_Metal_Only>
0

> <s_lp_Force_Field>
OPLS_2005

> <r_lp_Energy>
24.1958

> <b_lp_Chiralities_Consistent>
1

> <s_lp_Variant>
AV-unprocessed.smi:1215-3

> <Gold.Version>
5.8.1

> <Gold.Id.Protein>
6NUR|6NUR_protein|mol2

> <Gold.PLP.Fitness>
48.8245

> <Gold.PLP.PLP>
-37.7804

> <Gold.PLP.part.hbond>
-6.3658

> <Gold.PLP.part.metal>
0.0000

> <Gold.PLP.part.buried>
-2.1893

> <Gold.PLP.part.nonpolar>
-29.1098

> <Gold.PLP.part.repulsive>
0.2393

> <Gold.PLP.ligand.clash>
0.0000

> <Gold.PLP.ligand.torsion>
0.3935

> <Gold.PLP.Chemscore.Hbond>
3.9120

> <Gold.PLP.Chemscore.CHOScore>
0.0000

> <Gold.PLP.Chemscore.Metal>
0.0000

> <Gold.Chemscore.Hbonds>
donor molecule, donor type, donor heavy atom, donor atom, acceptor molecule, acceptor atom, score
      L1  H     6    27       P1  7949  1.00
      L1  H    12    46       P1  7948  2.00
      P1  H  7997  8008       L1    20  1.00

> <Gold.PLP.Chemscore.Internal.Correction>
0.0951

> <Gold.Rescore>
     Score         DG    S(hbond)    S(metal)    S(lipo)     H(rot)  DE(clash)    DE(int)     intcor
     18.06     -18.81       2.59        0.00      74.95       1.59       0.20       0.56       ----

> <Gold.Chemscore.Fitness>
18.0578

> <Gold.Chemscore.DG>
-18.8108

> <Gold.Chemscore.ZeroCoef>
-5.4800

> <Gold.Chemscore.Hbond>
2.5850

> <Gold.Chemscore.Metal>
0.0000

> <Gold.Chemscore.Lipo>
74.9539

> <Gold.Chemscore.Internal_Hbond>
0.0000

> <Gold.Chemscore.DEClash>
0.1966

> <Gold.Chemscore.DEInternal>
0.5563

> <Gold.Chemscore.Rot>
1.5909

> <Gold.Chemscore.Internal.Correction>
   9.000000E+99

> <Gold.Chemscore.Hbonds>
donor molecule, donor type, donor heavy atom, donor atom, acceptor molecule, acceptor atom, score
      L1  H     6    27       P1  7949  0.78
      L1  H    12    46       P1  7948  0.60
      P1  H  7997  8008       L1    20  0.70

> <Gold.Chemscore.Hbond.Weighted>
-8.6340

> <Gold.Chemscore.Metal.Weighted>
-0.0000

> <Gold.Chemscore.Lipo.Weighted>
-8.7696

> <Gold.Chemscore.Internal_Hbond.Weighted>
0.0000

> <Gold.Chemscore.DEClash.Weighted>
0.1966

> <Gold.Chemscore.DEInternal.Weighted>
0.5563

> <Gold.Chemscore.Rot.Weighted>
4.0728

> <Gold.Chemscore.Internal.Correction.Weighted>
   9.000000E+99

> <Gold.Protein.RotatedTorsions>
[ 6907 6896 6895 6894 ] final   48.34 input  -60.11 | X-H torsion
[ 7974 7965 7964 7962 ] final   27.91 input  175.53 | X-H torsion
[ 8008 7997 7996 7995 ] final  -26.15 input   59.86 | X-H torsion
[ 10167 10162 10161 10158 ] final  162.00 input  -65.29 | X-H torsion
[ 10718 10713 10712 10709 ] final   21.98 input   66.30 | X-H torsion
[ 10763 10752 10751 10750 ] final  171.17 input  -60.55 | X-H torsion
[ 11005 11000 10999 10996 ] final  -83.11 input  -57.11 | X-H torsion

> <Gold.Protein.ActiveResidues>
 VAL166  LYS551  ARG553  GLY616  TRP617  ASP618  TYR619  PRO620  LYS621  CYS622 
 ASP623  PHE694  ASN695  SER759  ASP760  ASP761  ALA762  ILE779  LEU786  VAL792 
 PHE793  MET794  SER795  GLU796  ALA797  LYS798  CYS799  TRP800  GLU811  SER814 

> <Gold.Protein.RotatedAtoms>
  152.2784  134.7856  160.0401 H   0  0  0  0  0  0  0  0  0  0  0  0  # atno 6907 bound_to 6896
  151.8444  133.3424  159.3661 H   0  0  0  0  0  0  0  0  0  0  0  0  # atno 6908 bound_to 6896
  150.7179  134.5288  159.5734 H   0  0  0  0  0  0  0  0  0  0  0  0  # atno 6909 bound_to 6896
  146.1758  139.7127  142.8935 H   0  0  0  0  0  0  0  0  0  0  0  0  # atno 7974 bound_to 7965
  154.4439  140.1907  156.0730 H   0  0  0  0  0  0  0  0  0  0  0  0  # atno 8008 bound_to 7997
  156.0496  140.3310  155.7309 H   0  0  0  0  0  0  0  0  0  0  0  0  # atno 8009 bound_to 7997
  155.5577  140.0601  157.2827 H   0  0  0  0  0  0  0  0  0  0  0  0  # atno 8010 bound_to 7997
  139.4855  144.4481  151.8865 H   0  0  0  0  0  0  0  0  0  0  0  0  # atno 10167 bound_to 10162
  157.1460  130.6653  149.5996 H   0  0  0  0  0  0  0  0  0  0  0  0  # atno 10718 bound_to 10713
  154.4081  135.2756  155.2054 H   0  0  0  0  0  0  0  0  0  0  0  0  # atno 10763 bound_to 10752
  154.4052  135.6035  153.5924 H   0  0  0  0  0  0  0  0  0  0  0  0  # atno 10764 bound_to 10752
  152.9831  135.5936  154.4358 H   0  0  0  0  0  0  0  0  0  0  0  0  # atno 10765 bound_to 10752
  141.1659  133.7278  156.8671 H   0  0  0  0  0  0  0  0  0  0  0  0  # atno 11005 bound_to 11000
  145.4215  141.0407  143.2961 LP  0  0  0  0  0  0  0  0  0  0  0  0  # atno 17320 bound_to 7965
  144.8234  139.5752  143.6976 LP  0  0  0  0  0  0  0  0  0  0  0  0  # atno 17321 bound_to 7965
  140.3936  144.2583  150.5898 LP  0  0  0  0  0  0  0  0  0  0  0  0  # atno 17342 bound_to 10162
  140.5123  143.2287  151.8517 LP  0  0  0  0  0  0  0  0  0  0  0  0  # atno 17343 bound_to 10162
  155.9779  130.4761  150.6625 LP  0  0  0  0  0  0  0  0  0  0  0  0  # atno 17370 bound_to 10713
  157.4264  131.0843  151.1081 LP  0  0  0  0  0  0  0  0  0  0  0  0  # atno 17371 bound_to 10713
  140.1807  134.9035  157.2945 LP  0  0  0  0  0  0  0  0  0  0  0  0  # atno 17394 bound_to 11000
  140.2398  134.3809  155.7485 LP  0  0  0  0  0  0  0  0  0  0  0  0  # atno 17395 bound_to 11000

$$$$
