AV-unprocessed.smi:2508|AV-procd|sdf|9865|dock1
  -GOLD-   2272013493D 1   1.00000     0.00000
 Structure written by MMmdl.
 46 47  0  0  0  0  0  0  0  0  1 V2000
  152.7294  143.8279  163.0874 C   0  0  0  0  0  0  0  0  0  0  0  0
  153.0924  142.7627  162.1485 N   0  0  0  0  0  0  0  0  0  0  0  0
  152.3805  142.6855  160.9353 C   0  0  0  0  0  0  0  0  0  0  0  0
  152.6390  141.7391  160.0058 C   0  0  0  0  0  0  0  0  0  0  0  0
  151.9794  141.5995  158.7751 N   0  0  0  0  0  0  0  0  0  0  0  0
  152.1748  140.6983  157.7889 C   0  0  0  0  0  0  0  0  0  0  0  0
  153.0242  139.8103  157.7920 O   0  0  0  0  0  0  0  0  0  0  0  0
  151.3432  140.8504  156.7437 N   0  0  0  0  0  0  0  0  0  0  0  0
  151.2897  140.0478  155.5201 C   0  0  0  0  0  0  0  0  0  0  0  0
  150.0568  139.1003  155.4799 C   0  0  0  0  0  0  0  0  0  0  0  0
  150.3159  137.9551  154.4742 C   0  0  0  0  0  0  0  0  0  0  0  0
  149.8407  138.4657  156.8731 C   0  0  0  0  0  0  0  0  0  0  0  0
  148.7467  139.8431  155.0627 C   0  0  0  0  0  0  0  0  0  0  0  0
  147.9178  139.2147  153.9323 C   0  0  0  0  0  0  0  0  0  0  0  0
  146.9191  140.3036  153.5268 C   0  0  0  0  0  0  0  0  0  0  0  0
  147.5520  141.6426  153.9345 C   0  0  0  0  0  0  0  0  0  0  0  0
  148.8875  141.3040  154.6072 C   0  0  0  0  0  0  0  0  0  0  0  0
  153.6956  140.7971  160.3090 C   0  0  0  0  0  0  0  0  0  0  0  0
  154.3812  140.8640  161.4668 C   0  0  0  0  0  0  0  0  0  0  0  0
  154.0916  141.8910  162.4698 C   0  0  0  0  0  0  0  0  0  0  0  0
  154.7089  141.9640  163.5327 O   0  0  0  0  0  0  0  0  0  0  0  0
  151.9302  144.4689  162.7142 H   0  0  0  0  0  0  0  0  0  0  0  0
  153.5889  144.4682  163.2913 H   0  0  0  0  0  0  0  0  0  0  0  0
  152.3900  143.4037  164.0335 H   0  0  0  0  0  0  0  0  0  0  0  0
  151.6278  143.4499  160.8316 H   0  0  0  0  0  0  0  0  0  0  0  0
  151.2525  142.2803  158.6090 H   0  0  0  0  0  0  0  0  0  0  0  0
  150.6842  141.6135  156.7975 H   0  0  0  0  0  0  0  0  0  0  0  0
  151.2757  140.7305  154.6707 H   0  0  0  0  0  0  0  0  0  0  0  0
  152.2143  139.4748  155.4556 H   0  0  0  0  0  0  0  0  0  0  0  0
  149.4457  137.3045  154.3792 H   0  0  0  0  0  0  0  0  0  0  0  0
  151.1518  137.3253  154.7800 H   0  0  0  0  0  0  0  0  0  0  0  0
  150.5495  138.3384  153.4808 H   0  0  0  0  0  0  0  0  0  0  0  0
  148.9461  137.8425  156.8909 H   0  0  0  0  0  0  0  0  0  0  0  0
  149.7273  139.2252  157.6471 H   0  0  0  0  0  0  0  0  0  0  0  0
  150.6770  137.8307  157.1668 H   0  0  0  0  0  0  0  0  0  0  0  0
  148.0968  139.8618  155.9400 H   0  0  0  0  0  0  0  0  0  0  0  0
  148.5426  138.9787  153.0719 H   0  0  0  0  0  0  0  0  0  0  0  0
  147.4155  138.2963  154.2377 H   0  0  0  0  0  0  0  0  0  0  0  0
  146.6961  140.2640  152.4602 H   0  0  0  0  0  0  0  0  0  0  0  0
  145.9785  140.1656  154.0614 H   0  0  0  0  0  0  0  0  0  0  0  0
  147.6973  142.3012  153.0775 H   0  0  0  0  0  0  0  0  0  0  0  0
  146.8972  142.1615  154.6357 H   0  0  0  0  0  0  0  0  0  0  0  0
  149.1085  141.9820  155.4320 H   0  0  0  0  0  0  0  0  0  0  0  0
  149.6840  141.4111  153.8724 H   0  0  0  0  0  0  0  0  0  0  0  0
  153.9425  140.0231  159.5967 H   0  0  0  0  0  0  0  0  0  0  0  0
  155.1630  140.1448  161.6615 H   0  0  0  0  0  0  0  0  0  0  0  0
  1  2  1  0  0  0  0
  1 22  1  0  0  0  0
  1 23  1  0  0  0  0
  1 24  1  0  0  0  0
  2 20  1  0  0  0  0
  2  3  1  0  0  0  0
  3  4  2  0  0  0  0
  3 25  1  0  0  0  0
  4  5  1  0  0  0  0
  4 18  1  0  0  0  0
  5  6  1  0  0  0  0
  5 26  1  0  0  0  0
  6  7  2  0  0  0  0
  6  8  1  0  0  0  0
  8  9  1  0  0  0  0
  8 27  1  0  0  0  0
  9 10  1  0  0  0  0
  9 28  1  0  0  0  0
  9 29  1  0  0  0  0
 10 11  1  0  0  0  0
 10 12  1  0  0  0  0
 10 13  1  0  0  0  0
 11 30  1  0  0  0  0
 11 31  1  0  0  0  0
 11 32  1  0  0  0  0
 12 33  1  0  0  0  0
 12 34  1  0  0  0  0
 12 35  1  0  0  0  0
 13 17  1  0  0  0  0
 13 14  1  0  0  0  0
 13 36  1  0  0  0  0
 14 15  1  0  0  0  0
 14 37  1  0  0  0  0
 14 38  1  0  0  0  0
 15 16  1  0  0  0  0
 15 39  1  0  0  0  0
 15 40  1  0  0  0  0
 16 17  1  0  0  0  0
 16 41  1  0  0  0  0
 16 42  1  0  0  0  0
 17 43  1  0  0  0  0
 17 44  1  0  0  0  0
 18 19  2  0  0  0  0
 18 45  1  0  0  0  0
 19 20  1  0  0  0  0
 19 46  1  0  0  0  0
 20 21  2  0  0  0  0
M  END
> <s_m_source_file>
AV-unprocessed.smi

> <i_m_source_file_index>
2508

> <i_lp_mmshare_version>
43012

> <i_f3d_flags>
0

> <s_epik_input>
Tz1jMVtjSF1bY0hdYyhbY0hdbjFbQ0gzXSlbTkhdQyg9TylbTkhdW0NIMl1DKFtDSDNdKShbQ0gzXSlbQ0hdMltDSDJdW0NIMl1bQ0gyXVtDSDJdMg==

> <s_epik_cmdline>
J2VwaWtfcHl0aG9uJywgJy1waCcsICc3LjAnLCAnLXRuJywgJzgnLCAnLW1hJywgJzIwMCcsICctbWV0YWxfYmluZGluZycsICctaW1hZScsICc8aW5maWxlLm1hZT4nLCAnLW9tYWUnLCAnPG91dGZpbGUubWFlPic=

> <r_lp_tautomer_probability>
1

> <r_epik_Ionization_Penalty>
2.69566e-05

> <r_epik_Ionization_Penalty_Charging>
5.95678e-06

> <r_epik_Ionization_Penalty_Neutral>
2.09998e-05

> <r_epik_State_Penalty>
-0

> <r_epik_Charging_Adjusted_Penalty>
5.95678e-06

> <i_epik_Tot_Q>
0

> <i_epik_Tot_abs_Q>
0

> <r_epik_Metal_State_Penalty>
-0

> <b_epik_Metal_Only>
0

> <s_lp_Force_Field>
OPLS_2005

> <r_lp_Energy>
55.0143

> <b_lp_Chiralities_Consistent>
1

> <s_lp_Variant>
AV-unprocessed.smi:2508-1

> <Gold.Version>
5.8.1

> <Gold.Id.Protein>
6NUR|6NUR_protein|mol2

> <Gold.PLP.Fitness>
41.8171

> <Gold.PLP.PLP>
-43.7922

> <Gold.PLP.part.hbond>
-2.0000

> <Gold.PLP.part.metal>
0.0000

> <Gold.PLP.part.buried>
0.4239

> <Gold.PLP.part.nonpolar>
-41.0651

> <Gold.PLP.part.repulsive>
0.2203

> <Gold.PLP.ligand.clash>
0.0000

> <Gold.PLP.ligand.torsion>
2.4942

> <Gold.PLP.Chemscore.Hbond>
1.0000

> <Gold.PLP.Chemscore.CHOScore>
0.0000

> <Gold.PLP.Chemscore.Metal>
0.0000

> <Gold.Chemscore.Hbonds>
donor molecule, donor type, donor heavy atom, donor atom, acceptor molecule, acceptor atom, score
      P1  H  7997  8008       L1     7  1.00

> <Gold.PLP.Chemscore.Internal.Correction>
0.0133

> <Gold.Rescore>
     Score         DG    S(hbond)    S(metal)    S(lipo)     H(rot)  DE(clash)    DE(int)     intcor
     12.87     -17.36       0.94        0.00     104.84       1.37       1.40       3.09       ----

> <Gold.Chemscore.Fitness>
12.8711

> <Gold.Chemscore.DG>
-17.3648

> <Gold.Chemscore.ZeroCoef>
-5.4800

> <Gold.Chemscore.Hbond>
0.9389

> <Gold.Chemscore.Metal>
0.0000

> <Gold.Chemscore.Lipo>
104.8445

> <Gold.Chemscore.Internal_Hbond>
0.0000

> <Gold.Chemscore.DEClash>
1.4039

> <Gold.Chemscore.DEInternal>
3.0898

> <Gold.Chemscore.Rot>
1.3742

> <Gold.Chemscore.Internal.Correction>
   9.000000E+99

> <Gold.Chemscore.Hbonds>
donor molecule, donor type, donor heavy atom, donor atom, acceptor molecule, acceptor atom, score
      P1  H  7997  8008       L1     7  0.93

> <Gold.Chemscore.Hbond.Weighted>
-3.1359

> <Gold.Chemscore.Metal.Weighted>
-0.0000

> <Gold.Chemscore.Lipo.Weighted>
-12.2668

> <Gold.Chemscore.Internal_Hbond.Weighted>
0.0000

> <Gold.Chemscore.DEClash.Weighted>
1.4039

> <Gold.Chemscore.DEInternal.Weighted>
3.0898

> <Gold.Chemscore.Rot.Weighted>
3.5179

> <Gold.Chemscore.Internal.Correction.Weighted>
   9.000000E+99

> <Gold.Protein.RotatedTorsions>
[ 6907 6896 6895 6894 ] final  -59.68 input  -60.11 | X-H torsion
[ 7974 7965 7964 7962 ] final -110.72 input  175.53 | X-H torsion
[ 8008 7997 7996 7995 ] final  -91.78 input   59.86 | X-H torsion
[ 10167 10162 10161 10158 ] final   57.19 input  -65.29 | X-H torsion
[ 10718 10713 10712 10709 ] final   31.36 input   66.30 | X-H torsion
[ 10763 10752 10751 10750 ] final -164.18 input  -60.55 | X-H torsion
[ 11005 11000 10999 10996 ] final  140.40 input  -57.11 | X-H torsion

> <Gold.Protein.ActiveResidues>
 VAL166  LYS551  ARG553  GLY616  TRP617  ASP618  TYR619  PRO620  LYS621  CYS622 
 ASP623  PHE694  ASN695  SER759  ASP760  ASP761  ALA762  ILE779  LEU786  VAL792 
 PHE793  MET794  SER795  GLU796  ALA797  LYS798  CYS799  TRP800  GLU811  SER814 

> <Gold.Protein.RotatedAtoms>
  150.7912  134.6936  159.6510 H   0  0  0  0  0  0  0  0  0  0  0  0  # atno 6907 bound_to 6896
  152.4017  134.6271  160.0075 H   0  0  0  0  0  0  0  0  0  0  0  0  # atno 6908 bound_to 6896
  151.6540  133.3283  159.3195 H   0  0  0  0  0  0  0  0  0  0  0  0  # atno 6909 bound_to 6896
  145.1648  140.8896  143.3570 H   0  0  0  0  0  0  0  0  0  0  0  0  # atno 7974 bound_to 7965
  154.7149  140.0516  157.0585 H   0  0  0  0  0  0  0  0  0  0  0  0  # atno 8008 bound_to 7997
  155.0504  140.3178  155.4675 H   0  0  0  0  0  0  0  0  0  0  0  0  # atno 8009 bound_to 7997
  156.2800  140.2117  156.5630 H   0  0  0  0  0  0  0  0  0  0  0  0  # atno 8010 bound_to 7997
  140.2007  144.3991  150.6530 H   0  0  0  0  0  0  0  0  0  0  0  0  # atno 10167 bound_to 10162
  157.2714  130.7210  149.6506 H   0  0  0  0  0  0  0  0  0  0  0  0  # atno 10718 bound_to 10713
  154.7053  135.2995  154.9280 H   0  0  0  0  0  0  0  0  0  0  0  0  # atno 10763 bound_to 10752
  154.0199  135.6684  153.4776 H   0  0  0  0  0  0  0  0  0  0  0  0  # atno 10764 bound_to 10752
  153.0712  135.5060  154.8220 H   0  0  0  0  0  0  0  0  0  0  0  0  # atno 10765 bound_to 10752
  140.0325  134.9345  157.0689 H   0  0  0  0  0  0  0  0  0  0  0  0  # atno 11005 bound_to 11000
  145.0294  139.3354  143.6032 LP  0  0  0  0  0  0  0  0  0  0  0  0  # atno 17320 bound_to 7965
  146.3477  139.9625  142.8715 LP  0  0  0  0  0  0  0  0  0  0  0  0  # atno 17321 bound_to 7965
  140.6392  143.2200  151.6327 LP  0  0  0  0  0  0  0  0  0  0  0  0  # atno 17342 bound_to 10162
  139.5218  144.3181  152.0935 LP  0  0  0  0  0  0  0  0  0  0  0  0  # atno 17343 bound_to 10162
  155.9663  130.4366  150.5141 LP  0  0  0  0  0  0  0  0  0  0  0  0  # atno 17370 bound_to 10713
  157.3067  131.0656  151.2030 LP  0  0  0  0  0  0  0  0  0  0  0  0  # atno 17371 bound_to 10713
  140.4203  134.1888  155.7164 LP  0  0  0  0  0  0  0  0  0  0  0  0  # atno 17394 bound_to 11000
  141.1839  133.8356  157.1160 LP  0  0  0  0  0  0  0  0  0  0  0  0  # atno 17395 bound_to 11000

$$$$
