AV-unprocessed.smi:2252|AV-procd|sdf|9113|dock10
  -GOLD-   2272012313D 1   1.00000     0.00000
 Structure written by MMmdl.
 44 46  0  0  0  0  0  0  0  0  1 V2000
  154.4290  140.3535  160.8889 C   0  0  0  0  0  0  0  0  0  0  0  0
  153.5066  141.4633  161.0331 N   0  0  0  0  0  0  0  0  0  0  0  0
  153.3895  142.2881  162.1442 C   0  0  0  0  0  0  0  0  0  0  0  0
  152.4085  143.2047  161.8526 C   0  0  0  0  0  0  0  0  0  0  0  0
  151.9124  142.9599  160.5765 N   0  0  0  0  0  0  0  0  0  0  0  0
  152.5986  141.9070  160.1423 C   0  0  0  0  0  0  0  0  0  0  0  0
  152.4119  141.2928  158.7901 C   0  0  0  0  0  0  0  0  0  0  0  0
  151.3545  142.0292  157.9512 C   0  0  0  0  0  0  0  0  0  0  0  0
  150.4482  141.0944  157.2959 N   0  0  0  0  0  0  0  0  0  0  0  0
  150.6669  140.5252  156.1001 C   0  0  0  0  0  0  0  0  0  0  0  0
  151.6645  140.7573  155.4158 O   0  0  0  0  0  0  0  0  0  0  0  0
  149.5903  139.5497  155.5920 C   0  0  2  0  0  0  0  0  0  0  0  0
  150.1938  138.6435  154.4966 C   0  0  0  0  0  0  0  0  0  0  0  0
  150.4457  137.1726  154.7542 C   0  0  0  0  0  0  0  0  0  0  0  0
  151.6099  138.1166  154.6220 C   0  0  0  0  0  0  0  0  0  0  0  0
  148.3751  140.2422  155.0964 N   0  0  0  0  0  0  0  0  0  0  0  0
  148.6109  141.2224  154.0372 C   0  0  0  0  0  0  0  0  0  0  0  0
  147.3087  142.0229  153.9763 C   0  0  0  0  0  0  0  0  0  0  0  0
  146.6771  141.8458  155.3538 C   0  0  0  0  0  0  0  0  0  0  0  0
  147.6836  141.0011  156.1340 C   0  0  0  0  0  0  0  0  0  0  0  0
  155.1420  140.3480  161.7138 H   0  0  0  0  0  0  0  0  0  0  0  0
  154.9777  140.4436  159.9510 H   0  0  0  0  0  0  0  0  0  0  0  0
  153.8769  139.4136  160.8928 H   0  0  0  0  0  0  0  0  0  0  0  0
  153.9996  142.1602  163.0263 H   0  0  0  0  0  0  0  0  0  0  0  0
  152.0248  144.0138  162.4563 H   0  0  0  0  0  0  0  0  0  0  0  0
  153.3697  141.2695  158.2694 H   0  0  0  0  0  0  0  0  0  0  0  0
  152.1166  140.2511  158.9224 H   0  0  0  0  0  0  0  0  0  0  0  0
  150.7644  142.6865  158.5906 H   0  0  0  0  0  0  0  0  0  0  0  0
  151.8314  142.6682  157.2058 H   0  0  0  0  0  0  0  0  0  0  0  0
  149.6005  140.8547  157.7896 H   0  0  0  0  0  0  0  0  0  0  0  0
  149.3026  138.9205  156.4371 H   0  0  0  0  0  0  0  0  0  0  0  0
  149.8925  138.9134  153.4855 H   0  0  0  0  0  0  0  0  0  0  0  0
  150.2240  136.7855  155.7468 H   0  0  0  0  0  0  0  0  0  0  0  0
  150.2601  136.4826  153.9337 H   0  0  0  0  0  0  0  0  0  0  0  0
  152.2048  138.0600  153.7126 H   0  0  0  0  0  0  0  0  0  0  0  0
  152.1655  138.3525  155.5277 H   0  0  0  0  0  0  0  0  0  0  0  0
  149.4392  141.8782  154.3121 H   0  0  0  0  0  0  0  0  0  0  0  0
  148.8466  140.7578  153.0791 H   0  0  0  0  0  0  0  0  0  0  0  0
  147.4964  143.0709  153.7412 H   0  0  0  0  0  0  0  0  0  0  0  0
  146.6475  141.6230  153.2066 H   0  0  0  0  0  0  0  0  0  0  0  0
  146.4809  142.7983  155.8471 H   0  0  0  0  0  0  0  0  0  0  0  0
  145.7276  141.3164  155.2633 H   0  0  0  0  0  0  0  0  0  0  0  0
  147.1961  140.3568  156.8664 H   0  0  0  0  0  0  0  0  0  0  0  0
  148.3858  141.6489  156.6624 H   0  0  0  0  0  0  0  0  0  0  0  0
  1  2  1  0  0  0  0
  1 21  1  0  0  0  0
  1 22  1  0  0  0  0
  1 23  1  0  0  0  0
  2  6  1  0  0  0  0
  2  3  1  0  0  0  0
  3  4  2  0  0  0  0
  3 24  1  0  0  0  0
  4  5  1  0  0  0  0
  4 25  1  0  0  0  0
  5  6  2  0  0  0  0
  6  7  1  0  0  0  0
  7  8  1  0  0  0  0
  7 26  1  0  0  0  0
  7 27  1  0  0  0  0
  8  9  1  0  0  0  0
  8 28  1  0  0  0  0
  8 29  1  0  0  0  0
  9 10  1  0  0  0  0
  9 30  1  0  0  0  0
 10 11  2  0  0  0  0
 10 12  1  0  0  0  0
 12 13  1  0  0  0  0
 12 16  1  0  0  0  0
 12 31  1  0  0  0  0
 13 15  1  0  0  0  0
 13 14  1  0  0  0  0
 13 32  1  0  0  0  0
 14 15  1  0  0  0  0
 14 33  1  0  0  0  0
 14 34  1  0  0  0  0
 15 35  1  0  0  0  0
 15 36  1  0  0  0  0
 16 20  1  0  0  0  0
 16 17  1  0  0  0  0
 17 18  1  0  0  0  0
 17 37  1  0  0  0  0
 17 38  1  0  0  0  0
 18 19  1  0  0  0  0
 18 39  1  0  0  0  0
 18 40  1  0  0  0  0
 19 20  1  0  0  0  0
 19 41  1  0  0  0  0
 19 42  1  0  0  0  0
 20 43  1  0  0  0  0
 20 44  1  0  0  0  0
M  END
> <s_m_source_file>
AV-unprocessed.smi

> <i_m_source_file_index>
2252

> <i_lp_mmshare_version>
43012

> <i_f3d_flags>
0

> <s_epik_input>
W0NIM11uMVtjSF1bY0hdbmMxW0NIMl1bQ0gyXVtOSF1DKD1PKVtDQEhdKFtDSF0yW0NIMl1bQ0gyXTIpTjNbQ0gyXVtDSDJdW0NIMl1bQ0gyXTM=

> <s_epik_cmdline>
J2VwaWtfcHl0aG9uJywgJy1waCcsICc3LjAnLCAnLXRuJywgJzgnLCAnLW1hJywgJzIwMCcsICctbWV0YWxfYmluZGluZycsICctaW1hZScsICc8aW5maWxlLm1hZT4nLCAnLW9tYWUnLCAnPG91dGZpbGUubWFlPic=

> <r_epik_Ionization_Penalty>
3.7689

> <r_epik_Ionization_Penalty_Charging>
1.29411

> <r_epik_Ionization_Penalty_Neutral>
2.4748

> <r_epik_State_Penalty>
3.85943

> <r_epik_Charging_Adjusted_Penalty>
5.15353

> <i_epik_Tot_Q>
0

> <i_epik_Tot_abs_Q>
0

> <r_epik_Metal_State_Penalty>
2.88358

> <b_epik_Metal_Only>
1

> <s_lp_Force_Field>
OPLS_2005

> <r_lp_Energy>
30.6984

> <b_lp_Chiralities_Consistent>
1

> <s_lp_Variant>
AV-unprocessed.smi:2252-11

> <Gold.Version>
5.8.1

> <Gold.Id.Protein>
6NUR|6NUR_protein|mol2

> <Gold.PLP.Fitness>
42.8836

> <Gold.PLP.PLP>
-43.6026

> <Gold.PLP.part.hbond>
-1.0953

> <Gold.PLP.part.metal>
0.0000

> <Gold.PLP.part.buried>
-4.0359

> <Gold.PLP.part.nonpolar>
-38.3877

> <Gold.PLP.part.repulsive>
0.1755

> <Gold.PLP.ligand.clash>
0.0000

> <Gold.PLP.ligand.torsion>
1.8850

> <Gold.PLP.Chemscore.Hbond>
0.6240

> <Gold.PLP.Chemscore.CHOScore>
0.0000

> <Gold.PLP.Chemscore.Metal>
0.0000

> <Gold.Chemscore.Hbonds>
donor molecule, donor type, donor heavy atom, donor atom, acceptor molecule, acceptor atom, score
      P1  H  7989  7998       L1    11  0.66

> <Gold.PLP.Chemscore.Internal.Correction>
1.1791

> <Gold.Rescore>
     Score         DG    S(hbond)    S(metal)    S(lipo)     H(rot)  DE(clash)    DE(int)     intcor
     11.44     -13.68       0.62        0.00      93.13       1.86       0.19       2.05       ----

> <Gold.Chemscore.Fitness>
11.4423

> <Gold.Chemscore.DG>
-13.6774

> <Gold.Chemscore.ZeroCoef>
-5.4800

> <Gold.Chemscore.Hbond>
0.6191

> <Gold.Chemscore.Metal>
0.0000

> <Gold.Chemscore.Lipo>
93.1298

> <Gold.Chemscore.Internal_Hbond>
0.0000

> <Gold.Chemscore.DEClash>
0.1868

> <Gold.Chemscore.DEInternal>
2.0482

> <Gold.Chemscore.Rot>
1.8619

> <Gold.Chemscore.Internal.Correction>
   9.000000E+99

> <Gold.Chemscore.Hbonds>
donor molecule, donor type, donor heavy atom, donor atom, acceptor molecule, acceptor atom, score
      P1  H  7989  7998       L1    11  0.66

> <Gold.Chemscore.Hbond.Weighted>
-2.0678

> <Gold.Chemscore.Metal.Weighted>
-0.0000

> <Gold.Chemscore.Lipo.Weighted>
-10.8962

> <Gold.Chemscore.Internal_Hbond.Weighted>
0.0000

> <Gold.Chemscore.DEClash.Weighted>
0.1868

> <Gold.Chemscore.DEInternal.Weighted>
2.0482

> <Gold.Chemscore.Rot.Weighted>
4.7665

> <Gold.Chemscore.Internal.Correction.Weighted>
   9.000000E+99

> <Gold.Protein.RotatedTorsions>
[ 6907 6896 6895 6894 ] final  -90.14 input  -60.11 | X-H torsion
[ 7974 7965 7964 7962 ] final  140.69 input  175.53 | X-H torsion
[ 8008 7997 7996 7995 ] final -175.19 input   59.86 | X-H torsion
[ 10167 10162 10161 10158 ] final   43.98 input  -65.29 | X-H torsion
[ 10718 10713 10712 10709 ] final   47.74 input   66.30 | X-H torsion
[ 10763 10752 10751 10750 ] final  113.52 input  -60.55 | X-H torsion
[ 11005 11000 10999 10996 ] final   18.11 input  -57.11 | X-H torsion

> <Gold.Protein.ActiveResidues>
 VAL166  LYS551  ARG553  GLY616  TRP617  ASP618  TYR619  PRO620  LYS621  CYS622 
 ASP623  PHE694  ASN695  SER759  ASP760  ASP761  ALA762  ILE779  LEU786  VAL792 
 PHE793  MET794  SER795  GLU796  ALA797  LYS798  CYS799  TRP800  GLU811  SER814 

> <Gold.Protein.RotatedAtoms>
  150.6879  134.2478  159.4498 H   0  0  0  0  0  0  0  0  0  0  0  0  # atno 6907 bound_to 6896
  152.0418  134.9704  160.0583 H   0  0  0  0  0  0  0  0  0  0  0  0  # atno 6908 bound_to 6896
  152.1203  133.4315  159.4709 H   0  0  0  0  0  0  0  0  0  0  0  0  # atno 6909 bound_to 6896
  144.9163  139.5225  143.5684 H   0  0  0  0  0  0  0  0  0  0  0  0  # atno 7974 bound_to 7965
  155.9795  140.1179  157.0739 H   0  0  0  0  0  0  0  0  0  0  0  0  # atno 8008 bound_to 7997
  154.4179  140.1147  156.5484 H   0  0  0  0  0  0  0  0  0  0  0  0  # atno 8009 bound_to 7997
  155.6489  140.3473  155.4743 H   0  0  0  0  0  0  0  0  0  0  0  0  # atno 8010 bound_to 7997
  140.3389  144.2494  150.6158 H   0  0  0  0  0  0  0  0  0  0  0  0  # atno 10167 bound_to 10162
  157.4616  130.8200  149.7892 H   0  0  0  0  0  0  0  0  0  0  0  0  # atno 10718 bound_to 10713
  153.4937  135.3653  155.2505 H   0  0  0  0  0  0  0  0  0  0  0  0  # atno 10763 bound_to 10752
  154.8751  135.3983  154.3559 H   0  0  0  0  0  0  0  0  0  0  0  0  # atno 10764 bound_to 10752
  153.4183  135.7079  153.6377 H   0  0  0  0  0  0  0  0  0  0  0  0  # atno 10765 bound_to 10752
  140.4285  134.1445  155.7678 H   0  0  0  0  0  0  0  0  0  0  0  0  # atno 11005 bound_to 11000
  146.3183  139.8009  142.8965 LP  0  0  0  0  0  0  0  0  0  0  0  0  # atno 17320 bound_to 7965
  145.3369  141.0279  143.3414 LP  0  0  0  0  0  0  0  0  0  0  0  0  # atno 17321 bound_to 7965
  140.5327  143.2240  151.8212 LP  0  0  0  0  0  0  0  0  0  0  0  0  # atno 17342 bound_to 10162
  139.4843  144.4700  151.9437 LP  0  0  0  0  0  0  0  0  0  0  0  0  # atno 17343 bound_to 10162
  156.0031  130.3869  150.2530 LP  0  0  0  0  0  0  0  0  0  0  0  0  # atno 17370 bound_to 10713
  157.0708  131.0116  151.3191 LP  0  0  0  0  0  0  0  0  0  0  0  0  # atno 17371 bound_to 10713
  141.1755  133.8522  157.1434 LP  0  0  0  0  0  0  0  0  0  0  0  0  # atno 17394 bound_to 11000
  140.0151  134.9971  157.0476 LP  0  0  0  0  0  0  0  0  0  0  0  0  # atno 17395 bound_to 11000

$$$$
