AV-unprocessed.smi:671|AV-procd|sdf|3280|dock9
  -GOLD-   22720 0243D 1   1.00000     0.00000
 Structure written by MMmdl.
 49 50  0  0  0  0  0  0  0  0  1 V2000
  153.0053  138.8389  154.4602 C   0  0  0  0  0  0  0  0  0  0  0  0
  152.0814  139.6002  155.3672 C   0  0  0  0  0  0  0  0  0  0  0  0
  152.5450  140.0762  156.5109 N   0  0  0  0  0  0  0  0  0  0  0  0
  151.4911  140.6952  157.0797 N   0  0  0  0  0  0  0  0  0  0  0  0
  151.6572  141.3361  158.3699 C   0  0  0  0  0  0  0  0  0  0  0  0
  150.3570  140.6046  156.2963 C   0  0  0  0  0  0  0  0  0  0  0  0
  149.0512  141.2058  156.7071 C   0  0  0  0  0  0  0  0  0  0  0  0
  150.7020  139.9034  155.1720 C   0  0  0  0  0  0  0  0  0  0  0  0
  149.8328  139.5330  153.9980 C   0  0  0  0  0  0  0  0  0  0  0  0
  148.3833  139.2065  154.4210 C   0  0  1  0  0  0  0  0  0  0  0  0
  147.4421  140.4127  154.2759 C   0  0  0  0  0  0  0  0  0  0  0  0
  147.8532  138.0954  153.6269 N   0  0  0  0  0  0  0  0  0  0  0  0
  146.5805  137.6654  153.5438 C   0  0  0  0  0  0  0  0  0  0  0  0
  145.6690  138.2120  154.1617 O   0  0  0  0  0  0  0  0  0  0  0  0
  146.3978  136.6151  152.7263 N   0  0  0  0  0  0  0  0  0  0  0  0
  145.1234  135.9563  152.4581 C   0  0  1  0  0  0  0  0  0  0  0  0
  145.0064  135.6277  150.9587 C   0  0  0  0  0  0  0  0  0  0  0  0
  145.1972  134.1161  150.8464 C   0  0  0  0  0  0  0  0  0  0  0  0
  144.6104  133.5781  152.1467 C   0  0  0  0  0  0  0  0  0  0  0  0
  145.0250  134.6059  153.2059 C   0  0  2  0  0  0  0  0  0  0  0  0
  144.0841  134.6386  154.4178 C   0  0  0  0  0  0  0  0  0  0  0  0
  152.8584  137.7646  154.5699 H   0  0  0  0  0  0  0  0  0  0  0  0
  154.0518  139.0557  154.6768 H   0  0  0  0  0  0  0  0  0  0  0  0
  152.8280  139.0930  153.4154 H   0  0  0  0  0  0  0  0  0  0  0  0
  151.2334  140.7026  159.1489 H   0  0  0  0  0  0  0  0  0  0  0  0
  151.1459  142.2987  158.3751 H   0  0  0  0  0  0  0  0  0  0  0  0
  152.7143  141.5018  158.5820 H   0  0  0  0  0  0  0  0  0  0  0  0
  148.2538  140.9248  156.0201 H   0  0  0  0  0  0  0  0  0  0  0  0
  149.1133  142.2940  156.7187 H   0  0  0  0  0  0  0  0  0  0  0  0
  148.7645  140.8710  157.7041 H   0  0  0  0  0  0  0  0  0  0  0  0
  149.8194  140.3326  153.2565 H   0  0  0  0  0  0  0  0  0  0  0  0
  150.2677  138.6772  153.4810 H   0  0  0  0  0  0  0  0  0  0  0  0
  148.3743  138.9179  155.4735 H   0  0  0  0  0  0  0  0  0  0  0  0
  147.7584  141.2438  154.9065 H   0  0  0  0  0  0  0  0  0  0  0  0
  146.4245  140.1533  154.5701 H   0  0  0  0  0  0  0  0  0  0  0  0
  147.4095  140.7700  153.2460 H   0  0  0  0  0  0  0  0  0  0  0  0
  148.5220  137.6270  153.0325 H   0  0  0  0  0  0  0  0  0  0  0  0
  147.2086  136.2389  152.2572 H   0  0  0  0  0  0  0  0  0  0  0  0
  144.2985  136.6171  152.7312 H   0  0  0  0  0  0  0  0  0  0  0  0
  144.0045  135.8861  150.6138 H   0  0  0  0  0  0  0  0  0  0  0  0
  145.7098  136.1807  150.3347 H   0  0  0  0  0  0  0  0  0  0  0  0
  144.7173  133.6964  149.9620 H   0  0  0  0  0  0  0  0  0  0  0  0
  146.2609  133.8799  150.7955 H   0  0  0  0  0  0  0  0  0  0  0  0
  143.5233  133.5387  152.0637 H   0  0  0  0  0  0  0  0  0  0  0  0
  144.9616  132.5726  152.3797 H   0  0  0  0  0  0  0  0  0  0  0  0
  146.0187  134.3207  153.5564 H   0  0  0  0  0  0  0  0  0  0  0  0
  143.0692  134.9085  154.1255 H   0  0  0  0  0  0  0  0  0  0  0  0
  144.4230  135.3666  155.1548 H   0  0  0  0  0  0  0  0  0  0  0  0
  144.0431  133.6654  154.9075 H   0  0  0  0  0  0  0  0  0  0  0  0
  1  2  1  0  0  0  0
  1 22  1  0  0  0  0
  1 23  1  0  0  0  0
  1 24  1  0  0  0  0
  2  8  1  0  0  0  0
  2  3  2  0  0  0  0
  3  4  1  0  0  0  0
  4  5  1  0  0  0  0
  4  6  1  0  0  0  0
  5 25  1  0  0  0  0
  5 26  1  0  0  0  0
  5 27  1  0  0  0  0
  6  7  1  0  0  0  0
  6  8  2  0  0  0  0
  7 28  1  0  0  0  0
  7 29  1  0  0  0  0
  7 30  1  0  0  0  0
  8  9  1  0  0  0  0
  9 10  1  0  0  0  0
  9 31  1  0  0  0  0
  9 32  1  0  0  0  0
 10 11  1  0  0  0  0
 10 12  1  0  0  0  0
 10 33  1  0  0  0  0
 11 34  1  0  0  0  0
 11 35  1  0  0  0  0
 11 36  1  0  0  0  0
 12 13  1  0  0  0  0
 12 37  1  0  0  0  0
 13 14  2  0  0  0  0
 13 15  1  0  0  0  0
 15 16  1  0  0  0  0
 15 38  1  0  0  0  0
 16 20  1  0  0  0  0
 16 17  1  0  0  0  0
 16 39  1  0  0  0  0
 17 18  1  0  0  0  0
 17 40  1  0  0  0  0
 17 41  1  0  0  0  0
 18 19  1  0  0  0  0
 18 42  1  0  0  0  0
 18 43  1  0  0  0  0
 19 20  1  0  0  0  0
 19 44  1  0  0  0  0
 19 45  1  0  0  0  0
 20 21  1  0  0  0  0
 20 46  1  0  0  0  0
 21 47  1  0  0  0  0
 21 48  1  0  0  0  0
 21 49  1  0  0  0  0
M  END
> <s_m_source_file>
AV-unprocessed.smi

> <i_m_source_file_index>
671

> <i_lp_mmshare_version>
43012

> <i_f3d_flags>
0

> <s_epik_input>
W0NIM11jMW5uKFtDSDNdKWMoW0NIM10pYzFbQ0gyXVtDQEhdKFtDSDNdKVtOSF1DKD1PKVtOSF1bQ0BASF0yW0NIMl1bQ0gyXVtDSDJdW0NASF0yW0NIM10=

> <s_epik_cmdline>
J2VwaWtfcHl0aG9uJywgJy1waCcsICc3LjAnLCAnLXRuJywgJzgnLCAnLW1hJywgJzIwMCcsICctbWV0YWxfYmluZGluZycsICctaW1hZScsICc8aW5maWxlLm1hZT4nLCAnLW9tYWUnLCAnPG91dGZpbGUubWFlPic=

> <r_lp_tautomer_probability>
1

> <r_epik_Ionization_Penalty>
0.0126855

> <r_epik_Ionization_Penalty_Charging>
0

> <r_epik_Ionization_Penalty_Neutral>
0.0126855

> <r_epik_State_Penalty>
0.00977547

> <r_epik_Charging_Adjusted_Penalty>
0.00977547

> <i_epik_Tot_Q>
0

> <i_epik_Tot_abs_Q>
0

> <r_epik_Metal_State_Penalty>
0.00957132

> <b_epik_Metal_Only>
0

> <s_lp_Force_Field>
OPLS_2005

> <r_lp_Energy>
22.0213

> <b_lp_Chiralities_Consistent>
1

> <s_lp_Variant>
AV-unprocessed.smi:671-8

> <Gold.Version>
5.8.1

> <Gold.Id.Protein>
6NUR|6NUR_protein|mol2

> <Gold.PLP.Fitness>
40.9954

> <Gold.PLP.PLP>
-34.4695

> <Gold.PLP.part.hbond>
-3.0000

> <Gold.PLP.part.metal>
0.0000

> <Gold.PLP.part.buried>
-1.3533

> <Gold.PLP.part.nonpolar>
-30.7157

> <Gold.PLP.part.repulsive>
0.2112

> <Gold.PLP.ligand.clash>
0.0000

> <Gold.PLP.ligand.torsion>
1.2389

> <Gold.PLP.Chemscore.Hbond>
2.9920

> <Gold.PLP.Chemscore.CHOScore>
0.0000

> <Gold.PLP.Chemscore.Metal>
0.0000

> <Gold.Chemscore.Hbonds>
donor molecule, donor type, donor heavy atom, donor atom, acceptor molecule, acceptor atom, score
      L1  H    12    37       P1  7948  1.00
      L1  H    15    38       P1  7948  1.00
      P1  H  7997  8010       L1     3  0.93

> <Gold.PLP.Chemscore.Internal.Correction>
0.0277

> <Gold.Rescore>
     Score         DG    S(hbond)    S(metal)    S(lipo)     H(rot)  DE(clash)    DE(int)     intcor
     18.64     -20.99       2.83        0.00      83.56       1.45       0.16       2.18       ----

> <Gold.Chemscore.Fitness>
18.6440

> <Gold.Chemscore.DG>
-20.9902

> <Gold.Chemscore.ZeroCoef>
-5.4800

> <Gold.Chemscore.Hbond>
2.8279

> <Gold.Chemscore.Metal>
0.0000

> <Gold.Chemscore.Lipo>
83.5647

> <Gold.Chemscore.Internal_Hbond>
0.0000

> <Gold.Chemscore.DEClash>
0.1622

> <Gold.Chemscore.DEInternal>
2.1841

> <Gold.Chemscore.Rot>
1.4499

> <Gold.Chemscore.Internal.Correction>
   9.000000E+99

> <Gold.Chemscore.Hbonds>
donor molecule, donor type, donor heavy atom, donor atom, acceptor molecule, acceptor atom, score
      L1  H    12    37       P1  7948  0.95
      L1  H    15    38       P1  7948  0.98
      P1  H  7997  8010       L1     3  0.83

> <Gold.Chemscore.Hbond.Weighted>
-9.4450

> <Gold.Chemscore.Metal.Weighted>
-0.0000

> <Gold.Chemscore.Lipo.Weighted>
-9.7771

> <Gold.Chemscore.Internal_Hbond.Weighted>
0.0000

> <Gold.Chemscore.DEClash.Weighted>
0.1622

> <Gold.Chemscore.DEInternal.Weighted>
2.1841

> <Gold.Chemscore.Rot.Weighted>
3.7118

> <Gold.Chemscore.Internal.Correction.Weighted>
   9.000000E+99

> <Gold.Protein.RotatedTorsions>
[ 6907 6896 6895 6894 ] final -128.10 input  -60.11 | X-H torsion
[ 7974 7965 7964 7962 ] final  -99.05 input  175.53 | X-H torsion
[ 8008 7997 7996 7995 ] final   55.23 input   59.86 | X-H torsion
[ 10167 10162 10161 10158 ] final -110.56 input  -65.29 | X-H torsion
[ 10718 10713 10712 10709 ] final    6.92 input   66.30 | X-H torsion
[ 10763 10752 10751 10750 ] final -100.32 input  -60.55 | X-H torsion
[ 11005 11000 10999 10996 ] final  -33.97 input  -57.11 | X-H torsion

> <Gold.Protein.ActiveResidues>
 VAL166  LYS551  ARG553  GLY616  TRP617  ASP618  TYR619  PRO620  LYS621  CYS622 
 ASP623  PHE694  ASN695  SER759  ASP760  ASP761  ALA762  ILE779  LEU786  VAL792 
 PHE793  MET794  SER795  GLU796  ALA797  LYS798  CYS799  TRP800  GLU811  SER814 

> <Gold.Protein.RotatedAtoms>
  150.9143  133.6959  159.2846 H   0  0  0  0  0  0  0  0  0  0  0  0  # atno 6907 bound_to 6896
  151.4435  135.1021  159.9686 H   0  0  0  0  0  0  0  0  0  0  0  0  # atno 6908 bound_to 6896
  152.4946  133.8546  159.7274 H   0  0  0  0  0  0  0  0  0  0  0  0  # atno 6909 bound_to 6896
  145.3127  140.9404  143.2760 H   0  0  0  0  0  0  0  0  0  0  0  0  # atno 7974 bound_to 7965
  155.4978  140.3473  155.4366 H   0  0  0  0  0  0  0  0  0  0  0  0  # atno 8008 bound_to 7997
  156.0934  140.1416  156.9590 H   0  0  0  0  0  0  0  0  0  0  0  0  # atno 8009 bound_to 7997
  154.4649  140.0921  156.6969 H   0  0  0  0  0  0  0  0  0  0  0  0  # atno 8010 bound_to 7997
  140.1432  143.4262  152.1547 H   0  0  0  0  0  0  0  0  0  0  0  0  # atno 10167 bound_to 10162
  156.9293  130.5820  149.5649 H   0  0  0  0  0  0  0  0  0  0  0  0  # atno 10718 bound_to 10713
  154.7569  135.4939  153.9392 H   0  0  0  0  0  0  0  0  0  0  0  0  # atno 10763 bound_to 10752
  153.1206  135.6731  153.9349 H   0  0  0  0  0  0  0  0  0  0  0  0  # atno 10764 bound_to 10752
  153.9082  135.3102  155.3427 H   0  0  0  0  0  0  0  0  0  0  0  0  # atno 10765 bound_to 10752
  140.9679  133.7127  156.1475 H   0  0  0  0  0  0  0  0  0  0  0  0  # atno 11005 bound_to 11000
  144.9003  139.4658  143.6636 LP  0  0  0  0  0  0  0  0  0  0  0  0  # atno 17320 bound_to 7965
  146.3112  139.7753  142.9018 LP  0  0  0  0  0  0  0  0  0  0  0  0  # atno 17321 bound_to 7965
  139.5462  144.7300  151.4577 LP  0  0  0  0  0  0  0  0  0  0  0  0  # atno 17342 bound_to 10162
  140.6748  143.8214  150.7044 LP  0  0  0  0  0  0  0  0  0  0  0  0  # atno 17343 bound_to 10162
  156.0454  130.5531  150.8869 LP  0  0  0  0  0  0  0  0  0  0  0  0  # atno 17370 bound_to 10713
  157.5857  131.0945  150.9200 LP  0  0  0  0  0  0  0  0  0  0  0  0  # atno 17371 bound_to 10713
  140.7373  134.4189  157.5559 LP  0  0  0  0  0  0  0  0  0  0  0  0  # atno 17394 bound_to 11000
  139.8901  134.8813  156.2387 LP  0  0  0  0  0  0  0  0  0  0  0  0  # atno 17395 bound_to 11000

$$$$
