AV-unprocessed.smi:203|AV-procd|sdf|1593|dock2
  -GOLD-   2262019493D 1   1.00000     0.00000
 Structure written by MMmdl.
 57 61  0  0  0  0  0  0  0  0  1 V2000
  148.4824  139.8200  154.0637 O   0  0  0  0  0  0  0  0  0  0  0  0
  148.8587  140.2722  155.1425 C   0  0  0  0  0  0  0  0  0  0  0  0
  150.1988  140.9608  155.3415 C   0  0  0  0  0  0  0  0  0  0  0  0
  150.0488  141.5888  156.7395 C   0  0  2  0  0  0  0  0  0  0  0  0
  151.3514  141.7350  157.5864 C   0  0  1  0  0  0  0  0  0  0  0  0
  151.2204  142.7714  158.7344 C   0  0  0  0  0  0  0  0  0  0  0  0
  152.5164  142.8883  159.5479 C   0  0  0  0  0  0  0  0  0  0  0  0
  152.9248  141.5114  160.0802 C   0  0  0  0  0  0  0  0  0  0  0  0
  153.0552  140.5121  158.9240 C   0  0  0  0  0  0  0  0  0  0  0  0
  151.8274  140.4496  158.1312 N   0  0  0  0  0  0  0  0  0  0  0  0
  151.8880  139.4045  157.2748 C   0  0  0  0  0  0  0  0  0  0  0  0
  152.6728  139.5489  156.1788 N   0  0  0  0  0  0  0  0  0  0  0  0
  152.7731  138.5524  155.2938 C   0  0  0  0  0  0  0  0  0  0  0  0
  152.1802  137.3567  155.3116 N   0  0  0  0  0  0  0  0  0  0  0  0
  151.3821  137.2148  156.4087 C   0  0  0  0  0  0  0  0  0  0  0  0
  151.1770  138.1812  157.4323 C   0  0  0  0  0  0  0  0  0  0  0  0
  150.2912  137.6862  158.3820 N   0  0  0  0  0  0  0  0  0  0  0  0
  149.9841  136.4968  157.9409 C   0  0  0  0  0  0  0  0  0  0  0  0
  150.5894  136.1362  156.7589 N   0  0  0  0  0  0  0  0  0  0  0  0
  150.4085  134.8896  156.0380 C   0  0  0  0  0  0  0  0  0  0  0  0
  149.4637  133.9081  156.7634 C   0  0  2  0  0  0  0  0  0  0  0  0
  150.1509  133.4291  157.9020 O   0  0  0  0  0  0  0  0  0  0  0  0
  149.0118  132.7073  155.9020 C   0  0  1  0  0  0  0  0  0  0  0  0
  148.6482  133.0544  154.4576 C   0  0  0  0  0  0  0  0  0  0  0  0
  148.7859  131.7247  153.7348 C   0  0  0  0  0  0  0  0  0  0  0  0
  149.7004  130.9046  154.6490 C   0  0  0  0  0  0  0  0  0  0  0  0
  150.0780  131.7928  155.6916 O   0  0  0  0  0  0  0  0  0  0  0  0
  148.8877  140.8199  157.4013 C   0  0  0  0  0  0  0  0  0  0  0  0
  148.1711  140.2368  156.2838 N   0  0  0  0  0  0  0  0  0  0  0  0
  150.9891  140.2141  155.2892 H   0  0  0  0  0  0  0  0  0  0  0  0
  150.3817  141.7111  154.5716 H   0  0  0  0  0  0  0  0  0  0  0  0
  149.6434  142.5879  156.5736 H   0  0  0  0  0  0  0  0  0  0  0  0
  152.1296  142.1057  156.9188 H   0  0  0  0  0  0  0  0  0  0  0  0
  150.9718  143.7580  158.3485 H   0  0  0  0  0  0  0  0  0  0  0  0
  150.4128  142.4940  159.4109 H   0  0  0  0  0  0  0  0  0  0  0  0
  153.3117  143.2942  158.9214 H   0  0  0  0  0  0  0  0  0  0  0  0
  152.3803  143.5861  160.3745 H   0  0  0  0  0  0  0  0  0  0  0  0
  153.8682  141.5819  160.6223 H   0  0  0  0  0  0  0  0  0  0  0  0
  152.1799  141.1546  160.7926 H   0  0  0  0  0  0  0  0  0  0  0  0
  153.8863  140.8017  158.2789 H   0  0  0  0  0  0  0  0  0  0  0  0
  153.2936  139.5252  159.3239 H   0  0  0  0  0  0  0  0  0  0  0  0
  153.4198  138.7410  154.4497 H   0  0  0  0  0  0  0  0  0  0  0  0
  149.2957  135.8489  158.4636 H   0  0  0  0  0  0  0  0  0  0  0  0
  150.0275  135.1174  155.0414 H   0  0  0  0  0  0  0  0  0  0  0  0
  151.3901  134.4352  155.8974 H   0  0  0  0  0  0  0  0  0  0  0  0
  148.5833  134.4466  157.1163 H   0  0  0  0  0  0  0  0  0  0  0  0
  149.9879  132.5018  157.9829 H   0  0  0  0  0  0  0  0  0  0  0  0
  148.1788  132.1870  156.3793 H   0  0  0  0  0  0  0  0  0  0  0  0
  147.6518  133.4866  154.3619 H   0  0  0  0  0  0  0  0  0  0  0  0
  149.3667  133.7680  154.0517 H   0  0  0  0  0  0  0  0  0  0  0  0
  147.8173  131.2344  153.6313 H   0  0  0  0  0  0  0  0  0  0  0  0
  149.2070  131.8537  152.7374 H   0  0  0  0  0  0  0  0  0  0  0  0
  149.1624  130.0556  155.0735 H   0  0  0  0  0  0  0  0  0  0  0  0
  150.5809  130.5258  154.1294 H   0  0  0  0  0  0  0  0  0  0  0  0
  149.2167  140.0126  158.0523 H   0  0  0  0  0  0  0  0  0  0  0  0
  148.2424  141.4794  157.9826 H   0  0  0  0  0  0  0  0  0  0  0  0
  147.2541  139.8253  156.3796 H   0  0  0  0  0  0  0  0  0  0  0  0
  1  2  2  0  0  0  0
  2 29  1  0  0  0  0
  2  3  1  0  0  0  0
  3  4  1  0  0  0  0
  3 30  1  0  0  0  0
  3 31  1  0  0  0  0
  4  5  1  0  0  0  0
  4 28  1  0  0  0  0
  4 32  1  0  0  0  0
  5 10  1  0  0  0  0
  5  6  1  0  0  0  0
  5 33  1  0  0  0  0
  6  7  1  0  0  0  0
  6 34  1  0  0  0  0
  6 35  1  0  0  0  0
  7  8  1  0  0  0  0
  7 36  1  0  0  0  0
  7 37  1  0  0  0  0
  8  9  1  0  0  0  0
  8 38  1  0  0  0  0
  8 39  1  0  0  0  0
  9 10  1  0  0  0  0
  9 40  1  0  0  0  0
  9 41  1  0  0  0  0
 10 11  1  0  0  0  0
 11 16  1  0  0  0  0
 11 12  2  0  0  0  0
 12 13  1  0  0  0  0
 13 14  2  0  0  0  0
 13 42  1  0  0  0  0
 14 15  1  0  0  0  0
 15 19  1  0  0  0  0
 15 16  2  0  0  0  0
 16 17  1  0  0  0  0
 17 18  2  0  0  0  0
 18 19  1  0  0  0  0
 18 43  1  0  0  0  0
 19 20  1  0  0  0  0
 20 21  1  0  0  0  0
 20 44  1  0  0  0  0
 20 45  1  0  0  0  0
 21 22  1  0  0  0  0
 21 23  1  0  0  0  0
 21 46  1  0  0  0  0
 22 47  1  0  0  0  0
 23 27  1  0  0  0  0
 23 24  1  0  0  0  0
 23 48  1  0  0  0  0
 24 25  1  0  0  0  0
 24 49  1  0  0  0  0
 24 50  1  0  0  0  0
 25 26  1  0  0  0  0
 25 51  1  0  0  0  0
 25 52  1  0  0  0  0
 26 27  1  0  0  0  0
 26 53  1  0  0  0  0
 26 54  1  0  0  0  0
 28 29  1  0  0  0  0
 28 55  1  0  0  0  0
 28 56  1  0  0  0  0
 29 57  1  0  0  0  0
M  END
> <s_m_source_file>
AV-unprocessed.smi

> <i_m_source_file_index>
203

> <i_lp_mmshare_version>
43012

> <i_f3d_flags>
0

> <s_epik_input>
Tz1DMVtDSDJdW0NASF0oW0NIMl1bTkhdMSlbQ0BASF0yW0NIMl1bQ0gyXVtDSDJdW0NIMl1OMmMobltjSF1uMyljKGMzNCluW2NIXW40W0NIMl1bQ0BIXShbT0hdKVtDQEBIXTVbQ0gyXVtDSDJdW0NIMl1PNQ==

> <s_epik_cmdline>
J2VwaWtfcHl0aG9uJywgJy1waCcsICc3LjAnLCAnLXRuJywgJzgnLCAnLW1hJywgJzIwMCcsICctbWV0YWxfYmluZGluZycsICctaW1hZScsICc8aW5maWxlLm1hZT4nLCAnLW9tYWUnLCAnPG91dGZpbGUubWFlPic=

> <r_lp_tautomer_probability>
1

> <r_epik_Ionization_Penalty>
0.00175146

> <r_epik_Ionization_Penalty_Charging>
0

> <r_epik_Ionization_Penalty_Neutral>
0.00175146

> <r_epik_State_Penalty>
0.00109045

> <r_epik_Charging_Adjusted_Penalty>
0.00109045

> <i_epik_Tot_Q>
0

> <i_epik_Tot_abs_Q>
0

> <r_epik_Metal_State_Penalty>
-0

> <b_epik_Metal_Only>
0

> <s_lp_Force_Field>
OPLS_2005

> <r_lp_Energy>
55.5443

> <b_lp_Chiralities_Consistent>
1

> <s_lp_Variant>
AV-unprocessed.smi:203-12

> <Gold.Version>
5.8.1

> <Gold.Id.Protein>
6NUR|6NUR_protein|mol2

> <Gold.PLP.Fitness>
49.2312

> <Gold.PLP.PLP>
-42.0330

> <Gold.PLP.part.hbond>
-3.0000

> <Gold.PLP.part.metal>
0.0000

> <Gold.PLP.part.buried>
-6.8529

> <Gold.PLP.part.nonpolar>
-33.0932

> <Gold.PLP.part.repulsive>
0.3894

> <Gold.PLP.ligand.clash>
0.0000

> <Gold.PLP.ligand.torsion>
0.6891

> <Gold.PLP.Chemscore.Hbond>
2.7454

> <Gold.PLP.Chemscore.CHOScore>
0.0000

> <Gold.PLP.Chemscore.Metal>
0.0000

> <Gold.Chemscore.Hbonds>
donor molecule, donor type, donor heavy atom, donor atom, acceptor molecule, acceptor atom, score
      P1  H  6896  6908       L1    22  1.00
      P1  H  7997  8010       L1    12  1.00
      P1  H 10752 10764       L1    14  0.78

> <Gold.PLP.Chemscore.Internal.Correction>
0.3402

> <Gold.Rescore>
     Score         DG    S(hbond)    S(metal)    S(lipo)     H(rot)  DE(clash)    DE(int)     intcor
     16.64     -17.56       2.66        0.00      86.70       2.72       0.07       0.84       ----

> <Gold.Chemscore.Fitness>
16.6421

> <Gold.Chemscore.DG>
-17.5575

> <Gold.Chemscore.ZeroCoef>
-5.4800

> <Gold.Chemscore.Hbond>
2.6614

> <Gold.Chemscore.Metal>
0.0000

> <Gold.Chemscore.Lipo>
86.7024

> <Gold.Chemscore.Internal_Hbond>
0.0000

> <Gold.Chemscore.DEClash>
0.0736

> <Gold.Chemscore.DEInternal>
0.8418

> <Gold.Chemscore.Rot>
2.7171

> <Gold.Chemscore.Internal.Correction>
   9.000000E+99

> <Gold.Chemscore.Hbonds>
donor molecule, donor type, donor heavy atom, donor atom, acceptor molecule, acceptor atom, score
      P1  H  6896  6908       L1    22  0.24
      P1  H  7997  8010       L1    12  0.34
      P1  H 10752 10764       L1    14  0.63

> <Gold.Chemscore.Hbond.Weighted>
-8.8891

> <Gold.Chemscore.Metal.Weighted>
-0.0000

> <Gold.Chemscore.Lipo.Weighted>
-10.1442

> <Gold.Chemscore.Internal_Hbond.Weighted>
0.0000

> <Gold.Chemscore.DEClash.Weighted>
0.0736

> <Gold.Chemscore.DEInternal.Weighted>
0.8418

> <Gold.Chemscore.Rot.Weighted>
6.9557

> <Gold.Chemscore.Internal.Correction.Weighted>
   9.000000E+99

> <Gold.Protein.RotatedTorsions>
[ 6907 6896 6895 6894 ] final  111.97 input  -60.11 | X-H torsion
[ 7974 7965 7964 7962 ] final  138.00 input  175.53 | X-H torsion
[ 8008 7997 7996 7995 ] final   80.36 input   59.86 | X-H torsion
[ 10167 10162 10161 10158 ] final   96.11 input  -65.29 | X-H torsion
[ 10718 10713 10712 10709 ] final  -22.11 input   66.30 | X-H torsion
[ 10763 10752 10751 10750 ] final  -55.91 input  -60.55 | X-H torsion
[ 11005 11000 10999 10996 ] final   19.91 input  -57.11 | X-H torsion

> <Gold.Protein.ActiveResidues>
 VAL166  LYS551  ARG553  GLY616  TRP617  ASP618  TYR619  PRO620  LYS621  CYS622 
 ASP623  PHE694  ASN695  SER759  ASP760  ASP761  ALA762  ILE779  LEU786  VAL792 
 PHE793  MET794  SER795  GLU796  ALA797  LYS798  CYS799  TRP800  GLU811  SER814 

> <Gold.Protein.RotatedAtoms>
  152.4941  133.8582  159.7236 H   0  0  0  0  0  0  0  0  0  0  0  0  # atno 6907 bound_to 6896
  150.9101  133.6999  159.2863 H   0  0  0  0  0  0  0  0  0  0  0  0  # atno 6908 bound_to 6896
  151.4412  135.1024  159.9723 H   0  0  0  0  0  0  0  0  0  0  0  0  # atno 6909 bound_to 6896
  144.9414  139.4926  143.5570 H   0  0  0  0  0  0  0  0  0  0  0  0  # atno 7974 bound_to 7965
  155.8825  140.3443  155.5897 H   0  0  0  0  0  0  0  0  0  0  0  0  # atno 8008 bound_to 7997
  155.7704  140.0844  157.2130 H   0  0  0  0  0  0  0  0  0  0  0  0  # atno 8009 bound_to 7997
  154.4026  140.1519  156.2923 H   0  0  0  0  0  0  0  0  0  0  0  0  # atno 8010 bound_to 7997
  139.7925  144.6846  150.9873 H   0  0  0  0  0  0  0  0  0  0  0  0  # atno 10167 bound_to 10162
  156.5090  130.4605  149.6659 H   0  0  0  0  0  0  0  0  0  0  0  0  # atno 10718 bound_to 10713
  154.1983  135.6415  153.5079 H   0  0  0  0  0  0  0  0  0  0  0  0  # atno 10763 bound_to 10752
  153.0018  135.5445  154.6342 H   0  0  0  0  0  0  0  0  0  0  0  0  # atno 10764 bound_to 10752
  154.5749  135.2920  155.0764 H   0  0  0  0  0  0  0  0  0  0  0  0  # atno 10765 bound_to 10752
  140.4084  134.1644  155.7666 H   0  0  0  0  0  0  0  0  0  0  0  0  # atno 11005 bound_to 11000
  146.3287  139.8436  142.8886 LP  0  0  0  0  0  0  0  0  0  0  0  0  # atno 17320 bound_to 7965
  145.2985  141.0187  143.3622 LP  0  0  0  0  0  0  0  0  0  0  0  0  # atno 17321 bound_to 7965
  140.7820  143.4366  151.0614 LP  0  0  0  0  0  0  0  0  0  0  0  0  # atno 17342 bound_to 10162
  139.8042  143.8041  152.3166 LP  0  0  0  0  0  0  0  0  0  0  0  0  # atno 17343 bound_to 10162
  156.3259  130.7305  151.2226 LP  0  0  0  0  0  0  0  0  0  0  0  0  # atno 17370 bound_to 10713
  157.7453  131.0443  150.4786 LP  0  0  0  0  0  0  0  0  0  0  0  0  # atno 17371 bound_to 10713
  141.1830  133.8373  157.1189 LP  0  0  0  0  0  0  0  0  0  0  0  0  # atno 17394 bound_to 11000
  140.0285  134.9912  157.0734 LP  0  0  0  0  0  0  0  0  0  0  0  0  # atno 17395 bound_to 11000

$$$$
