AV-unprocessed.smi:1699|AV-procd|sdf|6815|dock6
  -GOLD-   22720 7593D 1   1.00000     0.00000
 Structure written by MMmdl.
 37 38  0  0  0  0  0  0  0  0  1 V2000
  147.8004  133.0065  152.3423 C   0  0  0  0  0  0  0  0  0  0  0  0
  146.3766  132.9766  151.8106 C   0  0  0  0  0  0  0  0  0  0  0  0
  145.7644  131.7326  151.5474 C   0  0  0  0  0  0  0  0  0  0  0  0
  144.4476  131.7064  151.0573 C   0  0  0  0  0  0  0  0  0  0  0  0
  143.7951  132.9335  150.8486 C   0  0  0  0  0  0  0  0  0  0  0  0
  144.3727  134.1265  151.0962 N   0  0  0  0  0  0  0  0  0  0  0  0
  145.6432  134.1697  151.5707 C   0  0  0  0  0  0  0  0  0  0  0  0
  146.3148  135.3915  151.8586 N   0  0  0  0  0  0  0  0  0  0  0  0
  145.7848  136.5801  152.1972 C   0  0  0  0  0  0  0  0  0  0  0  0
  144.5817  136.8235  152.2910 O   0  0  0  0  0  0  0  0  0  0  0  0
  146.7466  137.4864  152.4262 N   0  0  0  0  0  0  0  0  0  0  0  0
  146.5373  138.8758  152.8299 C   0  0  2  0  0  0  0  0  0  0  0  0
  146.7910  139.7956  151.6262 C   0  0  0  0  0  0  0  0  0  0  0  0
  147.4509  139.2173  154.0232 C   0  0  2  0  0  0  0  0  0  0  0  0
  147.6569  140.7161  154.2581 C   0  0  0  0  0  0  0  0  0  0  0  0
  148.9848  140.7354  154.9782 C   0  0  0  0  0  0  0  0  0  0  0  0
  149.7467  139.6358  154.2464 C   0  0  0  0  0  0  0  0  0  0  0  0
  148.7635  138.6974  153.8174 O   0  0  0  0  0  0  0  0  0  0  0  0
  148.1926  131.9991  152.4851 H   0  0  0  0  0  0  0  0  0  0  0  0
  147.8393  133.5195  153.3036 H   0  0  0  0  0  0  0  0  0  0  0  0
  148.4567  133.5263  151.6437 H   0  0  0  0  0  0  0  0  0  0  0  0
  146.2948  130.8074  151.7184 H   0  0  0  0  0  0  0  0  0  0  0  0
  143.9510  130.7707  150.8471 H   0  0  0  0  0  0  0  0  0  0  0  0
  142.7829  132.9589  150.4733 H   0  0  0  0  0  0  0  0  0  0  0  0
  147.3218  135.3501  151.8119 H   0  0  0  0  0  0  0  0  0  0  0  0
  147.7059  137.1908  152.3206 H   0  0  0  0  0  0  0  0  0  0  0  0
  145.5043  139.0201  153.1515 H   0  0  0  0  0  0  0  0  0  0  0  0
  146.6240  140.8409  151.8874 H   0  0  0  0  0  0  0  0  0  0  0  0
  146.1215  139.5546  150.7999 H   0  0  0  0  0  0  0  0  0  0  0  0
  147.8156  139.7036  151.2642 H   0  0  0  0  0  0  0  0  0  0  0  0
  147.0592  138.7683  154.9376 H   0  0  0  0  0  0  0  0  0  0  0  0
  147.7410  141.2471  153.3086 H   0  0  0  0  0  0  0  0  0  0  0  0
  146.8520  141.1725  154.8348 H   0  0  0  0  0  0  0  0  0  0  0  0
  149.4850  141.7033  154.9345 H   0  0  0  0  0  0  0  0  0  0  0  0
  148.8466  140.4664  156.0263 H   0  0  0  0  0  0  0  0  0  0  0  0
  150.2454  140.0400  153.3647 H   0  0  0  0  0  0  0  0  0  0  0  0
  150.5015  139.1641  154.8760 H   0  0  0  0  0  0  0  0  0  0  0  0
  1  2  1  0  0  0  0
  1 19  1  0  0  0  0
  1 20  1  0  0  0  0
  1 21  1  0  0  0  0
  2  7  1  0  0  0  0
  2  3  2  0  0  0  0
  3  4  1  0  0  0  0
  3 22  1  0  0  0  0
  4  5  2  0  0  0  0
  4 23  1  0  0  0  0
  5  6  1  0  0  0  0
  5 24  1  0  0  0  0
  6  7  2  0  0  0  0
  7  8  1  0  0  0  0
  8  9  1  0  0  0  0
  8 25  1  0  0  0  0
  9 10  2  0  0  0  0
  9 11  1  0  0  0  0
 11 12  1  0  0  0  0
 11 26  1  0  0  0  0
 12 13  1  0  0  0  0
 12 14  1  0  0  0  0
 12 27  1  0  0  0  0
 13 28  1  0  0  0  0
 13 29  1  0  0  0  0
 13 30  1  0  0  0  0
 14 18  1  0  0  0  0
 14 15  1  0  0  0  0
 14 31  1  0  0  0  0
 15 16  1  0  0  0  0
 15 32  1  0  0  0  0
 15 33  1  0  0  0  0
 16 17  1  0  0  0  0
 16 34  1  0  0  0  0
 16 35  1  0  0  0  0
 17 18  1  0  0  0  0
 17 36  1  0  0  0  0
 17 37  1  0  0  0  0
M  END
> <s_m_source_file>
AV-unprocessed.smi

> <i_m_source_file_index>
1699

> <i_lp_mmshare_version>
43012

> <i_f3d_flags>
0

> <s_epik_input>
W0NIM11jMVtjSF1bY0hdW2NIXW5jMVtOSF1DKD1PKVtOSF1bQ0BIXShbQ0gzXSlbQ0BASF0yW0NIMl1bQ0gyXVtDSDJdTzI=

> <s_epik_cmdline>
J2VwaWtfcHl0aG9uJywgJy1waCcsICc3LjAnLCAnLXRuJywgJzgnLCAnLW1hJywgJzIwMCcsICctbWV0YWxfYmluZGluZycsICctaW1hZScsICc8aW5maWxlLm1hZT4nLCAnLW9tYWUnLCAnPG91dGZpbGUubWFlPic=

> <r_lp_tautomer_probability>
1

> <r_epik_Ionization_Penalty>
5.52788e-05

> <r_epik_Ionization_Penalty_Charging>
0

> <r_epik_Ionization_Penalty_Neutral>
5.52788e-05

> <r_epik_State_Penalty>
-0

> <r_epik_Charging_Adjusted_Penalty>
0

> <i_epik_Tot_Q>
0

> <i_epik_Tot_abs_Q>
0

> <r_epik_Metal_State_Penalty>
-0

> <b_epik_Metal_Only>
0

> <s_lp_Force_Field>
OPLS_2005

> <r_lp_Energy>
20.4349

> <b_lp_Chiralities_Consistent>
1

> <s_lp_Variant>
AV-unprocessed.smi:1699-1

> <Gold.Version>
5.8.1

> <Gold.Id.Protein>
6NUR|6NUR_protein|mol2

> <Gold.PLP.Fitness>
38.2633

> <Gold.PLP.PLP>
-30.4938

> <Gold.PLP.part.hbond>
-2.0000

> <Gold.PLP.part.metal>
0.0000

> <Gold.PLP.part.buried>
-1.1888

> <Gold.PLP.part.nonpolar>
-29.1117

> <Gold.PLP.part.repulsive>
1.3366

> <Gold.PLP.ligand.clash>
0.0000

> <Gold.PLP.ligand.torsion>
0.6211

> <Gold.PLP.Chemscore.Hbond>
2.0000

> <Gold.PLP.Chemscore.CHOScore>
1.0000

> <Gold.PLP.Chemscore.Metal>
0.0000

> <Gold.Chemscore.Hbonds>
donor molecule, donor type, donor heavy atom, donor atom, acceptor molecule, acceptor atom, score
      L1  H     8    25       P1  7948  1.00
      L1  H    11    26       P1  7948  1.00
      L1  C     5    24       P1 10186  1.00

> <Gold.PLP.Chemscore.Internal.Correction>
0.0118

> <Gold.Rescore>
     Score         DG    S(hbond)    S(metal)    S(lipo)     H(rot)  DE(clash)    DE(int)     intcor
     15.09     -18.06       1.96        0.00      78.40       1.22       1.35       1.62       ----

> <Gold.Chemscore.Fitness>
15.0931

> <Gold.Chemscore.DG>
-18.0619

> <Gold.Chemscore.ZeroCoef>
-5.4800

> <Gold.Chemscore.Hbond>
1.9558

> <Gold.Chemscore.Metal>
0.0000

> <Gold.Chemscore.Lipo>
78.3993

> <Gold.Chemscore.Internal_Hbond>
0.0000

> <Gold.Chemscore.DEClash>
1.3537

> <Gold.Chemscore.DEInternal>
1.6151

> <Gold.Chemscore.Rot>
1.2200

> <Gold.Chemscore.Internal.Correction>
   9.000000E+99

> <Gold.Chemscore.Hbonds>
donor molecule, donor type, donor heavy atom, donor atom, acceptor molecule, acceptor atom, score
      L1  H     8    25       P1  7948  0.93
      L1  H    11    26       P1  7948  0.98

> <Gold.Chemscore.Hbond.Weighted>
-6.5323

> <Gold.Chemscore.Metal.Weighted>
-0.0000

> <Gold.Chemscore.Lipo.Weighted>
-9.1727

> <Gold.Chemscore.Internal_Hbond.Weighted>
0.0000

> <Gold.Chemscore.DEClash.Weighted>
1.3537

> <Gold.Chemscore.DEInternal.Weighted>
1.6151

> <Gold.Chemscore.Rot.Weighted>
3.1232

> <Gold.Chemscore.Internal.Correction.Weighted>
   9.000000E+99

> <Gold.Protein.RotatedTorsions>
[ 6907 6896 6895 6894 ] final -154.79 input  -60.11 | X-H torsion
[ 7974 7965 7964 7962 ] final  144.39 input  175.53 | X-H torsion
[ 8008 7997 7996 7995 ] final    3.68 input   59.86 | X-H torsion
[ 10167 10162 10161 10158 ] final  -17.49 input  -65.29 | X-H torsion
[ 10718 10713 10712 10709 ] final  122.30 input   66.30 | X-H torsion
[ 10763 10752 10751 10750 ] final  154.93 input  -60.55 | X-H torsion
[ 11005 11000 10999 10996 ] final   34.08 input  -57.11 | X-H torsion

> <Gold.Protein.ActiveResidues>
 VAL166  LYS551  ARG553  GLY616  TRP617  ASP618  TYR619  PRO620  LYS621  CYS622 
 ASP623  PHE694  ASN695  SER759  ASP760  ASP761  ALA762  ILE779  LEU786  VAL792 
 PHE793  MET794  SER795  GLU796  ALA797  LYS798  CYS799  TRP800  GLU811  SER814 

> <Gold.Protein.RotatedAtoms>
  151.2628  133.4293  159.2616 H   0  0  0  0  0  0  0  0  0  0  0  0  # atno 6907 bound_to 6896
  151.0515  134.9676  159.8224 H   0  0  0  0  0  0  0  0  0  0  0  0  # atno 6908 bound_to 6896
  152.5383  134.2582  159.8978 H   0  0  0  0  0  0  0  0  0  0  0  0  # atno 6909 bound_to 6896
  144.8840  139.5657  143.5829 H   0  0  0  0  0  0  0  0  0  0  0  0  # atno 7974 bound_to 7965
  154.7066  140.2684  155.6668 H   0  0  0  0  0  0  0  0  0  0  0  0  # atno 8008 bound_to 7997
  156.2782  140.2761  156.1619 H   0  0  0  0  0  0  0  0  0  0  0  0  # atno 8009 bound_to 7997
  155.0691  140.0372  157.2592 H   0  0  0  0  0  0  0  0  0  0  0  0  # atno 8010 bound_to 7997
  140.7248  143.5010  150.9869 H   0  0  0  0  0  0  0  0  0  0  0  0  # atno 10167 bound_to 10162
  157.5752  131.1080  150.8291 H   0  0  0  0  0  0  0  0  0  0  0  0  # atno 10718 bound_to 10713
  154.1602  135.2810  155.3111 H   0  0  0  0  0  0  0  0  0  0  0  0  # atno 10763 bound_to 10752
  154.6152  135.5485  153.7519 H   0  0  0  0  0  0  0  0  0  0  0  0  # atno 10764 bound_to 10752
  153.0194  135.6425  154.1744 H   0  0  0  0  0  0  0  0  0  0  0  0  # atno 10765 bound_to 10752
  140.2565  134.3242  155.7872 H   0  0  0  0  0  0  0  0  0  0  0  0  # atno 11005 bound_to 11000
  146.3012  139.7434  142.9089 LP  0  0  0  0  0  0  0  0  0  0  0  0  # atno 17320 bound_to 7965
  145.3903  141.0371  143.3128 LP  0  0  0  0  0  0  0  0  0  0  0  0  # atno 17321 bound_to 7965
  139.8720  143.7181  152.3165 LP  0  0  0  0  0  0  0  0  0  0  0  0  # atno 17342 bound_to 10162
  139.7433  144.7554  151.0619 LP  0  0  0  0  0  0  0  0  0  0  0  0  # atno 17343 bound_to 10162
  156.8752  130.5160  149.5294 LP  0  0  0  0  0  0  0  0  0  0  0  0  # atno 17370 bound_to 10713
  156.0797  130.5811  150.9540 LP  0  0  0  0  0  0  0  0  0  0  0  0  # atno 17371 bound_to 10713
  141.2195  133.7384  156.9119 LP  0  0  0  0  0  0  0  0  0  0  0  0  # atno 17394 bound_to 11000
  140.1506  134.9232  157.2588 LP  0  0  0  0  0  0  0  0  0  0  0  0  # atno 17395 bound_to 11000

$$$$
