AV-unprocessed.smi:465|AV-procd|sdf|2639|dock3
  -GOLD-   2262023 43D 1   1.00000     0.00000
 Structure written by MMmdl.
 42 44  0  0  0  0  0  0  0  0  1 V2000
  145.4471  142.9130  154.5886 C   0  0  0  0  0  0  0  0  0  0  0  0
  146.7881  142.4259  155.0973 C   0  0  0  0  0  0  0  0  0  0  0  0
  147.8096  142.0728  154.1936 C   0  0  0  0  0  0  0  0  0  0  0  0
  149.0547  141.6248  154.6755 C   0  0  0  0  0  0  0  0  0  0  0  0
  149.3006  141.5241  156.0603 C   0  0  0  0  0  0  0  0  0  0  0  0
  150.5483  141.0810  156.4441 O   0  0  0  0  0  0  0  0  0  0  0  0
  150.8158  140.9500  157.8330 C   0  0  0  0  0  0  0  0  0  0  0  0
  152.2992  140.6097  158.0179 C   0  0  0  0  0  0  0  0  0  0  0  0
  152.7535  140.9216  159.3642 N   0  0  0  0  0  0  0  0  0  0  0  0
  153.4531  140.1384  160.2250 C   0  0  0  0  0  0  0  0  0  0  0  0
  153.8976  138.7464  159.8799 C   0  0  0  0  0  0  0  0  0  0  0  0
  153.1141  137.6554  160.6273 C   0  0  0  0  0  0  0  0  0  0  0  0
  153.3797  136.3797  160.0833 O   0  0  0  0  0  0  0  0  0  0  0  0
  153.7317  140.6862  161.4090 N   0  0  0  0  0  0  0  0  0  0  0  0
  153.1557  141.9375  161.3099 C   0  0  0  0  0  0  0  0  0  0  0  0
  153.1014  142.9999  162.2406 C   0  0  0  0  0  0  0  0  0  0  0  0
  152.4430  144.2031  161.9125 C   0  0  0  0  0  0  0  0  0  0  0  0
  151.8308  144.3610  160.6522 C   0  0  0  0  0  0  0  0  0  0  0  0
  151.8739  143.3151  159.7102 C   0  0  0  0  0  0  0  0  0  0  0  0
  152.5334  142.1164  160.0423 C   0  0  0  0  0  0  0  0  0  0  0  0
  148.2673  141.8794  156.9639 C   0  0  0  0  0  0  0  0  0  0  0  0
  147.0218  142.3276  156.4828 C   0  0  0  0  0  0  0  0  0  0  0  0
  145.3346  142.7216  153.5211 H   0  0  0  0  0  0  0  0  0  0  0  0
  145.3489  143.9856  154.7564 H   0  0  0  0  0  0  0  0  0  0  0  0
  144.6345  142.4075  155.1110 H   0  0  0  0  0  0  0  0  0  0  0  0
  147.6441  142.1449  153.1287 H   0  0  0  0  0  0  0  0  0  0  0  0
  149.8312  141.3573  153.9739 H   0  0  0  0  0  0  0  0  0  0  0  0
  150.5876  141.8832  158.3507 H   0  0  0  0  0  0  0  0  0  0  0  0
  150.1962  140.1612  158.2626 H   0  0  0  0  0  0  0  0  0  0  0  0
  152.4844  139.5582  157.8019 H   0  0  0  0  0  0  0  0  0  0  0  0
  152.9030  141.1756  157.3081 H   0  0  0  0  0  0  0  0  0  0  0  0
  153.7469  138.6117  158.8083 H   0  0  0  0  0  0  0  0  0  0  0  0
  154.9696  138.6304  160.0378 H   0  0  0  0  0  0  0  0  0  0  0  0
  153.3479  137.6629  161.6924 H   0  0  0  0  0  0  0  0  0  0  0  0
  152.0439  137.8407  160.5323 H   0  0  0  0  0  0  0  0  0  0  0  0
  154.0014  136.4761  159.3782 H   0  0  0  0  0  0  0  0  0  0  0  0
  153.5659  142.8883  163.2092 H   0  0  0  0  0  0  0  0  0  0  0  0
  152.4070  145.0086  162.6313 H   0  0  0  0  0  0  0  0  0  0  0  0
  151.3278  145.2857  160.4092 H   0  0  0  0  0  0  0  0  0  0  0  0
  151.4049  143.4327  158.7447 H   0  0  0  0  0  0  0  0  0  0  0  0
  148.4049  141.8181  158.0326 H   0  0  0  0  0  0  0  0  0  0  0  0
  146.2445  142.5975  157.1827 H   0  0  0  0  0  0  0  0  0  0  0  0
  1  2  1  0  0  0  0
  1 23  1  0  0  0  0
  1 24  1  0  0  0  0
  1 25  1  0  0  0  0
  2 22  1  0  0  0  0
  2  3  2  0  0  0  0
  3  4  1  0  0  0  0
  3 26  1  0  0  0  0
  4  5  2  0  0  0  0
  4 27  1  0  0  0  0
  5  6  1  0  0  0  0
  5 21  1  0  0  0  0
  6  7  1  0  0  0  0
  7  8  1  0  0  0  0
  7 28  1  0  0  0  0
  7 29  1  0  0  0  0
  8  9  1  0  0  0  0
  8 30  1  0  0  0  0
  8 31  1  0  0  0  0
  9 20  1  0  0  0  0
  9 10  1  0  0  0  0
 10 11  1  0  0  0  0
 10 14  2  0  0  0  0
 11 12  1  0  0  0  0
 11 32  1  0  0  0  0
 11 33  1  0  0  0  0
 12 13  1  0  0  0  0
 12 34  1  0  0  0  0
 12 35  1  0  0  0  0
 13 36  1  0  0  0  0
 14 15  1  0  0  0  0
 15 20  2  0  0  0  0
 15 16  1  0  0  0  0
 16 17  2  0  0  0  0
 16 37  1  0  0  0  0
 17 18  1  0  0  0  0
 17 38  1  0  0  0  0
 18 19  2  0  0  0  0
 18 39  1  0  0  0  0
 19 20  1  0  0  0  0
 19 40  1  0  0  0  0
 21 22  2  0  0  0  0
 21 41  1  0  0  0  0
 22 42  1  0  0  0  0
M  END
> <s_m_source_file>
AV-unprocessed.smi

> <i_m_source_file_index>
465

> <i_lp_mmshare_version>
43012

> <i_f3d_flags>
0

> <s_epik_input>
W0NIM11jMVtjSF1bY0hdYyhbY0hdW2NIXTEpT1tDSDJdW0NIMl1uKGMobjIpW0NIMl1bQ0gyXVtPSF0pYyhjMjMpW2NIXVtjSF1bY0hdW2NIXTM=

> <s_epik_cmdline>
J2VwaWtfcHl0aG9uJywgJy1waCcsICc3LjAnLCAnLXRuJywgJzgnLCAnLW1hJywgJzIwMCcsICctbWV0YWxfYmluZGluZycsICctaW1hZScsICc8aW5maWxlLm1hZT4nLCAnLW9tYWUnLCAnPG91dGZpbGUubWFlPic=

> <r_lp_tautomer_probability>
1

> <r_epik_Ionization_Penalty>
0.207749

> <r_epik_Ionization_Penalty_Charging>
0

> <r_epik_Ionization_Penalty_Neutral>
0.207749

> <r_epik_State_Penalty>
0.197758

> <r_epik_Charging_Adjusted_Penalty>
0.197758

> <i_epik_Tot_Q>
0

> <i_epik_Tot_abs_Q>
0

> <r_epik_Metal_State_Penalty>
0.000234715

> <b_epik_Metal_Only>
0

> <s_lp_Force_Field>
OPLS_2005

> <r_lp_Energy>
16.7212

> <b_lp_Chiralities_Consistent>
1

> <s_lp_Variant>
AV-unprocessed.smi:465-1

> <Gold.Version>
5.8.1

> <Gold.Id.Protein>
6NUR|6NUR_protein|mol2

> <Gold.PLP.Fitness>
51.8780

> <Gold.PLP.PLP>
-49.5966

> <Gold.PLP.part.hbond>
-1.0000

> <Gold.PLP.part.metal>
0.0000

> <Gold.PLP.part.buried>
-5.1436

> <Gold.PLP.part.nonpolar>
-41.6462

> <Gold.PLP.part.repulsive>
0.0333

> <Gold.PLP.ligand.clash>
0.0000

> <Gold.PLP.ligand.torsion>
0.3852

> <Gold.PLP.Chemscore.Hbond>
1.0000

> <Gold.PLP.Chemscore.CHOScore>
0.0000

> <Gold.PLP.Chemscore.Metal>
0.0000

> <Gold.Chemscore.Hbonds>
donor molecule, donor type, donor heavy atom, donor atom, acceptor molecule, acceptor atom, score
      P1  H  6896  6907       L1    13  1.00

> <Gold.PLP.Chemscore.Internal.Correction>
0.0519

> <Gold.Rescore>
     Score         DG    S(hbond)    S(metal)    S(lipo)     H(rot)  DE(clash)    DE(int)     intcor
     17.10     -17.78       0.97        0.00     127.25       2.28       0.07       0.61       ----

> <Gold.Chemscore.Fitness>
17.0955

> <Gold.Chemscore.DG>
-17.7755

> <Gold.Chemscore.ZeroCoef>
-5.4800

> <Gold.Chemscore.Hbond>
0.9728

> <Gold.Chemscore.Metal>
0.0000

> <Gold.Chemscore.Lipo>
127.2517

> <Gold.Chemscore.Internal_Hbond>
0.0000

> <Gold.Chemscore.DEClash>
0.0667

> <Gold.Chemscore.DEInternal>
0.6133

> <Gold.Chemscore.Rot>
2.2821

> <Gold.Chemscore.Internal.Correction>
   9.000000E+99

> <Gold.Chemscore.Hbonds>
donor molecule, donor type, donor heavy atom, donor atom, acceptor molecule, acceptor atom, score
      P1  H  6896  6907       L1    13  0.97

> <Gold.Chemscore.Hbond.Weighted>
-3.2492

> <Gold.Chemscore.Metal.Weighted>
-0.0000

> <Gold.Chemscore.Lipo.Weighted>
-14.8885

> <Gold.Chemscore.Internal_Hbond.Weighted>
0.0000

> <Gold.Chemscore.DEClash.Weighted>
0.0667

> <Gold.Chemscore.DEInternal.Weighted>
0.6133

> <Gold.Chemscore.Rot.Weighted>
5.8421

> <Gold.Chemscore.Internal.Correction.Weighted>
   9.000000E+99

> <Gold.Protein.RotatedTorsions>
[ 6907 6896 6895 6894 ] final   38.88 input  -60.11 | X-H torsion
[ 7974 7965 7964 7962 ] final  -92.14 input  175.53 | X-H torsion
[ 8008 7997 7996 7995 ] final  126.17 input   59.86 | X-H torsion
[ 10167 10162 10161 10158 ] final   49.37 input  -65.29 | X-H torsion
[ 10718 10713 10712 10709 ] final  126.44 input   66.30 | X-H torsion
[ 10763 10752 10751 10750 ] final  149.00 input  -60.55 | X-H torsion
[ 11005 11000 10999 10996 ] final   40.54 input  -57.11 | X-H torsion

> <Gold.Protein.ActiveResidues>
 VAL166  LYS551  ARG553  GLY616  TRP617  ASP618  TYR619  PRO620  LYS621  CYS622 
 ASP623  PHE694  ASN695  SER759  ASP760  ASP761  ALA762  ILE779  LEU786  VAL792 
 PHE793  MET794  SER795  GLU796  ALA797  LYS798  CYS799  TRP800  GLU811  SER814 

> <Gold.Protein.RotatedAtoms>
  152.1623  134.8902  160.0540 H   0  0  0  0  0  0  0  0  0  0  0  0  # atno 6907 bound_to 6896
  151.9893  133.3780  159.4146 H   0  0  0  0  0  0  0  0  0  0  0  0  # atno 6908 bound_to 6896
  150.6889  134.3877  159.5106 H   0  0  0  0  0  0  0  0  0  0  0  0  # atno 6909 bound_to 6896
  145.4038  140.9539  143.2272 H   0  0  0  0  0  0  0  0  0  0  0  0  # atno 7974 bound_to 7965
  156.2856  140.2699  156.2068 H   0  0  0  0  0  0  0  0  0  0  0  0  # atno 8008 bound_to 7997
  155.0305  140.0386  157.2490 H   0  0  0  0  0  0  0  0  0  0  0  0  # atno 8009 bound_to 7997
  154.7358  140.2715  155.6421 H   0  0  0  0  0  0  0  0  0  0  0  0  # atno 8010 bound_to 7997
  140.2835  144.3128  150.6258 H   0  0  0  0  0  0  0  0  0  0  0  0  # atno 10167 bound_to 10162
  157.5419  131.1096  150.8845 H   0  0  0  0  0  0  0  0  0  0  0  0  # atno 10718 bound_to 10713
  154.0640  135.2872  155.3320 H   0  0  0  0  0  0  0  0  0  0  0  0  # atno 10763 bound_to 10752
  154.6790  135.5271  153.8240 H   0  0  0  0  0  0  0  0  0  0  0  0  # atno 10764 bound_to 10752
  153.0511  135.6576  154.0827 H   0  0  0  0  0  0  0  0  0  0  0  0  # atno 10765 bound_to 10752
  140.1921  134.3974  155.8141 H   0  0  0  0  0  0  0  0  0  0  0  0  # atno 11005 bound_to 11000
  144.8356  139.5556  143.6924 LP  0  0  0  0  0  0  0  0  0  0  0  0  # atno 17320 bound_to 7965
  146.2739  139.6703  142.9277 LP  0  0  0  0  0  0  0  0  0  0  0  0  # atno 17321 bound_to 7965
  140.5792  143.2174  151.7460 LP  0  0  0  0  0  0  0  0  0  0  0  0  # atno 17342 bound_to 10162
  139.4956  144.4105  152.0085 LP  0  0  0  0  0  0  0  0  0  0  0  0  # atno 17343 bound_to 10162
  156.9395  130.5379  149.5280 LP  0  0  0  0  0  0  0  0  0  0  0  0  # atno 17370 bound_to 10713
  156.0504  130.5574  150.8975 LP  0  0  0  0  0  0  0  0  0  0  0  0  # atno 17371 bound_to 10713
  141.2226  133.7051  156.8113 LP  0  0  0  0  0  0  0  0  0  0  0  0  # atno 17394 bound_to 11000
  140.2148  134.8801  157.3313 LP  0  0  0  0  0  0  0  0  0  0  0  0  # atno 17395 bound_to 11000

$$$$
