AV-unprocessed.smi:283|AV-procd|sdf|2155|dock3
  -GOLD-   2262021503D 1   1.00000     0.00000
 Structure written by MMmdl.
 48 51  0  0  0  0  0  0  0  0  1 V2000
  147.8028  133.1481  161.9341 C   0  0  0  0  0  0  0  0  0  0  0  0
  147.3288  134.3173  161.0609 C   0  0  2  0  0  0  0  0  0  0  0  0
  148.4255  135.2647  160.8674 N   0  0  0  0  0  0  0  0  0  0  0  0
  148.3628  136.2138  159.9072 C   0  0  0  0  0  0  0  0  0  0  0  0
  147.1313  136.4525  159.3970 N   0  0  0  0  0  0  0  0  0  0  0  0
  146.9730  137.3485  158.4191 C   0  0  0  0  0  0  0  0  0  0  0  0
  147.8985  138.0956  157.8151 N   0  0  0  0  0  0  0  0  0  0  0  0
  149.1416  137.8685  158.3297 C   0  0  0  0  0  0  0  0  0  0  0  0
  149.4560  136.9654  159.3845 C   0  0  0  0  0  0  0  0  0  0  0  0
  150.8145  137.0453  159.6645 N   0  0  0  0  0  0  0  0  0  0  0  0
  151.2712  137.9207  158.8128 C   0  0  0  0  0  0  0  0  0  0  0  0
  150.3381  138.4335  157.9374 N   0  0  0  0  0  0  0  0  0  0  0  0
  150.5302  139.4470  156.8478 C   0  0  1  0  0  0  0  0  0  0  0  0
  151.7119  139.1291  156.1698 O   0  0  0  0  0  0  0  0  0  0  0  0
  151.4354  138.4889  154.9255 C   0  0  1  0  0  0  0  0  0  0  0  0
  151.3552  136.9595  155.1066 C   0  0  0  0  0  0  0  0  0  0  0  0
  152.4179  136.5045  155.9165 O   0  0  0  0  0  0  0  0  0  0  0  0
  150.1151  139.1312  154.4932 C   0  0  2  0  0  0  0  0  0  0  0  0
  150.4033  140.3239  153.7835 O   0  0  0  0  0  0  0  0  0  0  0  0
  149.3866  139.3769  155.8141 C   0  0  2  0  0  0  0  0  0  0  0  0
  148.5943  140.5490  155.7772 O   0  0  0  0  0  0  0  0  0  0  0  0
  146.0456  134.9255  161.6369 C   0  0  0  0  0  0  0  0  0  0  0  0
  145.9951  136.3052  161.9447 C   0  0  0  0  0  0  0  0  0  0  0  0
  144.8206  136.8845  162.4598 C   0  0  0  0  0  0  0  0  0  0  0  0
  143.6835  136.0877  162.6826 C   0  0  0  0  0  0  0  0  0  0  0  0
  143.7268  134.7108  162.3972 C   0  0  0  0  0  0  0  0  0  0  0  0
  144.9007  134.1253  161.8820 C   0  0  0  0  0  0  0  0  0  0  0  0
  144.8987  132.4255  161.5648 Cl  0  0  0  0  0  0  0  0  0  0  0  0
  150.6172  140.3997  157.3715 H   0  0  0  0  0  0  0  0  0  0  0  0
  152.2436  138.7150  154.2277 H   0  0  0  0  0  0  0  0  0  0  0  0
  149.5381  138.4850  153.8304 H   0  0  0  0  0  0  0  0  0  0  0  0
  148.7476  138.5190  156.0282 H   0  0  0  0  0  0  0  0  0  0  0  0
  147.0304  132.3832  162.0178 H   0  0  0  0  0  0  0  0  0  0  0  0
  148.0517  133.4806  162.9423 H   0  0  0  0  0  0  0  0  0  0  0  0
  148.6888  132.6739  161.5107 H   0  0  0  0  0  0  0  0  0  0  0  0
  147.1156  133.9067  160.0757 H   0  0  0  0  0  0  0  0  0  0  0  0
  149.0531  135.3465  161.6540 H   0  0  0  0  0  0  0  0  0  0  0  0
  145.9618  137.4787  158.0632 H   0  0  0  0  0  0  0  0  0  0  0  0
  152.3134  138.2035  158.7971 H   0  0  0  0  0  0  0  0  0  0  0  0
  150.4196  136.6888  155.5963 H   0  0  0  0  0  0  0  0  0  0  0  0
  151.3841  136.4360  154.1508 H   0  0  0  0  0  0  0  0  0  0  0  0
  152.9843  137.2364  156.1084 H   0  0  0  0  0  0  0  0  0  0  0  0
  150.1213  140.2123  152.8885 H   0  0  0  0  0  0  0  0  0  0  0  0
  148.2685  140.6587  154.8968 H   0  0  0  0  0  0  0  0  0  0  0  0
  146.8593  136.9321  161.7802 H   0  0  0  0  0  0  0  0  0  0  0  0
  144.7926  137.9407  162.6833 H   0  0  0  0  0  0  0  0  0  0  0  0
  142.7808  136.5307  163.0770 H   0  0  0  0  0  0  0  0  0  0  0  0
  142.8539  134.1003  162.5764 H   0  0  0  0  0  0  0  0  0  0  0  0
  1  2  1  0  0  0  0
  1 33  1  0  0  0  0
  1 34  1  0  0  0  0
  1 35  1  0  0  0  0
  2  3  1  0  0  0  0
  2 22  1  0  0  0  0
  2 36  1  0  0  0  0
  3  4  1  0  0  0  0
  3 37  1  0  0  0  0
  4  9  1  0  0  0  0
  4  5  2  0  0  0  0
  5  6  1  0  0  0  0
  6  7  2  0  0  0  0
  6 38  1  0  0  0  0
  7  8  1  0  0  0  0
  8 12  1  0  0  0  0
  8  9  2  0  0  0  0
  9 10  1  0  0  0  0
 10 11  2  0  0  0  0
 11 12  1  0  0  0  0
 11 39  1  0  0  0  0
 12 13  1  0  0  0  0
 13 29  1  0  0  0  0
 13 20  1  0  0  0  0
 13 14  1  0  0  0  0
 14 15  1  0  0  0  0
 15 30  1  0  0  0  0
 15 16  1  0  0  0  0
 15 18  1  0  0  0  0
 16 17  1  0  0  0  0
 16 40  1  0  0  0  0
 16 41  1  0  0  0  0
 17 42  1  0  0  0  0
 18 31  1  0  0  0  0
 18 19  1  0  0  0  0
 18 20  1  0  0  0  0
 19 43  1  0  0  0  0
 20 32  1  0  0  0  0
 20 21  1  0  0  0  0
 21 44  1  0  0  0  0
 22 27  1  0  0  0  0
 22 23  2  0  0  0  0
 23 24  1  0  0  0  0
 23 45  1  0  0  0  0
 24 25  2  0  0  0  0
 24 46  1  0  0  0  0
 25 26  1  0  0  0  0
 25 47  1  0  0  0  0
 26 27  2  0  0  0  0
 26 48  1  0  0  0  0
 27 28  1  0  0  0  0
M  END
> <s_m_source_file>
AV-unprocessed.smi

> <i_m_source_file_index>
283

> <i_lp_mmshare_version>
43012

> <i_f3d_flags>
0

> <s_epik_input>
Q2xjMVtjSF1bY0hdW2NIXVtjSF1jMVtDQEhdKFtDSDNdKVtOSF1jKG5bY0hdbjIpYyhjMjMpbltjSF1uM1tDQEBIXTRPW0NASF0oW0NIMl1bT0hdKVtDQEBIXShbT0hdKVtDQEhdNFtPSF0=

> <s_epik_cmdline>
J2VwaWtfcHl0aG9uJywgJy1waCcsICc3LjAnLCAnLXRuJywgJzgnLCAnLW1hJywgJzIwMCcsICctbWV0YWxfYmluZGluZycsICctaW1hZScsICc8aW5maWxlLm1hZT4nLCAnLW9tYWUnLCAnPG91dGZpbGUubWFlPic=

> <r_lp_tautomer_probability>
1

> <r_epik_Ionization_Penalty>
0.000266407

> <r_epik_Ionization_Penalty_Charging>
0

> <r_epik_Ionization_Penalty_Neutral>
0.000266407

> <r_epik_State_Penalty>
-0

> <r_epik_Charging_Adjusted_Penalty>
0

> <i_epik_Tot_Q>
0

> <i_epik_Tot_abs_Q>
0

> <r_epik_Metal_State_Penalty>
-0

> <b_epik_Metal_Only>
0

> <s_epik_Chemistry_Notes>
This compound contains an acetal/aminal-like group ( X-CH(R)-Y where X, Y are N, S, or O) that may be acid/base labile, releasing an aldehyde.

> <s_lp_Force_Field>
OPLS_2005

> <r_lp_Energy>
45.281

> <b_lp_Chiralities_Consistent>
1

> <s_lp_Variant>
AV-unprocessed.smi:283-31

> <Gold.Version>
5.8.1

> <Gold.Id.Protein>
6NUR|6NUR_protein|mol2

> <Gold.PLP.Fitness>
47.3228

> <Gold.PLP.PLP>
-38.1631

> <Gold.PLP.part.hbond>
-3.6575

> <Gold.PLP.part.metal>
0.0000

> <Gold.PLP.part.buried>
-6.3175

> <Gold.PLP.part.nonpolar>
-28.1060

> <Gold.PLP.part.repulsive>
0.1253

> <Gold.PLP.ligand.clash>
0.0000

> <Gold.PLP.ligand.torsion>
0.9401

> <Gold.PLP.Chemscore.Hbond>
3.6400

> <Gold.PLP.Chemscore.CHOScore>
0.0000

> <Gold.PLP.Chemscore.Metal>
0.0000

> <Gold.Chemscore.Hbonds>
donor molecule, donor type, donor heavy atom, donor atom, acceptor molecule, acceptor atom, score
      L1  H    19    43       P1  7957  1.00
      P1  H  6896  6907       L1    10  0.80
      P1  H  7989  7998       L1    19  0.35
      P1  H 10752 10764       L1    17  0.98

> <Gold.PLP.Chemscore.Internal.Correction>
0.1200

> <Gold.Rescore>
     Score         DG    S(hbond)    S(metal)    S(lipo)     H(rot)  DE(clash)    DE(int)     intcor
      6.84     -11.51       2.00        0.00      84.07       4.10       0.11       4.56       ----

> <Gold.Chemscore.Fitness>
6.8390

> <Gold.Chemscore.DG>
-11.5140

> <Gold.Chemscore.ZeroCoef>
-5.4800

> <Gold.Chemscore.Hbond>
2.0018

> <Gold.Chemscore.Metal>
0.0000

> <Gold.Chemscore.Lipo>
84.0664

> <Gold.Chemscore.Internal_Hbond>
0.0000

> <Gold.Chemscore.DEClash>
0.1129

> <Gold.Chemscore.DEInternal>
4.5621

> <Gold.Chemscore.Rot>
4.0968

> <Gold.Chemscore.Internal.Correction>
   9.000000E+99

> <Gold.Chemscore.Hbonds>
donor molecule, donor type, donor heavy atom, donor atom, acceptor molecule, acceptor atom, score
      L1  H    19    43       P1  7957  1.00
      P1  H  6896  6907       L1    10  0.11
      P1  H  7989  7998       L1    19  0.04
      P1  H 10752 10764       L1    17  0.26

> <Gold.Chemscore.Hbond.Weighted>
-6.6861

> <Gold.Chemscore.Metal.Weighted>
-0.0000

> <Gold.Chemscore.Lipo.Weighted>
-9.8358

> <Gold.Chemscore.Internal_Hbond.Weighted>
0.0000

> <Gold.Chemscore.DEClash.Weighted>
0.1129

> <Gold.Chemscore.DEInternal.Weighted>
4.5621

> <Gold.Chemscore.Rot.Weighted>
10.4879

> <Gold.Chemscore.Internal.Correction.Weighted>
   9.000000E+99

> <Gold.Protein.RotatedTorsions>
[ 6907 6896 6895 6894 ] final  -28.88 input  -60.11 | X-H torsion
[ 7974 7965 7964 7962 ] final -156.49 input  175.53 | X-H torsion
[ 8008 7997 7996 7995 ] final   11.03 input   59.86 | X-H torsion
[ 10167 10162 10161 10158 ] final  127.78 input  -65.29 | X-H torsion
[ 10718 10713 10712 10709 ] final  113.18 input   66.30 | X-H torsion
[ 10763 10752 10751 10750 ] final  -32.39 input  -60.55 | X-H torsion
[ 11005 11000 10999 10996 ] final  -99.87 input  -57.11 | X-H torsion

> <Gold.Protein.ActiveResidues>
 VAL166  LYS551  ARG553  GLY616  TRP617  ASP618  TYR619  PRO620  LYS621  CYS622 
 ASP623  PHE694  ASN695  SER759  ASP760  ASP761  ALA762  ILE779  LEU786  VAL792 
 PHE793  MET794  SER795  GLU796  ALA797  LYS798  CYS799  TRP800  GLU811  SER814 

> <Gold.Protein.RotatedAtoms>
  151.1269  135.0109  159.8563 H   0  0  0  0  0  0  0  0  0  0  0  0  # atno 6907 bound_to 6896
  152.5450  134.1657  159.8586 H   0  0  0  0  0  0  0  0  0  0  0  0  # atno 6908 bound_to 6896
  151.1720  133.4733  159.2627 H   0  0  0  0  0  0  0  0  0  0  0  0  # atno 6909 bound_to 6896
  144.7591  140.4102  143.5990 H   0  0  0  0  0  0  0  0  0  0  0  0  # atno 7974 bound_to 7965
  154.8014  140.2852  155.5918 H   0  0  0  0  0  0  0  0  0  0  0  0  # atno 8008 bound_to 7997
  156.2977  140.2585  156.2813 H   0  0  0  0  0  0  0  0  0  0  0  0  # atno 8009 bound_to 7997
  154.9553  140.0378  157.2153 H   0  0  0  0  0  0  0  0  0  0  0  0  # atno 8010 bound_to 7997
  139.5560  144.6849  151.4181 H   0  0  0  0  0  0  0  0  0  0  0  0  # atno 10167 bound_to 10162
  157.6352  131.0979  150.7003 H   0  0  0  0  0  0  0  0  0  0  0  0  # atno 10718 bound_to 10713
  153.8129  135.6881  153.4838 H   0  0  0  0  0  0  0  0  0  0  0  0  # atno 10763 bound_to 10752
  153.1617  135.4577  154.9779 H   0  0  0  0  0  0  0  0  0  0  0  0  # atno 10764 bound_to 10752
  154.7960  135.3319  154.7608 H   0  0  0  0  0  0  0  0  0  0  0  0  # atno 10765 bound_to 10752
  141.1292  133.8355  157.1028 H   0  0  0  0  0  0  0  0  0  0  0  0  # atno 11005 bound_to 11000
  145.6680  139.1594  143.2770 LP  0  0  0  0  0  0  0  0  0  0  0  0  # atno 17320 bound_to 7965
  146.1634  140.6754  142.9267 LP  0  0  0  0  0  0  0  0  0  0  0  0  # atno 17321 bound_to 7965
  140.6833  143.8032  150.7151 LP  0  0  0  0  0  0  0  0  0  0  0  0  # atno 17342 bound_to 10162
  140.1492  143.4373  152.2143 LP  0  0  0  0  0  0  0  0  0  0  0  0  # atno 17343 bound_to 10162
  156.7336  130.4717  149.5494 LP  0  0  0  0  0  0  0  0  0  0  0  0  # atno 17370 bound_to 10713
  156.1586  130.6359  151.0689 LP  0  0  0  0  0  0  0  0  0  0  0  0  # atno 17371 bound_to 10713
  140.0323  134.9895  157.0803 LP  0  0  0  0  0  0  0  0  0  0  0  0  # atno 17394 bound_to 11000
  140.4266  134.1824  155.7166 LP  0  0  0  0  0  0  0  0  0  0  0  0  # atno 17395 bound_to 11000

$$$$
