AV-unprocessed.smi:2393|AV-procd|sdf|9489|dock9
  -GOLD-   2272013113D 1   1.00000     0.00000
 Structure written by MMmdl.
 43 44  0  0  0  0  0  0  0  0  1 V2000
  147.4556  130.1538  152.6269 C   0  0  0  0  0  0  0  0  0  0  0  0
  148.6328  130.9065  153.2107 C   0  0  0  0  0  0  0  0  0  0  0  0
  149.7516  130.2184  153.7183 C   0  0  0  0  0  0  0  0  0  0  0  0
  150.8128  130.9766  154.2508 C   0  0  0  0  0  0  0  0  0  0  0  0
  152.0471  130.3025  154.8127 C   0  0  0  0  0  0  0  0  0  0  0  0
  150.8024  132.3259  154.2986 N   0  0  0  0  0  0  0  0  0  0  0  0
  149.7299  132.9991  153.8132 C   0  0  0  0  0  0  0  0  0  0  0  0
  149.6258  134.4155  153.8083 N   0  0  0  0  0  0  0  0  0  0  0  0
  150.0812  135.2838  154.7287 C   0  0  0  0  0  0  0  0  0  0  0  0
  150.6249  134.9764  155.7900 O   0  0  0  0  0  0  0  0  0  0  0  0
  149.8589  136.5520  154.3526 N   0  0  0  0  0  0  0  0  0  0  0  0
  150.2269  137.7332  155.1284 C   0  0  1  0  0  0  0  0  0  0  0  0
  151.6376  138.1942  154.7447 C   0  0  0  0  0  0  0  0  0  0  0  0
  151.9930  139.4967  155.4750 C   0  0  0  0  0  0  0  0  0  0  0  0
  151.0238  140.5053  155.1959 O   0  0  0  0  0  0  0  0  0  0  0  0
  149.6714  140.2029  155.5561 C   0  0  0  0  0  0  0  0  0  0  0  0
  149.5093  140.1533  157.0910 C   0  0  0  0  0  0  0  0  0  0  0  0
  148.8395  141.3722  155.0040 C   0  0  0  0  0  0  0  0  0  0  0  0
  149.2351  138.8826  154.8757 C   0  0  0  0  0  0  0  0  0  0  0  0
  148.6255  132.3151  153.2575 C   0  0  0  0  0  0  0  0  0  0  0  0
  147.6599  129.0844  152.5649 H   0  0  0  0  0  0  0  0  0  0  0  0
  147.2331  130.5165  151.6231 H   0  0  0  0  0  0  0  0  0  0  0  0
  146.5717  130.2980  153.2486 H   0  0  0  0  0  0  0  0  0  0  0  0
  149.7956  129.1391  153.7001 H   0  0  0  0  0  0  0  0  0  0  0  0
  152.0445  129.2330  154.6002 H   0  0  0  0  0  0  0  0  0  0  0  0
  152.0906  130.4360  155.8939 H   0  0  0  0  0  0  0  0  0  0  0  0
  152.9495  130.7322  154.3767 H   0  0  0  0  0  0  0  0  0  0  0  0
  149.1634  134.8137  153.0047 H   0  0  0  0  0  0  0  0  0  0  0  0
  149.4049  136.7139  153.4656 H   0  0  0  0  0  0  0  0  0  0  0  0
  150.2276  137.4754  156.1886 H   0  0  0  0  0  0  0  0  0  0  0  0
  152.3685  137.4212  154.9850 H   0  0  0  0  0  0  0  0  0  0  0  0
  151.6973  138.3582  153.6676 H   0  0  0  0  0  0  0  0  0  0  0  0
  152.0826  139.3307  156.5484 H   0  0  0  0  0  0  0  0  0  0  0  0
  152.9663  139.8542  155.1388 H   0  0  0  0  0  0  0  0  0  0  0  0
  148.4628  140.0212  157.3677 H   0  0  0  0  0  0  0  0  0  0  0  0
  149.8561  141.0790  157.5514 H   0  0  0  0  0  0  0  0  0  0  0  0
  150.0632  139.3350  157.5487 H   0  0  0  0  0  0  0  0  0  0  0  0
  147.7773  141.2354  155.2090 H   0  0  0  0  0  0  0  0  0  0  0  0
  148.9583  141.4689  153.9243 H   0  0  0  0  0  0  0  0  0  0  0  0
  149.1440  142.3192  155.4512 H   0  0  0  0  0  0  0  0  0  0  0  0
  149.1587  139.0447  153.7992 H   0  0  0  0  0  0  0  0  0  0  0  0
  148.2354  138.6013  155.2099 H   0  0  0  0  0  0  0  0  0  0  0  0
  147.7776  132.8634  152.8727 H   0  0  0  0  0  0  0  0  0  0  0  0
  1  2  1  0  0  0  0
  1 21  1  0  0  0  0
  1 22  1  0  0  0  0
  1 23  1  0  0  0  0
  2 20  1  0  0  0  0
  2  3  2  0  0  0  0
  3  4  1  0  0  0  0
  3 24  1  0  0  0  0
  4  5  1  0  0  0  0
  4  6  2  0  0  0  0
  5 25  1  0  0  0  0
  5 26  1  0  0  0  0
  5 27  1  0  0  0  0
  6  7  1  0  0  0  0
  7  8  1  0  0  0  0
  7 20  2  0  0  0  0
  8  9  1  0  0  0  0
  8 28  1  0  0  0  0
  9 10  2  0  0  0  0
  9 11  1  0  0  0  0
 11 12  1  0  0  0  0
 11 29  1  0  0  0  0
 12 19  1  0  0  0  0
 12 13  1  0  0  0  0
 12 30  1  0  0  0  0
 13 14  1  0  0  0  0
 13 31  1  0  0  0  0
 13 32  1  0  0  0  0
 14 15  1  0  0  0  0
 14 33  1  0  0  0  0
 14 34  1  0  0  0  0
 15 16  1  0  0  0  0
 16 17  1  0  0  0  0
 16 18  1  0  0  0  0
 16 19  1  0  0  0  0
 17 35  1  0  0  0  0
 17 36  1  0  0  0  0
 17 37  1  0  0  0  0
 18 38  1  0  0  0  0
 18 39  1  0  0  0  0
 18 40  1  0  0  0  0
 19 41  1  0  0  0  0
 19 42  1  0  0  0  0
 20 43  1  0  0  0  0
M  END
> <s_m_source_file>
AV-unprocessed.smi

> <i_m_source_file_index>
2393

> <i_lp_mmshare_version>
43012

> <i_f3d_flags>
0

> <s_epik_input>
W0NIM11jMVtjSF1jKFtDSDNdKW5jKFtjSF0xKVtOSF1DKD1PKVtOSF1bQ0BASF0oW0NIMl0yKVtDSDJdW0NIMl1PQzIoW0NIM10pW0NIM10=

> <s_epik_cmdline>
J2VwaWtfcHl0aG9uJywgJy1waCcsICc3LjAnLCAnLXRuJywgJzgnLCAnLW1hJywgJzIwMCcsICctbWV0YWxfYmluZGluZycsICctaW1hZScsICc8aW5maWxlLm1hZT4nLCAnLW9tYWUnLCAnPG91dGZpbGUubWFlPic=

> <r_lp_tautomer_probability>
1

> <r_epik_Ionization_Penalty>
0.000261351

> <r_epik_Ionization_Penalty_Charging>
0

> <r_epik_Ionization_Penalty_Neutral>
0.000261351

> <r_epik_State_Penalty>
-0

> <r_epik_Charging_Adjusted_Penalty>
0

> <i_epik_Tot_Q>
0

> <i_epik_Tot_abs_Q>
0

> <r_epik_Metal_State_Penalty>
-0

> <b_epik_Metal_Only>
0

> <s_lp_Force_Field>
OPLS_2005

> <r_lp_Energy>
12.7135

> <b_lp_Chiralities_Consistent>
1

> <s_lp_Variant>
AV-unprocessed.smi:2393-2

> <Gold.Version>
5.8.1

> <Gold.Id.Protein>
6NUR|6NUR_protein|mol2

> <Gold.PLP.Fitness>
42.5392

> <Gold.PLP.PLP>
-35.1908

> <Gold.PLP.part.hbond>
-3.0744

> <Gold.PLP.part.metal>
0.0000

> <Gold.PLP.part.buried>
-2.7865

> <Gold.PLP.part.nonpolar>
-29.8681

> <Gold.PLP.part.repulsive>
0.1396

> <Gold.PLP.ligand.clash>
0.0000

> <Gold.PLP.ligand.torsion>
0.6219

> <Gold.PLP.Chemscore.Hbond>
2.8640

> <Gold.PLP.Chemscore.CHOScore>
0.0000

> <Gold.PLP.Chemscore.Metal>
0.0000

> <Gold.Chemscore.Hbonds>
donor molecule, donor type, donor heavy atom, donor atom, acceptor molecule, acceptor atom, score
      L1  H     8    28       P1  7948  0.44
      L1  H    11    29       P1  7948  1.00
      P1  H  7989  7998       L1    15  0.78

> <Gold.PLP.Chemscore.Internal.Correction>
0.0003

> <Gold.Rescore>
     Score         DG    S(hbond)    S(metal)    S(lipo)     H(rot)  DE(clash)    DE(int)     intcor
     17.31     -18.60       2.30        0.00      68.41       1.00       0.00       1.29       ----

> <Gold.Chemscore.Fitness>
17.3145

> <Gold.Chemscore.DG>
-18.6048

> <Gold.Chemscore.ZeroCoef>
-5.4800

> <Gold.Chemscore.Hbond>
2.2997

> <Gold.Chemscore.Metal>
0.0000

> <Gold.Chemscore.Lipo>
68.4077

> <Gold.Chemscore.Internal_Hbond>
0.0000

> <Gold.Chemscore.DEClash>
0.0029

> <Gold.Chemscore.DEInternal>
1.2874

> <Gold.Chemscore.Rot>
1.0000

> <Gold.Chemscore.Internal.Correction>
   9.000000E+99

> <Gold.Chemscore.Hbonds>
donor molecule, donor type, donor heavy atom, donor atom, acceptor molecule, acceptor atom, score
      L1  H     8    28       P1  7948  0.01
      L1  H    11    29       P1  7948  0.84
      P1  H  7989  7998       L1    15  0.11

> <Gold.Chemscore.Hbond.Weighted>
-7.6811

> <Gold.Chemscore.Metal.Weighted>
-0.0000

> <Gold.Chemscore.Lipo.Weighted>
-8.0037

> <Gold.Chemscore.Internal_Hbond.Weighted>
0.0000

> <Gold.Chemscore.DEClash.Weighted>
0.0029

> <Gold.Chemscore.DEInternal.Weighted>
1.2874

> <Gold.Chemscore.Rot.Weighted>
2.5600

> <Gold.Chemscore.Internal.Correction.Weighted>
   9.000000E+99

> <Gold.Protein.RotatedTorsions>
[ 6907 6896 6895 6894 ] final  -38.52 input  -60.11 | X-H torsion
[ 7974 7965 7964 7962 ] final  -18.63 input  175.53 | X-H torsion
[ 8008 7997 7996 7995 ] final   96.94 input   59.86 | X-H torsion
[ 10167 10162 10161 10158 ] final   31.30 input  -65.29 | X-H torsion
[ 10718 10713 10712 10709 ] final   42.95 input   66.30 | X-H torsion
[ 10763 10752 10751 10750 ] final  -22.93 input  -60.55 | X-H torsion
[ 11005 11000 10999 10996 ] final -138.03 input  -57.11 | X-H torsion

> <Gold.Protein.ActiveResidues>
 VAL166  LYS551  ARG553  GLY616  TRP617  ASP618  TYR619  PRO620  LYS621  CYS622 
 ASP623  PHE694  ASN695  SER759  ASP760  ASP761  ALA762  ILE779  LEU786  VAL792 
 PHE793  MET794  SER795  GLU796  ALA797  LYS798  CYS799  TRP800  GLU811  SER814 

> <Gold.Protein.RotatedAtoms>
  151.0015  134.9325  159.7955 H   0  0  0  0  0  0  0  0  0  0  0  0  # atno 6907 bound_to 6896
  152.5279  134.3148  159.9137 H   0  0  0  0  0  0  0  0  0  0  0  0  # atno 6908 bound_to 6896
  151.3154  133.4021  159.2684 H   0  0  0  0  0  0  0  0  0  0  0  0  # atno 6909 bound_to 6896
  146.1883  140.3948  142.8468 H   0  0  0  0  0  0  0  0  0  0  0  0  # atno 7974 bound_to 7965
  156.0849  140.3265  155.7741 H   0  0  0  0  0  0  0  0  0  0  0  0  # atno 8008 bound_to 7997
  155.5092  140.0575  157.2943 H   0  0  0  0  0  0  0  0  0  0  0  0  # atno 8009 bound_to 7997
  154.4603  140.1963  156.0279 H   0  0  0  0  0  0  0  0  0  0  0  0  # atno 8010 bound_to 7997
  140.4601  144.0919  150.6211 H   0  0  0  0  0  0  0  0  0  0  0  0  # atno 10167 bound_to 10162
  157.4105  130.7911  149.7426 H   0  0  0  0  0  0  0  0  0  0  0  0  # atno 10718 bound_to 10713
  153.6598  135.6977  153.5181 H   0  0  0  0  0  0  0  0  0  0  0  0  # atno 10763 bound_to 10752
  153.2640  135.4235  155.0922 H   0  0  0  0  0  0  0  0  0  0  0  0  # atno 10764 bound_to 10752
  154.8455  135.3562  154.6143 H   0  0  0  0  0  0  0  0  0  0  0  0  # atno 10765 bound_to 10752
  140.8654  134.2116  157.4683 H   0  0  0  0  0  0  0  0  0  0  0  0  # atno 11005 bound_to 11000
  144.8437  140.6897  143.6212 LP  0  0  0  0  0  0  0  0  0  0  0  0  # atno 17320 bound_to 7965
  145.3872  139.1624  143.4248 LP  0  0  0  0  0  0  0  0  0  0  0  0  # atno 17321 bound_to 7965
  140.4104  143.2660  151.9840 LP  0  0  0  0  0  0  0  0  0  0  0  0  # atno 17342 bound_to 10162
  139.4805  144.5920  151.7754 LP  0  0  0  0  0  0  0  0  0  0  0  0  # atno 17343 bound_to 10162
  155.9849  130.3987  150.3288 LP  0  0  0  0  0  0  0  0  0  0  0  0  # atno 17370 bound_to 10713
  157.1425  131.0300  151.2921 LP  0  0  0  0  0  0  0  0  0  0  0  0  # atno 17371 bound_to 10713
  139.8709  134.9749  156.4865 LP  0  0  0  0  0  0  0  0  0  0  0  0  # atno 17394 bound_to 11000
  140.8634  133.8042  155.9289 LP  0  0  0  0  0  0  0  0  0  0  0  0  # atno 17395 bound_to 11000

$$$$
