AV-unprocessed.smi:1703|AV-procd|sdf|6858|dock6
  -GOLD-   22720 8 43D 1   1.00000     0.00000
 Structure written by MMmdl.
 48 50  0  0  0  0  0  0  0  0  1 V2000
  145.9591  139.1294  152.3064 C   0  0  0  0  0  0  0  0  0  0  0  0
  146.5386  139.8862  153.5060 C   0  0  1  0  0  0  0  0  0  0  0  0
  147.8248  139.2294  154.0389 C   0  0  0  0  0  0  0  0  0  0  0  0
  148.4201  139.9954  155.1267 N   0  0  0  0  0  0  0  0  0  0  0  0
  149.6161  139.3256  155.6396 C   0  0  0  0  0  0  0  0  0  0  0  0
  150.3538  140.0636  156.7788 C   0  0  1  0  0  0  0  0  0  0  0  0
  149.6150  139.8942  157.9709 O   0  0  0  0  0  0  0  0  0  0  0  0
  151.7781  139.5315  157.0389 C   0  0  0  0  0  0  0  0  0  0  0  0
  152.3016  139.9107  158.3448 N   0  0  0  0  0  0  0  0  0  0  0  0
  152.8217  139.1050  159.3052 C   0  0  0  0  0  0  0  0  0  0  0  0
  152.9427  137.6223  159.1283 C   0  0  0  0  0  0  0  0  0  0  0  0
  152.2683  136.8976  160.1345 O   0  0  0  0  0  0  0  0  0  0  0  0
  153.2311  139.7167  160.4172 N   0  0  0  0  0  0  0  0  0  0  0  0
  152.9604  141.0446  160.1509 C   0  0  0  0  0  0  0  0  0  0  0  0
  153.1681  142.1997  160.9382 C   0  0  0  0  0  0  0  0  0  0  0  0
  152.8068  143.4721  160.4489 C   0  0  0  0  0  0  0  0  0  0  0  0
  152.2338  143.6077  159.1679 C   0  0  0  0  0  0  0  0  0  0  0  0
  152.0193  142.4698  158.3665 C   0  0  0  0  0  0  0  0  0  0  0  0
  152.3809  141.2015  158.8600 C   0  0  0  0  0  0  0  0  0  0  0  0
  148.6938  141.3514  154.6531 C   0  0  0  0  0  0  0  0  0  0  0  0
  147.4426  142.0461  154.0789 C   0  0  2  0  0  0  0  0  0  0  0  0
  146.4410  142.4860  155.1605 C   0  0  0  0  0  0  0  0  0  0  0  0
  146.8255  141.2202  153.0903 O   0  0  0  0  0  0  0  0  0  0  0  0
  145.7122  138.1013  152.5725 H   0  0  0  0  0  0  0  0  0  0  0  0
  146.6679  139.1010  151.4784 H   0  0  0  0  0  0  0  0  0  0  0  0
  145.0472  139.6079  151.9482 H   0  0  0  0  0  0  0  0  0  0  0  0
  145.7859  139.9066  154.2947 H   0  0  0  0  0  0  0  0  0  0  0  0
  147.5932  138.2205  154.3828 H   0  0  0  0  0  0  0  0  0  0  0  0
  148.5453  139.1230  153.2260 H   0  0  0  0  0  0  0  0  0  0  0  0
  149.3454  138.3336  156.0049 H   0  0  0  0  0  0  0  0  0  0  0  0
  150.2998  139.1567  154.8074 H   0  0  0  0  0  0  0  0  0  0  0  0
  150.4150  141.1297  156.5692 H   0  0  0  0  0  0  0  0  0  0  0  0
  149.8891  139.0858  158.3772 H   0  0  0  0  0  0  0  0  0  0  0  0
  151.7980  138.4445  156.9554 H   0  0  0  0  0  0  0  0  0  0  0  0
  152.4624  139.9017  156.2744 H   0  0  0  0  0  0  0  0  0  0  0  0
  152.5283  137.3404  158.1598 H   0  0  0  0  0  0  0  0  0  0  0  0
  153.9923  137.3318  159.1143 H   0  0  0  0  0  0  0  0  0  0  0  0
  152.8156  136.8728  160.9042 H   0  0  0  0  0  0  0  0  0  0  0  0
  153.6068  142.1063  161.9207 H   0  0  0  0  0  0  0  0  0  0  0  0
  152.9702  144.3481  161.0592 H   0  0  0  0  0  0  0  0  0  0  0  0
  151.9592  144.5856  158.8006 H   0  0  0  0  0  0  0  0  0  0  0  0
  151.5789  142.5710  157.3857 H   0  0  0  0  0  0  0  0  0  0  0  0
  149.0969  141.9677  155.4552 H   0  0  0  0  0  0  0  0  0  0  0  0
  149.4618  141.3148  153.8786 H   0  0  0  0  0  0  0  0  0  0  0  0
  147.7689  142.9490  153.5623 H   0  0  0  0  0  0  0  0  0  0  0  0
  146.8948  143.2124  155.8352 H   0  0  0  0  0  0  0  0  0  0  0  0
  146.0986  141.6483  155.7680 H   0  0  0  0  0  0  0  0  0  0  0  0
  145.5648  142.9546  154.7121 H   0  0  0  0  0  0  0  0  0  0  0  0
  1  2  1  0  0  0  0
  1 24  1  0  0  0  0
  1 25  1  0  0  0  0
  1 26  1  0  0  0  0
  2 23  1  0  0  0  0
  2  3  1  0  0  0  0
  2 27  1  0  0  0  0
  3  4  1  0  0  0  0
  3 28  1  0  0  0  0
  3 29  1  0  0  0  0
  4  5  1  0  0  0  0
  4 20  1  0  0  0  0
  5  6  1  0  0  0  0
  5 30  1  0  0  0  0
  5 31  1  0  0  0  0
  6  7  1  0  0  0  0
  6  8  1  0  0  0  0
  6 32  1  0  0  0  0
  7 33  1  0  0  0  0
  8  9  1  0  0  0  0
  8 34  1  0  0  0  0
  8 35  1  0  0  0  0
  9 19  1  0  0  0  0
  9 10  1  0  0  0  0
 10 11  1  0  0  0  0
 10 13  2  0  0  0  0
 11 12  1  0  0  0  0
 11 36  1  0  0  0  0
 11 37  1  0  0  0  0
 12 38  1  0  0  0  0
 13 14  1  0  0  0  0
 14 19  2  0  0  0  0
 14 15  1  0  0  0  0
 15 16  2  0  0  0  0
 15 39  1  0  0  0  0
 16 17  1  0  0  0  0
 16 40  1  0  0  0  0
 17 18  2  0  0  0  0
 17 41  1  0  0  0  0
 18 19  1  0  0  0  0
 18 42  1  0  0  0  0
 20 21  1  0  0  0  0
 20 43  1  0  0  0  0
 20 44  1  0  0  0  0
 21 22  1  0  0  0  0
 21 23  1  0  0  0  0
 21 45  1  0  0  0  0
 22 46  1  0  0  0  0
 22 47  1  0  0  0  0
 22 48  1  0  0  0  0
M  END
> <s_m_source_file>
AV-unprocessed.smi

> <i_m_source_file_index>
1703

> <i_lp_mmshare_version>
43012

> <i_f3d_flags>
0

> <s_epik_input>
W0NIM11bQ0BASF0xW0NIMl1OKFtDSDJdW0NASF0oTzEpW0NIM10pW0NIMl1bQ0BIXShbT0hdKVtDSDJdbihjKG4yKVtDSDJdW09IXSljKGMyMylbY0hdW2NIXVtjSF1bY0hdMw==

> <s_epik_cmdline>
J2VwaWtfcHl0aG9uJywgJy1waCcsICc3LjAnLCAnLXRuJywgJzgnLCAnLW1hJywgJzIwMCcsICctbWV0YWxfYmluZGluZycsICctaW1hZScsICc8aW5maWxlLm1hZT4nLCAnLW9tYWUnLCAnPG91dGZpbGUubWFlPic=

> <r_epik_Ionization_Penalty>
0.307685

> <r_epik_Ionization_Penalty_Charging>
0

> <r_epik_Ionization_Penalty_Neutral>
0.307685

> <r_epik_State_Penalty>
0.277856

> <r_epik_Charging_Adjusted_Penalty>
0.277856

> <i_epik_Tot_Q>
0

> <i_epik_Tot_abs_Q>
0

> <r_epik_Metal_State_Penalty>
0.238959

> <b_epik_Metal_Only>
0

> <s_lp_Force_Field>
OPLS_2005

> <r_lp_Energy>
33.4596

> <b_lp_Chiralities_Consistent>
1

> <s_lp_Variant>
AV-unprocessed.smi:1703-6

> <Gold.Version>
5.8.1

> <Gold.Id.Protein>
6NUR|6NUR_protein|mol2

> <Gold.PLP.Fitness>
45.3992

> <Gold.PLP.PLP>
-42.9864

> <Gold.PLP.part.hbond>
-1.0000

> <Gold.PLP.part.metal>
0.0000

> <Gold.PLP.part.buried>
-4.3637

> <Gold.PLP.part.nonpolar>
-38.3617

> <Gold.PLP.part.repulsive>
0.4002

> <Gold.PLP.ligand.clash>
0.0000

> <Gold.PLP.ligand.torsion>
0.3267

> <Gold.PLP.Chemscore.Hbond>
1.0000

> <Gold.PLP.Chemscore.CHOScore>
0.0000

> <Gold.PLP.Chemscore.Metal>
0.0000

> <Gold.Chemscore.Hbonds>
donor molecule, donor type, donor heavy atom, donor atom, acceptor molecule, acceptor atom, score
      P1  H  6896  6908       L1    12  0.90

> <Gold.PLP.Chemscore.Internal.Correction>
0.0662

> <Gold.Rescore>
     Score         DG    S(hbond)    S(metal)    S(lipo)     H(rot)  DE(clash)    DE(int)     intcor
     15.11     -15.55       0.97        0.00     121.27       2.88       0.02       0.43       ----

> <Gold.Chemscore.Fitness>
15.1117

> <Gold.Chemscore.DG>
-15.5546

> <Gold.Chemscore.ZeroCoef>
-5.4800

> <Gold.Chemscore.Hbond>
0.9741

> <Gold.Chemscore.Metal>
0.0000

> <Gold.Chemscore.Lipo>
121.2658

> <Gold.Chemscore.Internal_Hbond>
0.0000

> <Gold.Chemscore.DEClash>
0.0153

> <Gold.Chemscore.DEInternal>
0.4275

> <Gold.Chemscore.Rot>
2.8778

> <Gold.Chemscore.Internal.Correction>
   9.000000E+99

> <Gold.Chemscore.Hbonds>
donor molecule, donor type, donor heavy atom, donor atom, acceptor molecule, acceptor atom, score
      P1  H  6896  6908       L1    12  0.18

> <Gold.Chemscore.Hbond.Weighted>
-3.2535

> <Gold.Chemscore.Metal.Weighted>
-0.0000

> <Gold.Chemscore.Lipo.Weighted>
-14.1881

> <Gold.Chemscore.Internal_Hbond.Weighted>
0.0000

> <Gold.Chemscore.DEClash.Weighted>
0.0153

> <Gold.Chemscore.DEInternal.Weighted>
0.4275

> <Gold.Chemscore.Rot.Weighted>
7.3671

> <Gold.Chemscore.Internal.Correction.Weighted>
   9.000000E+99

> <Gold.Protein.RotatedTorsions>
[ 6907 6896 6895 6894 ] final -101.30 input  -60.11 | X-H torsion
[ 7974 7965 7964 7962 ] final -121.61 input  175.53 | X-H torsion
[ 8008 7997 7996 7995 ] final -164.61 input   59.86 | X-H torsion
[ 10167 10162 10161 10158 ] final -170.28 input  -65.29 | X-H torsion
[ 10718 10713 10712 10709 ] final -171.67 input   66.30 | X-H torsion
[ 10763 10752 10751 10750 ] final  -16.70 input  -60.55 | X-H torsion
[ 11005 11000 10999 10996 ] final   33.69 input  -57.11 | X-H torsion

> <Gold.Protein.ActiveResidues>
 VAL166  LYS551  ARG553  GLY616  TRP617  ASP618  TYR619  PRO620  LYS621  CYS622 
 ASP623  PHE694  ASN695  SER759  ASP760  ASP761  ALA762  ILE779  LEU786  VAL792 
 PHE793  MET794  SER795  GLU796  ALA797  LYS798  CYS799  TRP800  GLU811  SER814 

> <Gold.Protein.RotatedAtoms>
  150.7149  134.0755  159.3879 H   0  0  0  0  0  0  0  0  0  0  0  0  # atno 6907 bound_to 6896
  151.8738  135.0477  160.0491 H   0  0  0  0  0  0  0  0  0  0  0  0  # atno 6908 bound_to 6896
  152.2622  133.5272  159.5425 H   0  0  0  0  0  0  0  0  0  0  0  0  # atno 6909 bound_to 6896
  145.0385  140.8125  143.4281 H   0  0  0  0  0  0  0  0  0  0  0  0  # atno 7974 bound_to 7965
  155.8380  140.0944  157.1752 H   0  0  0  0  0  0  0  0  0  0  0  0  # atno 8008 bound_to 7997
  154.3981  140.1406  156.3755 H   0  0  0  0  0  0  0  0  0  0  0  0  # atno 8009 bound_to 7997
  155.8095  140.3450  155.5451 H   0  0  0  0  0  0  0  0  0  0  0  0  # atno 8010 bound_to 7997
  139.5871  144.1294  152.1589 H   0  0  0  0  0  0  0  0  0  0  0  0  # atno 10167 bound_to 10162
  156.7443  130.9354  151.3112 H   0  0  0  0  0  0  0  0  0  0  0  0  # atno 10718 bound_to 10713
  153.5626  135.7009  153.5540 H   0  0  0  0  0  0  0  0  0  0  0  0  # atno 10763 bound_to 10752
  153.3416  135.4019  155.1576 H   0  0  0  0  0  0  0  0  0  0  0  0  # atno 10764 bound_to 10752
  154.8645  135.3743  154.5144 H   0  0  0  0  0  0  0  0  0  0  0  0  # atno 10765 bound_to 10752
  140.2605  134.3198  155.7859 H   0  0  0  0  0  0  0  0  0  0  0  0  # atno 11005 bound_to 11000
  145.1678  139.2421  143.5358 LP  0  0  0  0  0  0  0  0  0  0  0  0  # atno 17320 bound_to 7965
  146.3507  140.1422  142.8594 LP  0  0  0  0  0  0  0  0  0  0  0  0  # atno 17321 bound_to 7965
  140.0860  144.5661  150.7088 LP  0  0  0  0  0  0  0  0  0  0  0  0  # atno 17342 bound_to 10162
  140.7141  143.2529  151.4489 LP  0  0  0  0  0  0  0  0  0  0  0  0  # atno 17343 bound_to 10162
  157.6805  130.9135  150.0255 LP  0  0  0  0  0  0  0  0  0  0  0  0  # atno 17370 bound_to 10713
  156.1443  130.3642  149.9534 LP  0  0  0  0  0  0  0  0  0  0  0  0  # atno 17371 bound_to 10713
  141.2191  133.7407  156.9179 LP  0  0  0  0  0  0  0  0  0  0  0  0  # atno 17394 bound_to 11000
  140.1469  134.9256  157.2541 LP  0  0  0  0  0  0  0  0  0  0  0  0  # atno 17395 bound_to 11000

$$$$
