AV-unprocessed.smi:2746|AV-procd|sdf|10576|dock8
  -GOLD-   2272015 33D 1   1.00000     0.00000
 Structure written by MMmdl.
 38 39  0  0  0  0  0  0  0  0  3 V2000
  152.5643  144.9141  158.1329 C   0  0  0  0  0  0  0  0  0  0  0  0
  152.6010  144.0223  159.1370 C   0  0  0  0  0  0  0  0  0  0  0  0
  152.7873  142.5235  158.9747 C   0  0  1  0  0  0  0  0  0  0  0  0
  152.8506  141.8460  160.3507 C   0  0  0  0  0  0  0  0  0  0  0  0
  151.7382  141.8761  158.1877 N   0  5  0  0  0  0  0  0  0  0  0  0
  151.9200  140.7462  157.4420 C   0  0  0  0  0  0  0  0  0  0  0  0
  152.8039  139.8867  157.5316 O   0  0  0  0  0  0  0  0  0  0  0  0
  150.8649  140.5673  156.3757 C   0  0  0  0  0  0  0  0  0  0  0  0
  149.7302  141.4110  156.3139 C   0  0  0  0  0  0  0  0  0  0  0  0
  148.7603  141.2192  155.3015 C   0  0  0  0  0  0  0  0  0  0  0  0
  147.6239  142.0334  155.1999 N   0  0  0  0  0  0  0  0  0  0  0  0
  147.1225  142.1687  153.8379 C   0  0  0  0  0  0  0  0  0  0  0  0
  145.9563  143.1717  153.8051 C   0  0  0  0  0  0  0  0  0  0  0  0
  144.9433  142.7554  154.7165 O   0  0  0  0  0  0  0  0  0  0  0  0
  145.4212  142.6954  156.0576 C   0  0  0  0  0  0  0  0  0  0  0  0
  146.5755  141.6822  156.1497 C   0  0  0  0  0  0  0  0  0  0  0  0
  148.9469  140.1797  154.3663 C   0  0  0  0  0  0  0  0  0  0  0  0
  150.0901  139.3639  154.4652 C   0  0  0  0  0  0  0  0  0  0  0  0
  150.9883  139.5859  155.4473 N   0  3  0  0  0  0  0  0  0  0  0  0
  152.6669  144.6233  157.0962 H   0  0  0  0  0  0  0  0  0  0  0  0
  152.4277  145.9649  158.3411 H   0  0  0  0  0  0  0  0  0  0  0  0
  152.4891  144.3773  160.1510 H   0  0  0  0  0  0  0  0  0  0  0  0
  153.7635  142.3749  158.5095 H   0  0  0  0  0  0  0  0  0  0  0  0
  153.6497  142.2708  160.9588 H   0  0  0  0  0  0  0  0  0  0  0  0
  153.0470  140.7772  160.2565 H   0  0  0  0  0  0  0  0  0  0  0  0
  151.9162  141.9669  160.9006 H   0  0  0  0  0  0  0  0  0  0  0  0
  149.6028  142.2043  157.0362 H   0  0  0  0  0  0  0  0  0  0  0  0
  147.9243  142.5049  153.1795 H   0  0  0  0  0  0  0  0  0  0  0  0
  146.7842  141.2003  153.4672 H   0  0  0  0  0  0  0  0  0  0  0  0
  146.2992  144.1760  154.0592 H   0  0  0  0  0  0  0  0  0  0  0  0
  145.5325  143.2238  152.8022 H   0  0  0  0  0  0  0  0  0  0  0  0
  145.7448  143.6851  156.3843 H   0  0  0  0  0  0  0  0  0  0  0  0
  144.6037  142.3950  156.7130 H   0  0  0  0  0  0  0  0  0  0  0  0
  146.2029  140.6792  155.9373 H   0  0  0  0  0  0  0  0  0  0  0  0
  146.9813  141.6687  157.1621 H   0  0  0  0  0  0  0  0  0  0  0  0
  148.2239  140.0094  153.5818 H   0  0  0  0  0  0  0  0  0  0  0  0
  150.3139  138.5475  153.7946 H   0  0  0  0  0  0  0  0  0  0  0  0
  151.8145  138.9888  155.5068 H   0  0  0  0  0  0  0  0  0  0  0  0
  1  2  2  0  0  0  0
  1 20  1  0  0  0  0
  1 21  1  0  0  0  0
  2  3  1  0  0  0  0
  2 22  1  0  0  0  0
  3  4  1  0  0  0  0
  3  5  1  0  0  0  0
  3 23  1  0  0  0  0
  4 24  1  0  0  0  0
  4 25  1  0  0  0  0
  4 26  1  0  0  0  0
  5  6  1  0  0  0  0
  6  7  2  0  0  0  0
  6  8  1  0  0  0  0
  8 19  1  0  0  0  0
  8  9  2  0  0  0  0
  9 10  1  0  0  0  0
  9 27  1  0  0  0  0
 10 11  1  0  0  0  0
 10 17  2  0  0  0  0
 11 16  1  0  0  0  0
 11 12  1  0  0  0  0
 12 13  1  0  0  0  0
 12 28  1  0  0  0  0
 12 29  1  0  0  0  0
 13 14  1  0  0  0  0
 13 30  1  0  0  0  0
 13 31  1  0  0  0  0
 14 15  1  0  0  0  0
 15 16  1  0  0  0  0
 15 32  1  0  0  0  0
 15 33  1  0  0  0  0
 16 34  1  0  0  0  0
 16 35  1  0  0  0  0
 17 18  1  0  0  0  0
 17 36  1  0  0  0  0
 18 19  2  0  0  0  0
 18 37  1  0  0  0  0
 19 38  1  0  0  0  0
M  CHG  1   5  -1
M  CHG  1  19   1
M  END
> <s_m_source_file>
AV-unprocessed.smi

> <i_m_source_file_index>
2746

> <i_lp_mmshare_version>
43012

> <i_f3d_flags>
0

> <s_epik_input>
W0NIMl09W0NIXVtDQEhdKFtDSDNdKVtOSF1DKD1PKWMxW2NIXWMoW2NIXVtjSF1uMSlOMltDSDJdW0NIMl1PW0NIMl1bQ0gyXTI=

> <s_epik_cmdline>
J2VwaWtfcHl0aG9uJywgJy1waCcsICc3LjAnLCAnLXRuJywgJzgnLCAnLW1hJywgJzIwMCcsICctbWV0YWxfYmluZGluZycsICctaW1hZScsICc8aW5maWxlLm1hZT4nLCAnLW9tYWUnLCAnPG91dGZpbGUubWFlPic=

> <r_lp_tautomer_probability>
1

> <r_epik_Ionization_Penalty>
4.23471

> <r_epik_Ionization_Penalty_Charging>
4.23471

> <r_epik_Ionization_Penalty_Neutral>
3.18831e-12

> <r_epik_State_Penalty>
4.68748

> <r_epik_Charging_Adjusted_Penalty>
8.92219

> <i_epik_Tot_Q>
0

> <i_epik_Tot_abs_Q>
2

> <r_epik_Metal_State_Penalty>
1.16626

> <b_epik_Metal_Only>
1

> <s_lp_Force_Field>
OPLS_2005

> <r_lp_Energy>
17.3094

> <b_lp_Chiralities_Consistent>
1

> <s_lp_Variant>
AV-unprocessed.smi:2746-6

> <Gold.Version>
5.8.1

> <Gold.Id.Protein>
6NUR|6NUR_protein|mol2

> <Gold.PLP.Fitness>
41.9401

> <Gold.PLP.PLP>
-40.9865

> <Gold.PLP.part.hbond>
-1.0000

> <Gold.PLP.part.metal>
0.0000

> <Gold.PLP.part.buried>
-6.3806

> <Gold.PLP.part.nonpolar>
-34.2276

> <Gold.PLP.part.repulsive>
1.1953

> <Gold.PLP.ligand.clash>
0.0000

> <Gold.PLP.ligand.torsion>
1.1234

> <Gold.PLP.Chemscore.Hbond>
1.0000

> <Gold.PLP.Chemscore.CHOScore>
0.0000

> <Gold.PLP.Chemscore.Metal>
0.0000

> <Gold.Chemscore.Hbonds>
donor molecule, donor type, donor heavy atom, donor atom, acceptor molecule, acceptor atom, score
      P1  H  7997  8008       L1     7  1.00

> <Gold.PLP.Chemscore.Internal.Correction>
0.2004

> <Gold.Rescore>
     Score         DG    S(hbond)    S(metal)    S(lipo)     H(rot)  DE(clash)    DE(int)     intcor
     16.88     -17.71       0.99        0.00     104.16       1.27       0.16       0.66       ----

> <Gold.Chemscore.Fitness>
16.8836

> <Gold.Chemscore.DG>
-17.7094

> <Gold.Chemscore.ZeroCoef>
-5.4800

> <Gold.Chemscore.Hbond>
0.9895

> <Gold.Chemscore.Metal>
0.0000

> <Gold.Chemscore.Lipo>
104.1573

> <Gold.Chemscore.Internal_Hbond>
0.0000

> <Gold.Chemscore.DEClash>
0.1635

> <Gold.Chemscore.DEInternal>
0.6623

> <Gold.Chemscore.Rot>
1.2742

> <Gold.Chemscore.Internal.Correction>
   9.000000E+99

> <Gold.Chemscore.Hbonds>
donor molecule, donor type, donor heavy atom, donor atom, acceptor molecule, acceptor atom, score
      P1  H  7997  8008       L1     7  0.98

> <Gold.Chemscore.Hbond.Weighted>
-3.3049

> <Gold.Chemscore.Metal.Weighted>
-0.0000

> <Gold.Chemscore.Lipo.Weighted>
-12.1864

> <Gold.Chemscore.Internal_Hbond.Weighted>
0.0000

> <Gold.Chemscore.DEClash.Weighted>
0.1635

> <Gold.Chemscore.DEInternal.Weighted>
0.6623

> <Gold.Chemscore.Rot.Weighted>
3.2619

> <Gold.Chemscore.Internal.Correction.Weighted>
   9.000000E+99

> <Gold.Protein.RotatedTorsions>
[ 6907 6896 6895 6894 ] final  163.65 input  -60.11 | X-H torsion
[ 7974 7965 7964 7962 ] final   67.90 input  175.53 | X-H torsion
[ 8008 7997 7996 7995 ] final  -61.94 input   59.86 | X-H torsion
[ 10167 10162 10161 10158 ] final   64.47 input  -65.29 | X-H torsion
[ 10718 10713 10712 10709 ] final   83.29 input   66.30 | X-H torsion
[ 10763 10752 10751 10750 ] final   26.10 input  -60.55 | X-H torsion
[ 11005 11000 10999 10996 ] final   36.85 input  -57.11 | X-H torsion

> <Gold.Protein.ActiveResidues>
 VAL166  LYS551  ARG553  GLY616  TRP617  ASP618  TYR619  PRO620  LYS621  CYS622 
 ASP623  PHE694  ASN695  SER759  ASP760  ASP761  ALA762  ILE779  LEU786  VAL792 
 PHE793  MET794  SER795  GLU796  ALA797  LYS798  CYS799  TRP800  GLU811  SER814 

> <Gold.Protein.RotatedAtoms>
  151.9219  133.3588  159.3899 H   0  0  0  0  0  0  0  0  0  0  0  0  # atno 6907 bound_to 6896
  150.7035  134.4626  159.5397 H   0  0  0  0  0  0  0  0  0  0  0  0  # atno 6908 bound_to 6896
  152.2251  134.8376  160.0532 H   0  0  0  0  0  0  0  0  0  0  0  0  # atno 6909 bound_to 6896
  145.8090  139.3022  143.1110 H   0  0  0  0  0  0  0  0  0  0  0  0  # atno 7974 bound_to 7965
  154.4474  140.1007  156.6510 H   0  0  0  0  0  0  0  0  0  0  0  0  # atno 8008 bound_to 7997
  155.5398  140.3483  155.4426 H   0  0  0  0  0  0  0  0  0  0  0  0  # atno 8009 bound_to 7997
  156.0605  140.1325  156.9935 H   0  0  0  0  0  0  0  0  0  0  0  0  # atno 8010 bound_to 7997
  140.1218  144.4724  150.6916 H   0  0  0  0  0  0  0  0  0  0  0  0  # atno 10167 bound_to 10162
  157.6875  131.0084  150.2501 H   0  0  0  0  0  0  0  0  0  0  0  0  # atno 10718 bound_to 10713
  153.0646  135.6568  154.0385 H   0  0  0  0  0  0  0  0  0  0  0  0  # atno 10763 bound_to 10752
  154.0045  135.2934  155.3400 H   0  0  0  0  0  0  0  0  0  0  0  0  # atno 10764 bound_to 10752
  154.6998  135.5249  153.8579 H   0  0  0  0  0  0  0  0  0  0  0  0  # atno 10765 bound_to 10752
  140.2284  134.3557  155.7974 H   0  0  0  0  0  0  0  0  0  0  0  0  # atno 11005 bound_to 11000
  145.9797  140.8693  143.0121 LP  0  0  0  0  0  0  0  0  0  0  0  0  # atno 17320 bound_to 7965
  144.6759  140.2062  143.7382 LP  0  0  0  0  0  0  0  0  0  0  0  0  # atno 17321 bound_to 7965
  140.6867  143.2354  151.5240 LP  0  0  0  0  0  0  0  0  0  0  0  0  # atno 17342 bound_to 10162
  139.5564  144.2264  152.1620 LP  0  0  0  0  0  0  0  0  0  0  0  0  # atno 17343 bound_to 10162
  156.3099  130.3770  149.7671 LP  0  0  0  0  0  0  0  0  0  0  0  0  # atno 17370 bound_to 10713
  156.5275  130.8242  151.3225 LP  0  0  0  0  0  0  0  0  0  0  0  0  # atno 17371 bound_to 10713
  141.2219  133.7232  156.8691 LP  0  0  0  0  0  0  0  0  0  0  0  0  # atno 17394 bound_to 11000
  140.1776  134.9056  157.2909 LP  0  0  0  0  0  0  0  0  0  0  0  0  # atno 17395 bound_to 11000

$$$$
