AV-unprocessed.smi:2200|AV-procd|sdf|8925|dock3
  -GOLD-   2272012143D 1   1.00000     0.00000
 Structure written by MMmdl.
 31 31  0  0  0  0  0  0  0  0  1 V2000
  152.8510  144.6120  157.9906 C   0  0  0  0  0  0  0  0  0  0  0  0
  151.5101  144.8976  158.6818 C   0  0  0  0  0  0  0  0  0  0  0  0
  151.7350  145.5151  160.0733 C   0  0  0  0  0  0  0  0  0  0  0  0
  150.6404  143.6225  158.7350 C   0  0  0  0  0  0  0  0  0  0  0  0
  150.3927  143.0576  157.4127 N   0  0  0  0  0  0  0  0  0  0  0  0
  150.6381  141.7875  157.0577 C   0  0  0  0  0  0  0  0  0  0  0  0
  151.0663  140.9390  157.8412 O   0  0  0  0  0  0  0  0  0  0  0  0
  150.3389  141.4207  155.5976 C   0  0  0  0  0  0  0  0  0  0  0  0
  150.4619  139.9785  155.3411 N   0  0  0  0  0  0  0  0  0  0  0  0
  149.4065  139.2714  154.7827 C   0  0  0  0  0  0  0  0  0  0  0  0
  149.4496  137.9411  154.5331 C   0  0  0  0  0  0  0  0  0  0  0  0
  150.6454  137.1681  154.8512 C   0  0  0  0  0  0  0  0  0  0  0  0
  150.7810  135.9614  154.6614 O   0  0  0  0  0  0  0  0  0  0  0  0
  151.6843  137.9145  155.4136 N   0  0  0  0  0  0  0  0  0  0  0  0
  151.6463  139.2852  155.6744 C   0  0  0  0  0  0  0  0  0  0  0  0
  152.6191  139.8465  156.1773 O   0  0  0  0  0  0  0  0  0  0  0  0
  152.5319  137.4211  155.6534 H   0  0  0  0  0  0  0  0  0  0  0  0
  153.4376  143.8817  158.5491 H   0  0  0  0  0  0  0  0  0  0  0  0
  153.4477  145.5203  157.9001 H   0  0  0  0  0  0  0  0  0  0  0  0
  152.6988  144.2189  156.9850 H   0  0  0  0  0  0  0  0  0  0  0  0
  150.9895  145.6391  158.0746 H   0  0  0  0  0  0  0  0  0  0  0  0
  152.2333  144.8128  160.7426 H   0  0  0  0  0  0  0  0  0  0  0  0
  150.7946  145.8108  160.5395 H   0  0  0  0  0  0  0  0  0  0  0  0
  152.3559  146.4089  160.0084 H   0  0  0  0  0  0  0  0  0  0  0  0
  151.1075  142.8688  159.3714 H   0  0  0  0  0  0  0  0  0  0  0  0
  149.6754  143.8499  159.1892 H   0  0  0  0  0  0  0  0  0  0  0  0
  150.0329  143.6860  156.7088 H   0  0  0  0  0  0  0  0  0  0  0  0
  149.3312  141.7660  155.3624 H   0  0  0  0  0  0  0  0  0  0  0  0
  150.9978  141.9758  154.9264 H   0  0  0  0  0  0  0  0  0  0  0  0
  148.4980  139.8019  154.5350 H   0  0  0  0  0  0  0  0  0  0  0  0
  148.5941  137.4455  154.0971 H   0  0  0  0  0  0  0  0  0  0  0  0
  1  2  1  0  0  0  0
  1 18  1  0  0  0  0
  1 19  1  0  0  0  0
  1 20  1  0  0  0  0
  2  3  1  0  0  0  0
  2  4  1  0  0  0  0
  2 21  1  0  0  0  0
  3 22  1  0  0  0  0
  3 23  1  0  0  0  0
  3 24  1  0  0  0  0
  4  5  1  0  0  0  0
  4 25  1  0  0  0  0
  4 26  1  0  0  0  0
  5  6  1  0  0  0  0
  5 27  1  0  0  0  0
  6  7  2  0  0  0  0
  6  8  1  0  0  0  0
  8  9  1  0  0  0  0
  8 28  1  0  0  0  0
  8 29  1  0  0  0  0
  9 15  1  0  0  0  0
  9 10  1  0  0  0  0
 10 11  2  0  0  0  0
 10 30  1  0  0  0  0
 11 12  1  0  0  0  0
 11 31  1  0  0  0  0
 12 13  2  0  0  0  0
 12 14  1  0  0  0  0
 14 17  1  0  0  0  0
 14 15  1  0  0  0  0
 15 16  2  0  0  0  0
M  END
> <s_m_source_file>
AV-unprocessed.smi

> <i_m_source_file_index>
2200

> <i_lp_mmshare_version>
43012

> <i_f3d_flags>
0

> <s_epik_input>
W0NIM11bQ0hdKFtDSDNdKVtDSDJdW05IXUMoPU8pW0NIMl1uMVtjSF1bY0hdYyg9TylbbkhdYzE9Tw==

> <s_epik_cmdline>
J2VwaWtfcHl0aG9uJywgJy1waCcsICc3LjAnLCAnLXRuJywgJzgnLCAnLW1hJywgJzIwMCcsICctbWV0YWxfYmluZGluZycsICctaW1hZScsICc8aW5maWxlLm1hZT4nLCAnLW9tYWUnLCAnPG91dGZpbGUubWFlPic=

> <r_lp_tautomer_probability>
0.999537

> <r_epik_Ionization_Penalty>
0.00328917

> <r_epik_Ionization_Penalty_Charging>
0.00328916

> <r_epik_Ionization_Penalty_Neutral>
1.93017e-08

> <r_epik_State_Penalty>
0.00232387

> <r_epik_Charging_Adjusted_Penalty>
0.00561303

> <i_epik_Tot_Q>
0

> <i_epik_Tot_abs_Q>
0

> <r_epik_Metal_State_Penalty>
0.365274

> <b_epik_Metal_Only>
0

> <s_lp_Force_Field>
OPLS_2005

> <r_lp_Energy>
3.18145

> <b_lp_Chiralities_Consistent>
1

> <s_lp_Variant>
AV-unprocessed.smi:2200-1

> <Gold.Version>
5.8.1

> <Gold.Id.Protein>
6NUR|6NUR_protein|mol2

> <Gold.PLP.Fitness>
44.0452

> <Gold.PLP.PLP>
-35.2510

> <Gold.PLP.part.hbond>
-3.0000

> <Gold.PLP.part.metal>
0.0000

> <Gold.PLP.part.buried>
-2.6675

> <Gold.PLP.part.nonpolar>
-28.7658

> <Gold.PLP.part.repulsive>
0.3281

> <Gold.PLP.ligand.clash>
0.0000

> <Gold.PLP.ligand.torsion>
0.1069

> <Gold.PLP.Chemscore.Hbond>
3.0000

> <Gold.PLP.Chemscore.CHOScore>
0.0000

> <Gold.PLP.Chemscore.Metal>
0.0000

> <Gold.Chemscore.Hbonds>
donor molecule, donor type, donor heavy atom, donor atom, acceptor molecule, acceptor atom, score
      L1  H     5    27       P1  8028  1.00
      P1  H  7997  8010       L1    16  1.00
      P1  H 10752 10765       L1    13  0.59

> <Gold.PLP.Chemscore.Internal.Correction>
0.0079

> <Gold.Rescore>
     Score         DG    S(hbond)    S(metal)    S(lipo)     H(rot)  DE(clash)    DE(int)     intcor
     12.80     -17.07       2.76        0.00      64.49       2.01       0.04       4.24       ----

> <Gold.Chemscore.Fitness>
12.7978

> <Gold.Chemscore.DG>
-17.0748

> <Gold.Chemscore.ZeroCoef>
-5.4800

> <Gold.Chemscore.Hbond>
2.7567

> <Gold.Chemscore.Metal>
0.0000

> <Gold.Chemscore.Lipo>
64.4930

> <Gold.Chemscore.Internal_Hbond>
0.0000

> <Gold.Chemscore.DEClash>
0.0372

> <Gold.Chemscore.DEInternal>
4.2398

> <Gold.Chemscore.Rot>
2.0150

> <Gold.Chemscore.Internal.Correction>
   9.000000E+99

> <Gold.Chemscore.Hbonds>
donor molecule, donor type, donor heavy atom, donor atom, acceptor molecule, acceptor atom, score
      L1  H     5    27       P1  8028  1.00
      P1  H  7997  8010       L1    16  0.98
      P1  H 10752 10765       L1    13  0.35

> <Gold.Chemscore.Hbond.Weighted>
-9.2074

> <Gold.Chemscore.Metal.Weighted>
-0.0000

> <Gold.Chemscore.Lipo.Weighted>
-7.5457

> <Gold.Chemscore.Internal_Hbond.Weighted>
0.0000

> <Gold.Chemscore.DEClash.Weighted>
0.0372

> <Gold.Chemscore.DEInternal.Weighted>
4.2398

> <Gold.Chemscore.Rot.Weighted>
5.1583

> <Gold.Chemscore.Internal.Correction.Weighted>
   9.000000E+99

> <Gold.Protein.RotatedTorsions>
[ 6907 6896 6895 6894 ] final  -54.55 input  -60.11 | X-H torsion
[ 7974 7965 7964 7962 ] final -156.04 input  175.53 | X-H torsion
[ 8008 7997 7996 7995 ] final   93.80 input   59.86 | X-H torsion
[ 10167 10162 10161 10158 ] final  141.86 input  -65.29 | X-H torsion
[ 10718 10713 10712 10709 ] final   25.81 input   66.30 | X-H torsion
[ 10763 10752 10751 10750 ] final -176.06 input  -60.55 | X-H torsion
[ 11005 11000 10999 10996 ] final   27.08 input  -57.11 | X-H torsion

> <Gold.Protein.ActiveResidues>
 VAL166  LYS551  ARG553  GLY616  TRP617  ASP618  TYR619  PRO620  LYS621  CYS622 
 ASP623  PHE694  ASN695  SER759  ASP760  ASP761  ALA762  ILE779  LEU786  VAL792 
 PHE793  MET794  SER795  GLU796  ALA797  LYS798  CYS799  TRP800  GLU811  SER814 

> <Gold.Protein.RotatedAtoms>
  150.8328  134.7589  159.6867 H   0  0  0  0  0  0  0  0  0  0  0  0  # atno 6907 bound_to 6896
  152.4430  134.5549  159.9887 H   0  0  0  0  0  0  0  0  0  0  0  0  # atno 6908 bound_to 6896
  151.5706  133.3353  159.3024 H   0  0  0  0  0  0  0  0  0  0  0  0  # atno 6909 bound_to 6896
  144.7611  140.4165  143.5975 H   0  0  0  0  0  0  0  0  0  0  0  0  # atno 7974 bound_to 7965
  156.0508  140.3308  155.7349 H   0  0  0  0  0  0  0  0  0  0  0  0  # atno 8008 bound_to 7997
  155.5603  140.0618  157.2848 H   0  0  0  0  0  0  0  0  0  0  0  0  # atno 8009 bound_to 7997
  154.4435  140.1878  156.0764 H   0  0  0  0  0  0  0  0  0  0  0  0  # atno 8010 bound_to 7997
  139.5009  144.6145  151.6196 H   0  0  0  0  0  0  0  0  0  0  0  0  # atno 10167 bound_to 10162
  157.1983  130.6878  149.6178 H   0  0  0  0  0  0  0  0  0  0  0  0  # atno 10718 bound_to 10713
  154.5769  135.2833  155.0772 H   0  0  0  0  0  0  0  0  0  0  0  0  # atno 10763 bound_to 10752
  154.2123  135.6406  153.5123 H   0  0  0  0  0  0  0  0  0  0  0  0  # atno 10764 bound_to 10752
  153.0075  135.5494  154.6410 H   0  0  0  0  0  0  0  0  0  0  0  0  # atno 10765 bound_to 10752
  140.3301  134.2447  155.7703 H   0  0  0  0  0  0  0  0  0  0  0  0  # atno 11005 bound_to 11000
  145.6616  139.1582  143.2805 LP  0  0  0  0  0  0  0  0  0  0  0  0  # atno 17320 bound_to 7965
  146.1675  140.6695  142.9248 LP  0  0  0  0  0  0  0  0  0  0  0  0  # atno 17321 bound_to 7965
  140.5828  143.9915  150.6278 LP  0  0  0  0  0  0  0  0  0  0  0  0  # atno 17342 bound_to 10162
  140.3070  143.3223  152.0916 LP  0  0  0  0  0  0  0  0  0  0  0  0  # atno 17343 bound_to 10162
  155.9703  130.4591  150.6024 LP  0  0  0  0  0  0  0  0  0  0  0  0  # atno 17370 bound_to 10713
  157.3792  131.0778  151.1491 LP  0  0  0  0  0  0  0  0  0  0  0  0  # atno 17371 bound_to 10713
  141.2065  133.7830  157.0171 LP  0  0  0  0  0  0  0  0  0  0  0  0  # atno 17394 bound_to 11000
  140.0868  134.9616  157.1712 LP  0  0  0  0  0  0  0  0  0  0  0  0  # atno 17395 bound_to 11000

$$$$
