AV-unprocessed.smi:2457|AV-procd|sdf|9705|dock4
  -GOLD-   2272013343D 1   1.00000     0.00000
 Structure written by MMmdl.
 40 41  0  0  0  0  0  0  0  0  1 V2000
  155.0547  132.5918  159.2583 C   0  0  0  0  0  0  0  0  0  0  0  0
  155.0708  133.3784  160.5309 C   0  0  0  0  0  0  0  0  0  0  0  0
  155.5961  132.9875  161.7371 C   0  0  0  0  0  0  0  0  0  0  0  0
  155.4052  134.2161  162.9573 S   0  0  0  0  0  0  0  0  0  0  0  0
  154.6071  135.2350  161.7634 C   0  0  0  0  0  0  0  0  0  0  0  0
  154.0705  136.5984  162.0786 C   0  0  1  0  0  0  0  0  0  0  0  0
  154.1368  136.9151  163.5794 C   0  0  0  0  0  0  0  0  0  0  0  0
  154.6834  137.7118  161.1996 C   0  0  0  0  0  0  0  0  0  0  0  0
  153.7326  138.7739  160.8810 N   0  0  0  0  0  0  0  0  0  0  0  0
  153.8664  139.6464  159.8732 C   0  0  0  0  0  0  0  0  0  0  0  0
  154.7943  139.6283  159.0642 O   0  0  0  0  0  0  0  0  0  0  0  0
  152.8817  140.5552  159.8685 N   0  0  0  0  0  0  0  0  0  0  0  0
  152.7748  141.6735  158.9364 C   0  0  2  0  0  0  0  0  0  0  0  0
  152.9490  143.0079  159.6913 C   0  0  0  0  0  0  0  0  0  0  0  0
  152.9031  144.2265  158.7561 C   0  0  0  0  0  0  0  0  0  0  0  0
  151.5647  144.3432  158.0130 C   0  0  0  0  0  0  0  0  0  0  0  0
  151.2742  142.9021  156.9511 S   0  0  0  0  0  0  0  0  0  0  0  0
  151.4215  141.6023  158.2080 C   0  0  0  0  0  0  0  0  0  0  0  0
  154.5060  134.6563  160.5628 N   0  0  0  0  0  0  0  0  0  0  0  0
  155.5686  131.6372  159.3728 H   0  0  0  0  0  0  0  0  0  0  0  0
  155.5487  133.1367  158.4535 H   0  0  0  0  0  0  0  0  0  0  0  0
  154.0341  132.3811  158.9384 H   0  0  0  0  0  0  0  0  0  0  0  0
  156.0835  132.0554  161.9815 H   0  0  0  0  0  0  0  0  0  0  0  0
  153.0080  136.5622  161.8349 H   0  0  0  0  0  0  0  0  0  0  0  0
  153.6079  136.1612  164.1632 H   0  0  0  0  0  0  0  0  0  0  0  0
  153.6807  137.8813  163.7967 H   0  0  0  0  0  0  0  0  0  0  0  0
  155.1679  136.9475  163.9326 H   0  0  0  0  0  0  0  0  0  0  0  0
  155.5689  138.1343  161.6769 H   0  0  0  0  0  0  0  0  0  0  0  0
  155.0180  137.2861  160.2534 H   0  0  0  0  0  0  0  0  0  0  0  0
  152.9377  138.8720  161.4954 H   0  0  0  0  0  0  0  0  0  0  0  0
  152.1687  140.4870  160.5798 H   0  0  0  0  0  0  0  0  0  0  0  0
  153.5653  141.5834  158.1884 H   0  0  0  0  0  0  0  0  0  0  0  0
  152.1775  143.1049  160.4565 H   0  0  0  0  0  0  0  0  0  0  0  0
  153.9028  143.0097  160.2203 H   0  0  0  0  0  0  0  0  0  0  0  0
  153.0695  145.1323  159.3401 H   0  0  0  0  0  0  0  0  0  0  0  0
  153.7216  144.1713  158.0372 H   0  0  0  0  0  0  0  0  0  0  0  0
  150.7420  144.4339  158.7229 H   0  0  0  0  0  0  0  0  0  0  0  0
  151.5540  145.2405  157.3940 H   0  0  0  0  0  0  0  0  0  0  0  0
  151.3045  140.6367  157.7146 H   0  0  0  0  0  0  0  0  0  0  0  0
  150.5982  141.7012  158.9164 H   0  0  0  0  0  0  0  0  0  0  0  0
  1  2  1  0  0  0  0
  1 20  1  0  0  0  0
  1 21  1  0  0  0  0
  1 22  1  0  0  0  0
  2 19  1  0  0  0  0
  2  3  2  0  0  0  0
  3  4  1  0  0  0  0
  3 23  1  0  0  0  0
  4  5  1  0  0  0  0
  5  6  1  0  0  0  0
  5 19  2  0  0  0  0
  6  7  1  0  0  0  0
  6  8  1  0  0  0  0
  6 24  1  0  0  0  0
  7 25  1  0  0  0  0
  7 26  1  0  0  0  0
  7 27  1  0  0  0  0
  8  9  1  0  0  0  0
  8 28  1  0  0  0  0
  8 29  1  0  0  0  0
  9 10  1  0  0  0  0
  9 30  1  0  0  0  0
 10 11  2  0  0  0  0
 10 12  1  0  0  0  0
 12 13  1  0  0  0  0
 12 31  1  0  0  0  0
 13 18  1  0  0  0  0
 13 14  1  0  0  0  0
 13 32  1  0  0  0  0
 14 15  1  0  0  0  0
 14 33  1  0  0  0  0
 14 34  1  0  0  0  0
 15 16  1  0  0  0  0
 15 35  1  0  0  0  0
 15 36  1  0  0  0  0
 16 17  1  0  0  0  0
 16 37  1  0  0  0  0
 16 38  1  0  0  0  0
 17 18  1  0  0  0  0
 18 39  1  0  0  0  0
 18 40  1  0  0  0  0
M  END
> <s_m_source_file>
AV-unprocessed.smi

> <i_m_source_file_index>
2457

> <i_lp_mmshare_version>
43012

> <i_f3d_flags>
0

> <s_epik_input>
W0NIM11jMVtjSF1zYyhuMSlbQ0BIXShbQ0gzXSlbQ0gyXVtOSF1DKD1PKVtOSF1bQ0BASF0yW0NIMl1bQ0gyXVtDSDJdU1tDSDJdMg==

> <s_epik_cmdline>
J2VwaWtfcHl0aG9uJywgJy1waCcsICc3LjAnLCAnLXRuJywgJzgnLCAnLW1hJywgJzIwMCcsICctbWV0YWxfYmluZGluZycsICctaW1hZScsICc8aW5maWxlLm1hZT4nLCAnLW9tYWUnLCAnPG91dGZpbGUubWFlPic=

> <r_epik_Ionization_Penalty>
0.00154805

> <r_epik_Ionization_Penalty_Charging>
0

> <r_epik_Ionization_Penalty_Neutral>
0.00154805

> <r_epik_State_Penalty>
0.00100357

> <r_epik_Charging_Adjusted_Penalty>
0.00100357

> <i_epik_Tot_Q>
0

> <i_epik_Tot_abs_Q>
0

> <r_epik_Metal_State_Penalty>
-0

> <b_epik_Metal_Only>
0

> <s_lp_Force_Field>
OPLS_2005

> <r_lp_Energy>
-7.39523

> <b_lp_Chiralities_Consistent>
1

> <s_lp_Variant>
AV-unprocessed.smi:2457-2

> <Gold.Version>
5.8.1

> <Gold.Id.Protein>
6NUR|6NUR_protein|mol2

> <Gold.PLP.Fitness>
39.2694

> <Gold.PLP.PLP>
-34.3846

> <Gold.PLP.part.hbond>
-2.0000

> <Gold.PLP.part.metal>
0.0000

> <Gold.PLP.part.buried>
-3.7082

> <Gold.PLP.part.nonpolar>
-29.3489

> <Gold.PLP.part.repulsive>
0.1503

> <Gold.PLP.ligand.clash>
0.0000

> <Gold.PLP.ligand.torsion>
0.6050

> <Gold.PLP.Chemscore.Hbond>
1.9913

> <Gold.PLP.Chemscore.CHOScore>
0.0000

> <Gold.PLP.Chemscore.Metal>
0.0000

> <Gold.Chemscore.Hbonds>
donor molecule, donor type, donor heavy atom, donor atom, acceptor molecule, acceptor atom, score
      P1  H  6896  6909       L1    19  0.96
      P1  H  7997  8009       L1    11  1.00

> <Gold.PLP.Chemscore.Internal.Correction>
0.1209

> <Gold.Rescore>
     Score         DG    S(hbond)    S(metal)    S(lipo)     H(rot)  DE(clash)    DE(int)     intcor
     19.05     -19.71       1.72        0.00     104.53       1.46       0.01       0.65       ----

> <Gold.Chemscore.Fitness>
19.0500

> <Gold.Chemscore.DG>
-19.7129

> <Gold.Chemscore.ZeroCoef>
-5.4800

> <Gold.Chemscore.Hbond>
1.7198

> <Gold.Chemscore.Metal>
0.0000

> <Gold.Chemscore.Lipo>
104.5343

> <Gold.Chemscore.Internal_Hbond>
0.0000

> <Gold.Chemscore.DEClash>
0.0089

> <Gold.Chemscore.DEInternal>
0.6540

> <Gold.Chemscore.Rot>
1.4616

> <Gold.Chemscore.Internal.Correction>
   9.000000E+99

> <Gold.Chemscore.Hbonds>
donor molecule, donor type, donor heavy atom, donor atom, acceptor molecule, acceptor atom, score
      P1  H  6896  6909       L1    19  0.45
      P1  H  7997  8009       L1    11  0.96

> <Gold.Chemscore.Hbond.Weighted>
-5.7440

> <Gold.Chemscore.Metal.Weighted>
-0.0000

> <Gold.Chemscore.Lipo.Weighted>
-12.2305

> <Gold.Chemscore.Internal_Hbond.Weighted>
0.0000

> <Gold.Chemscore.DEClash.Weighted>
0.0089

> <Gold.Chemscore.DEInternal.Weighted>
0.6540

> <Gold.Chemscore.Rot.Weighted>
3.7416

> <Gold.Chemscore.Internal.Correction.Weighted>
   9.000000E+99

> <Gold.Protein.RotatedTorsions>
[ 6907 6896 6895 6894 ] final -167.57 input  -60.11 | X-H torsion
[ 7974 7965 7964 7962 ] final   80.56 input  175.53 | X-H torsion
[ 8008 7997 7996 7995 ] final  101.98 input   59.86 | X-H torsion
[ 10167 10162 10161 10158 ] final   48.02 input  -65.29 | X-H torsion
[ 10718 10713 10712 10709 ] final  161.39 input   66.30 | X-H torsion
[ 10763 10752 10751 10750 ] final  124.50 input  -60.55 | X-H torsion
[ 11005 11000 10999 10996 ] final -119.36 input  -57.11 | X-H torsion

> <Gold.Protein.ActiveResidues>
 VAL166  LYS551  ARG553  GLY616  TRP617  ASP618  TYR619  PRO620  LYS621  CYS622 
 ASP623  PHE694  ASN695  SER759  ASP760  ASP761  ALA762  ILE779  LEU786  VAL792 
 PHE793  MET794  SER795  GLU796  ALA797  LYS798  CYS799  TRP800  GLU811  SER814 

> <Gold.Protein.RotatedAtoms>
  151.4617  133.3591  159.2809 H   0  0  0  0  0  0  0  0  0  0  0  0  # atno 6907 bound_to 6896
  150.9021  134.8436  159.7378 H   0  0  0  0  0  0  0  0  0  0  0  0  # atno 6908 bound_to 6896
  152.4885  134.4538  159.9635 H   0  0  0  0  0  0  0  0  0  0  0  0  # atno 6909 bound_to 6896
  145.6496  139.2444  143.1984 H   0  0  0  0  0  0  0  0  0  0  0  0  # atno 7974 bound_to 7965
  156.1350  140.3189  155.8407 H   0  0  0  0  0  0  0  0  0  0  0  0  # atno 8008 bound_to 7997
  155.4262  140.0515  157.3039 H   0  0  0  0  0  0  0  0  0  0  0  0  # atno 8009 bound_to 7997
  154.4929  140.2099  155.9521 H   0  0  0  0  0  0  0  0  0  0  0  0  # atno 8010 bound_to 7997
  140.2976  144.2972  150.6226 H   0  0  0  0  0  0  0  0  0  0  0  0  # atno 10167 bound_to 10162
  157.1372  131.0531  151.2344 H   0  0  0  0  0  0  0  0  0  0  0  0  # atno 10718 bound_to 10713
  153.6623  135.3344  155.3130 H   0  0  0  0  0  0  0  0  0  0  0  0  # atno 10763 bound_to 10752
  154.8511  135.4366  154.1791 H   0  0  0  0  0  0  0  0  0  0  0  0  # atno 10764 bound_to 10752
  153.2761  135.7005  153.7507 H   0  0  0  0  0  0  0  0  0  0  0  0  # atno 10765 bound_to 10752
  141.0221  134.0109  157.3267 H   0  0  0  0  0  0  0  0  0  0  0  0  # atno 11005 bound_to 11000
  146.1215  140.7303  142.9455 LP  0  0  0  0  0  0  0  0  0  0  0  0  # atno 17320 bound_to 7965
  144.7127  140.4099  143.7068 LP  0  0  0  0  0  0  0  0  0  0  0  0  # atno 17321 bound_to 7965
  140.5678  143.2184  151.7652 LP  0  0  0  0  0  0  0  0  0  0  0  0  # atno 17342 bound_to 10162
  139.4922  144.4259  151.9927 LP  0  0  0  0  0  0  0  0  0  0  0  0  # atno 17343 bound_to 10162
  157.4339  130.7506  149.7013 LP  0  0  0  0  0  0  0  0  0  0  0  0  # atno 17370 bound_to 10713
  155.9796  130.4039  150.3579 LP  0  0  0  0  0  0  0  0  0  0  0  0  # atno 17371 bound_to 10713
  139.9152  135.0196  156.7854 LP  0  0  0  0  0  0  0  0  0  0  0  0  # atno 17394 bound_to 11000
  140.6555  133.9692  155.7777 LP  0  0  0  0  0  0  0  0  0  0  0  0  # atno 17395 bound_to 11000

$$$$
