AV-unprocessed.smi:218|AV-procd|sdf|1673|dock10
  -GOLD-   2262020 93D 1   1.00000     0.00000
 Structure written by MMmdl.
 54 57  0  0  0  0  0  0  0  0  1 V2000
  152.9837  140.9402  158.5185 C   0  0  0  0  0  0  0  0  0  0  0  0
  151.4564  140.8136  158.4679 C   0  0  0  0  0  0  0  0  0  0  0  0
  151.0107  139.3583  158.6931 C   0  0  0  0  0  0  0  0  0  0  0  0
  151.0460  141.2641  157.1755 O   0  0  0  0  0  0  0  0  0  0  0  0
  149.7041  141.4290  156.8909 C   0  0  0  0  0  0  0  0  0  0  0  0
  149.3019  141.4130  155.5400 C   0  0  0  0  0  0  0  0  0  0  0  0
  147.9350  141.5788  155.2321 C   0  0  0  0  0  0  0  0  0  0  0  0
  147.4475  141.5673  153.7924 C   0  0  0  0  0  0  0  0  0  0  0  0
  147.6517  140.3100  153.0798 N   0  0  0  0  0  0  0  0  0  0  0  0
  147.0536  139.1743  153.5028 C   0  0  0  0  0  0  0  0  0  0  0  0
  146.8981  138.9136  154.8273 N   0  0  0  0  0  0  0  0  0  0  0  0
  146.2997  137.7851  155.2197 C   0  0  0  0  0  0  0  0  0  0  0  0
  145.7894  136.8070  154.4687 N   0  0  0  0  0  0  0  0  0  0  0  0
  145.9372  137.0662  153.1372 C   0  0  0  0  0  0  0  0  0  0  0  0
  146.5552  138.2199  152.5788 C   0  0  0  0  0  0  0  0  0  0  0  0
  146.5287  138.1446  151.1923 N   0  0  0  0  0  0  0  0  0  0  0  0
  145.9269  137.0111  150.9499 C   0  0  0  0  0  0  0  0  0  0  0  0
  145.5344  136.2999  152.0620 N   0  0  0  0  0  0  0  0  0  0  0  0
  144.8214  134.9874  152.0962 C   0  0  1  0  0  0  0  0  0  0  0  0
  144.2708  134.7573  150.8383 O   0  0  0  0  0  0  0  0  0  0  0  0
  144.3308  133.3675  150.5598 C   0  0  1  0  0  0  0  0  0  0  0  0
  144.1531  133.1026  149.0545 C   0  0  0  0  0  0  0  0  0  0  0  0
  142.9355  133.6533  148.5990 O   0  0  0  0  0  0  0  0  0  0  0  0
  145.6539  132.9168  151.1990 C   0  0  1  0  0  0  0  0  0  0  0  0
  146.7498  133.0802  150.3192 O   0  0  0  0  0  0  0  0  0  0  0  0
  145.7968  133.8377  152.4093 C   0  0  2  0  0  0  0  0  0  0  0  0
  145.4026  133.1434  153.5760 O   0  0  0  0  0  0  0  0  0  0  0  0
  147.0247  141.7656  156.2911 C   0  0  0  0  0  0  0  0  0  0  0  0
  147.5209  141.7683  157.6089 C   0  0  0  0  0  0  0  0  0  0  0  0
  148.8267  141.6067  157.9099 N   0  0  0  0  0  0  0  0  0  0  0  0
  144.0341  135.1114  152.8415 H   0  0  0  0  0  0  0  0  0  0  0  0
  143.5069  132.9023  151.1044 H   0  0  0  0  0  0  0  0  0  0  0  0
  145.6159  131.8620  151.4761 H   0  0  0  0  0  0  0  0  0  0  0  0
  146.8167  134.2051  152.5380 H   0  0  0  0  0  0  0  0  0  0  0  0
  153.3736  140.6182  159.4844 H   0  0  0  0  0  0  0  0  0  0  0  0
  153.2939  141.9740  158.3643 H   0  0  0  0  0  0  0  0  0  0  0  0
  153.4572  140.3325  157.7468 H   0  0  0  0  0  0  0  0  0  0  0  0
  151.0537  141.4538  159.2543 H   0  0  0  0  0  0  0  0  0  0  0  0
  151.3566  138.9895  159.6590 H   0  0  0  0  0  0  0  0  0  0  0  0
  151.4131  138.7008  157.9222 H   0  0  0  0  0  0  0  0  0  0  0  0
  149.9257  139.2599  158.6770 H   0  0  0  0  0  0  0  0  0  0  0  0
  150.0323  141.2716  154.7569 H   0  0  0  0  0  0  0  0  0  0  0  0
  146.3905  141.8346  153.7567 H   0  0  0  0  0  0  0  0  0  0  0  0
  147.9780  142.3504  153.2506 H   0  0  0  0  0  0  0  0  0  0  0  0
  148.3783  140.3166  152.3787 H   0  0  0  0  0  0  0  0  0  0  0  0
  146.2161  137.6467  156.2874 H   0  0  0  0  0  0  0  0  0  0  0  0
  145.7460  136.6618  149.9437 H   0  0  0  0  0  0  0  0  0  0  0  0
  144.9681  133.5668  148.4988 H   0  0  0  0  0  0  0  0  0  0  0  0
  144.1847  132.0366  148.8280 H   0  0  0  0  0  0  0  0  0  0  0  0
  142.4807  134.0284  149.3381 H   0  0  0  0  0  0  0  0  0  0  0  0
  147.2596  132.2845  150.3273 H   0  0  0  0  0  0  0  0  0  0  0  0
  144.7178  132.5352  153.3435 H   0  0  0  0  0  0  0  0  0  0  0  0
  145.9695  141.8978  156.1020 H   0  0  0  0  0  0  0  0  0  0  0  0
  146.8506  141.9051  158.4445 H   0  0  0  0  0  0  0  0  0  0  0  0
  1  2  1  0  0  0  0
  1 35  1  0  0  0  0
  1 36  1  0  0  0  0
  1 37  1  0  0  0  0
  2  3  1  0  0  0  0
  2  4  1  0  0  0  0
  2 38  1  0  0  0  0
  3 39  1  0  0  0  0
  3 40  1  0  0  0  0
  3 41  1  0  0  0  0
  4  5  1  0  0  0  0
  5 30  1  0  0  0  0
  5  6  2  0  0  0  0
  6  7  1  0  0  0  0
  6 42  1  0  0  0  0
  7  8  1  0  0  0  0
  7 28  2  0  0  0  0
  8  9  1  0  0  0  0
  8 43  1  0  0  0  0
  8 44  1  0  0  0  0
  9 10  1  0  0  0  0
  9 45  1  0  0  0  0
 10 15  1  0  0  0  0
 10 11  2  0  0  0  0
 11 12  1  0  0  0  0
 12 13  2  0  0  0  0
 12 46  1  0  0  0  0
 13 14  1  0  0  0  0
 14 18  1  0  0  0  0
 14 15  2  0  0  0  0
 15 16  1  0  0  0  0
 16 17  2  0  0  0  0
 17 18  1  0  0  0  0
 17 47  1  0  0  0  0
 18 19  1  0  0  0  0
 19 31  1  0  0  0  0
 19 26  1  0  0  0  0
 19 20  1  0  0  0  0
 20 21  1  0  0  0  0
 21 32  1  0  0  0  0
 21 22  1  0  0  0  0
 21 24  1  0  0  0  0
 22 23  1  0  0  0  0
 22 48  1  0  0  0  0
 22 49  1  0  0  0  0
 23 50  1  0  0  0  0
 24 33  1  0  0  0  0
 24 25  1  0  0  0  0
 24 26  1  0  0  0  0
 25 51  1  0  0  0  0
 26 34  1  0  0  0  0
 26 27  1  0  0  0  0
 27 52  1  0  0  0  0
 28 29  1  0  0  0  0
 28 53  1  0  0  0  0
 29 30  2  0  0  0  0
 29 54  1  0  0  0  0
M  END
> <s_m_source_file>
AV-unprocessed.smi

> <i_m_source_file_index>
218

> <i_lp_mmshare_version>
43012

> <i_f3d_flags>
0

> <s_epik_input>
W0NIM11bQ0hdKFtDSDNdKU9jMVtjSF1jKFtjSF1bY0hdbjEpW0NIMl1bTkhdYyhuW2NIXW4yKWMoYzIzKW5bY0hdbjNbQ0BASF00T1tDQEhdKFtDSDJdW09IXSlbQ0BASF0oW09IXSlbQ0BIXTRbT0hd

> <s_epik_cmdline>
J2VwaWtfcHl0aG9uJywgJy1waCcsICc3LjAnLCAnLXRuJywgJzgnLCAnLW1hJywgJzIwMCcsICctbWV0YWxfYmluZGluZycsICctaW1hZScsICc8aW5maWxlLm1hZT4nLCAnLW9tYWUnLCAnPG91dGZpbGUubWFlPic=

> <r_lp_tautomer_probability>
1

> <r_epik_Ionization_Penalty>
0.00457014

> <r_epik_Ionization_Penalty_Charging>
0

> <r_epik_Ionization_Penalty_Neutral>
0.00457014

> <r_epik_State_Penalty>
-0

> <r_epik_Charging_Adjusted_Penalty>
0

> <i_epik_Tot_Q>
0

> <i_epik_Tot_abs_Q>
0

> <r_epik_Metal_State_Penalty>
-0

> <b_epik_Metal_Only>
0

> <s_epik_Chemistry_Notes>
This compound contains an acetal/aminal-like group ( X-CH(R)-Y where X, Y are N, S, or O) that may be acid/base labile, releasing an aldehyde.

> <s_lp_Force_Field>
OPLS_2005

> <r_lp_Energy>
38.5835

> <b_lp_Chiralities_Consistent>
1

> <s_lp_Variant>
AV-unprocessed.smi:218-12

> <Gold.Version>
5.8.1

> <Gold.Id.Protein>
6NUR|6NUR_protein|mol2

> <Gold.PLP.Fitness>
57.2166

> <Gold.PLP.PLP>
-44.2259

> <Gold.PLP.part.hbond>
-5.8715

> <Gold.PLP.part.metal>
0.0000

> <Gold.PLP.part.buried>
-7.8444

> <Gold.PLP.part.nonpolar>
-33.6762

> <Gold.PLP.part.repulsive>
2.8622

> <Gold.PLP.ligand.clash>
0.0000

> <Gold.PLP.ligand.torsion>
1.1126

> <Gold.PLP.Chemscore.Hbond>
4.0000

> <Gold.PLP.Chemscore.CHOScore>
1.0000

> <Gold.PLP.Chemscore.Metal>
0.0000

> <Gold.Chemscore.Hbonds>
donor molecule, donor type, donor heavy atom, donor atom, acceptor molecule, acceptor atom, score
      L1  H     9    45       P1  7957  1.00
      L1  H    23    50       P1 10186  0.62
      L1  H    25    51       P1 10747  0.52
      P1  H  7954  7966       L1    16  0.73
      P1  H 10192 10197       L1    23  0.22
      L1  C    17    47       P1 10171  0.09

> <Gold.PLP.Chemscore.Internal.Correction>
0.2158

> <Gold.Rescore>
     Score         DG    S(hbond)    S(metal)    S(lipo)     H(rot)  DE(clash)    DE(int)     intcor
      9.46     -14.37       3.64        0.00      79.34       4.90       2.75       2.17       ----

> <Gold.Chemscore.Fitness>
9.4597

> <Gold.Chemscore.DG>
-14.3735

> <Gold.Chemscore.ZeroCoef>
-5.4800

> <Gold.Chemscore.Hbond>
3.6415

> <Gold.Chemscore.Metal>
0.0000

> <Gold.Chemscore.Lipo>
79.3380

> <Gold.Chemscore.Internal_Hbond>
0.0000

> <Gold.Chemscore.DEClash>
2.7464

> <Gold.Chemscore.DEInternal>
2.1674

> <Gold.Chemscore.Rot>
4.9029

> <Gold.Chemscore.Internal.Correction>
   9.000000E+99

> <Gold.Chemscore.Hbonds>
donor molecule, donor type, donor heavy atom, donor atom, acceptor molecule, acceptor atom, score
      L1  H     9    45       P1  7957  1.00
      L1  H    23    50       P1 10186  0.58
      L1  H    25    51       P1 10747  0.52
      P1  H  7954  7966       L1    16  0.14
      P1  H 10192 10197       L1    23  0.02

> <Gold.Chemscore.Hbond.Weighted>
-12.1624

> <Gold.Chemscore.Metal.Weighted>
-0.0000

> <Gold.Chemscore.Lipo.Weighted>
-9.2825

> <Gold.Chemscore.Internal_Hbond.Weighted>
0.0000

> <Gold.Chemscore.DEClash.Weighted>
2.7464

> <Gold.Chemscore.DEInternal.Weighted>
2.1674

> <Gold.Chemscore.Rot.Weighted>
12.5515

> <Gold.Chemscore.Internal.Correction.Weighted>
   9.000000E+99

> <Gold.Protein.RotatedTorsions>
[ 6907 6896 6895 6894 ] final  -21.22 input  -60.11 | X-H torsion
[ 7974 7965 7964 7962 ] final -163.83 input  175.53 | X-H torsion
[ 8008 7997 7996 7995 ] final  133.52 input   59.86 | X-H torsion
[ 10167 10162 10161 10158 ] final  -29.18 input  -65.29 | X-H torsion
[ 10718 10713 10712 10709 ] final -168.45 input   66.30 | X-H torsion
[ 10763 10752 10751 10750 ] final  -71.18 input  -60.55 | X-H torsion
[ 11005 11000 10999 10996 ] final  105.13 input  -57.11 | X-H torsion

> <Gold.Protein.ActiveResidues>
 VAL166  LYS551  ARG553  GLY616  TRP617  ASP618  TYR619  PRO620  LYS621  CYS622 
 ASP623  PHE694  ASN695  SER759  ASP760  ASP761  ALA762  ILE779  LEU786  VAL792 
 PHE793  MET794  SER795  GLU796  ALA797  LYS798  CYS799  TRP800  GLU811  SER814 

> <Gold.Protein.RotatedAtoms>
  151.2365  135.0573  159.9007 H   0  0  0  0  0  0  0  0  0  0  0  0  # atno 6907 bound_to 6896
  152.5398  134.0480  159.8107 H   0  0  0  0  0  0  0  0  0  0  0  0  # atno 6908 bound_to 6896
  151.0668  133.5450  159.2661 H   0  0  0  0  0  0  0  0  0  0  0  0  # atno 6909 bound_to 6896
  144.7314  140.3050  143.6198 H   0  0  0  0  0  0  0  0  0  0  0  0  # atno 7974 bound_to 7965
  156.2993  140.2519  156.3266 H   0  0  0  0  0  0  0  0  0  0  0  0  # atno 8008 bound_to 7997
  154.9185  140.0401  157.2004 H   0  0  0  0  0  0  0  0  0  0  0  0  # atno 8009 bound_to 7997
  154.8335  140.2879  155.5711 H   0  0  0  0  0  0  0  0  0  0  0  0  # atno 8010 bound_to 7997
  140.7263  143.3950  151.1364 H   0  0  0  0  0  0  0  0  0  0  0  0  # atno 10167 bound_to 10162
  156.6971  130.9182  151.3075 H   0  0  0  0  0  0  0  0  0  0  0  0  # atno 10718 bound_to 10713
  154.4282  135.5970  153.6052 H   0  0  0  0  0  0  0  0  0  0  0  0  # atno 10763 bound_to 10752
  152.9797  135.5968  154.3872 H   0  0  0  0  0  0  0  0  0  0  0  0  # atno 10764 bound_to 10752
  154.3706  135.2841  155.2247 H   0  0  0  0  0  0  0  0  0  0  0  0  # atno 10765 bound_to 10752
  139.8799  134.9325  156.5467 H   0  0  0  0  0  0  0  0  0  0  0  0  # atno 11005 bound_to 11000
  145.7722  139.1861  143.2206 LP  0  0  0  0  0  0  0  0  0  0  0  0  # atno 17320 bound_to 7965
  146.0902  140.7665  142.9599 LP  0  0  0  0  0  0  0  0  0  0  0  0  # atno 17321 bound_to 7965
  139.7561  143.8706  152.3089 LP  0  0  0  0  0  0  0  0  0  0  0  0  # atno 17342 bound_to 10162
  139.8576  144.7133  150.9139 LP  0  0  0  0  0  0  0  0  0  0  0  0  # atno 17343 bound_to 10162
  157.6987  130.9309  150.0720 LP  0  0  0  0  0  0  0  0  0  0  0  0  # atno 17370 bound_to 10713
  156.1755  130.3648  149.9106 LP  0  0  0  0  0  0  0  0  0  0  0  0  # atno 17371 bound_to 10713
  140.8270  133.8309  155.8948 LP  0  0  0  0  0  0  0  0  0  0  0  0  # atno 17394 bound_to 11000
  140.9364  134.1956  157.4828 LP  0  0  0  0  0  0  0  0  0  0  0  0  # atno 17395 bound_to 11000

$$$$
