AV-unprocessed.smi:43|AV-procd|sdf|394|dock7
  -GOLD-   2262016253D 1   1.00000     0.00000
 Structure written by MMmdl.
 25 26  0  0  0  0  0  0  0  0  2 V2000
  150.0588  134.3905  154.8050 C   0  0  0  0  0  0  0  0  0  0  0  0
  149.9116  134.7813  156.1955 N   0  0  0  0  0  0  0  0  0  0  0  0
  149.5307  133.8524  157.1084 N   0  0  0  0  0  0  0  0  0  0  0  0
  149.4731  134.4519  158.2609 N   0  0  0  0  0  0  0  0  0  0  0  0
  149.8110  135.7844  158.1486 N   0  0  0  0  0  0  0  0  0  0  0  0
  150.0777  135.9430  156.8568 C   0  0  0  0  0  0  0  0  0  0  0  0
  150.4656  137.1496  156.2563 N   0  0  0  0  0  0  0  0  0  0  0  0
  150.0927  137.6909  154.9467 C   0  0  0  0  0  0  0  0  0  0  0  0
  150.8992  138.9667  154.7024 C   0  0  1  0  0  0  0  0  0  0  0  0
  150.2077  139.8990  153.8977 O   0  0  0  0  0  0  0  0  0  0  0  0
  151.1374  139.4714  156.1114 C   0  0  0  0  0  0  0  0  0  0  0  0
  151.3089  138.1669  156.8971 C   0  0  2  0  0  0  0  0  0  0  0  0
  152.7806  137.7230  156.9793 C   0  0  0  0  0  0  0  0  0  0  0  0
  153.5882  138.5439  157.4656 O   0  0  0  0  0  0  0  0  0  0  0  0
  153.0767  136.5832  156.5551 O   0  5  0  0  0  0  0  0  0  0  0  0
  151.8516  138.7230  154.2299 H   0  0  0  0  0  0  0  0  0  0  0  0
  150.9529  138.3233  157.9165 H   0  0  0  0  0  0  0  0  0  0  0  0
  151.1026  134.4783  154.5050 H   0  0  0  0  0  0  0  0  0  0  0  0
  149.4366  135.0215  154.1714 H   0  0  0  0  0  0  0  0  0  0  0  0
  149.7478  133.3541  154.6659 H   0  0  0  0  0  0  0  0  0  0  0  0
  150.2817  136.9753  154.1478 H   0  0  0  0  0  0  0  0  0  0  0  0
  149.0244  137.9099  154.9636 H   0  0  0  0  0  0  0  0  0  0  0  0
  150.0696  139.5135  153.0463 H   0  0  0  0  0  0  0  0  0  0  0  0
  151.9923  140.1456  156.1816 H   0  0  0  0  0  0  0  0  0  0  0  0
  150.2603  140.0052  156.4802 H   0  0  0  0  0  0  0  0  0  0  0  0
  1  2  1  0  0  0  0
  1 18  1  0  0  0  0
  1 19  1  0  0  0  0
  1 20  1  0  0  0  0
  2  6  1  0  0  0  0
  2  3  1  0  0  0  0
  3  4  2  0  0  0  0
  4  5  1  0  0  0  0
  5  6  2  0  0  0  0
  6  7  1  0  0  0  0
  7 12  1  0  0  0  0
  7  8  1  0  0  0  0
  8  9  1  0  0  0  0
  8 21  1  0  0  0  0
  8 22  1  0  0  0  0
  9 16  1  0  0  0  0
  9 10  1  0  0  0  0
  9 11  1  0  0  0  0
 10 23  1  0  0  0  0
 11 12  1  0  0  0  0
 11 24  1  0  0  0  0
 11 25  1  0  0  0  0
 12 17  1  0  0  0  0
 12 13  1  0  0  0  0
 13 14  2  0  0  0  0
 13 15  1  0  0  0  0
M  CHG  1  15  -1
M  END
> <s_m_source_file>
AV-unprocessed.smi

> <i_m_source_file_index>
43

> <i_lp_mmshare_version>
43012

> <i_f3d_flags>
0

> <s_epik_input>
W0NIM11uMW5ubmMxTjJbQ0gyXVtDQEhdKFtPSF0pW0NIMl1bQ0BIXTJDKD1PKVtPSF0=

> <s_epik_cmdline>
J2VwaWtfcHl0aG9uJywgJy1waCcsICc3LjAnLCAnLXRuJywgJzgnLCAnLW1hJywgJzIwMCcsICctbWV0YWxfYmluZGluZycsICctaW1hZScsICc8aW5maWxlLm1hZT4nLCAnLW9tYWUnLCAnPG91dGZpbGUubWFlPic=

> <r_lp_tautomer_probability>
1

> <r_epik_Ionization_Penalty>
0.000193127

> <r_epik_Ionization_Penalty_Charging>
0.000192933

> <r_epik_Ionization_Penalty_Neutral>
1.93728e-07

> <r_epik_State_Penalty>
-0

> <r_epik_Charging_Adjusted_Penalty>
0.000192933

> <i_epik_Tot_Q>
-1

> <i_epik_Tot_abs_Q>
1

> <r_epik_Metal_State_Penalty>
-0

> <b_epik_Metal_Only>
0

> <s_lp_Force_Field>
OPLS_2005

> <r_lp_Energy>
20.0951

> <b_lp_Chiralities_Consistent>
1

> <s_lp_Variant>
AV-unprocessed.smi:43-4

> <Gold.Version>
5.8.1

> <Gold.Id.Protein>
6NUR|6NUR_protein|mol2

> <Gold.PLP.Fitness>
37.8218

> <Gold.PLP.PLP>
-18.5764

> <Gold.PLP.part.hbond>
-6.0587

> <Gold.PLP.part.metal>
0.0000

> <Gold.PLP.part.buried>
-2.0894

> <Gold.PLP.part.nonpolar>
-10.3351

> <Gold.PLP.part.repulsive>
0.0000

> <Gold.PLP.ligand.clash>
0.0000

> <Gold.PLP.ligand.torsion>
0.5434

> <Gold.PLP.Chemscore.Hbond>
6.7760

> <Gold.PLP.Chemscore.CHOScore>
0.0000

> <Gold.PLP.Chemscore.Metal>
0.0000

> <Gold.Chemscore.Hbonds>
donor molecule, donor type, donor heavy atom, donor atom, acceptor molecule, acceptor atom, score
      L1  H    10    23       P1  7957  0.82
      P1  H  6896  6908       L1     4  0.80
      P1  H  7989  7998       L1    10  0.68
      P1  H  7997  8008       L1    14  2.00
      P1  H 10752 10763       L1    15  1.98

> <Gold.PLP.Chemscore.Internal.Correction>
0.0041

> <Gold.Rescore>
     Score         DG    S(hbond)    S(metal)    S(lipo)     H(rot)  DE(clash)    DE(int)     intcor
     14.12     -14.46       2.99        0.00      28.31       1.69       0.01       0.33       ----

> <Gold.Chemscore.Fitness>
14.1159

> <Gold.Chemscore.DG>
-14.4619

> <Gold.Chemscore.ZeroCoef>
-5.4800

> <Gold.Chemscore.Hbond>
2.9919

> <Gold.Chemscore.Metal>
0.0000

> <Gold.Chemscore.Lipo>
28.3099

> <Gold.Chemscore.Internal_Hbond>
0.0000

> <Gold.Chemscore.DEClash>
0.0149

> <Gold.Chemscore.DEInternal>
0.3311

> <Gold.Chemscore.Rot>
1.6887

> <Gold.Chemscore.Internal.Correction>
   9.000000E+99

> <Gold.Chemscore.Hbonds>
donor molecule, donor type, donor heavy atom, donor atom, acceptor molecule, acceptor atom, score
      L1  H    10    23       P1  7957  0.77
      P1  H  6896  6908       L1     4  0.11
      P1  H  7989  7998       L1    10  0.02
      P1  H  7997  8008       L1    14  0.98
      P1  H 10752 10763       L1    15  0.93

> <Gold.Chemscore.Hbond.Weighted>
-9.9928

> <Gold.Chemscore.Metal.Weighted>
-0.0000

> <Gold.Chemscore.Lipo.Weighted>
-3.3123

> <Gold.Chemscore.Internal_Hbond.Weighted>
0.0000

> <Gold.Chemscore.DEClash.Weighted>
0.0149

> <Gold.Chemscore.DEInternal.Weighted>
0.3311

> <Gold.Chemscore.Rot.Weighted>
4.3232

> <Gold.Chemscore.Internal.Correction.Weighted>
   9.000000E+99

> <Gold.Protein.RotatedTorsions>
[ 6907 6896 6895 6894 ] final  135.17 input  -60.11 | X-H torsion
[ 7974 7965 7964 7962 ] final   59.78 input  175.53 | X-H torsion
[ 8008 7997 7996 7995 ] final  -78.99 input   59.86 | X-H torsion
[ 10167 10162 10161 10158 ] final -143.16 input  -65.29 | X-H torsion
[ 10718 10713 10712 10709 ] final  164.20 input   66.30 | X-H torsion
[ 10763 10752 10751 10750 ] final  115.40 input  -60.55 | X-H torsion
[ 11005 11000 10999 10996 ] final  -80.57 input  -57.11 | X-H torsion

> <Gold.Protein.ActiveResidues>
 VAL166  LYS551  ARG553  GLY616  TRP617  ASP618  TYR619  PRO620  LYS621  CYS622 
 ASP623  PHE694  ASN695  SER759  ASP760  ASP761  ALA762  ILE779  LEU786  VAL792 
 PHE793  MET794  SER795  GLU796  ALA797  LYS798  CYS799  TRP800  GLU811  SER814 

> <Gold.Protein.RotatedAtoms>
  152.3033  133.5678  159.5632 H   0  0  0  0  0  0  0  0  0  0  0  0  # atno 6907 bound_to 6896
  150.7288  134.0259  159.3726 H   0  0  0  0  0  0  0  0  0  0  0  0  # atno 6908 bound_to 6896
  151.8157  135.0667  160.0469 H   0  0  0  0  0  0  0  0  0  0  0  0  # atno 6909 bound_to 6896
  145.9034  139.3598  143.0579 H   0  0  0  0  0  0  0  0  0  0  0  0  # atno 7974 bound_to 7965
  154.5742  140.0685  156.9009 H   0  0  0  0  0  0  0  0  0  0  0  0  # atno 8008 bound_to 7997
  155.2580  140.3356  155.4257 H   0  0  0  0  0  0  0  0  0  0  0  0  # atno 8009 bound_to 7997
  156.2141  140.1771  156.7614 H   0  0  0  0  0  0  0  0  0  0  0  0  # atno 8010 bound_to 7997
  139.8020  143.7820  152.2658 H   0  0  0  0  0  0  0  0  0  0  0  0  # atno 10167 bound_to 10162
  157.0978  131.0435  151.2510 H   0  0  0  0  0  0  0  0  0  0  0  0  # atno 10718 bound_to 10713
  153.5217  135.3596  155.2635 H   0  0  0  0  0  0  0  0  0  0  0  0  # atno 10763 bound_to 10752
  154.8734  135.4047  154.3253 H   0  0  0  0  0  0  0  0  0  0  0  0  # atno 10764 bound_to 10752
  153.3924  135.7072  153.6552 H   0  0  0  0  0  0  0  0  0  0  0  0  # atno 10765 bound_to 10752
  141.1668  133.7156  156.8293 H   0  0  0  0  0  0  0  0  0  0  0  0  # atno 11005 bound_to 11000
  145.8762  140.9390  143.0625 LP  0  0  0  0  0  0  0  0  0  0  0  0  # atno 17320 bound_to 7965
  144.6737  140.0720  143.7472 LP  0  0  0  0  0  0  0  0  0  0  0  0  # atno 17321 bound_to 7965
  139.7943  144.7398  150.9912 LP  0  0  0  0  0  0  0  0  0  0  0  0  # atno 17342 bound_to 10162
  140.7820  143.4410  151.0552 LP  0  0  0  0  0  0  0  0  0  0  0  0  # atno 17343 bound_to 10162
  157.4667  130.7684  149.7285 LP  0  0  0  0  0  0  0  0  0  0  0  0  # atno 17370 bound_to 10713
  155.9881  130.3961  150.3133 LP  0  0  0  0  0  0  0  0  0  0  0  0  # atno 17371 bound_to 10713
  140.2062  134.8861  157.3224 LP  0  0  0  0  0  0  0  0  0  0  0  0  # atno 17394 bound_to 11000
  140.2134  134.4110  155.7601 LP  0  0  0  0  0  0  0  0  0  0  0  0  # atno 17395 bound_to 11000

$$$$
