AV-unprocessed.smi:1198|AV-procd|sdf|5011|dock7
  -GOLD-   22720 4 23D 1   1.00000     0.00000
 Structure written by MMmdl.
 40 41  0  0  0  0  0  0  0  0  2 V2000
  150.4494  142.3428  157.4152 C   0  0  0  0  0  0  0  0  0  0  0  0
  151.0658  141.6881  156.3117 O   0  0  0  0  0  0  0  0  0  0  0  0
  150.3136  140.7947  155.5771 C   0  0  0  0  0  0  0  0  0  0  0  0
  148.9095  140.8730  155.6527 C   0  0  0  0  0  0  0  0  0  0  0  0
  148.1393  139.9639  154.9036 C   0  0  0  0  0  0  0  0  0  0  0  0
  148.7885  139.0045  154.1002 C   0  0  0  0  0  0  0  0  0  0  0  0
  147.9687  138.1041  153.3641 N   0  0  0  0  0  0  0  0  0  0  0  0
  146.6294  137.9896  153.3403 C   0  0  0  0  0  0  0  0  0  0  0  0
  145.8377  138.6799  153.9807 O   0  0  0  0  0  0  0  0  0  0  0  0
  146.2456  136.9990  152.5219 N   0  0  0  0  0  0  0  0  0  0  0  0
  144.8642  136.6069  152.2570 C   0  0  0  0  0  0  0  0  0  0  0  0
  144.7563  135.1467  151.7761 C   0  0  1  0  0  0  0  0  0  0  0  0
  143.6867  134.3037  152.4714 C   0  0  0  0  0  0  0  0  0  0  0  0
  143.4727  133.1573  151.4881 C   0  0  0  0  0  0  0  0  0  0  0  0
  143.6066  133.7655  150.1476 N   0  3  2  0  0  0  0  0  0  0  0  0
  144.1057  132.8399  149.1092 C   0  0  0  0  0  0  0  0  0  0  0  0
  144.3935  135.0137  150.2891 C   0  0  0  0  0  0  0  0  0  0  0  0
  150.2059  139.0044  154.0966 C   0  0  0  0  0  0  0  0  0  0  0  0
  150.9501  139.8743  154.8122 N   0  0  0  0  0  0  0  0  0  0  0  0
  151.1706  143.0097  157.8875 H   0  0  0  0  0  0  0  0  0  0  0  0
  150.1174  141.6274  158.1691 H   0  0  0  0  0  0  0  0  0  0  0  0
  149.5994  142.9478  157.0963 H   0  0  0  0  0  0  0  0  0  0  0  0
  148.4320  141.6164  156.2736 H   0  0  0  0  0  0  0  0  0  0  0  0
  147.0606  140.0065  154.9472 H   0  0  0  0  0  0  0  0  0  0  0  0
  148.4734  137.4437  152.7909 H   0  0  0  0  0  0  0  0  0  0  0  0
  146.9643  136.4821  152.0364 H   0  0  0  0  0  0  0  0  0  0  0  0
  144.2406  136.7692  153.1380 H   0  0  0  0  0  0  0  0  0  0  0  0
  144.4763  137.2723  151.4854 H   0  0  0  0  0  0  0  0  0  0  0  0
  145.7189  134.6552  151.9286 H   0  0  0  0  0  0  0  0  0  0  0  0
  143.9912  133.9579  153.4599 H   0  0  0  0  0  0  0  0  0  0  0  0
  142.7639  134.8753  152.5816 H   0  0  0  0  0  0  0  0  0  0  0  0
  144.2494  132.4047  151.6355 H   0  0  0  0  0  0  0  0  0  0  0  0
  142.5051  132.6708  151.6136 H   0  0  0  0  0  0  0  0  0  0  0  0
  145.1110  132.4887  149.3455 H   0  0  0  0  0  0  0  0  0  0  0  0
  144.1345  133.3359  148.1386 H   0  0  0  0  0  0  0  0  0  0  0  0
  143.4496  131.9728  149.0255 H   0  0  0  0  0  0  0  0  0  0  0  0
  143.7637  135.8428  149.9643 H   0  0  0  0  0  0  0  0  0  0  0  0
  145.2877  135.0189  149.6638 H   0  0  0  0  0  0  0  0  0  0  0  0
  150.7862  138.3007  153.5231 H   0  0  0  0  0  0  0  0  0  0  0  0
  142.6788  134.0527  149.8694 H   0  0  0  0  0  0  0  0  0  0  0  0
  1  2  1  0  0  0  0
  1 20  1  0  0  0  0
  1 21  1  0  0  0  0
  1 22  1  0  0  0  0
  2  3  1  0  0  0  0
  3 19  1  0  0  0  0
  3  4  2  0  0  0  0
  4  5  1  0  0  0  0
  4 23  1  0  0  0  0
  5  6  2  0  0  0  0
  5 24  1  0  0  0  0
  6  7  1  0  0  0  0
  6 18  1  0  0  0  0
  7  8  1  0  0  0  0
  7 25  1  0  0  0  0
  8  9  2  0  0  0  0
  8 10  1  0  0  0  0
 10 11  1  0  0  0  0
 10 26  1  0  0  0  0
 11 12  1  0  0  0  0
 11 27  1  0  0  0  0
 11 28  1  0  0  0  0
 12 17  1  0  0  0  0
 12 13  1  0  0  0  0
 12 29  1  0  0  0  0
 13 14  1  0  0  0  0
 13 30  1  0  0  0  0
 13 31  1  0  0  0  0
 14 15  1  0  0  0  0
 14 32  1  0  0  0  0
 14 33  1  0  0  0  0
 15 16  1  0  0  0  0
 15 17  1  0  0  0  0
 15 40  1  0  0  0  0
 16 34  1  0  0  0  0
 16 35  1  0  0  0  0
 16 36  1  0  0  0  0
 17 37  1  0  0  0  0
 17 38  1  0  0  0  0
 18 19  2  0  0  0  0
 18 39  1  0  0  0  0
M  CHG  1  15   1
M  END
> <s_m_source_file>
AV-unprocessed.smi

> <i_m_source_file_index>
1198

> <i_lp_mmshare_version>
43012

> <i_f3d_flags>
0

> <s_epik_input>
W0NIM11PYzFbY0hdW2NIXWMoW2NIXW4xKVtOSF1DKD1PKVtOSF1bQ0gyXVtDQEBIXTJbQ0gyXVtDSDJdTihbQ0gzXSlbQ0gyXTI=

> <s_epik_cmdline>
J2VwaWtfcHl0aG9uJywgJy1waCcsICc3LjAnLCAnLXRuJywgJzgnLCAnLW1hJywgJzIwMCcsICctbWV0YWxfYmluZGluZycsICctaW1hZScsICc8aW5maWxlLm1hZT4nLCAnLW9tYWUnLCAnPG91dGZpbGUubWFlPic=

> <r_lp_tautomer_probability>
1

> <r_epik_Ionization_Penalty>
0.00131396

> <r_epik_Ionization_Penalty_Charging>
0.0012301

> <r_epik_Ionization_Penalty_Neutral>
8.38549e-05

> <r_epik_State_Penalty>
0.00081314

> <r_epik_Charging_Adjusted_Penalty>
0.00204324

> <i_epik_Tot_Q>
1

> <i_epik_Tot_abs_Q>
1

> <r_epik_Metal_State_Penalty>
-0

> <b_epik_Metal_Only>
0

> <s_lp_Force_Field>
OPLS_2005

> <r_lp_Energy>
29.7758

> <b_lp_Chiralities_Consistent>
1

> <s_lp_Variant>
AV-unprocessed.smi:1198-2

> <Gold.Version>
5.8.1

> <Gold.Id.Protein>
6NUR|6NUR_protein|mol2

> <Gold.PLP.Fitness>
44.5904

> <Gold.PLP.PLP>
-32.1053

> <Gold.PLP.part.hbond>
-4.0000

> <Gold.PLP.part.metal>
0.0000

> <Gold.PLP.part.buried>
-3.8838

> <Gold.PLP.part.nonpolar>
-24.7138

> <Gold.PLP.part.repulsive>
0.3560

> <Gold.PLP.ligand.clash>
0.0000

> <Gold.PLP.ligand.torsion>
1.1288

> <Gold.PLP.Chemscore.Hbond>
4.9120

> <Gold.PLP.Chemscore.CHOScore>
0.0000

> <Gold.PLP.Chemscore.Metal>
0.0000

> <Gold.Chemscore.Hbonds>
donor molecule, donor type, donor heavy atom, donor atom, acceptor molecule, acceptor atom, score
      L1  H     7    25       P1  7948  1.00
      L1  H    10    26       P1  7948  0.90
      L1  H    15    40       P1 10186  2.00
      P1  H  7989  7998       L1    19  1.00

> <Gold.PLP.Chemscore.Internal.Correction>
0.0068

> <Gold.Rescore>
     Score         DG    S(hbond)    S(metal)    S(lipo)     H(rot)  DE(clash)    DE(int)     intcor
     17.16     -19.62       3.03        0.00      67.54       1.51       0.02       2.44       ----

> <Gold.Chemscore.Fitness>
17.1636

> <Gold.Chemscore.DG>
-19.6198

> <Gold.Chemscore.ZeroCoef>
-5.4800

> <Gold.Chemscore.Hbond>
3.0285

> <Gold.Chemscore.Metal>
0.0000

> <Gold.Chemscore.Lipo>
67.5447

> <Gold.Chemscore.Internal_Hbond>
0.0000

> <Gold.Chemscore.DEClash>
0.0176

> <Gold.Chemscore.DEInternal>
2.4386

> <Gold.Chemscore.Rot>
1.5149

> <Gold.Chemscore.Internal.Correction>
   9.000000E+99

> <Gold.Chemscore.Hbonds>
donor molecule, donor type, donor heavy atom, donor atom, acceptor molecule, acceptor atom, score
      L1  H     7    25       P1  7948  0.98
      L1  H    10    26       P1  7948  0.85
      L1  H    15    40       P1 10186  1.00
      P1  H  7989  7998       L1    19  0.10

> <Gold.Chemscore.Hbond.Weighted>
-10.1152

> <Gold.Chemscore.Metal.Weighted>
-0.0000

> <Gold.Chemscore.Lipo.Weighted>
-7.9027

> <Gold.Chemscore.Internal_Hbond.Weighted>
0.0000

> <Gold.Chemscore.DEClash.Weighted>
0.0176

> <Gold.Chemscore.DEInternal.Weighted>
2.4386

> <Gold.Chemscore.Rot.Weighted>
3.8781

> <Gold.Chemscore.Internal.Correction.Weighted>
   9.000000E+99

> <Gold.Protein.RotatedTorsions>
[ 6907 6896 6895 6894 ] final -116.74 input  -60.11 | X-H torsion
[ 7974 7965 7964 7962 ] final -164.96 input  175.53 | X-H torsion
[ 8008 7997 7996 7995 ] final -122.93 input   59.86 | X-H torsion
[ 10167 10162 10161 10158 ] final  -16.76 input  -65.29 | X-H torsion
[ 10718 10713 10712 10709 ] final  -20.20 input   66.30 | X-H torsion
[ 10763 10752 10751 10750 ] final   72.61 input  -60.55 | X-H torsion
[ 11005 11000 10999 10996 ] final  -85.41 input  -57.11 | X-H torsion

> <Gold.Protein.ActiveResidues>
 VAL166  LYS551  ARG553  GLY616  TRP617  ASP618  TYR619  PRO620  LYS621  CYS622 
 ASP623  PHE694  ASN695  SER759  ASP760  ASP761  ALA762  ILE779  LEU786  VAL792 
 PHE793  MET794  SER795  GLU796  ALA797  LYS798  CYS799  TRP800  GLU811  SER814 

> <Gold.Protein.RotatedAtoms>
  150.8080  133.8473  159.3195 H   0  0  0  0  0  0  0  0  0  0  0  0  # atno 6907 bound_to 6896
  151.6267  135.1025  160.0122 H   0  0  0  0  0  0  0  0  0  0  0  0  # atno 6908 bound_to 6896
  152.4172  133.7017  159.6484 H   0  0  0  0  0  0  0  0  0  0  0  0  # atno 6909 bound_to 6896
  144.7282  140.2884  143.6224 H   0  0  0  0  0  0  0  0  0  0  0  0  # atno 7974 bound_to 7965
  155.1722  140.0408  157.2865 H   0  0  0  0  0  0  0  0  0  0  0  0  # atno 8008 bound_to 7997
  154.6261  140.2513  155.7462 H   0  0  0  0  0  0  0  0  0  0  0  0  # atno 8009 bound_to 7997
  156.2460  140.2885  156.0592 H   0  0  0  0  0  0  0  0  0  0  0  0  # atno 8010 bound_to 7997
  140.7238  143.5084  150.9781 H   0  0  0  0  0  0  0  0  0  0  0  0  # atno 10167 bound_to 10162
  156.5351  130.4664  149.6527 H   0  0  0  0  0  0  0  0  0  0  0  0  # atno 10718 bound_to 10713
  153.0469  135.5093  154.7769 H   0  0  0  0  0  0  0  0  0  0  0  0  # atno 10763 bound_to 10752
  154.6662  135.2946  154.9805 H   0  0  0  0  0  0  0  0  0  0  0  0  # atno 10764 bound_to 10752
  154.0639  135.6687  153.4868 H   0  0  0  0  0  0  0  0  0  0  0  0  # atno 10765 bound_to 10752
  141.1641  133.7398  156.9011 H   0  0  0  0  0  0  0  0  0  0  0  0  # atno 11005 bound_to 11000
  145.7880  139.1916  143.2119 LP  0  0  0  0  0  0  0  0  0  0  0  0  # atno 17320 bound_to 7965
  146.0779  140.7796  142.9656 LP  0  0  0  0  0  0  0  0  0  0  0  0  # atno 17321 bound_to 7965
  139.8796  143.7088  152.3158 LP  0  0  0  0  0  0  0  0  0  0  0  0  # atno 17342 bound_to 10162
  139.7366  144.7570  151.0718 LP  0  0  0  0  0  0  0  0  0  0  0  0  # atno 17343 bound_to 10162
  156.3024  130.7184  151.2058 LP  0  0  0  0  0  0  0  0  0  0  0  0  # atno 17370 bound_to 10713
  157.7415  131.0503  150.5092 LP  0  0  0  0  0  0  0  0  0  0  0  0  # atno 17371 bound_to 10713
  140.1582  134.9184  157.2680 LP  0  0  0  0  0  0  0  0  0  0  0  0  # atno 17394 bound_to 11000
  140.2643  134.3535  155.7395 LP  0  0  0  0  0  0  0  0  0  0  0  0  # atno 17395 bound_to 11000

$$$$
