AV-unprocessed.smi:2393|AV-procd|sdf|9489|dock2
  -GOLD-   2272013113D 1   1.00000     0.00000
 Structure written by MMmdl.
 43 44  0  0  0  0  0  0  0  0  1 V2000
  146.3805  130.5397  152.9122 C   0  0  0  0  0  0  0  0  0  0  0  0
  147.6262  131.1040  153.5624 C   0  0  0  0  0  0  0  0  0  0  0  0
  148.5387  130.2635  154.2286 C   0  0  0  0  0  0  0  0  0  0  0  0
  149.6767  130.8507  154.8156 C   0  0  0  0  0  0  0  0  0  0  0  0
  150.7000  130.0067  155.5466 C   0  0  0  0  0  0  0  0  0  0  0  0
  149.9273  132.1767  154.7707 N   0  0  0  0  0  0  0  0  0  0  0  0
  149.0552  132.9959  154.1324 C   0  0  0  0  0  0  0  0  0  0  0  0
  149.2321  134.4006  154.0209 N   0  0  0  0  0  0  0  0  0  0  0  0
  149.8314  135.2327  154.8909 C   0  0  0  0  0  0  0  0  0  0  0  0
  150.2832  134.9090  155.9898 O   0  0  0  0  0  0  0  0  0  0  0  0
  149.8705  136.4866  154.4161 N   0  0  0  0  0  0  0  0  0  0  0  0
  150.4487  137.6303  155.1162 C   0  0  1  0  0  0  0  0  0  0  0  0
  151.8915  137.8561  154.6500 C   0  0  0  0  0  0  0  0  0  0  0  0
  152.4730  139.1197  155.2992 C   0  0  0  0  0  0  0  0  0  0  0  0
  151.6521  140.2505  155.0126 O   0  0  0  0  0  0  0  0  0  0  0  0
  150.2894  140.1715  155.4450 C   0  0  0  0  0  0  0  0  0  0  0  0
  150.1986  140.2120  156.9861 C   0  0  0  0  0  0  0  0  0  0  0  0
  149.6146  141.4287  154.8722 C   0  0  0  0  0  0  0  0  0  0  0  0
  149.6279  138.9047  154.8500 C   0  0  0  0  0  0  0  0  0  0  0  0
  147.8916  132.4873  153.5128 C   0  0  0  0  0  0  0  0  0  0  0  0
  146.3754  129.4496  152.9441 H   0  0  0  0  0  0  0  0  0  0  0  0
  146.3233  130.8497  151.8686 H   0  0  0  0  0  0  0  0  0  0  0  0
  145.4907  130.9014  153.4279 H   0  0  0  0  0  0  0  0  0  0  0  0
  148.3713  129.1978  154.2881 H   0  0  0  0  0  0  0  0  0  0  0  0
  150.5062  128.9427  155.4078 H   0  0  0  0  0  0  0  0  0  0  0  0
  150.6729  130.2225  156.6149 H   0  0  0  0  0  0  0  0  0  0  0  0
  151.7041  130.2189  155.1783 H   0  0  0  0  0  0  0  0  0  0  0  0
  148.8729  134.8173  153.1750 H   0  0  0  0  0  0  0  0  0  0  0  0
  149.4747  136.6641  153.5046 H   0  0  0  0  0  0  0  0  0  0  0  0
  150.4639  137.4204  156.1869 H   0  0  0  0  0  0  0  0  0  0  0  0
  152.5100  136.9924  154.8965 H   0  0  0  0  0  0  0  0  0  0  0  0
  151.9211  137.9635  153.5646 H   0  0  0  0  0  0  0  0  0  0  0  0
  152.5902  138.9876  156.3747 H   0  0  0  0  0  0  0  0  0  0  0  0
  153.4706  139.3114  154.9043 H   0  0  0  0  0  0  0  0  0  0  0  0
  149.1592  140.2514  157.3137 H   0  0  0  0  0  0  0  0  0  0  0  0
  150.7020  141.0932  157.3849 H   0  0  0  0  0  0  0  0  0  0  0  0
  150.6464  139.3394  157.4594 H   0  0  0  0  0  0  0  0  0  0  0  0
  148.5554  141.4628  155.1291 H   0  0  0  0  0  0  0  0  0  0  0  0
  149.6925  141.4605  153.7850 H   0  0  0  0  0  0  0  0  0  0  0  0
  150.0787  142.3368  155.2586 H   0  0  0  0  0  0  0  0  0  0  0  0
  149.5230  139.0308  153.7711 H   0  0  0  0  0  0  0  0  0  0  0  0
  148.6154  138.7922  155.2403 H   0  0  0  0  0  0  0  0  0  0  0  0
  147.2052  133.1506  153.0062 H   0  0  0  0  0  0  0  0  0  0  0  0
  1  2  1  0  0  0  0
  1 21  1  0  0  0  0
  1 22  1  0  0  0  0
  1 23  1  0  0  0  0
  2 20  1  0  0  0  0
  2  3  2  0  0  0  0
  3  4  1  0  0  0  0
  3 24  1  0  0  0  0
  4  5  1  0  0  0  0
  4  6  2  0  0  0  0
  5 25  1  0  0  0  0
  5 26  1  0  0  0  0
  5 27  1  0  0  0  0
  6  7  1  0  0  0  0
  7  8  1  0  0  0  0
  7 20  2  0  0  0  0
  8  9  1  0  0  0  0
  8 28  1  0  0  0  0
  9 10  2  0  0  0  0
  9 11  1  0  0  0  0
 11 12  1  0  0  0  0
 11 29  1  0  0  0  0
 12 19  1  0  0  0  0
 12 13  1  0  0  0  0
 12 30  1  0  0  0  0
 13 14  1  0  0  0  0
 13 31  1  0  0  0  0
 13 32  1  0  0  0  0
 14 15  1  0  0  0  0
 14 33  1  0  0  0  0
 14 34  1  0  0  0  0
 15 16  1  0  0  0  0
 16 17  1  0  0  0  0
 16 18  1  0  0  0  0
 16 19  1  0  0  0  0
 17 35  1  0  0  0  0
 17 36  1  0  0  0  0
 17 37  1  0  0  0  0
 18 38  1  0  0  0  0
 18 39  1  0  0  0  0
 18 40  1  0  0  0  0
 19 41  1  0  0  0  0
 19 42  1  0  0  0  0
 20 43  1  0  0  0  0
M  END
> <s_m_source_file>
AV-unprocessed.smi

> <i_m_source_file_index>
2393

> <i_lp_mmshare_version>
43012

> <i_f3d_flags>
0

> <s_epik_input>
W0NIM11jMVtjSF1jKFtDSDNdKW5jKFtjSF0xKVtOSF1DKD1PKVtOSF1bQ0BASF0oW0NIMl0yKVtDSDJdW0NIMl1PQzIoW0NIM10pW0NIM10=

> <s_epik_cmdline>
J2VwaWtfcHl0aG9uJywgJy1waCcsICc3LjAnLCAnLXRuJywgJzgnLCAnLW1hJywgJzIwMCcsICctbWV0YWxfYmluZGluZycsICctaW1hZScsICc8aW5maWxlLm1hZT4nLCAnLW9tYWUnLCAnPG91dGZpbGUubWFlPic=

> <r_lp_tautomer_probability>
1

> <r_epik_Ionization_Penalty>
0.000261351

> <r_epik_Ionization_Penalty_Charging>
0

> <r_epik_Ionization_Penalty_Neutral>
0.000261351

> <r_epik_State_Penalty>
-0

> <r_epik_Charging_Adjusted_Penalty>
0

> <i_epik_Tot_Q>
0

> <i_epik_Tot_abs_Q>
0

> <r_epik_Metal_State_Penalty>
-0

> <b_epik_Metal_Only>
0

> <s_lp_Force_Field>
OPLS_2005

> <r_lp_Energy>
12.7135

> <b_lp_Chiralities_Consistent>
1

> <s_lp_Variant>
AV-unprocessed.smi:2393-2

> <Gold.Version>
5.8.1

> <Gold.Id.Protein>
6NUR|6NUR_protein|mol2

> <Gold.PLP.Fitness>
43.6007

> <Gold.PLP.PLP>
-36.2682

> <Gold.PLP.part.hbond>
-3.3973

> <Gold.PLP.part.metal>
0.0000

> <Gold.PLP.part.buried>
-2.8906

> <Gold.PLP.part.nonpolar>
-31.0067

> <Gold.PLP.part.repulsive>
0.1625

> <Gold.PLP.ligand.clash>
0.0000

> <Gold.PLP.ligand.torsion>
0.5388

> <Gold.PLP.Chemscore.Hbond>
2.8032

> <Gold.PLP.Chemscore.CHOScore>
0.0000

> <Gold.PLP.Chemscore.Metal>
0.0000

> <Gold.Chemscore.Hbonds>
donor molecule, donor type, donor heavy atom, donor atom, acceptor molecule, acceptor atom, score
      L1  H     8    28       P1  7948  0.93
      L1  H    11    29       P1  7948  1.00
      P1  H  7989  7998       L1    15  0.94

> <Gold.PLP.Chemscore.Internal.Correction>
0.0005

> <Gold.Rescore>
     Score         DG    S(hbond)    S(metal)    S(lipo)     H(rot)  DE(clash)    DE(int)     intcor
     16.92     -18.17       2.07        0.00      71.18       1.00       0.04       1.22       ----

> <Gold.Chemscore.Fitness>
16.9182

> <Gold.Chemscore.DG>
-18.1713

> <Gold.Chemscore.ZeroCoef>
-5.4800

> <Gold.Chemscore.Hbond>
2.0727

> <Gold.Chemscore.Metal>
0.0000

> <Gold.Chemscore.Lipo>
71.1832

> <Gold.Chemscore.Internal_Hbond>
0.0000

> <Gold.Chemscore.DEClash>
0.0363

> <Gold.Chemscore.DEInternal>
1.2168

> <Gold.Chemscore.Rot>
1.0000

> <Gold.Chemscore.Internal.Correction>
   9.000000E+99

> <Gold.Chemscore.Hbonds>
donor molecule, donor type, donor heavy atom, donor atom, acceptor molecule, acceptor atom, score
      L1  H     8    28       P1  7948  0.20
      L1  H    11    29       P1  7948  0.80
      P1  H  7989  7998       L1    15  0.57

> <Gold.Chemscore.Hbond.Weighted>
-6.9229

> <Gold.Chemscore.Metal.Weighted>
-0.0000

> <Gold.Chemscore.Lipo.Weighted>
-8.3284

> <Gold.Chemscore.Internal_Hbond.Weighted>
0.0000

> <Gold.Chemscore.DEClash.Weighted>
0.0363

> <Gold.Chemscore.DEInternal.Weighted>
1.2168

> <Gold.Chemscore.Rot.Weighted>
2.5600

> <Gold.Chemscore.Internal.Correction.Weighted>
   9.000000E+99

> <Gold.Protein.RotatedTorsions>
[ 6907 6896 6895 6894 ] final  -23.32 input  -60.11 | X-H torsion
[ 7974 7965 7964 7962 ] final  126.31 input  175.53 | X-H torsion
[ 8008 7997 7996 7995 ] final  127.31 input   59.86 | X-H torsion
[ 10167 10162 10161 10158 ] final   60.25 input  -65.29 | X-H torsion
[ 10718 10713 10712 10709 ] final -174.86 input   66.30 | X-H torsion
[ 10763 10752 10751 10750 ] final  175.67 input  -60.55 | X-H torsion
[ 11005 11000 10999 10996 ] final  -57.58 input  -57.11 | X-H torsion

> <Gold.Protein.ActiveResidues>
 VAL166  LYS551  ARG553  GLY616  TRP617  ASP618  TYR619  PRO620  LYS621  CYS622 
 ASP623  PHE694  ASN695  SER759  ASP760  ASP761  ALA762  ILE779  LEU786  VAL792 
 PHE793  MET794  SER795  GLU796  ALA797  LYS798  CYS799  TRP800  GLU811  SER814 

> <Gold.Protein.RotatedAtoms>
  151.2058  135.0461  159.8890 H   0  0  0  0  0  0  0  0  0  0  0  0  # atno 6907 bound_to 6896
  152.5429  134.0800  159.8241 H   0  0  0  0  0  0  0  0  0  0  0  0  # atno 6908 bound_to 6896
  151.0946  133.5242  159.2645 H   0  0  0  0  0  0  0  0  0  0  0  0  # atno 6909 bound_to 6896
  145.0631  139.3789  143.4995 H   0  0  0  0  0  0  0  0  0  0  0  0  # atno 7974 bound_to 7965
  156.2887  140.2672  156.2252 H   0  0  0  0  0  0  0  0  0  0  0  0  # atno 8008 bound_to 7997
  155.0127  140.0387  157.2424 H   0  0  0  0  0  0  0  0  0  0  0  0  # atno 8009 bound_to 7997
  154.7504  140.2742  155.6303 H   0  0  0  0  0  0  0  0  0  0  0  0  # atno 8010 bound_to 7997
  140.1676  144.4309  150.6677 H   0  0  0  0  0  0  0  0  0  0  0  0  # atno 10167 bound_to 10162
  156.7914  130.9519  151.3120 H   0  0  0  0  0  0  0  0  0  0  0  0  # atno 10718 bound_to 10713
  154.4708  135.2771  155.1644 H   0  0  0  0  0  0  0  0  0  0  0  0  # atno 10763 bound_to 10752
  154.3394  135.6173  153.5592 H   0  0  0  0  0  0  0  0  0  0  0  0  # atno 10764 bound_to 10752
  152.9864  135.5784  154.5089 H   0  0  0  0  0  0  0  0  0  0  0  0  # atno 10765 bound_to 10752
  141.1171  133.6610  156.4791 H   0  0  0  0  0  0  0  0  0  0  0  0  # atno 11005 bound_to 11000
  146.3525  140.0339  142.8648 LP  0  0  0  0  0  0  0  0  0  0  0  0  # atno 17320 bound_to 7965
  145.1384  140.9557  143.4503 LP  0  0  0  0  0  0  0  0  0  0  0  0  # atno 17321 bound_to 7965
  140.6603  143.2250  151.5872 LP  0  0  0  0  0  0  0  0  0  0  0  0  # atno 17342 bound_to 10162
  139.5352  144.2800  152.1236 LP  0  0  0  0  0  0  0  0  0  0  0  0  # atno 17343 bound_to 10162
  157.6599  130.8957  149.9807 LP  0  0  0  0  0  0  0  0  0  0  0  0  # atno 17370 bound_to 10713
  156.1157  130.3648  149.9972 LP  0  0  0  0  0  0  0  0  0  0  0  0  # atno 17371 bound_to 10713
  140.4615  134.6836  157.5088 LP  0  0  0  0  0  0  0  0  0  0  0  0  # atno 17394 bound_to 11000
  140.0100  134.6705  155.9395 LP  0  0  0  0  0  0  0  0  0  0  0  0  # atno 17395 bound_to 11000

$$$$
