AV-unprocessed.smi:332|AV-procd|sdf|2353|dock7
  -GOLD-   2262022263D 1   1.00000     0.00000
 Structure written by MMmdl.
 42 44  0  0  0  0  0  0  0  0  1 V2000
  149.6814  141.0680  154.4512 C   0  0  0  0  0  0  0  0  0  0  0  0
  149.2419  141.3296  155.9013 C   0  0  1  0  0  0  0  0  0  0  0  0
  150.1037  142.3679  156.4647 N   0  0  0  0  0  0  0  0  0  0  0  0
  151.0386  142.1867  157.4101 C   0  0  0  0  0  0  0  0  0  0  0  0
  151.3242  141.0863  157.8832 O   0  0  0  0  0  0  0  0  0  0  0  0
  151.7702  143.4486  157.8852 C   0  0  0  0  0  0  0  0  0  0  0  0
  152.2316  143.3425  159.2792 N   0  0  0  0  0  0  0  0  0  0  0  0
  153.1153  142.2893  159.5879 C   0  0  0  0  0  0  0  0  0  0  0  0
  153.5888  142.1006  160.8298 C   0  0  0  0  0  0  0  0  0  0  0  0
  153.1689  143.0134  161.8668 C   0  0  0  0  0  0  0  0  0  0  0  0
  152.3226  144.0233  161.5829 C   0  0  0  0  0  0  0  0  0  0  0  0
  151.8026  144.2335  160.2267 C   0  0  0  0  0  0  0  0  0  0  0  0
  151.0289  145.1536  159.9587 O   0  0  0  0  0  0  0  0  0  0  0  0
  147.7602  141.7679  156.0141 C   0  0  2  0  0  0  0  0  0  0  0  0
  146.7628  140.5866  156.1345 C   0  0  0  0  0  0  0  0  0  0  0  0
  145.7500  140.8591  155.0096 C   0  0  1  0  0  0  0  0  0  0  0  0
  144.9106  142.1014  155.3580 C   0  0  0  0  0  0  0  0  0  0  0  0
  145.9152  143.2527  155.1650 C   0  0  0  0  0  0  0  0  0  0  0  0
  147.2089  142.5136  154.7723 C   0  0  2  0  0  0  0  0  0  0  0  0
  146.6585  141.3841  153.9067 C   0  0  0  0  0  0  0  0  0  0  0  0
  149.1278  140.2444  154.0022 H   0  0  0  0  0  0  0  0  0  0  0  0
  150.7384  140.8029  154.4068 H   0  0  0  0  0  0  0  0  0  0  0  0
  149.5338  141.9491  153.8259 H   0  0  0  0  0  0  0  0  0  0  0  0
  149.3670  140.4011  156.4601 H   0  0  0  0  0  0  0  0  0  0  0  0
  149.9498  143.3092  156.1331 H   0  0  0  0  0  0  0  0  0  0  0  0
  152.6084  143.6267  157.2103 H   0  0  0  0  0  0  0  0  0  0  0  0
  151.1228  144.3209  157.7747 H   0  0  0  0  0  0  0  0  0  0  0  0
  153.3744  141.6464  158.7591 H   0  0  0  0  0  0  0  0  0  0  0  0
  154.2623  141.2851  161.0486 H   0  0  0  0  0  0  0  0  0  0  0  0
  153.5337  142.8847  162.8753 H   0  0  0  0  0  0  0  0  0  0  0  0
  152.0176  144.6955  162.3716 H   0  0  0  0  0  0  0  0  0  0  0  0
  147.6673  142.4081  156.8931 H   0  0  0  0  0  0  0  0  0  0  0  0
  147.2507  139.6269  155.9588 H   0  0  0  0  0  0  0  0  0  0  0  0
  146.2920  140.5393  157.1170 H   0  0  0  0  0  0  0  0  0  0  0  0
  145.1527  139.9877  154.7395 H   0  0  0  0  0  0  0  0  0  0  0  0
  144.0683  142.2084  154.6733 H   0  0  0  0  0  0  0  0  0  0  0  0
  144.5150  142.0594  156.3734 H   0  0  0  0  0  0  0  0  0  0  0  0
  145.5888  143.9124  154.3601 H   0  0  0  0  0  0  0  0  0  0  0  0
  146.0346  143.8593  156.0635 H   0  0  0  0  0  0  0  0  0  0  0  0
  147.9278  143.1602  154.2709 H   0  0  0  0  0  0  0  0  0  0  0  0
  147.4158  140.6650  153.5907 H   0  0  0  0  0  0  0  0  0  0  0  0
  146.1136  141.7370  153.0292 H   0  0  0  0  0  0  0  0  0  0  0  0
  1  2  1  0  0  0  0
  1 21  1  0  0  0  0
  1 22  1  0  0  0  0
  1 23  1  0  0  0  0
  2  3  1  0  0  0  0
  2 14  1  0  0  0  0
  2 24  1  0  0  0  0
  3  4  1  0  0  0  0
  3 25  1  0  0  0  0
  4  5  2  0  0  0  0
  4  6  1  0  0  0  0
  6  7  1  0  0  0  0
  6 26  1  0  0  0  0
  6 27  1  0  0  0  0
  7 12  1  0  0  0  0
  7  8  1  0  0  0  0
  8  9  2  0  0  0  0
  8 28  1  0  0  0  0
  9 10  1  0  0  0  0
  9 29  1  0  0  0  0
 10 11  2  0  0  0  0
 10 30  1  0  0  0  0
 11 12  1  0  0  0  0
 11 31  1  0  0  0  0
 12 13  2  0  0  0  0
 14 19  1  0  0  0  0
 14 15  1  0  0  0  0
 14 32  1  0  0  0  0
 15 16  1  0  0  0  0
 15 33  1  0  0  0  0
 15 34  1  0  0  0  0
 16 20  1  0  0  0  0
 16 17  1  0  0  0  0
 16 35  1  0  0  0  0
 17 18  1  0  0  0  0
 17 36  1  0  0  0  0
 17 37  1  0  0  0  0
 18 19  1  0  0  0  0
 18 38  1  0  0  0  0
 18 39  1  0  0  0  0
 19 20  1  0  0  0  0
 19 40  1  0  0  0  0
 20 41  1  0  0  0  0
 20 42  1  0  0  0  0
M  END
> <s_m_source_file>
AV-unprocessed.smi

> <i_m_source_file_index>
332

> <i_lp_mmshare_version>
43012

> <i_f3d_flags>
0

> <s_epik_input>
W0NIMl0xW0NIMl1bQ0BIXShbQ0gyXTIpW0NAQEhdKFtDSDJdW0NAQEhdMTIpW0NASF0oW0NIM10pW05IXUMoPU8pW0NIMl1uM1tjSF1bY0hdW2NIXVtjSF1jMz1P

> <s_epik_cmdline>
J2VwaWtfcHl0aG9uJywgJy1waCcsICc3LjAnLCAnLXRuJywgJzgnLCAnLW1hJywgJzIwMCcsICctbWV0YWxfYmluZGluZycsICctaW1hZScsICc8aW5maWxlLm1hZT4nLCAnLW9tYWUnLCAnPG91dGZpbGUubWFlPic=

> <r_lp_tautomer_probability>
1

> <r_epik_Ionization_Penalty>
4.05802e-07

> <r_epik_Ionization_Penalty_Charging>
3.84175e-07

> <r_epik_Ionization_Penalty_Neutral>
2.16269e-08

> <r_epik_State_Penalty>
-0

> <r_epik_Charging_Adjusted_Penalty>
3.84175e-07

> <i_epik_Tot_Q>
0

> <i_epik_Tot_abs_Q>
0

> <r_epik_Metal_State_Penalty>
-0

> <b_epik_Metal_Only>
0

> <s_lp_Force_Field>
OPLS_2005

> <r_lp_Energy>
60.1573

> <b_lp_Chiralities_Consistent>
1

> <s_lp_Variant>
AV-unprocessed.smi:332-2

> <Gold.Version>
5.8.1

> <Gold.Id.Protein>
6NUR|6NUR_protein|mol2

> <Gold.PLP.Fitness>
42.8894

> <Gold.PLP.PLP>
-42.2884

> <Gold.PLP.part.hbond>
-1.0000

> <Gold.PLP.part.metal>
0.0000

> <Gold.PLP.part.buried>
-2.4803

> <Gold.PLP.part.nonpolar>
-38.2458

> <Gold.PLP.part.repulsive>
0.2344

> <Gold.PLP.ligand.clash>
0.0106

> <Gold.PLP.ligand.torsion>
1.2049

> <Gold.PLP.Chemscore.Hbond>
1.0000

> <Gold.PLP.Chemscore.CHOScore>
0.0000

> <Gold.PLP.Chemscore.Metal>
0.0000

> <Gold.Chemscore.Hbonds>
donor molecule, donor type, donor heavy atom, donor atom, acceptor molecule, acceptor atom, score
      L1  H     3    25       P1  8028  1.00

> <Gold.PLP.Chemscore.Internal.Correction>
0.0214

> <Gold.Rescore>
     Score         DG    S(hbond)    S(metal)    S(lipo)     H(rot)  DE(clash)    DE(int)     intcor
     13.48     -16.43       0.99        0.00      98.92       1.54       0.26       2.69       ----

> <Gold.Chemscore.Fitness>
13.4778

> <Gold.Chemscore.DG>
-16.4291

> <Gold.Chemscore.ZeroCoef>
-5.4800

> <Gold.Chemscore.Hbond>
0.9932

> <Gold.Chemscore.Metal>
0.0000

> <Gold.Chemscore.Lipo>
98.9191

> <Gold.Chemscore.Internal_Hbond>
0.0000

> <Gold.Chemscore.DEClash>
0.2582

> <Gold.Chemscore.DEInternal>
2.6931

> <Gold.Chemscore.Rot>
1.5398

> <Gold.Chemscore.Internal.Correction>
   9.000000E+99

> <Gold.Chemscore.Hbonds>
donor molecule, donor type, donor heavy atom, donor atom, acceptor molecule, acceptor atom, score
      L1  H     3    25       P1  8028  0.98

> <Gold.Chemscore.Hbond.Weighted>
-3.3174

> <Gold.Chemscore.Metal.Weighted>
-0.0000

> <Gold.Chemscore.Lipo.Weighted>
-11.5735

> <Gold.Chemscore.Internal_Hbond.Weighted>
0.0000

> <Gold.Chemscore.DEClash.Weighted>
0.2582

> <Gold.Chemscore.DEInternal.Weighted>
2.6931

> <Gold.Chemscore.Rot.Weighted>
3.9419

> <Gold.Chemscore.Internal.Correction.Weighted>
   9.000000E+99

> <Gold.Protein.RotatedTorsions>
[ 6907 6896 6895 6894 ] final -173.46 input  -60.11 | X-H torsion
[ 7974 7965 7964 7962 ] final  -43.90 input  175.53 | X-H torsion
[ 8008 7997 7996 7995 ] final  103.06 input   59.86 | X-H torsion
[ 10167 10162 10161 10158 ] final  113.21 input  -65.29 | X-H torsion
[ 10718 10713 10712 10709 ] final  164.04 input   66.30 | X-H torsion
[ 10763 10752 10751 10750 ] final   47.94 input  -60.55 | X-H torsion
[ 11005 11000 10999 10996 ] final   22.15 input  -57.11 | X-H torsion

> <Gold.Protein.ActiveResidues>
 VAL166  LYS551  ARG553  GLY616  TRP617  ASP618  TYR619  PRO620  LYS621  CYS622 
 ASP623  PHE694  ASN695  SER759  ASP760  ASP761  ALA762  ILE779  LEU786  VAL792 
 PHE793  MET794  SER795  GLU796  ALA797  LYS798  CYS799  TRP800  GLU811  SER814 

> <Gold.Protein.RotatedAtoms>
  151.5565  133.3409  159.2962 H   0  0  0  0  0  0  0  0  0  0  0  0  # atno 6907 bound_to 6896
  150.8448  134.7755  159.6972 H   0  0  0  0  0  0  0  0  0  0  0  0  # atno 6908 bound_to 6896
  152.4508  134.5405  159.9889 H   0  0  0  0  0  0  0  0  0  0  0  0  # atno 6909 bound_to 6896
  145.9974  140.7113  142.9287 H   0  0  0  0  0  0  0  0  0  0  0  0  # atno 7974 bound_to 7965
  156.1450  140.3171  155.8556 H   0  0  0  0  0  0  0  0  0  0  0  0  # atno 8008 bound_to 7997
  155.4081  140.0504  157.3050 H   0  0  0  0  0  0  0  0  0  0  0  0  # atno 8009 bound_to 7997
  154.5008  140.2128  155.9362 H   0  0  0  0  0  0  0  0  0  0  0  0  # atno 8010 bound_to 7997
  139.6478  144.7127  151.2107 H   0  0  0  0  0  0  0  0  0  0  0  0  # atno 10167 bound_to 10162
  157.0999  131.0440  151.2502 H   0  0  0  0  0  0  0  0  0  0  0  0  # atno 10718 bound_to 10713
  152.9795  135.5960  154.3845 H   0  0  0  0  0  0  0  0  0  0  0  0  # atno 10763 bound_to 10752
  154.3507  135.2767  155.2375 H   0  0  0  0  0  0  0  0  0  0  0  0  # atno 10764 bound_to 10752
  154.4416  135.6012  153.6188 H   0  0  0  0  0  0  0  0  0  0  0  0  # atno 10765 bound_to 10752
  140.3837  134.1893  155.7663 H   0  0  0  0  0  0  0  0  0  0  0  0  # atno 11005 bound_to 11000
  144.6908  140.3174  143.7238 LP  0  0  0  0  0  0  0  0  0  0  0  0  # atno 17320 bound_to 7965
  145.7539  139.1802  143.2305 LP  0  0  0  0  0  0  0  0  0  0  0  0  # atno 17321 bound_to 7965
  140.7523  143.6201  150.8522 LP  0  0  0  0  0  0  0  0  0  0  0  0  # atno 17342 bound_to 10162
  139.9846  143.5914  152.2931 LP  0  0  0  0  0  0  0  0  0  0  0  0  # atno 17343 bound_to 10162
  157.4649  130.7675  149.7270 LP  0  0  0  0  0  0  0  0  0  0  0  0  # atno 17370 bound_to 10713
  155.9876  130.3965  150.3157 LP  0  0  0  0  0  0  0  0  0  0  0  0  # atno 17371 bound_to 10713
  141.1915  133.8194  157.0878 LP  0  0  0  0  0  0  0  0  0  0  0  0  # atno 17394 bound_to 11000
  140.0459  134.9830  157.1048 LP  0  0  0  0  0  0  0  0  0  0  0  0  # atno 17395 bound_to 11000

$$$$
