AV-unprocessed.smi:2305|AV-procd|sdf|9246|dock1
  -GOLD-   2272012463D 1   1.00000     0.00000
 Structure written by MMmdl.
 40 41  0  0  0  0  0  0  0  0  1 V2000
  152.1778  140.5829  159.4900 C   0  0  0  0  0  0  0  0  0  0  0  0
  151.4637  140.7628  158.1619 C   0  0  0  0  0  0  0  0  0  0  0  0
  150.4942  141.7691  158.1294 N   0  0  0  0  0  0  0  0  0  0  0  0
  149.8357  141.9954  157.0398 C   0  0  0  0  0  0  0  0  0  0  0  0
  150.0613  141.2474  155.8728 N   0  0  0  0  0  0  0  0  0  0  0  0
  149.2446  141.6041  154.7003 C   0  0  0  0  0  0  0  0  0  0  0  0
  148.3110  140.4509  154.2688 C   0  0  2  0  0  0  0  0  0  0  0  0
  149.0579  139.5423  153.4835 O   0  0  0  0  0  0  0  0  0  0  0  0
  147.1344  140.9561  153.4118 C   0  0  0  0  0  0  0  0  0  0  0  0
  146.2867  141.9906  154.1308 C   0  0  0  0  0  0  0  0  0  0  0  0
  145.9017  141.7809  155.4707 C   0  0  0  0  0  0  0  0  0  0  0  0
  145.1126  142.7371  156.1386 C   0  0  0  0  0  0  0  0  0  0  0  0
  144.7027  143.9138  155.4756 C   0  0  0  0  0  0  0  0  0  0  0  0
  143.8428  144.9354  156.2052 C   0  0  0  0  0  0  0  0  0  0  0  0
  143.5995  146.0015  155.4417 F   0  0  0  0  0  0  0  0  0  0  0  0
  142.6814  144.3741  156.5389 F   0  0  0  0  0  0  0  0  0  0  0  0
  144.4551  145.3485  157.3152 F   0  0  0  0  0  0  0  0  0  0  0  0
  145.0853  144.1181  154.1314 C   0  0  0  0  0  0  0  0  0  0  0  0
  145.8755  143.1626  153.4633 C   0  0  0  0  0  0  0  0  0  0  0  0
  150.9937  140.2526  155.8159 C   0  0  0  0  0  0  0  0  0  0  0  0
  151.1933  139.6121  154.7817 O   0  0  0  0  0  0  0  0  0  0  0  0
  151.7365  140.0079  157.0628 C   0  0  0  0  0  0  0  0  0  0  0  0
  152.7848  138.9025  157.0373 C   0  0  0  0  0  0  0  0  0  0  0  0
  152.0347  139.5700  159.8673 H   0  0  0  0  0  0  0  0  0  0  0  0
  151.7985  141.2758  160.2422 H   0  0  0  0  0  0  0  0  0  0  0  0
  153.2466  140.7658  159.3764 H   0  0  0  0  0  0  0  0  0  0  0  0
  149.0755  142.7744  156.9598 H   0  0  0  0  0  0  0  0  0  0  0  0
  148.6480  142.4804  154.9600 H   0  0  0  0  0  0  0  0  0  0  0  0
  149.8537  141.9388  153.8576 H   0  0  0  0  0  0  0  0  0  0  0  0
  147.9196  139.9371  155.1479 H   0  0  0  0  0  0  0  0  0  0  0  0
  149.1570  139.9076  152.6173 H   0  0  0  0  0  0  0  0  0  0  0  0
  147.5172  141.4287  152.5063 H   0  0  0  0  0  0  0  0  0  0  0  0
  146.5124  140.1249  153.0759 H   0  0  0  0  0  0  0  0  0  0  0  0
  146.2086  140.8840  155.9891 H   0  0  0  0  0  0  0  0  0  0  0  0
  144.8202  142.5636  157.1639 H   0  0  0  0  0  0  0  0  0  0  0  0
  144.7740  145.0071  153.6033 H   0  0  0  0  0  0  0  0  0  0  0  0
  146.1620  143.3311  152.4354 H   0  0  0  0  0  0  0  0  0  0  0  0
  153.5391  139.1174  156.2795 H   0  0  0  0  0  0  0  0  0  0  0  0
  152.3189  137.9481  156.7896 H   0  0  0  0  0  0  0  0  0  0  0  0
  153.3021  138.7790  157.9873 H   0  0  0  0  0  0  0  0  0  0  0  0
  1  2  1  0  0  0  0
  1 24  1  0  0  0  0
  1 25  1  0  0  0  0
  1 26  1  0  0  0  0
  2 22  2  0  0  0  0
  2  3  1  0  0  0  0
  3  4  2  0  0  0  0
  4  5  1  0  0  0  0
  4 27  1  0  0  0  0
  5  6  1  0  0  0  0
  5 20  1  0  0  0  0
  6  7  1  0  0  0  0
  6 28  1  0  0  0  0
  6 29  1  0  0  0  0
  7  8  1  0  0  0  0
  7  9  1  0  0  0  0
  7 30  1  0  0  0  0
  8 31  1  0  0  0  0
  9 10  1  0  0  0  0
  9 32  1  0  0  0  0
  9 33  1  0  0  0  0
 10 19  1  0  0  0  0
 10 11  2  0  0  0  0
 11 12  1  0  0  0  0
 11 34  1  0  0  0  0
 12 13  2  0  0  0  0
 12 35  1  0  0  0  0
 13 14  1  0  0  0  0
 13 18  1  0  0  0  0
 14 15  1  0  0  0  0
 14 16  1  0  0  0  0
 14 17  1  0  0  0  0
 18 19  2  0  0  0  0
 18 36  1  0  0  0  0
 19 37  1  0  0  0  0
 20 21  2  0  0  0  0
 20 22  1  0  0  0  0
 22 23  1  0  0  0  0
 23 38  1  0  0  0  0
 23 39  1  0  0  0  0
 23 40  1  0  0  0  0
M  END
> <s_m_source_file>
AV-unprocessed.smi

> <i_m_source_file_index>
2305

> <i_lp_mmshare_version>
43012

> <i_f3d_flags>
0

> <s_epik_input>
W0NIM11jMW5bY0hdbihjKD1PKWMxW0NIM10pW0NIMl1bQ0BIXShbT0hdKVtDSDJdYzJbY0hdW2NIXWMoQyhGKShGKUYpW2NIXVtjSF0y

> <s_epik_cmdline>
J2VwaWtfcHl0aG9uJywgJy1waCcsICc3LjAnLCAnLXRuJywgJzgnLCAnLW1hJywgJzIwMCcsICctbWV0YWxfYmluZGluZycsICctaW1hZScsICc8aW5maWxlLm1hZT4nLCAnLW9tYWUnLCAnPG91dGZpbGUubWFlPic=

> <r_lp_tautomer_probability>
1

> <r_epik_Ionization_Penalty>
8.92636e-05

> <r_epik_Ionization_Penalty_Charging>
8.63033e-08

> <r_epik_Ionization_Penalty_Neutral>
8.91773e-05

> <r_epik_State_Penalty>
-0

> <r_epik_Charging_Adjusted_Penalty>
8.63033e-08

> <i_epik_Tot_Q>
0

> <i_epik_Tot_abs_Q>
0

> <r_epik_Metal_State_Penalty>
-0

> <b_epik_Metal_Only>
0

> <s_lp_Force_Field>
OPLS_2005

> <r_lp_Energy>
20.2426

> <b_lp_Chiralities_Consistent>
1

> <s_lp_Variant>
AV-unprocessed.smi:2305-1

> <Gold.Version>
5.8.1

> <Gold.Id.Protein>
6NUR|6NUR_protein|mol2

> <Gold.PLP.Fitness>
50.5369

> <Gold.PLP.PLP>
-42.0912

> <Gold.PLP.part.hbond>
-1.6959

> <Gold.PLP.part.metal>
0.0000

> <Gold.PLP.part.buried>
-5.5456

> <Gold.PLP.part.nonpolar>
-35.0590

> <Gold.PLP.part.repulsive>
0.1071

> <Gold.PLP.ligand.clash>
0.6028

> <Gold.PLP.ligand.torsion>
0.4387

> <Gold.PLP.Chemscore.Hbond>
2.0000

> <Gold.PLP.Chemscore.CHOScore>
1.0000

> <Gold.PLP.Chemscore.Metal>
0.0000

> <Gold.Chemscore.Hbonds>
donor molecule, donor type, donor heavy atom, donor atom, acceptor molecule, acceptor atom, score
      L1  H     8    31       P1  7957  1.00
      P1  H  7989  7998       L1    21  1.00
      L1  C     4    27       P1  8028  1.00

> <Gold.PLP.Chemscore.Internal.Correction>
0.9258

> <Gold.Rescore>
     Score         DG    S(hbond)    S(metal)    S(lipo)     H(rot)  DE(clash)    DE(int)     intcor
     11.67     -15.07       1.94        0.00      78.39       2.37       1.48       1.92       ----

> <Gold.Chemscore.Fitness>
11.6671

> <Gold.Chemscore.DG>
-15.0735

> <Gold.Chemscore.ZeroCoef>
-5.4800

> <Gold.Chemscore.Hbond>
1.9415

> <Gold.Chemscore.Metal>
0.0000

> <Gold.Chemscore.Lipo>
78.3858

> <Gold.Chemscore.Internal_Hbond>
0.0000

> <Gold.Chemscore.DEClash>
1.4816

> <Gold.Chemscore.DEInternal>
1.9247

> <Gold.Chemscore.Rot>
2.3681

> <Gold.Chemscore.Internal.Correction>
   9.000000E+99

> <Gold.Chemscore.Hbonds>
donor molecule, donor type, donor heavy atom, donor atom, acceptor molecule, acceptor atom, score
      L1  H     8    31       P1  7957  0.93
      P1  H  7989  7998       L1    21  0.55

> <Gold.Chemscore.Hbond.Weighted>
-6.4847

> <Gold.Chemscore.Metal.Weighted>
-0.0000

> <Gold.Chemscore.Lipo.Weighted>
-9.1711

> <Gold.Chemscore.Internal_Hbond.Weighted>
0.0000

> <Gold.Chemscore.DEClash.Weighted>
1.4816

> <Gold.Chemscore.DEInternal.Weighted>
1.9247

> <Gold.Chemscore.Rot.Weighted>
6.0624

> <Gold.Chemscore.Internal.Correction.Weighted>
   9.000000E+99

> <Gold.Protein.RotatedTorsions>
[ 6907 6896 6895 6894 ] final  148.47 input  -60.11 | X-H torsion
[ 7974 7965 7964 7962 ] final  -79.39 input  175.53 | X-H torsion
[ 8008 7997 7996 7995 ] final -159.75 input   59.86 | X-H torsion
[ 10167 10162 10161 10158 ] final -156.22 input  -65.29 | X-H torsion
[ 10718 10713 10712 10709 ] final  101.74 input   66.30 | X-H torsion
[ 10763 10752 10751 10750 ] final   38.31 input  -60.55 | X-H torsion
[ 11005 11000 10999 10996 ] final  131.07 input  -57.11 | X-H torsion

> <Gold.Protein.ActiveResidues>
 VAL166  LYS551  ARG553  GLY616  TRP617  ASP618  TYR619  PRO620  LYS621  CYS622 
 ASP623  PHE694  ASN695  SER759  ASP760  ASP761  ALA762  ILE779  LEU786  VAL792 
 PHE793  MET794  SER795  GLU796  ALA797  LYS798  CYS799  TRP800  GLU811  SER814 

> <Gold.Protein.RotatedAtoms>
  152.1411  133.4464  159.4766 H   0  0  0  0  0  0  0  0  0  0  0  0  # atno 6907 bound_to 6896
  150.6886  134.2305  159.4441 H   0  0  0  0  0  0  0  0  0  0  0  0  # atno 6908 bound_to 6896
  152.0195  134.9830  160.0621 H   0  0  0  0  0  0  0  0  0  0  0  0  # atno 6909 bound_to 6896
  145.5739  140.9461  143.1381 H   0  0  0  0  0  0  0  0  0  0  0  0  # atno 7974 bound_to 7965
  155.7672  140.0847  157.2126 H   0  0  0  0  0  0  0  0  0  0  0  0  # atno 8008 bound_to 7997
  154.3999  140.1532  156.2957 H   0  0  0  0  0  0  0  0  0  0  0  0  # atno 8009 bound_to 7997
  155.8782  140.3422  155.5872 H   0  0  0  0  0  0  0  0  0  0  0  0  # atno 8010 bound_to 7997
  139.6868  143.9488  152.2365 H   0  0  0  0  0  0  0  0  0  0  0  0  # atno 10167 bound_to 10162
  157.6821  131.0734  150.5297 H   0  0  0  0  0  0  0  0  0  0  0  0  # atno 10718 bound_to 10713
  153.0006  135.6253  154.2284 H   0  0  0  0  0  0  0  0  0  0  0  0  # atno 10763 bound_to 10752
  154.2026  135.2803  155.2987 H   0  0  0  0  0  0  0  0  0  0  0  0  # atno 10764 bound_to 10752
  154.5671  135.5687  153.7120 H   0  0  0  0  0  0  0  0  0  0  0  0  # atno 10765 bound_to 10752
  139.9709  134.9577  156.9386 H   0  0  0  0  0  0  0  0  0  0  0  0  # atno 11005 bound_to 11000
  144.7425  139.7410  143.7305 LP  0  0  0  0  0  0  0  0  0  0  0  0  # atno 17320 bound_to 7965
  146.1765  139.4938  142.9894 LP  0  0  0  0  0  0  0  0  0  0  0  0  # atno 17321 bound_to 7965
  139.9293  144.6751  150.8379 LP  0  0  0  0  0  0  0  0  0  0  0  0  # atno 17342 bound_to 10162
  140.7670  143.3320  151.2390 LP  0  0  0  0  0  0  0  0  0  0  0  0  # atno 17343 bound_to 10162
  156.5608  130.4255  149.6064 LP  0  0  0  0  0  0  0  0  0  0  0  0  # atno 17370 bound_to 10713
  156.2823  130.7078  151.1905 LP  0  0  0  0  0  0  0  0  0  0  0  0  # atno 17371 bound_to 10713
  140.5296  134.0827  155.7312 LP  0  0  0  0  0  0  0  0  0  0  0  0  # atno 17394 bound_to 11000
  141.1388  133.9174  157.2372 LP  0  0  0  0  0  0  0  0  0  0  0  0  # atno 17395 bound_to 11000

$$$$
