AV-unprocessed.smi:2952|AV-procd|sdf|11292|dock2
  -GOLD-   2272016183D 1   1.00000     0.00000
 Structure written by MMmdl.
 39 41  0  0  0  0  0  0  0  0  2 V2000
  153.3320  139.1467  155.1172 O   0  0  0  0  0  0  0  0  0  0  0  0
  151.9247  139.0338  155.1575 C   0  0  0  0  0  0  0  0  0  0  0  0
  151.3849  139.3147  156.5691 C   0  0  0  0  0  0  0  0  0  0  0  0
  151.1572  140.7480  156.8182 N   0  0  0  0  0  0  0  0  0  0  0  0
  150.3573  141.6377  156.1614 C   0  0  0  0  0  0  0  0  0  0  0  0
  149.4763  141.3588  154.9840 C   0  0  0  0  0  0  0  0  0  0  0  0
  148.1652  141.9972  155.0682 N   0  0  0  0  0  0  0  0  0  0  0  0
  147.3510  141.4714  156.1615 C   0  0  0  0  0  0  0  0  0  0  0  0
  145.9724  142.1514  156.2239 C   0  0  0  0  0  0  0  0  0  0  0  0
  145.3083  142.0006  154.9732 O   0  0  0  0  0  0  0  0  0  0  0  0
  146.0518  142.5426  153.8861 C   0  0  0  0  0  0  0  0  0  0  0  0
  147.4301  141.8629  153.8159 C   0  0  0  0  0  0  0  0  0  0  0  0
  150.5029  142.8440  156.7783 N   0  3  0  0  0  0  0  0  0  0  0  0
  151.3987  142.7261  157.8413 C   0  0  0  0  0  0  0  0  0  0  0  0
  151.8574  143.6711  158.7536 C   0  0  0  0  0  0  0  0  0  0  0  0
  152.7710  143.2184  159.7277 C   0  0  0  0  0  0  0  0  0  0  0  0
  153.1952  141.8740  159.7708 C   0  0  0  0  0  0  0  0  0  0  0  0
  154.3117  141.3771  160.9881 Cl  0  0  0  0  0  0  0  0  0  0  0  0
  152.7233  140.9267  158.8382 C   0  0  0  0  0  0  0  0  0  0  0  0
  151.8215  141.3814  157.8761 C   0  0  0  0  0  0  0  0  0  0  0  0
  153.7064  138.2989  155.3036 H   0  0  0  0  0  0  0  0  0  0  0  0
  151.4946  139.7383  154.4455 H   0  0  0  0  0  0  0  0  0  0  0  0
  151.6394  138.0337  154.8302 H   0  0  0  0  0  0  0  0  0  0  0  0
  150.4643  138.7619  156.7548 H   0  0  0  0  0  0  0  0  0  0  0  0
  152.0989  138.9606  157.3123 H   0  0  0  0  0  0  0  0  0  0  0  0
  149.9971  141.7099  154.0926 H   0  0  0  0  0  0  0  0  0  0  0  0
  149.3626  140.2799  154.8683 H   0  0  0  0  0  0  0  0  0  0  0  0
  147.2170  140.3955  156.0387 H   0  0  0  0  0  0  0  0  0  0  0  0
  147.8594  141.6166  157.1148 H   0  0  0  0  0  0  0  0  0  0  0  0
  145.3629  141.7024  157.0081 H   0  0  0  0  0  0  0  0  0  0  0  0
  146.0745  143.2110  156.4639 H   0  0  0  0  0  0  0  0  0  0  0  0
  145.5007  142.3801  152.9597 H   0  0  0  0  0  0  0  0  0  0  0  0
  146.1589  143.6212  154.0111 H   0  0  0  0  0  0  0  0  0  0  0  0
  148.0058  142.3004  152.9995 H   0  0  0  0  0  0  0  0  0  0  0  0
  147.2995  140.8068  153.5744 H   0  0  0  0  0  0  0  0  0  0  0  0
  151.5333  144.7010  158.7259 H   0  0  0  0  0  0  0  0  0  0  0  0
  153.1523  143.9172  160.4584 H   0  0  0  0  0  0  0  0  0  0  0  0
  153.0492  139.8983  158.8844 H   0  0  0  0  0  0  0  0  0  0  0  0
  150.0208  143.6858  156.4908 H   0  0  0  0  0  0  0  0  0  0  0  0
  1  2  1  0  0  0  0
  1 21  1  0  0  0  0
  2  3  1  0  0  0  0
  2 22  1  0  0  0  0
  2 23  1  0  0  0  0
  3  4  1  0  0  0  0
  3 24  1  0  0  0  0
  3 25  1  0  0  0  0
  4 20  1  0  0  0  0
  4  5  1  0  0  0  0
  5  6  1  0  0  0  0
  5 13  2  0  0  0  0
  6  7  1  0  0  0  0
  6 26  1  0  0  0  0
  6 27  1  0  0  0  0
  7 12  1  0  0  0  0
  7  8  1  0  0  0  0
  8  9  1  0  0  0  0
  8 28  1  0  0  0  0
  8 29  1  0  0  0  0
  9 10  1  0  0  0  0
  9 30  1  0  0  0  0
  9 31  1  0  0  0  0
 10 11  1  0  0  0  0
 11 12  1  0  0  0  0
 11 32  1  0  0  0  0
 11 33  1  0  0  0  0
 12 34  1  0  0  0  0
 12 35  1  0  0  0  0
 13 14  1  0  0  0  0
 13 39  1  0  0  0  0
 14 20  2  0  0  0  0
 14 15  1  0  0  0  0
 15 16  2  0  0  0  0
 15 36  1  0  0  0  0
 16 17  1  0  0  0  0
 16 37  1  0  0  0  0
 17 18  1  0  0  0  0
 17 19  2  0  0  0  0
 19 20  1  0  0  0  0
 19 38  1  0  0  0  0
M  CHG  1  13   1
M  END
> <s_m_source_file>
AV-unprocessed.smi

> <i_m_source_file_index>
2952

> <i_lp_mmshare_version>
43012

> <i_f3d_flags>
0

> <s_epik_input>
W2NIXTFbY0hdYyhDbClbY0hdYyhjMTIpbihbQ0gyXVtDSDJdW09IXSljKG4yKVtDSDJdTjNbQ0gyXVtDSDJdT1tDSDJdW0NIMl0z

> <s_epik_cmdline>
J2VwaWtfcHl0aG9uJywgJy1waCcsICc3LjAnLCAnLXRuJywgJzgnLCAnLW1hJywgJzIwMCcsICctbWV0YWxfYmluZGluZycsICctaW1hZScsICc8aW5maWxlLm1hZT4nLCAnLW9tYWUnLCAnPG91dGZpbGUubWFlPic=

> <r_epik_Ionization_Penalty>
1.17151

> <r_epik_Ionization_Penalty_Charging>
1.1712

> <r_epik_Ionization_Penalty_Neutral>
0.000312352

> <r_epik_State_Penalty>
1.2343

> <r_epik_Charging_Adjusted_Penalty>
2.4055

> <i_epik_Tot_Q>
1

> <i_epik_Tot_abs_Q>
1

> <r_epik_Metal_State_Penalty>
5.24833

> <b_epik_Metal_Only>
0

> <s_lp_Force_Field>
OPLS_2005

> <r_lp_Energy>
24.7886

> <b_lp_Chiralities_Consistent>
1

> <s_lp_Variant>
AV-unprocessed.smi:2952-2

> <Gold.Version>
5.8.1

> <Gold.Id.Protein>
6NUR|6NUR_protein|mol2

> <Gold.PLP.Fitness>
52.0467

> <Gold.PLP.PLP>
-43.8552

> <Gold.PLP.part.hbond>
-2.0000

> <Gold.PLP.part.metal>
0.0000

> <Gold.PLP.part.buried>
-7.1032

> <Gold.PLP.part.nonpolar>
-37.1744

> <Gold.PLP.part.repulsive>
2.2623

> <Gold.PLP.ligand.clash>
0.0000

> <Gold.PLP.ligand.torsion>
0.4210

> <Gold.PLP.Chemscore.Hbond>
3.0000

> <Gold.PLP.Chemscore.CHOScore>
0.0000

> <Gold.PLP.Chemscore.Metal>
0.0000

> <Gold.Chemscore.Hbonds>
donor molecule, donor type, donor heavy atom, donor atom, acceptor molecule, acceptor atom, score
      L1  H    13    39       P1  8028  2.00
      P1  H  7997  8010       L1     1  1.00

> <Gold.PLP.Chemscore.Internal.Correction>
0.0335

> <Gold.Rescore>
     Score         DG    S(hbond)    S(metal)    S(lipo)     H(rot)  DE(clash)    DE(int)     intcor
     18.46     -19.28       1.94        0.00     110.25       2.18       0.41       0.41       ----

> <Gold.Chemscore.Fitness>
18.4552

> <Gold.Chemscore.DG>
-19.2788

> <Gold.Chemscore.ZeroCoef>
-5.4800

> <Gold.Chemscore.Hbond>
1.9418

> <Gold.Chemscore.Metal>
0.0000

> <Gold.Chemscore.Lipo>
110.2534

> <Gold.Chemscore.Internal_Hbond>
0.0000

> <Gold.Chemscore.DEClash>
0.4110

> <Gold.Chemscore.DEInternal>
0.4126

> <Gold.Chemscore.Rot>
2.1822

> <Gold.Chemscore.Internal.Correction>
   9.000000E+99

> <Gold.Chemscore.Hbonds>
donor molecule, donor type, donor heavy atom, donor atom, acceptor molecule, acceptor atom, score
      L1  H    13    39       P1  8028  1.00
      P1  H  7997  8010       L1     1  0.25

> <Gold.Chemscore.Hbond.Weighted>
-6.4855

> <Gold.Chemscore.Metal.Weighted>
-0.0000

> <Gold.Chemscore.Lipo.Weighted>
-12.8996

> <Gold.Chemscore.Internal_Hbond.Weighted>
0.0000

> <Gold.Chemscore.DEClash.Weighted>
0.4110

> <Gold.Chemscore.DEInternal.Weighted>
0.4126

> <Gold.Chemscore.Rot.Weighted>
5.5863

> <Gold.Chemscore.Internal.Correction.Weighted>
   9.000000E+99

> <Gold.Protein.RotatedTorsions>
[ 6907 6896 6895 6894 ] final   94.32 input  -60.11 | X-H torsion
[ 7974 7965 7964 7962 ] final  -74.82 input  175.53 | X-H torsion
[ 8008 7997 7996 7995 ] final   94.85 input   59.86 | X-H torsion
[ 10167 10162 10161 10158 ] final -102.23 input  -65.29 | X-H torsion
[ 10718 10713 10712 10709 ] final   76.00 input   66.30 | X-H torsion
[ 10763 10752 10751 10750 ] final -103.06 input  -60.55 | X-H torsion
[ 11005 11000 10999 10996 ] final  -66.17 input  -57.11 | X-H torsion

> <Gold.Protein.ActiveResidues>
 VAL166  LYS551  ARG553  GLY616  TRP617  ASP618  TYR619  PRO620  LYS621  CYS622 
 ASP623  PHE694  ASN695  SER759  ASP760  ASP761  ALA762  ILE779  LEU786  VAL792 
 PHE793  MET794  SER795  GLU796  ALA797  LYS798  CYS799  TRP800  GLU811  SER814 

> <Gold.Protein.RotatedAtoms>
  152.5450  134.1211  159.8399 H   0  0  0  0  0  0  0  0  0  0  0  0  # atno 6907 bound_to 6896
  151.1267  133.5058  159.2608 H   0  0  0  0  0  0  0  0  0  0  0  0  # atno 6908 bound_to 6896
  151.1720  135.0332  159.8810 H   0  0  0  0  0  0  0  0  0  0  0  0  # atno 6909 bound_to 6896
  145.6341  140.9329  143.1071 H   0  0  0  0  0  0  0  0  0  0  0  0  # atno 7974 bound_to 7965
  156.0624  140.3294  155.7478 H   0  0  0  0  0  0  0  0  0  0  0  0  # atno 8008 bound_to 7997
  155.5434  140.0603  157.2883 H   0  0  0  0  0  0  0  0  0  0  0  0  # atno 8009 bound_to 7997
  154.4488  140.1907  156.0602 H   0  0  0  0  0  0  0  0  0  0  0  0  # atno 8010 bound_to 7997
  140.2328  143.3594  152.0871 H   0  0  0  0  0  0  0  0  0  0  0  0  # atno 10167 bound_to 10162
  157.6656  130.9753  150.1434 H   0  0  0  0  0  0  0  0  0  0  0  0  # atno 10718 bound_to 10713
  154.7780  135.4837  153.9784 H   0  0  0  0  0  0  0  0  0  0  0  0  # atno 10763 bound_to 10752
  153.1454  135.6781  153.8969 H   0  0  0  0  0  0  0  0  0  0  0  0  # atno 10764 bound_to 10752
  153.8631  135.3153  155.3417 H   0  0  0  0  0  0  0  0  0  0  0  0  # atno 10765 bound_to 10752
  141.1475  133.6694  156.6099 H   0  0  0  0  0  0  0  0  0  0  0  0  # atno 11005 bound_to 11000
  144.7182  139.8121  143.7391 LP  0  0  0  0  0  0  0  0  0  0  0  0  # atno 17320 bound_to 7965
  146.1333  139.4373  143.0155 LP  0  0  0  0  0  0  0  0  0  0  0  0  # atno 17321 bound_to 7965
  139.5104  144.6883  151.5828 LP  0  0  0  0  0  0  0  0  0  0  0  0  # atno 17342 bound_to 10162
  140.6172  143.9326  150.6498 LP  0  0  0  0  0  0  0  0  0  0  0  0  # atno 17343 bound_to 10162
  156.2251  130.3677  149.8510 LP  0  0  0  0  0  0  0  0  0  0  0  0  # atno 17370 bound_to 10713
  156.6352  130.8682  151.3503 LP  0  0  0  0  0  0  0  0  0  0  0  0  # atno 17371 bound_to 10713
  140.3623  134.7677  157.4542 LP  0  0  0  0  0  0  0  0  0  0  0  0  # atno 17394 bound_to 11000
  140.0776  134.5776  155.8575 LP  0  0  0  0  0  0  0  0  0  0  0  0  # atno 17395 bound_to 11000

$$$$
