AV-unprocessed.smi:1971|AV-procd|sdf|7969|dock3
  -GOLD-   2272010143D 1   1.00000     0.00000
 Structure written by MMmdl.
 43 44  0  0  0  0  0  0  0  0  3 V2000
  152.2608  144.8360  159.2641 C   0  0  0  0  0  0  0  0  0  0  0  0
  152.3152  143.3472  159.6361 C   0  0  0  0  0  0  0  0  0  0  0  0
  152.2391  142.4602  158.4489 N   0  3  0  0  0  0  0  0  0  0  0  0
  151.1110  142.8126  157.5515 C   0  0  0  0  0  0  0  0  0  0  0  0
  151.0760  141.8820  156.3176 C   0  0  0  0  0  0  0  0  0  0  0  0
  150.9644  140.4645  156.6943 N   0  0  0  0  0  0  0  0  0  0  0  0
  149.6671  140.0910  157.3018 C   0  0  1  0  0  0  0  0  0  0  0  0
  148.5034  140.5263  156.3798 C   0  0  0  0  0  0  0  0  0  0  0  0
  149.5749  138.5692  157.6015 C   0  0  0  0  0  0  0  0  0  0  0  0
  148.7216  138.2775  158.7498 N   0  0  0  0  0  0  0  0  0  0  0  0
  148.7250  137.1363  159.4543 C   0  0  0  0  0  0  0  0  0  0  0  0
  149.4855  136.2185  159.1352 O   0  0  0  0  0  0  0  0  0  0  0  0
  147.8513  137.1310  160.4857 N   0  5  0  0  0  0  0  0  0  0  0  0
  147.4537  135.9670  161.0248 C   0  0  0  0  0  0  0  0  0  0  0  0
  147.7681  134.7761  160.5024 N   0  0  0  0  0  0  0  0  0  0  0  0
  147.2589  133.6989  161.2297 C   0  0  0  0  0  0  0  0  0  0  0  0
  146.5455  134.0782  162.3356 C   0  0  0  0  0  0  0  0  0  0  0  0
  146.4924  135.8104  162.4977 S   0  0  0  0  0  0  0  0  0  0  0  0
  152.1579  140.1676  157.4988 C   0  0  0  0  0  0  0  0  0  0  0  0
  152.2026  141.0150  158.7870 C   0  0  0  0  0  0  0  0  0  0  0  0
  152.2173  145.4540  160.1612 H   0  0  0  0  0  0  0  0  0  0  0  0
  151.3772  145.0611  158.6661 H   0  0  0  0  0  0  0  0  0  0  0  0
  153.1394  145.1489  158.7006 H   0  0  0  0  0  0  0  0  0  0  0  0
  153.2156  143.1268  160.2114 H   0  0  0  0  0  0  0  0  0  0  0  0
  151.4695  143.1348  160.2916 H   0  0  0  0  0  0  0  0  0  0  0  0
  150.1689  142.7832  158.0996 H   0  0  0  0  0  0  0  0  0  0  0  0
  151.2352  143.8418  157.2131 H   0  0  0  0  0  0  0  0  0  0  0  0
  150.2768  142.1779  155.6410 H   0  0  0  0  0  0  0  0  0  0  0  0
  151.9932  142.0156  155.7421 H   0  0  0  0  0  0  0  0  0  0  0  0
  149.5523  140.6145  158.2492 H   0  0  0  0  0  0  0  0  0  0  0  0
  147.5386  140.1915  156.7604 H   0  0  0  0  0  0  0  0  0  0  0  0
  148.6171  140.1140  155.3766 H   0  0  0  0  0  0  0  0  0  0  0  0
  148.4209  141.6085  156.2951 H   0  0  0  0  0  0  0  0  0  0  0  0
  149.1817  138.0363  156.7353 H   0  0  0  0  0  0  0  0  0  0  0  0
  150.5476  138.1313  157.8218 H   0  0  0  0  0  0  0  0  0  0  0  0
  148.0824  139.0023  159.0418 H   0  0  0  0  0  0  0  0  0  0  0  0
  147.4546  132.6936  160.8878 H   0  0  0  0  0  0  0  0  0  0  0  0
  146.0523  133.4494  163.0612 H   0  0  0  0  0  0  0  0  0  0  0  0
  152.2329  139.1061  157.7261 H   0  0  0  0  0  0  0  0  0  0  0  0
  153.0439  140.3808  156.8991 H   0  0  0  0  0  0  0  0  0  0  0  0
  153.0962  140.7443  159.3476 H   0  0  0  0  0  0  0  0  0  0  0  0
  151.3524  140.7961  159.4345 H   0  0  0  0  0  0  0  0  0  0  0  0
  153.0819  142.6138  157.9141 H   0  0  0  0  0  0  0  0  0  0  0  0
  1  2  1  0  0  0  0
  1 21  1  0  0  0  0
  1 22  1  0  0  0  0
  1 23  1  0  0  0  0
  2  3  1  0  0  0  0
  2 24  1  0  0  0  0
  2 25  1  0  0  0  0
  3 20  1  0  0  0  0
  3  4  1  0  0  0  0
  3 43  1  0  0  0  0
  4  5  1  0  0  0  0
  4 26  1  0  0  0  0
  4 27  1  0  0  0  0
  5  6  1  0  0  0  0
  5 28  1  0  0  0  0
  5 29  1  0  0  0  0
  6  7  1  0  0  0  0
  6 19  1  0  0  0  0
  7  8  1  0  0  0  0
  7  9  1  0  0  0  0
  7 30  1  0  0  0  0
  8 31  1  0  0  0  0
  8 32  1  0  0  0  0
  8 33  1  0  0  0  0
  9 10  1  0  0  0  0
  9 34  1  0  0  0  0
  9 35  1  0  0  0  0
 10 11  1  0  0  0  0
 10 36  1  0  0  0  0
 11 12  2  0  0  0  0
 11 13  1  0  0  0  0
 13 14  1  0  0  0  0
 14 18  1  0  0  0  0
 14 15  2  0  0  0  0
 15 16  1  0  0  0  0
 16 17  2  0  0  0  0
 16 37  1  0  0  0  0
 17 18  1  0  0  0  0
 17 38  1  0  0  0  0
 19 20  1  0  0  0  0
 19 39  1  0  0  0  0
 19 40  1  0  0  0  0
 20 41  1  0  0  0  0
 20 42  1  0  0  0  0
M  CHG  1   3   1
M  CHG  1  13  -1
M  END
> <s_m_source_file>
AV-unprocessed.smi

> <i_m_source_file_index>
1971

> <i_lp_mmshare_version>
43012

> <i_f3d_flags>
0

> <s_epik_input>
W0NIM11bQ0gyXU4xW0NIMl1bQ0gyXU4oW0NIMl1bQ0gyXTEpW0NASF0oW0NIM10pW0NIMl1bTkhdQyg9TylbTkhdYzJuW2NIXVtjSF1zMg==

> <s_epik_cmdline>
J2VwaWtfcHl0aG9uJywgJy1waCcsICc3LjAnLCAnLXRuJywgJzgnLCAnLW1hJywgJzIwMCcsICctbWV0YWxfYmluZGluZycsICctaW1hZScsICc8aW5maWxlLm1hZT4nLCAnLW9tYWUnLCAnPG91dGZpbGUubWFlPic=

> <r_lp_tautomer_probability>
0.999

> <r_epik_Ionization_Penalty>
7.06996

> <r_epik_Ionization_Penalty_Charging>
5.92347

> <r_epik_Ionization_Penalty_Neutral>
1.14649

> <r_epik_State_Penalty>
6.04391

> <r_epik_Charging_Adjusted_Penalty>
11.9674

> <i_epik_Tot_Q>
0

> <i_epik_Tot_abs_Q>
2

> <r_epik_Metal_State_Penalty>
2.01291

> <b_epik_Metal_Only>
1

> <s_lp_Force_Field>
OPLS_2005

> <r_lp_Energy>
11.7698

> <b_lp_Chiralities_Consistent>
1

> <s_lp_Variant>
AV-unprocessed.smi:1971-8

> <Gold.Version>
5.8.1

> <Gold.Id.Protein>
6NUR|6NUR_protein|mol2

> <Gold.PLP.Fitness>
48.4860

> <Gold.PLP.PLP>
-37.1886

> <Gold.PLP.part.hbond>
-3.0000

> <Gold.PLP.part.metal>
0.0000

> <Gold.PLP.part.buried>
-4.0868

> <Gold.PLP.part.nonpolar>
-29.6157

> <Gold.PLP.part.repulsive>
0.6548

> <Gold.PLP.ligand.clash>
0.0000

> <Gold.PLP.ligand.torsion>
0.6199

> <Gold.PLP.Chemscore.Hbond>
4.1360

> <Gold.PLP.Chemscore.CHOScore>
0.0000

> <Gold.PLP.Chemscore.Metal>
0.0000

> <Gold.Chemscore.Hbonds>
donor molecule, donor type, donor heavy atom, donor atom, acceptor molecule, acceptor atom, score
      P1  H  6896  6907       L1    12  1.00
      P1  H  6931  6943       L1    13  0.99
      P1  H  6934  6947       L1    13  1.63

> <Gold.PLP.Chemscore.Internal.Correction>
0.1292

> <Gold.Rescore>
     Score         DG    S(hbond)    S(metal)    S(lipo)     H(rot)  DE(clash)    DE(int)     intcor
     14.83     -17.60       1.73        0.00      92.50       1.75       0.46       2.32       ----

> <Gold.Chemscore.Fitness>
14.8316

> <Gold.Chemscore.DG>
-17.6033

> <Gold.Chemscore.ZeroCoef>
-5.4800

> <Gold.Chemscore.Hbond>
1.7313

> <Gold.Chemscore.Metal>
0.0000

> <Gold.Chemscore.Lipo>
92.4981

> <Gold.Chemscore.Internal_Hbond>
0.0000

> <Gold.Chemscore.DEClash>
0.4565

> <Gold.Chemscore.DEInternal>
2.3152

> <Gold.Chemscore.Rot>
1.7505

> <Gold.Chemscore.Internal.Correction>
   9.000000E+99

> <Gold.Chemscore.Hbonds>
donor molecule, donor type, donor heavy atom, donor atom, acceptor molecule, acceptor atom, score
      P1  H  6896  6907       L1    12  0.94
      P1  H  6931  6943       L1    13  0.07
      P1  H  6934  6947       L1    13  0.59

> <Gold.Chemscore.Hbond.Weighted>
-5.7824

> <Gold.Chemscore.Metal.Weighted>
-0.0000

> <Gold.Chemscore.Lipo.Weighted>
-10.8223

> <Gold.Chemscore.Internal_Hbond.Weighted>
0.0000

> <Gold.Chemscore.DEClash.Weighted>
0.4565

> <Gold.Chemscore.DEInternal.Weighted>
2.3152

> <Gold.Chemscore.Rot.Weighted>
4.4813

> <Gold.Chemscore.Internal.Correction.Weighted>
   9.000000E+99

> <Gold.Protein.RotatedTorsions>
[ 6907 6896 6895 6894 ] final  -63.65 input  -60.11 | X-H torsion
[ 7974 7965 7964 7962 ] final -122.67 input  175.53 | X-H torsion
[ 8008 7997 7996 7995 ] final   96.82 input   59.86 | X-H torsion
[ 10167 10162 10161 10158 ] final -172.40 input  -65.29 | X-H torsion
[ 10718 10713 10712 10709 ] final    6.28 input   66.30 | X-H torsion
[ 10763 10752 10751 10750 ] final -154.45 input  -60.55 | X-H torsion
[ 11005 11000 10999 10996 ] final   88.25 input  -57.11 | X-H torsion

> <Gold.Protein.ActiveResidues>
 VAL166  LYS551  ARG553  GLY616  TRP617  ASP618  TYR619  PRO620  LYS621  CYS622 
 ASP623  PHE694  ASN695  SER759  ASP760  ASP761  ALA762  ILE779  LEU786  VAL792 
 PHE793  MET794  SER795  GLU796  ALA797  LYS798  CYS799  TRP800  GLU811  SER814 

> <Gold.Protein.RotatedAtoms>
  150.7635  134.6406  159.6234 H   0  0  0  0  0  0  0  0  0  0  0  0  # atno 6907 bound_to 6896
  152.3656  134.6806  160.0202 H   0  0  0  0  0  0  0  0  0  0  0  0  # atno 6908 bound_to 6896
  151.7183  133.3277  159.3345 H   0  0  0  0  0  0  0  0  0  0  0  0  # atno 6909 bound_to 6896
  145.0269  140.8035  143.4347 H   0  0  0  0  0  0  0  0  0  0  0  0  # atno 7974 bound_to 7965
  156.0837  140.3267  155.7726 H   0  0  0  0  0  0  0  0  0  0  0  0  # atno 8008 bound_to 7997
  155.5111  140.0577  157.2940 H   0  0  0  0  0  0  0  0  0  0  0  0  # atno 8009 bound_to 7997
  154.4597  140.1960  156.0297 H   0  0  0  0  0  0  0  0  0  0  0  0  # atno 8010 bound_to 7997
  139.5747  144.1560  152.1433 H   0  0  0  0  0  0  0  0  0  0  0  0  # atno 10167 bound_to 10162
  156.9198  130.5787  149.5647 H   0  0  0  0  0  0  0  0  0  0  0  0  # atno 10718 bound_to 10713
  154.7858  135.3190  154.7890 H   0  0  0  0  0  0  0  0  0  0  0  0  # atno 10763 bound_to 10752
  153.8590  135.6855  153.4789 H   0  0  0  0  0  0  0  0  0  0  0  0  # atno 10764 bound_to 10752
  153.1509  135.4700  154.9574 H   0  0  0  0  0  0  0  0  0  0  0  0  # atno 10765 bound_to 10752
  139.8900  134.8476  156.2975 H   0  0  0  0  0  0  0  0  0  0  0  0  # atno 11005 bound_to 11000
  145.1821  139.2346  143.5287 LP  0  0  0  0  0  0  0  0  0  0  0  0  # atno 17320 bound_to 7965
  146.3493  140.1598  142.8591 LP  0  0  0  0  0  0  0  0  0  0  0  0  # atno 17321 bound_to 7965
  140.1101  144.5465  150.6931 LP  0  0  0  0  0  0  0  0  0  0  0  0  # atno 17342 bound_to 10162
  140.7030  143.2448  151.4809 LP  0  0  0  0  0  0  0  0  0  0  0  0  # atno 17343 bound_to 10162
  156.0496  130.5567  150.8959 LP  0  0  0  0  0  0  0  0  0  0  0  0  # atno 17370 bound_to 10713
  157.5915  131.0944  150.9111 LP  0  0  0  0  0  0  0  0  0  0  0  0  # atno 17371 bound_to 10713
  140.9936  133.7194  156.0851 LP  0  0  0  0  0  0  0  0  0  0  0  0  # atno 17394 bound_to 11000
  140.7593  134.3957  157.5528 LP  0  0  0  0  0  0  0  0  0  0  0  0  # atno 17395 bound_to 11000

$$$$
