AV-unprocessed.smi:258|AV-procd|sdf|1971|dock7
  -GOLD-   2262021133D 1   1.00000     0.00000
 Structure written by MMmdl.
 57 60  0  0  0  0  0  0  0  0  1 V2000
  146.6712  132.5686  150.7105 O   0  0  0  0  0  0  0  0  0  0  0  0
  146.3062  132.5084  152.0730 C   0  0  0  0  0  0  0  0  0  0  0  0
  147.5476  132.2747  152.9424 C   0  0  0  0  0  0  0  0  0  0  0  0
  147.7323  133.3980  153.7917 O   0  0  0  0  0  0  0  0  0  0  0  0
  149.0592  133.5636  154.2744 C   0  0  2  0  0  0  0  0  0  0  0  0
  149.3922  132.5128  155.3527 C   0  0  0  0  0  0  0  0  0  0  0  0
  150.7670  132.8040  155.9725 C   0  0  0  0  0  0  0  0  0  0  0  0
  150.8297  134.2364  156.5252 C   0  0  0  0  0  0  0  0  0  0  0  0
  150.4555  135.2073  155.4989 N   0  0  0  0  0  0  0  0  0  0  0  0
  150.8106  136.5076  155.6671 C   0  0  0  0  0  0  0  0  0  0  0  0
  151.5602  137.0770  154.6871 N   0  0  0  0  0  0  0  0  0  0  0  0
  151.9498  138.3511  154.7816 C   0  0  0  0  0  0  0  0  0  0  0  0
  151.7024  139.2281  155.7550 N   0  0  0  0  0  0  0  0  0  0  0  0
  150.9473  138.6683  156.7423 C   0  0  0  0  0  0  0  0  0  0  0  0
  150.4649  137.3276  156.7845 C   0  0  0  0  0  0  0  0  0  0  0  0
  149.7280  137.1381  157.9500 N   0  0  0  0  0  0  0  0  0  0  0  0
  149.7760  138.2913  158.5580 C   0  0  0  0  0  0  0  0  0  0  0  0
  150.4802  139.2701  157.8966 N   0  0  0  0  0  0  0  0  0  0  0  0
  150.6842  140.6412  158.3285 C   0  0  0  0  0  0  0  0  0  0  0  0
  151.2452  141.5665  157.2190 C   0  0  1  0  0  0  0  0  0  0  0  0
  150.3371  141.6178  155.9625 C   0  0  0  0  0  0  0  0  0  0  0  0
  149.0912  142.2212  156.2443 O   0  0  0  0  0  0  0  0  0  0  0  0
  151.5620  142.9618  157.8178 C   0  0  1  0  0  0  0  0  0  0  0  0
  150.4159  143.6718  158.5152 C   0  0  0  0  0  0  0  0  0  0  0  0
  151.1546  144.7747  159.2681 C   0  0  0  0  0  0  0  0  0  0  0  0
  152.4317  144.2345  159.5993 O   0  0  0  0  0  0  0  0  0  0  0  0
  152.6546  143.0190  158.8892 C   0  0  0  0  0  0  0  0  0  0  0  0
  149.1567  134.9833  154.8609 C   0  0  0  0  0  0  0  0  0  0  0  0
  147.2573  131.8513  150.5249 H   0  0  0  0  0  0  0  0  0  0  0  0
  145.8471  133.4625  152.3334 H   0  0  0  0  0  0  0  0  0  0  0  0
  145.5559  131.7338  152.2344 H   0  0  0  0  0  0  0  0  0  0  0  0
  147.4595  131.3428  153.5014 H   0  0  0  0  0  0  0  0  0  0  0  0
  148.4211  132.1822  152.2956 H   0  0  0  0  0  0  0  0  0  0  0  0
  149.7696  133.4853  153.4491 H   0  0  0  0  0  0  0  0  0  0  0  0
  148.6287  132.5287  156.1316 H   0  0  0  0  0  0  0  0  0  0  0  0
  149.3898  131.5074  154.9328 H   0  0  0  0  0  0  0  0  0  0  0  0
  150.9793  132.0886  156.7671 H   0  0  0  0  0  0  0  0  0  0  0  0
  151.5434  132.6698  155.2182 H   0  0  0  0  0  0  0  0  0  0  0  0
  150.1523  134.3328  157.3744 H   0  0  0  0  0  0  0  0  0  0  0  0
  151.8390  134.4393  156.8853 H   0  0  0  0  0  0  0  0  0  0  0  0
  152.5435  138.7210  153.9586 H   0  0  0  0  0  0  0  0  0  0  0  0
  149.2854  138.4640  159.5047 H   0  0  0  0  0  0  0  0  0  0  0  0
  149.7351  141.0298  158.6993 H   0  0  0  0  0  0  0  0  0  0  0  0
  151.3625  140.6201  159.1825 H   0  0  0  0  0  0  0  0  0  0  0  0
  152.2074  141.1549  156.9097 H   0  0  0  0  0  0  0  0  0  0  0  0
  150.8247  142.1619  155.1533 H   0  0  0  0  0  0  0  0  0  0  0  0
  150.1197  140.6220  155.5817 H   0  0  0  0  0  0  0  0  0  0  0  0
  149.1754  143.1553  156.1287 H   0  0  0  0  0  0  0  0  0  0  0  0
  151.8707  143.6154  157.0000 H   0  0  0  0  0  0  0  0  0  0  0  0
  149.6707  144.0621  157.8216 H   0  0  0  0  0  0  0  0  0  0  0  0
  149.9076  143.0235  159.2273 H   0  0  0  0  0  0  0  0  0  0  0  0
  151.3023  145.6412  158.6224 H   0  0  0  0  0  0  0  0  0  0  0  0
  150.6176  145.1044  160.1577 H   0  0  0  0  0  0  0  0  0  0  0  0
  152.5671  142.1972  159.5994 H   0  0  0  0  0  0  0  0  0  0  0  0
  153.6574  142.9896  158.4631 H   0  0  0  0  0  0  0  0  0  0  0  0
  148.9689  135.7082  154.0684 H   0  0  0  0  0  0  0  0  0  0  0  0
  148.3765  135.1306  155.6090 H   0  0  0  0  0  0  0  0  0  0  0  0
  1  2  1  0  0  0  0
  1 29  1  0  0  0  0
  2  3  1  0  0  0  0
  2 30  1  0  0  0  0
  2 31  1  0  0  0  0
  3  4  1  0  0  0  0
  3 32  1  0  0  0  0
  3 33  1  0  0  0  0
  4  5  1  0  0  0  0
  5 28  1  0  0  0  0
  5  6  1  0  0  0  0
  5 34  1  0  0  0  0
  6  7  1  0  0  0  0
  6 35  1  0  0  0  0
  6 36  1  0  0  0  0
  7  8  1  0  0  0  0
  7 37  1  0  0  0  0
  7 38  1  0  0  0  0
  8  9  1  0  0  0  0
  8 39  1  0  0  0  0
  8 40  1  0  0  0  0
  9 10  1  0  0  0  0
  9 28  1  0  0  0  0
 10 15  1  0  0  0  0
 10 11  2  0  0  0  0
 11 12  1  0  0  0  0
 12 13  2  0  0  0  0
 12 41  1  0  0  0  0
 13 14  1  0  0  0  0
 14 18  1  0  0  0  0
 14 15  2  0  0  0  0
 15 16  1  0  0  0  0
 16 17  2  0  0  0  0
 17 18  1  0  0  0  0
 17 42  1  0  0  0  0
 18 19  1  0  0  0  0
 19 20  1  0  0  0  0
 19 43  1  0  0  0  0
 19 44  1  0  0  0  0
 20 21  1  0  0  0  0
 20 23  1  0  0  0  0
 20 45  1  0  0  0  0
 21 22  1  0  0  0  0
 21 46  1  0  0  0  0
 21 47  1  0  0  0  0
 22 48  1  0  0  0  0
 23 27  1  0  0  0  0
 23 24  1  0  0  0  0
 23 49  1  0  0  0  0
 24 25  1  0  0  0  0
 24 50  1  0  0  0  0
 24 51  1  0  0  0  0
 25 26  1  0  0  0  0
 25 52  1  0  0  0  0
 25 53  1  0  0  0  0
 26 27  1  0  0  0  0
 27 54  1  0  0  0  0
 27 55  1  0  0  0  0
 28 56  1  0  0  0  0
 28 57  1  0  0  0  0
M  END
> <s_m_source_file>
AV-unprocessed.smi

> <i_m_source_file_index>
258

> <i_lp_mmshare_version>
43012

> <i_f3d_flags>
0

> <s_epik_input>
W09IXVtDSDJdW0NIMl1PW0NAQEhdMVtDSDJdW0NIMl1bQ0gyXU4oW0NIMl0xKWMobltjSF1uMiljKGMyMyluW2NIXW4zW0NIMl1bQ0BIXShbQ0gyXVtPSF0pW0NAQEhdNFtDSDJdW0NIMl1PW0NIMl00

> <s_epik_cmdline>
J2VwaWtfcHl0aG9uJywgJy1waCcsICc3LjAnLCAnLXRuJywgJzgnLCAnLW1hJywgJzIwMCcsICctbWV0YWxfYmluZGluZycsICctaW1hZScsICc8aW5maWxlLm1hZT4nLCAnLW9tYWUnLCAnPG91dGZpbGUubWFlPic=

> <r_lp_tautomer_probability>
1

> <r_epik_Ionization_Penalty>
0.00349036

> <r_epik_Ionization_Penalty_Charging>
0

> <r_epik_Ionization_Penalty_Neutral>
0.00349036

> <r_epik_State_Penalty>
0.00229798

> <r_epik_Charging_Adjusted_Penalty>
0.00229798

> <i_epik_Tot_Q>
0

> <i_epik_Tot_abs_Q>
0

> <r_epik_Metal_State_Penalty>
-0

> <b_epik_Metal_Only>
0

> <s_lp_Force_Field>
OPLS_2005

> <r_lp_Energy>
47.622

> <b_lp_Chiralities_Consistent>
1

> <s_lp_Variant>
AV-unprocessed.smi:258-7

> <Gold.Version>
5.8.1

> <Gold.Id.Protein>
6NUR|6NUR_protein|mol2

> <Gold.PLP.Fitness>
53.7964

> <Gold.PLP.PLP>
-46.2790

> <Gold.PLP.part.hbond>
-2.9992

> <Gold.PLP.part.metal>
0.0000

> <Gold.PLP.part.buried>
-9.1658

> <Gold.PLP.part.nonpolar>
-35.0284

> <Gold.PLP.part.repulsive>
0.3750

> <Gold.PLP.ligand.clash>
0.0000

> <Gold.PLP.ligand.torsion>
1.1894

> <Gold.PLP.Chemscore.Hbond>
2.9920

> <Gold.PLP.Chemscore.CHOScore>
0.0000

> <Gold.PLP.Chemscore.Metal>
0.0000

> <Gold.Chemscore.Hbonds>
donor molecule, donor type, donor heavy atom, donor atom, acceptor molecule, acceptor atom, score
      L1  H     1    29       P1 10747  1.00
      L1  H    22    48       P1  8028  1.00
      P1  H 10752 10765       L1    11  0.98

> <Gold.PLP.Chemscore.Internal.Correction>
0.9201

> <Gold.Rescore>
     Score         DG    S(hbond)    S(metal)    S(lipo)     H(rot)  DE(clash)    DE(int)     intcor
     10.94     -15.10       2.63        0.00      99.43       4.22       0.09       4.07       ----

> <Gold.Chemscore.Fitness>
10.9355

> <Gold.Chemscore.DG>
-15.0964

> <Gold.Chemscore.ZeroCoef>
-5.4800

> <Gold.Chemscore.Hbond>
2.6341

> <Gold.Chemscore.Metal>
0.0000

> <Gold.Chemscore.Lipo>
99.4316

> <Gold.Chemscore.Internal_Hbond>
0.0000

> <Gold.Chemscore.DEClash>
0.0901

> <Gold.Chemscore.DEInternal>
4.0709

> <Gold.Chemscore.Rot>
4.2246

> <Gold.Chemscore.Internal.Correction>
   9.000000E+99

> <Gold.Chemscore.Hbonds>
donor molecule, donor type, donor heavy atom, donor atom, acceptor molecule, acceptor atom, score
      L1  H     1    29       P1 10747  0.95
      L1  H    22    48       P1  8028  1.00
      P1  H 10752 10765       L1    11  0.47

> <Gold.Chemscore.Hbond.Weighted>
-8.7978

> <Gold.Chemscore.Metal.Weighted>
-0.0000

> <Gold.Chemscore.Lipo.Weighted>
-11.6335

> <Gold.Chemscore.Internal_Hbond.Weighted>
0.0000

> <Gold.Chemscore.DEClash.Weighted>
0.0901

> <Gold.Chemscore.DEInternal.Weighted>
4.0709

> <Gold.Chemscore.Rot.Weighted>
10.8149

> <Gold.Chemscore.Internal.Correction.Weighted>
   9.000000E+99

> <Gold.Protein.RotatedTorsions>
[ 6907 6896 6895 6894 ] final -162.97 input  -60.11 | X-H torsion
[ 7974 7965 7964 7962 ] final -147.79 input  175.53 | X-H torsion
[ 8008 7997 7996 7995 ] final  111.56 input   59.86 | X-H torsion
[ 10167 10162 10161 10158 ] final  164.05 input  -65.29 | X-H torsion
[ 10718 10713 10712 10709 ] final  -51.94 input   66.30 | X-H torsion
[ 10763 10752 10751 10750 ] final  155.45 input  -60.55 | X-H torsion
[ 11005 11000 10999 10996 ] final  -80.07 input  -57.11 | X-H torsion

> <Gold.Protein.ActiveResidues>
 VAL166  LYS551  ARG553  GLY616  TRP617  ASP618  TYR619  PRO620  LYS621  CYS622 
 ASP623  PHE694  ASN695  SER759  ASP760  ASP761  ALA762  ILE779  LEU786  VAL792 
 PHE793  MET794  SER795  GLU796  ALA797  LYS798  CYS799  TRP800  GLU811  SER814 

> <Gold.Protein.RotatedAtoms>
  151.3887  133.3796  159.2718 H   0  0  0  0  0  0  0  0  0  0  0  0  # atno 6907 bound_to 6896
  150.9522  134.8921  159.7689 H   0  0  0  0  0  0  0  0  0  0  0  0  # atno 6908 bound_to 6896
  152.5116  134.3843  159.9414 H   0  0  0  0  0  0  0  0  0  0  0  0  # atno 6909 bound_to 6896
  144.8070  140.5281  143.5668 H   0  0  0  0  0  0  0  0  0  0  0  0  # atno 7974 bound_to 7965
  156.2132  140.3017  155.9781 H   0  0  0  0  0  0  0  0  0  0  0  0  # atno 8008 bound_to 7997
  155.2670  140.0432  157.3020 H   0  0  0  0  0  0  0  0  0  0  0  0  # atno 8009 bound_to 7997
  154.5730  140.2353  155.8172 H   0  0  0  0  0  0  0  0  0  0  0  0  # atno 8010 bound_to 7997
  139.4883  144.4275  151.9112 H   0  0  0  0  0  0  0  0  0  0  0  0  # atno 10167 bound_to 10162
  156.1665  130.4149  149.9712 H   0  0  0  0  0  0  0  0  0  0  0  0  # atno 10718 bound_to 10713
  154.1686  135.2806  155.3087 H   0  0  0  0  0  0  0  0  0  0  0  0  # atno 10763 bound_to 10752
  154.6092  135.5504  153.7459 H   0  0  0  0  0  0  0  0  0  0  0  0  # atno 10764 bound_to 10752
  153.0171  135.6411  154.1827 H   0  0  0  0  0  0  0  0  0  0  0  0  # atno 10765 bound_to 10752
  141.1668  133.7133  156.8217 H   0  0  0  0  0  0  0  0  0  0  0  0  # atno 11005 bound_to 11000
  145.5414  139.1475  143.3445 LP  0  0  0  0  0  0  0  0  0  0  0  0  # atno 17320 bound_to 7965
  146.2363  140.5553  142.8953 LP  0  0  0  0  0  0  0  0  0  0  0  0  # atno 17321 bound_to 7965
  140.3721  144.2842  150.5918 LP  0  0  0  0  0  0  0  0  0  0  0  0  # atno 17342 bound_to 10162
  140.5309  143.2243  151.8239 LP  0  0  0  0  0  0  0  0  0  0  0  0  # atno 17343 bound_to 10162
  156.7525  130.9120  151.3638 LP  0  0  0  0  0  0  0  0  0  0  0  0  # atno 17370 bound_to 10713
  157.6772  130.9105  150.0178 LP  0  0  0  0  0  0  0  0  0  0  0  0  # atno 17371 bound_to 10713
  140.2114  134.8824  157.3279 LP  0  0  0  0  0  0  0  0  0  0  0  0  # atno 17394 bound_to 11000
  140.2082  134.4170  155.7626 LP  0  0  0  0  0  0  0  0  0  0  0  0  # atno 17395 bound_to 11000

$$$$
