AV-unprocessed.smi:2656|AV-procd|sdf|10306|dock9
  -GOLD-   2272014323D 1   1.00000     0.00000
 Structure written by MMmdl.
 44 45  0  0  0  0  0  0  0  0  2 V2000
  147.0859  132.8362  154.0742 C   0  0  0  0  0  0  0  0  0  0  0  0
  146.2673  133.6228  153.1473 N   0  0  0  0  0  0  0  0  0  0  0  0
  146.4909  133.2852  151.7364 C   0  0  0  0  0  0  0  0  0  0  0  0
  145.3764  134.6006  153.4678 C   0  0  0  0  0  0  0  0  0  0  0  0
  145.2263  134.9247  154.6485 O   0  0  0  0  0  0  0  0  0  0  0  0
  144.5039  135.3305  152.3869 C   0  0  0  0  0  0  0  0  0  0  0  0
  145.3499  136.0582  151.2942 C   0  0  0  0  0  0  0  0  0  0  0  0
  146.4609  136.8410  151.8378 N   0  0  0  0  0  0  0  0  0  0  0  0
  146.3527  138.0193  152.4677 C   0  0  0  0  0  0  0  0  0  0  0  0
  145.2778  138.5737  152.6951 O   0  0  0  0  0  0  0  0  0  0  0  0
  147.5618  138.5124  152.7869 N   0  0  0  0  0  0  0  0  0  0  0  0
  147.8709  139.7458  153.4224 C   0  0  0  0  0  0  0  0  0  0  0  0
  146.9531  140.8086  153.2693 C   0  0  0  0  0  0  0  0  0  0  0  0
  147.2236  142.0534  153.8734 C   0  0  0  0  0  0  0  0  0  0  0  0
  148.3599  142.2240  154.5824 N   0  3  0  0  0  0  0  0  0  0  0  0
  149.2749  141.2437  154.7423 C   0  0  0  0  0  0  0  0  0  0  0  0
  149.0588  139.9772  154.1620 C   0  0  0  0  0  0  0  0  0  0  0  0
  143.5439  134.3298  151.6820 C   0  0  0  0  0  0  0  0  0  0  0  0
  142.3252  134.1369  152.5925 C   0  0  0  0  0  0  0  0  0  0  0  0
  142.2912  135.3680  153.5007 C   0  0  0  0  0  0  0  0  0  0  0  0
  143.4589  136.2564  153.0532 C   0  0  0  0  0  0  0  0  0  0  0  0
  146.6102  132.6528  155.0332 H   0  0  0  0  0  0  0  0  0  0  0  0
  148.0368  133.3393  154.2508 H   0  0  0  0  0  0  0  0  0  0  0  0
  147.3092  131.8489  153.6683 H   0  0  0  0  0  0  0  0  0  0  0  0
  145.5994  132.8229  151.3104 H   0  0  0  0  0  0  0  0  0  0  0  0
  147.3215  132.5931  151.5930 H   0  0  0  0  0  0  0  0  0  0  0  0
  146.7241  134.1776  151.1529 H   0  0  0  0  0  0  0  0  0  0  0  0
  145.7321  135.3364  150.5702 H   0  0  0  0  0  0  0  0  0  0  0  0
  144.7392  136.7206  150.6865 H   0  0  0  0  0  0  0  0  0  0  0  0
  147.3864  136.4628  151.6981 H   0  0  0  0  0  0  0  0  0  0  0  0
  148.3558  137.9790  152.4643 H   0  0  0  0  0  0  0  0  0  0  0  0
  146.0440  140.6722  152.7013 H   0  0  0  0  0  0  0  0  0  0  0  0
  146.5702  142.9115  153.8104 H   0  0  0  0  0  0  0  0  0  0  0  0
  150.1496  141.5009  155.3218 H   0  0  0  0  0  0  0  0  0  0  0  0
  149.8121  139.2141  154.2860 H   0  0  0  0  0  0  0  0  0  0  0  0
  143.1892  134.7531  150.7413 H   0  0  0  0  0  0  0  0  0  0  0  0
  144.0128  133.3803  151.4198 H   0  0  0  0  0  0  0  0  0  0  0  0
  141.4092  134.0356  152.0095 H   0  0  0  0  0  0  0  0  0  0  0  0
  142.4311  133.2320  153.1919 H   0  0  0  0  0  0  0  0  0  0  0  0
  141.3394  135.8965  153.4398 H   0  0  0  0  0  0  0  0  0  0  0  0
  142.4289  135.0622  154.5386 H   0  0  0  0  0  0  0  0  0  0  0  0
  143.8370  136.8286  153.8982 H   0  0  0  0  0  0  0  0  0  0  0  0
  143.0957  136.9816  152.3235 H   0  0  0  0  0  0  0  0  0  0  0  0
  148.5371  143.1329  155.0115 H   0  0  0  0  0  0  0  0  0  0  0  0
  1  2  1  0  0  0  0
  1 22  1  0  0  0  0
  1 23  1  0  0  0  0
  1 24  1  0  0  0  0
  2  3  1  0  0  0  0
  2  4  1  0  0  0  0
  3 25  1  0  0  0  0
  3 26  1  0  0  0  0
  3 27  1  0  0  0  0
  4  5  2  0  0  0  0
  4  6  1  0  0  0  0
  6 21  1  0  0  0  0
  6  7  1  0  0  0  0
  6 18  1  0  0  0  0
  7  8  1  0  0  0  0
  7 28  1  0  0  0  0
  7 29  1  0  0  0  0
  8  9  1  0  0  0  0
  8 30  1  0  0  0  0
  9 10  2  0  0  0  0
  9 11  1  0  0  0  0
 11 12  1  0  0  0  0
 11 31  1  0  0  0  0
 12 17  1  0  0  0  0
 12 13  2  0  0  0  0
 13 14  1  0  0  0  0
 13 32  1  0  0  0  0
 14 15  2  0  0  0  0
 14 33  1  0  0  0  0
 15 16  1  0  0  0  0
 15 44  1  0  0  0  0
 16 17  2  0  0  0  0
 16 34  1  0  0  0  0
 17 35  1  0  0  0  0
 18 19  1  0  0  0  0
 18 36  1  0  0  0  0
 18 37  1  0  0  0  0
 19 20  1  0  0  0  0
 19 38  1  0  0  0  0
 19 39  1  0  0  0  0
 20 21  1  0  0  0  0
 20 40  1  0  0  0  0
 20 41  1  0  0  0  0
 21 42  1  0  0  0  0
 21 43  1  0  0  0  0
M  CHG  1  15   1
M  END
> <s_m_source_file>
AV-unprocessed.smi

> <i_m_source_file_index>
2656

> <i_lp_mmshare_version>
43012

> <i_f3d_flags>
0

> <s_epik_input>
W0NIMl0xW0NIMl1bQ0gyXVtDSDJdQzEoQyg9TylOKFtDSDNdKVtDSDNdKVtDSDJdW05IXUMoPU8pW05IXWMyW2NIXVtjSF1uW2NIXVtjSF0y

> <s_epik_cmdline>
J2VwaWtfcHl0aG9uJywgJy1waCcsICc3LjAnLCAnLXRuJywgJzgnLCAnLW1hJywgJzIwMCcsICctbWV0YWxfYmluZGluZycsICctaW1hZScsICc8aW5maWxlLm1hZT4nLCAnLW9tYWUnLCAnPG91dGZpbGUubWFlPic=

> <r_epik_Ionization_Penalty>
1.05774

> <r_epik_Ionization_Penalty_Charging>
1.05772

> <r_epik_Ionization_Penalty_Neutral>
1.88023e-05

> <r_epik_State_Penalty>
1.11116

> <r_epik_Charging_Adjusted_Penalty>
2.16887

> <i_epik_Tot_Q>
1

> <i_epik_Tot_abs_Q>
1

> <r_epik_Metal_State_Penalty>
1.20442

> <b_epik_Metal_Only>
0

> <s_lp_Force_Field>
OPLS_2005

> <r_lp_Energy>
45.9804

> <b_lp_Chiralities_Consistent>
1

> <s_lp_Variant>
AV-unprocessed.smi:2656-2

> <Gold.Version>
5.8.1

> <Gold.Id.Protein>
6NUR|6NUR_protein|mol2

> <Gold.PLP.Fitness>
42.8412

> <Gold.PLP.PLP>
-31.8603

> <Gold.PLP.part.hbond>
-3.9020

> <Gold.PLP.part.metal>
0.0000

> <Gold.PLP.part.buried>
-1.9843

> <Gold.PLP.part.nonpolar>
-30.6766

> <Gold.PLP.part.repulsive>
3.9703

> <Gold.PLP.ligand.clash>
0.0000

> <Gold.PLP.ligand.torsion>
0.4872

> <Gold.PLP.Chemscore.Hbond>
3.9280

> <Gold.PLP.Chemscore.CHOScore>
0.0000

> <Gold.PLP.Chemscore.Metal>
0.0000

> <Gold.Chemscore.Hbonds>
donor molecule, donor type, donor heavy atom, donor atom, acceptor molecule, acceptor atom, score
      L1  H     8    30       P1  7948  1.00
      L1  H    11    31       P1  7948  0.91
      L1  H    15    44       P1  8028  2.00

> <Gold.PLP.Chemscore.Internal.Correction>
0.1714

> <Gold.Rescore>
     Score         DG    S(hbond)    S(metal)    S(lipo)     H(rot)  DE(clash)    DE(int)     intcor
     14.20     -19.73       2.83        0.00      74.74       1.54       1.79       3.74       ----

> <Gold.Chemscore.Fitness>
14.1994

> <Gold.Chemscore.DG>
-19.7265

> <Gold.Chemscore.ZeroCoef>
-5.4800

> <Gold.Chemscore.Hbond>
2.8280

> <Gold.Chemscore.Metal>
0.0000

> <Gold.Chemscore.Lipo>
74.7432

> <Gold.Chemscore.Internal_Hbond>
0.0000

> <Gold.Chemscore.DEClash>
1.7853

> <Gold.Chemscore.DEInternal>
3.7418

> <Gold.Chemscore.Rot>
1.5406

> <Gold.Chemscore.Internal.Correction>
   9.000000E+99

> <Gold.Chemscore.Hbonds>
donor molecule, donor type, donor heavy atom, donor atom, acceptor molecule, acceptor atom, score
      L1  H     8    30       P1  7948  0.96
      L1  H    11    31       P1  7948  0.89
      L1  H    15    44       P1  8028  1.00

> <Gold.Chemscore.Hbond.Weighted>
-9.4455

> <Gold.Chemscore.Metal.Weighted>
-0.0000

> <Gold.Chemscore.Lipo.Weighted>
-8.7450

> <Gold.Chemscore.Internal_Hbond.Weighted>
0.0000

> <Gold.Chemscore.DEClash.Weighted>
1.7853

> <Gold.Chemscore.DEInternal.Weighted>
3.7418

> <Gold.Chemscore.Rot.Weighted>
3.9440

> <Gold.Chemscore.Internal.Correction.Weighted>
   9.000000E+99

> <Gold.Protein.RotatedTorsions>
[ 6907 6896 6895 6894 ] final   42.59 input  -60.11 | X-H torsion
[ 7974 7965 7964 7962 ] final   98.41 input  175.53 | X-H torsion
[ 8008 7997 7996 7995 ] final  -30.19 input   59.86 | X-H torsion
[ 10167 10162 10161 10158 ] final  -24.04 input  -65.29 | X-H torsion
[ 10718 10713 10712 10709 ] final  -48.31 input   66.30 | X-H torsion
[ 10763 10752 10751 10750 ] final -113.38 input  -60.55 | X-H torsion
[ 11005 11000 10999 10996 ] final  -95.85 input  -57.11 | X-H torsion

> <Gold.Protein.ActiveResidues>
 VAL166  LYS551  ARG553  GLY616  TRP617  ASP618  TYR619  PRO620  LYS621  CYS622 
 ASP623  PHE694  ASN695  SER759  ASP760  ASP761  ALA762  ILE779  LEU786  VAL792 
 PHE793  MET794  SER795  GLU796  ALA797  LYS798  CYS799  TRP800  GLU811  SER814 

> <Gold.Protein.RotatedAtoms>
  152.2097  134.8513  160.0498 H   0  0  0  0  0  0  0  0  0  0  0  0  # atno 6907 bound_to 6896
  151.9336  133.3613  159.3948 H   0  0  0  0  0  0  0  0  0  0  0  0  # atno 6908 bound_to 6896
  150.6973  134.4437  159.5348 H   0  0  0  0  0  0  0  0  0  0  0  0  # atno 6909 bound_to 6896
  145.4125  139.2332  143.3240 H   0  0  0  0  0  0  0  0  0  0  0  0  # atno 7974 bound_to 7965
  154.4260  140.1798  156.1368 H   0  0  0  0  0  0  0  0  0  0  0  0  # atno 8008 bound_to 7997
  156.0024  140.3358  155.6833 H   0  0  0  0  0  0  0  0  0  0  0  0  # atno 8009 bound_to 7997
  155.6225  140.0661  157.2664 H   0  0  0  0  0  0  0  0  0  0  0  0  # atno 8010 bound_to 7997
  140.7288  143.4388  151.0688 H   0  0  0  0  0  0  0  0  0  0  0  0  # atno 10167 bound_to 10162
  156.2000  130.4156  149.9254 H   0  0  0  0  0  0  0  0  0  0  0  0  # atno 10718 bound_to 10713
  154.8394  135.4456  154.1341 H   0  0  0  0  0  0  0  0  0  0  0  0  # atno 10763 bound_to 10752
  153.2544  135.6930  153.7651 H   0  0  0  0  0  0  0  0  0  0  0  0  # atno 10764 bound_to 10752
  153.6952  135.3381  155.3187 H   0  0  0  0  0  0  0  0  0  0  0  0  # atno 10765 bound_to 10752
  141.1429  133.8056  157.0492 H   0  0  0  0  0  0  0  0  0  0  0  0  # atno 11005 bound_to 11000
  146.2698  140.4838  142.8819 LP  0  0  0  0  0  0  0  0  0  0  0  0  # atno 17320 bound_to 7965
  144.8299  140.6690  143.6297 LP  0  0  0  0  0  0  0  0  0  0  0  0  # atno 17321 bound_to 7965
  139.8053  143.8026  152.3167 LP  0  0  0  0  0  0  0  0  0  0  0  0  # atno 17342 bound_to 10162
  139.8057  144.7356  150.9765 LP  0  0  0  0  0  0  0  0  0  0  0  0  # atno 17343 bound_to 10162
  156.6966  130.8916  151.3594 LP  0  0  0  0  0  0  0  0  0  0  0  0  # atno 17370 bound_to 10713
  157.6980  130.9302  150.0701 LP  0  0  0  0  0  0  0  0  0  0  0  0  # atno 17371 bound_to 10713
  140.0643  134.9738  157.1358 LP  0  0  0  0  0  0  0  0  0  0  0  0  # atno 17394 bound_to 11000
  140.3803  134.2294  155.7171 LP  0  0  0  0  0  0  0  0  0  0  0  0  # atno 17395 bound_to 11000

$$$$
