AV-unprocessed.smi:3169|AV-procd|sdf|12103|dock7
  -GOLD-   2272017543D 1   1.00000     0.00000
 Structure written by MMmdl.
 36 37  0  0  0  0  0  0  0  0  2 V2000
  148.5520  132.6650  154.7493 O   0  0  0  0  0  0  0  0  0  0  0  0
  148.6506  133.6541  154.0227 C   0  0  0  0  0  0  0  0  0  0  0  0
  148.0658  133.7606  152.8216 N   0  0  0  0  0  0  0  0  0  0  0  0
  147.2401  132.7290  152.2057 C   0  0  0  0  0  0  0  0  0  0  0  0
  146.7692  133.1462  150.8022 C   0  0  0  0  0  0  0  0  0  0  0  0
  145.3273  132.9593  150.6372 N   0  0  0  0  0  0  0  0  0  0  0  0
  144.6007  131.8231  150.8838 C   0  0  0  0  0  0  0  0  0  0  0  0
  143.2963  132.1217  150.5839 C   0  0  0  0  0  0  0  0  0  0  0  0
  143.2829  133.4260  150.1668 N   0  3  0  0  0  0  0  0  0  0  0  0
  144.5194  133.9337  150.2002 C   0  0  0  0  0  0  0  0  0  0  0  0
  149.3609  134.7480  154.3292 N   0  0  0  0  0  0  0  0  0  0  0  0
  150.1297  134.9402  155.5548 C   0  0  0  0  0  0  0  0  0  0  0  0
  150.7569  136.3433  155.6242 C   0  0  2  0  0  0  0  0  0  0  0  0
  149.7941  137.5010  155.3562 C   0  0  0  0  0  0  0  0  0  0  0  0
  150.7434  138.5842  154.8994 C   0  0  0  0  0  0  0  0  0  0  0  0
  151.7494  137.7880  154.0730 C   0  0  0  0  0  0  0  0  0  0  0  0
  151.7723  136.4770  154.6333 O   0  0  0  0  0  0  0  0  0  0  0  0
  148.2023  134.6128  152.2976 H   0  0  0  0  0  0  0  0  0  0  0  0
  147.7935  131.7892  152.1628 H   0  0  0  0  0  0  0  0  0  0  0  0
  146.3788  132.5531  152.8508 H   0  0  0  0  0  0  0  0  0  0  0  0
  146.9961  134.1967  150.6152 H   0  0  0  0  0  0  0  0  0  0  0  0
  147.2736  132.5661  150.0277 H   0  0  0  0  0  0  0  0  0  0  0  0
  145.0536  130.9108  151.2445 H   0  0  0  0  0  0  0  0  0  0  0  0
  142.4007  131.5198  150.6345 H   0  0  0  0  0  0  0  0  0  0  0  0
  144.8088  134.9330  149.9265 H   0  0  0  0  0  0  0  0  0  0  0  0
  149.3775  135.5062  153.6629 H   0  0  0  0  0  0  0  0  0  0  0  0
  149.4465  134.8086  156.3942 H   0  0  0  0  0  0  0  0  0  0  0  0
  150.8959  134.1707  155.6634 H   0  0  0  0  0  0  0  0  0  0  0  0
  151.2323  136.4904  156.5955 H   0  0  0  0  0  0  0  0  0  0  0  0
  149.1029  137.2494  154.5505 H   0  0  0  0  0  0  0  0  0  0  0  0
  149.2113  137.7842  156.2331 H   0  0  0  0  0  0  0  0  0  0  0  0
  150.2539  139.3751  154.3306 H   0  0  0  0  0  0  0  0  0  0  0  0
  151.2369  139.0363  155.7609 H   0  0  0  0  0  0  0  0  0  0  0  0
  151.4175  137.7136  153.0370 H   0  0  0  0  0  0  0  0  0  0  0  0
  152.7410  138.2407  154.0792 H   0  0  0  0  0  0  0  0  0  0  0  0
  142.4580  133.9354  149.8750 H   0  0  0  0  0  0  0  0  0  0  0  0
  1  2  2  0  0  0  0
  2  3  1  0  0  0  0
  2 11  1  0  0  0  0
  3  4  1  0  0  0  0
  3 18  1  0  0  0  0
  4  5  1  0  0  0  0
  4 19  1  0  0  0  0
  4 20  1  0  0  0  0
  5  6  1  0  0  0  0
  5 21  1  0  0  0  0
  5 22  1  0  0  0  0
  6 10  1  0  0  0  0
  6  7  1  0  0  0  0
  7  8  2  0  0  0  0
  7 23  1  0  0  0  0
  8  9  1  0  0  0  0
  8 24  1  0  0  0  0
  9 10  2  0  0  0  0
  9 36  1  0  0  0  0
 10 25  1  0  0  0  0
 11 12  1  0  0  0  0
 11 26  1  0  0  0  0
 12 13  1  0  0  0  0
 12 27  1  0  0  0  0
 12 28  1  0  0  0  0
 13 17  1  0  0  0  0
 13 14  1  0  0  0  0
 13 29  1  0  0  0  0
 14 15  1  0  0  0  0
 14 30  1  0  0  0  0
 14 31  1  0  0  0  0
 15 16  1  0  0  0  0
 15 32  1  0  0  0  0
 15 33  1  0  0  0  0
 16 17  1  0  0  0  0
 16 34  1  0  0  0  0
 16 35  1  0  0  0  0
M  CHG  1   9   1
M  END
> <s_m_source_file>
AV-unprocessed.smi

> <i_m_source_file_index>
3169

> <i_lp_mmshare_version>
43012

> <i_f3d_flags>
0

> <s_epik_input>
TzFbQ0gyXVtDSDJdW0NIMl1bQ0BIXTFbQ0gyXVtOSF1DKD1PKVtOSF1bQ0gyXVtDSDJdbjJbY0hdW2NIXW5bY0hdMg==

> <s_epik_cmdline>
J2VwaWtfcHl0aG9uJywgJy1waCcsICc3LjAnLCAnLXRuJywgJzgnLCAnLW1hJywgJzIwMCcsICctbWV0YWxfYmluZGluZycsICctaW1hZScsICc8aW5maWxlLm1hZT4nLCAnLW9tYWUnLCAnPG91dGZpbGUubWFlPic=

> <r_lp_tautomer_probability>
1

> <r_epik_Ionization_Penalty>
0.256136

> <r_epik_Ionization_Penalty_Charging>
0

> <r_epik_Ionization_Penalty_Neutral>
0.256136

> <r_epik_State_Penalty>
0.247629

> <r_epik_Charging_Adjusted_Penalty>
0.247629

> <i_epik_Tot_Q>
1

> <i_epik_Tot_abs_Q>
1

> <r_epik_Metal_State_Penalty>
0.537113

> <b_epik_Metal_Only>
0

> <s_lp_Force_Field>
OPLS_2005

> <r_lp_Energy>
17.2765

> <b_lp_Chiralities_Consistent>
1

> <s_lp_Variant>
AV-unprocessed.smi:3169-1

> <Gold.Version>
5.8.1

> <Gold.Id.Protein>
6NUR|6NUR_protein|mol2

> <Gold.PLP.Fitness>
47.2502

> <Gold.PLP.PLP>
-31.2334

> <Gold.PLP.part.hbond>
-4.0000

> <Gold.PLP.part.metal>
0.0000

> <Gold.PLP.part.buried>
-2.7311

> <Gold.PLP.part.nonpolar>
-24.4900

> <Gold.PLP.part.repulsive>
0.2363

> <Gold.PLP.ligand.clash>
0.0000

> <Gold.PLP.ligand.torsion>
0.4559

> <Gold.PLP.Chemscore.Hbond>
5.0000

> <Gold.PLP.Chemscore.CHOScore>
0.6349

> <Gold.PLP.Chemscore.Metal>
0.0000

> <Gold.Chemscore.Hbonds>
donor molecule, donor type, donor heavy atom, donor atom, acceptor molecule, acceptor atom, score
      L1  H     3    18       P1  7948  0.95
      L1  H     9    36       P1 10186  2.00
      L1  H    11    26       P1  7948  0.99
      P1  H 10752 10763       L1    17  0.93
      L1  C    10    25       P1  7921  0.40

> <Gold.PLP.Chemscore.Internal.Correction>
0.0239

> <Gold.Rescore>
     Score         DG    S(hbond)    S(metal)    S(lipo)     H(rot)  DE(clash)    DE(int)     intcor
     16.72     -17.11       3.16        0.00      60.11       2.33       0.02       0.37       ----

> <Gold.Chemscore.Fitness>
16.7179

> <Gold.Chemscore.DG>
-17.1057

> <Gold.Chemscore.ZeroCoef>
-5.4800

> <Gold.Chemscore.Hbond>
3.1602

> <Gold.Chemscore.Metal>
0.0000

> <Gold.Chemscore.Lipo>
60.1065

> <Gold.Chemscore.Internal_Hbond>
0.0000

> <Gold.Chemscore.DEClash>
0.0174

> <Gold.Chemscore.DEInternal>
0.3704

> <Gold.Chemscore.Rot>
2.3288

> <Gold.Chemscore.Internal.Correction>
   9.000000E+99

> <Gold.Chemscore.Hbonds>
donor molecule, donor type, donor heavy atom, donor atom, acceptor molecule, acceptor atom, score
      L1  H     3    18       P1  7948  0.21
      L1  H     9    36       P1 10186  0.96
      L1  H    11    26       P1  7948  0.32
      P1  H 10752 10763       L1    17  0.83

> <Gold.Chemscore.Hbond.Weighted>
-10.5549

> <Gold.Chemscore.Metal.Weighted>
-0.0000

> <Gold.Chemscore.Lipo.Weighted>
-7.0325

> <Gold.Chemscore.Internal_Hbond.Weighted>
0.0000

> <Gold.Chemscore.DEClash.Weighted>
0.0174

> <Gold.Chemscore.DEInternal.Weighted>
0.3704

> <Gold.Chemscore.Rot.Weighted>
5.9617

> <Gold.Chemscore.Internal.Correction.Weighted>
   9.000000E+99

> <Gold.Protein.RotatedTorsions>
[ 6907 6896 6895 6894 ] final  163.17 input  -60.11 | X-H torsion
[ 7974 7965 7964 7962 ] final  129.07 input  175.53 | X-H torsion
[ 8008 7997 7996 7995 ] final  126.21 input   59.86 | X-H torsion
[ 10167 10162 10161 10158 ] final -107.19 input  -65.29 | X-H torsion
[ 10718 10713 10712 10709 ] final   39.12 input   66.30 | X-H torsion
[ 10763 10752 10751 10750 ] final   67.51 input  -60.55 | X-H torsion
[ 11005 11000 10999 10996 ] final    2.40 input  -57.11 | X-H torsion

> <Gold.Protein.ActiveResidues>
 VAL166  LYS551  ARG553  GLY616  TRP617  ASP618  TYR619  PRO620  LYS621  CYS622 
 ASP623  PHE694  ASN695  SER759  ASP760  ASP761  ALA762  ILE779  LEU786  VAL792 
 PHE793  MET794  SER795  GLU796  ALA797  LYS798  CYS799  TRP800  GLU811  SER814 

> <Gold.Protein.RotatedAtoms>
  151.9292  133.3606  159.3924 H   0  0  0  0  0  0  0  0  0  0  0  0  # atno 6907 bound_to 6896
  150.7020  134.4555  159.5365 H   0  0  0  0  0  0  0  0  0  0  0  0  # atno 6908 bound_to 6896
  152.2192  134.8429  160.0539 H   0  0  0  0  0  0  0  0  0  0  0  0  # atno 6909 bound_to 6896
  145.0327  139.4032  143.5141 H   0  0  0  0  0  0  0  0  0  0  0  0  # atno 7974 bound_to 7965
  156.2857  140.2698  156.2075 H   0  0  0  0  0  0  0  0  0  0  0  0  # atno 8008 bound_to 7997
  155.0298  140.0386  157.2488 H   0  0  0  0  0  0  0  0  0  0  0  0  # atno 8009 bound_to 7997
  154.7364  140.2716  155.6416 H   0  0  0  0  0  0  0  0  0  0  0  0  # atno 8010 bound_to 7997
  140.1796  143.3977  152.1292 H   0  0  0  0  0  0  0  0  0  0  0  0  # atno 10167 bound_to 10162
  157.3669  130.7680  149.7089 H   0  0  0  0  0  0  0  0  0  0  0  0  # atno 10718 bound_to 10713
  153.0190  135.5281  154.6991 H   0  0  0  0  0  0  0  0  0  0  0  0  # atno 10763 bound_to 10752
  154.6105  135.2878  155.0440 H   0  0  0  0  0  0  0  0  0  0  0  0  # atno 10764 bound_to 10752
  154.1463  135.6570  153.5006 H   0  0  0  0  0  0  0  0  0  0  0  0  # atno 10765 bound_to 10752
  140.6047  133.9803  155.8148 H   0  0  0  0  0  0  0  0  0  0  0  0  # atno 11005 bound_to 11000
  146.3500  139.9886  142.8688 LP  0  0  0  0  0  0  0  0  0  0  0  0  # atno 17320 bound_to 7965
  145.1749  140.9739  143.4300 LP  0  0  0  0  0  0  0  0  0  0  0  0  # atno 17321 bound_to 7965
  139.5302  144.7150  151.5084 LP  0  0  0  0  0  0  0  0  0  0  0  0  # atno 17342 bound_to 10162
  140.6528  143.8661  150.6804 LP  0  0  0  0  0  0  0  0  0  0  0  0  # atno 17343 bound_to 10162
  155.9748  130.4098  150.3898 LP  0  0  0  0  0  0  0  0  0  0  0  0  # atno 17370 bound_to 10713
  157.1983  131.0432  151.2664 LP  0  0  0  0  0  0  0  0  0  0  0  0  # atno 17371 bound_to 10713
  141.0848  134.0006  157.3330 LP  0  0  0  0  0  0  0  0  0  0  0  0  # atno 17394 bound_to 11000
  139.9217  135.0200  156.8089 LP  0  0  0  0  0  0  0  0  0  0  0  0  # atno 17395 bound_to 11000

$$$$
