AV-unprocessed.smi:109|AV-procd|sdf|1051|dock6
  -GOLD-   2262018103D 1   1.00000     0.00000
 Structure written by MMmdl.
 58 61  0  0  0  0  0  0  0  0  1 V2000
  148.7301  142.1835  154.4241 O   0  0  0  0  0  0  0  0  0  0  0  0
  149.1296  141.4195  155.5413 C   0  0  0  0  0  0  0  0  0  0  0  0
  150.6651  141.3919  155.6344 C   0  0  0  0  0  0  0  0  0  0  0  0
  151.2098  140.9008  156.9985 C   0  0  2  0  0  0  0  0  0  0  0  0
  150.4165  139.7569  157.4549 N   0  0  0  0  0  0  0  0  0  0  0  0
  150.9035  138.4955  157.4641 C   0  0  0  0  0  0  0  0  0  0  0  0
  151.9197  138.1317  158.2883 N   0  0  0  0  0  0  0  0  0  0  0  0
  152.3795  136.8776  158.2696 C   0  0  0  0  0  0  0  0  0  0  0  0
  151.9726  135.8520  157.5193 N   0  0  0  0  0  0  0  0  0  0  0  0
  150.9521  136.2098  156.6873 C   0  0  0  0  0  0  0  0  0  0  0  0
  150.3673  137.5044  156.6020 C   0  0  0  0  0  0  0  0  0  0  0  0
  149.3603  137.5048  155.6463 N   0  0  0  0  0  0  0  0  0  0  0  0
  149.3534  136.2794  155.1956 C   0  0  0  0  0  0  0  0  0  0  0  0
  150.2787  135.4324  155.7643 N   0  0  0  0  0  0  0  0  0  0  0  0
  150.4917  133.9825  155.4452 C   0  0  2  0  0  0  0  0  0  0  0  0
  149.5849  133.5862  154.4591 O   0  0  0  0  0  0  0  0  0  0  0  0
  148.7689  132.5181  154.9325 C   0  0  1  0  0  0  0  0  0  0  0  0
  148.3243  131.6142  153.7695 C   0  0  0  0  0  0  0  0  0  0  0  0
  147.9800  132.3933  152.6437 O   0  0  0  0  0  0  0  0  0  0  0  0
  149.5900  131.8635  156.0532 C   0  0  1  0  0  0  0  0  0  0  0  0
  150.5186  130.9272  155.5382 O   0  0  0  0  0  0  0  0  0  0  0  0
  150.3165  133.0516  156.6636 C   0  0  2  0  0  0  0  0  0  0  0  0
  149.5551  133.6162  157.7167 O   0  0  0  0  0  0  0  0  0  0  0  0
  151.2127  141.9993  158.1004 C   0  0  0  0  0  0  0  0  0  0  0  0
  151.5344  143.4134  157.5548 C   0  0  0  0  0  0  0  0  0  0  0  0
  151.5729  144.4775  158.6642 C   0  0  0  0  0  0  0  0  0  0  0  0
  152.5697  144.1042  159.7678 C   0  0  0  0  0  0  0  0  0  0  0  0
  152.2488  142.7176  160.3379 C   0  0  0  0  0  0  0  0  0  0  0  0
  152.2197  141.6548  159.2284 C   0  0  0  0  0  0  0  0  0  0  0  0
  151.4985  133.9385  155.0277 H   0  0  0  0  0  0  0  0  0  0  0  0
  147.8831  132.9682  155.3818 H   0  0  0  0  0  0  0  0  0  0  0  0
  148.9551  131.3458  156.7737 H   0  0  0  0  0  0  0  0  0  0  0  0
  151.2950  132.7835  157.0641 H   0  0  0  0  0  0  0  0  0  0  0  0
  148.4657  143.0396  154.7244 H   0  0  0  0  0  0  0  0  0  0  0  0
  148.6859  141.8582  156.4350 H   0  0  0  0  0  0  0  0  0  0  0  0
  148.7323  140.4092  155.4397 H   0  0  0  0  0  0  0  0  0  0  0  0
  151.0142  140.7356  154.8392 H   0  0  0  0  0  0  0  0  0  0  0  0
  151.0654  142.3827  155.4144 H   0  0  0  0  0  0  0  0  0  0  0  0
  152.2503  140.6133  156.8495 H   0  0  0  0  0  0  0  0  0  0  0  0
  149.4655  139.9705  157.7193 H   0  0  0  0  0  0  0  0  0  0  0  0
  153.1886  136.6653  158.9526 H   0  0  0  0  0  0  0  0  0  0  0  0
  148.6664  135.9563  154.4270 H   0  0  0  0  0  0  0  0  0  0  0  0
  149.1403  130.9484  153.4877 H   0  0  0  0  0  0  0  0  0  0  0  0
  147.4832  130.9806  154.0510 H   0  0  0  0  0  0  0  0  0  0  0  0
  148.1123  131.8719  151.8666 H   0  0  0  0  0  0  0  0  0  0  0  0
  150.4923  130.1542  156.0817 H   0  0  0  0  0  0  0  0  0  0  0  0
  148.6785  133.7731  157.4010 H   0  0  0  0  0  0  0  0  0  0  0  0
  150.2151  142.0359  158.5415 H   0  0  0  0  0  0  0  0  0  0  0  0
  152.4908  143.3973  157.0306 H   0  0  0  0  0  0  0  0  0  0  0  0
  150.7868  143.7293  156.8292 H   0  0  0  0  0  0  0  0  0  0  0  0
  151.8375  145.4465  158.2396 H   0  0  0  0  0  0  0  0  0  0  0  0
  150.5772  144.5911  159.0950 H   0  0  0  0  0  0  0  0  0  0  0  0
  153.5837  144.1113  159.3659 H   0  0  0  0  0  0  0  0  0  0  0  0
  152.5445  144.8504  160.5624 H   0  0  0  0  0  0  0  0  0  0  0  0
  152.9891  142.4472  161.0914 H   0  0  0  0  0  0  0  0  0  0  0  0
  151.2843  142.7429  160.8465 H   0  0  0  0  0  0  0  0  0  0  0  0
  151.9783  140.6939  159.6832 H   0  0  0  0  0  0  0  0  0  0  0  0
  153.2191  141.5475  158.8045 H   0  0  0  0  0  0  0  0  0  0  0  0
  1  2  1  0  0  0  0
  1 34  1  0  0  0  0
  2  3  1  0  0  0  0
  2 35  1  0  0  0  0
  2 36  1  0  0  0  0
  3  4  1  0  0  0  0
  3 37  1  0  0  0  0
  3 38  1  0  0  0  0
  4  5  1  0  0  0  0
  4 24  1  0  0  0  0
  4 39  1  0  0  0  0
  5  6  1  0  0  0  0
  5 40  1  0  0  0  0
  6 11  1  0  0  0  0
  6  7  2  0  0  0  0
  7  8  1  0  0  0  0
  8  9  2  0  0  0  0
  8 41  1  0  0  0  0
  9 10  1  0  0  0  0
 10 14  1  0  0  0  0
 10 11  2  0  0  0  0
 11 12  1  0  0  0  0
 12 13  2  0  0  0  0
 13 14  1  0  0  0  0
 13 42  1  0  0  0  0
 14 15  1  0  0  0  0
 15 30  1  0  0  0  0
 15 22  1  0  0  0  0
 15 16  1  0  0  0  0
 16 17  1  0  0  0  0
 17 31  1  0  0  0  0
 17 18  1  0  0  0  0
 17 20  1  0  0  0  0
 18 19  1  0  0  0  0
 18 43  1  0  0  0  0
 18 44  1  0  0  0  0
 19 45  1  0  0  0  0
 20 32  1  0  0  0  0
 20 21  1  0  0  0  0
 20 22  1  0  0  0  0
 21 46  1  0  0  0  0
 22 33  1  0  0  0  0
 22 23  1  0  0  0  0
 23 47  1  0  0  0  0
 24 29  1  0  0  0  0
 24 25  1  0  0  0  0
 24 48  1  0  0  0  0
 25 26  1  0  0  0  0
 25 49  1  0  0  0  0
 25 50  1  0  0  0  0
 26 27  1  0  0  0  0
 26 51  1  0  0  0  0
 26 52  1  0  0  0  0
 27 28  1  0  0  0  0
 27 53  1  0  0  0  0
 27 54  1  0  0  0  0
 28 29  1  0  0  0  0
 28 55  1  0  0  0  0
 28 56  1  0  0  0  0
 29 57  1  0  0  0  0
 29 58  1  0  0  0  0
M  END
> <s_m_source_file>
AV-unprocessed.smi

> <i_m_source_file_index>
109

> <i_lp_mmshare_version>
43012

> <i_f3d_flags>
0

> <s_epik_input>
W0NIMl0xW0NIMl1bQ0gyXVtDSDJdW0NIMl1bQ0hdMVtDQEhdKFtDSDJdW0NIMl1bT0hdKVtOSF1jKG5bY0hdbjIpYyhjMjMpbltjSF1uM1tDQEBIXTRPW0NASF0oW0NIMl1bT0hdKVtDQEBIXShbT0hdKVtDQEhdNFtPSF0=

> <s_epik_cmdline>
J2VwaWtfcHl0aG9uJywgJy1waCcsICc3LjAnLCAnLXRuJywgJzgnLCAnLW1hJywgJzIwMCcsICctbWV0YWxfYmluZGluZycsICctaW1hZScsICc8aW5maWxlLm1hZT4nLCAnLW9tYWUnLCAnPG91dGZpbGUubWFlPic=

> <r_lp_tautomer_probability>
1

> <r_epik_Ionization_Penalty>
0.000793976

> <r_epik_Ionization_Penalty_Charging>
0

> <r_epik_Ionization_Penalty_Neutral>
0.000793976

> <r_epik_State_Penalty>
-0

> <r_epik_Charging_Adjusted_Penalty>
0

> <i_epik_Tot_Q>
0

> <i_epik_Tot_abs_Q>
0

> <r_epik_Metal_State_Penalty>
-0

> <b_epik_Metal_Only>
0

> <s_epik_Chemistry_Notes>
This compound contains an acetal/aminal-like group ( X-CH(R)-Y where X, Y are N, S, or O) that may be acid/base labile, releasing an aldehyde.

> <s_lp_Force_Field>
OPLS_2005

> <r_lp_Energy>
55.8609

> <b_lp_Chiralities_Consistent>
1

> <s_lp_Variant>
AV-unprocessed.smi:109-21

> <Gold.Version>
5.8.1

> <Gold.Id.Protein>
6NUR|6NUR_protein|mol2

> <Gold.PLP.Fitness>
53.8245

> <Gold.PLP.PLP>
-44.5666

> <Gold.PLP.part.hbond>
-4.8444

> <Gold.PLP.part.metal>
0.0000

> <Gold.PLP.part.buried>
-6.4531

> <Gold.PLP.part.nonpolar>
-32.9161

> <Gold.PLP.part.repulsive>
0.2342

> <Gold.PLP.ligand.clash>
0.0000

> <Gold.PLP.ligand.torsion>
1.5591

> <Gold.PLP.Chemscore.Hbond>
3.0889

> <Gold.PLP.Chemscore.CHOScore>
1.0000

> <Gold.PLP.Chemscore.Metal>
0.0000

> <Gold.Chemscore.Hbonds>
donor molecule, donor type, donor heavy atom, donor atom, acceptor molecule, acceptor atom, score
      L1  H     1    34       P1  8028  1.00
      L1  H    19    45       P1 10747  0.91
      P1  H  6896  6907       L1    23  1.00
      P1  H  8011  8017       L1     1  0.06
      L1  C    13    42       P1  7948  0.81

> <Gold.PLP.Chemscore.Internal.Correction>
0.1093

> <Gold.Rescore>
     Score         DG    S(hbond)    S(metal)    S(lipo)     H(rot)  DE(clash)    DE(int)     intcor
     11.65     -13.97       3.03        0.00     105.57       5.47       0.07       2.25       ----

> <Gold.Chemscore.Fitness>
11.6515

> <Gold.Chemscore.DG>
-13.9720

> <Gold.Chemscore.ZeroCoef>
-5.4800

> <Gold.Chemscore.Hbond>
3.0341

> <Gold.Chemscore.Metal>
0.0000

> <Gold.Chemscore.Lipo>
105.5694

> <Gold.Chemscore.Internal_Hbond>
0.0000

> <Gold.Chemscore.DEClash>
0.0741

> <Gold.Chemscore.DEInternal>
2.2463

> <Gold.Chemscore.Rot>
5.4662

> <Gold.Chemscore.Internal.Correction>
   9.000000E+99

> <Gold.Chemscore.Hbonds>
donor molecule, donor type, donor heavy atom, donor atom, acceptor molecule, acceptor atom, score
      L1  H     1    34       P1  8028  0.95
      L1  H    19    45       P1 10747  0.87
      P1  H  6896  6907       L1    23  0.54
      P1  H  8011  8017       L1     1  0.04

> <Gold.Chemscore.Hbond.Weighted>
-10.1338

> <Gold.Chemscore.Metal.Weighted>
-0.0000

> <Gold.Chemscore.Lipo.Weighted>
-12.3516

> <Gold.Chemscore.Internal_Hbond.Weighted>
0.0000

> <Gold.Chemscore.DEClash.Weighted>
0.0741

> <Gold.Chemscore.DEInternal.Weighted>
2.2463

> <Gold.Chemscore.Rot.Weighted>
13.9935

> <Gold.Chemscore.Internal.Correction.Weighted>
   9.000000E+99

> <Gold.Protein.RotatedTorsions>
[ 6907 6896 6895 6894 ] final -120.03 input  -60.11 | X-H torsion
[ 7974 7965 7964 7962 ] final   52.25 input  175.53 | X-H torsion
[ 8008 7997 7996 7995 ] final -167.63 input   59.86 | X-H torsion
[ 10167 10162 10161 10158 ] final  160.12 input  -65.29 | X-H torsion
[ 10718 10713 10712 10709 ] final  126.97 input   66.30 | X-H torsion
[ 10763 10752 10751 10750 ] final   78.83 input  -60.55 | X-H torsion
[ 11005 11000 10999 10996 ] final   41.57 input  -57.11 | X-H torsion

> <Gold.Protein.ActiveResidues>
 VAL166  LYS551  ARG553  GLY616  TRP617  ASP618  TYR619  PRO620  LYS621  CYS622 
 ASP623  PHE694  ASN695  SER759  ASP760  ASP761  ALA762  ILE779  LEU786  VAL792 
 PHE793  MET794  SER795  GLU796  ALA797  LYS798  CYS799  TRP800  GLU811  SER814 

> <Gold.Protein.RotatedAtoms>
  150.8357  133.8018  159.3080 H   0  0  0  0  0  0  0  0  0  0  0  0  # atno 6907 bound_to 6896
  151.5734  135.1060  160.0010 H   0  0  0  0  0  0  0  0  0  0  0  0  # atno 6908 bound_to 6896
  152.4429  133.7440  159.6713 H   0  0  0  0  0  0  0  0  0  0  0  0  # atno 6909 bound_to 6896
  145.9832  139.4263  143.0119 H   0  0  0  0  0  0  0  0  0  0  0  0  # atno 7974 bound_to 7965
  155.8803  140.1008  157.1490 H   0  0  0  0  0  0  0  0  0  0  0  0  # atno 8008 bound_to 7997
  154.4004  140.1330  156.4251 H   0  0  0  0  0  0  0  0  0  0  0  0  # atno 8009 bound_to 7997
  155.7650  140.3462  155.5220 H   0  0  0  0  0  0  0  0  0  0  0  0  # atno 8010 bound_to 7997
  139.4837  144.4665  151.8635 H   0  0  0  0  0  0  0  0  0  0  0  0  # atno 10167 bound_to 10162
  157.5373  131.1097  150.8914 H   0  0  0  0  0  0  0  0  0  0  0  0  # atno 10718 bound_to 10713
  153.0905  135.4862  154.8680 H   0  0  0  0  0  0  0  0  0  0  0  0  # atno 10763 bound_to 10752
  154.7263  135.3050  154.8967 H   0  0  0  0  0  0  0  0  0  0  0  0  # atno 10764 bound_to 10752
  153.9617  135.6811  153.4798 H   0  0  0  0  0  0  0  0  0  0  0  0  # atno 10765 bound_to 10752
  140.1821  134.4090  155.8194 H   0  0  0  0  0  0  0  0  0  0  0  0  # atno 11005 bound_to 11000
  145.7739  140.9885  143.1135 LP  0  0  0  0  0  0  0  0  0  0  0  0  # atno 17320 bound_to 7965
  144.6867  139.9481  143.7477 LP  0  0  0  0  0  0  0  0  0  0  0  0  # atno 17321 bound_to 7965
  140.4131  144.2343  150.5888 LP  0  0  0  0  0  0  0  0  0  0  0  0  # atno 17342 bound_to 10162
  140.4947  143.2336  151.8767 LP  0  0  0  0  0  0  0  0  0  0  0  0  # atno 17343 bound_to 10162
  156.9478  130.5408  149.5281 LP  0  0  0  0  0  0  0  0  0  0  0  0  # atno 17370 bound_to 10713
  156.0469  130.5544  150.8901 LP  0  0  0  0  0  0  0  0  0  0  0  0  # atno 17371 bound_to 10713
  141.2223  133.7005  156.7949 LP  0  0  0  0  0  0  0  0  0  0  0  0  # atno 17394 bound_to 11000
  140.2255  134.8725  157.3422 LP  0  0  0  0  0  0  0  0  0  0  0  0  # atno 17395 bound_to 11000

$$$$
