AV-unprocessed.smi:837|AV-procd|sdf|3907|dock3
  -GOLD-   22720 1363D 1   1.00000     0.00000
 Structure written by MMmdl.
 49 51  0  0  0  0  0  0  0  0  3 V2000
  150.3792  140.8895  157.1049 C   0  0  0  0  0  0  0  0  0  0  0  0
  151.6784  140.9634  157.9351 C   0  0  1  0  0  0  0  0  0  0  0  0
  151.5214  141.9551  159.1079 C   0  0  0  0  0  0  0  0  0  0  0  0
  152.8353  142.1354  159.8819 C   0  0  0  0  0  0  0  0  0  0  0  0
  153.3642  140.7895  160.3940 C   0  0  0  0  0  0  0  0  0  0  0  0
  153.5374  139.7845  159.2422 C   0  0  0  0  0  0  0  0  0  0  0  0
  152.2371  139.5855  158.4202 C   0  0  1  0  0  0  0  0  0  0  0  0
  151.2587  138.8431  159.2018 N   0  5  0  0  0  0  0  0  0  0  0  0
  151.0324  137.6520  158.6023 C   0  0  0  0  0  0  0  0  0  0  0  0
  150.2712  136.7664  158.9916 O   0  0  0  0  0  0  0  0  0  0  0  0
  151.7518  137.5340  157.4702 N   0  0  0  0  0  0  0  0  0  0  0  0
  151.6789  136.3918  156.5519 C   0  0  0  0  0  0  0  0  0  0  0  0
  150.2455  136.1694  156.0587 C   0  0  0  0  0  0  0  0  0  0  0  0
  149.4105  137.0696  156.1461 O   0  0  0  0  0  0  0  0  0  0  0  0
  149.9788  134.9585  155.5477 N   0  0  0  0  0  0  0  0  0  0  0  0
  148.6744  134.4978  155.0817 C   0  0  0  0  0  0  0  0  0  0  0  0
  148.7531  133.4925  153.9108 C   0  0  0  0  0  0  0  0  0  0  0  0
  147.4269  133.2340  153.2107 C   0  0  0  0  0  0  0  0  0  0  0  0
  147.3387  133.2886  151.8014 C   0  0  0  0  0  0  0  0  0  0  0  0
  146.0968  133.0579  151.1744 C   0  0  0  0  0  0  0  0  0  0  0  0
  144.9669  132.7844  151.9706 C   0  0  0  0  0  0  0  0  0  0  0  0
  145.0880  132.7386  153.3153 N   0  3  0  0  0  0  0  0  0  0  0  0
  146.2609  132.9464  153.9533 C   0  0  0  0  0  0  0  0  0  0  0  0
  152.4955  138.6264  157.2665 C   0  0  0  0  0  0  0  0  0  0  0  0
  153.2512  138.8547  156.3211 O   0  0  0  0  0  0  0  0  0  0  0  0
  149.5502  140.5131  157.7015 H   0  0  0  0  0  0  0  0  0  0  0  0
  150.4838  140.2454  156.2320 H   0  0  0  0  0  0  0  0  0  0  0  0
  150.0953  141.8771  156.7413 H   0  0  0  0  0  0  0  0  0  0  0  0
  152.4319  141.3925  157.2723 H   0  0  0  0  0  0  0  0  0  0  0  0
  151.1900  142.9242  158.7337 H   0  0  0  0  0  0  0  0  0  0  0  0
  150.7419  141.6074  159.7870 H   0  0  0  0  0  0  0  0  0  0  0  0
  153.5808  142.5993  159.2351 H   0  0  0  0  0  0  0  0  0  0  0  0
  152.6828  142.8172  160.7188 H   0  0  0  0  0  0  0  0  0  0  0  0
  154.3167  140.9354  160.9040 H   0  0  0  0  0  0  0  0  0  0  0  0
  152.6770  140.3853  161.1381 H   0  0  0  0  0  0  0  0  0  0  0  0
  154.3311  140.1465  158.5864 H   0  0  0  0  0  0  0  0  0  0  0  0
  153.8919  138.8321  159.6407 H   0  0  0  0  0  0  0  0  0  0  0  0
  152.3244  136.5503  155.6866 H   0  0  0  0  0  0  0  0  0  0  0  0
  152.0582  135.4944  157.0442 H   0  0  0  0  0  0  0  0  0  0  0  0
  150.7353  134.2903  155.5137 H   0  0  0  0  0  0  0  0  0  0  0  0
  148.1042  134.0766  155.9107 H   0  0  0  0  0  0  0  0  0  0  0  0
  148.1300  135.3838  154.7546 H   0  0  0  0  0  0  0  0  0  0  0  0
  149.4727  133.8559  153.1761 H   0  0  0  0  0  0  0  0  0  0  0  0
  149.1505  132.5426  154.2692 H   0  0  0  0  0  0  0  0  0  0  0  0
  148.2103  133.5144  151.2045 H   0  0  0  0  0  0  0  0  0  0  0  0
  146.0082  133.1080  150.0990 H   0  0  0  0  0  0  0  0  0  0  0  0
  143.9768  132.6096  151.5755 H   0  0  0  0  0  0  0  0  0  0  0  0
  146.2277  132.8876  155.0311 H   0  0  0  0  0  0  0  0  0  0  0  0
  144.2564  132.5437  153.8728 H   0  0  0  0  0  0  0  0  0  0  0  0
  1  2  1  0  0  0  0
  1 26  1  0  0  0  0
  1 27  1  0  0  0  0
  1 28  1  0  0  0  0
  2  7  1  0  0  0  0
  2  3  1  0  0  0  0
  2 29  1  0  0  0  0
  3  4  1  0  0  0  0
  3 30  1  0  0  0  0
  3 31  1  0  0  0  0
  4  5  1  0  0  0  0
  4 32  1  0  0  0  0
  4 33  1  0  0  0  0
  5  6  1  0  0  0  0
  5 34  1  0  0  0  0
  5 35  1  0  0  0  0
  6  7  1  0  0  0  0
  6 36  1  0  0  0  0
  6 37  1  0  0  0  0
  7 24  1  0  0  0  0
  7  8  1  0  0  0  0
  8  9  1  0  0  0  0
  9 10  2  0  0  0  0
  9 11  1  0  0  0  0
 11 12  1  0  0  0  0
 11 24  1  0  0  0  0
 12 13  1  0  0  0  0
 12 38  1  0  0  0  0
 12 39  1  0  0  0  0
 13 14  2  0  0  0  0
 13 15  1  0  0  0  0
 15 16  1  0  0  0  0
 15 40  1  0  0  0  0
 16 17  1  0  0  0  0
 16 41  1  0  0  0  0
 16 42  1  0  0  0  0
 17 18  1  0  0  0  0
 17 43  1  0  0  0  0
 17 44  1  0  0  0  0
 18 23  1  0  0  0  0
 18 19  2  0  0  0  0
 19 20  1  0  0  0  0
 19 45  1  0  0  0  0
 20 21  2  0  0  0  0
 20 46  1  0  0  0  0
 21 22  1  0  0  0  0
 21 47  1  0  0  0  0
 22 23  2  0  0  0  0
 22 49  1  0  0  0  0
 23 48  1  0  0  0  0
 24 25  2  0  0  0  0
M  CHG  1   8  -1
M  CHG  1  22   1
M  END
> <s_m_source_file>
AV-unprocessed.smi

> <i_m_source_file_index>
837

> <i_lp_mmshare_version>
43012

> <i_f3d_flags>
0

> <s_epik_input>
W0NIMl0xW0NIMl1bQ0gyXVtDSDJdW0NAQEhdKFtDSDNdKVtDQEBdMTJbTkhdQyg9TylOKEMyPU8pW0NIMl1DKD1PKVtOSF1bQ0gyXVtDSDJdYzNbY0hdW2NIXVtjSF1uW2NIXTM=

> <s_epik_cmdline>
J2VwaWtfcHl0aG9uJywgJy1waCcsICc3LjAnLCAnLXRuJywgJzgnLCAnLW1hJywgJzIwMCcsICctbWV0YWxfYmluZGluZycsICctaW1hZScsICc8aW5maWxlLm1hZT4nLCAnLW9tYWUnLCAnPG91dGZpbGUubWFlPic=

> <r_lp_tautomer_probability>
1

> <r_epik_Ionization_Penalty>
8.27169

> <r_epik_Ionization_Penalty_Charging>
8.27169

> <r_epik_Ionization_Penalty_Neutral>
1.56557e-07

> <r_epik_State_Penalty>
8.42098

> <r_epik_Charging_Adjusted_Penalty>
16.6927

> <i_epik_Tot_Q>
0

> <i_epik_Tot_abs_Q>
2

> <r_epik_Metal_State_Penalty>
4.38565

> <b_epik_Metal_Only>
1

> <s_lp_Force_Field>
OPLS_2005

> <r_lp_Energy>
17.1627

> <b_lp_Chiralities_Consistent>
1

> <s_lp_Variant>
AV-unprocessed.smi:837-16

> <Gold.Version>
5.8.1

> <Gold.Id.Protein>
6NUR|6NUR_protein|mol2

> <Gold.PLP.Fitness>
47.7007

> <Gold.PLP.PLP>
-36.8841

> <Gold.PLP.part.hbond>
-2.9370

> <Gold.PLP.part.metal>
0.0000

> <Gold.PLP.part.buried>
-5.2246

> <Gold.PLP.part.nonpolar>
-28.6863

> <Gold.PLP.part.repulsive>
0.0998

> <Gold.PLP.ligand.clash>
0.0000

> <Gold.PLP.ligand.torsion>
0.6100

> <Gold.PLP.Chemscore.Hbond>
4.0000

> <Gold.PLP.Chemscore.CHOScore>
0.0000

> <Gold.PLP.Chemscore.Metal>
0.0000

> <Gold.Chemscore.Hbonds>
donor molecule, donor type, donor heavy atom, donor atom, acceptor molecule, acceptor atom, score
      L1  H    22    49       P1 10957  2.00
      P1  H  6896  6909       L1    10  0.84
      P1  H  7997  8010       L1    25  1.00

> <Gold.PLP.Chemscore.Internal.Correction>
0.0366

> <Gold.Rescore>
     Score         DG    S(hbond)    S(metal)    S(lipo)     H(rot)  DE(clash)    DE(int)     intcor
     19.09     -20.35       2.88        0.00      86.69       1.92       0.00       1.25       ----

> <Gold.Chemscore.Fitness>
19.0942

> <Gold.Chemscore.DG>
-20.3489

> <Gold.Chemscore.ZeroCoef>
-5.4800

> <Gold.Chemscore.Hbond>
2.8846

> <Gold.Chemscore.Metal>
0.0000

> <Gold.Chemscore.Lipo>
86.6926

> <Gold.Chemscore.Internal_Hbond>
0.0000

> <Gold.Chemscore.DEClash>
0.0009

> <Gold.Chemscore.DEInternal>
1.2537

> <Gold.Chemscore.Rot>
1.9175

> <Gold.Chemscore.Internal.Correction>
   9.000000E+99

> <Gold.Chemscore.Hbonds>
donor molecule, donor type, donor heavy atom, donor atom, acceptor molecule, acceptor atom, score
      L1  H    22    49       P1 10957  0.54
      P1  H  6896  6909       L1    10  0.73
      P1  H  7997  8010       L1    25  0.91

> <Gold.Chemscore.Hbond.Weighted>
-9.6346

> <Gold.Chemscore.Metal.Weighted>
-0.0000

> <Gold.Chemscore.Lipo.Weighted>
-10.1430

> <Gold.Chemscore.Internal_Hbond.Weighted>
0.0000

> <Gold.Chemscore.DEClash.Weighted>
0.0009

> <Gold.Chemscore.DEInternal.Weighted>
1.2537

> <Gold.Chemscore.Rot.Weighted>
4.9087

> <Gold.Chemscore.Internal.Correction.Weighted>
   9.000000E+99

> <Gold.Protein.RotatedTorsions>
[ 6907 6896 6895 6894 ] final   98.80 input  -60.11 | X-H torsion
[ 7974 7965 7964 7962 ] final   54.07 input  175.53 | X-H torsion
[ 8008 7997 7996 7995 ] final   64.58 input   59.86 | X-H torsion
[ 10167 10162 10161 10158 ] final  125.16 input  -65.29 | X-H torsion
[ 10718 10713 10712 10709 ] final -127.84 input   66.30 | X-H torsion
[ 10763 10752 10751 10750 ] final   -1.01 input  -60.55 | X-H torsion
[ 11005 11000 10999 10996 ] final   77.08 input  -57.11 | X-H torsion

> <Gold.Protein.ActiveResidues>
 VAL166  LYS551  ARG553  GLY616  TRP617  ASP618  TYR619  PRO620  LYS621  CYS622 
 ASP623  PHE694  ASN695  SER759  ASP760  ASP761  ALA762  ILE779  LEU786  VAL792 
 PHE793  MET794  SER795  GLU796  ALA797  LYS798  CYS799  TRP800  GLU811  SER814 

> <Gold.Protein.RotatedAtoms>
  152.5403  134.0526  159.8116 H   0  0  0  0  0  0  0  0  0  0  0  0  # atno 6907 bound_to 6896
  151.0665  133.5493  159.2637 H   0  0  0  0  0  0  0  0  0  0  0  0  # atno 6908 bound_to 6896
  151.2372  135.0584  159.9065 H   0  0  0  0  0  0  0  0  0  0  0  0  # atno 6909 bound_to 6896
  145.9646  139.4091  143.0227 H   0  0  0  0  0  0  0  0  0  0  0  0  # atno 7974 bound_to 7965
  155.6483  140.3497  155.4739 H   0  0  0  0  0  0  0  0  0  0  0  0  # atno 8008 bound_to 7997
  155.9869  140.1186  157.0698 H   0  0  0  0  0  0  0  0  0  0  0  0  # atno 8009 bound_to 7997
  154.4207  140.1127  156.5498 H   0  0  0  0  0  0  0  0  0  0  0  0  # atno 8010 bound_to 7997
  139.5701  144.6934  151.3802 H   0  0  0  0  0  0  0  0  0  0  0  0  # atno 10167 bound_to 10162
  156.1895  130.6785  151.0406 H   0  0  0  0  0  0  0  0  0  0  0  0  # atno 10718 bound_to 10713
  153.3392  135.6979  153.6881 H   0  0  0  0  0  0  0  0  0  0  0  0  # atno 10763 bound_to 10752
  153.5653  135.3527  155.2816 H   0  0  0  0  0  0  0  0  0  0  0  0  # atno 10764 bound_to 10752
  154.8633  135.4259  154.2601 H   0  0  0  0  0  0  0  0  0  0  0  0  # atno 10765 bound_to 10752
  139.9270  134.7654  156.1477 H   0  0  0  0  0  0  0  0  0  0  0  0  # atno 11005 bound_to 11000
  145.7992  140.9779  143.1008 LP  0  0  0  0  0  0  0  0  0  0  0  0  # atno 17320 bound_to 7965
  144.6822  139.9779  143.7483 LP  0  0  0  0  0  0  0  0  0  0  0  0  # atno 17321 bound_to 7965
  140.6985  143.7690  150.7365 LP  0  0  0  0  0  0  0  0  0  0  0  0  # atno 17342 bound_to 10162
  140.1193  143.4627  152.2323 LP  0  0  0  0  0  0  0  0  0  0  0  0  # atno 17343 bound_to 10162
  157.6920  131.0807  150.7080 LP  0  0  0  0  0  0  0  0  0  0  0  0  # atno 17370 bound_to 10713
  156.7137  130.4659  149.5540 LP  0  0  0  0  0  0  0  0  0  0  0  0  # atno 17371 bound_to 10713
  141.0834  133.6744  156.2384 LP  0  0  0  0  0  0  0  0  0  0  0  0  # atno 17394 bound_to 11000
  140.6309  134.5265  157.5559 LP  0  0  0  0  0  0  0  0  0  0  0  0  # atno 17395 bound_to 11000

$$$$
