AV-unprocessed.smi:1354|AV-procd|sdf|5534|dock9
  -GOLD-   22720 5123D 1   1.00000     0.00000
 Structure written by MMmdl.
 39 41  0  0  0  0  0  0  0  0  1 V2000
  151.7128  137.1836  155.0957 O   0  0  0  0  0  0  0  0  0  0  0  0
  152.4849  138.3451  154.8746 C   0  0  0  0  0  0  0  0  0  0  0  0
  152.0454  139.4909  155.8029 C   0  0  0  0  0  0  0  0  0  0  0  0
  150.7239  140.0957  155.4194 C   0  0  0  0  0  0  0  0  0  0  0  0
  150.0609  139.6781  154.3394 N   0  0  0  0  0  0  0  0  0  0  0  0
  148.9398  140.4832  154.3360 C   0  0  0  0  0  0  0  0  0  0  0  0
  147.8563  140.5440  153.4306 C   0  0  0  0  0  0  0  0  0  0  0  0
  146.8095  141.4673  153.6313 C   0  0  0  0  0  0  0  0  0  0  0  0
  146.8300  142.3389  154.7390 C   0  0  0  0  0  0  0  0  0  0  0  0
  147.8982  142.2911  155.6553 C   0  0  0  0  0  0  0  0  0  0  0  0
  148.9420  141.3684  155.4499 C   0  0  0  0  0  0  0  0  0  0  0  0
  150.1127  141.0707  156.1428 N   0  0  0  0  0  0  0  0  0  0  0  0
  150.5520  141.7090  157.3776 C   0  0  0  0  0  0  0  0  0  0  0  0
  151.8293  142.5372  157.1832 C   0  0  0  0  0  0  0  0  0  0  0  0
  151.8830  143.5396  158.1894 O   0  0  0  0  0  0  0  0  0  0  0  0
  152.2365  143.1729  159.4693 C   0  0  0  0  0  0  0  0  0  0  0  0
  152.7488  141.8960  159.8120 C   0  0  0  0  0  0  0  0  0  0  0  0
  153.0867  141.5975  161.1463 C   0  0  0  0  0  0  0  0  0  0  0  0
  152.9165  142.5666  162.1519 C   0  0  0  0  0  0  0  0  0  0  0  0
  152.4065  143.8357  161.8220 C   0  0  0  0  0  0  0  0  0  0  0  0
  152.0676  144.1368  160.4881 C   0  0  0  0  0  0  0  0  0  0  0  0
  151.4489  145.7040  160.1053 Cl  0  0  0  0  0  0  0  0  0  0  0  0
  151.3937  137.1995  155.9852 H   0  0  0  0  0  0  0  0  0  0  0  0
  153.5431  138.1157  155.0028 H   0  0  0  0  0  0  0  0  0  0  0  0
  152.3478  138.6425  153.8348 H   0  0  0  0  0  0  0  0  0  0  0  0
  151.9454  139.1045  156.8177 H   0  0  0  0  0  0  0  0  0  0  0  0
  152.8282  140.2458  155.8501 H   0  0  0  0  0  0  0  0  0  0  0  0
  147.8327  139.8815  152.5781 H   0  0  0  0  0  0  0  0  0  0  0  0
  145.9878  141.5080  152.9316 H   0  0  0  0  0  0  0  0  0  0  0  0
  146.0260  143.0453  154.8849 H   0  0  0  0  0  0  0  0  0  0  0  0
  147.9174  142.9613  156.5014 H   0  0  0  0  0  0  0  0  0  0  0  0
  149.7510  142.3588  157.7304 H   0  0  0  0  0  0  0  0  0  0  0  0
  150.6849  140.9565  158.1545 H   0  0  0  0  0  0  0  0  0  0  0  0
  152.7045  141.8895  157.2469 H   0  0  0  0  0  0  0  0  0  0  0  0
  151.8220  142.9886  156.1918 H   0  0  0  0  0  0  0  0  0  0  0  0
  152.8887  141.1265  159.0683 H   0  0  0  0  0  0  0  0  0  0  0  0
  153.4766  140.6223  161.3982 H   0  0  0  0  0  0  0  0  0  0  0  0
  153.1762  142.3368  163.1748 H   0  0  0  0  0  0  0  0  0  0  0  0
  152.2760  144.5797  162.5940 H   0  0  0  0  0  0  0  0  0  0  0  0
  1  2  1  0  0  0  0
  1 23  1  0  0  0  0
  2  3  1  0  0  0  0
  2 24  1  0  0  0  0
  2 25  1  0  0  0  0
  3  4  1  0  0  0  0
  3 26  1  0  0  0  0
  3 27  1  0  0  0  0
  4 12  1  0  0  0  0
  4  5  2  0  0  0  0
  5  6  1  0  0  0  0
  6 11  2  0  0  0  0
  6  7  1  0  0  0  0
  7  8  2  0  0  0  0
  7 28  1  0  0  0  0
  8  9  1  0  0  0  0
  8 29  1  0  0  0  0
  9 10  2  0  0  0  0
  9 30  1  0  0  0  0
 10 11  1  0  0  0  0
 10 31  1  0  0  0  0
 11 12  1  0  0  0  0
 12 13  1  0  0  0  0
 13 14  1  0  0  0  0
 13 32  1  0  0  0  0
 13 33  1  0  0  0  0
 14 15  1  0  0  0  0
 14 34  1  0  0  0  0
 14 35  1  0  0  0  0
 15 16  1  0  0  0  0
 16 21  1  0  0  0  0
 16 17  2  0  0  0  0
 17 18  1  0  0  0  0
 17 36  1  0  0  0  0
 18 19  2  0  0  0  0
 18 37  1  0  0  0  0
 19 20  1  0  0  0  0
 19 38  1  0  0  0  0
 20 21  2  0  0  0  0
 20 39  1  0  0  0  0
 21 22  1  0  0  0  0
M  END
> <s_m_source_file>
AV-unprocessed.smi

> <i_m_source_file_index>
1354

> <i_lp_mmshare_version>
43012

> <i_f3d_flags>
0

> <s_epik_input>
W2NIXTFbY0hdW2NIXVtjSF1jKGMxMiluKGMobjIpW0NIMl1bQ0gyXVtPSF0pW0NIMl1bQ0gyXU9jM1tjSF1bY0hdW2NIXVtjSF1jM0Ns

> <s_epik_cmdline>
J2VwaWtfcHl0aG9uJywgJy1waCcsICc3LjAnLCAnLXRuJywgJzgnLCAnLW1hJywgJzIwMCcsICctbWV0YWxfYmluZGluZycsICctaW1hZScsICc8aW5maWxlLm1hZT4nLCAnLW9tYWUnLCAnPG91dGZpbGUubWFlPic=

> <r_lp_tautomer_probability>
1

> <r_epik_Ionization_Penalty>
0.195126

> <r_epik_Ionization_Penalty_Charging>
0

> <r_epik_Ionization_Penalty_Neutral>
0.195126

> <r_epik_State_Penalty>
0.184862

> <r_epik_Charging_Adjusted_Penalty>
0.184862

> <i_epik_Tot_Q>
0

> <i_epik_Tot_abs_Q>
0

> <r_epik_Metal_State_Penalty>
0.000216911

> <b_epik_Metal_Only>
0

> <s_lp_Force_Field>
OPLS_2005

> <r_lp_Energy>
15.3671

> <b_lp_Chiralities_Consistent>
1

> <s_lp_Variant>
AV-unprocessed.smi:1354-1

> <Gold.Version>
5.8.1

> <Gold.Id.Protein>
6NUR|6NUR_protein|mol2

> <Gold.PLP.Fitness>
55.2195

> <Gold.PLP.PLP>
-53.2132

> <Gold.PLP.part.hbond>
-2.0000

> <Gold.PLP.part.metal>
0.0000

> <Gold.PLP.part.buried>
0.1864

> <Gold.PLP.part.nonpolar>
-51.3555

> <Gold.PLP.part.repulsive>
0.2247

> <Gold.PLP.ligand.clash>
0.0000

> <Gold.PLP.ligand.torsion>
0.3769

> <Gold.PLP.Chemscore.Hbond>
0.8960

> <Gold.PLP.Chemscore.CHOScore>
0.0000

> <Gold.PLP.Chemscore.Metal>
0.0000

> <Gold.Chemscore.Hbonds>
donor molecule, donor type, donor heavy atom, donor atom, acceptor molecule, acceptor atom, score
      P1  H 10752 10765       L1     1  0.93

> <Gold.PLP.Chemscore.Internal.Correction>
0.0720

> <Gold.Rescore>
     Score         DG    S(hbond)    S(metal)    S(lipo)     H(rot)  DE(clash)    DE(int)     intcor
     16.25     -19.75       0.77        0.00     150.67       2.31       3.08       0.42       ----

> <Gold.Chemscore.Fitness>
16.2503

> <Gold.Chemscore.DG>
-19.7544

> <Gold.Chemscore.ZeroCoef>
-5.4800

> <Gold.Chemscore.Hbond>
0.7662

> <Gold.Chemscore.Metal>
0.0000

> <Gold.Chemscore.Lipo>
150.6694

> <Gold.Chemscore.Internal_Hbond>
0.0000

> <Gold.Chemscore.DEClash>
3.0800

> <Gold.Chemscore.DEInternal>
0.4242

> <Gold.Chemscore.Rot>
2.3098

> <Gold.Chemscore.Internal.Correction>
   9.000000E+99

> <Gold.Chemscore.Hbonds>
donor molecule, donor type, donor heavy atom, donor atom, acceptor molecule, acceptor atom, score
      P1  H 10752 10765       L1     1  0.41

> <Gold.Chemscore.Hbond.Weighted>
-2.5592

> <Gold.Chemscore.Metal.Weighted>
-0.0000

> <Gold.Chemscore.Lipo.Weighted>
-17.6283

> <Gold.Chemscore.Internal_Hbond.Weighted>
0.0000

> <Gold.Chemscore.DEClash.Weighted>
3.0800

> <Gold.Chemscore.DEInternal.Weighted>
0.4242

> <Gold.Chemscore.Rot.Weighted>
5.9131

> <Gold.Chemscore.Internal.Correction.Weighted>
   9.000000E+99

> <Gold.Protein.RotatedTorsions>
[ 6907 6896 6895 6894 ] final -135.06 input  -60.11 | X-H torsion
[ 7974 7965 7964 7962 ] final -171.00 input  175.53 | X-H torsion
[ 8008 7997 7996 7995 ] final  136.82 input   59.86 | X-H torsion
[ 10167 10162 10161 10158 ] final  -18.05 input  -65.29 | X-H torsion
[ 10718 10713 10712 10709 ] final   83.43 input   66.30 | X-H torsion
[ 10763 10752 10751 10750 ] final  176.48 input  -60.55 | X-H torsion
[ 11005 11000 10999 10996 ] final    8.17 input  -57.11 | X-H torsion

> <Gold.Protein.ActiveResidues>
 VAL166  LYS551  ARG553  GLY616  TRP617  ASP618  TYR619  PRO620  LYS621  CYS622 
 ASP623  PHE694  ASN695  SER759  ASP760  ASP761  ALA762  ILE779  LEU786  VAL792 
 PHE793  MET794  SER795  GLU796  ALA797  LYS798  CYS799  TRP800  GLU811  SER814 

> <Gold.Protein.RotatedAtoms>
  150.9934  133.6127  159.2704 H   0  0  0  0  0  0  0  0  0  0  0  0  # atno 6907 bound_to 6896
  151.3340  135.0847  159.9358 H   0  0  0  0  0  0  0  0  0  0  0  0  # atno 6908 bound_to 6896
  152.5252  133.9558  159.7748 H   0  0  0  0  0  0  0  0  0  0  0  0  # atno 6909 bound_to 6896
  144.7162  140.1987  143.6340 H   0  0  0  0  0  0  0  0  0  0  0  0  # atno 7974 bound_to 7965
  156.3003  140.2435  156.3808 H   0  0  0  0  0  0  0  0  0  0  0  0  # atno 8008 bound_to 7997
  154.8703  140.0416  157.1740 H   0  0  0  0  0  0  0  0  0  0  0  0  # atno 8009 bound_to 7997
  154.8802  140.2948  155.5433 H   0  0  0  0  0  0  0  0  0  0  0  0  # atno 8010 bound_to 7997
  140.7254  143.4955  150.9936 H   0  0  0  0  0  0  0  0  0  0  0  0  # atno 10167 bound_to 10162
  157.6878  131.0090  150.2522 H   0  0  0  0  0  0  0  0  0  0  0  0  # atno 10718 bound_to 10713
  154.4817  135.2775  155.1565 H   0  0  0  0  0  0  0  0  0  0  0  0  # atno 10763 bound_to 10752
  154.3273  135.6197  153.5538 H   0  0  0  0  0  0  0  0  0  0  0  0  # atno 10764 bound_to 10752
  152.9876  135.5757  154.5219 H   0  0  0  0  0  0  0  0  0  0  0  0  # atno 10765 bound_to 10752
  140.5400  134.0384  155.7901 H   0  0  0  0  0  0  0  0  0  0  0  0  # atno 11005 bound_to 11000
  145.8700  139.2267  143.1666 LP  0  0  0  0  0  0  0  0  0  0  0  0  # atno 17320 bound_to 7965
  146.0094  140.8449  142.9979 LP  0  0  0  0  0  0  0  0  0  0  0  0  # atno 17321 bound_to 7965
  139.8662  143.7251  152.3170 LP  0  0  0  0  0  0  0  0  0  0  0  0  # atno 17342 bound_to 10162
  139.7484  144.7541  151.0544 LP  0  0  0  0  0  0  0  0  0  0  0  0  # atno 17343 bound_to 10162
  156.3117  130.3773  149.7656 LP  0  0  0  0  0  0  0  0  0  0  0  0  # atno 17370 bound_to 10713
  156.5254  130.8234  151.3218 LP  0  0  0  0  0  0  0  0  0  0  0  0  # atno 17371 bound_to 10713
  141.1233  133.9425  157.2686 LP  0  0  0  0  0  0  0  0  0  0  0  0  # atno 17394 bound_to 11000
  139.9509  135.0175  156.8991 LP  0  0  0  0  0  0  0  0  0  0  0  0  # atno 17395 bound_to 11000

$$$$
