AV-unprocessed.smi:2318|AV-procd|sdf|9275|dock7
  -GOLD-   2272012493D 1   1.00000     0.00000
 Structure written by MMmdl.
 37 38  0  0  0  0  0  0  0  0  1 V2000
  146.8488  136.0899  162.9603 C   0  0  0  0  0  0  0  0  0  0  0  0
  147.4449  136.0114  161.6442 N   0  0  0  0  0  0  0  0  0  0  0  0
  147.6650  134.8944  160.8637 C   0  0  0  0  0  0  0  0  0  0  0  0
  148.2514  135.3148  159.7037 C   0  0  0  0  0  0  0  0  0  0  0  0
  148.3478  136.7230  159.8773 C   0  0  0  0  0  0  0  0  0  0  0  0
  148.9171  137.5381  158.8656 N   0  0  0  0  0  0  0  0  0  0  0  0
  150.2080  137.6101  158.4984 C   0  0  0  0  0  0  0  0  0  0  0  0
  151.1252  136.9618  159.0026 O   0  0  0  0  0  0  0  0  0  0  0  0
  150.3777  138.4906  157.5013 N   0  0  0  0  0  0  0  0  0  0  0  0
  151.6460  138.8180  156.8462 C   0  0  2  0  0  0  0  0  0  0  0  0
  151.9887  140.3058  157.1141 C   0  0  0  0  0  0  0  0  0  0  0  0
  152.3289  140.6472  158.5688 C   0  0  0  0  0  0  0  0  0  0  0  0
  152.1782  142.1676  158.6610 C   0  0  0  0  0  0  0  0  0  0  0  0
  151.1477  142.5573  157.5930 C   0  0  0  0  0  0  0  0  0  0  0  0
  150.8418  141.2790  156.8026 C   0  0  0  0  0  0  0  0  0  0  0  0
  151.5403  138.4555  155.3471 C   0  0  0  0  0  0  0  0  0  0  0  0
  151.3647  137.1404  155.2113 F   0  0  0  0  0  0  0  0  0  0  0  0
  150.5077  139.0841  154.7839 F   0  0  0  0  0  0  0  0  0  0  0  0
  152.6548  138.7839  154.6950 F   0  0  0  0  0  0  0  0  0  0  0  0
  147.8643  137.1424  161.0387 N   0  0  0  0  0  0  0  0  0  0  0  0
  146.5805  135.0928  163.3102 H   0  0  0  0  0  0  0  0  0  0  0  0
  145.9503  136.7064  162.9223 H   0  0  0  0  0  0  0  0  0  0  0  0
  147.5578  136.5323  163.6609 H   0  0  0  0  0  0  0  0  0  0  0  0
  147.3893  133.9038  161.1950 H   0  0  0  0  0  0  0  0  0  0  0  0
  148.5624  134.7092  158.8654 H   0  0  0  0  0  0  0  0  0  0  0  0
  148.2699  138.1291  158.3652 H   0  0  0  0  0  0  0  0  0  0  0  0
  149.5603  138.9711  157.1549 H   0  0  0  0  0  0  0  0  0  0  0  0
  152.4461  138.2096  157.2717 H   0  0  0  0  0  0  0  0  0  0  0  0
  152.8424  140.5885  156.4957 H   0  0  0  0  0  0  0  0  0  0  0  0
  151.6158  140.1675  159.2409 H   0  0  0  0  0  0  0  0  0  0  0  0
  153.3294  140.3240  158.8564 H   0  0  0  0  0  0  0  0  0  0  0  0
  151.8796  142.4862  159.6601 H   0  0  0  0  0  0  0  0  0  0  0  0
  153.1328  142.6460  158.4377 H   0  0  0  0  0  0  0  0  0  0  0  0
  150.2399  142.9639  158.0402 H   0  0  0  0  0  0  0  0  0  0  0  0
  151.5600  143.3261  156.9383 H   0  0  0  0  0  0  0  0  0  0  0  0
  150.7367  141.4724  155.7345 H   0  0  0  0  0  0  0  0  0  0  0  0
  149.8968  140.8592  157.1518 H   0  0  0  0  0  0  0  0  0  0  0  0
  1  2  1  0  0  0  0
  1 21  1  0  0  0  0
  1 22  1  0  0  0  0
  1 23  1  0  0  0  0
  2 20  1  0  0  0  0
  2  3  1  0  0  0  0
  3  4  2  0  0  0  0
  3 24  1  0  0  0  0
  4  5  1  0  0  0  0
  4 25  1  0  0  0  0
  5  6  1  0  0  0  0
  5 20  2  0  0  0  0
  6  7  1  0  0  0  0
  6 26  1  0  0  0  0
  7  8  2  0  0  0  0
  7  9  1  0  0  0  0
  9 10  1  0  0  0  0
  9 27  1  0  0  0  0
 10 11  1  0  0  0  0
 10 16  1  0  0  0  0
 10 28  1  0  0  0  0
 11 15  1  0  0  0  0
 11 12  1  0  0  0  0
 11 29  1  0  0  0  0
 12 13  1  0  0  0  0
 12 30  1  0  0  0  0
 12 31  1  0  0  0  0
 13 14  1  0  0  0  0
 13 32  1  0  0  0  0
 13 33  1  0  0  0  0
 14 15  1  0  0  0  0
 14 34  1  0  0  0  0
 14 35  1  0  0  0  0
 15 36  1  0  0  0  0
 15 37  1  0  0  0  0
 16 17  1  0  0  0  0
 16 18  1  0  0  0  0
 16 19  1  0  0  0  0
M  END
> <s_m_source_file>
AV-unprocessed.smi

> <i_m_source_file_index>
2318

> <i_lp_mmshare_version>
43012

> <i_f3d_flags>
0

> <s_epik_input>
W0NIM11uMVtjSF1bY0hdYyhuMSlbTkhdQyg9TylbTkhdW0NAQEhdKEMoRikoRilGKVtDSF0yW0NIMl1bQ0gyXVtDSDJdW0NIMl0y

> <s_epik_cmdline>
J2VwaWtfcHl0aG9uJywgJy1waCcsICc3LjAnLCAnLXRuJywgJzgnLCAnLW1hJywgJzIwMCcsICctbWV0YWxfYmluZGluZycsICctaW1hZScsICc8aW5maWxlLm1hZT4nLCAnLW9tYWUnLCAnPG91dGZpbGUubWFlPic=

> <r_lp_tautomer_probability>
1

> <r_epik_Ionization_Penalty>
2.39546e-05

> <r_epik_Ionization_Penalty_Charging>
0

> <r_epik_Ionization_Penalty_Neutral>
2.39546e-05

> <r_epik_State_Penalty>
-0

> <r_epik_Charging_Adjusted_Penalty>
0

> <i_epik_Tot_Q>
0

> <i_epik_Tot_abs_Q>
0

> <r_epik_Metal_State_Penalty>
-0

> <b_epik_Metal_Only>
0

> <s_lp_Force_Field>
OPLS_2005

> <r_lp_Energy>
23.9909

> <b_lp_Chiralities_Consistent>
1

> <s_lp_Variant>
AV-unprocessed.smi:2318-1

> <Gold.Version>
5.8.1

> <Gold.Id.Protein>
6NUR|6NUR_protein|mol2

> <Gold.PLP.Fitness>
43.6238

> <Gold.PLP.PLP>
-36.6299

> <Gold.PLP.part.hbond>
-3.0000

> <Gold.PLP.part.metal>
0.0000

> <Gold.PLP.part.buried>
-5.6239

> <Gold.PLP.part.nonpolar>
-30.1560

> <Gold.PLP.part.repulsive>
0.2204

> <Gold.PLP.ligand.clash>
0.0000

> <Gold.PLP.ligand.torsion>
0.7986

> <Gold.PLP.Chemscore.Hbond>
2.7753

> <Gold.PLP.Chemscore.CHOScore>
0.0000

> <Gold.PLP.Chemscore.Metal>
0.0000

> <Gold.Chemscore.Hbonds>
donor molecule, donor type, donor heavy atom, donor atom, acceptor molecule, acceptor atom, score
      P1  H  6896  6908       L1     8  0.90
      P1  H  6931  6943       L1    20  0.96
      P1  H  6934  6947       L1    20  0.80

> <Gold.PLP.Chemscore.Internal.Correction>
0.2650

> <Gold.Rescore>
     Score         DG    S(hbond)    S(metal)    S(lipo)     H(rot)  DE(clash)    DE(int)     intcor
     15.00     -16.02       1.94        0.00      63.22       1.30       0.00       1.02       ----

> <Gold.Chemscore.Fitness>
14.9980

> <Gold.Chemscore.DG>
-16.0190

> <Gold.Chemscore.ZeroCoef>
-5.4800

> <Gold.Chemscore.Hbond>
1.9373

> <Gold.Chemscore.Metal>
0.0000

> <Gold.Chemscore.Lipo>
63.2236

> <Gold.Chemscore.Internal_Hbond>
0.0000

> <Gold.Chemscore.DEClash>
0.0000

> <Gold.Chemscore.DEInternal>
1.0210

> <Gold.Chemscore.Rot>
1.3003

> <Gold.Chemscore.Internal.Correction>
   9.000000E+99

> <Gold.Chemscore.Hbonds>
donor molecule, donor type, donor heavy atom, donor atom, acceptor molecule, acceptor atom, score
      P1  H  6896  6908       L1     8  0.82
      P1  H  6931  6943       L1    20  0.74
      P1  H  6934  6947       L1    20  0.63

> <Gold.Chemscore.Hbond.Weighted>
-6.4706

> <Gold.Chemscore.Metal.Weighted>
-0.0000

> <Gold.Chemscore.Lipo.Weighted>
-7.3972

> <Gold.Chemscore.Internal_Hbond.Weighted>
0.0000

> <Gold.Chemscore.DEClash.Weighted>
0.0000

> <Gold.Chemscore.DEInternal.Weighted>
1.0210

> <Gold.Chemscore.Rot.Weighted>
3.3287

> <Gold.Chemscore.Internal.Correction.Weighted>
   9.000000E+99

> <Gold.Protein.RotatedTorsions>
[ 6907 6896 6895 6894 ] final -150.73 input  -60.11 | X-H torsion
[ 7974 7965 7964 7962 ] final  153.53 input  175.53 | X-H torsion
[ 8008 7997 7996 7995 ] final  121.11 input   59.86 | X-H torsion
[ 10167 10162 10161 10158 ] final  -93.94 input  -65.29 | X-H torsion
[ 10718 10713 10712 10709 ] final  -90.15 input   66.30 | X-H torsion
[ 10763 10752 10751 10750 ] final  127.79 input  -60.55 | X-H torsion
[ 11005 11000 10999 10996 ] final -177.40 input  -57.11 | X-H torsion

> <Gold.Protein.ActiveResidues>
 VAL166  LYS551  ARG553  GLY616  TRP617  ASP618  TYR619  PRO620  LYS621  CYS622 
 ASP623  PHE694  ASN695  SER759  ASP760  ASP761  ALA762  ILE779  LEU786  VAL792 
 PHE793  MET794  SER795  GLU796  ALA797  LYS798  CYS799  TRP800  GLU811  SER814 

> <Gold.Protein.RotatedAtoms>
  151.2029  133.4600  159.2596 H   0  0  0  0  0  0  0  0  0  0  0  0  # atno 6907 bound_to 6896
  151.1052  134.9995  159.8478 H   0  0  0  0  0  0  0  0  0  0  0  0  # atno 6908 bound_to 6896
  152.5446  134.1952  159.8743 H   0  0  0  0  0  0  0  0  0  0  0  0  # atno 6909 bound_to 6896
  144.8148  139.6813  143.6126 H   0  0  0  0  0  0  0  0  0  0  0  0  # atno 7974 bound_to 7965
  156.2672  140.2816  156.1256 H   0  0  0  0  0  0  0  0  0  0  0  0  # atno 8008 bound_to 7997
  155.1109  140.0391  157.2741 H   0  0  0  0  0  0  0  0  0  0  0  0  # atno 8009 bound_to 7997
  154.6743  140.2595  155.6980 H   0  0  0  0  0  0  0  0  0  0  0  0  # atno 8010 bound_to 7997
  140.3195  143.3057  152.0062 H   0  0  0  0  0  0  0  0  0  0  0  0  # atno 10167 bound_to 10162
  155.9986  130.4899  150.5279 H   0  0  0  0  0  0  0  0  0  0  0  0  # atno 10718 bound_to 10713
  153.7151  135.3262  155.3255 H   0  0  0  0  0  0  0  0  0  0  0  0  # atno 10763 bound_to 10752
  154.8373  135.4486  154.1274 H   0  0  0  0  0  0  0  0  0  0  0  0  # atno 10764 bound_to 10752
  153.2378  135.6967  153.7896 H   0  0  0  0  0  0  0  0  0  0  0  0  # atno 10765 bound_to 10752
  140.4413  134.6429  157.4759 H   0  0  0  0  0  0  0  0  0  0  0  0  # atno 11005 bound_to 11000
  146.2450  139.6080  142.9465 LP  0  0  0  0  0  0  0  0  0  0  0  0  # atno 17320 bound_to 7965
  145.5239  141.0430  143.2420 LP  0  0  0  0  0  0  0  0  0  0  0  0  # atno 17321 bound_to 7965
  139.4877  144.6322  151.7047 LP  0  0  0  0  0  0  0  0  0  0  0  0  # atno 17342 bound_to 10162
  140.5496  144.0447  150.6121 LP  0  0  0  0  0  0  0  0  0  0  0  0  # atno 17343 bound_to 10162
  157.3232  131.0686  151.1916 LP  0  0  0  0  0  0  0  0  0  0  0  0  # atno 17370 bound_to 10713
  157.2822  130.6756  149.6072 LP  0  0  0  0  0  0  0  0  0  0  0  0  # atno 17371 bound_to 10713
  140.0068  134.6752  155.9443 LP  0  0  0  0  0  0  0  0  0  0  0  0  # atno 17394 bound_to 11000
  141.1704  133.6537  156.4631 LP  0  0  0  0  0  0  0  0  0  0  0  0  # atno 17395 bound_to 11000

$$$$
