AV-unprocessed.smi:2902|AV-procd|sdf|11155|dock4
  -GOLD-   2272016 33D 1   1.00000     0.00000
 Structure written by MMmdl.
 47 48  0  0  0  0  0  0  0  0  1 V2000
  143.9066  135.7660  152.4982 C   0  0  0  0  0  0  0  0  0  0  0  0
  145.2729  135.7709  151.7955 C   0  0  0  0  0  0  0  0  0  0  0  0
  146.3441  134.9152  152.5010 C   0  0  2  0  0  0  0  0  0  0  0  0
  145.8720  133.5713  152.5112 O   0  0  0  0  0  0  0  0  0  0  0  0
  146.5917  132.6509  151.6935 C   0  0  0  0  0  0  0  0  0  0  0  0
  146.2118  132.8992  150.2336 C   0  0  0  0  0  0  0  0  0  0  0  0
  144.8806  132.1660  150.0237 C   0  0  0  0  0  0  0  0  0  0  0  0
  144.7643  131.1407  151.1625 C   0  0  0  0  0  0  0  0  0  0  0  0
  146.0670  131.2405  151.9626 C   0  0  0  0  0  0  0  0  0  0  0  0
  146.6115  135.3791  153.9436 C   0  0  0  0  0  0  0  0  0  0  0  0
  145.7398  135.2616  154.8049 O   0  0  0  0  0  0  0  0  0  0  0  0
  147.8281  135.8915  154.1835 N   0  0  0  0  0  0  0  0  0  0  0  0
  148.3230  136.3948  155.4647 C   0  0  2  0  0  0  0  0  0  0  0  0
  147.6202  137.7246  155.7854 C   0  0  0  0  0  0  0  0  0  0  0  0
  149.8715  136.4993  155.4710 C   0  0  1  0  0  0  0  0  0  0  0  0
  150.5546  135.4381  154.5872 C   0  0  0  0  0  0  0  0  0  0  0  0
  150.3509  137.8431  155.1632 N   0  0  0  0  0  0  0  0  0  0  0  0
  150.2172  138.5696  154.0515 C   0  0  0  0  0  0  0  0  0  0  0  0
  150.8113  139.7535  154.1069 N   0  0  0  0  0  0  0  0  0  0  0  0
  151.3339  139.6876  155.3671 C   0  0  0  0  0  0  0  0  0  0  0  0
  151.0933  138.5632  156.0409 N   0  0  0  0  0  0  0  0  0  0  0  0
  143.2076  136.4277  151.9865 H   0  0  0  0  0  0  0  0  0  0  0  0
  143.9944  136.1092  153.5292 H   0  0  0  0  0  0  0  0  0  0  0  0
  143.4643  134.7698  152.5121 H   0  0  0  0  0  0  0  0  0  0  0  0
  145.1513  135.4442  150.7618 H   0  0  0  0  0  0  0  0  0  0  0  0
  145.6287  136.8001  151.7407 H   0  0  0  0  0  0  0  0  0  0  0  0
  147.2633  134.9633  151.9132 H   0  0  0  0  0  0  0  0  0  0  0  0
  147.6719  132.7143  151.8349 H   0  0  0  0  0  0  0  0  0  0  0  0
  146.1524  133.9602  149.9888 H   0  0  0  0  0  0  0  0  0  0  0  0
  146.9706  132.4571  149.5867 H   0  0  0  0  0  0  0  0  0  0  0  0
  144.0484  132.8697  150.0731 H   0  0  0  0  0  0  0  0  0  0  0  0
  144.8461  131.6887  149.0436 H   0  0  0  0  0  0  0  0  0  0  0  0
  143.9179  131.3980  151.8010 H   0  0  0  0  0  0  0  0  0  0  0  0
  144.5965  130.1292  150.7915 H   0  0  0  0  0  0  0  0  0  0  0  0
  146.7818  130.5112  151.5797 H   0  0  0  0  0  0  0  0  0  0  0  0
  145.9278  131.0363  153.0248 H   0  0  0  0  0  0  0  0  0  0  0  0
  148.4770  135.9276  153.4103 H   0  0  0  0  0  0  0  0  0  0  0  0
  148.0510  135.6969  156.2582 H   0  0  0  0  0  0  0  0  0  0  0  0
  147.9678  138.1321  156.7351 H   0  0  0  0  0  0  0  0  0  0  0  0
  146.5415  137.5848  155.8641 H   0  0  0  0  0  0  0  0  0  0  0  0
  147.7984  138.4746  155.0143 H   0  0  0  0  0  0  0  0  0  0  0  0
  150.1916  136.2933  156.4936 H   0  0  0  0  0  0  0  0  0  0  0  0
  150.2387  134.4335  154.8691 H   0  0  0  0  0  0  0  0  0  0  0  0
  151.6391  135.4833  154.6907 H   0  0  0  0  0  0  0  0  0  0  0  0
  150.3204  135.5722  153.5320 H   0  0  0  0  0  0  0  0  0  0  0  0
  149.6785  138.2233  153.1817 H   0  0  0  0  0  0  0  0  0  0  0  0
  151.9129  140.4903  155.7997 H   0  0  0  0  0  0  0  0  0  0  0  0
  1  2  1  0  0  0  0
  1 22  1  0  0  0  0
  1 23  1  0  0  0  0
  1 24  1  0  0  0  0
  2  3  1  0  0  0  0
  2 25  1  0  0  0  0
  2 26  1  0  0  0  0
  3  4  1  0  0  0  0
  3 10  1  0  0  0  0
  3 27  1  0  0  0  0
  4  5  1  0  0  0  0
  5  9  1  0  0  0  0
  5  6  1  0  0  0  0
  5 28  1  0  0  0  0
  6  7  1  0  0  0  0
  6 29  1  0  0  0  0
  6 30  1  0  0  0  0
  7  8  1  0  0  0  0
  7 31  1  0  0  0  0
  7 32  1  0  0  0  0
  8  9  1  0  0  0  0
  8 33  1  0  0  0  0
  8 34  1  0  0  0  0
  9 35  1  0  0  0  0
  9 36  1  0  0  0  0
 10 11  2  0  0  0  0
 10 12  1  0  0  0  0
 12 13  1  0  0  0  0
 12 37  1  0  0  0  0
 13 14  1  0  0  0  0
 13 15  1  0  0  0  0
 13 38  1  0  0  0  0
 14 39  1  0  0  0  0
 14 40  1  0  0  0  0
 14 41  1  0  0  0  0
 15 16  1  0  0  0  0
 15 17  1  0  0  0  0
 15 42  1  0  0  0  0
 16 43  1  0  0  0  0
 16 44  1  0  0  0  0
 16 45  1  0  0  0  0
 17 21  1  0  0  0  0
 17 18  1  0  0  0  0
 18 19  2  0  0  0  0
 18 46  1  0  0  0  0
 19 20  1  0  0  0  0
 20 21  2  0  0  0  0
 20 47  1  0  0  0  0
M  END
> <s_m_source_file>
AV-unprocessed.smi

> <i_m_source_file_index>
2902

> <i_lp_mmshare_version>
43012

> <i_f3d_flags>
0

> <s_epik_input>
W0NIMl0xW0NIMl1bQ0gyXVtDSDJdW0NIXTFPW0NAQEhdKFtDSDJdW0NIM10pQyg9TylbTkhdW0NASF0oW0NIM10pW0NASF0oW0NIM10pbjJbY0hdbltjSF1uMg==

> <s_epik_cmdline>
J2VwaWtfcHl0aG9uJywgJy1waCcsICc3LjAnLCAnLXRuJywgJzgnLCAnLW1hJywgJzIwMCcsICctbWV0YWxfYmluZGluZycsICctaW1hZScsICc8aW5maWxlLm1hZT4nLCAnLW9tYWUnLCAnPG91dGZpbGUubWFlPic=

> <r_lp_tautomer_probability>
1

> <r_epik_Ionization_Penalty>
6.95617e-05

> <r_epik_Ionization_Penalty_Charging>
0

> <r_epik_Ionization_Penalty_Neutral>
6.95617e-05

> <r_epik_State_Penalty>
-0

> <r_epik_Charging_Adjusted_Penalty>
0

> <i_epik_Tot_Q>
0

> <i_epik_Tot_abs_Q>
0

> <r_epik_Metal_State_Penalty>
-0

> <b_epik_Metal_Only>
0

> <s_lp_Force_Field>
OPLS_2005

> <r_lp_Energy>
29.711

> <b_lp_Chiralities_Consistent>
1

> <s_lp_Variant>
AV-unprocessed.smi:2902-5

> <Gold.Version>
5.8.1

> <Gold.Id.Protein>
6NUR|6NUR_protein|mol2

> <Gold.PLP.Fitness>
38.4318

> <Gold.PLP.PLP>
-31.2888

> <Gold.PLP.part.hbond>
-2.0000

> <Gold.PLP.part.metal>
0.0000

> <Gold.PLP.part.buried>
-1.1956

> <Gold.PLP.part.nonpolar>
-26.3897

> <Gold.PLP.part.repulsive>
0.2791

> <Gold.PLP.ligand.clash>
0.0000

> <Gold.PLP.ligand.torsion>
1.9151

> <Gold.PLP.Chemscore.Hbond>
2.0000

> <Gold.PLP.Chemscore.CHOScore>
1.4786

> <Gold.PLP.Chemscore.Metal>
0.0000

> <Gold.Chemscore.Hbonds>
donor molecule, donor type, donor heavy atom, donor atom, acceptor molecule, acceptor atom, score
      L1  H    12    37       P1  7948  1.00
      P1  H  7989  7998       L1    19  0.94
      L1  C    18    46       P1  7948  1.00
      L1  C    18    46       P1  7957  0.39

> <Gold.PLP.Chemscore.Internal.Correction>
0.5374

> <Gold.Rescore>
     Score         DG    S(hbond)    S(metal)    S(lipo)     H(rot)  DE(clash)    DE(int)     intcor
     10.12     -13.14       1.97        0.00      68.18       2.69       0.97       2.05       ----

> <Gold.Chemscore.Fitness>
10.1152

> <Gold.Chemscore.DG>
-13.1381

> <Gold.Chemscore.ZeroCoef>
-5.4800

> <Gold.Chemscore.Hbond>
1.9689

> <Gold.Chemscore.Metal>
0.0000

> <Gold.Chemscore.Lipo>
68.1820

> <Gold.Chemscore.Internal_Hbond>
0.0000

> <Gold.Chemscore.DEClash>
0.9737

> <Gold.Chemscore.DEInternal>
2.0493

> <Gold.Chemscore.Rot>
2.6935

> <Gold.Chemscore.Internal.Correction>
   9.000000E+99

> <Gold.Chemscore.Hbonds>
donor molecule, donor type, donor heavy atom, donor atom, acceptor molecule, acceptor atom, score
      L1  H    12    37       P1  7948  0.98
      P1  H  7989  7998       L1    19  0.31

> <Gold.Chemscore.Hbond.Weighted>
-6.5762

> <Gold.Chemscore.Metal.Weighted>
-0.0000

> <Gold.Chemscore.Lipo.Weighted>
-7.9773

> <Gold.Chemscore.Internal_Hbond.Weighted>
0.0000

> <Gold.Chemscore.DEClash.Weighted>
0.9737

> <Gold.Chemscore.DEInternal.Weighted>
2.0493

> <Gold.Chemscore.Rot.Weighted>
6.8954

> <Gold.Chemscore.Internal.Correction.Weighted>
   9.000000E+99

> <Gold.Protein.RotatedTorsions>
[ 6907 6896 6895 6894 ] final  -42.61 input  -60.11 | X-H torsion
[ 7974 7965 7964 7962 ] final -153.33 input  175.53 | X-H torsion
[ 8008 7997 7996 7995 ] final -177.89 input   59.86 | X-H torsion
[ 10167 10162 10161 10158 ] final  -87.08 input  -65.29 | X-H torsion
[ 10718 10713 10712 10709 ] final  -49.75 input   66.30 | X-H torsion
[ 10763 10752 10751 10750 ] final  -25.94 input  -60.55 | X-H torsion
[ 11005 11000 10999 10996 ] final   72.88 input  -57.11 | X-H torsion

> <Gold.Protein.ActiveResidues>
 VAL166  LYS551  ARG553  GLY616  TRP617  ASP618  TYR619  PRO620  LYS621  CYS622 
 ASP623  PHE694  ASN695  SER759  ASP760  ASP761  ALA762  ILE779  LEU786  VAL792 
 PHE793  MET794  SER795  GLU796  ALA797  LYS798  CYS799  TRP800  GLU811  SER814 

> <Gold.Protein.RotatedAtoms>
  150.9533  134.8930  159.7685 H   0  0  0  0  0  0  0  0  0  0  0  0  # atno 6907 bound_to 6896
  152.5128  134.3775  159.9349 H   0  0  0  0  0  0  0  0  0  0  0  0  # atno 6908 bound_to 6896
  151.3790  133.3787  159.2743 H   0  0  0  0  0  0  0  0  0  0  0  0  # atno 6909 bound_to 6896
  144.7746  140.4540  143.5882 H   0  0  0  0  0  0  0  0  0  0  0  0  # atno 7974 bound_to 7965
  156.0123  140.1243  157.0441 H   0  0  0  0  0  0  0  0  0  0  0  0  # atno 8008 bound_to 7997
  154.4280  140.1085  156.5917 H   0  0  0  0  0  0  0  0  0  0  0  0  # atno 8009 bound_to 7997
  155.6062  140.3471  155.4611 H   0  0  0  0  0  0  0  0  0  0  0  0  # atno 8010 bound_to 7997
  140.3880  143.2718  151.9301 H   0  0  0  0  0  0  0  0  0  0  0  0  # atno 10167 bound_to 10162
  156.1864  130.4151  149.9433 H   0  0  0  0  0  0  0  0  0  0  0  0  # atno 10718 bound_to 10713
  153.7079  135.6952  153.5045 H   0  0  0  0  0  0  0  0  0  0  0  0  # atno 10763 bound_to 10752
  153.2294  135.4343  155.0577 H   0  0  0  0  0  0  0  0  0  0  0  0  # atno 10764 bound_to 10752
  154.8324  135.3480  154.6617 H   0  0  0  0  0  0  0  0  0  0  0  0  # atno 10765 bound_to 10752
  139.9468  134.7298  156.0959 H   0  0  0  0  0  0  0  0  0  0  0  0  # atno 11005 bound_to 11000
  145.6223  139.1525  143.3015 LP  0  0  0  0  0  0  0  0  0  0  0  0  # atno 17320 bound_to 7965
  146.1917  140.6332  142.9142 LP  0  0  0  0  0  0  0  0  0  0  0  0  # atno 17321 bound_to 7965
  139.4791  144.5755  151.8018 LP  0  0  0  0  0  0  0  0  0  0  0  0  # atno 17342 bound_to 10162
  140.4870  144.1367  150.5943 LP  0  0  0  0  0  0  0  0  0  0  0  0  # atno 17343 bound_to 10162
  156.7187  130.8998  151.3616 LP  0  0  0  0  0  0  0  0  0  0  0  0  # atno 17370 bound_to 10713
  157.6901  130.9225  150.0492 LP  0  0  0  0  0  0  0  0  0  0  0  0  # atno 17371 bound_to 10713
  141.1121  133.6640  156.3004 LP  0  0  0  0  0  0  0  0  0  0  0  0  # atno 17394 bound_to 11000
  140.5815  134.5741  157.5480 LP  0  0  0  0  0  0  0  0  0  0  0  0  # atno 17395 bound_to 11000

$$$$
