AV-unprocessed.smi:431|AV-procd|sdf|2547|dock1
  -GOLD-   2262022513D 1   1.00000     0.00000
 Structure written by MMmdl.
 43 44  0  0  0  0  0  0  0  0  1 V2000
  152.2180  143.6956  161.8555 C   0  0  0  0  0  0  0  0  0  0  0  0
  152.2510  142.3444  161.1230 C   0  0  0  0  0  0  0  0  0  0  0  0
  152.5850  142.4431  159.6176 C   0  0  2  0  0  0  0  0  0  0  0  0
  152.4818  143.8966  159.1254 C   0  0  0  0  0  0  0  0  0  0  0  0
  151.6828  141.5334  158.7704 C   0  0  0  0  0  0  0  0  0  0  0  0
  150.4615  141.6912  158.7759 O   0  0  0  0  0  0  0  0  0  0  0  0
  152.2969  140.5759  158.0581 N   0  0  0  0  0  0  0  0  0  0  0  0
  151.6158  139.5831  157.2337 C   0  0  0  0  0  0  0  0  0  0  0  0
  150.6550  138.6913  158.0069 C   0  0  0  0  0  0  0  0  0  0  0  0
  149.2579  138.7730  157.8326 C   0  0  0  0  0  0  0  0  0  0  0  0
  148.4243  137.9184  158.5784 C   0  0  0  0  0  0  0  0  0  0  0  0
  149.0081  137.0017  159.4852 C   0  0  0  0  0  0  0  0  0  0  0  0
  148.1927  136.1291  160.2395 N   0  0  0  0  0  0  0  0  0  0  0  0
  148.2954  134.7118  159.8992 C   0  0  0  0  0  0  0  0  0  0  0  0
  147.1568  133.9170  160.5615 C   0  0  0  0  0  0  0  0  0  0  0  0
  147.1594  134.1489  161.9661 O   0  0  0  0  0  0  0  0  0  0  0  0
  146.9427  135.5216  162.2754 C   0  0  0  0  0  0  0  0  0  0  0  0
  148.0754  136.3723  161.6765 C   0  0  0  0  0  0  0  0  0  0  0  0
  150.3513  136.9391  159.6616 N   0  0  0  0  0  0  0  0  0  0  0  0
  151.1460  137.7596  158.9425 C   0  0  0  0  0  0  0  0  0  0  0  0
  151.8987  143.5651  162.8893 H   0  0  0  0  0  0  0  0  0  0  0  0
  151.5223  144.3859  161.3782 H   0  0  0  0  0  0  0  0  0  0  0  0
  153.2003  144.1677  161.8759 H   0  0  0  0  0  0  0  0  0  0  0  0
  152.9601  141.6818  161.6214 H   0  0  0  0  0  0  0  0  0  0  0  0
  151.2748  141.8715  161.2360 H   0  0  0  0  0  0  0  0  0  0  0  0
  153.6198  142.1238  159.4810 H   0  0  0  0  0  0  0  0  0  0  0  0
  152.7026  143.9728  158.0598 H   0  0  0  0  0  0  0  0  0  0  0  0
  153.1913  144.5367  159.6503 H   0  0  0  0  0  0  0  0  0  0  0  0
  151.4843  144.3065  159.2894 H   0  0  0  0  0  0  0  0  0  0  0  0
  153.3038  140.5186  158.1063 H   0  0  0  0  0  0  0  0  0  0  0  0
  151.0885  140.0812  156.4181 H   0  0  0  0  0  0  0  0  0  0  0  0
  152.3718  138.9493  156.7704 H   0  0  0  0  0  0  0  0  0  0  0  0
  148.8239  139.4800  157.1410 H   0  0  0  0  0  0  0  0  0  0  0  0
  147.3539  137.9872  158.4567 H   0  0  0  0  0  0  0  0  0  0  0  0
  148.2584  134.5494  158.8232 H   0  0  0  0  0  0  0  0  0  0  0  0
  149.2605  134.3372  160.2432 H   0  0  0  0  0  0  0  0  0  0  0  0
  146.1905  134.1961  160.1375 H   0  0  0  0  0  0  0  0  0  0  0  0
  147.2883  132.8506  160.3776 H   0  0  0  0  0  0  0  0  0  0  0  0
  145.9714  135.8432  161.8953 H   0  0  0  0  0  0  0  0  0  0  0  0
  146.9158  135.6415  163.3585 H   0  0  0  0  0  0  0  0  0  0  0  0
  149.0213  136.1288  162.1623 H   0  0  0  0  0  0  0  0  0  0  0  0
  147.8720  137.4270  161.8664 H   0  0  0  0  0  0  0  0  0  0  0  0
  152.2074  137.6648  159.1193 H   0  0  0  0  0  0  0  0  0  0  0  0
  1  2  1  0  0  0  0
  1 21  1  0  0  0  0
  1 22  1  0  0  0  0
  1 23  1  0  0  0  0
  2  3  1  0  0  0  0
  2 24  1  0  0  0  0
  2 25  1  0  0  0  0
  3  4  1  0  0  0  0
  3  5  1  0  0  0  0
  3 26  1  0  0  0  0
  4 27  1  0  0  0  0
  4 28  1  0  0  0  0
  4 29  1  0  0  0  0
  5  6  2  0  0  0  0
  5  7  1  0  0  0  0
  7  8  1  0  0  0  0
  7 30  1  0  0  0  0
  8  9  1  0  0  0  0
  8 31  1  0  0  0  0
  8 32  1  0  0  0  0
  9 20  1  0  0  0  0
  9 10  2  0  0  0  0
 10 11  1  0  0  0  0
 10 33  1  0  0  0  0
 11 12  2  0  0  0  0
 11 34  1  0  0  0  0
 12 13  1  0  0  0  0
 12 19  1  0  0  0  0
 13 18  1  0  0  0  0
 13 14  1  0  0  0  0
 14 15  1  0  0  0  0
 14 35  1  0  0  0  0
 14 36  1  0  0  0  0
 15 16  1  0  0  0  0
 15 37  1  0  0  0  0
 15 38  1  0  0  0  0
 16 17  1  0  0  0  0
 17 18  1  0  0  0  0
 17 39  1  0  0  0  0
 17 40  1  0  0  0  0
 18 41  1  0  0  0  0
 18 42  1  0  0  0  0
 19 20  2  0  0  0  0
 20 43  1  0  0  0  0
M  END
> <s_m_source_file>
AV-unprocessed.smi

> <i_m_source_file_index>
431

> <i_lp_mmshare_version>
43012

> <i_f3d_flags>
0

> <s_epik_input>
W0NIM11bQ0gyXVtDQEhdKFtDSDNdKUMoPU8pW05IXVtDSDJdYzFbY0hdW2NIXWMobltjSF0xKU4yW0NIMl1bQ0gyXU9bQ0gyXVtDSDJdMg==

> <s_epik_cmdline>
J2VwaWtfcHl0aG9uJywgJy1waCcsICc3LjAnLCAnLXRuJywgJzgnLCAnLW1hJywgJzIwMCcsICctbWV0YWxfYmluZGluZycsICctaW1hZScsICc8aW5maWxlLm1hZT4nLCAnLW9tYWUnLCAnPG91dGZpbGUubWFlPic=

> <r_lp_tautomer_probability>
1

> <r_epik_Ionization_Penalty>
0.00513882

> <r_epik_Ionization_Penalty_Charging>
0

> <r_epik_Ionization_Penalty_Neutral>
0.00513882

> <r_epik_State_Penalty>
0.00374265

> <r_epik_Charging_Adjusted_Penalty>
0.00374265

> <i_epik_Tot_Q>
0

> <i_epik_Tot_abs_Q>
0

> <r_epik_Metal_State_Penalty>
-0

> <b_epik_Metal_Only>
0

> <s_lp_Force_Field>
OPLS_2005

> <r_lp_Energy>
15.574

> <b_lp_Chiralities_Consistent>
1

> <s_lp_Variant>
AV-unprocessed.smi:431-1

> <Gold.Version>
5.8.1

> <Gold.Id.Protein>
6NUR|6NUR_protein|mol2

> <Gold.PLP.Fitness>
38.3001

> <Gold.PLP.PLP>
-36.6796

> <Gold.PLP.part.hbond>
-1.0945

> <Gold.PLP.part.metal>
0.0000

> <Gold.PLP.part.buried>
-4.3211

> <Gold.PLP.part.nonpolar>
-30.6371

> <Gold.PLP.part.repulsive>
0.1043

> <Gold.PLP.ligand.clash>
0.0000

> <Gold.PLP.ligand.torsion>
0.8886

> <Gold.PLP.Chemscore.Hbond>
1.0000

> <Gold.PLP.Chemscore.CHOScore>
0.0000

> <Gold.PLP.Chemscore.Metal>
0.0000

> <Gold.Chemscore.Hbonds>
donor molecule, donor type, donor heavy atom, donor atom, acceptor molecule, acceptor atom, score
      P1  H  6896  6909       L1    19  0.89

> <Gold.PLP.Chemscore.Internal.Correction>
0.3977

> <Gold.Rescore>
     Score         DG    S(hbond)    S(metal)    S(lipo)     H(rot)  DE(clash)    DE(int)     intcor
     14.06     -14.80       0.84        0.00      91.60       1.64       0.02       0.72       ----

> <Gold.Chemscore.Fitness>
14.0561

> <Gold.Chemscore.DG>
-14.7985

> <Gold.Chemscore.ZeroCoef>
-5.4800

> <Gold.Chemscore.Hbond>
0.8389

> <Gold.Chemscore.Metal>
0.0000

> <Gold.Chemscore.Lipo>
91.5966

> <Gold.Chemscore.Internal_Hbond>
0.0000

> <Gold.Chemscore.DEClash>
0.0237

> <Gold.Chemscore.DEInternal>
0.7187

> <Gold.Chemscore.Rot>
1.6407

> <Gold.Chemscore.Internal.Correction>
   9.000000E+99

> <Gold.Chemscore.Hbonds>
donor molecule, donor type, donor heavy atom, donor atom, acceptor molecule, acceptor atom, score
      P1  H  6896  6909       L1    19  0.57

> <Gold.Chemscore.Hbond.Weighted>
-2.8018

> <Gold.Chemscore.Metal.Weighted>
-0.0000

> <Gold.Chemscore.Lipo.Weighted>
-10.7168

> <Gold.Chemscore.Internal_Hbond.Weighted>
0.0000

> <Gold.Chemscore.DEClash.Weighted>
0.0237

> <Gold.Chemscore.DEInternal.Weighted>
0.7187

> <Gold.Chemscore.Rot.Weighted>
4.2001

> <Gold.Chemscore.Internal.Correction.Weighted>
   9.000000E+99

> <Gold.Protein.RotatedTorsions>
[ 6907 6896 6895 6894 ] final   76.56 input  -60.11 | X-H torsion
[ 7974 7965 7964 7962 ] final -177.11 input  175.53 | X-H torsion
[ 8008 7997 7996 7995 ] final   73.13 input   59.86 | X-H torsion
[ 10167 10162 10161 10158 ] final  117.35 input  -65.29 | X-H torsion
[ 10718 10713 10712 10709 ] final  102.58 input   66.30 | X-H torsion
[ 10763 10752 10751 10750 ] final   -1.40 input  -60.55 | X-H torsion
[ 11005 11000 10999 10996 ] final   57.25 input  -57.11 | X-H torsion

> <Gold.Protein.ActiveResidues>
 VAL166  LYS551  ARG553  GLY616  TRP617  ASP618  TYR619  PRO620  LYS621  CYS622 
 ASP623  PHE694  ASN695  SER759  ASP760  ASP761  ALA762  ILE779  LEU786  VAL792 
 PHE793  MET794  SER795  GLU796  ALA797  LYS798  CYS799  TRP800  GLU811  SER814 

> <Gold.Protein.RotatedAtoms>
  152.5078  134.3950  159.9396 H   0  0  0  0  0  0  0  0  0  0  0  0  # atno 6907 bound_to 6896
  151.3912  133.3782  159.2729 H   0  0  0  0  0  0  0  0  0  0  0  0  # atno 6908 bound_to 6896
  150.9431  134.8859  159.7684 H   0  0  0  0  0  0  0  0  0  0  0  0  # atno 6909 bound_to 6896
  144.7127  140.1069  143.6413 H   0  0  0  0  0  0  0  0  0  0  0  0  # atno 7974 bound_to 7965
  155.7791  140.3482  155.5288 H   0  0  0  0  0  0  0  0  0  0  0  0  # atno 8008 bound_to 7997
  155.8746  140.0992  157.1547 H   0  0  0  0  0  0  0  0  0  0  0  0  # atno 8009 bound_to 7997
  154.4020  140.1334  156.4108 H   0  0  0  0  0  0  0  0  0  0  0  0  # atno 8010 bound_to 7997
  139.6185  144.7096  151.2687 H   0  0  0  0  0  0  0  0  0  0  0  0  # atno 10167 bound_to 10162
  157.6798  131.0756  150.5425 H   0  0  0  0  0  0  0  0  0  0  0  0  # atno 10718 bound_to 10713
  153.3444  135.6982  153.6840 H   0  0  0  0  0  0  0  0  0  0  0  0  # atno 10763 bound_to 10752
  153.5592  135.3538  155.2793 H   0  0  0  0  0  0  0  0  0  0  0  0  # atno 10764 bound_to 10752
  154.8642  135.4245  154.2664 H   0  0  0  0  0  0  0  0  0  0  0  0  # atno 10765 bound_to 10752
  140.0467  134.5796  155.9314 H   0  0  0  0  0  0  0  0  0  0  0  0  # atno 11005 bound_to 11000
  145.9489  139.2720  143.1224 LP  0  0  0  0  0  0  0  0  0  0  0  0  # atno 17320 bound_to 7965
  145.9344  140.9025  143.0340 LP  0  0  0  0  0  0  0  0  0  0  0  0  # atno 17321 bound_to 7965
  140.7366  143.6701  150.8089 LP  0  0  0  0  0  0  0  0  0  0  0  0  # atno 17342 bound_to 10162
  140.0308  143.5445  152.2761 LP  0  0  0  0  0  0  0  0  0  0  0  0  # atno 17343 bound_to 10162
  156.5732  130.4285  149.6010 LP  0  0  0  0  0  0  0  0  0  0  0  0  # atno 17370 bound_to 10713
  156.2723  130.7024  151.1825 LP  0  0  0  0  0  0  0  0  0  0  0  0  # atno 17371 bound_to 10713
  141.1910  133.6570  156.5438 LP  0  0  0  0  0  0  0  0  0  0  0  0  # atno 17394 bound_to 11000
  140.3982  134.7380  157.4764 LP  0  0  0  0  0  0  0  0  0  0  0  0  # atno 17395 bound_to 11000

$$$$
