AV-unprocessed.smi:727|AV-procd|sdf|3516|dock4
  -GOLD-   22720 0513D 1   1.00000     0.00000
 Structure written by MMmdl.
 38 39  0  0  0  0  0  0  0  0  1 V2000
  151.0079  140.4059  155.6281 C   0  0  0  0  0  0  0  0  0  0  0  0
  149.7312  140.3803  154.9092 N   0  0  0  0  0  0  0  0  0  0  0  0
  149.0573  141.6011  154.7375 C   0  0  0  0  0  0  0  0  0  0  0  0
  147.8829  141.6713  154.0960 C   0  0  0  0  0  0  0  0  0  0  0  0
  147.3114  140.4533  153.5734 C   0  0  0  0  0  0  0  0  0  0  0  0
  147.9478  139.2637  153.7228 C   0  0  0  0  0  0  0  0  0  0  0  0
  147.4671  138.0278  153.2533 N   0  0  0  0  0  0  0  0  0  0  0  0
  146.2225  137.5160  153.2884 C   0  0  0  0  0  0  0  0  0  0  0  0
  145.2255  138.0693  153.7511 O   0  0  0  0  0  0  0  0  0  0  0  0
  146.1960  136.2956  152.7331 N   0  0  0  0  0  0  0  0  0  0  0  0
  145.0131  135.4513  152.5869 C   0  0  0  0  0  0  0  0  0  0  0  0
  145.2839  134.2068  151.7162 C   0  0  2  0  0  0  0  0  0  0  0  0
  144.0063  133.7901  150.9535 C   0  0  0  0  0  0  0  0  0  0  0  0
  144.1400  132.4386  150.2755 C   0  0  0  0  0  0  0  0  0  0  0  0
  145.1117  131.5583  150.5663 C   0  0  0  0  0  0  0  0  0  0  0  0
  146.1830  131.8144  151.6092 C   0  0  0  0  0  0  0  0  0  0  0  0
  145.8445  133.0115  152.5174 C   0  0  0  0  0  0  0  0  0  0  0  0
  149.2379  139.1966  154.4377 C   0  0  0  0  0  0  0  0  0  0  0  0
  149.8498  138.1389  154.6077 O   0  0  0  0  0  0  0  0  0  0  0  0
  151.3014  141.4118  155.9305 H   0  0  0  0  0  0  0  0  0  0  0  0
  151.8093  140.0098  155.0026 H   0  0  0  0  0  0  0  0  0  0  0  0
  150.9499  139.7984  156.5325 H   0  0  0  0  0  0  0  0  0  0  0  0
  149.5487  142.4672  155.1565 H   0  0  0  0  0  0  0  0  0  0  0  0
  147.3753  142.6168  153.9727 H   0  0  0  0  0  0  0  0  0  0  0  0
  146.3604  140.5369  153.0744 H   0  0  0  0  0  0  0  0  0  0  0  0
  148.1673  137.4564  152.8032 H   0  0  0  0  0  0  0  0  0  0  0  0
  147.0631  135.9204  152.3775 H   0  0  0  0  0  0  0  0  0  0  0  0
  144.6158  135.1535  153.5588 H   0  0  0  0  0  0  0  0  0  0  0  0
  144.2388  136.0607  152.1196 H   0  0  0  0  0  0  0  0  0  0  0  0
  146.0340  134.4810  150.9723 H   0  0  0  0  0  0  0  0  0  0  0  0
  143.1546  133.7377  151.6328 H   0  0  0  0  0  0  0  0  0  0  0  0
  143.7644  134.5400  150.1998 H   0  0  0  0  0  0  0  0  0  0  0  0
  143.3960  132.1907  149.5327 H   0  0  0  0  0  0  0  0  0  0  0  0
  145.1603  130.6176  150.0378 H   0  0  0  0  0  0  0  0  0  0  0  0
  146.3180  130.9175  152.2142 H   0  0  0  0  0  0  0  0  0  0  0  0
  147.1246  131.9906  151.0883 H   0  0  0  0  0  0  0  0  0  0  0  0
  146.7401  133.2940  153.0704 H   0  0  0  0  0  0  0  0  0  0  0  0
  145.1093  132.7054  153.2629 H   0  0  0  0  0  0  0  0  0  0  0  0
  1  2  1  0  0  0  0
  1 20  1  0  0  0  0
  1 21  1  0  0  0  0
  1 22  1  0  0  0  0
  2 18  1  0  0  0  0
  2  3  1  0  0  0  0
  3  4  2  0  0  0  0
  3 23  1  0  0  0  0
  4  5  1  0  0  0  0
  4 24  1  0  0  0  0
  5  6  2  0  0  0  0
  5 25  1  0  0  0  0
  6  7  1  0  0  0  0
  6 18  1  0  0  0  0
  7  8  1  0  0  0  0
  7 26  1  0  0  0  0
  8  9  2  0  0  0  0
  8 10  1  0  0  0  0
 10 11  1  0  0  0  0
 10 27  1  0  0  0  0
 11 12  1  0  0  0  0
 11 28  1  0  0  0  0
 11 29  1  0  0  0  0
 12 17  1  0  0  0  0
 12 13  1  0  0  0  0
 12 30  1  0  0  0  0
 13 14  1  0  0  0  0
 13 31  1  0  0  0  0
 13 32  1  0  0  0  0
 14 15  2  0  0  0  0
 14 33  1  0  0  0  0
 15 16  1  0  0  0  0
 15 34  1  0  0  0  0
 16 17  1  0  0  0  0
 16 35  1  0  0  0  0
 16 36  1  0  0  0  0
 17 37  1  0  0  0  0
 17 38  1  0  0  0  0
 18 19  2  0  0  0  0
M  END
> <s_m_source_file>
AV-unprocessed.smi

> <i_m_source_file_index>
727

> <i_lp_mmshare_version>
43012

> <i_f3d_flags>
0

> <s_epik_input>
W0NIM11uMVtjSF1bY0hdW2NIXWMoYzE9TylbTkhdQyg9TylbTkhdW0NIMl1bQ0BASF0yW0NIMl1bQ0hdPVtDSF1bQ0gyXVtDSDJdMg==

> <s_epik_cmdline>
J2VwaWtfcHl0aG9uJywgJy1waCcsICc3LjAnLCAnLXRuJywgJzgnLCAnLW1hJywgJzIwMCcsICctbWV0YWxfYmluZGluZycsICctaW1hZScsICc8aW5maWxlLm1hZT4nLCAnLW9tYWUnLCAnPG91dGZpbGUubWFlPic=

> <r_lp_tautomer_probability>
1

> <r_epik_Ionization_Penalty>
2.60682e-05

> <r_epik_Ionization_Penalty_Charging>
4.8094e-06

> <r_epik_Ionization_Penalty_Neutral>
2.12588e-05

> <r_epik_State_Penalty>
-0

> <r_epik_Charging_Adjusted_Penalty>
4.8094e-06

> <i_epik_Tot_Q>
0

> <i_epik_Tot_abs_Q>
0

> <r_epik_Metal_State_Penalty>
-0

> <b_epik_Metal_Only>
0

> <s_lp_Force_Field>
OPLS_2005

> <r_lp_Energy>
21.4957

> <b_lp_Chiralities_Consistent>
1

> <s_lp_Variant>
AV-unprocessed.smi:727-1

> <Gold.Version>
5.8.1

> <Gold.Id.Protein>
6NUR|6NUR_protein|mol2

> <Gold.PLP.Fitness>
42.5661

> <Gold.PLP.PLP>
-35.1042

> <Gold.PLP.part.hbond>
-2.0000

> <Gold.PLP.part.metal>
0.0000

> <Gold.PLP.part.buried>
-2.5261

> <Gold.PLP.part.nonpolar>
-30.6541

> <Gold.PLP.part.repulsive>
0.5986

> <Gold.PLP.ligand.clash>
0.0000

> <Gold.PLP.ligand.torsion>
0.7357

> <Gold.PLP.Chemscore.Hbond>
1.9760

> <Gold.PLP.Chemscore.CHOScore>
1.0000

> <Gold.PLP.Chemscore.Metal>
0.0000

> <Gold.Chemscore.Hbonds>
donor molecule, donor type, donor heavy atom, donor atom, acceptor molecule, acceptor atom, score
      L1  H     7    26       P1  7948  1.00
      L1  H    10    27       P1  7948  0.99
      L1  C     3    23       P1  8028  1.00

> <Gold.PLP.Chemscore.Internal.Correction>
0.0052

> <Gold.Rescore>
     Score         DG    S(hbond)    S(metal)    S(lipo)     H(rot)  DE(clash)    DE(int)     intcor
     17.73     -18.62       1.91        0.00      84.18       1.21       0.03       0.87       ----

> <Gold.Chemscore.Fitness>
17.7259

> <Gold.Chemscore.DG>
-18.6210

> <Gold.Chemscore.ZeroCoef>
-5.4800

> <Gold.Chemscore.Hbond>
1.9133

> <Gold.Chemscore.Metal>
0.0000

> <Gold.Chemscore.Lipo>
84.1793

> <Gold.Chemscore.Internal_Hbond>
0.0000

> <Gold.Chemscore.DEClash>
0.0273

> <Gold.Chemscore.DEInternal>
0.8678

> <Gold.Chemscore.Rot>
1.2103

> <Gold.Chemscore.Internal.Correction>
   9.000000E+99

> <Gold.Chemscore.Hbonds>
donor molecule, donor type, donor heavy atom, donor atom, acceptor molecule, acceptor atom, score
      L1  H     7    26       P1  7948  1.00
      L1  H    10    27       P1  7948  0.92

> <Gold.Chemscore.Hbond.Weighted>
-6.3905

> <Gold.Chemscore.Metal.Weighted>
-0.0000

> <Gold.Chemscore.Lipo.Weighted>
-9.8490

> <Gold.Chemscore.Internal_Hbond.Weighted>
0.0000

> <Gold.Chemscore.DEClash.Weighted>
0.0273

> <Gold.Chemscore.DEInternal.Weighted>
0.8678

> <Gold.Chemscore.Rot.Weighted>
3.0984

> <Gold.Chemscore.Internal.Correction.Weighted>
   9.000000E+99

> <Gold.Protein.RotatedTorsions>
[ 6907 6896 6895 6894 ] final  -30.22 input  -60.11 | X-H torsion
[ 7974 7965 7964 7962 ] final -174.52 input  175.53 | X-H torsion
[ 8008 7997 7996 7995 ] final -101.90 input   59.86 | X-H torsion
[ 10167 10162 10161 10158 ] final  -58.61 input  -65.29 | X-H torsion
[ 10718 10713 10712 10709 ] final -100.72 input   66.30 | X-H torsion
[ 10763 10752 10751 10750 ] final -114.93 input  -60.55 | X-H torsion
[ 11005 11000 10999 10996 ] final  -11.47 input  -57.11 | X-H torsion

> <Gold.Protein.ActiveResidues>
 VAL166  LYS551  ARG553  GLY616  TRP617  ASP618  TYR619  PRO620  LYS621  CYS622 
 ASP623  PHE694  ASN695  SER759  ASP760  ASP761  ALA762  ILE779  LEU786  VAL792 
 PHE793  MET794  SER795  GLU796  ALA797  LYS798  CYS799  TRP800  GLU811  SER814 

> <Gold.Protein.RotatedAtoms>
  151.1086  135.0013  159.8482 H   0  0  0  0  0  0  0  0  0  0  0  0  # atno 6907 bound_to 6896
  152.5442  134.1863  159.8666 H   0  0  0  0  0  0  0  0  0  0  0  0  # atno 6908 bound_to 6896
  151.1912  133.4622  159.2628 H   0  0  0  0  0  0  0  0  0  0  0  0  # atno 6909 bound_to 6896
  144.7131  140.1460  143.6388 H   0  0  0  0  0  0  0  0  0  0  0  0  # atno 7974 bound_to 7965
  154.8491  140.0431  157.1592 H   0  0  0  0  0  0  0  0  0  0  0  0  # atno 8008 bound_to 7997
  154.8963  140.2993  155.5322 H   0  0  0  0  0  0  0  0  0  0  0  0  # atno 8009 bound_to 7997
  156.2995  140.2384  156.3985 H   0  0  0  0  0  0  0  0  0  0  0  0  # atno 8010 bound_to 7997
  140.6186  143.2411  151.5536 H   0  0  0  0  0  0  0  0  0  0  0  0  # atno 10167 bound_to 10162
  156.0172  130.5340  150.6858 H   0  0  0  0  0  0  0  0  0  0  0  0  # atno 10718 bound_to 10713
  154.8460  135.4400  154.1583 H   0  0  0  0  0  0  0  0  0  0  0  0  # atno 10763 bound_to 10752
  153.2726  135.6946  153.7471 H   0  0  0  0  0  0  0  0  0  0  0  0  # atno 10764 bound_to 10752
  153.6705  135.3419  155.3127 H   0  0  0  0  0  0  0  0  0  0  0  0  # atno 10765 bound_to 10752
  140.7556  133.8557  155.9081 H   0  0  0  0  0  0  0  0  0  0  0  0  # atno 11005 bound_to 11000
  145.9159  139.2516  143.1410 LP  0  0  0  0  0  0  0  0  0  0  0  0  # atno 17320 bound_to 7965
  145.9669  140.8791  143.0182 LP  0  0  0  0  0  0  0  0  0  0  0  0  # atno 17321 bound_to 7965
  139.5419  144.2623  152.1368 LP  0  0  0  0  0  0  0  0  0  0  0  0  # atno 17342 bound_to 10162
  140.1838  144.4818  150.6514 LP  0  0  0  0  0  0  0  0  0  0  0  0  # atno 17343 bound_to 10162
  157.4550  131.0877  151.0806 LP  0  0  0  0  0  0  0  0  0  0  0  0  # atno 17370 bound_to 10713
  157.1310  130.6102  149.5529 LP  0  0  0  0  0  0  0  0  0  0  0  0  # atno 17371 bound_to 10713
  140.9711  134.1530  157.4576 LP  0  0  0  0  0  0  0  0  0  0  0  0  # atno 17394 bound_to 11000
  139.8780  134.9979  156.5869 LP  0  0  0  0  0  0  0  0  0  0  0  0  # atno 17395 bound_to 11000

$$$$
