AV-unprocessed.smi:2306|AV-procd|sdf|9248|dock9
  -GOLD-   2272012463D 1   1.00000     0.00000
 Structure written by MMmdl.
 41 42  0  0  0  0  0  0  0  0  1 V2000
  152.3249  143.9004  161.4751 C   0  0  0  0  0  0  0  0  0  0  0  0
  152.1667  143.0873  160.2026 C   0  0  0  0  0  0  0  0  0  0  0  0
  151.2922  143.6197  159.2505 N   0  0  0  0  0  0  0  0  0  0  0  0
  151.0854  142.9892  158.1409 C   0  0  0  0  0  0  0  0  0  0  0  0
  151.7199  141.7693  157.8573 N   0  0  0  0  0  0  0  0  0  0  0  0
  151.3978  141.1532  156.5605 C   0  0  0  0  0  0  0  0  0  0  0  0
  149.8834  140.8785  156.4107 C   0  0  2  0  0  0  0  0  0  0  0  0
  149.5003  139.8991  157.3549 O   0  0  0  0  0  0  0  0  0  0  0  0
  149.5255  140.3375  155.0184 C   0  0  0  0  0  0  0  0  0  0  0  0
  148.1486  140.5806  154.7849 O   0  0  0  0  0  0  0  0  0  0  0  0
  147.9123  141.6711  153.9102 C   0  0  0  0  0  0  0  0  0  0  0  0
  146.7007  142.4863  154.3243 C   0  0  0  0  0  0  0  0  0  0  0  0
  146.1127  143.4092  153.4316 C   0  0  0  0  0  0  0  0  0  0  0  0
  144.9979  144.1710  153.8326 C   0  0  0  0  0  0  0  0  0  0  0  0
  144.4694  144.0194  155.1290 C   0  0  0  0  0  0  0  0  0  0  0  0
  145.0582  143.1072  156.0257 C   0  0  0  0  0  0  0  0  0  0  0  0
  146.1729  142.3445  155.6251 C   0  0  0  0  0  0  0  0  0  0  0  0
  152.6034  141.1899  158.7212 C   0  0  0  0  0  0  0  0  0  0  0  0
  153.1752  140.1320  158.4497 O   0  0  0  0  0  0  0  0  0  0  0  0
  152.8220  141.9146  159.9835 C   0  0  0  0  0  0  0  0  0  0  0  0
  153.7822  141.2850  160.9850 C   0  0  0  0  0  0  0  0  0  0  0  0
  153.3610  144.2156  161.6004 H   0  0  0  0  0  0  0  0  0  0  0  0
  152.0313  143.3110  162.3440 H   0  0  0  0  0  0  0  0  0  0  0  0
  151.7035  144.7968  161.4544 H   0  0  0  0  0  0  0  0  0  0  0  0
  150.4160  143.3627  157.3641 H   0  0  0  0  0  0  0  0  0  0  0  0
  151.7302  141.8318  155.7727 H   0  0  0  0  0  0  0  0  0  0  0  0
  151.9775  140.2454  156.3784 H   0  0  0  0  0  0  0  0  0  0  0  0
  149.2972  141.7801  156.5945 H   0  0  0  0  0  0  0  0  0  0  0  0
  150.0962  139.1685  157.2895 H   0  0  0  0  0  0  0  0  0  0  0  0
  150.1368  140.8132  154.2497 H   0  0  0  0  0  0  0  0  0  0  0  0
  149.7134  139.2633  154.9722 H   0  0  0  0  0  0  0  0  0  0  0  0
  148.7895  142.3201  153.8912 H   0  0  0  0  0  0  0  0  0  0  0  0
  147.7524  141.3065  152.8945 H   0  0  0  0  0  0  0  0  0  0  0  0
  146.5114  143.5388  152.4359 H   0  0  0  0  0  0  0  0  0  0  0  0
  144.5494  144.8733  153.1453 H   0  0  0  0  0  0  0  0  0  0  0  0
  143.6151  144.6045  155.4361 H   0  0  0  0  0  0  0  0  0  0  0  0
  144.6556  142.9932  157.0214 H   0  0  0  0  0  0  0  0  0  0  0  0
  146.6212  141.6494  156.3198 H   0  0  0  0  0  0  0  0  0  0  0  0
  153.4043  140.3139  161.3061 H   0  0  0  0  0  0  0  0  0  0  0  0
  153.9311  141.8909  161.8772 H   0  0  0  0  0  0  0  0  0  0  0  0
  154.7599  141.1331  160.5265 H   0  0  0  0  0  0  0  0  0  0  0  0
  1  2  1  0  0  0  0
  1 22  1  0  0  0  0
  1 23  1  0  0  0  0
  1 24  1  0  0  0  0
  2 20  2  0  0  0  0
  2  3  1  0  0  0  0
  3  4  2  0  0  0  0
  4  5  1  0  0  0  0
  4 25  1  0  0  0  0
  5  6  1  0  0  0  0
  5 18  1  0  0  0  0
  6  7  1  0  0  0  0
  6 26  1  0  0  0  0
  6 27  1  0  0  0  0
  7  8  1  0  0  0  0
  7  9  1  0  0  0  0
  7 28  1  0  0  0  0
  8 29  1  0  0  0  0
  9 10  1  0  0  0  0
  9 30  1  0  0  0  0
  9 31  1  0  0  0  0
 10 11  1  0  0  0  0
 11 12  1  0  0  0  0
 11 32  1  0  0  0  0
 11 33  1  0  0  0  0
 12 17  1  0  0  0  0
 12 13  2  0  0  0  0
 13 14  1  0  0  0  0
 13 34  1  0  0  0  0
 14 15  2  0  0  0  0
 14 35  1  0  0  0  0
 15 16  1  0  0  0  0
 15 36  1  0  0  0  0
 16 17  2  0  0  0  0
 16 37  1  0  0  0  0
 17 38  1  0  0  0  0
 18 19  2  0  0  0  0
 18 20  1  0  0  0  0
 20 21  1  0  0  0  0
 21 39  1  0  0  0  0
 21 40  1  0  0  0  0
 21 41  1  0  0  0  0
M  END
> <s_m_source_file>
AV-unprocessed.smi

> <i_m_source_file_index>
2306

> <i_lp_mmshare_version>
43012

> <i_f3d_flags>
0

> <s_epik_input>
W0NIM11jMW5bY0hdbihjKD1PKWMxW0NIM10pW0NIMl1bQ0BIXShbT0hdKVtDSDJdT1tDSDJdYzJbY0hdW2NIXVtjSF1bY0hdW2NIXTI=

> <s_epik_cmdline>
J2VwaWtfcHl0aG9uJywgJy1waCcsICc3LjAnLCAnLXRuJywgJzgnLCAnLW1hJywgJzIwMCcsICctbWV0YWxfYmluZGluZycsICctaW1hZScsICc8aW5maWxlLm1hZT4nLCAnLW9tYWUnLCAnPG91dGZpbGUubWFlPic=

> <r_lp_tautomer_probability>
1

> <r_epik_Ionization_Penalty>
5.35985e-05

> <r_epik_Ionization_Penalty_Charging>
1.17753e-07

> <r_epik_Ionization_Penalty_Neutral>
5.34808e-05

> <r_epik_State_Penalty>
-0

> <r_epik_Charging_Adjusted_Penalty>
1.17753e-07

> <i_epik_Tot_Q>
0

> <i_epik_Tot_abs_Q>
0

> <r_epik_Metal_State_Penalty>
-0

> <b_epik_Metal_Only>
0

> <s_lp_Force_Field>
OPLS_2005

> <r_lp_Energy>
22.2439

> <b_lp_Chiralities_Consistent>
1

> <s_lp_Variant>
AV-unprocessed.smi:2306-1

> <Gold.Version>
5.8.1

> <Gold.Id.Protein>
6NUR|6NUR_protein|mol2

> <Gold.PLP.Fitness>
49.8456

> <Gold.PLP.PLP>
-45.8152

> <Gold.PLP.part.hbond>
-1.0000

> <Gold.PLP.part.metal>
0.0000

> <Gold.PLP.part.buried>
-6.4517

> <Gold.PLP.part.nonpolar>
-37.5293

> <Gold.PLP.part.repulsive>
0.1531

> <Gold.PLP.ligand.clash>
0.0000

> <Gold.PLP.ligand.torsion>
1.0030

> <Gold.PLP.Chemscore.Hbond>
0.9760

> <Gold.PLP.Chemscore.CHOScore>
0.9999

> <Gold.PLP.Chemscore.Metal>
0.0000

> <Gold.Chemscore.Hbonds>
donor molecule, donor type, donor heavy atom, donor atom, acceptor molecule, acceptor atom, score
      P1  H  7997  8009       L1    19  0.98
      L1  C     4    25       P1  8028  0.70

> <Gold.PLP.Chemscore.Internal.Correction>
0.1089

> <Gold.Rescore>
     Score         DG    S(hbond)    S(metal)    S(lipo)     H(rot)  DE(clash)    DE(int)     intcor
     13.23     -14.30       0.95        0.00     103.39       2.52       0.08       0.99       ----

> <Gold.Chemscore.Fitness>
13.2307

> <Gold.Chemscore.DG>
-14.2998

> <Gold.Chemscore.ZeroCoef>
-5.4800

> <Gold.Chemscore.Hbond>
0.9474

> <Gold.Chemscore.Metal>
0.0000

> <Gold.Chemscore.Lipo>
103.3927

> <Gold.Chemscore.Internal_Hbond>
0.0000

> <Gold.Chemscore.DEClash>
0.0790

> <Gold.Chemscore.DEInternal>
0.9902

> <Gold.Chemscore.Rot>
2.5162

> <Gold.Chemscore.Internal.Correction>
   9.000000E+99

> <Gold.Chemscore.Hbonds>
donor molecule, donor type, donor heavy atom, donor atom, acceptor molecule, acceptor atom, score
      P1  H  7997  8009       L1    19  0.87

> <Gold.Chemscore.Hbond.Weighted>
-3.1643

> <Gold.Chemscore.Metal.Weighted>
-0.0000

> <Gold.Chemscore.Lipo.Weighted>
-12.0970

> <Gold.Chemscore.Internal_Hbond.Weighted>
0.0000

> <Gold.Chemscore.DEClash.Weighted>
0.0790

> <Gold.Chemscore.DEInternal.Weighted>
0.9902

> <Gold.Chemscore.Rot.Weighted>
6.4414

> <Gold.Chemscore.Internal.Correction.Weighted>
   9.000000E+99

> <Gold.Protein.RotatedTorsions>
[ 6907 6896 6895 6894 ] final -142.88 input  -60.11 | X-H torsion
[ 7974 7965 7964 7962 ] final    9.89 input  175.53 | X-H torsion
[ 8008 7997 7996 7995 ] final  159.12 input   59.86 | X-H torsion
[ 10167 10162 10161 10158 ] final   79.41 input  -65.29 | X-H torsion
[ 10718 10713 10712 10709 ] final  -94.47 input   66.30 | X-H torsion
[ 10763 10752 10751 10750 ] final   79.40 input  -60.55 | X-H torsion
[ 11005 11000 10999 10996 ] final   61.39 input  -57.11 | X-H torsion

> <Gold.Protein.ActiveResidues>
 VAL166  LYS551  ARG553  GLY616  TRP617  ASP618  TYR619  PRO620  LYS621  CYS622 
 ASP623  PHE694  ASN695  SER759  ASP760  ASP761  ALA762  ILE779  LEU786  VAL792 
 PHE793  MET794  SER795  GLU796  ALA797  LYS798  CYS799  TRP800  GLU811  SER814 

> <Gold.Protein.RotatedAtoms>
  151.0929  133.5302  159.2613 H   0  0  0  0  0  0  0  0  0  0  0  0  # atno 6907 bound_to 6896
  151.2162  135.0500  159.8941 H   0  0  0  0  0  0  0  0  0  0  0  0  # atno 6908 bound_to 6896
  152.5436  134.0738  159.8259 H   0  0  0  0  0  0  0  0  0  0  0  0  # atno 6909 bound_to 6896
  146.2397  139.9716  142.8446 H   0  0  0  0  0  0  0  0  0  0  0  0  # atno 7974 bound_to 7965
  156.2259  140.1840  156.7364 H   0  0  0  0  0  0  0  0  0  0  0  0  # atno 8008 bound_to 7997
  154.5940  140.0646  156.9306 H   0  0  0  0  0  0  0  0  0  0  0  0  # atno 8009 bound_to 7997
  155.2287  140.3313  155.4308 H   0  0  0  0  0  0  0  0  0  0  0  0  # atno 8010 bound_to 7997
  139.9606  144.5964  150.8076 H   0  0  0  0  0  0  0  0  0  0  0  0  # atno 10167 bound_to 10162
  156.0027  130.5069  150.5931 H   0  0  0  0  0  0  0  0  0  0  0  0  # atno 10718 bound_to 10713
  153.0949  135.4841  154.8760 H   0  0  0  0  0  0  0  0  0  0  0  0  # atno 10763 bound_to 10752
  154.7313  135.3061  154.8889 H   0  0  0  0  0  0  0  0  0  0  0  0  # atno 10764 bound_to 10752
  153.9523  135.6822  153.4797 H   0  0  0  0  0  0  0  0  0  0  0  0  # atno 10765 bound_to 10752
  140.0165  134.6218  155.9703 H   0  0  0  0  0  0  0  0  0  0  0  0  # atno 11005 bound_to 11000
  145.1676  140.9704  143.4340 LP  0  0  0  0  0  0  0  0  0  0  0  0  # atno 17320 bound_to 7965
  145.0058  139.3555  143.6144 LP  0  0  0  0  0  0  0  0  0  0  0  0  # atno 17321 bound_to 7965
  140.7554  143.3046  151.2994 LP  0  0  0  0  0  0  0  0  0  0  0  0  # atno 17342 bound_to 10162
  139.6557  144.0280  152.2658 LP  0  0  0  0  0  0  0  0  0  0  0  0  # atno 17343 bound_to 10162
  157.3792  131.0778  151.1491 LP  0  0  0  0  0  0  0  0  0  0  0  0  # atno 17370 bound_to 10713
  157.2219  130.6485  149.5814 LP  0  0  0  0  0  0  0  0  0  0  0  0  # atno 17371 bound_to 10713
  141.1746  133.6539  156.4779 LP  0  0  0  0  0  0  0  0  0  0  0  0  # atno 17394 bound_to 11000
  140.4462  134.6970  157.5017 LP  0  0  0  0  0  0  0  0  0  0  0  0  # atno 17395 bound_to 11000

$$$$
