AV-unprocessed.smi:3021|AV-procd|sdf|11499|dock8
  -GOLD-   2272016433D 1   1.00000     0.00000
 Structure written by MMmdl.
 35 37  0  0  0  0  0  0  0  0  1 V2000
  153.3350  138.4896  155.0457 O   0  0  0  0  0  0  0  0  0  0  0  0
  151.9343  138.4341  155.2327 C   0  0  1  0  0  0  0  0  0  0  0  0
  151.6057  137.1847  156.0639 C   0  0  0  0  0  0  0  0  0  0  0  0
  152.1584  136.0480  155.4219 O   0  0  0  0  0  0  0  0  0  0  0  0
  151.9168  134.8436  156.1323 C   0  0  0  0  0  0  0  0  0  0  0  0
  151.3524  133.8446  155.1718 C   0  0  0  0  0  0  0  0  0  0  0  0
  151.6375  132.5294  154.9268 C   0  0  0  0  0  0  0  0  0  0  0  0
  150.7545  132.1098  153.8935 C   0  0  0  0  0  0  0  0  0  0  0  0
  149.9936  133.2004  153.5829 C   0  0  0  0  0  0  0  0  0  0  0  0
  150.3435  134.2657  154.3539 O   0  0  0  0  0  0  0  0  0  0  0  0
  151.4665  139.7277  155.9277 C   0  0  0  0  0  0  0  0  0  0  0  0
  152.1242  139.9416  157.2052 N   0  0  0  0  0  0  0  0  0  0  0  0
  153.1761  139.1518  157.5634 N   0  0  0  0  0  0  0  0  0  0  0  0
  153.5977  139.5261  158.7345 N   0  0  0  0  0  0  0  0  0  0  0  0
  152.8086  140.5831  159.1563 C   0  0  0  0  0  0  0  0  0  0  0  0
  152.8262  141.3607  160.3357 C   0  0  0  0  0  0  0  0  0  0  0  0
  151.8896  142.4018  160.5186 C   0  0  0  0  0  0  0  0  0  0  0  0
  151.9434  143.3311  161.9744 Cl  0  0  0  0  0  0  0  0  0  0  0  0
  150.9227  142.6765  159.5214 C   0  0  0  0  0  0  0  0  0  0  0  0
  149.7700  143.9467  159.7287 Cl  0  0  0  0  0  0  0  0  0  0  0  0
  150.8931  141.9085  158.3403 C   0  0  0  0  0  0  0  0  0  0  0  0
  151.8342  140.8778  158.1783 C   0  0  0  0  0  0  0  0  0  0  0  0
  153.5063  138.7650  154.1579 H   0  0  0  0  0  0  0  0  0  0  0  0
  151.4500  138.3606  154.2580 H   0  0  0  0  0  0  0  0  0  0  0  0
  151.9709  137.2835  157.0878 H   0  0  0  0  0  0  0  0  0  0  0  0
  150.5237  137.0530  156.1177 H   0  0  0  0  0  0  0  0  0  0  0  0
  152.8439  134.4643  156.5642 H   0  0  0  0  0  0  0  0  0  0  0  0
  151.2125  135.0155  156.9474 H   0  0  0  0  0  0  0  0  0  0  0  0
  152.3901  131.9408  155.4304 H   0  0  0  0  0  0  0  0  0  0  0  0
  150.6850  131.1341  153.4359 H   0  0  0  0  0  0  0  0  0  0  0  0
  149.1983  133.3841  152.8759 H   0  0  0  0  0  0  0  0  0  0  0  0
  151.6794  140.5905  155.2954 H   0  0  0  0  0  0  0  0  0  0  0  0
  150.3855  139.7124  156.0778 H   0  0  0  0  0  0  0  0  0  0  0  0
  153.5615  141.1564  161.1001 H   0  0  0  0  0  0  0  0  0  0  0  0
  150.1616  142.1080  157.5712 H   0  0  0  0  0  0  0  0  0  0  0  0
  1  2  1  0  0  0  0
  1 23  1  0  0  0  0
  2  3  1  0  0  0  0
  2 11  1  0  0  0  0
  2 24  1  0  0  0  0
  3  4  1  0  0  0  0
  3 25  1  0  0  0  0
  3 26  1  0  0  0  0
  4  5  1  0  0  0  0
  5  6  1  0  0  0  0
  5 27  1  0  0  0  0
  5 28  1  0  0  0  0
  6 10  1  0  0  0  0
  6  7  2  0  0  0  0
  7  8  1  0  0  0  0
  7 29  1  0  0  0  0
  8  9  2  0  0  0  0
  8 30  1  0  0  0  0
  9 10  1  0  0  0  0
  9 31  1  0  0  0  0
 11 12  1  0  0  0  0
 11 32  1  0  0  0  0
 11 33  1  0  0  0  0
 12 22  1  0  0  0  0
 12 13  1  0  0  0  0
 13 14  2  0  0  0  0
 14 15  1  0  0  0  0
 15 22  2  0  0  0  0
 15 16  1  0  0  0  0
 16 17  2  0  0  0  0
 16 34  1  0  0  0  0
 17 18  1  0  0  0  0
 17 19  1  0  0  0  0
 19 20  1  0  0  0  0
 19 21  2  0  0  0  0
 21 22  1  0  0  0  0
 21 35  1  0  0  0  0
M  END
> <s_m_source_file>
AV-unprocessed.smi

> <i_m_source_file_index>
3021

> <i_lp_mmshare_version>
43012

> <i_f3d_flags>
0

> <s_epik_input>
W2NIXTFjKENsKWMoQ2wpW2NIXWMoYzEyKW4obm4yKVtDSDJdW0NASF0oW09IXSlbQ0gyXU9bQ0gyXWMzW2NIXVtjSF1bY0hdbzM=

> <s_epik_cmdline>
J2VwaWtfcHl0aG9uJywgJy1waCcsICc3LjAnLCAnLXRuJywgJzgnLCAnLW1hJywgJzIwMCcsICctbWV0YWxfYmluZGluZycsICctaW1hZScsICc8aW5maWxlLm1hZT4nLCAnLW9tYWUnLCAnPG91dGZpbGUubWFlPic=

> <r_lp_tautomer_probability>
1

> <r_epik_Ionization_Penalty>
6.1367e-06

> <r_epik_Ionization_Penalty_Charging>
0

> <r_epik_Ionization_Penalty_Neutral>
6.1367e-06

> <r_epik_State_Penalty>
-0

> <r_epik_Charging_Adjusted_Penalty>
0

> <i_epik_Tot_Q>
0

> <i_epik_Tot_abs_Q>
0

> <r_epik_Metal_State_Penalty>
-0

> <b_epik_Metal_Only>
0

> <s_lp_Force_Field>
OPLS_2005

> <r_lp_Energy>
8.01921

> <b_lp_Chiralities_Consistent>
1

> <s_lp_Variant>
AV-unprocessed.smi:3021-2

> <Gold.Version>
5.8.1

> <Gold.Id.Protein>
6NUR|6NUR_protein|mol2

> <Gold.PLP.Fitness>
48.4823

> <Gold.PLP.PLP>
-45.3655

> <Gold.PLP.part.hbond>
-3.5816

> <Gold.PLP.part.metal>
0.0000

> <Gold.PLP.part.buried>
-5.3051

> <Gold.PLP.part.nonpolar>
-35.4524

> <Gold.PLP.part.repulsive>
0.8444

> <Gold.PLP.ligand.clash>
0.0000

> <Gold.PLP.ligand.torsion>
0.6052

> <Gold.PLP.Chemscore.Hbond>
1.0000

> <Gold.PLP.Chemscore.CHOScore>
0.3826

> <Gold.PLP.Chemscore.Metal>
0.0000

> <Gold.Chemscore.Hbonds>
donor molecule, donor type, donor heavy atom, donor atom, acceptor molecule, acceptor atom, score
      P1  H  7997  8009       L1     1  0.01
      P1  H 10752 10765       L1     4  0.02

> <Gold.PLP.Chemscore.Internal.Correction>
0.1794

> <Gold.Rescore>
     Score         DG    S(hbond)    S(metal)    S(lipo)     H(rot)  DE(clash)    DE(int)     intcor
     12.74     -16.46       0.98        0.00     119.86       2.46       0.04       3.68       ----

> <Gold.Chemscore.Fitness>
12.7427

> <Gold.Chemscore.DG>
-16.4625

> <Gold.Chemscore.ZeroCoef>
-5.4800

> <Gold.Chemscore.Hbond>
0.9786

> <Gold.Chemscore.Metal>
0.0000

> <Gold.Chemscore.Lipo>
119.8609

> <Gold.Chemscore.Internal_Hbond>
0.0000

> <Gold.Chemscore.DEClash>
0.0391

> <Gold.Chemscore.DEInternal>
3.6808

> <Gold.Chemscore.Rot>
2.4647

> <Gold.Chemscore.Internal.Correction>
   9.000000E+99

> <Gold.Chemscore.Hbond.Weighted>
-3.2685

> <Gold.Chemscore.Metal.Weighted>
-0.0000

> <Gold.Chemscore.Lipo.Weighted>
-14.0237

> <Gold.Chemscore.Internal_Hbond.Weighted>
0.0000

> <Gold.Chemscore.DEClash.Weighted>
0.0391

> <Gold.Chemscore.DEInternal.Weighted>
3.6808

> <Gold.Chemscore.Rot.Weighted>
6.3097

> <Gold.Chemscore.Internal.Correction.Weighted>
   9.000000E+99

> <Gold.Protein.RotatedTorsions>
[ 6907 6896 6895 6894 ] final -114.18 input  -60.11 | X-H torsion
[ 7974 7965 7964 7962 ] final   88.32 input  175.53 | X-H torsion
[ 8008 7997 7996 7995 ] final -103.28 input   59.86 | X-H torsion
[ 10167 10162 10161 10158 ] final  -20.78 input  -65.29 | X-H torsion
[ 10718 10713 10712 10709 ] final   -0.92 input   66.30 | X-H torsion
[ 10763 10752 10751 10750 ] final -164.86 input  -60.55 | X-H torsion
[ 11005 11000 10999 10996 ] final  114.45 input  -57.11 | X-H torsion

> <Gold.Protein.ActiveResidues>
 VAL166  LYS551  ARG553  GLY616  TRP617  ASP618  TYR619  PRO620  LYS621  CYS622 
 ASP623  PHE694  ASN695  SER759  ASP760  ASP761  ALA762  ILE779  LEU786  VAL792 
 PHE793  MET794  SER795  GLU796  ALA797  LYS798  CYS799  TRP800  GLU811  SER814 

> <Gold.Protein.RotatedAtoms>
  150.7883  133.8838  159.3293 H   0  0  0  0  0  0  0  0  0  0  0  0  # atno 6907 bound_to 6896
  151.6683  135.0978  160.0202 H   0  0  0  0  0  0  0  0  0  0  0  0  # atno 6908 bound_to 6896
  152.3952  133.6697  159.6305 H   0  0  0  0  0  0  0  0  0  0  0  0  # atno 6909 bound_to 6896
  145.5472  139.2293  143.2533 H   0  0  0  0  0  0  0  0  0  0  0  0  # atno 7974 bound_to 7965
  154.8686  140.0424  157.1710 H   0  0  0  0  0  0  0  0  0  0  0  0  # atno 8008 bound_to 7997
  154.8763  140.2966  155.5431 H   0  0  0  0  0  0  0  0  0  0  0  0  # atno 8009 bound_to 7997
  156.2999  140.2419  156.3759 H   0  0  0  0  0  0  0  0  0  0  0  0  # atno 8010 bound_to 7997
  140.7278  143.4690  151.0274 H   0  0  0  0  0  0  0  0  0  0  0  0  # atno 10167 bound_to 10162
  156.8133  130.5431  149.5706 H   0  0  0  0  0  0  0  0  0  0  0  0  # atno 10718 bound_to 10713
  154.6988  135.2984  154.9372 H   0  0  0  0  0  0  0  0  0  0  0  0  # atno 10763 bound_to 10752
  154.0311  135.6670  153.4785 H   0  0  0  0  0  0  0  0  0  0  0  0  # atno 10764 bound_to 10752
  153.0665  135.5085  154.8120 H   0  0  0  0  0  0  0  0  0  0  0  0  # atno 10765 bound_to 10752
  139.8981  134.9568  156.6893 H   0  0  0  0  0  0  0  0  0  0  0  0  # atno 11005 bound_to 11000
  146.1941  140.6294  142.9132 LP  0  0  0  0  0  0  0  0  0  0  0  0  # atno 17320 bound_to 7965
  144.7547  140.5278  143.6777 LP  0  0  0  0  0  0  0  0  0  0  0  0  # atno 17321 bound_to 7965
  139.8380  143.7602  152.3180 LP  0  0  0  0  0  0  0  0  0  0  0  0  # atno 17342 bound_to 10162
  139.7740  144.7467  151.0183 LP  0  0  0  0  0  0  0  0  0  0  0  0  # atno 17343 bound_to 10162
  156.1032  130.5984  150.9928 LP  0  0  0  0  0  0  0  0  0  0  0  0  # atno 17370 bound_to 10713
  157.6495  131.0899  150.8082 LP  0  0  0  0  0  0  0  0  0  0  0  0  # atno 17371 bound_to 10713
  140.7237  133.9118  155.8164 LP  0  0  0  0  0  0  0  0  0  0  0  0  # atno 17394 bound_to 11000
  141.0207  134.0893  157.4123 LP  0  0  0  0  0  0  0  0  0  0  0  0  # atno 17395 bound_to 11000

$$$$
