AV-unprocessed.smi:3264|AV-procd|sdf|12494|dock9
  -GOLD-   2272018393D 1   1.00000     0.00000
 Structure written by MMmdl.
 32 33  0  0  0  0  0  0  0  0  1 V2000
  153.3734  142.6779  161.1516 C   0  0  0  0  0  0  0  0  0  0  0  0
  152.5730  142.9471  159.9238 C   0  0  0  0  0  0  0  0  0  0  0  0
  151.8540  142.0147  159.2939 N   0  0  0  0  0  0  0  0  0  0  0  0
  151.1893  142.5156  158.1699 C   0  0  0  0  0  0  0  0  0  0  0  0
  150.3300  141.6085  157.3423 C   0  0  0  0  0  0  0  0  0  0  0  0
  150.9032  141.3935  155.9317 C   0  0  0  0  0  0  0  0  0  0  0  0
  150.6441  140.0434  155.4450 N   0  0  0  0  0  0  0  0  0  0  0  0
  151.5759  139.1994  154.9762 C   0  0  0  0  0  0  0  0  0  0  0  0
  152.7711  139.4869  154.9021 O   0  0  0  0  0  0  0  0  0  0  0  0
  151.0757  137.8270  154.5112 C   0  0  2  0  0  0  0  0  0  0  0  0
  149.5570  137.6203  154.6697 C   0  0  0  0  0  0  0  0  0  0  0  0
  149.4461  136.5501  155.7389 C   0  0  0  0  0  0  0  0  0  0  0  0
  150.7542  135.7922  155.5650 C   0  0  0  0  0  0  0  0  0  0  0  0
  151.6899  136.8306  155.3253 O   0  0  0  0  0  0  0  0  0  0  0  0
  151.4163  143.8527  157.9582 C   0  0  0  0  0  0  0  0  0  0  0  0
  152.4752  144.5309  159.1642 S   0  0  0  0  0  0  0  0  0  0  0  0
  153.7296  141.6472  161.1558 H   0  0  0  0  0  0  0  0  0  0  0  0
  152.7608  142.8420  162.0379 H   0  0  0  0  0  0  0  0  0  0  0  0
  154.2350  143.3443  161.1923 H   0  0  0  0  0  0  0  0  0  0  0  0
  150.2207  140.6469  157.8451 H   0  0  0  0  0  0  0  0  0  0  0  0
  149.3230  142.0206  157.2664 H   0  0  0  0  0  0  0  0  0  0  0  0
  150.4456  142.0952  155.2336 H   0  0  0  0  0  0  0  0  0  0  0  0
  151.9752  141.5977  155.9188 H   0  0  0  0  0  0  0  0  0  0  0  0
  149.6849  139.7281  155.4611 H   0  0  0  0  0  0  0  0  0  0  0  0
  151.3589  137.6562  153.4712 H   0  0  0  0  0  0  0  0  0  0  0  0
  149.0074  138.5231  154.9398 H   0  0  0  0  0  0  0  0  0  0  0  0
  149.1372  137.2551  153.7316 H   0  0  0  0  0  0  0  0  0  0  0  0
  149.4111  137.0104  156.7273 H   0  0  0  0  0  0  0  0  0  0  0  0
  148.5660  135.9170  155.6228 H   0  0  0  0  0  0  0  0  0  0  0  0
  151.0222  135.2028  156.4420 H   0  0  0  0  0  0  0  0  0  0  0  0
  150.7108  135.1293  154.6995 H   0  0  0  0  0  0  0  0  0  0  0  0
  151.0241  144.4782  157.1699 H   0  0  0  0  0  0  0  0  0  0  0  0
  1  2  1  0  0  0  0
  1 17  1  0  0  0  0
  1 18  1  0  0  0  0
  1 19  1  0  0  0  0
  2 16  1  0  0  0  0
  2  3  2  0  0  0  0
  3  4  1  0  0  0  0
  4  5  1  0  0  0  0
  4 15  2  0  0  0  0
  5  6  1  0  0  0  0
  5 20  1  0  0  0  0
  5 21  1  0  0  0  0
  6  7  1  0  0  0  0
  6 22  1  0  0  0  0
  6 23  1  0  0  0  0
  7  8  1  0  0  0  0
  7 24  1  0  0  0  0
  8  9  2  0  0  0  0
  8 10  1  0  0  0  0
 10 14  1  0  0  0  0
 10 11  1  0  0  0  0
 10 25  1  0  0  0  0
 11 12  1  0  0  0  0
 11 26  1  0  0  0  0
 11 27  1  0  0  0  0
 12 13  1  0  0  0  0
 12 28  1  0  0  0  0
 12 29  1  0  0  0  0
 13 14  1  0  0  0  0
 13 30  1  0  0  0  0
 13 31  1  0  0  0  0
 15 16  1  0  0  0  0
 15 32  1  0  0  0  0
M  END
> <s_m_source_file>
AV-unprocessed.smi

> <i_m_source_file_index>
3264

> <i_lp_mmshare_version>
43012

> <i_f3d_flags>
0

> <s_epik_input>
W0NIM11jMW5jKFtjSF1zMSlbQ0gyXVtDSDJdW05IXUMoPU8pW0NAQEhdMltDSDJdW0NIMl1bQ0gyXU8y

> <s_epik_cmdline>
J2VwaWtfcHl0aG9uJywgJy1waCcsICc3LjAnLCAnLXRuJywgJzgnLCAnLW1hJywgJzIwMCcsICctbWV0YWxfYmluZGluZycsICctaW1hZScsICc8aW5maWxlLm1hZT4nLCAnLW9tYWUnLCAnPG91dGZpbGUubWFlPic=

> <r_epik_Ionization_Penalty>
0.00112246

> <r_epik_Ionization_Penalty_Charging>
0

> <r_epik_Ionization_Penalty_Neutral>
0.00112246

> <r_epik_State_Penalty>
0.000737392

> <r_epik_Charging_Adjusted_Penalty>
0.000737392

> <i_epik_Tot_Q>
0

> <i_epik_Tot_abs_Q>
0

> <r_epik_Metal_State_Penalty>
-0

> <b_epik_Metal_Only>
0

> <s_lp_Force_Field>
OPLS_2005

> <r_lp_Energy>
12.7546

> <b_lp_Chiralities_Consistent>
1

> <s_lp_Variant>
AV-unprocessed.smi:3264-1

> <Gold.Version>
5.8.1

> <Gold.Id.Protein>
6NUR|6NUR_protein|mol2

> <Gold.PLP.Fitness>
43.0160

> <Gold.PLP.PLP>
-35.5089

> <Gold.PLP.part.hbond>
-3.0000

> <Gold.PLP.part.metal>
0.0000

> <Gold.PLP.part.buried>
-3.8329

> <Gold.PLP.part.nonpolar>
-29.4020

> <Gold.PLP.part.repulsive>
0.2080

> <Gold.PLP.ligand.clash>
0.0000

> <Gold.PLP.ligand.torsion>
0.3030

> <Gold.PLP.Chemscore.Hbond>
1.7000

> <Gold.PLP.Chemscore.CHOScore>
1.0000

> <Gold.PLP.Chemscore.Metal>
0.0000

> <Gold.Chemscore.Hbonds>
donor molecule, donor type, donor heavy atom, donor atom, acceptor molecule, acceptor atom, score
      P1  H  7997  8010       L1     9  0.89
      P1  H 10752 10765       L1    14  0.64
      L1  C    15    32       P1  8028  0.84

> <Gold.PLP.Chemscore.Internal.Correction>
0.0131

> <Gold.Rescore>
     Score         DG    S(hbond)    S(metal)    S(lipo)     H(rot)  DE(clash)    DE(int)     intcor
     16.02     -16.30       1.20        0.00      91.34       1.52       0.03       0.24       ----

> <Gold.Chemscore.Fitness>
16.0241

> <Gold.Chemscore.DG>
-16.2958

> <Gold.Chemscore.ZeroCoef>
-5.4800

> <Gold.Chemscore.Hbond>
1.2006

> <Gold.Chemscore.Metal>
0.0000

> <Gold.Chemscore.Lipo>
91.3386

> <Gold.Chemscore.Internal_Hbond>
0.0000

> <Gold.Chemscore.DEClash>
0.0309

> <Gold.Chemscore.DEInternal>
0.2408

> <Gold.Chemscore.Rot>
1.5159

> <Gold.Chemscore.Internal.Correction>
   9.000000E+99

> <Gold.Chemscore.Hbonds>
donor molecule, donor type, donor heavy atom, donor atom, acceptor molecule, acceptor atom, score
      P1  H  7997  8010       L1     9  0.87
      P1  H 10752 10765       L1    14  0.05

> <Gold.Chemscore.Hbond.Weighted>
-4.0099

> <Gold.Chemscore.Metal.Weighted>
-0.0000

> <Gold.Chemscore.Lipo.Weighted>
-10.6866

> <Gold.Chemscore.Internal_Hbond.Weighted>
0.0000

> <Gold.Chemscore.DEClash.Weighted>
0.0309

> <Gold.Chemscore.DEInternal.Weighted>
0.2408

> <Gold.Chemscore.Rot.Weighted>
3.8807

> <Gold.Chemscore.Internal.Correction.Weighted>
   9.000000E+99

> <Gold.Protein.RotatedTorsions>
[ 6907 6896 6895 6894 ] final   79.76 input  -60.11 | X-H torsion
[ 7974 7965 7964 7962 ] final -176.77 input  175.53 | X-H torsion
[ 8008 7997 7996 7995 ] final  103.06 input   59.86 | X-H torsion
[ 10167 10162 10161 10158 ] final  -11.72 input  -65.29 | X-H torsion
[ 10718 10713 10712 10709 ] final   62.19 input   66.30 | X-H torsion
[ 10763 10752 10751 10750 ] final  168.41 input  -60.55 | X-H torsion
[ 11005 11000 10999 10996 ] final  -20.10 input  -57.11 | X-H torsion

> <Gold.Protein.ActiveResidues>
 VAL166  LYS551  ARG553  GLY616  TRP617  ASP618  TYR619  PRO620  LYS621  CYS622 
 ASP623  PHE694  ASN695  SER759  ASP760  ASP761  ALA762  ILE779  LEU786  VAL792 
 PHE793  MET794  SER795  GLU796  ALA797  LYS798  CYS799  TRP800  GLU811  SER814 

> <Gold.Protein.RotatedAtoms>
  152.5210  134.3462  159.9234 H   0  0  0  0  0  0  0  0  0  0  0  0  # atno 6907 bound_to 6896
  151.3412  133.3955  159.2679 H   0  0  0  0  0  0  0  0  0  0  0  0  # atno 6908 bound_to 6896
  150.9802  134.9176  159.7897 H   0  0  0  0  0  0  0  0  0  0  0  0  # atno 6909 bound_to 6896
  144.7127  140.1119  143.6410 H   0  0  0  0  0  0  0  0  0  0  0  0  # atno 7974 bound_to 7965
  156.1450  140.3171  155.8556 H   0  0  0  0  0  0  0  0  0  0  0  0  # atno 8008 bound_to 7997
  155.4081  140.0504  157.3050 H   0  0  0  0  0  0  0  0  0  0  0  0  # atno 8009 bound_to 7997
  154.5008  140.2128  155.9362 H   0  0  0  0  0  0  0  0  0  0  0  0  # atno 8010 bound_to 7997
  140.7145  143.5609  150.9197 H   0  0  0  0  0  0  0  0  0  0  0  0  # atno 10167 bound_to 10162
  157.5883  130.9037  149.9557 H   0  0  0  0  0  0  0  0  0  0  0  0  # atno 10718 bound_to 10713
  154.3681  135.2753  155.2282 H   0  0  0  0  0  0  0  0  0  0  0  0  # atno 10763 bound_to 10752
  154.4441  135.5947  153.6152 H   0  0  0  0  0  0  0  0  0  0  0  0  # atno 10764 bound_to 10752
  152.9840  135.6026  154.3909 H   0  0  0  0  0  0  0  0  0  0  0  0  # atno 10765 bound_to 10752
  140.8431  133.7911  155.9883 H   0  0  0  0  0  0  0  0  0  0  0  0  # atno 11005 bound_to 11000
  145.9447  139.2692  143.1248 LP  0  0  0  0  0  0  0  0  0  0  0  0  # atno 17320 bound_to 7965
  145.9387  140.8996  143.0319 LP  0  0  0  0  0  0  0  0  0  0  0  0  # atno 17321 bound_to 7965
  139.9334  143.6466  152.3071 LP  0  0  0  0  0  0  0  0  0  0  0  0  # atno 17342 bound_to 10162
  139.6925  144.7645  151.1414 LP  0  0  0  0  0  0  0  0  0  0  0  0  # atno 17343 bound_to 10162
  156.0935  130.3661  150.0351 LP  0  0  0  0  0  0  0  0  0  0  0  0  # atno 17370 bound_to 10713
  156.8478  130.9448  151.3627 LP  0  0  0  0  0  0  0  0  0  0  0  0  # atno 17371 bound_to 10713
  140.8873  134.2538  157.5113 LP  0  0  0  0  0  0  0  0  0  0  0  0  # atno 17394 bound_to 11000
  139.8703  134.9644  156.4495 LP  0  0  0  0  0  0  0  0  0  0  0  0  # atno 17395 bound_to 11000

$$$$
