AV-unprocessed.smi:1569|AV-procd|sdf|6311|dock5
  -GOLD-   22720 6513D 1   1.00000     0.00000
 Structure written by MMmdl.
 33 34  0  0  0  0  0  0  0  0  1 V2000
  152.1503  144.9730  159.0125 C   0  0  0  0  0  0  0  0  0  0  0  0
  151.9472  143.4982  158.9528 C   0  0  0  0  0  0  0  0  0  0  0  0
  150.8372  142.9237  158.4823 N   0  0  0  0  0  0  0  0  0  0  0  0
  150.8802  141.5282  158.5581 C   0  0  0  0  0  0  0  0  0  0  0  0
  149.6977  140.7153  158.1149 C   0  0  0  0  0  0  0  0  0  0  0  0
  149.9652  139.1970  158.0807 C   0  0  0  0  0  0  0  0  0  0  0  0
  148.7650  138.4163  158.3759 N   0  0  0  0  0  0  0  0  0  0  0  0
  148.7243  137.3136  159.1405 C   0  0  0  0  0  0  0  0  0  0  0  0
  149.7066  136.8691  159.7364 O   0  0  0  0  0  0  0  0  0  0  0  0
  147.3655  136.6077  159.2292 C   0  0  0  0  0  0  0  0  0  0  0  0
  147.2721  135.7084  160.3823 N   0  0  0  0  0  0  0  0  0  0  0  0
  147.0744  134.2835  160.1383 C   0  0  0  0  0  0  0  0  0  0  0  0
  147.4230  133.4333  161.6978 S   0  0  0  0  0  0  0  0  0  0  0  0
  147.2858  134.9516  162.6567 C   0  0  0  0  0  0  0  0  0  0  0  0
  147.3740  136.0989  161.6648 C   0  0  0  0  0  0  0  0  0  0  0  0
  147.5286  137.2604  162.0404 O   0  0  0  0  0  0  0  0  0  0  0  0
  152.0589  141.0507  159.0758 C   0  0  0  0  0  0  0  0  0  0  0  0
  153.1480  142.3393  159.5084 S   0  0  0  0  0  0  0  0  0  0  0  0
  151.4366  145.4854  158.3666 H   0  0  0  0  0  0  0  0  0  0  0  0
  153.1594  145.2255  158.6867 H   0  0  0  0  0  0  0  0  0  0  0  0
  152.0132  145.3245  160.0353 H   0  0  0  0  0  0  0  0  0  0  0  0
  148.8468  140.9124  158.7678 H   0  0  0  0  0  0  0  0  0  0  0  0
  149.3846  141.0396  157.1219 H   0  0  0  0  0  0  0  0  0  0  0  0
  150.3761  138.9161  157.1096 H   0  0  0  0  0  0  0  0  0  0  0  0
  150.7301  138.9433  158.8149 H   0  0  0  0  0  0  0  0  0  0  0  0
  147.9085  138.7150  157.9325 H   0  0  0  0  0  0  0  0  0  0  0  0
  146.5765  137.3607  159.2602 H   0  0  0  0  0  0  0  0  0  0  0  0
  147.2003  136.0300  158.3184 H   0  0  0  0  0  0  0  0  0  0  0  0
  146.0427  134.0988  159.8378 H   0  0  0  0  0  0  0  0  0  0  0  0
  147.7355  133.9166  159.3533 H   0  0  0  0  0  0  0  0  0  0  0  0
  146.3247  134.9831  163.1701 H   0  0  0  0  0  0  0  0  0  0  0  0
  148.0818  135.0091  163.3995 H   0  0  0  0  0  0  0  0  0  0  0  0
  152.3453  140.0230  159.2417 H   0  0  0  0  0  0  0  0  0  0  0  0
  1  2  1  0  0  0  0
  1 19  1  0  0  0  0
  1 20  1  0  0  0  0
  1 21  1  0  0  0  0
  2 18  1  0  0  0  0
  2  3  2  0  0  0  0
  3  4  1  0  0  0  0
  4  5  1  0  0  0  0
  4 17  2  0  0  0  0
  5  6  1  0  0  0  0
  5 22  1  0  0  0  0
  5 23  1  0  0  0  0
  6  7  1  0  0  0  0
  6 24  1  0  0  0  0
  6 25  1  0  0  0  0
  7  8  1  0  0  0  0
  7 26  1  0  0  0  0
  8  9  2  0  0  0  0
  8 10  1  0  0  0  0
 10 11  1  0  0  0  0
 10 27  1  0  0  0  0
 10 28  1  0  0  0  0
 11 15  1  0  0  0  0
 11 12  1  0  0  0  0
 12 13  1  0  0  0  0
 12 29  1  0  0  0  0
 12 30  1  0  0  0  0
 13 14  1  0  0  0  0
 14 15  1  0  0  0  0
 14 31  1  0  0  0  0
 14 32  1  0  0  0  0
 15 16  2  0  0  0  0
 17 18  1  0  0  0  0
 17 33  1  0  0  0  0
M  END
> <s_m_source_file>
AV-unprocessed.smi

> <i_m_source_file_index>
1569

> <i_lp_mmshare_version>
43012

> <i_f3d_flags>
0

> <s_epik_input>
W0NIM11jMW5jKFtjSF1zMSlbQ0gyXVtDSDJdW05IXUMoPU8pW0NIMl1OMltDSDJdU1tDSDJdQzI9Tw==

> <s_epik_cmdline>
J2VwaWtfcHl0aG9uJywgJy1waCcsICc3LjAnLCAnLXRuJywgJzgnLCAnLW1hJywgJzIwMCcsICctbWV0YWxfYmluZGluZycsICctaW1hZScsICc8aW5maWxlLm1hZT4nLCAnLW9tYWUnLCAnPG91dGZpbGUubWFlPic=

> <r_epik_Ionization_Penalty>
0.00098942

> <r_epik_Ionization_Penalty_Charging>
0

> <r_epik_Ionization_Penalty_Neutral>
0.00098942

> <r_epik_State_Penalty>
0.00064447

> <r_epik_Charging_Adjusted_Penalty>
0.00064447

> <i_epik_Tot_Q>
0

> <i_epik_Tot_abs_Q>
0

> <r_epik_Metal_State_Penalty>
-0

> <b_epik_Metal_Only>
0

> <s_epik_Chemistry_Notes>
This compound contains an acetal/aminal-like group ( X-CH(R)-Y where X, Y are N, S, or O) that may be acid/base labile, releasing an aldehyde.

> <s_lp_Force_Field>
OPLS_2005

> <r_lp_Energy>
2.37506

> <b_lp_Chiralities_Consistent>
1

> <s_lp_Variant>
AV-unprocessed.smi:1569-1

> <Gold.Version>
5.8.1

> <Gold.Id.Protein>
6NUR|6NUR_protein|mol2

> <Gold.PLP.Fitness>
46.0401

> <Gold.PLP.PLP>
-39.4638

> <Gold.PLP.part.hbond>
-3.6149

> <Gold.PLP.part.metal>
0.0000

> <Gold.PLP.part.buried>
-4.7154

> <Gold.PLP.part.nonpolar>
-31.5325

> <Gold.PLP.part.repulsive>
0.2218

> <Gold.PLP.ligand.clash>
0.0000

> <Gold.PLP.ligand.torsion>
0.6673

> <Gold.PLP.Chemscore.Hbond>
2.6320

> <Gold.PLP.Chemscore.CHOScore>
0.0000

> <Gold.PLP.Chemscore.Metal>
0.0000

> <Gold.Chemscore.Hbonds>
donor molecule, donor type, donor heavy atom, donor atom, acceptor molecule, acceptor atom, score
      P1  H  6896  6907       L1     9  0.41
      P1  H  6931  6943       L1    16  0.90
      P1  H  6934  6947       L1    16  0.53

> <Gold.PLP.Chemscore.Internal.Correction>
0.0150

> <Gold.Rescore>
     Score         DG    S(hbond)    S(metal)    S(lipo)     H(rot)  DE(clash)    DE(int)     intcor
     18.81     -19.47       2.70        0.00      84.66       1.92       0.01       0.64       ----

> <Gold.Chemscore.Fitness>
18.8120

> <Gold.Chemscore.DG>
-19.4683

> <Gold.Chemscore.ZeroCoef>
-5.4800

> <Gold.Chemscore.Hbond>
2.6952

> <Gold.Chemscore.Metal>
0.0000

> <Gold.Chemscore.Lipo>
84.6600

> <Gold.Chemscore.Internal_Hbond>
0.0000

> <Gold.Chemscore.DEClash>
0.0133

> <Gold.Chemscore.DEInternal>
0.6430

> <Gold.Chemscore.Rot>
1.9215

> <Gold.Chemscore.Internal.Correction>
   9.000000E+99

> <Gold.Chemscore.Hbonds>
donor molecule, donor type, donor heavy atom, donor atom, acceptor molecule, acceptor atom, score
      P1  H  6896  6907       L1     9  0.41
      P1  H  6931  6943       L1    16  0.88
      P1  H  6934  6947       L1    16  0.53

> <Gold.Chemscore.Hbond.Weighted>
-9.0020

> <Gold.Chemscore.Metal.Weighted>
-0.0000

> <Gold.Chemscore.Lipo.Weighted>
-9.9052

> <Gold.Chemscore.Internal_Hbond.Weighted>
0.0000

> <Gold.Chemscore.DEClash.Weighted>
0.0133

> <Gold.Chemscore.DEInternal.Weighted>
0.6430

> <Gold.Chemscore.Rot.Weighted>
4.9190

> <Gold.Chemscore.Internal.Correction.Weighted>
   9.000000E+99

> <Gold.Protein.RotatedTorsions>
[ 6907 6896 6895 6894 ] final  -31.73 input  -60.11 | X-H torsion
[ 7974 7965 7964 7962 ] final -110.62 input  175.53 | X-H torsion
[ 8008 7997 7996 7995 ] final -116.03 input   59.86 | X-H torsion
[ 10167 10162 10161 10158 ] final  -16.60 input  -65.29 | X-H torsion
[ 10718 10713 10712 10709 ] final   23.78 input   66.30 | X-H torsion
[ 10763 10752 10751 10750 ] final  -98.08 input  -60.55 | X-H torsion
[ 11005 11000 10999 10996 ] final -110.22 input  -57.11 | X-H torsion

> <Gold.Protein.ActiveResidues>
 VAL166  LYS551  ARG553  GLY616  TRP617  ASP618  TYR619  PRO620  LYS621  CYS622 
 ASP623  PHE694  ASN695  SER759  ASP760  ASP761  ALA762  ILE779  LEU786  VAL792 
 PHE793  MET794  SER795  GLU796  ALA797  LYS798  CYS799  TRP800  GLU811  SER814 

> <Gold.Protein.RotatedAtoms>
  151.0882  134.9900  159.8389 H   0  0  0  0  0  0  0  0  0  0  0  0  # atno 6907 bound_to 6896
  152.5426  134.2098  159.8755 H   0  0  0  0  0  0  0  0  0  0  0  0  # atno 6908 bound_to 6896
  151.2132  133.4500  159.2632 H   0  0  0  0  0  0  0  0  0  0  0  0  # atno 6909 bound_to 6896
  145.1660  140.8902  143.3563 H   0  0  0  0  0  0  0  0  0  0  0  0  # atno 7974 bound_to 7965
  155.0614  140.0393  157.2578 H   0  0  0  0  0  0  0  0  0  0  0  0  # atno 8008 bound_to 7997
  154.7056  140.2682  155.6653 H   0  0  0  0  0  0  0  0  0  0  0  0  # atno 8009 bound_to 7997
  156.2774  140.2732  156.1682 H   0  0  0  0  0  0  0  0  0  0  0  0  # atno 8010 bound_to 7997
  140.7236  143.5099  150.9762 H   0  0  0  0  0  0  0  0  0  0  0  0  # atno 10167 bound_to 10162
  157.1707  130.6758  149.6077 H   0  0  0  0  0  0  0  0  0  0  0  0  # atno 10718 bound_to 10713
  154.7383  135.5023  153.9079 H   0  0  0  0  0  0  0  0  0  0  0  0  # atno 10763 bound_to 10752
  153.1017  135.6687  153.9668 H   0  0  0  0  0  0  0  0  0  0  0  0  # atno 10764 bound_to 10752
  153.9452  135.3063  155.3420 H   0  0  0  0  0  0  0  0  0  0  0  0  # atno 10765 bound_to 10752
  141.0804  133.9230  157.2301 H   0  0  0  0  0  0  0  0  0  0  0  0  # atno 11005 bound_to 11000
  145.0282  139.3364  143.6038 LP  0  0  0  0  0  0  0  0  0  0  0  0  # atno 17320 bound_to 7965
  146.3475  139.9609  142.8717 LP  0  0  0  0  0  0  0  0  0  0  0  0  # atno 17321 bound_to 7965
  139.8813  143.7069  152.3156 LP  0  0  0  0  0  0  0  0  0  0  0  0  # atno 17342 bound_to 10162
  139.7352  144.7573  151.0739 LP  0  0  0  0  0  0  0  0  0  0  0  0  # atno 17343 bound_to 10162
  155.9739  130.4680  150.6344 LP  0  0  0  0  0  0  0  0  0  0  0  0  # atno 17370 bound_to 10713
  157.4046  131.0815  151.1277 LP  0  0  0  0  0  0  0  0  0  0  0  0  # atno 17371 bound_to 10713
  139.9617  135.0152  156.9279 LP  0  0  0  0  0  0  0  0  0  0  0  0  # atno 17394 bound_to 11000
  140.5482  134.0653  155.7361 LP  0  0  0  0  0  0  0  0  0  0  0  0  # atno 17395 bound_to 11000

$$$$
