AV-unprocessed.smi:2966|AV-procd|sdf|11324|dock9
  -GOLD-   2272016233D 1   1.00000     0.00000
 Structure written by MMmdl.
 40 42  0  0  0  0  0  0  0  0  1 V2000
  157.0808  138.6386  159.3521 C   0  0  0  0  0  0  0  0  0  0  0  0
  155.7079  138.7406  159.0197 O   0  0  0  0  0  0  0  0  0  0  0  0
  154.9774  139.5205  159.9519 C   0  0  0  0  0  0  0  0  0  0  0  0
  153.5010  139.5832  159.5361 C   0  0  0  0  0  0  0  0  0  0  0  0
  152.9671  140.9353  159.6143 N   0  0  0  0  0  0  0  0  0  0  0  0
  152.3087  141.6359  158.6579 C   0  0  0  0  0  0  0  0  0  0  0  0
  151.9721  140.9688  157.0643 S   0  0  0  0  0  0  0  0  0  0  0  0
  150.5306  142.0038  156.6745 C   0  0  0  0  0  0  0  0  0  0  0  0
  149.9309  141.7522  155.2893 C   0  0  0  0  0  0  0  0  0  0  0  0
  150.3491  140.8424  154.5721 O   0  0  0  0  0  0  0  0  0  0  0  0
  148.9422  142.5814  154.9239 N   0  0  0  0  0  0  0  0  0  0  0  0
  148.2423  142.5388  153.6804 C   0  0  0  0  0  0  0  0  0  0  0  0
  146.9505  143.3201  153.5730 C   0  0  0  0  0  0  0  0  0  0  0  0
  146.9116  141.8186  153.6456 C   0  0  0  0  0  0  0  0  0  0  0  0
  151.9277  142.8662  159.0003 N   0  0  0  0  0  0  0  0  0  0  0  0
  152.3726  142.9712  160.3037 C   0  0  0  0  0  0  0  0  0  0  0  0
  152.2714  144.0371  161.2265 C   0  0  0  0  0  0  0  0  0  0  0  0
  152.8079  143.9106  162.5247 C   0  0  0  0  0  0  0  0  0  0  0  0
  153.4529  142.7199  162.9177 C   0  0  0  0  0  0  0  0  0  0  0  0
  153.5660  141.6464  162.0135 C   0  0  0  0  0  0  0  0  0  0  0  0
  153.0281  141.7779  160.7192 C   0  0  0  0  0  0  0  0  0  0  0  0
  157.5923  138.0275  158.6087 H   0  0  0  0  0  0  0  0  0  0  0  0
  157.2167  138.1679  160.3266 H   0  0  0  0  0  0  0  0  0  0  0  0
  157.5570  139.6199  159.3669 H   0  0  0  0  0  0  0  0  0  0  0  0
  155.0648  139.0867  160.9494 H   0  0  0  0  0  0  0  0  0  0  0  0
  155.3892  140.5296  159.9982 H   0  0  0  0  0  0  0  0  0  0  0  0
  153.3889  139.2264  158.5118 H   0  0  0  0  0  0  0  0  0  0  0  0
  152.9023  138.9162  160.1559 H   0  0  0  0  0  0  0  0  0  0  0  0
  149.7650  141.8346  157.4324 H   0  0  0  0  0  0  0  0  0  0  0  0
  150.8244  143.0519  156.7420 H   0  0  0  0  0  0  0  0  0  0  0  0
  148.6640  143.2995  155.5769 H   0  0  0  0  0  0  0  0  0  0  0  0
  148.8399  142.4782  152.7718 H   0  0  0  0  0  0  0  0  0  0  0  0
  146.6153  143.8736  154.4482 H   0  0  0  0  0  0  0  0  0  0  0  0
  146.7238  143.7833  152.6149 H   0  0  0  0  0  0  0  0  0  0  0  0
  146.6584  141.2778  152.7357 H   0  0  0  0  0  0  0  0  0  0  0  0
  146.5503  141.3697  154.5688 H   0  0  0  0  0  0  0  0  0  0  0  0
  151.7785  144.9529  160.9356 H   0  0  0  0  0  0  0  0  0  0  0  0
  152.7228  144.7306  163.2226 H   0  0  0  0  0  0  0  0  0  0  0  0
  153.8600  142.6308  163.9143 H   0  0  0  0  0  0  0  0  0  0  0  0
  154.0583  140.7327  162.3118 H   0  0  0  0  0  0  0  0  0  0  0  0
  1  2  1  0  0  0  0
  1 22  1  0  0  0  0
  1 23  1  0  0  0  0
  1 24  1  0  0  0  0
  2  3  1  0  0  0  0
  3  4  1  0  0  0  0
  3 25  1  0  0  0  0
  3 26  1  0  0  0  0
  4  5  1  0  0  0  0
  4 27  1  0  0  0  0
  4 28  1  0  0  0  0
  5 21  1  0  0  0  0
  5  6  1  0  0  0  0
  6  7  1  0  0  0  0
  6 15  2  0  0  0  0
  7  8  1  0  0  0  0
  8  9  1  0  0  0  0
  8 29  1  0  0  0  0
  8 30  1  0  0  0  0
  9 10  2  0  0  0  0
  9 11  1  0  0  0  0
 11 12  1  0  0  0  0
 11 31  1  0  0  0  0
 12 14  1  0  0  0  0
 12 13  1  0  0  0  0
 12 32  1  0  0  0  0
 13 14  1  0  0  0  0
 13 33  1  0  0  0  0
 13 34  1  0  0  0  0
 14 35  1  0  0  0  0
 14 36  1  0  0  0  0
 15 16  1  0  0  0  0
 16 21  2  0  0  0  0
 16 17  1  0  0  0  0
 17 18  2  0  0  0  0
 17 37  1  0  0  0  0
 18 19  1  0  0  0  0
 18 38  1  0  0  0  0
 19 20  2  0  0  0  0
 19 39  1  0  0  0  0
 20 21  1  0  0  0  0
 20 40  1  0  0  0  0
M  END
> <s_m_source_file>
AV-unprocessed.smi

> <i_m_source_file_index>
2966

> <i_lp_mmshare_version>
43012

> <i_f3d_flags>
0

> <s_epik_input>
W2NIXTFbY0hdW2NIXVtjSF1jKGMxMiluKFtDSDJdW0NIMl1PW0NIM10pYyhuMilTW0NIMl1DKD1PKVtOSF1bQ0hdM1tDSDJdW0NIMl0z

> <s_epik_cmdline>
J2VwaWtfcHl0aG9uJywgJy1waCcsICc3LjAnLCAnLXRuJywgJzgnLCAnLW1hJywgJzIwMCcsICctbWV0YWxfYmluZGluZycsICctaW1hZScsICc8aW5maWxlLm1hZT4nLCAnLW9tYWUnLCAnPG91dGZpbGUubWFlPic=

> <r_epik_Ionization_Penalty>
0.0369383

> <r_epik_Ionization_Penalty_Charging>
0

> <r_epik_Ionization_Penalty_Neutral>
0.0369383

> <r_epik_State_Penalty>
0.0308874

> <r_epik_Charging_Adjusted_Penalty>
0.0308874

> <i_epik_Tot_Q>
0

> <i_epik_Tot_abs_Q>
0

> <r_epik_Metal_State_Penalty>
0.0290633

> <b_epik_Metal_Only>
0

> <s_lp_Force_Field>
OPLS_2005

> <r_lp_Energy>
20.8616

> <b_lp_Chiralities_Consistent>
1

> <s_lp_Variant>
AV-unprocessed.smi:2966-1

> <Gold.Version>
5.8.1

> <Gold.Id.Protein>
6NUR|6NUR_protein|mol2

> <Gold.PLP.Fitness>
54.6729

> <Gold.PLP.PLP>
-49.5749

> <Gold.PLP.part.hbond>
-3.0000

> <Gold.PLP.part.metal>
0.0000

> <Gold.PLP.part.buried>
-6.4990

> <Gold.PLP.part.nonpolar>
-39.7907

> <Gold.PLP.part.repulsive>
0.2870

> <Gold.PLP.ligand.clash>
0.0000

> <Gold.PLP.ligand.torsion>
1.0126

> <Gold.PLP.Chemscore.Hbond>
2.3280

> <Gold.PLP.Chemscore.CHOScore>
0.0000

> <Gold.PLP.Chemscore.Metal>
0.0000

> <Gold.Chemscore.Hbonds>
donor molecule, donor type, donor heavy atom, donor atom, acceptor molecule, acceptor atom, score
      L1  H    11    31       P1  8028  0.51
      P1  H  7989  7998       L1    10  0.77
      P1  H  7997  8010       L1     2  0.47

> <Gold.PLP.Chemscore.Internal.Correction>
0.1392

> <Gold.Rescore>
     Score         DG    S(hbond)    S(metal)    S(lipo)     H(rot)  DE(clash)    DE(int)     intcor
     18.64     -20.83       1.82        0.00     125.98       2.13       1.06       1.13       ----

> <Gold.Chemscore.Fitness>
18.6358

> <Gold.Chemscore.DG>
-20.8273

> <Gold.Chemscore.ZeroCoef>
-5.4800

> <Gold.Chemscore.Hbond>
1.8173

> <Gold.Chemscore.Metal>
0.0000

> <Gold.Chemscore.Lipo>
125.9822

> <Gold.Chemscore.Internal_Hbond>
0.0000

> <Gold.Chemscore.DEClash>
1.0569

> <Gold.Chemscore.DEInternal>
1.1346

> <Gold.Chemscore.Rot>
2.1338

> <Gold.Chemscore.Internal.Correction>
   9.000000E+99

> <Gold.Chemscore.Hbonds>
donor molecule, donor type, donor heavy atom, donor atom, acceptor molecule, acceptor atom, score
      L1  H    11    31       P1  8028  0.51
      P1  H  7989  7998       L1    10  0.76
      P1  H  7997  8010       L1     2  0.05

> <Gold.Chemscore.Hbond.Weighted>
-6.0699

> <Gold.Chemscore.Metal.Weighted>
-0.0000

> <Gold.Chemscore.Lipo.Weighted>
-14.7399

> <Gold.Chemscore.Internal_Hbond.Weighted>
0.0000

> <Gold.Chemscore.DEClash.Weighted>
1.0569

> <Gold.Chemscore.DEInternal.Weighted>
1.1346

> <Gold.Chemscore.Rot.Weighted>
5.4626

> <Gold.Chemscore.Internal.Correction.Weighted>
   9.000000E+99

> <Gold.Protein.RotatedTorsions>
[ 6907 6896 6895 6894 ] final  147.98 input  -60.11 | X-H torsion
[ 7974 7965 7964 7962 ] final  150.04 input  175.53 | X-H torsion
[ 8008 7997 7996 7995 ] final  -44.82 input   59.86 | X-H torsion
[ 10167 10162 10161 10158 ] final  126.48 input  -65.29 | X-H torsion
[ 10718 10713 10712 10709 ] final -160.67 input   66.30 | X-H torsion
[ 10763 10752 10751 10750 ] final -116.65 input  -60.55 | X-H torsion
[ 11005 11000 10999 10996 ] final  -98.34 input  -57.11 | X-H torsion

> <Gold.Protein.ActiveResidues>
 VAL166  LYS551  ARG553  GLY616  TRP617  ASP618  TYR619  PRO620  LYS621  CYS622 
 ASP623  PHE694  ASN695  SER759  ASP760  ASP761  ALA762  ILE779  LEU786  VAL792 
 PHE793  MET794  SER795  GLU796  ALA797  LYS798  CYS799  TRP800  GLU811  SER814 

> <Gold.Protein.RotatedAtoms>
  152.1476  133.4502  159.4797 H   0  0  0  0  0  0  0  0  0  0  0  0  # atno 6907 bound_to 6896
  150.6892  134.2228  159.4412 H   0  0  0  0  0  0  0  0  0  0  0  0  # atno 6908 bound_to 6896
  152.0123  134.9869  160.0619 H   0  0  0  0  0  0  0  0  0  0  0  0  # atno 6909 bound_to 6896
  144.8394  139.6357  143.6023 H   0  0  0  0  0  0  0  0  0  0  0  0  # atno 7974 bound_to 7965
  154.3998  140.1412  156.3745 H   0  0  0  0  0  0  0  0  0  0  0  0  # atno 8008 bound_to 7997
  155.8061  140.3474  155.5410 H   0  0  0  0  0  0  0  0  0  0  0  0  # atno 8009 bound_to 7997
  155.8434  140.0930  157.1711 H   0  0  0  0  0  0  0  0  0  0  0  0  # atno 8010 bound_to 7997
  139.5629  144.6893  151.3992 H   0  0  0  0  0  0  0  0  0  0  0  0  # atno 10167 bound_to 10162
  156.5855  130.8747  151.2876 H   0  0  0  0  0  0  0  0  0  0  0  0  # atno 10718 bound_to 10713
  154.8527  135.4338  154.1855 H   0  0  0  0  0  0  0  0  0  0  0  0  # atno 10763 bound_to 10752
  153.2936  135.6963  153.7275 H   0  0  0  0  0  0  0  0  0  0  0  0  # atno 10764 bound_to 10752
  153.6433  135.3464  155.3052 H   0  0  0  0  0  0  0  0  0  0  0  0  # atno 10765 bound_to 10752
  141.1348  133.8238  157.0827 H   0  0  0  0  0  0  0  0  0  0  0  0  # atno 11005 bound_to 11000
  146.2688  139.6585  142.9310 LP  0  0  0  0  0  0  0  0  0  0  0  0  # atno 17320 bound_to 7965
  145.4727  141.0436  143.2690 LP  0  0  0  0  0  0  0  0  0  0  0  0  # atno 17321 bound_to 7965
  140.6910  143.7861  150.7256 LP  0  0  0  0  0  0  0  0  0  0  0  0  # atno 17342 bound_to 10162
  140.1343  143.4498  152.2234 LP  0  0  0  0  0  0  0  0  0  0  0  0  # atno 17343 bound_to 10162
  157.7316  130.9703  150.1889 LP  0  0  0  0  0  0  0  0  0  0  0  0  # atno 17370 bound_to 10713
  156.2595  130.3709  149.8146 LP  0  0  0  0  0  0  0  0  0  0  0  0  # atno 17371 bound_to 10713
  140.0441  134.9839  157.1017 LP  0  0  0  0  0  0  0  0  0  0  0  0  # atno 17394 bound_to 11000
  140.4089  134.2002  155.7163 LP  0  0  0  0  0  0  0  0  0  0  0  0  # atno 17395 bound_to 11000

$$$$
