AV-unprocessed.smi:3031|AV-procd|sdf|11545|dock1
  -GOLD-   2272016493D 1   1.00000     0.00000
 Structure written by MMmdl.
 47 48  0  0  0  0  0  0  0  0  2 V2000
  151.6722  143.0392  157.5363 C   0  0  0  0  0  0  0  0  0  0  0  0
  150.9225  141.9499  156.8251 C   0  0  0  0  0  0  0  0  0  0  0  0
  150.8740  140.5656  157.1549 C   0  0  0  0  0  0  0  0  0  0  0  0
  150.1139  139.8659  156.3285 N   0  0  0  0  0  0  0  0  0  0  0  0
  149.6521  140.7750  155.4442 N   0  0  0  0  0  0  0  0  0  0  0  0
  148.7617  140.3552  154.3762 C   0  0  0  0  0  0  0  0  0  0  0  0
  148.8585  138.8428  154.0927 C   0  0  2  0  0  0  0  0  0  0  0  0
  150.3317  138.4097  153.9873 C   0  0  0  0  0  0  0  0  0  0  0  0
  148.1100  138.5121  152.8745 N   0  0  0  0  0  0  0  0  0  0  0  0
  146.6903  138.8625  152.8922 C   0  0  0  0  0  0  0  0  0  0  0  0
  145.8164  137.6488  152.5358 C   0  0  2  0  0  0  0  0  0  0  0  0
  144.4654  138.0366  152.6852 O   0  0  0  0  0  0  0  0  0  0  0  0
  146.0729  136.4355  153.4549 C   0  0  0  0  0  0  0  0  0  0  0  0
  146.6227  135.2720  152.7140 N   0  3  0  0  0  0  0  0  0  0  0  0
  147.0762  134.1676  153.5962 C   0  0  0  0  0  0  0  0  0  0  0  0
  147.6715  133.0225  152.7596 C   0  0  0  0  0  0  0  0  0  0  0  0
  146.7077  132.5684  151.8175 O   0  0  0  0  0  0  0  0  0  0  0  0
  146.3278  133.5947  150.9091 C   0  0  0  0  0  0  0  0  0  0  0  0
  145.6881  134.7593  151.6839 C   0  0  0  0  0  0  0  0  0  0  0  0
  150.1258  142.0403  155.7188 C   0  0  0  0  0  0  0  0  0  0  0  0
  152.7167  142.7708  157.6952 H   0  0  0  0  0  0  0  0  0  0  0  0
  151.2410  143.2489  158.5154 H   0  0  0  0  0  0  0  0  0  0  0  0
  151.6630  143.9731  156.9738 H   0  0  0  0  0  0  0  0  0  0  0  0
  151.3650  140.0518  157.9681 H   0  0  0  0  0  0  0  0  0  0  0  0
  147.7408  140.6350  154.6398 H   0  0  0  0  0  0  0  0  0  0  0  0
  149.0176  140.9249  153.4815 H   0  0  0  0  0  0  0  0  0  0  0  0
  148.4153  138.3147  154.9381 H   0  0  0  0  0  0  0  0  0  0  0  0
  150.8905  138.7177  154.8716 H   0  0  0  0  0  0  0  0  0  0  0  0
  150.8171  138.8566  153.1189 H   0  0  0  0  0  0  0  0  0  0  0  0
  150.4354  137.3275  153.9123 H   0  0  0  0  0  0  0  0  0  0  0  0
  148.2153  137.5235  152.6713 H   0  0  0  0  0  0  0  0  0  0  0  0
  146.3966  139.2474  153.8687 H   0  0  0  0  0  0  0  0  0  0  0  0
  146.5090  139.6617  152.1721 H   0  0  0  0  0  0  0  0  0  0  0  0
  145.9791  137.3928  151.4889 H   0  0  0  0  0  0  0  0  0  0  0  0
  144.4154  138.9800  152.6511 H   0  0  0  0  0  0  0  0  0  0  0  0
  146.7600  136.6949  154.2617 H   0  0  0  0  0  0  0  0  0  0  0  0
  145.1340  136.1591  153.9380 H   0  0  0  0  0  0  0  0  0  0  0  0
  147.8247  134.5233  154.3031 H   0  0  0  0  0  0  0  0  0  0  0  0
  146.2341  133.7973  154.1833 H   0  0  0  0  0  0  0  0  0  0  0  0
  148.5782  133.3452  152.2452 H   0  0  0  0  0  0  0  0  0  0  0  0
  147.9514  132.1907  153.4066 H   0  0  0  0  0  0  0  0  0  0  0  0
  147.1952  133.9338  150.3403 H   0  0  0  0  0  0  0  0  0  0  0  0
  145.6167  133.1857  150.1911 H   0  0  0  0  0  0  0  0  0  0  0  0
  144.7632  134.4295  152.1601 H   0  0  0  0  0  0  0  0  0  0  0  0
  145.4257  135.5586  150.9898 H   0  0  0  0  0  0  0  0  0  0  0  0
  149.8550  142.8926  155.1131 H   0  0  0  0  0  0  0  0  0  0  0  0
  147.4351  135.6094  152.2169 H   0  0  0  0  0  0  0  0  0  0  0  0
  1  2  1  0  0  0  0
  1 21  1  0  0  0  0
  1 22  1  0  0  0  0
  1 23  1  0  0  0  0
  2 20  2  0  0  0  0
  2  3  1  0  0  0  0
  3  4  2  0  0  0  0
  3 24  1  0  0  0  0
  4  5  1  0  0  0  0
  5  6  1  0  0  0  0
  5 20  1  0  0  0  0
  6  7  1  0  0  0  0
  6 25  1  0  0  0  0
  6 26  1  0  0  0  0
  7  8  1  0  0  0  0
  7  9  1  0  0  0  0
  7 27  1  0  0  0  0
  8 28  1  0  0  0  0
  8 29  1  0  0  0  0
  8 30  1  0  0  0  0
  9 10  1  0  0  0  0
  9 31  1  0  0  0  0
 10 11  1  0  0  0  0
 10 32  1  0  0  0  0
 10 33  1  0  0  0  0
 11 12  1  0  0  0  0
 11 13  1  0  0  0  0
 11 34  1  0  0  0  0
 12 35  1  0  0  0  0
 13 14  1  0  0  0  0
 13 36  1  0  0  0  0
 13 37  1  0  0  0  0
 14 19  1  0  0  0  0
 14 15  1  0  0  0  0
 14 47  1  0  0  0  0
 15 16  1  0  0  0  0
 15 38  1  0  0  0  0
 15 39  1  0  0  0  0
 16 17  1  0  0  0  0
 16 40  1  0  0  0  0
 16 41  1  0  0  0  0
 17 18  1  0  0  0  0
 18 19  1  0  0  0  0
 18 42  1  0  0  0  0
 18 43  1  0  0  0  0
 19 44  1  0  0  0  0
 19 45  1  0  0  0  0
 20 46  1  0  0  0  0
M  CHG  1  14   1
M  END
> <s_m_source_file>
AV-unprocessed.smi

> <i_m_source_file_index>
3031

> <i_lp_mmshare_version>
43012

> <i_f3d_flags>
0

> <s_epik_input>
W0NIM11jMVtjSF1ubihbY0hdMSlbQ0gyXVtDQEhdKFtDSDNdKVtOSF1bQ0gyXVtDQEhdKFtPSF0pW0NIMl1OMltDSDJdW0NIMl1PW0NIMl1bQ0gyXTI=

> <s_epik_cmdline>
J2VwaWtfcHl0aG9uJywgJy1waCcsICc3LjAnLCAnLXRuJywgJzgnLCAnLW1hJywgJzIwMCcsICctbWV0YWxfYmluZGluZycsICctaW1hZScsICc8aW5maWxlLm1hZT4nLCAnLW9tYWUnLCAnPG91dGZpbGUubWFlPic=

> <r_epik_Ionization_Penalty>
0.467051

> <r_epik_Ionization_Penalty_Charging>
0.202493

> <r_epik_Ionization_Penalty_Neutral>
0.264558

> <r_epik_State_Penalty>
1.34287

> <r_epik_Charging_Adjusted_Penalty>
1.54537

> <i_epik_Tot_Q>
1

> <i_epik_Tot_abs_Q>
1

> <r_epik_Metal_State_Penalty>
1.34281

> <b_epik_Metal_Only>
0

> <s_lp_Force_Field>
OPLS_2005

> <r_lp_Energy>
23.7878

> <b_lp_Chiralities_Consistent>
1

> <s_lp_Variant>
AV-unprocessed.smi:3031-5

> <Gold.Version>
5.8.1

> <Gold.Id.Protein>
6NUR|6NUR_protein|mol2

> <Gold.PLP.Fitness>
49.2011

> <Gold.PLP.PLP>
-36.8935

> <Gold.PLP.part.hbond>
-4.9753

> <Gold.PLP.part.metal>
0.0000

> <Gold.PLP.part.buried>
-3.0675

> <Gold.PLP.part.nonpolar>
-29.4979

> <Gold.PLP.part.repulsive>
0.1573

> <Gold.PLP.ligand.clash>
0.0000

> <Gold.PLP.ligand.torsion>
1.4889

> <Gold.PLP.Chemscore.Hbond>
3.9600

> <Gold.PLP.Chemscore.CHOScore>
0.9757

> <Gold.PLP.Chemscore.Metal>
0.0000

> <Gold.Chemscore.Hbonds>
donor molecule, donor type, donor heavy atom, donor atom, acceptor molecule, acceptor atom, score
      L1  H     9    31       P1  7948  1.00
      L1  H    12    35       P1 10175  1.00
      L1  H    14    47       P1  7948  2.00
      L1  C    20    46       P1  8028  1.00

> <Gold.PLP.Chemscore.Internal.Correction>
0.4784

> <Gold.Rescore>
     Score         DG    S(hbond)    S(metal)    S(lipo)     H(rot)  DE(clash)    DE(int)     intcor
     17.33     -18.82       2.89        0.00      89.49       2.65       0.07       1.42       ----

> <Gold.Chemscore.Fitness>
17.3343

> <Gold.Chemscore.DG>
-18.8239

> <Gold.Chemscore.ZeroCoef>
-5.4800

> <Gold.Chemscore.Hbond>
2.8932

> <Gold.Chemscore.Metal>
0.0000

> <Gold.Chemscore.Lipo>
89.4872

> <Gold.Chemscore.Internal_Hbond>
0.0000

> <Gold.Chemscore.DEClash>
0.0713

> <Gold.Chemscore.DEInternal>
1.4183

> <Gold.Chemscore.Rot>
2.6521

> <Gold.Chemscore.Internal.Correction>
   9.000000E+99

> <Gold.Chemscore.Hbonds>
donor molecule, donor type, donor heavy atom, donor atom, acceptor molecule, acceptor atom, score
      L1  H     9    31       P1  7948  0.95
      L1  H    12    35       P1 10175  0.98
      L1  H    14    47       P1  7948  1.00

> <Gold.Chemscore.Hbond.Weighted>
-9.6633

> <Gold.Chemscore.Metal.Weighted>
-0.0000

> <Gold.Chemscore.Lipo.Weighted>
-10.4700

> <Gold.Chemscore.Internal_Hbond.Weighted>
0.0000

> <Gold.Chemscore.DEClash.Weighted>
0.0713

> <Gold.Chemscore.DEInternal.Weighted>
1.4183

> <Gold.Chemscore.Rot.Weighted>
6.7894

> <Gold.Chemscore.Internal.Correction.Weighted>
   9.000000E+99

> <Gold.Protein.RotatedTorsions>
[ 6907 6896 6895 6894 ] final   39.91 input  -60.11 | X-H torsion
[ 7974 7965 7964 7962 ] final  -40.74 input  175.53 | X-H torsion
[ 8008 7997 7996 7995 ] final   79.21 input   59.86 | X-H torsion
[ 10167 10162 10161 10158 ] final   -6.93 input  -65.29 | X-H torsion
[ 10718 10713 10712 10709 ] final  121.91 input   66.30 | X-H torsion
[ 10763 10752 10751 10750 ] final  -83.54 input  -60.55 | X-H torsion
[ 11005 11000 10999 10996 ] final    8.62 input  -57.11 | X-H torsion

> <Gold.Protein.ActiveResidues>
 VAL166  LYS551  ARG553  GLY616  TRP617  ASP618  TYR619  PRO620  LYS621  CYS622 
 ASP623  PHE694  ASN695  SER759  ASP760  ASP761  ALA762  ILE779  LEU786  VAL792 
 PHE793  MET794  SER795  GLU796  ALA797  LYS798  CYS799  TRP800  GLU811  SER814 

> <Gold.Protein.RotatedAtoms>
  152.1757  134.8796  160.0530 H   0  0  0  0  0  0  0  0  0  0  0  0  # atno 6907 bound_to 6896
  151.9740  133.3730  159.4090 H   0  0  0  0  0  0  0  0  0  0  0  0  # atno 6908 bound_to 6896
  150.6909  134.4033  159.5172 H   0  0  0  0  0  0  0  0  0  0  0  0  # atno 6909 bound_to 6896
  146.0276  140.6772  142.9148 H   0  0  0  0  0  0  0  0  0  0  0  0  # atno 7974 bound_to 7965
  155.8664  140.3451  155.5791 H   0  0  0  0  0  0  0  0  0  0  0  0  # atno 8008 bound_to 7997
  155.7876  140.0867  157.2045 H   0  0  0  0  0  0  0  0  0  0  0  0  # atno 8009 bound_to 7997
  154.4014  140.1489  156.3112 H   0  0  0  0  0  0  0  0  0  0  0  0  # atno 8010 bound_to 7997
  140.7013  143.6138  150.8678 H   0  0  0  0  0  0  0  0  0  0  0  0  # atno 10167 bound_to 10162
  157.5782  131.1077  150.8238 H   0  0  0  0  0  0  0  0  0  0  0  0  # atno 10718 bound_to 10713
  154.5889  135.5552  153.7258 H   0  0  0  0  0  0  0  0  0  0  0  0  # atno 10763 bound_to 10752
  153.0109  135.6338  154.1877 H   0  0  0  0  0  0  0  0  0  0  0  0  # atno 10764 bound_to 10752
  154.1818  135.2887  155.3029 H   0  0  0  0  0  0  0  0  0  0  0  0  # atno 10765 bound_to 10752
  140.5349  134.0430  155.7885 H   0  0  0  0  0  0  0  0  0  0  0  0  # atno 11005 bound_to 11000
  144.7016  140.3677  143.7151 LP  0  0  0  0  0  0  0  0  0  0  0  0  # atno 17320 bound_to 7965
  145.7093  139.1680  143.2548 LP  0  0  0  0  0  0  0  0  0  0  0  0  # atno 17321 bound_to 7965
  139.9860  143.5898  152.2926 LP  0  0  0  0  0  0  0  0  0  0  0  0  # atno 17342 bound_to 10162
  139.6537  144.7661  151.2098 LP  0  0  0  0  0  0  0  0  0  0  0  0  # atno 17343 bound_to 10162
  156.8691  130.5140  149.5298 LP  0  0  0  0  0  0  0  0  0  0  0  0  # atno 17370 bound_to 10713
  156.0827  130.5833  150.9592 LP  0  0  0  0  0  0  0  0  0  0  0  0  # atno 17371 bound_to 10713
  141.1260  133.9382  157.2634 LP  0  0  0  0  0  0  0  0  0  0  0  0  # atno 17394 bound_to 11000
  139.9534  135.0170  156.9059 LP  0  0  0  0  0  0  0  0  0  0  0  0  # atno 17395 bound_to 11000

$$$$
