AV-unprocessed.smi:2032|AV-procd|sdf|8258|dock9
  -GOLD-   2272010533D 1   1.00000     0.00000
 Structure written by MMmdl.
 42 43  0  0  0  0  0  0  0  0  3 V2000
  152.7935  144.3972  158.2397 C   0  0  0  0  0  0  0  0  0  0  0  0
  151.8166  143.9582  159.3454 C   0  0  1  0  0  0  0  0  0  0  0  0
  150.6352  143.1153  158.8233 C   0  0  0  0  0  0  0  0  0  0  0  0
  151.0595  141.7317  158.4752 N   0  3  2  0  0  0  0  0  0  0  0  0
  149.9963  140.8408  157.9079 C   0  0  1  0  0  0  0  0  0  0  0  0
  149.5657  141.2180  156.4696 C   0  0  0  0  0  0  0  0  0  0  0  0
  150.4668  139.3636  157.9556 C   0  0  0  0  0  0  0  0  0  0  0  0
  149.3681  138.4238  158.1550 N   0  0  0  0  0  0  0  0  0  0  0  0
  149.4336  137.2873  158.8627 C   0  0  0  0  0  0  0  0  0  0  0  0
  150.4961  136.9552  159.3940 O   0  0  0  0  0  0  0  0  0  0  0  0
  148.2637  136.6126  158.9160 N   0  5  0  0  0  0  0  0  0  0  0  0
  147.8137  136.1403  160.0899 C   0  0  0  0  0  0  0  0  0  0  0  0
  147.5511  136.9265  161.1400 N   0  0  0  0  0  0  0  0  0  0  0  0
  147.0997  136.2253  162.2594 C   0  0  0  0  0  0  0  0  0  0  0  0
  147.0248  134.8723  162.0596 C   0  0  0  0  0  0  0  0  0  0  0  0
  147.5223  134.4361  160.4497 S   0  0  0  0  0  0  0  0  0  0  0  0
  151.7439  141.1190  159.6440 C   0  0  0  0  0  0  0  0  0  0  0  0
  152.9379  141.9771  160.0952 C   0  0  2  0  0  0  0  0  0  0  0  0
  153.6198  141.4024  161.3419 C   0  0  0  0  0  0  0  0  0  0  0  0
  152.4799  143.2864  160.4137 O   0  0  0  0  0  0  0  0  0  0  0  0
  152.2908  145.0330  157.5104 H   0  0  0  0  0  0  0  0  0  0  0  0
  153.2116  143.5508  157.6955 H   0  0  0  0  0  0  0  0  0  0  0  0
  153.6220  144.9694  158.6576 H   0  0  0  0  0  0  0  0  0  0  0  0
  151.4046  144.8708  159.7773 H   0  0  0  0  0  0  0  0  0  0  0  0
  149.8530  143.0664  159.5826 H   0  0  0  0  0  0  0  0  0  0  0  0
  150.2148  143.6300  157.9598 H   0  0  0  0  0  0  0  0  0  0  0  0
  149.1099  140.9512  158.5345 H   0  0  0  0  0  0  0  0  0  0  0  0
  148.8064  140.5366  156.0860 H   0  0  0  0  0  0  0  0  0  0  0  0
  150.4087  141.1872  155.7785 H   0  0  0  0  0  0  0  0  0  0  0  0
  149.1188  142.2112  156.4238 H   0  0  0  0  0  0  0  0  0  0  0  0
  150.9591  139.1050  157.0177 H   0  0  0  0  0  0  0  0  0  0  0  0
  151.2061  139.1930  158.7375 H   0  0  0  0  0  0  0  0  0  0  0  0
  148.4812  138.6561  157.7321 H   0  0  0  0  0  0  0  0  0  0  0  0
  146.8546  136.7708  163.1584 H   0  0  0  0  0  0  0  0  0  0  0  0
  146.7108  134.1101  162.7564 H   0  0  0  0  0  0  0  0  0  0  0  0
  151.0312  141.0086  160.4634 H   0  0  0  0  0  0  0  0  0  0  0  0
  152.1012  140.1183  159.4067 H   0  0  0  0  0  0  0  0  0  0  0  0
  153.6792  142.0249  159.2974 H   0  0  0  0  0  0  0  0  0  0  0  0
  153.9956  140.3961  161.1554 H   0  0  0  0  0  0  0  0  0  0  0  0
  152.9275  141.3505  162.1827 H   0  0  0  0  0  0  0  0  0  0  0  0
  154.4650  142.0212  161.6443 H   0  0  0  0  0  0  0  0  0  0  0  0
  151.7523  141.8330  157.7475 H   0  0  0  0  0  0  0  0  0  0  0  0
  1  2  1  0  0  0  0
  1 21  1  0  0  0  0
  1 22  1  0  0  0  0
  1 23  1  0  0  0  0
  2 20  1  0  0  0  0
  2  3  1  0  0  0  0
  2 24  1  0  0  0  0
  3  4  1  0  0  0  0
  3 25  1  0  0  0  0
  3 26  1  0  0  0  0
  4  5  1  0  0  0  0
  4 17  1  0  0  0  0
  4 42  1  0  0  0  0
  5  6  1  0  0  0  0
  5  7  1  0  0  0  0
  5 27  1  0  0  0  0
  6 28  1  0  0  0  0
  6 29  1  0  0  0  0
  6 30  1  0  0  0  0
  7  8  1  0  0  0  0
  7 31  1  0  0  0  0
  7 32  1  0  0  0  0
  8  9  1  0  0  0  0
  8 33  1  0  0  0  0
  9 10  2  0  0  0  0
  9 11  1  0  0  0  0
 11 12  1  0  0  0  0
 12 16  1  0  0  0  0
 12 13  2  0  0  0  0
 13 14  1  0  0  0  0
 14 15  2  0  0  0  0
 14 34  1  0  0  0  0
 15 16  1  0  0  0  0
 15 35  1  0  0  0  0
 17 18  1  0  0  0  0
 17 36  1  0  0  0  0
 17 37  1  0  0  0  0
 18 19  1  0  0  0  0
 18 20  1  0  0  0  0
 18 38  1  0  0  0  0
 19 39  1  0  0  0  0
 19 40  1  0  0  0  0
 19 41  1  0  0  0  0
M  CHG  1   4   1
M  CHG  1  11  -1
M  END
> <s_m_source_file>
AV-unprocessed.smi

> <i_m_source_file_index>
2032

> <i_lp_mmshare_version>
43012

> <i_f3d_flags>
0

> <s_epik_input>
W0NIM11bQ0BASF0xW0NIMl1OKFtDSDJdW0NASF0oTzEpW0NIM10pW0NASF0oW0NIM10pW0NIMl1bTkhdQyg9TylbTkhdYzJuW2NIXVtjSF1zMg==

> <s_epik_cmdline>
J2VwaWtfcHl0aG9uJywgJy1waCcsICc3LjAnLCAnLXRuJywgJzgnLCAnLW1hJywgJzIwMCcsICctbWV0YWxfYmluZGluZycsICctaW1hZScsICc8aW5maWxlLm1hZT4nLCAnLW9tYWUnLCAnPG91dGZpbGUubWFlPic=

> <r_lp_tautomer_probability>
0.999

> <r_epik_Ionization_Penalty>
6.71699

> <r_epik_Ionization_Penalty_Charging>
5.88592

> <r_epik_Ionization_Penalty_Neutral>
0.831074

> <r_epik_State_Penalty>
6.08365

> <r_epik_Charging_Adjusted_Penalty>
11.9696

> <i_epik_Tot_Q>
0

> <i_epik_Tot_abs_Q>
2

> <r_epik_Metal_State_Penalty>
2.0947

> <b_epik_Metal_Only>
1

> <s_lp_Force_Field>
OPLS_2005

> <r_lp_Energy>
13.797

> <b_lp_Chiralities_Consistent>
1

> <s_lp_Variant>
AV-unprocessed.smi:2032-28

> <Gold.Version>
5.8.1

> <Gold.Id.Protein>
6NUR|6NUR_protein|mol2

> <Gold.PLP.Fitness>
47.2912

> <Gold.PLP.PLP>
-43.1153

> <Gold.PLP.part.hbond>
-2.8785

> <Gold.PLP.part.metal>
0.0000

> <Gold.PLP.part.buried>
-6.3632

> <Gold.PLP.part.nonpolar>
-34.6412

> <Gold.PLP.part.repulsive>
0.2874

> <Gold.PLP.ligand.clash>
0.0000

> <Gold.PLP.ligand.torsion>
1.7668

> <Gold.PLP.Chemscore.Hbond>
2.5470

> <Gold.PLP.Chemscore.CHOScore>
0.0000

> <Gold.PLP.Chemscore.Metal>
0.0000

> <Gold.Chemscore.Hbonds>
donor molecule, donor type, donor heavy atom, donor atom, acceptor molecule, acceptor atom, score
      P1  H  6896  6909       L1    10  1.00
      P1  H  6931  6943       L1    13  0.76
      P1  H  6934  6947       L1    13  0.71

> <Gold.PLP.Chemscore.Internal.Correction>
0.0684

> <Gold.Rescore>
     Score         DG    S(hbond)    S(metal)    S(lipo)     H(rot)  DE(clash)    DE(int)     intcor
     18.97     -20.67       2.22        0.00     100.95       1.58       0.01       1.69       ----

> <Gold.Chemscore.Fitness>
18.9713

> <Gold.Chemscore.DG>
-20.6720

> <Gold.Chemscore.ZeroCoef>
-5.4800

> <Gold.Chemscore.Hbond>
2.2226

> <Gold.Chemscore.Metal>
0.0000

> <Gold.Chemscore.Lipo>
100.9479

> <Gold.Chemscore.Internal_Hbond>
0.0000

> <Gold.Chemscore.DEClash>
0.0126

> <Gold.Chemscore.DEInternal>
1.6882

> <Gold.Chemscore.Rot>
1.5791

> <Gold.Chemscore.Internal.Correction>
   9.000000E+99

> <Gold.Chemscore.Hbonds>
donor molecule, donor type, donor heavy atom, donor atom, acceptor molecule, acceptor atom, score
      P1  H  6896  6909       L1    10  0.93
      P1  H  6931  6943       L1    13  0.35
      P1  H  6934  6947       L1    13  0.65

> <Gold.Chemscore.Hbond.Weighted>
-7.4236

> <Gold.Chemscore.Metal.Weighted>
-0.0000

> <Gold.Chemscore.Lipo.Weighted>
-11.8109

> <Gold.Chemscore.Internal_Hbond.Weighted>
0.0000

> <Gold.Chemscore.DEClash.Weighted>
0.0126

> <Gold.Chemscore.DEInternal.Weighted>
1.6882

> <Gold.Chemscore.Rot.Weighted>
4.0425

> <Gold.Chemscore.Internal.Correction.Weighted>
   9.000000E+99

> <Gold.Protein.RotatedTorsions>
[ 6907 6896 6895 6894 ] final   95.06 input  -60.11 | X-H torsion
[ 7974 7965 7964 7962 ] final  -43.25 input  175.53 | X-H torsion
[ 8008 7997 7996 7995 ] final  161.36 input   59.86 | X-H torsion
[ 10167 10162 10161 10158 ] final  166.36 input  -65.29 | X-H torsion
[ 10718 10713 10712 10709 ] final  113.02 input   66.30 | X-H torsion
[ 10763 10752 10751 10750 ] final -100.32 input  -60.55 | X-H torsion
[ 11005 11000 10999 10996 ] final -149.61 input  -57.11 | X-H torsion

> <Gold.Protein.ActiveResidues>
 VAL166  LYS551  ARG553  GLY616  TRP617  ASP618  TYR619  PRO620  LYS621  CYS622 
 ASP623  PHE694  ASN695  SER759  ASP760  ASP761  ALA762  ILE779  LEU786  VAL792 
 PHE793  MET794  SER795  GLU796  ALA797  LYS798  CYS799  TRP800  GLU811  SER814 

> <Gold.Protein.RotatedAtoms>
  152.5446  134.1097  159.8353 H   0  0  0  0  0  0  0  0  0  0  0  0  # atno 6907 bound_to 6896
  151.1165  133.5127  159.2611 H   0  0  0  0  0  0  0  0  0  0  0  0  # atno 6908 bound_to 6896
  151.1826  135.0377  159.8853 H   0  0  0  0  0  0  0  0  0  0  0  0  # atno 6909 bound_to 6896
  146.0037  140.7044  142.9258 H   0  0  0  0  0  0  0  0  0  0  0  0  # atno 7974 bound_to 7965
  156.2108  140.1779  156.7699 H   0  0  0  0  0  0  0  0  0  0  0  0  # atno 8008 bound_to 7997
  154.5720  140.0681  156.9008 H   0  0  0  0  0  0  0  0  0  0  0  0  # atno 8009 bound_to 7997
  155.2656  140.3339  155.4272 H   0  0  0  0  0  0  0  0  0  0  0  0  # atno 8010 bound_to 7997
  139.4923  144.4035  151.9382 H   0  0  0  0  0  0  0  0  0  0  0  0  # atno 10167 bound_to 10162
  157.6361  131.0977  150.6980 H   0  0  0  0  0  0  0  0  0  0  0  0  # atno 10718 bound_to 10713
  154.7569  135.4939  153.9392 H   0  0  0  0  0  0  0  0  0  0  0  0  # atno 10763 bound_to 10752
  153.1206  135.6731  153.9349 H   0  0  0  0  0  0  0  0  0  0  0  0  # atno 10764 bound_to 10752
  153.9082  135.3102  155.3427 H   0  0  0  0  0  0  0  0  0  0  0  0  # atno 10765 bound_to 10752
  140.7489  134.3429  157.5130 H   0  0  0  0  0  0  0  0  0  0  0  0  # atno 11005 bound_to 11000
  144.6928  140.3278  143.7221 LP  0  0  0  0  0  0  0  0  0  0  0  0  # atno 17320 bound_to 7965
  145.7448  139.1775  143.2355 LP  0  0  0  0  0  0  0  0  0  0  0  0  # atno 17321 bound_to 7965
  140.3475  144.3129  150.5955 LP  0  0  0  0  0  0  0  0  0  0  0  0  # atno 17342 bound_to 10162
  140.5513  143.2206  151.7921 LP  0  0  0  0  0  0  0  0  0  0  0  0  # atno 17343 bound_to 10162
  156.7312  130.4710  149.5499 LP  0  0  0  0  0  0  0  0  0  0  0  0  # atno 17370 bound_to 10713
  156.1601  130.6368  151.0708 LP  0  0  0  0  0  0  0  0  0  0  0  0  # atno 17371 bound_to 10713
  139.8791  134.9129  156.3072 LP  0  0  0  0  0  0  0  0  0  0  0  0  # atno 17394 bound_to 11000
  140.9768  133.7292  156.0614 LP  0  0  0  0  0  0  0  0  0  0  0  0  # atno 17395 bound_to 11000

$$$$
