AV-unprocessed.smi:651|AV-procd|sdf|3186|dock2
  -GOLD-   22720 0113D 1   1.00000     0.00000
 Structure written by MMmdl.
 38 39  0  0  0  0  0  0  0  0  1 V2000
  151.5786  145.6014  159.7179 C   0  0  0  0  0  0  0  0  0  0  0  0
  151.5874  144.2183  159.1012 C   0  0  0  0  0  0  0  0  0  0  0  0
  152.6146  143.3012  159.4077 C   0  0  0  0  0  0  0  0  0  0  0  0
  152.5703  142.0232  158.8185 C   0  0  0  0  0  0  0  0  0  0  0  0
  151.5051  141.7118  157.9486 C   0  0  0  0  0  0  0  0  0  0  0  0
  151.4046  140.3424  157.2964 C   0  0  0  0  0  0  0  0  0  0  0  0
  150.8991  140.4222  155.8506 C   0  0  0  0  0  0  0  0  0  0  0  0
  151.6790  140.3958  154.8969 O   0  0  0  0  0  0  0  0  0  0  0  0
  149.5686  140.5090  155.7031 N   0  0  0  0  0  0  0  0  0  0  0  0
  148.8707  140.5711  154.4176 C   0  0  2  0  0  0  0  0  0  0  0  0
  147.9166  141.7786  154.3548 C   0  0  0  0  0  0  0  0  0  0  0  0
  146.6378  141.2984  153.6552 C   0  0  0  0  0  0  0  0  0  0  0  0
  146.9434  139.8894  153.1386 C   0  0  0  0  0  0  0  0  0  0  0  0
  148.0155  139.3209  154.0799 C   0  0  2  0  0  0  0  0  0  0  0  0
  147.3704  138.6209  155.2960 C   0  0  0  0  0  0  0  0  0  0  0  0
  146.6812  137.5031  155.0538 N   0  0  0  0  0  0  0  0  0  0  0  0
  147.4958  139.0727  156.4331 O   0  0  0  0  0  0  0  0  0  0  0  0
  150.5293  142.7023  157.7067 C   0  0  0  0  0  0  0  0  0  0  0  0
  150.5631  143.9302  158.2678 N   0  0  0  0  0  0  0  0  0  0  0  0
  152.5894  145.9189  159.9759 H   0  0  0  0  0  0  0  0  0  0  0  0
  150.9768  145.6019  160.6269 H   0  0  0  0  0  0  0  0  0  0  0  0
  151.1601  146.3349  159.0278 H   0  0  0  0  0  0  0  0  0  0  0  0
  153.4160  143.5674  160.0812 H   0  0  0  0  0  0  0  0  0  0  0  0
  153.3379  141.2948  159.0357 H   0  0  0  0  0  0  0  0  0  0  0  0
  152.3849  139.8639  157.3086 H   0  0  0  0  0  0  0  0  0  0  0  0
  150.7340  139.7080  157.8774 H   0  0  0  0  0  0  0  0  0  0  0  0
  148.9961  140.5193  156.5348 H   0  0  0  0  0  0  0  0  0  0  0  0
  149.6122  140.6955  153.6257 H   0  0  0  0  0  0  0  0  0  0  0  0
  147.6708  142.1524  155.3499 H   0  0  0  0  0  0  0  0  0  0  0  0
  148.3788  142.6022  153.8091 H   0  0  0  0  0  0  0  0  0  0  0  0
  145.8180  141.2603  154.3735 H   0  0  0  0  0  0  0  0  0  0  0  0
  146.3318  141.9676  152.8507 H   0  0  0  0  0  0  0  0  0  0  0  0
  146.0462  139.2713  153.0813 H   0  0  0  0  0  0  0  0  0  0  0  0
  147.3513  139.9526  152.1288 H   0  0  0  0  0  0  0  0  0  0  0  0
  148.6264  138.5890  153.5485 H   0  0  0  0  0  0  0  0  0  0  0  0
  146.2371  137.0092  155.8143 H   0  0  0  0  0  0  0  0  0  0  0  0
  146.6041  137.1574  154.1084 H   0  0  0  0  0  0  0  0  0  0  0  0
  149.6951  142.5026  157.0501 H   0  0  0  0  0  0  0  0  0  0  0  0
  1  2  1  0  0  0  0
  1 20  1  0  0  0  0
  1 21  1  0  0  0  0
  1 22  1  0  0  0  0
  2 19  1  0  0  0  0
  2  3  2  0  0  0  0
  3  4  1  0  0  0  0
  3 23  1  0  0  0  0
  4  5  2  0  0  0  0
  4 24  1  0  0  0  0
  5  6  1  0  0  0  0
  5 18  1  0  0  0  0
  6  7  1  0  0  0  0
  6 25  1  0  0  0  0
  6 26  1  0  0  0  0
  7  8  2  0  0  0  0
  7  9  1  0  0  0  0
  9 10  1  0  0  0  0
  9 27  1  0  0  0  0
 10 14  1  0  0  0  0
 10 11  1  0  0  0  0
 10 28  1  0  0  0  0
 11 12  1  0  0  0  0
 11 29  1  0  0  0  0
 11 30  1  0  0  0  0
 12 13  1  0  0  0  0
 12 31  1  0  0  0  0
 12 32  1  0  0  0  0
 13 14  1  0  0  0  0
 13 33  1  0  0  0  0
 13 34  1  0  0  0  0
 14 15  1  0  0  0  0
 14 35  1  0  0  0  0
 15 16  1  0  0  0  0
 15 17  2  0  0  0  0
 16 36  1  0  0  0  0
 16 37  1  0  0  0  0
 18 19  2  0  0  0  0
 18 38  1  0  0  0  0
M  END
> <s_m_source_file>
AV-unprocessed.smi

> <i_m_source_file_index>
651

> <i_lp_mmshare_version>
43012

> <i_f3d_flags>
0

> <s_epik_input>
W0NIM11jMVtjSF1bY0hdYyhbY0hdbjEpW0NIMl1DKD1PKVtOSF1bQ0BASF0yW0NIMl1bQ0gyXVtDSDJdW0NASF0yQyg9TylbTkgyXQ==

> <s_epik_cmdline>
J2VwaWtfcHl0aG9uJywgJy1waCcsICc3LjAnLCAnLXRuJywgJzgnLCAnLW1hJywgJzIwMCcsICctbWV0YWxfYmluZGluZycsICctaW1hZScsICc8aW5maWxlLm1hZT4nLCAnLW9tYWUnLCAnPG91dGZpbGUubWFlPic=

> <r_epik_Ionization_Penalty>
0.0159502

> <r_epik_Ionization_Penalty_Charging>
0

> <r_epik_Ionization_Penalty_Neutral>
0.0159502

> <r_epik_State_Penalty>
0.012563

> <r_epik_Charging_Adjusted_Penalty>
0.012563

> <i_epik_Tot_Q>
0

> <i_epik_Tot_abs_Q>
0

> <r_epik_Metal_State_Penalty>
0.0122326

> <b_epik_Metal_Only>
0

> <s_lp_Force_Field>
OPLS_2005

> <r_lp_Energy>
13.1482

> <b_lp_Chiralities_Consistent>
1

> <s_lp_Variant>
AV-unprocessed.smi:651-3

> <Gold.Version>
5.8.1

> <Gold.Id.Protein>
6NUR|6NUR_protein|mol2

> <Gold.PLP.Fitness>
40.5475

> <Gold.PLP.PLP>
-38.1398

> <Gold.PLP.part.hbond>
-1.0000

> <Gold.PLP.part.metal>
0.0000

> <Gold.PLP.part.buried>
-3.9041

> <Gold.PLP.part.nonpolar>
-33.5532

> <Gold.PLP.part.repulsive>
0.2788

> <Gold.PLP.ligand.clash>
0.0000

> <Gold.PLP.ligand.torsion>
0.7314

> <Gold.PLP.Chemscore.Hbond>
0.9280

> <Gold.PLP.Chemscore.CHOScore>
0.3520

> <Gold.PLP.Chemscore.Metal>
0.0000

> <Gold.Chemscore.Hbonds>
donor molecule, donor type, donor heavy atom, donor atom, acceptor molecule, acceptor atom, score
      P1  H  7989  7998       L1     8  0.74
      L1  C    18    38       P1  8028  0.31

> <Gold.PLP.Chemscore.Internal.Correction>
0.0303

> <Gold.Rescore>
     Score         DG    S(hbond)    S(metal)    S(lipo)     H(rot)  DE(clash)    DE(int)     intcor
     13.42     -15.65       0.93        0.00     103.52       1.97       0.08       2.16       ----

> <Gold.Chemscore.Fitness>
13.4201

> <Gold.Chemscore.DG>
-15.6513

> <Gold.Chemscore.ZeroCoef>
-5.4800

> <Gold.Chemscore.Hbond>
0.9294

> <Gold.Chemscore.Metal>
0.0000

> <Gold.Chemscore.Lipo>
103.5154

> <Gold.Chemscore.Internal_Hbond>
0.0000

> <Gold.Chemscore.DEClash>
0.0761

> <Gold.Chemscore.DEInternal>
2.1551

> <Gold.Chemscore.Rot>
1.9704

> <Gold.Chemscore.Internal.Correction>
   9.000000E+99

> <Gold.Chemscore.Hbonds>
donor molecule, donor type, donor heavy atom, donor atom, acceptor molecule, acceptor atom, score
      P1  H  7989  7998       L1     8  0.71

> <Gold.Chemscore.Hbond.Weighted>
-3.1043

> <Gold.Chemscore.Metal.Weighted>
-0.0000

> <Gold.Chemscore.Lipo.Weighted>
-12.1113

> <Gold.Chemscore.Internal_Hbond.Weighted>
0.0000

> <Gold.Chemscore.DEClash.Weighted>
0.0761

> <Gold.Chemscore.DEInternal.Weighted>
2.1551

> <Gold.Chemscore.Rot.Weighted>
5.0443

> <Gold.Chemscore.Internal.Correction.Weighted>
   9.000000E+99

> <Gold.Protein.RotatedTorsions>
[ 6907 6896 6895 6894 ] final   16.58 input  -60.11 | X-H torsion
[ 7974 7965 7964 7962 ] final -106.49 input  175.53 | X-H torsion
[ 8008 7997 7996 7995 ] final   20.58 input   59.86 | X-H torsion
[ 10167 10162 10161 10158 ] final -136.39 input  -65.29 | X-H torsion
[ 10718 10713 10712 10709 ] final -115.45 input   66.30 | X-H torsion
[ 10763 10752 10751 10750 ] final   -9.63 input  -60.55 | X-H torsion
[ 11005 11000 10999 10996 ] final  -33.04 input  -57.11 | X-H torsion

> <Gold.Protein.ActiveResidues>
 VAL166  LYS551  ARG553  GLY616  TRP617  ASP618  TYR619  PRO620  LYS621  CYS622 
 ASP623  PHE694  ASN695  SER759  ASP760  ASP761  ALA762  ILE779  LEU786  VAL792 
 PHE793  MET794  SER795  GLU796  ALA797  LYS798  CYS799  TRP800  GLU811  SER814 

> <Gold.Protein.RotatedAtoms>
  151.8361  135.0606  160.0442 H   0  0  0  0  0  0  0  0  0  0  0  0  # atno 6907 bound_to 6896
  152.2844  133.5497  159.5526 H   0  0  0  0  0  0  0  0  0  0  0  0  # atno 6908 bound_to 6896
  150.7203  134.0434  159.3815 H   0  0  0  0  0  0  0  0  0  0  0  0  # atno 6909 bound_to 6896
  145.2172  140.9120  143.3280 H   0  0  0  0  0  0  0  0  0  0  0  0  # atno 7974 bound_to 7965
  154.9377  140.3049  155.5136 H   0  0  0  0  0  0  0  0  0  0  0  0  # atno 8008 bound_to 7997
  156.2998  140.2342  156.4381 H   0  0  0  0  0  0  0  0  0  0  0  0  # atno 8009 bound_to 7997
  154.8175  140.0425  157.1376 H   0  0  0  0  0  0  0  0  0  0  0  0  # atno 8010 bound_to 7997
  139.8683  143.6990  152.2643 H   0  0  0  0  0  0  0  0  0  0  0  0  # atno 10167 bound_to 10162
  156.0897  130.6081  150.8908 H   0  0  0  0  0  0  0  0  0  0  0  0  # atno 10718 bound_to 10713
  153.4576  135.7016  153.6070 H   0  0  0  0  0  0  0  0  0  0  0  0  # atno 10763 bound_to 10752
  153.4378  135.3787  155.2210 H   0  0  0  0  0  0  0  0  0  0  0  0  # atno 10764 bound_to 10752
  154.8728  135.3966  154.3997 H   0  0  0  0  0  0  0  0  0  0  0  0  # atno 10765 bound_to 10752
  140.9602  133.7169  156.1357 H   0  0  0  0  0  0  0  0  0  0  0  0  # atno 11005 bound_to 11000
  144.9800  139.3793  143.6267 LP  0  0  0  0  0  0  0  0  0  0  0  0  # atno 17320 bound_to 7965
  146.3384  139.8936  142.8805 LP  0  0  0  0  0  0  0  0  0  0  0  0  # atno 17321 bound_to 7965
  139.7308  144.7582  151.0805 LP  0  0  0  0  0  0  0  0  0  0  0  0  # atno 17342 bound_to 10162
  140.7765  143.5090  150.9676 LP  0  0  0  0  0  0  0  0  0  0  0  0  # atno 17343 bound_to 10162
  157.6042  131.0940  150.8908 LP  0  0  0  0  0  0  0  0  0  0  0  0  # atno 17370 bound_to 10713
  156.9060  130.5263  149.5281 LP  0  0  0  0  0  0  0  0  0  0  0  0  # atno 17371 bound_to 10713
  140.7479  134.4078  157.5546 LP  0  0  0  0  0  0  0  0  0  0  0  0  # atno 17394 bound_to 11000
  139.8875  134.8880  156.2523 LP  0  0  0  0  0  0  0  0  0  0  0  0  # atno 17395 bound_to 11000

$$$$
