AV-unprocessed.smi:2339|AV-procd|sdf|9337|dock8
  -GOLD-   2272012563D 1   1.00000     0.00000
 Structure written by MMmdl.
 49 52  0  0  0  0  0  0  0  0  1 V2000
  148.0605  131.1201  161.1728 C   0  0  0  0  0  0  0  0  0  0  0  0
  147.3606  131.9774  160.1127 C   0  0  0  0  0  0  0  0  0  0  0  0
  147.4606  133.3987  160.4126 N   0  0  0  0  0  0  0  0  0  0  0  0
  146.9023  133.9331  161.5694 C   0  0  0  0  0  0  0  0  0  0  0  0
  146.8855  135.2479  161.8624 C   0  0  0  0  0  0  0  0  0  0  0  0
  147.4864  136.2083  160.9149 C   0  0  0  0  0  0  0  0  0  0  0  0
  147.4839  137.4174  161.1465 O   0  0  0  0  0  0  0  0  0  0  0  0
  148.0871  135.6362  159.6817 C   0  0  0  0  0  0  0  0  0  0  0  0
  148.6457  136.5534  158.7793 N   0  0  0  0  0  0  0  0  0  0  0  0
  149.8309  137.1935  158.8381 C   0  0  0  0  0  0  0  0  0  0  0  0
  150.6355  137.1133  159.7638 O   0  0  0  0  0  0  0  0  0  0  0  0
  150.0556  138.0062  157.7913 N   0  0  0  0  0  0  0  0  0  0  0  0
  151.2380  138.8423  157.5476 C   0  0  1  0  0  0  0  0  0  0  0  0
  151.7304  138.8218  156.0799 C   0  0  1  0  0  0  0  0  0  0  0  0
  151.2333  137.8352  155.0503 C   0  0  0  0  0  0  0  0  0  0  0  0
  150.1508  138.6282  154.3127 C   0  0  0  0  0  0  0  0  0  0  0  0
  149.7801  139.6654  155.2177 O   0  0  0  0  0  0  0  0  0  0  0  0
  150.9653  140.1182  155.8665 C   0  0  1  0  0  0  0  0  0  0  0  0
  150.8713  140.3371  157.3903 C   0  0  0  0  0  0  0  0  0  0  0  0
  149.5542  140.8754  157.9497 C   0  0  0  0  0  0  0  0  0  0  0  0
  149.6575  142.4006  157.9260 C   0  0  0  0  0  0  0  0  0  0  0  0
  151.1549  142.7075  158.0198 C   0  0  0  0  0  0  0  0  0  0  0  0
  151.8644  141.3501  157.9601 C   0  0  0  0  0  0  0  0  0  0  0  0
  148.0305  134.2915  159.5071 C   0  0  0  0  0  0  0  0  0  0  0  0
  147.9673  130.0603  160.9358 H   0  0  0  0  0  0  0  0  0  0  0  0
  147.6258  131.2801  162.1598 H   0  0  0  0  0  0  0  0  0  0  0  0
  149.1238  131.3552  161.2307 H   0  0  0  0  0  0  0  0  0  0  0  0
  147.7943  131.7806  159.1315 H   0  0  0  0  0  0  0  0  0  0  0  0
  146.3097  131.6941  160.0432 H   0  0  0  0  0  0  0  0  0  0  0  0
  146.4757  133.1994  162.2380 H   0  0  0  0  0  0  0  0  0  0  0  0
  146.4415  135.6170  162.7754 H   0  0  0  0  0  0  0  0  0  0  0  0
  148.0545  136.7829  157.9934 H   0  0  0  0  0  0  0  0  0  0  0  0
  149.2938  138.1252  157.1389 H   0  0  0  0  0  0  0  0  0  0  0  0
  152.0437  138.6921  158.2686 H   0  0  0  0  0  0  0  0  0  0  0  0
  152.8069  138.9942  156.0350 H   0  0  0  0  0  0  0  0  0  0  0  0
  152.0223  137.5208  154.3668 H   0  0  0  0  0  0  0  0  0  0  0  0
  150.8221  136.9342  155.5027 H   0  0  0  0  0  0  0  0  0  0  0  0
  150.5573  139.0786  153.4061 H   0  0  0  0  0  0  0  0  0  0  0  0
  149.2943  138.0140  154.0348 H   0  0  0  0  0  0  0  0  0  0  0  0
  151.5130  140.8732  155.3003 H   0  0  0  0  0  0  0  0  0  0  0  0
  148.6829  140.5288  157.3931 H   0  0  0  0  0  0  0  0  0  0  0  0
  149.4235  140.5400  158.9796 H   0  0  0  0  0  0  0  0  0  0  0  0
  149.2629  142.7833  156.9838 H   0  0  0  0  0  0  0  0  0  0  0  0
  149.0866  142.8601  158.7333 H   0  0  0  0  0  0  0  0  0  0  0  0
  151.4607  143.3393  157.1850 H   0  0  0  0  0  0  0  0  0  0  0  0
  151.4021  143.2375  158.9403 H   0  0  0  0  0  0  0  0  0  0  0  0
  152.1572  141.0552  158.9687 H   0  0  0  0  0  0  0  0  0  0  0  0
  152.7828  141.4092  157.3743 H   0  0  0  0  0  0  0  0  0  0  0  0
  148.4213  133.7980  158.6311 H   0  0  0  0  0  0  0  0  0  0  0  0
  1  2  1  0  0  0  0
  1 25  1  0  0  0  0
  1 26  1  0  0  0  0
  1 27  1  0  0  0  0
  2  3  1  0  0  0  0
  2 28  1  0  0  0  0
  2 29  1  0  0  0  0
  3 24  1  0  0  0  0
  3  4  1  0  0  0  0
  4  5  2  0  0  0  0
  4 30  1  0  0  0  0
  5  6  1  0  0  0  0
  5 31  1  0  0  0  0
  6  7  2  0  0  0  0
  6  8  1  0  0  0  0
  8  9  1  0  0  0  0
  8 24  2  0  0  0  0
  9 10  1  0  0  0  0
  9 32  1  0  0  0  0
 10 11  2  0  0  0  0
 10 12  1  0  0  0  0
 12 13  1  0  0  0  0
 12 33  1  0  0  0  0
 13 19  1  0  0  0  0
 13 14  1  0  0  0  0
 13 34  1  0  0  0  0
 14 18  1  0  0  0  0
 14 15  1  0  0  0  0
 14 35  1  0  0  0  0
 15 16  1  0  0  0  0
 15 36  1  0  0  0  0
 15 37  1  0  0  0  0
 16 17  1  0  0  0  0
 16 38  1  0  0  0  0
 16 39  1  0  0  0  0
 17 18  1  0  0  0  0
 18 19  1  0  0  0  0
 18 40  1  0  0  0  0
 19 23  1  0  0  0  0
 19 20  1  0  0  0  0
 20 21  1  0  0  0  0
 20 41  1  0  0  0  0
 20 42  1  0  0  0  0
 21 22  1  0  0  0  0
 21 43  1  0  0  0  0
 21 44  1  0  0  0  0
 22 23  1  0  0  0  0
 22 45  1  0  0  0  0
 22 46  1  0  0  0  0
 23 47  1  0  0  0  0
 23 48  1  0  0  0  0
 24 49  1  0  0  0  0
M  END
> <s_m_source_file>
AV-unprocessed.smi

> <i_m_source_file_index>
2339

> <i_lp_mmshare_version>
43012

> <i_f3d_flags>
0

> <s_epik_input>
W0NIM11bQ0gyXW4xW2NIXVtjSF1jKD1PKWMoW2NIXTEpW05IXUMoPU8pW05IXVtDQEBIXTJbQ0BASF0oW0NIMl1bQ0gyXU8zKVtDQEBIXTNDMjRbQ0gyXVtDSDJdW0NIMl1bQ0gyXTQ=

> <s_epik_cmdline>
J2VwaWtfcHl0aG9uJywgJy1waCcsICc3LjAnLCAnLXRuJywgJzgnLCAnLW1hJywgJzIwMCcsICctbWV0YWxfYmluZGluZycsICctaW1hZScsICc8aW5maWxlLm1hZT4nLCAnLW9tYWUnLCAnPG91dGZpbGUubWFlPic=

> <r_lp_tautomer_probability>
1

> <r_epik_Ionization_Penalty>
0.00145966

> <r_epik_Ionization_Penalty_Charging>
0.00143969

> <r_epik_Ionization_Penalty_Neutral>
1.99697e-05

> <r_epik_State_Penalty>
0.000961843

> <r_epik_Charging_Adjusted_Penalty>
0.00240153

> <i_epik_Tot_Q>
0

> <i_epik_Tot_abs_Q>
0

> <r_epik_Metal_State_Penalty>
-0

> <b_epik_Metal_Only>
0

> <s_lp_Force_Field>
OPLS_2005

> <r_lp_Energy>
59.7263

> <b_lp_Chiralities_Consistent>
1

> <s_lp_Variant>
AV-unprocessed.smi:2339-2

> <Gold.Version>
5.8.1

> <Gold.Id.Protein>
6NUR|6NUR_protein|mol2

> <Gold.PLP.Fitness>
45.4868

> <Gold.PLP.PLP>
-39.0551

> <Gold.PLP.part.hbond>
-3.1108

> <Gold.PLP.part.metal>
0.0000

> <Gold.PLP.part.buried>
-4.5502

> <Gold.PLP.part.nonpolar>
-31.8895

> <Gold.PLP.part.repulsive>
0.2694

> <Gold.PLP.ligand.clash>
0.0000

> <Gold.PLP.ligand.torsion>
0.8440

> <Gold.PLP.Chemscore.Hbond>
2.6387

> <Gold.PLP.Chemscore.CHOScore>
0.0000

> <Gold.PLP.Chemscore.Metal>
0.0000

> <Gold.Chemscore.Hbonds>
donor molecule, donor type, donor heavy atom, donor atom, acceptor molecule, acceptor atom, score
      P1  H  6896  6909       L1    11  0.88
      P1  H  6931  6943       L1     7  0.77
      P1  H  6934  6947       L1     7  0.94

> <Gold.PLP.Chemscore.Internal.Correction>
0.2034

> <Gold.Rescore>
     Score         DG    S(hbond)    S(metal)    S(lipo)     H(rot)  DE(clash)    DE(int)     intcor
     21.23     -22.06       2.69        0.00      90.57       1.17       0.00       0.83       ----

> <Gold.Chemscore.Fitness>
21.2275

> <Gold.Chemscore.DG>
-22.0615

> <Gold.Chemscore.ZeroCoef>
-5.4800

> <Gold.Chemscore.Hbond>
2.6865

> <Gold.Chemscore.Metal>
0.0000

> <Gold.Chemscore.Lipo>
90.5655

> <Gold.Chemscore.Internal_Hbond>
0.0000

> <Gold.Chemscore.DEClash>
0.0009

> <Gold.Chemscore.DEInternal>
0.8331

> <Gold.Chemscore.Rot>
1.1670

> <Gold.Chemscore.Internal.Correction>
   9.000000E+99

> <Gold.Chemscore.Hbonds>
donor molecule, donor type, donor heavy atom, donor atom, acceptor molecule, acceptor atom, score
      P1  H  6896  6909       L1    11  0.56
      P1  H  6931  6943       L1     7  0.76
      P1  H  6934  6947       L1     7  0.91

> <Gold.Chemscore.Hbond.Weighted>
-8.9728

> <Gold.Chemscore.Metal.Weighted>
-0.0000

> <Gold.Chemscore.Lipo.Weighted>
-10.5962

> <Gold.Chemscore.Internal_Hbond.Weighted>
0.0000

> <Gold.Chemscore.DEClash.Weighted>
0.0009

> <Gold.Chemscore.DEInternal.Weighted>
0.8331

> <Gold.Chemscore.Rot.Weighted>
2.9874

> <Gold.Chemscore.Internal.Correction.Weighted>
   9.000000E+99

> <Gold.Protein.RotatedTorsions>
[ 6907 6896 6895 6894 ] final  101.25 input  -60.11 | X-H torsion
[ 7974 7965 7964 7962 ] final  -43.47 input  175.53 | X-H torsion
[ 8008 7997 7996 7995 ] final -138.41 input   59.86 | X-H torsion
[ 10167 10162 10161 10158 ] final  -13.39 input  -65.29 | X-H torsion
[ 10718 10713 10712 10709 ] final -160.95 input   66.30 | X-H torsion
[ 10763 10752 10751 10750 ] final -107.55 input  -60.55 | X-H torsion
[ 11005 11000 10999 10996 ] final  122.72 input  -57.11 | X-H torsion

> <Gold.Protein.ActiveResidues>
 VAL166  LYS551  ARG553  GLY616  TRP617  ASP618  TYR619  PRO620  LYS621  CYS622 
 ASP623  PHE694  ASN695  SER759  ASP760  ASP761  ALA762  ILE779  LEU786  VAL792 
 PHE793  MET794  SER795  GLU796  ALA797  LYS798  CYS799  TRP800  GLU811  SER814 

> <Gold.Protein.RotatedAtoms>
  152.5353  134.0154  159.7956 H   0  0  0  0  0  0  0  0  0  0  0  0  # atno 6907 bound_to 6896
  151.0349  133.5750  159.2664 H   0  0  0  0  0  0  0  0  0  0  0  0  # atno 6908 bound_to 6896
  151.2741  135.0701  159.9198 H   0  0  0  0  0  0  0  0  0  0  0  0  # atno 6909 bound_to 6896
  146.0015  140.7068  142.9268 H   0  0  0  0  0  0  0  0  0  0  0  0  # atno 7974 bound_to 7965
  155.4279  140.0523  157.3021 H   0  0  0  0  0  0  0  0  0  0  0  0  # atno 8008 bound_to 7997
  154.4873  140.2106  155.9585 H   0  0  0  0  0  0  0  0  0  0  0  0  # atno 8009 bound_to 7997
  156.1293  140.3174  155.8329 H   0  0  0  0  0  0  0  0  0  0  0  0  # atno 8010 bound_to 7997
  140.7181  143.5431  150.9386 H   0  0  0  0  0  0  0  0  0  0  0  0  # atno 10167 bound_to 10162
  156.5894  130.8763  151.2886 H   0  0  0  0  0  0  0  0  0  0  0  0  # atno 10718 bound_to 10713
  154.8082  135.4671  154.0446 H   0  0  0  0  0  0  0  0  0  0  0  0  # atno 10763 bound_to 10752
  153.1898  135.6853  153.8374 H   0  0  0  0  0  0  0  0  0  0  0  0  # atno 10764 bound_to 10752
  153.7895  135.3245  155.3354 H   0  0  0  0  0  0  0  0  0  0  0  0  # atno 10765 bound_to 10752
  139.9281  134.9641  156.8151 H   0  0  0  0  0  0  0  0  0  0  0  0  # atno 11005 bound_to 11000
  144.6921  140.3242  143.7227 LP  0  0  0  0  0  0  0  0  0  0  0  0  # atno 17320 bound_to 7965
  145.7480  139.1784  143.2338 LP  0  0  0  0  0  0  0  0  0  0  0  0  # atno 17321 bound_to 7965
  139.9154  143.6670  152.3107 LP  0  0  0  0  0  0  0  0  0  0  0  0  # atno 17342 bound_to 10162
  139.7068  144.7627  151.1180 LP  0  0  0  0  0  0  0  0  0  0  0  0  # atno 17343 bound_to 10162
  157.7307  130.9690  150.1846 LP  0  0  0  0  0  0  0  0  0  0  0  0  # atno 17370 bound_to 10713
  156.2563  130.3706  149.8178 LP  0  0  0  0  0  0  0  0  0  0  0  0  # atno 17371 bound_to 10713
  140.6280  133.9932  155.7648 LP  0  0  0  0  0  0  0  0  0  0  0  0  # atno 17394 bound_to 11000
  141.0851  134.0002  157.3325 LP  0  0  0  0  0  0  0  0  0  0  0  0  # atno 17395 bound_to 11000

$$$$
