AV-unprocessed.smi:2251|AV-procd|sdf|9101|dock5
  -GOLD-   2272012303D 1   1.00000     0.00000
 Structure written by MMmdl.
 44 45  0  0  0  0  0  0  0  0  1 V2000
  147.5075  140.9302  153.4581 C   0  0  0  0  0  0  0  0  0  0  0  0
  148.7261  140.5370  154.2859 C   0  0  0  0  0  0  0  0  0  0  0  0
  149.1283  139.3739  154.2801 O   0  0  0  0  0  0  0  0  0  0  0  0
  149.3061  141.5194  154.9927 N   0  0  0  0  0  0  0  0  0  0  0  0
  150.4899  141.3640  155.8349 C   0  0  0  0  0  0  0  0  0  0  0  0
  150.2321  141.7227  157.3036 C   0  0  0  0  0  0  0  0  0  0  0  0
  149.1109  142.0623  157.6846 O   0  0  0  0  0  0  0  0  0  0  0  0
  151.2848  141.6213  158.1261 N   0  0  0  0  0  0  0  0  0  0  0  0
  151.2479  141.9110  159.5562 C   0  0  0  0  0  0  0  0  0  0  0  0
  152.5166  142.6697  160.0407 C   0  0  0  0  0  0  0  0  0  0  0  0
  153.5462  141.6327  160.5438 C   0  0  0  0  0  0  0  0  0  0  0  0
  153.9380  141.6260  161.9043 C   0  0  0  0  0  0  0  0  0  0  0  0
  154.8667  140.6663  162.3520 C   0  0  0  0  0  0  0  0  0  0  0  0
  155.4133  139.7324  161.5481 N   0  0  0  0  0  0  0  0  0  0  0  0
  155.0399  139.7281  160.2524 C   0  0  0  0  0  0  0  0  0  0  0  0
  154.1187  140.6431  159.7052 C   0  0  0  0  0  0  0  0  0  0  0  0
  153.0964  143.5464  158.8862 C   0  0  0  0  0  0  0  0  0  0  0  0
  152.1988  144.7268  158.4727 C   0  0  0  0  0  0  0  0  0  0  0  0
  151.8760  145.6237  159.6729 C   0  0  0  0  0  0  0  0  0  0  0  0
  151.2537  144.8091  160.8125 C   0  0  0  0  0  0  0  0  0  0  0  0
  152.1505  143.6234  161.2153 C   0  0  0  0  0  0  0  0  0  0  0  0
  146.7641  141.4274  154.0818 H   0  0  0  0  0  0  0  0  0  0  0  0
  147.0431  140.0514  153.0096 H   0  0  0  0  0  0  0  0  0  0  0  0
  147.7973  141.6098  152.6561 H   0  0  0  0  0  0  0  0  0  0  0  0
  148.9108  142.4464  154.9306 H   0  0  0  0  0  0  0  0  0  0  0  0
  150.8117  140.3238  155.7853 H   0  0  0  0  0  0  0  0  0  0  0  0
  151.3114  141.9650  155.4407 H   0  0  0  0  0  0  0  0  0  0  0  0
  152.1701  141.3276  157.7389 H   0  0  0  0  0  0  0  0  0  0  0  0
  150.3388  142.4706  159.7726 H   0  0  0  0  0  0  0  0  0  0  0  0
  151.1494  140.9670  160.0942 H   0  0  0  0  0  0  0  0  0  0  0  0
  153.5336  142.3380  162.6078 H   0  0  0  0  0  0  0  0  0  0  0  0
  155.1757  140.6474  163.3867 H   0  0  0  0  0  0  0  0  0  0  0  0
  155.4868  138.9675  159.6294 H   0  0  0  0  0  0  0  0  0  0  0  0
  153.8741  140.5578  158.6582 H   0  0  0  0  0  0  0  0  0  0  0  0
  154.0508  143.9705  159.2016 H   0  0  0  0  0  0  0  0  0  0  0  0
  153.3084  142.9397  158.0051 H   0  0  0  0  0  0  0  0  0  0  0  0
  152.7009  145.3150  157.7041 H   0  0  0  0  0  0  0  0  0  0  0  0
  151.2770  144.3653  158.0171 H   0  0  0  0  0  0  0  0  0  0  0  0
  152.7891  146.1056  160.0250 H   0  0  0  0  0  0  0  0  0  0  0  0
  151.1991  146.4235  159.3715 H   0  0  0  0  0  0  0  0  0  0  0  0
  151.0919  145.4549  161.6760 H   0  0  0  0  0  0  0  0  0  0  0  0
  150.2675  144.4524  160.5162 H   0  0  0  0  0  0  0  0  0  0  0  0
  151.6576  143.0779  162.0198 H   0  0  0  0  0  0  0  0  0  0  0  0
  153.0695  144.0236  161.6466 H   0  0  0  0  0  0  0  0  0  0  0  0
  1  2  1  0  0  0  0
  1 22  1  0  0  0  0
  1 23  1  0  0  0  0
  1 24  1  0  0  0  0
  2  3  2  0  0  0  0
  2  4  1  0  0  0  0
  4  5  1  0  0  0  0
  4 25  1  0  0  0  0
  5  6  1  0  0  0  0
  5 26  1  0  0  0  0
  5 27  1  0  0  0  0
  6  7  2  0  0  0  0
  6  8  1  0  0  0  0
  8  9  1  0  0  0  0
  8 28  1  0  0  0  0
  9 10  1  0  0  0  0
  9 29  1  0  0  0  0
  9 30  1  0  0  0  0
 10 21  1  0  0  0  0
 10 11  1  0  0  0  0
 10 17  1  0  0  0  0
 11 16  1  0  0  0  0
 11 12  2  0  0  0  0
 12 13  1  0  0  0  0
 12 31  1  0  0  0  0
 13 14  2  0  0  0  0
 13 32  1  0  0  0  0
 14 15  1  0  0  0  0
 15 16  2  0  0  0  0
 15 33  1  0  0  0  0
 16 34  1  0  0  0  0
 17 18  1  0  0  0  0
 17 35  1  0  0  0  0
 17 36  1  0  0  0  0
 18 19  1  0  0  0  0
 18 37  1  0  0  0  0
 18 38  1  0  0  0  0
 19 20  1  0  0  0  0
 19 39  1  0  0  0  0
 19 40  1  0  0  0  0
 20 21  1  0  0  0  0
 20 41  1  0  0  0  0
 20 42  1  0  0  0  0
 21 43  1  0  0  0  0
 21 44  1  0  0  0  0
M  END
> <s_m_source_file>
AV-unprocessed.smi

> <i_m_source_file_index>
2251

> <i_lp_mmshare_version>
43012

> <i_f3d_flags>
0

> <s_epik_input>
W0NIM11DKD1PKVtOSF1bQ0gyXUMoPU8pW05IXVtDSDJdQzEoW0NIMl1bQ0gyXVtDSDJdW0NIMl1bQ0gyXTEpYzJbY0hdW2NIXW5bY0hdW2NIXTI=

> <s_epik_cmdline>
J2VwaWtfcHl0aG9uJywgJy1waCcsICc3LjAnLCAnLXRuJywgJzgnLCAnLW1hJywgJzIwMCcsICctbWV0YWxfYmluZGluZycsICctaW1hZScsICc8aW5maWxlLm1hZT4nLCAnLW9tYWUnLCAnPG91dGZpbGUubWFlPic=

> <r_epik_Ionization_Penalty>
0.0619926

> <r_epik_Ionization_Penalty_Charging>
0

> <r_epik_Ionization_Penalty_Neutral>
0.0619926

> <r_epik_State_Penalty>
0.0538453

> <r_epik_Charging_Adjusted_Penalty>
0.0538453

> <i_epik_Tot_Q>
0

> <i_epik_Tot_abs_Q>
0

> <r_epik_Metal_State_Penalty>
0.048714

> <b_epik_Metal_Only>
0

> <s_lp_Force_Field>
OPLS_2005

> <r_lp_Energy>
14.8117

> <b_lp_Chiralities_Consistent>
1

> <s_lp_Variant>
AV-unprocessed.smi:2251-1

> <Gold.Version>
5.8.1

> <Gold.Id.Protein>
6NUR|6NUR_protein|mol2

> <Gold.PLP.Fitness>
49.6470

> <Gold.PLP.PLP>
-48.1485

> <Gold.PLP.part.hbond>
-1.0000

> <Gold.PLP.part.metal>
0.0000

> <Gold.PLP.part.buried>
-2.6356

> <Gold.PLP.part.nonpolar>
-44.6678

> <Gold.PLP.part.repulsive>
1.0663

> <Gold.PLP.ligand.clash>
0.0000

> <Gold.PLP.ligand.torsion>
0.7737

> <Gold.PLP.Chemscore.Hbond>
1.0000

> <Gold.PLP.Chemscore.CHOScore>
0.0000

> <Gold.PLP.Chemscore.Metal>
0.0000

> <Gold.Chemscore.Hbonds>
donor molecule, donor type, donor heavy atom, donor atom, acceptor molecule, acceptor atom, score
      L1  H     4    25       P1  8028  0.15

> <Gold.PLP.Chemscore.Internal.Correction>
0.0459

> <Gold.Rescore>
     Score         DG    S(hbond)    S(metal)    S(lipo)     H(rot)  DE(clash)    DE(int)     intcor
     18.71     -19.70       0.99        0.00     137.44       2.02       0.22       0.77       ----

> <Gold.Chemscore.Fitness>
18.7107

> <Gold.Chemscore.DG>
-19.6999

> <Gold.Chemscore.ZeroCoef>
-5.4800

> <Gold.Chemscore.Hbond>
0.9881

> <Gold.Chemscore.Metal>
0.0000

> <Gold.Chemscore.Lipo>
137.4414

> <Gold.Chemscore.Internal_Hbond>
0.0000

> <Gold.Chemscore.DEClash>
0.2187

> <Gold.Chemscore.DEInternal>
0.7706

> <Gold.Chemscore.Rot>
2.0160

> <Gold.Chemscore.Internal.Correction>
   9.000000E+99

> <Gold.Chemscore.Hbonds>
donor molecule, donor type, donor heavy atom, donor atom, acceptor molecule, acceptor atom, score
      L1  H     4    25       P1  8028  0.15

> <Gold.Chemscore.Hbond.Weighted>
-3.3003

> <Gold.Chemscore.Metal.Weighted>
-0.0000

> <Gold.Chemscore.Lipo.Weighted>
-16.0806

> <Gold.Chemscore.Internal_Hbond.Weighted>
0.0000

> <Gold.Chemscore.DEClash.Weighted>
0.2187

> <Gold.Chemscore.DEInternal.Weighted>
0.7706

> <Gold.Chemscore.Rot.Weighted>
5.1610

> <Gold.Chemscore.Internal.Correction.Weighted>
   9.000000E+99

> <Gold.Protein.RotatedTorsions>
[ 6907 6896 6895 6894 ] final -149.90 input  -60.11 | X-H torsion
[ 7974 7965 7964 7962 ] final  125.92 input  175.53 | X-H torsion
[ 8008 7997 7996 7995 ] final   -0.03 input   59.86 | X-H torsion
[ 10167 10162 10161 10158 ] final  -68.12 input  -65.29 | X-H torsion
[ 10718 10713 10712 10709 ] final  -71.79 input   66.30 | X-H torsion
[ 10763 10752 10751 10750 ] final -103.59 input  -60.55 | X-H torsion
[ 11005 11000 10999 10996 ] final  -67.78 input  -57.11 | X-H torsion

> <Gold.Protein.ActiveResidues>
 VAL166  LYS551  ARG553  GLY616  TRP617  ASP618  TYR619  PRO620  LYS621  CYS622 
 ASP623  PHE694  ASN695  SER759  ASP760  ASP761  ALA762  ILE779  LEU786  VAL792 
 PHE793  MET794  SER795  GLU796  ALA797  LYS798  CYS799  TRP800  GLU811  SER814 

> <Gold.Protein.RotatedAtoms>
  151.1908  133.4668  159.2594 H   0  0  0  0  0  0  0  0  0  0  0  0  # atno 6907 bound_to 6896
  151.1165  135.0056  159.8529 H   0  0  0  0  0  0  0  0  0  0  0  0  # atno 6908 bound_to 6896
  152.5453  134.1823  159.8693 H   0  0  0  0  0  0  0  0  0  0  0  0  # atno 6909 bound_to 6896
  145.0675  139.3756  143.4974 H   0  0  0  0  0  0  0  0  0  0  0  0  # atno 7974 bound_to 7965
  154.6628  140.2594  155.7091 H   0  0  0  0  0  0  0  0  0  0  0  0  # atno 8008 bound_to 7997
  156.2625  140.2845  156.1028 H   0  0  0  0  0  0  0  0  0  0  0  0  # atno 8009 bound_to 7997
  155.1284  140.0378  157.2758 H   0  0  0  0  0  0  0  0  0  0  0  0  # atno 8010 bound_to 7997
  140.5531  143.2312  151.6873 H   0  0  0  0  0  0  0  0  0  0  0  0  # atno 10167 bound_to 10162
  156.0348  130.4358  150.2496 H   0  0  0  0  0  0  0  0  0  0  0  0  # atno 10718 bound_to 10713
  154.7818  135.4818  153.9860 H   0  0  0  0  0  0  0  0  0  0  0  0  # atno 10763 bound_to 10752
  153.1504  135.6790  153.8898 H   0  0  0  0  0  0  0  0  0  0  0  0  # atno 10764 bound_to 10752
  153.8544  135.3163  155.3412 H   0  0  0  0  0  0  0  0  0  0  0  0  # atno 10765 bound_to 10752
  141.1516  133.6726  156.6344 H   0  0  0  0  0  0  0  0  0  0  0  0  # atno 11005 bound_to 11000
  146.3527  140.0404  142.8643 LP  0  0  0  0  0  0  0  0  0  0  0  0  # atno 17320 bound_to 7965
  145.1333  140.9530  143.4532 LP  0  0  0  0  0  0  0  0  0  0  0  0  # atno 17321 bound_to 7965
  139.5036  144.3785  152.0400 LP  0  0  0  0  0  0  0  0  0  0  0  0  # atno 17342 bound_to 10162
  140.2904  144.3760  150.6090 LP  0  0  0  0  0  0  0  0  0  0  0  0  # atno 17343 bound_to 10162
  157.0596  131.0086  151.3227 LP  0  0  0  0  0  0  0  0  0  0  0  0  # atno 17370 bound_to 10713
  157.5080  130.7921  149.7675 LP  0  0  0  0  0  0  0  0  0  0  0  0  # atno 17371 bound_to 10713
  140.3441  134.7824  157.4419 LP  0  0  0  0  0  0  0  0  0  0  0  0  # atno 17394 bound_to 11000
  140.0914  134.5596  155.8441 LP  0  0  0  0  0  0  0  0  0  0  0  0  # atno 17395 bound_to 11000

$$$$
