AV-unprocessed.smi:1046|AV-procd|sdf|4557|dock6
  -GOLD-   22720 2593D 1   1.00000     0.00000
 Structure written by MMmdl.
 54 56  0  0  0  0  0  0  0  0  3 V2000
  151.0090  143.2554  157.5846 C   0  0  0  0  0  0  0  0  0  0  0  0
  150.3671  142.0598  156.9031 C   0  0  0  0  0  0  0  0  0  0  0  0
  151.0966  141.3569  155.9178 C   0  0  0  0  0  0  0  0  0  0  0  0
  150.5361  140.2397  155.2613 C   0  0  0  0  0  0  0  0  0  0  0  0
  151.0593  139.4196  154.2766 N   0  0  0  0  0  0  0  0  0  0  0  0
  150.0601  138.5653  154.0789 C   0  0  0  0  0  0  0  0  0  0  0  0
  148.9441  138.7420  154.8122 N   0  0  0  0  0  0  0  0  0  0  0  0
  147.7301  137.9486  154.7559 C   0  0  0  0  0  0  0  0  0  0  0  0
  148.0152  136.4351  154.8129 C   0  0  1  0  0  0  0  0  0  0  0  0
  148.3933  136.1145  156.1363 O   0  0  0  0  0  0  0  0  0  0  0  0
  146.8047  135.5607  154.4167 C   0  0  0  0  0  0  0  0  0  0  0  0
  146.6884  135.3840  152.9465 N   0  3  2  0  0  0  0  0  0  0  0  0
  145.4856  136.0374  152.3679 C   0  0  0  0  0  0  0  0  0  0  0  0
  145.4621  135.8948  150.8346 C   0  0  0  0  0  0  0  0  0  0  0  0
  145.5374  134.4741  150.4116 N   0  3  2  0  0  0  0  0  0  0  0  0
  144.2552  133.7364  150.5731 C   0  0  0  0  0  0  0  0  0  0  0  0
  144.2435  132.4029  149.8065 C   0  0  0  0  0  0  0  0  0  0  0  0
  142.9174  132.0540  149.4705 O   0  0  0  0  0  0  0  0  0  0  0  0
  146.7228  133.8032  151.0066 C   0  0  0  0  0  0  0  0  0  0  0  0
  146.7740  133.9587  152.5409 C   0  0  0  0  0  0  0  0  0  0  0  0
  149.2154  139.8412  155.6205 C   0  0  0  0  0  0  0  0  0  0  0  0
  148.4795  140.5322  156.5995 C   0  0  0  0  0  0  0  0  0  0  0  0
  149.0544  141.6466  157.2453 C   0  0  0  0  0  0  0  0  0  0  0  0
  148.2532  142.3855  158.3026 C   0  0  0  0  0  0  0  0  0  0  0  0
  152.0203  143.4291  157.2154 H   0  0  0  0  0  0  0  0  0  0  0  0
  151.0692  143.0949  158.6612 H   0  0  0  0  0  0  0  0  0  0  0  0
  150.4265  144.1584  157.4007 H   0  0  0  0  0  0  0  0  0  0  0  0
  152.0968  141.6712  155.6576 H   0  0  0  0  0  0  0  0  0  0  0  0
  150.1404  137.7692  153.3530 H   0  0  0  0  0  0  0  0  0  0  0  0
  147.0920  138.2452  155.5899 H   0  0  0  0  0  0  0  0  0  0  0  0
  147.1882  138.2039  153.8443 H   0  0  0  0  0  0  0  0  0  0  0  0
  148.8649  136.2251  154.1641 H   0  0  0  0  0  0  0  0  0  0  0  0
  148.9809  135.3740  156.1141 H   0  0  0  0  0  0  0  0  0  0  0  0
  146.9083  134.5889  154.9022 H   0  0  0  0  0  0  0  0  0  0  0  0
  145.8712  135.9847  154.7880 H   0  0  0  0  0  0  0  0  0  0  0  0
  144.5855  135.5996  152.8023 H   0  0  0  0  0  0  0  0  0  0  0  0
  145.4704  137.0964  152.6225 H   0  0  0  0  0  0  0  0  0  0  0  0
  144.5745  136.3710  150.4164 H   0  0  0  0  0  0  0  0  0  0  0  0
  146.3161  136.4243  150.4101 H   0  0  0  0  0  0  0  0  0  0  0  0
  144.0481  133.5633  151.6290 H   0  0  0  0  0  0  0  0  0  0  0  0
  143.4304  134.3469  150.2025 H   0  0  0  0  0  0  0  0  0  0  0  0
  144.8550  132.4384  148.9054 H   0  0  0  0  0  0  0  0  0  0  0  0
  144.6556  131.6127  150.4349 H   0  0  0  0  0  0  0  0  0  0  0  0
  142.3789  132.8303  149.5169 H   0  0  0  0  0  0  0  0  0  0  0  0
  146.7564  132.7501  150.7300 H   0  0  0  0  0  0  0  0  0  0  0  0
  147.6162  134.2544  150.5726 H   0  0  0  0  0  0  0  0  0  0  0  0
  147.7072  133.5315  152.9101 H   0  0  0  0  0  0  0  0  0  0  0  0
  145.9669  133.3965  153.0122 H   0  0  0  0  0  0  0  0  0  0  0  0
  147.4815  140.2071  156.8535 H   0  0  0  0  0  0  0  0  0  0  0  0
  147.2610  141.9509  158.4263 H   0  0  0  0  0  0  0  0  0  0  0  0
  148.1275  143.4325  158.0261 H   0  0  0  0  0  0  0  0  0  0  0  0
  148.7608  142.3401  159.2665 H   0  0  0  0  0  0  0  0  0  0  0  0
  147.4962  135.8409  152.5461 H   0  0  0  0  0  0  0  0  0  0  0  0
  145.6910  134.4964  149.4127 H   0  0  0  0  0  0  0  0  0  0  0  0
  1  2  1  0  0  0  0
  1 25  1  0  0  0  0
  1 26  1  0  0  0  0
  1 27  1  0  0  0  0
  2 23  1  0  0  0  0
  2  3  2  0  0  0  0
  3  4  1  0  0  0  0
  3 28  1  0  0  0  0
  4 21  2  0  0  0  0
  4  5  1  0  0  0  0
  5  6  2  0  0  0  0
  6  7  1  0  0  0  0
  6 29  1  0  0  0  0
  7  8  1  0  0  0  0
  7 21  1  0  0  0  0
  8  9  1  0  0  0  0
  8 30  1  0  0  0  0
  8 31  1  0  0  0  0
  9 10  1  0  0  0  0
  9 11  1  0  0  0  0
  9 32  1  0  0  0  0
 10 33  1  0  0  0  0
 11 12  1  0  0  0  0
 11 34  1  0  0  0  0
 11 35  1  0  0  0  0
 12 20  1  0  0  0  0
 12 13  1  0  0  0  0
 12 53  1  0  0  0  0
 13 14  1  0  0  0  0
 13 36  1  0  0  0  0
 13 37  1  0  0  0  0
 14 15  1  0  0  0  0
 14 38  1  0  0  0  0
 14 39  1  0  0  0  0
 15 16  1  0  0  0  0
 15 19  1  0  0  0  0
 15 54  1  0  0  0  0
 16 17  1  0  0  0  0
 16 40  1  0  0  0  0
 16 41  1  0  0  0  0
 17 18  1  0  0  0  0
 17 42  1  0  0  0  0
 17 43  1  0  0  0  0
 18 44  1  0  0  0  0
 19 20  1  0  0  0  0
 19 45  1  0  0  0  0
 19 46  1  0  0  0  0
 20 47  1  0  0  0  0
 20 48  1  0  0  0  0
 21 22  1  0  0  0  0
 22 23  2  0  0  0  0
 22 49  1  0  0  0  0
 23 24  1  0  0  0  0
 24 50  1  0  0  0  0
 24 51  1  0  0  0  0
 24 52  1  0  0  0  0
M  CHG  1  12   1
M  CHG  1  15   1
M  END
> <s_m_source_file>
AV-unprocessed.smi

> <i_m_source_file_index>
1046

> <i_lp_mmshare_version>
43012

> <i_f3d_flags>
0

> <s_epik_input>
W0NIM11jKFtjSF0xKWMoW0NIM10pW2NIXWMoYzEyKW4oW2NIXW4yKVtDSDJdW0NASF0oW09IXSlbQ0gyXU4zW0NIMl1bQ0gyXU4oW0NIMl1bQ0gyXTMpW0NIMl1bQ0gyXVtPSF0=

> <s_epik_cmdline>
J2VwaWtfcHl0aG9uJywgJy1waCcsICc3LjAnLCAnLXRuJywgJzgnLCAnLW1hJywgJzIwMCcsICctbWV0YWxfYmluZGluZycsICctaW1hZScsICc8aW5maWxlLm1hZT4nLCAnLW9tYWUnLCAnPG91dGZpbGUubWFlPic=

> <r_epik_Ionization_Penalty>
3.17398

> <r_epik_Ionization_Penalty_Charging>
3.09061

> <r_epik_Ionization_Penalty_Neutral>
0.0833726

> <r_epik_State_Penalty>
2.17606

> <r_epik_Charging_Adjusted_Penalty>
5.26667

> <i_epik_Tot_Q>
2

> <i_epik_Tot_abs_Q>
2

> <r_epik_Metal_State_Penalty>
2.08587

> <b_epik_Metal_Only>
0

> <s_lp_Force_Field>
OPLS_2005

> <r_lp_Energy>
29.1343

> <b_lp_Chiralities_Consistent>
1

> <s_lp_Variant>
AV-unprocessed.smi:1046-10

> <Gold.Version>
5.8.1

> <Gold.Id.Protein>
6NUR|6NUR_protein|mol2

> <Gold.PLP.Fitness>
56.0030

> <Gold.PLP.PLP>
-39.8113

> <Gold.PLP.part.hbond>
-5.9182

> <Gold.PLP.part.metal>
0.0000

> <Gold.PLP.part.buried>
-6.5302

> <Gold.PLP.part.nonpolar>
-27.6158

> <Gold.PLP.part.repulsive>
0.2060

> <Gold.PLP.ligand.clash>
0.0000

> <Gold.PLP.ligand.torsion>
1.4282

> <Gold.PLP.Chemscore.Hbond>
5.2200

> <Gold.PLP.Chemscore.CHOScore>
1.0738

> <Gold.PLP.Chemscore.Metal>
0.0000

> <Gold.Chemscore.Hbonds>
donor molecule, donor type, donor heavy atom, donor atom, acceptor molecule, acceptor atom, score
      L1  H    12    53       P1  7948  2.00
      L1  H    15    54       P1  7921  1.00
      L1  H    18    44       P1 10186  0.84
      P1  H  7989  7998       L1     5  0.40
      P1  H 10785 10796       L1    18  0.91
      L1  C     6    29       P1  7948  1.00
      L1  C     6    29       P1  7949  0.08

> <Gold.PLP.Chemscore.Internal.Correction>
0.1667

> <Gold.Rescore>
     Score         DG    S(hbond)    S(metal)    S(lipo)     H(rot)  DE(clash)    DE(int)     intcor
     16.69     -18.18       3.30        0.00      86.32       3.28       0.10       1.39       ----

> <Gold.Chemscore.Fitness>
16.6936

> <Gold.Chemscore.DG>
-18.1844

> <Gold.Chemscore.ZeroCoef>
-5.4800

> <Gold.Chemscore.Hbond>
3.2960

> <Gold.Chemscore.Metal>
0.0000

> <Gold.Chemscore.Lipo>
86.3214

> <Gold.Chemscore.Internal_Hbond>
0.0000

> <Gold.Chemscore.DEClash>
0.0963

> <Gold.Chemscore.DEInternal>
1.3946

> <Gold.Chemscore.Rot>
3.2828

> <Gold.Chemscore.Internal.Correction>
   9.000000E+99

> <Gold.Chemscore.Hbonds>
donor molecule, donor type, donor heavy atom, donor atom, acceptor molecule, acceptor atom, score
      L1  H    12    53       P1  7948  1.00
      L1  H    15    54       P1  7921  0.85
      L1  H    18    44       P1 10186  0.82
      P1  H  7989  7998       L1     5  0.01
      P1  H 10785 10796       L1    18  0.27

> <Gold.Chemscore.Hbond.Weighted>
-11.0088

> <Gold.Chemscore.Metal.Weighted>
-0.0000

> <Gold.Chemscore.Lipo.Weighted>
-10.0996

> <Gold.Chemscore.Internal_Hbond.Weighted>
0.0000

> <Gold.Chemscore.DEClash.Weighted>
0.0963

> <Gold.Chemscore.DEInternal.Weighted>
1.3946

> <Gold.Chemscore.Rot.Weighted>
8.4039

> <Gold.Chemscore.Internal.Correction.Weighted>
   9.000000E+99

> <Gold.Protein.RotatedTorsions>
[ 6907 6896 6895 6894 ] final  -55.17 input  -60.11 | X-H torsion
[ 7974 7965 7964 7962 ] final  128.36 input  175.53 | X-H torsion
[ 8008 7997 7996 7995 ] final   44.98 input   59.86 | X-H torsion
[ 10167 10162 10161 10158 ] final  151.10 input  -65.29 | X-H torsion
[ 10718 10713 10712 10709 ] final -136.23 input   66.30 | X-H torsion
[ 10763 10752 10751 10750 ] final    9.20 input  -60.55 | X-H torsion
[ 11005 11000 10999 10996 ] final   -9.81 input  -57.11 | X-H torsion

> <Gold.Protein.ActiveResidues>
 VAL166  LYS551  ARG553  GLY616  TRP617  ASP618  TYR619  PRO620  LYS621  CYS622 
 ASP623  PHE694  ASN695  SER759  ASP760  ASP761  ALA762  ILE779  LEU786  VAL792 
 PHE793  MET794  SER795  GLU796  ALA797  LYS798  CYS799  TRP800  GLU811  SER814 

> <Gold.Protein.RotatedAtoms>
  150.8275  134.7512  159.6824 H   0  0  0  0  0  0  0  0  0  0  0  0  # atno 6907 bound_to 6896
  152.4384  134.5638  159.9911 H   0  0  0  0  0  0  0  0  0  0  0  0  # atno 6908 bound_to 6896
  151.5807  133.3340  159.3043 H   0  0  0  0  0  0  0  0  0  0  0  0  # atno 6909 bound_to 6896
  145.0404  139.3968  143.5105 H   0  0  0  0  0  0  0  0  0  0  0  0  # atno 7974 bound_to 7965
  155.3283  140.3401  155.4240 H   0  0  0  0  0  0  0  0  0  0  0  0  # atno 8008 bound_to 7997
  156.1874  140.1685  156.8195 H   0  0  0  0  0  0  0  0  0  0  0  0  # atno 8009 bound_to 7997
  154.5402  140.0726  156.8481 H   0  0  0  0  0  0  0  0  0  0  0  0  # atno 8010 bound_to 7997
  139.4843  144.5468  151.7470 H   0  0  0  0  0  0  0  0  0  0  0  0  # atno 10167 bound_to 10162
  156.2748  130.7287  151.1265 H   0  0  0  0  0  0  0  0  0  0  0  0  # atno 10718 bound_to 10713
  153.2167  135.6876  153.8049 H   0  0  0  0  0  0  0  0  0  0  0  0  # atno 10763 bound_to 10752
  153.7262  135.3259  155.3278 H   0  0  0  0  0  0  0  0  0  0  0  0  # atno 10764 bound_to 10752
  154.8249  135.4625  154.0997 H   0  0  0  0  0  0  0  0  0  0  0  0  # atno 10765 bound_to 10752
  140.7381  133.8693  155.8945 H   0  0  0  0  0  0  0  0  0  0  0  0  # atno 11005 bound_to 11000
  146.3508  140.0001  142.8677 LP  0  0  0  0  0  0  0  0  0  0  0  0  # atno 17320 bound_to 7965
  145.1656  140.9695  143.4352 LP  0  0  0  0  0  0  0  0  0  0  0  0  # atno 17321 bound_to 7965
  140.5016  144.1160  150.5972 LP  0  0  0  0  0  0  0  0  0  0  0  0  # atno 17342 bound_to 10162
  140.4055  143.2682  151.9896 LP  0  0  0  0  0  0  0  0  0  0  0  0  # atno 17343 bound_to 10162
  157.7296  131.0623  150.5767 LP  0  0  0  0  0  0  0  0  0  0  0  0  # atno 17370 bound_to 10713
  156.5867  130.4318  149.5954 LP  0  0  0  0  0  0  0  0  0  0  0  0  # atno 17371 bound_to 10713
  140.9861  134.1340  157.4450 LP  0  0  0  0  0  0  0  0  0  0  0  0  # atno 17394 bound_to 11000
  139.8812  135.0026  156.6136 LP  0  0  0  0  0  0  0  0  0  0  0  0  # atno 17395 bound_to 11000

$$$$
