AV-unprocessed.smi:1942|AV-procd|sdf|7849|dock10
  -GOLD-   22720 9593D 1   1.00000     0.00000
 Structure written by MMmdl.
 35 37  0  0  0  0  0  0  0  0  1 V2000
  152.4145  139.6000  154.7728 O   0  0  0  0  0  0  0  0  0  0  0  0
  151.3773  139.3397  155.3826 C   0  0  0  0  0  0  0  0  0  0  0  0
  150.6134  138.1120  155.1314 C   0  0  0  0  0  0  0  0  0  0  0  0
  149.4818  137.8323  155.8081 C   0  0  0  0  0  0  0  0  0  0  0  0
  148.9867  138.7463  156.8102 C   0  0  0  0  0  0  0  0  0  0  0  0
  149.6810  139.8718  157.0410 C   0  0  0  0  0  0  0  0  0  0  0  0
  150.8649  140.1740  156.3390 N   0  0  0  0  0  0  0  0  0  0  0  0
  151.5404  141.4382  156.6759 C   0  0  0  0  0  0  0  0  0  0  0  0
  152.2375  141.3494  158.0129 C   0  0  0  0  0  0  0  0  0  0  0  0
  153.0032  140.3129  158.3685 N   0  0  0  0  0  0  0  0  0  0  0  0
  153.4177  140.6543  159.6396 C   0  0  0  0  0  0  0  0  0  0  0  0
  154.2578  139.9699  160.5463 C   0  0  0  0  0  0  0  0  0  0  0  0
  154.5420  140.5223  161.8127 C   0  0  0  0  0  0  0  0  0  0  0  0
  155.5705  139.6737  162.9073 Cl  0  0  0  0  0  0  0  0  0  0  0  0
  153.9891  141.7639  162.1889 C   0  0  0  0  0  0  0  0  0  0  0  0
  153.1486  142.4614  161.2999 C   0  0  0  0  0  0  0  0  0  0  0  0
  152.8704  141.9057  160.0367 C   0  0  0  0  0  0  0  0  0  0  0  0
  152.1021  142.3206  158.9535 N   0  0  0  0  0  0  0  0  0  0  0  0
  151.3218  143.5498  158.8894 C   0  0  0  0  0  0  0  0  0  0  0  0
  152.1994  144.8106  158.9613 C   0  0  0  0  0  0  0  0  0  0  0  0
  151.5015  145.8868  159.5513 O   0  0  0  0  0  0  0  0  0  0  0  0
  150.9689  137.4162  154.3856 H   0  0  0  0  0  0  0  0  0  0  0  0
  148.9430  136.9196  155.6004 H   0  0  0  0  0  0  0  0  0  0  0  0
  148.0835  138.5291  157.3612 H   0  0  0  0  0  0  0  0  0  0  0  0
  149.3821  140.6039  157.7772 H   0  0  0  0  0  0  0  0  0  0  0  0
  152.2546  141.6855  155.8903 H   0  0  0  0  0  0  0  0  0  0  0  0
  150.8342  142.2688  156.7076 H   0  0  0  0  0  0  0  0  0  0  0  0
  154.6843  139.0181  160.2657 H   0  0  0  0  0  0  0  0  0  0  0  0
  154.2096  142.1817  163.1603 H   0  0  0  0  0  0  0  0  0  0  0  0
  152.7242  143.4123  161.5852 H   0  0  0  0  0  0  0  0  0  0  0  0
  150.7089  143.5555  157.9884 H   0  0  0  0  0  0  0  0  0  0  0  0
  150.6206  143.5475  159.7245 H   0  0  0  0  0  0  0  0  0  0  0  0
  153.0967  144.6107  159.5473 H   0  0  0  0  0  0  0  0  0  0  0  0
  152.5270  145.1067  157.9644 H   0  0  0  0  0  0  0  0  0  0  0  0
  151.7399  146.6837  159.1024 H   0  0  0  0  0  0  0  0  0  0  0  0
  1  2  2  0  0  0  0
  2  7  1  0  0  0  0
  2  3  1  0  0  0  0
  3  4  2  0  0  0  0
  3 22  1  0  0  0  0
  4  5  1  0  0  0  0
  4 23  1  0  0  0  0
  5  6  2  0  0  0  0
  5 24  1  0  0  0  0
  6  7  1  0  0  0  0
  6 25  1  0  0  0  0
  7  8  1  0  0  0  0
  8  9  1  0  0  0  0
  8 26  1  0  0  0  0
  8 27  1  0  0  0  0
  9 18  1  0  0  0  0
  9 10  2  0  0  0  0
 10 11  1  0  0  0  0
 11 17  2  0  0  0  0
 11 12  1  0  0  0  0
 12 13  2  0  0  0  0
 12 28  1  0  0  0  0
 13 14  1  0  0  0  0
 13 15  1  0  0  0  0
 15 16  2  0  0  0  0
 15 29  1  0  0  0  0
 16 17  1  0  0  0  0
 16 30  1  0  0  0  0
 17 18  1  0  0  0  0
 18 19  1  0  0  0  0
 19 20  1  0  0  0  0
 19 31  1  0  0  0  0
 19 32  1  0  0  0  0
 20 21  1  0  0  0  0
 20 33  1  0  0  0  0
 20 34  1  0  0  0  0
 21 35  1  0  0  0  0
M  END
> <s_m_source_file>
AV-unprocessed.smi

> <i_m_source_file_index>
1942

> <i_lp_mmshare_version>
43012

> <i_f3d_flags>
0

> <s_epik_input>
Tz1jMVtjSF1bY0hdW2NIXVtjSF1uMVtDSDJdYyhuMiluKFtDSDJdW0NIMl1bT0hdKWMoYzIzKVtjSF1bY0hdYyhDbClbY0hdMw==

> <s_epik_cmdline>
J2VwaWtfcHl0aG9uJywgJy1waCcsICc3LjAnLCAnLXRuJywgJzgnLCAnLW1hJywgJzIwMCcsICctbWV0YWxfYmluZGluZycsICctaW1hZScsICc8aW5maWxlLm1hZT4nLCAnLW9tYWUnLCAnPG91dGZpbGUubWFlPic=

> <r_lp_tautomer_probability>
1

> <r_epik_Ionization_Penalty>
0.0394182

> <r_epik_Ionization_Penalty_Charging>
8.17328e-07

> <r_epik_Ionization_Penalty_Neutral>
0.0394174

> <r_epik_State_Penalty>
0.0331163

> <r_epik_Charging_Adjusted_Penalty>
0.0331171

> <i_epik_Tot_Q>
0

> <i_epik_Tot_abs_Q>
0

> <r_epik_Metal_State_Penalty>
3.40583e-05

> <b_epik_Metal_Only>
0

> <s_lp_Force_Field>
OPLS_2005

> <r_lp_Energy>
18.6161

> <b_lp_Chiralities_Consistent>
1

> <s_lp_Variant>
AV-unprocessed.smi:1942-1

> <Gold.Version>
5.8.1

> <Gold.Id.Protein>
6NUR|6NUR_protein|mol2

> <Gold.PLP.Fitness>
46.9408

> <Gold.PLP.PLP>
-43.4382

> <Gold.PLP.part.hbond>
-3.4115

> <Gold.PLP.part.metal>
0.0000

> <Gold.PLP.part.buried>
-3.5882

> <Gold.PLP.part.nonpolar>
-34.4599

> <Gold.PLP.part.repulsive>
0.0525

> <Gold.PLP.ligand.clash>
0.0000

> <Gold.PLP.ligand.torsion>
0.5090

> <Gold.PLP.Chemscore.Hbond>
1.5055

> <Gold.PLP.Chemscore.CHOScore>
0.0000

> <Gold.PLP.Chemscore.Metal>
0.0000

> <Gold.Chemscore.Hbonds>
donor molecule, donor type, donor heavy atom, donor atom, acceptor molecule, acceptor atom, score
      P1  H  7989  7998       L1     1  0.64
      P1  H  7997  8009       L1    10  0.77

> <Gold.PLP.Chemscore.Internal.Correction>
0.0042

> <Gold.Rescore>
     Score         DG    S(hbond)    S(metal)    S(lipo)     H(rot)  DE(clash)    DE(int)     intcor
     14.17     -15.85       1.26        0.00     102.60       2.27       1.19       0.49       ----

> <Gold.Chemscore.Fitness>
14.1732

> <Gold.Chemscore.DG>
-15.8528

> <Gold.Chemscore.ZeroCoef>
-5.4800

> <Gold.Chemscore.Hbond>
1.2551

> <Gold.Chemscore.Metal>
0.0000

> <Gold.Chemscore.Lipo>
102.6042

> <Gold.Chemscore.Internal_Hbond>
0.0000

> <Gold.Chemscore.DEClash>
1.1924

> <Gold.Chemscore.DEInternal>
0.4872

> <Gold.Chemscore.Rot>
2.2750

> <Gold.Chemscore.Internal.Correction>
   9.000000E+99

> <Gold.Chemscore.Hbonds>
donor molecule, donor type, donor heavy atom, donor atom, acceptor molecule, acceptor atom, score
      P1  H  7989  7998       L1     1  0.15
      P1  H  7997  8009       L1    10  0.47

> <Gold.Chemscore.Hbond.Weighted>
-4.1921

> <Gold.Chemscore.Metal.Weighted>
-0.0000

> <Gold.Chemscore.Lipo.Weighted>
-12.0047

> <Gold.Chemscore.Internal_Hbond.Weighted>
0.0000

> <Gold.Chemscore.DEClash.Weighted>
1.1924

> <Gold.Chemscore.DEInternal.Weighted>
0.4872

> <Gold.Chemscore.Rot.Weighted>
5.8240

> <Gold.Chemscore.Internal.Correction.Weighted>
   9.000000E+99

> <Gold.Protein.RotatedTorsions>
[ 6907 6896 6895 6894 ] final   43.12 input  -60.11 | X-H torsion
[ 7974 7965 7964 7962 ] final    9.88 input  175.53 | X-H torsion
[ 8008 7997 7996 7995 ] final  159.39 input   59.86 | X-H torsion
[ 10167 10162 10161 10158 ] final  -63.50 input  -65.29 | X-H torsion
[ 10718 10713 10712 10709 ] final -176.84 input   66.30 | X-H torsion
[ 10763 10752 10751 10750 ] final -157.40 input  -60.55 | X-H torsion
[ 11005 11000 10999 10996 ] final   49.78 input  -57.11 | X-H torsion

> <Gold.Protein.ActiveResidues>
 VAL166  LYS551  ARG553  GLY616  TRP617  ASP618  TYR619  PRO620  LYS621  CYS622 
 ASP623  PHE694  ASN695  SER759  ASP760  ASP761  ALA762  ILE779  LEU786  VAL792 
 PHE793  MET794  SER795  GLU796  ALA797  LYS798  CYS799  TRP800  GLU811  SER814 

> <Gold.Protein.RotatedAtoms>
  152.2163  134.8454  160.0491 H   0  0  0  0  0  0  0  0  0  0  0  0  # atno 6907 bound_to 6896
  151.9254  133.3591  159.3920 H   0  0  0  0  0  0  0  0  0  0  0  0  # atno 6908 bound_to 6896
  150.6988  134.4517  159.5383 H   0  0  0  0  0  0  0  0  0  0  0  0  # atno 6909 bound_to 6896
  146.2397  139.9717  142.8446 H   0  0  0  0  0  0  0  0  0  0  0  0  # atno 7974 bound_to 7965
  156.2242  140.1832  156.7404 H   0  0  0  0  0  0  0  0  0  0  0  0  # atno 8008 bound_to 7997
  154.5914  140.0650  156.9272 H   0  0  0  0  0  0  0  0  0  0  0  0  # atno 8009 bound_to 7997
  155.2330  140.3316  155.4303 H   0  0  0  0  0  0  0  0  0  0  0  0  # atno 8010 bound_to 7997
  140.5866  143.2335  151.6230 H   0  0  0  0  0  0  0  0  0  0  0  0  # atno 10167 bound_to 10162
  156.8207  130.9619  151.3112 H   0  0  0  0  0  0  0  0  0  0  0  0  # atno 10718 bound_to 10713
  154.7639  135.3125  154.8325 H   0  0  0  0  0  0  0  0  0  0  0  0  # atno 10763 bound_to 10752
  153.9078  135.6809  153.4756 H   0  0  0  0  0  0  0  0  0  0  0  0  # atno 10764 bound_to 10752
  153.1242  135.4808  154.9178 H   0  0  0  0  0  0  0  0  0  0  0  0  # atno 10765 bound_to 10752
  140.1074  134.5001  155.8708 H   0  0  0  0  0  0  0  0  0  0  0  0  # atno 11005 bound_to 11000
  145.1675  140.9704  143.4341 LP  0  0  0  0  0  0  0  0  0  0  0  0  # atno 17320 bound_to 7965
  145.0059  139.3555  143.6144 LP  0  0  0  0  0  0  0  0  0  0  0  0  # atno 17321 bound_to 7965
  139.5201  144.3232  152.0892 LP  0  0  0  0  0  0  0  0  0  0  0  0  # atno 17342 bound_to 10162
  140.2390  144.4289  150.6268 LP  0  0  0  0  0  0  0  0  0  0  0  0  # atno 17343 bound_to 10162
  157.6458  130.8843  149.9536 LP  0  0  0  0  0  0  0  0  0  0  0  0  # atno 17370 bound_to 10713
  156.0990  130.3657  150.0252 LP  0  0  0  0  0  0  0  0  0  0  0  0  # atno 17371 bound_to 10713
  141.2121  133.6716  156.6637 LP  0  0  0  0  0  0  0  0  0  0  0  0  # atno 17394 bound_to 11000
  140.3138  134.8064  157.4197 LP  0  0  0  0  0  0  0  0  0  0  0  0  # atno 17395 bound_to 11000

$$$$
