AV-unprocessed.smi:3089|AV-procd|sdf|11770|dock1
  -GOLD-   2272017153D 1   1.00000     0.00000
 Structure written by MMmdl.
 25 25  0  0  0  0  0  0  0  0  2 V2000
  152.4140  140.7657  158.4181 C   0  0  0  0  0  0  0  0  0  0  0  0
  151.7903  140.4393  157.1535 N   0  0  0  0  0  0  0  0  0  0  0  0
  150.5294  140.7666  156.7052 C   0  0  0  0  0  0  0  0  0  0  0  0
  150.3843  140.2405  155.4504 C   0  0  0  0  0  0  0  0  0  0  0  0
  149.1840  140.3126  154.5296 C   0  0  1  0  0  0  0  0  0  0  0  0
  148.0310  141.0557  155.2260 C   0  0  0  0  0  0  0  0  0  0  0  0
  149.4641  141.0489  153.3533 O   0  0  0  0  0  0  0  0  0  0  0  0
  148.7312  138.9020  154.0917 C   0  0  0  0  0  0  0  0  0  0  0  0
  149.7397  138.2264  153.2537 N   0  3  0  0  0  0  0  0  0  0  0  0
  151.6406  139.6047  155.2211 C   0  0  0  0  0  0  0  0  0  0  0  0
  152.4743  139.7209  156.2412 N   0  0  0  0  0  0  0  0  0  0  0  0
  151.7278  141.3455  159.0359 H   0  0  0  0  0  0  0  0  0  0  0  0
  153.3161  141.3529  158.2446 H   0  0  0  0  0  0  0  0  0  0  0  0
  152.6789  139.8497  158.9473 H   0  0  0  0  0  0  0  0  0  0  0  0
  149.8436  141.3413  157.3105 H   0  0  0  0  0  0  0  0  0  0  0  0
  147.7162  140.5406  156.1343 H   0  0  0  0  0  0  0  0  0  0  0  0
  147.1570  141.1358  154.5783 H   0  0  0  0  0  0  0  0  0  0  0  0
  148.3246  142.0677  155.5084 H   0  0  0  0  0  0  0  0  0  0  0  0
  149.3995  140.4695  152.6091 H   0  0  0  0  0  0  0  0  0  0  0  0
  148.5476  138.2761  154.9659 H   0  0  0  0  0  0  0  0  0  0  0  0
  147.7919  138.9508  153.5391 H   0  0  0  0  0  0  0  0  0  0  0  0
  150.5308  137.9579  153.8209 H   0  0  0  0  0  0  0  0  0  0  0  0
  150.0435  138.8557  152.5243 H   0  0  0  0  0  0  0  0  0  0  0  0
  151.9685  139.0600  154.3478 H   0  0  0  0  0  0  0  0  0  0  0  0
  149.3277  137.4047  152.8346 H   0  0  0  0  0  0  0  0  0  0  0  0
  1  2  1  0  0  0  0
  1 12  1  0  0  0  0
  1 13  1  0  0  0  0
  1 14  1  0  0  0  0
  2 11  1  0  0  0  0
  2  3  1  0  0  0  0
  3  4  2  0  0  0  0
  3 15  1  0  0  0  0
  4  5  1  0  0  0  0
  4 10  1  0  0  0  0
  5  6  1  0  0  0  0
  5  7  1  0  0  0  0
  5  8  1  0  0  0  0
  6 16  1  0  0  0  0
  6 17  1  0  0  0  0
  6 18  1  0  0  0  0
  7 19  1  0  0  0  0
  8  9  1  0  0  0  0
  8 20  1  0  0  0  0
  8 21  1  0  0  0  0
  9 22  1  0  0  0  0
  9 23  1  0  0  0  0
  9 25  1  0  0  0  0
 10 11  2  0  0  0  0
 10 24  1  0  0  0  0
M  CHG  1   9   1
M  END
> <s_m_source_file>
AV-unprocessed.smi

> <i_m_source_file_index>
3089

> <i_lp_mmshare_version>
43012

> <i_f3d_flags>
0

> <s_epik_input>
W0NIM11uMVtjSF1jKFtjSF1uMSlbQ0BAXShbQ0gzXSkoW09IXSlbQ0gyXVtOSDJd

> <s_epik_cmdline>
J2VwaWtfcHl0aG9uJywgJy1waCcsICc3LjAnLCAnLXRuJywgJzgnLCAnLW1hJywgJzIwMCcsICctbWV0YWxfYmluZGluZycsICctaW1hZScsICc8aW5maWxlLm1hZT4nLCAnLW9tYWUnLCAnPG91dGZpbGUubWFlPic=

> <r_lp_tautomer_probability>
1

> <r_epik_Ionization_Penalty>
0.0140512

> <r_epik_Ionization_Penalty_Charging>
0.0140431

> <r_epik_Ionization_Penalty_Neutral>
8.10489e-06

> <r_epik_State_Penalty>
0.0109628

> <r_epik_Charging_Adjusted_Penalty>
0.0250059

> <i_epik_Tot_Q>
1

> <i_epik_Tot_abs_Q>
1

> <r_epik_Metal_State_Penalty>
0.0109638

> <b_epik_Metal_Only>
0

> <s_lp_Force_Field>
OPLS_2005

> <r_lp_Energy>
3.27267

> <b_lp_Chiralities_Consistent>
1

> <s_lp_Variant>
AV-unprocessed.smi:3089-1

> <Gold.Version>
5.8.1

> <Gold.Id.Protein>
6NUR|6NUR_protein|mol2

> <Gold.PLP.Fitness>
40.4431

> <Gold.PLP.PLP>
-23.3698

> <Gold.PLP.part.hbond>
-5.7732

> <Gold.PLP.part.metal>
0.0000

> <Gold.PLP.part.buried>
-1.2452

> <Gold.PLP.part.nonpolar>
-16.2749

> <Gold.PLP.part.repulsive>
0.0831

> <Gold.PLP.ligand.clash>
0.0000

> <Gold.PLP.ligand.torsion>
0.0809

> <Gold.PLP.Chemscore.Hbond>
5.7395

> <Gold.PLP.Chemscore.CHOScore>
0.0000

> <Gold.PLP.Chemscore.Metal>
0.0000

> <Gold.Chemscore.Hbonds>
donor molecule, donor type, donor heavy atom, donor atom, acceptor molecule, acceptor atom, score
      L1  H     7    19       P1  7957  0.98
      L1  H     9    23       P1  7957  0.99
      L1  H     9    25       P1  7948  2.00
      P1  H  7989  7998       L1     7  0.08
      P1  H  7997  8010       L1    11  1.00
      P1  H  8011  8017       L1     7  0.60

> <Gold.PLP.Chemscore.Internal.Correction>
0.0166

> <Gold.Rescore>
     Score         DG    S(hbond)    S(metal)    S(lipo)     H(rot)  DE(clash)    DE(int)     intcor
     18.27     -18.40       3.85        0.00      41.82       1.89       0.00       0.13       ----

> <Gold.Chemscore.Fitness>
18.2737

> <Gold.Chemscore.DG>
-18.4038

> <Gold.Chemscore.ZeroCoef>
-5.4800

> <Gold.Chemscore.Hbond>
3.8517

> <Gold.Chemscore.Metal>
0.0000

> <Gold.Chemscore.Lipo>
41.8234

> <Gold.Chemscore.Internal_Hbond>
0.0000

> <Gold.Chemscore.DEClash>
0.0038

> <Gold.Chemscore.DEInternal>
0.1263

> <Gold.Chemscore.Rot>
1.8883

> <Gold.Chemscore.Internal.Correction>
   9.000000E+99

> <Gold.Chemscore.Hbonds>
donor molecule, donor type, donor heavy atom, donor atom, acceptor molecule, acceptor atom, score
      L1  H     7    19       P1  7957  0.91
      L1  H     9    23       P1  7957  0.37
      L1  H     9    25       P1  7948  0.86
      P1  H  7997  8010       L1    11  0.60
      P1  H  8011  8017       L1     7  0.04

> <Gold.Chemscore.Hbond.Weighted>
-12.8646

> <Gold.Chemscore.Metal.Weighted>
-0.0000

> <Gold.Chemscore.Lipo.Weighted>
-4.8933

> <Gold.Chemscore.Internal_Hbond.Weighted>
0.0000

> <Gold.Chemscore.DEClash.Weighted>
0.0038

> <Gold.Chemscore.DEInternal.Weighted>
0.1263

> <Gold.Chemscore.Rot.Weighted>
4.8341

> <Gold.Chemscore.Internal.Correction.Weighted>
   9.000000E+99

> <Gold.Protein.RotatedTorsions>
[ 6907 6896 6895 6894 ] final  -17.90 input  -60.11 | X-H torsion
[ 7974 7965 7964 7962 ] final  -24.52 input  175.53 | X-H torsion
[ 8008 7997 7996 7995 ] final   67.41 input   59.86 | X-H torsion
[ 10167 10162 10161 10158 ] final   29.55 input  -65.29 | X-H torsion
[ 10718 10713 10712 10709 ] final  165.61 input   66.30 | X-H torsion
[ 10763 10752 10751 10750 ] final  134.33 input  -60.55 | X-H torsion
[ 11005 11000 10999 10996 ] final   22.69 input  -57.11 | X-H torsion

> <Gold.Protein.ActiveResidues>
 VAL166  LYS551  ARG553  GLY616  TRP617  ASP618  TYR619  PRO620  LYS621  CYS622 
 ASP623  PHE694  ASN695  SER759  ASP760  ASP761  ALA762  ILE779  LEU786  VAL792 
 PHE793  MET794  SER795  GLU796  ALA797  LYS798  CYS799  TRP800  GLU811  SER814 

> <Gold.Protein.RotatedAtoms>
  151.2863  135.0729  159.9187 H   0  0  0  0  0  0  0  0  0  0  0  0  # atno 6907 bound_to 6896
  152.5325  133.9978  159.7891 H   0  0  0  0  0  0  0  0  0  0  0  0  # atno 6908 bound_to 6896
  151.0241  133.5799  159.2698 H   0  0  0  0  0  0  0  0  0  0  0  0  # atno 6909 bound_to 6896
  146.1549  140.4763  142.8595 H   0  0  0  0  0  0  0  0  0  0  0  0  # atno 7974 bound_to 7965
  155.6924  140.3496  155.4899 H   0  0  0  0  0  0  0  0  0  0  0  0  # atno 8008 bound_to 7997
  155.9512  140.1119  157.0997 H   0  0  0  0  0  0  0  0  0  0  0  0  # atno 8009 bound_to 7997
  154.4122  140.1194  156.5042 H   0  0  0  0  0  0  0  0  0  0  0  0  # atno 8010 bound_to 7997
  140.4756  144.0695  150.6250 H   0  0  0  0  0  0  0  0  0  0  0  0  # atno 10167 bound_to 10162
  157.0777  131.0383  151.2587 H   0  0  0  0  0  0  0  0  0  0  0  0  # atno 10718 bound_to 10713
  153.8219  135.3115  155.3411 H   0  0  0  0  0  0  0  0  0  0  0  0  # atno 10763 bound_to 10752
  154.8009  135.4727  154.0277 H   0  0  0  0  0  0  0  0  0  0  0  0  # atno 10764 bound_to 10752
  153.1688  135.6874  153.8726 H   0  0  0  0  0  0  0  0  0  0  0  0  # atno 10765 bound_to 10752
  140.3778  134.1953  155.7664 H   0  0  0  0  0  0  0  0  0  0  0  0  # atno 11005 bound_to 11000
  144.7951  140.6107  143.6515 LP  0  0  0  0  0  0  0  0  0  0  0  0  # atno 17320 bound_to 7965
  145.4732  139.1501  143.3802 LP  0  0  0  0  0  0  0  0  0  0  0  0  # atno 17321 bound_to 7965
  140.3923  143.2746  152.0046 LP  0  0  0  0  0  0  0  0  0  0  0  0  # atno 17342 bound_to 10162
  139.4825  144.6067  151.7508 LP  0  0  0  0  0  0  0  0  0  0  0  0  # atno 17343 bound_to 10162
  157.4826  130.7774  149.7429 LP  0  0  0  0  0  0  0  0  0  0  0  0  # atno 17370 bound_to 10713
  155.9932  130.3926  150.2909 LP  0  0  0  0  0  0  0  0  0  0  0  0  # atno 17371 bound_to 10713
  141.1933  133.8153  157.0802 LP  0  0  0  0  0  0  0  0  0  0  0  0  # atno 17394 bound_to 11000
  140.0502  134.9809  157.1122 LP  0  0  0  0  0  0  0  0  0  0  0  0  # atno 17395 bound_to 11000

$$$$
