AV-unprocessed.smi:1285|AV-procd|sdf|5367|dock8
  -GOLD-   22720 4513D 1   1.00000     0.00000
 Structure written by MMmdl.
 46 47  0  0  0  0  0  0  0  0  1 V2000
  148.5837  132.1035  154.3943 C   0  0  0  0  0  0  0  0  0  0  0  0
  148.4761  133.6303  154.5633 C   0  0  0  0  0  0  0  0  0  0  0  0
  147.0674  134.2440  154.2817 C   0  0  1  0  0  0  0  0  0  0  0  0
  146.0390  133.3218  154.9905 C   0  0  0  0  0  0  0  0  0  0  0  0
  147.0077  135.6599  154.9429 C   0  0  0  0  0  0  0  0  0  0  0  0
  148.0700  136.5652  154.5042 N   0  0  0  0  0  0  0  0  0  0  0  0
  148.8177  137.3477  155.2993 C   0  0  0  0  0  0  0  0  0  0  0  0
  148.6846  137.3905  156.5227 O   0  0  0  0  0  0  0  0  0  0  0  0
  149.8816  138.2051  154.5975 C   0  0  2  0  0  0  0  0  0  0  0  0
  151.3176  137.8173  155.0061 C   0  0  0  0  0  0  0  0  0  0  0  0
  149.6047  139.6209  154.8072 N   0  0  0  0  0  0  0  0  0  0  0  0
  149.1595  140.5423  153.9498 C   0  0  0  0  0  0  0  0  0  0  0  0
  148.9684  141.7367  154.4923 N   0  0  0  0  0  0  0  0  0  0  0  0
  149.3273  141.4612  155.7813 C   0  0  0  0  0  0  0  0  0  0  0  0
  149.7046  140.2067  156.0268 N   0  0  0  0  0  0  0  0  0  0  0  0
  146.7896  134.2987  152.8182 N   0  0  0  0  0  0  0  0  0  0  0  0
  146.8243  133.0047  152.1259 C   0  0  0  0  0  0  0  0  0  0  0  0
  146.6744  133.1612  150.6028 C   0  0  0  0  0  0  0  0  0  0  0  0
  145.4694  133.8573  150.3075 O   0  0  0  0  0  0  0  0  0  0  0  0
  145.4216  135.1425  150.9150 C   0  0  0  0  0  0  0  0  0  0  0  0
  145.5555  134.9979  152.4403 C   0  0  0  0  0  0  0  0  0  0  0  0
  149.6008  131.7694  154.5986 H   0  0  0  0  0  0  0  0  0  0  0  0
  148.3364  131.7873  153.3810 H   0  0  0  0  0  0  0  0  0  0  0  0
  147.9256  131.5725  155.0813 H   0  0  0  0  0  0  0  0  0  0  0  0
  148.7874  133.8646  155.5819 H   0  0  0  0  0  0  0  0  0  0  0  0
  149.2286  134.1066  153.9349 H   0  0  0  0  0  0  0  0  0  0  0  0
  146.3506  133.0610  156.0022 H   0  0  0  0  0  0  0  0  0  0  0  0
  145.8951  132.3863  154.4491 H   0  0  0  0  0  0  0  0  0  0  0  0
  145.0619  133.7968  155.0832 H   0  0  0  0  0  0  0  0  0  0  0  0
  146.0707  136.1565  154.6921 H   0  0  0  0  0  0  0  0  0  0  0  0
  147.0176  135.5866  156.0305 H   0  0  0  0  0  0  0  0  0  0  0  0
  148.2525  136.5946  153.5117 H   0  0  0  0  0  0  0  0  0  0  0  0
  149.7949  138.0202  153.5253 H   0  0  0  0  0  0  0  0  0  0  0  0
  151.5135  136.7645  154.7993 H   0  0  0  0  0  0  0  0  0  0  0  0
  151.5034  137.9836  156.0680 H   0  0  0  0  0  0  0  0  0  0  0  0
  152.0505  138.4008  154.4482 H   0  0  0  0  0  0  0  0  0  0  0  0
  148.9669  140.3336  152.9076 H   0  0  0  0  0  0  0  0  0  0  0  0
  149.3036  142.2056  156.5635 H   0  0  0  0  0  0  0  0  0  0  0  0
  147.7625  132.4859  152.3143 H   0  0  0  0  0  0  0  0  0  0  0  0
  146.0259  132.3585  152.4898 H   0  0  0  0  0  0  0  0  0  0  0  0
  147.5261  133.6994  150.1838 H   0  0  0  0  0  0  0  0  0  0  0  0
  146.6466  132.1827  150.1232 H   0  0  0  0  0  0  0  0  0  0  0  0
  146.2177  135.7726  150.5155 H   0  0  0  0  0  0  0  0  0  0  0  0
  144.4760  135.6217  150.6612 H   0  0  0  0  0  0  0  0  0  0  0  0
  144.6853  134.4598  152.8164 H   0  0  0  0  0  0  0  0  0  0  0  0
  145.5221  135.9958  152.8734 H   0  0  0  0  0  0  0  0  0  0  0  0
  1  2  1  0  0  0  0
  1 22  1  0  0  0  0
  1 23  1  0  0  0  0
  1 24  1  0  0  0  0
  2  3  1  0  0  0  0
  2 25  1  0  0  0  0
  2 26  1  0  0  0  0
  3  4  1  0  0  0  0
  3  5  1  0  0  0  0
  3 16  1  0  0  0  0
  4 27  1  0  0  0  0
  4 28  1  0  0  0  0
  4 29  1  0  0  0  0
  5  6  1  0  0  0  0
  5 30  1  0  0  0  0
  5 31  1  0  0  0  0
  6  7  1  0  0  0  0
  6 32  1  0  0  0  0
  7  8  2  0  0  0  0
  7  9  1  0  0  0  0
  9 10  1  0  0  0  0
  9 11  1  0  0  0  0
  9 33  1  0  0  0  0
 10 34  1  0  0  0  0
 10 35  1  0  0  0  0
 10 36  1  0  0  0  0
 11 15  1  0  0  0  0
 11 12  1  0  0  0  0
 12 13  2  0  0  0  0
 12 37  1  0  0  0  0
 13 14  1  0  0  0  0
 14 15  2  0  0  0  0
 14 38  1  0  0  0  0
 16 21  1  0  0  0  0
 16 17  1  0  0  0  0
 17 18  1  0  0  0  0
 17 39  1  0  0  0  0
 17 40  1  0  0  0  0
 18 19  1  0  0  0  0
 18 41  1  0  0  0  0
 18 42  1  0  0  0  0
 19 20  1  0  0  0  0
 20 21  1  0  0  0  0
 20 43  1  0  0  0  0
 20 44  1  0  0  0  0
 21 45  1  0  0  0  0
 21 46  1  0  0  0  0
M  END
> <s_m_source_file>
AV-unprocessed.smi

> <i_m_source_file_index>
1285

> <i_lp_mmshare_version>
43012

> <i_f3d_flags>
0

> <s_epik_input>
W0NIMl0xW0NIMl1PW0NIMl1bQ0gyXU4xW0NAQF0oW0NIM10pKFtDSDJdW0NIM10pW0NIMl1bTkhdQyg9TylbQ0BIXShbQ0gzXSluMltjSF1uW2NIXW4y

> <s_epik_cmdline>
J2VwaWtfcHl0aG9uJywgJy1waCcsICc3LjAnLCAnLXRuJywgJzgnLCAnLW1hJywgJzIwMCcsICctbWV0YWxfYmluZGluZycsICctaW1hZScsICc8aW5maWxlLm1hZT4nLCAnLW9tYWUnLCAnPG91dGZpbGUubWFlPic=

> <r_lp_tautomer_probability>
1

> <r_epik_Ionization_Penalty>
0.285697

> <r_epik_Ionization_Penalty_Charging>
0

> <r_epik_Ionization_Penalty_Neutral>
0.285697

> <r_epik_State_Penalty>
0.278478

> <r_epik_Charging_Adjusted_Penalty>
0.278478

> <i_epik_Tot_Q>
0

> <i_epik_Tot_abs_Q>
0

> <r_epik_Metal_State_Penalty>
0.278477

> <b_epik_Metal_Only>
0

> <s_lp_Force_Field>
OPLS_2005

> <r_lp_Energy>
49.2775

> <b_lp_Chiralities_Consistent>
1

> <s_lp_Variant>
AV-unprocessed.smi:1285-1

> <Gold.Version>
5.8.1

> <Gold.Id.Protein>
6NUR|6NUR_protein|mol2

> <Gold.PLP.Fitness>
35.4991

> <Gold.PLP.PLP>
-30.2878

> <Gold.PLP.part.hbond>
-1.0000

> <Gold.PLP.part.metal>
0.0000

> <Gold.PLP.part.buried>
-5.0548

> <Gold.PLP.part.nonpolar>
-26.3130

> <Gold.PLP.part.repulsive>
1.8080

> <Gold.PLP.ligand.clash>
0.0000

> <Gold.PLP.ligand.torsion>
0.4916

> <Gold.PLP.Chemscore.Hbond>
1.0000

> <Gold.PLP.Chemscore.CHOScore>
1.0000

> <Gold.PLP.Chemscore.Metal>
0.0000

> <Gold.Chemscore.Hbonds>
donor molecule, donor type, donor heavy atom, donor atom, acceptor molecule, acceptor atom, score
      L1  H     6    32       P1  7948  1.00
      L1  C    12    37       P1  7957  0.63
      L1  C    14    38       P1  8028  0.38

> <Gold.PLP.Chemscore.Internal.Correction>
0.1945

> <Gold.Rescore>
     Score         DG    S(hbond)    S(metal)    S(lipo)     H(rot)  DE(clash)    DE(int)     intcor
      7.20      -8.34       0.99        0.00      54.85       2.68       0.05       1.09       ----

> <Gold.Chemscore.Fitness>
7.1980

> <Gold.Chemscore.DG>
-8.3429

> <Gold.Chemscore.ZeroCoef>
-5.4800

> <Gold.Chemscore.Hbond>
0.9914

> <Gold.Chemscore.Metal>
0.0000

> <Gold.Chemscore.Lipo>
54.8523

> <Gold.Chemscore.Internal_Hbond>
0.0000

> <Gold.Chemscore.DEClash>
0.0546

> <Gold.Chemscore.DEInternal>
1.0903

> <Gold.Chemscore.Rot>
2.6821

> <Gold.Chemscore.Internal.Correction>
   9.000000E+99

> <Gold.Chemscore.Hbonds>
donor molecule, donor type, donor heavy atom, donor atom, acceptor molecule, acceptor atom, score
      L1  H     6    32       P1  7948  1.00

> <Gold.Chemscore.Hbond.Weighted>
-3.3113

> <Gold.Chemscore.Metal.Weighted>
-0.0000

> <Gold.Chemscore.Lipo.Weighted>
-6.4177

> <Gold.Chemscore.Internal_Hbond.Weighted>
0.0000

> <Gold.Chemscore.DEClash.Weighted>
0.0546

> <Gold.Chemscore.DEInternal.Weighted>
1.0903

> <Gold.Chemscore.Rot.Weighted>
6.8661

> <Gold.Chemscore.Internal.Correction.Weighted>
   9.000000E+99

> <Gold.Protein.RotatedTorsions>
[ 6907 6896 6895 6894 ] final  -70.42 input  -60.11 | X-H torsion
[ 7974 7965 7964 7962 ] final  121.62 input  175.53 | X-H torsion
[ 8008 7997 7996 7995 ] final   23.94 input   59.86 | X-H torsion
[ 10167 10162 10161 10158 ] final   -4.08 input  -65.29 | X-H torsion
[ 10718 10713 10712 10709 ] final   41.75 input   66.30 | X-H torsion
[ 10763 10752 10751 10750 ] final   29.80 input  -60.55 | X-H torsion
[ 11005 11000 10999 10996 ] final  138.83 input  -57.11 | X-H torsion

> <Gold.Protein.ActiveResidues>
 VAL166  LYS551  ARG553  GLY616  TRP617  ASP618  TYR619  PRO620  LYS621  CYS622 
 ASP623  PHE694  ASN695  SER759  ASP760  ASP761  ALA762  ILE779  LEU786  VAL792 
 PHE793  MET794  SER795  GLU796  ALA797  LYS798  CYS799  TRP800  GLU811  SER814 

> <Gold.Protein.RotatedAtoms>
  150.7258  134.5455  159.5768 H   0  0  0  0  0  0  0  0  0  0  0  0  # atno 6907 bound_to 6896
  152.2955  134.7669  160.0378 H   0  0  0  0  0  0  0  0  0  0  0  0  # atno 6908 bound_to 6896
  151.8268  133.3367  159.3637 H   0  0  0  0  0  0  0  0  0  0  0  0  # atno 6909 bound_to 6896
  145.1171  139.3413  143.4733 H   0  0  0  0  0  0  0  0  0  0  0  0  # atno 7974 bound_to 7965
  154.9886  140.3111  155.4916 H   0  0  0  0  0  0  0  0  0  0  0  0  # atno 8008 bound_to 7997
  156.2943  140.2253  156.4930 H   0  0  0  0  0  0  0  0  0  0  0  0  # atno 8009 bound_to 7997
  154.7724  140.0451  157.1050 H   0  0  0  0  0  0  0  0  0  0  0  0  # atno 8010 bound_to 7997
  140.6914  143.6465  150.8388 H   0  0  0  0  0  0  0  0  0  0  0  0  # atno 10167 bound_to 10162
  157.3971  130.7839  149.7318 H   0  0  0  0  0  0  0  0  0  0  0  0  # atno 10718 bound_to 10713
  153.0409  135.6480  154.0946 H   0  0  0  0  0  0  0  0  0  0  0  0  # atno 10763 bound_to 10752
  154.0653  135.2885  155.3319 H   0  0  0  0  0  0  0  0  0  0  0  0  # atno 10764 bound_to 10752
  154.6630  135.5384  153.8107 H   0  0  0  0  0  0  0  0  0  0  0  0  # atno 10765 bound_to 10752
  140.0211  134.9396  157.0476 H   0  0  0  0  0  0  0  0  0  0  0  0  # atno 11005 bound_to 11000
  146.3523  140.1115  142.8603 LP  0  0  0  0  0  0  0  0  0  0  0  0  # atno 17320 bound_to 7965
  145.0781  140.9202  143.4842 LP  0  0  0  0  0  0  0  0  0  0  0  0  # atno 17321 bound_to 7965
  140.0179  143.5574  152.2813 LP  0  0  0  0  0  0  0  0  0  0  0  0  # atno 17342 bound_to 10162
  139.6321  144.7645  151.2514 LP  0  0  0  0  0  0  0  0  0  0  0  0  # atno 17343 bound_to 10162
  155.9813  130.4020  150.3478 LP  0  0  0  0  0  0  0  0  0  0  0  0  # atno 17370 bound_to 10713
  157.1601  131.0343  151.2845 LP  0  0  0  0  0  0  0  0  0  0  0  0  # atno 17371 bound_to 10713
  140.4385  134.1705  155.7172 LP  0  0  0  0  0  0  0  0  0  0  0  0  # atno 17394 bound_to 11000
  141.1774  133.8485  157.1374 LP  0  0  0  0  0  0  0  0  0  0  0  0  # atno 17395 bound_to 11000

$$$$
