AV-unprocessed.smi:1772|AV-procd|sdf|7162|dock1
  -GOLD-   22720 8403D 1   1.00000     0.00000
 Structure written by MMmdl.
 34 35  0  0  0  0  0  0  0  0  2 V2000
  146.4523  131.0195  153.5900 O   0  0  0  0  0  0  0  0  0  0  0  0
  147.2137  130.9582  152.6249 C   0  0  0  0  0  0  0  0  0  0  0  0
  148.4491  130.4419  152.6917 N   0  0  0  0  0  0  0  0  0  0  0  0
  149.0652  129.8984  153.8980 C   0  0  0  0  0  0  0  0  0  0  0  0
  149.6016  131.0046  154.8277 C   0  0  1  0  0  0  0  0  0  0  0  0
  149.9414  132.2997  154.0651 C   0  0  0  0  0  0  0  0  0  0  0  0
  150.2038  133.4129  155.0845 C   0  0  0  0  0  0  0  0  0  0  0  0
  149.0827  133.0689  156.4913 S   0  0  0  0  0  0  0  0  0  0  0  0
  149.8729  133.0076  157.7299 O   0  0  0  0  0  0  0  0  0  0  0  0
  147.8931  133.9279  156.3932 O   0  0  0  0  0  0  0  0  0  0  0  0
  148.6338  131.3709  155.9661 C   0  0  0  0  0  0  0  0  0  0  0  0
  146.9263  131.3756  151.3796 N   0  0  0  0  0  0  0  0  0  0  0  0
  145.7319  131.9790  150.8987 C   0  0  0  0  0  0  0  0  0  0  0  0
  144.8236  132.4811  151.8572 C   0  0  0  0  0  0  0  0  0  0  0  0
  143.6188  133.0762  151.4303 C   0  0  0  0  0  0  0  0  0  0  0  0
  143.3372  133.1531  150.1122 N   0  3  0  0  0  0  0  0  0  0  0  0
  144.1662  132.6744  149.1597 C   0  0  0  0  0  0  0  0  0  0  0  0
  145.3856  132.0689  149.5262 C   0  0  0  0  0  0  0  0  0  0  0  0
  149.0073  130.4249  151.8505 H   0  0  0  0  0  0  0  0  0  0  0  0
  148.3480  129.2711  154.4302 H   0  0  0  0  0  0  0  0  0  0  0  0
  149.8794  129.2406  153.5922 H   0  0  0  0  0  0  0  0  0  0  0  0
  150.5282  130.6565  155.2868 H   0  0  0  0  0  0  0  0  0  0  0  0
  150.7923  132.1641  153.3969 H   0  0  0  0  0  0  0  0  0  0  0  0
  149.0912  132.5847  153.4437 H   0  0  0  0  0  0  0  0  0  0  0  0
  151.2294  133.3670  155.4515 H   0  0  0  0  0  0  0  0  0  0  0  0
  150.0182  134.4111  154.6873 H   0  0  0  0  0  0  0  0  0  0  0  0
  147.6026  131.3952  155.6128 H   0  0  0  0  0  0  0  0  0  0  0  0
  148.6952  130.6885  156.8141 H   0  0  0  0  0  0  0  0  0  0  0  0
  147.6273  131.1860  150.6784 H   0  0  0  0  0  0  0  0  0  0  0  0
  145.0470  132.4188  152.9125 H   0  0  0  0  0  0  0  0  0  0  0  0
  142.8773  133.4883  152.0993 H   0  0  0  0  0  0  0  0  0  0  0  0
  143.8290  132.7840  148.1393 H   0  0  0  0  0  0  0  0  0  0  0  0
  146.0225  131.6764  148.7484 H   0  0  0  0  0  0  0  0  0  0  0  0
  142.4595  133.5867  149.8239 H   0  0  0  0  0  0  0  0  0  0  0  0
  1  2  2  0  0  0  0
  2  3  1  0  0  0  0
  2 12  1  0  0  0  0
  3  4  1  0  0  0  0
  3 19  1  0  0  0  0
  4  5  1  0  0  0  0
  4 20  1  0  0  0  0
  4 21  1  0  0  0  0
  5 11  1  0  0  0  0
  5  6  1  0  0  0  0
  5 22  1  0  0  0  0
  6  7  1  0  0  0  0
  6 23  1  0  0  0  0
  6 24  1  0  0  0  0
  7  8  1  0  0  0  0
  7 25  1  0  0  0  0
  7 26  1  0  0  0  0
  8  9  2  0  0  0  0
  8 10  2  0  0  0  0
  8 11  1  0  0  0  0
 11 27  1  0  0  0  0
 11 28  1  0  0  0  0
 12 13  1  0  0  0  0
 12 29  1  0  0  0  0
 13 18  1  0  0  0  0
 13 14  2  0  0  0  0
 14 15  1  0  0  0  0
 14 30  1  0  0  0  0
 15 16  2  0  0  0  0
 15 31  1  0  0  0  0
 16 17  1  0  0  0  0
 16 34  1  0  0  0  0
 17 18  2  0  0  0  0
 17 32  1  0  0  0  0
 18 33  1  0  0  0  0
M  CHG  1  16   1
M  END
> <s_m_source_file>
AV-unprocessed.smi

> <i_m_source_file_index>
1772

> <i_lp_mmshare_version>
43012

> <i_f3d_flags>
0

> <s_epik_input>
W2NIXTFbY0hdbltjSF1bY0hdYzFbTkhdQyg9TylbTkhdW0NIMl1bQ0BASF0oW0NIMl0yKVtDSDJdW0NIMl1TMig9Tyk9Tw==

> <s_epik_cmdline>
J2VwaWtfcHl0aG9uJywgJy1waCcsICc3LjAnLCAnLXRuJywgJzgnLCAnLW1hJywgJzIwMCcsICctbWV0YWxfYmluZGluZycsICctaW1hZScsICc8aW5maWxlLm1hZT4nLCAnLW9tYWUnLCAnPG91dGZpbGUubWFlPic=

> <r_epik_Ionization_Penalty>
1.04917

> <r_epik_Ionization_Penalty_Charging>
1.04915

> <r_epik_Ionization_Penalty_Neutral>
1.90771e-05

> <r_epik_State_Penalty>
1.10185

> <r_epik_Charging_Adjusted_Penalty>
2.151

> <i_epik_Tot_Q>
1

> <i_epik_Tot_abs_Q>
1

> <r_epik_Metal_State_Penalty>
1.19638

> <b_epik_Metal_Only>
0

> <s_lp_Force_Field>
OPLS_2005

> <r_lp_Energy>
14.8117

> <b_lp_Chiralities_Consistent>
1

> <s_lp_Variant>
AV-unprocessed.smi:1772-4

> <Gold.Version>
5.8.1

> <Gold.Id.Protein>
6NUR|6NUR_protein|mol2

> <Gold.PLP.Fitness>
43.7416

> <Gold.PLP.PLP>
-30.2150

> <Gold.PLP.part.hbond>
-4.0000

> <Gold.PLP.part.metal>
0.0000

> <Gold.PLP.part.buried>
-4.7451

> <Gold.PLP.part.nonpolar>
-21.4510

> <Gold.PLP.part.repulsive>
0.2631

> <Gold.PLP.ligand.clash>
0.0000

> <Gold.PLP.ligand.torsion>
0.6791

> <Gold.PLP.Chemscore.Hbond>
4.9600

> <Gold.PLP.Chemscore.CHOScore>
0.0000

> <Gold.PLP.Chemscore.Metal>
0.0000

> <Gold.Chemscore.Hbonds>
donor molecule, donor type, donor heavy atom, donor atom, acceptor molecule, acceptor atom, score
      L1  H     3    19       P1 10747  0.75
      L1  H    12    29       P1 10747  0.78
      L1  H    16    34       P1 10186  2.00
      P1  H  6896  6908       L1     9  1.00

> <Gold.PLP.Chemscore.Internal.Correction>
0.0049

> <Gold.Rescore>
     Score         DG    S(hbond)    S(metal)    S(lipo)     H(rot)  DE(clash)    DE(int)     intcor
     19.98     -22.15       3.55        0.00      69.88       1.32       0.04       2.14       ----

> <Gold.Chemscore.Fitness>
19.9788

> <Gold.Chemscore.DG>
-22.1540

> <Gold.Chemscore.ZeroCoef>
-5.4800

> <Gold.Chemscore.Hbond>
3.5524

> <Gold.Chemscore.Metal>
0.0000

> <Gold.Chemscore.Lipo>
69.8830

> <Gold.Chemscore.Internal_Hbond>
0.0000

> <Gold.Chemscore.DEClash>
0.0383

> <Gold.Chemscore.DEInternal>
2.1369

> <Gold.Chemscore.Rot>
1.3153

> <Gold.Chemscore.Internal.Correction>
   9.000000E+99

> <Gold.Chemscore.Hbonds>
donor molecule, donor type, donor heavy atom, donor atom, acceptor molecule, acceptor atom, score
      L1  H     3    19       P1 10747  0.12
      L1  H    12    29       P1 10747  0.74
      L1  H    16    34       P1 10186  1.00
      P1  H  6896  6908       L1     9  0.99

> <Gold.Chemscore.Hbond.Weighted>
-11.8650

> <Gold.Chemscore.Metal.Weighted>
-0.0000

> <Gold.Chemscore.Lipo.Weighted>
-8.1763

> <Gold.Chemscore.Internal_Hbond.Weighted>
0.0000

> <Gold.Chemscore.DEClash.Weighted>
0.0383

> <Gold.Chemscore.DEInternal.Weighted>
2.1369

> <Gold.Chemscore.Rot.Weighted>
3.3673

> <Gold.Chemscore.Internal.Correction.Weighted>
   9.000000E+99

> <Gold.Protein.RotatedTorsions>
[ 6907 6896 6895 6894 ] final  102.48 input  -60.11 | X-H torsion
[ 7974 7965 7964 7962 ] final   90.24 input  175.53 | X-H torsion
[ 8008 7997 7996 7995 ] final -125.15 input   59.86 | X-H torsion
[ 10167 10162 10161 10158 ] final -168.49 input  -65.29 | X-H torsion
[ 10718 10713 10712 10709 ] final  -32.01 input   66.30 | X-H torsion
[ 10763 10752 10751 10750 ] final  -39.12 input  -60.55 | X-H torsion
[ 11005 11000 10999 10996 ] final -130.07 input  -57.11 | X-H torsion

> <Gold.Protein.ActiveResidues>
 VAL166  LYS551  ARG553  GLY616  TRP617  ASP618  TYR619  PRO620  LYS621  CYS622 
 ASP623  PHE694  ASN695  SER759  ASP760  ASP761  ALA762  ILE779  LEU786  VAL792 
 PHE793  MET794  SER795  GLU796  ALA797  LYS798  CYS799  TRP800  GLU811  SER814 

> <Gold.Protein.RotatedAtoms>
  152.5322  133.9969  159.7876 H   0  0  0  0  0  0  0  0  0  0  0  0  # atno 6907 bound_to 6896
  151.0195  133.5882  159.2680 H   0  0  0  0  0  0  0  0  0  0  0  0  # atno 6908 bound_to 6896
  151.2927  135.0753  159.9263 H   0  0  0  0  0  0  0  0  0  0  0  0  # atno 6909 bound_to 6896
  145.5216  139.2279  143.2668 H   0  0  0  0  0  0  0  0  0  0  0  0  # atno 7974 bound_to 7965
  155.2086  140.0418  157.2929 H   0  0  0  0  0  0  0  0  0  0  0  0  # atno 8008 bound_to 7997
  154.6027  140.2456  155.7743 H   0  0  0  0  0  0  0  0  0  0  0  0  # atno 8009 bound_to 7997
  156.2331  140.2931  156.0249 H   0  0  0  0  0  0  0  0  0  0  0  0  # atno 8010 bound_to 7997
  139.5982  144.1066  152.1713 H   0  0  0  0  0  0  0  0  0  0  0  0  # atno 10167 bound_to 10162
  156.3802  130.4355  149.7475 H   0  0  0  0  0  0  0  0  0  0  0  0  # atno 10718 bound_to 10713
  153.9241  135.6779  153.4747 H   0  0  0  0  0  0  0  0  0  0  0  0  # atno 10763 bound_to 10752
  153.1013  135.4826  154.8869 H   0  0  0  0  0  0  0  0  0  0  0  0  # atno 10764 bound_to 10752
  154.7462  135.3173  154.8596 H   0  0  0  0  0  0  0  0  0  0  0  0  # atno 10765 bound_to 10752
  140.9378  134.1234  157.4178 H   0  0  0  0  0  0  0  0  0  0  0  0  # atno 11005 bound_to 11000
  146.2102  140.6028  142.9063 LP  0  0  0  0  0  0  0  0  0  0  0  0  # atno 17320 bound_to 7965
  144.7673  140.5559  143.6694 LP  0  0  0  0  0  0  0  0  0  0  0  0  # atno 17321 bound_to 7965
  140.0657  144.5821  150.7229 LP  0  0  0  0  0  0  0  0  0  0  0  0  # atno 17342 bound_to 10162
  140.7229  143.2606  151.4219 LP  0  0  0  0  0  0  0  0  0  0  0  0  # atno 17343 bound_to 10162
  156.4568  130.7933  151.2953 LP  0  0  0  0  0  0  0  0  0  0  0  0  # atno 17370 bound_to 10713
  157.7492  131.0078  150.3204 LP  0  0  0  0  0  0  0  0  0  0  0  0  # atno 17371 bound_to 10713
  139.8812  135.0026  156.6139 LP  0  0  0  0  0  0  0  0  0  0  0  0  # atno 17394 bound_to 11000
  140.7776  133.8686  155.8541 LP  0  0  0  0  0  0  0  0  0  0  0  0  # atno 17395 bound_to 11000

$$$$
