AV-unprocessed.smi:1990|AV-procd|sdf|8062|dock1
  -GOLD-   2272010263D 1   1.00000     0.00000
 Structure written by MMmdl.
 46 47  0  0  0  0  0  0  0  0  1 V2000
  150.8380  145.0606  158.9006 C   0  0  0  0  0  0  0  0  0  0  0  0
  151.8763  143.9386  158.9993 C   0  0  2  0  0  0  0  0  0  0  0  0
  151.3955  142.6414  158.3207 C   0  0  0  0  0  0  0  0  0  0  0  0
  152.3712  141.5789  158.5259 N   0  0  0  0  0  0  0  0  0  0  0  0
  152.0667  140.3973  157.8353 C   0  0  0  0  0  0  0  0  0  0  0  0
  151.7699  140.4674  156.4588 C   0  0  0  0  0  0  0  0  0  0  0  0
  151.4665  139.2793  155.7669 C   0  0  0  0  0  0  0  0  0  0  0  0
  151.4778  138.0536  156.4747 C   0  0  0  0  0  0  0  0  0  0  0  0
  151.1698  136.7928  155.8971 N   0  0  0  0  0  0  0  0  0  0  0  0
  150.9941  135.6081  156.5119 C   0  0  0  0  0  0  0  0  0  0  0  0
  151.0233  135.4470  157.7318 O   0  0  0  0  0  0  0  0  0  0  0  0
  150.7092  134.4147  155.5892 C   0  0  2  0  0  0  0  0  0  0  0  0
  149.4070  134.6026  154.7934 C   0  0  0  0  0  0  0  0  0  0  0  0
  150.6230  132.8519  156.5834 S   0  0  0  0  0  0  0  0  0  0  0  0
  150.4195  131.5497  155.2959 C   0  0  0  0  0  0  0  0  0  0  0  0
  151.9168  132.6353  157.2493 O   0  0  0  0  0  0  0  0  0  0  0  0
  149.3950  132.8936  157.3920 O   0  0  0  0  0  0  0  0  0  0  0  0
  151.7716  138.0953  157.8535 C   0  0  0  0  0  0  0  0  0  0  0  0
  152.0641  139.2304  158.5226 N   0  0  0  0  0  0  0  0  0  0  0  0
  152.6737  141.3678  159.9358 C   0  0  0  0  0  0  0  0  0  0  0  0
  153.1298  142.6899  160.5826 C   0  0  2  0  0  0  0  0  0  0  0  0
  153.3625  142.5439  162.0899 C   0  0  0  0  0  0  0  0  0  0  0  0
  152.1227  143.6789  160.3797 O   0  0  0  0  0  0  0  0  0  0  0  0
  150.6185  145.3022  157.8604 H   0  0  0  0  0  0  0  0  0  0  0  0
  151.2001  145.9687  159.3835 H   0  0  0  0  0  0  0  0  0  0  0  0
  149.9027  144.7763  159.3838 H   0  0  0  0  0  0  0  0  0  0  0  0
  152.8012  144.2780  158.5294 H   0  0  0  0  0  0  0  0  0  0  0  0
  150.4309  142.3396  158.7320 H   0  0  0  0  0  0  0  0  0  0  0  0
  151.2530  142.8070  157.2519 H   0  0  0  0  0  0  0  0  0  0  0  0
  151.7694  141.4151  155.9403 H   0  0  0  0  0  0  0  0  0  0  0  0
  151.2186  139.3350  154.7185 H   0  0  0  0  0  0  0  0  0  0  0  0
  151.0189  136.8012  154.8987 H   0  0  0  0  0  0  0  0  0  0  0  0
  151.5320  134.2999  154.8826 H   0  0  0  0  0  0  0  0  0  0  0  0
  149.4127  135.5409  154.2375 H   0  0  0  0  0  0  0  0  0  0  0  0
  148.5338  134.6041  155.4469 H   0  0  0  0  0  0  0  0  0  0  0  0
  149.2750  133.7962  154.0720 H   0  0  0  0  0  0  0  0  0  0  0  0
  150.2705  130.5855  155.7814 H   0  0  0  0  0  0  0  0  0  0  0  0
  151.3122  131.4985  154.6730 H   0  0  0  0  0  0  0  0  0  0  0  0
  149.5526  131.7787  154.6769 H   0  0  0  0  0  0  0  0  0  0  0  0
  151.7769  137.1879  158.4397 H   0  0  0  0  0  0  0  0  0  0  0  0
  151.7889  140.9877  160.4489 H   0  0  0  0  0  0  0  0  0  0  0  0
  153.4541  140.6121  160.0343 H   0  0  0  0  0  0  0  0  0  0  0  0
  154.0586  143.0260  160.1181 H   0  0  0  0  0  0  0  0  0  0  0  0
  154.1318  141.7999  162.2981 H   0  0  0  0  0  0  0  0  0  0  0  0
  152.4502  142.2353  162.6015 H   0  0  0  0  0  0  0  0  0  0  0  0
  153.6865  143.4886  162.5270 H   0  0  0  0  0  0  0  0  0  0  0  0
  1  2  1  0  0  0  0
  1 24  1  0  0  0  0
  1 25  1  0  0  0  0
  1 26  1  0  0  0  0
  2 23  1  0  0  0  0
  2  3  1  0  0  0  0
  2 27  1  0  0  0  0
  3  4  1  0  0  0  0
  3 28  1  0  0  0  0
  3 29  1  0  0  0  0
  4  5  1  0  0  0  0
  4 20  1  0  0  0  0
  5 19  1  0  0  0  0
  5  6  2  0  0  0  0
  6  7  1  0  0  0  0
  6 30  1  0  0  0  0
  7  8  2  0  0  0  0
  7 31  1  0  0  0  0
  8  9  1  0  0  0  0
  8 18  1  0  0  0  0
  9 10  1  0  0  0  0
  9 32  1  0  0  0  0
 10 11  2  0  0  0  0
 10 12  1  0  0  0  0
 12 13  1  0  0  0  0
 12 14  1  0  0  0  0
 12 33  1  0  0  0  0
 13 34  1  0  0  0  0
 13 35  1  0  0  0  0
 13 36  1  0  0  0  0
 14 15  1  0  0  0  0
 14 16  2  0  0  0  0
 14 17  2  0  0  0  0
 15 37  1  0  0  0  0
 15 38  1  0  0  0  0
 15 39  1  0  0  0  0
 18 19  2  0  0  0  0
 18 40  1  0  0  0  0
 20 21  1  0  0  0  0
 20 41  1  0  0  0  0
 20 42  1  0  0  0  0
 21 22  1  0  0  0  0
 21 23  1  0  0  0  0
 21 43  1  0  0  0  0
 22 44  1  0  0  0  0
 22 45  1  0  0  0  0
 22 46  1  0  0  0  0
M  END
> <s_m_source_file>
AV-unprocessed.smi

> <i_m_source_file_index>
1990

> <i_lp_mmshare_version>
43012

> <i_f3d_flags>
0

> <s_epik_input>
W0NIM11bQ0BASF0xW0NIMl1OKFtDSDJdW0NASF0oTzEpW0NIM10pYzJbY0hdW2NIXWMoW2NIXW4yKVtOSF1DKD1PKVtDQEhdKFtDSDNdKVMoPU8pKD1PKVtDSDNd

> <s_epik_cmdline>
J2VwaWtfcHl0aG9uJywgJy1waCcsICc3LjAnLCAnLXRuJywgJzgnLCAnLW1hJywgJzIwMCcsICctbWV0YWxfYmluZGluZycsICctaW1hZScsICc8aW5maWxlLm1hZT4nLCAnLW9tYWUnLCAnPG91dGZpbGUubWFlPic=

> <r_lp_tautomer_probability>
1

> <r_epik_Ionization_Penalty>
0.000334888

> <r_epik_Ionization_Penalty_Charging>
0

> <r_epik_Ionization_Penalty_Neutral>
0.000334888

> <r_epik_State_Penalty>
0.000200905

> <r_epik_Charging_Adjusted_Penalty>
0.000200905

> <i_epik_Tot_Q>
0

> <i_epik_Tot_abs_Q>
0

> <r_epik_Metal_State_Penalty>
-0

> <b_epik_Metal_Only>
0

> <s_lp_Force_Field>
OPLS_2005

> <r_lp_Energy>
20.1561

> <b_lp_Chiralities_Consistent>
1

> <s_lp_Variant>
AV-unprocessed.smi:1990-2

> <Gold.Version>
5.8.1

> <Gold.Id.Protein>
6NUR|6NUR_protein|mol2

> <Gold.PLP.Fitness>
44.6607

> <Gold.PLP.PLP>
-40.5758

> <Gold.PLP.part.hbond>
-2.0000

> <Gold.PLP.part.metal>
0.0000

> <Gold.PLP.part.buried>
-6.3122

> <Gold.PLP.part.nonpolar>
-32.6456

> <Gold.PLP.part.repulsive>
0.1416

> <Gold.PLP.ligand.clash>
0.0000

> <Gold.PLP.ligand.torsion>
0.2173

> <Gold.PLP.Chemscore.Hbond>
1.4160

> <Gold.PLP.Chemscore.CHOScore>
0.0000

> <Gold.PLP.Chemscore.Metal>
0.0000

> <Gold.Chemscore.Hbonds>
donor molecule, donor type, donor heavy atom, donor atom, acceptor molecule, acceptor atom, score
      P1  H  6896  6907       L1    11  0.29
      P1  H  6896  6909       L1    16  0.75

> <Gold.PLP.Chemscore.Internal.Correction>
0.2715

> <Gold.Rescore>
     Score         DG    S(hbond)    S(metal)    S(lipo)     H(rot)  DE(clash)    DE(int)     intcor
     15.92     -18.91       1.56        0.00     103.54       1.52       0.05       2.94       ----

> <Gold.Chemscore.Fitness>
15.9236

> <Gold.Chemscore.DG>
-18.9120

> <Gold.Chemscore.ZeroCoef>
-5.4800

> <Gold.Chemscore.Hbond>
1.5577

> <Gold.Chemscore.Metal>
0.0000

> <Gold.Chemscore.Lipo>
103.5435

> <Gold.Chemscore.Internal_Hbond>
0.0000

> <Gold.Chemscore.DEClash>
0.0500

> <Gold.Chemscore.DEInternal>
2.9384

> <Gold.Chemscore.Rot>
1.5177

> <Gold.Chemscore.Internal.Correction>
   9.000000E+99

> <Gold.Chemscore.Hbonds>
donor molecule, donor type, donor heavy atom, donor atom, acceptor molecule, acceptor atom, score
      P1  H  6896  6907       L1    11  0.27
      P1  H  6896  6909       L1    16  0.28

> <Gold.Chemscore.Hbond.Weighted>
-5.2026

> <Gold.Chemscore.Metal.Weighted>
-0.0000

> <Gold.Chemscore.Lipo.Weighted>
-12.1146

> <Gold.Chemscore.Internal_Hbond.Weighted>
0.0000

> <Gold.Chemscore.DEClash.Weighted>
0.0500

> <Gold.Chemscore.DEInternal.Weighted>
2.9384

> <Gold.Chemscore.Rot.Weighted>
3.8853

> <Gold.Chemscore.Internal.Correction.Weighted>
   9.000000E+99

> <Gold.Protein.RotatedTorsions>
[ 6907 6896 6895 6894 ] final  -53.88 input  -60.11 | X-H torsion
[ 7974 7965 7964 7962 ] final   31.86 input  175.53 | X-H torsion
[ 8008 7997 7996 7995 ] final  -31.99 input   59.86 | X-H torsion
[ 10167 10162 10161 10158 ] final  -40.84 input  -65.29 | X-H torsion
[ 10718 10713 10712 10709 ] final   97.69 input   66.30 | X-H torsion
[ 10763 10752 10751 10750 ] final  -36.41 input  -60.55 | X-H torsion
[ 11005 11000 10999 10996 ] final  -73.79 input  -57.11 | X-H torsion

> <Gold.Protein.ActiveResidues>
 VAL166  LYS551  ARG553  GLY616  TRP617  ASP618  TYR619  PRO620  LYS621  CYS622 
 ASP623  PHE694  ASN695  SER759  ASP760  ASP761  ALA762  ILE779  LEU786  VAL792 
 PHE793  MET794  SER795  GLU796  ALA797  LYS798  CYS799  TRP800  GLU811  SER814 

> <Gold.Protein.RotatedAtoms>
  150.8387  134.7671  159.6914 H   0  0  0  0  0  0  0  0  0  0  0  0  # atno 6907 bound_to 6896
  152.4479  134.5452  159.9860 H   0  0  0  0  0  0  0  0  0  0  0  0  # atno 6908 bound_to 6896
  151.5597  133.3367  159.3004 H   0  0  0  0  0  0  0  0  0  0  0  0  # atno 6909 bound_to 6896
  146.1523  139.6601  142.9090 H   0  0  0  0  0  0  0  0  0  0  0  0  # atno 7974 bound_to 7965
  154.4195  140.1749  156.1655 H   0  0  0  0  0  0  0  0  0  0  0  0  # atno 8008 bound_to 7997
  155.9803  140.3378  155.6633 H   0  0  0  0  0  0  0  0  0  0  0  0  # atno 8009 bound_to 7997
  155.6508  140.0690  157.2578 H   0  0  0  0  0  0  0  0  0  0  0  0  # atno 8010 bound_to 7997
  140.7022  143.3130  151.2981 H   0  0  0  0  0  0  0  0  0  0  0  0  # atno 10167 bound_to 10162
  157.6908  131.0617  150.4682 H   0  0  0  0  0  0  0  0  0  0  0  0  # atno 10718 bound_to 10713
  153.8793  135.6823  153.4768 H   0  0  0  0  0  0  0  0  0  0  0  0  # atno 10763 bound_to 10752
  153.1243  135.4726  154.9244 H   0  0  0  0  0  0  0  0  0  0  0  0  # atno 10764 bound_to 10752
  154.7676  135.3229  154.8205 H   0  0  0  0  0  0  0  0  0  0  0  0  # atno 10765 bound_to 10752
  141.1627  133.6889  156.7265 H   0  0  0  0  0  0  0  0  0  0  0  0  # atno 11005 bound_to 11000
  145.4793  141.0437  143.2655 LP  0  0  0  0  0  0  0  0  0  0  0  0  # atno 17320 bound_to 7965
  144.7919  139.6311  143.7109 LP  0  0  0  0  0  0  0  0  0  0  0  0  # atno 17321 bound_to 7965
  139.6559  144.0278  152.2659 LP  0  0  0  0  0  0  0  0  0  0  0  0  # atno 17342 bound_to 10162
  139.9829  144.6416  150.7884 LP  0  0  0  0  0  0  0  0  0  0  0  0  # atno 17343 bound_to 10162
  156.5021  130.4119  149.6347 LP  0  0  0  0  0  0  0  0  0  0  0  0  # atno 17370 bound_to 10713
  156.3318  130.7335  151.2266 LP  0  0  0  0  0  0  0  0  0  0  0  0  # atno 17371 bound_to 10713
  140.2777  134.8342  157.3905 LP  0  0  0  0  0  0  0  0  0  0  0  0  # atno 17394 bound_to 11000
  140.1462  134.4908  155.7994 LP  0  0  0  0  0  0  0  0  0  0  0  0  # atno 17395 bound_to 11000

$$$$
