AV-unprocessed.smi:1964|AV-procd|sdf|7931|dock3
  -GOLD-   2272010103D 1   1.00000     0.00000
 Structure written by MMmdl.
 46 48  0  0  0  0  0  0  0  0  1 V2000
  146.7618  130.5950  152.7066 C   0  0  0  0  0  0  0  0  0  0  0  0
  146.4083  131.9481  152.0622 C   0  0  1  0  0  0  0  0  0  0  0  0
  145.0828  131.8494  151.2803 C   0  0  0  0  0  0  0  0  0  0  0  0
  144.7129  133.1812  150.6096 C   0  0  0  0  0  0  0  0  0  0  0  0
  144.6475  134.3181  151.6385 C   0  0  0  0  0  0  0  0  0  0  0  0
  145.9674  134.4351  152.4143 C   0  0  0  0  0  0  0  0  0  0  0  0
  146.3445  133.1018  153.0940 C   0  0  2  0  0  0  0  0  0  0  0  0
  147.6262  133.2335  153.7792 N   0  0  0  0  0  0  0  0  0  0  0  0
  147.9017  134.0824  154.7837 C   0  0  0  0  0  0  0  0  0  0  0  0
  147.0802  134.8860  155.2227 O   0  0  0  0  0  0  0  0  0  0  0  0
  149.3063  134.0283  155.4107 C   0  0  0  0  0  0  0  0  0  0  0  0
  149.6561  135.1998  156.2482 N   0  0  0  0  0  0  0  0  0  0  0  0
  149.0654  135.3136  157.5329 C   0  0  0  0  0  0  0  0  0  0  0  0
  148.2873  134.4554  157.9522 O   0  0  0  0  0  0  0  0  0  0  0  0
  149.4502  136.4957  158.3002 C   0  0  0  0  0  0  0  0  0  0  0  0
  148.8401  136.6706  159.5766 C   0  0  0  0  0  0  0  0  0  0  0  0
  148.3278  136.8270  160.6024 N   0  0  0  0  0  0  0  0  0  0  0  0
  150.3450  137.3794  157.8124 C   0  0  0  0  0  0  0  0  0  0  0  0
  150.9537  137.2170  156.5871 N   0  0  0  0  0  0  0  0  0  0  0  0
  151.8057  138.2303  156.0322 C   0  0  0  0  0  0  0  0  0  0  0  0
  151.3118  139.6593  155.9159 C   0  0  0  0  0  0  0  0  0  0  0  0
  151.4678  138.8127  154.6769 C   0  0  0  0  0  0  0  0  0  0  0  0
  150.5854  136.1439  155.7472 C   0  0  0  0  0  0  0  0  0  0  0  0
  151.0618  136.0260  154.6157 O   0  0  0  0  0  0  0  0  0  0  0  0
  146.0288  130.3146  153.4634 H   0  0  0  0  0  0  0  0  0  0  0  0
  147.7415  130.6174  153.1843 H   0  0  0  0  0  0  0  0  0  0  0  0
  146.7870  129.8015  151.9594 H   0  0  0  0  0  0  0  0  0  0  0  0
  147.1967  132.1808  151.3443 H   0  0  0  0  0  0  0  0  0  0  0  0
  145.1546  131.0702  150.5209 H   0  0  0  0  0  0  0  0  0  0  0  0
  144.2799  131.5483  151.9548 H   0  0  0  0  0  0  0  0  0  0  0  0
  145.4497  133.4228  149.8427 H   0  0  0  0  0  0  0  0  0  0  0  0
  143.7542  133.0867  150.0990 H   0  0  0  0  0  0  0  0  0  0  0  0
  144.4251  135.2611  151.1386 H   0  0  0  0  0  0  0  0  0  0  0  0
  143.8286  134.1356  152.3356 H   0  0  0  0  0  0  0  0  0  0  0  0
  146.7626  134.7395  151.7321 H   0  0  0  0  0  0  0  0  0  0  0  0
  145.8800  135.2280  153.1581 H   0  0  0  0  0  0  0  0  0  0  0  0
  145.5779  132.8558  153.8317 H   0  0  0  0  0  0  0  0  0  0  0  0
  148.3627  132.6127  153.4772 H   0  0  0  0  0  0  0  0  0  0  0  0
  149.3844  133.1020  155.9815 H   0  0  0  0  0  0  0  0  0  0  0  0
  150.0321  133.8971  154.6066 H   0  0  0  0  0  0  0  0  0  0  0  0
  150.6040  138.2433  158.4078 H   0  0  0  0  0  0  0  0  0  0  0  0
  152.8668  138.1119  156.2451 H   0  0  0  0  0  0  0  0  0  0  0  0
  150.2967  139.8815  156.2404 H   0  0  0  0  0  0  0  0  0  0  0  0
  152.0366  140.4543  156.0785 H   0  0  0  0  0  0  0  0  0  0  0  0
  152.2960  139.0453  154.0104 H   0  0  0  0  0  0  0  0  0  0  0  0
  150.5561  138.4772  154.1861 H   0  0  0  0  0  0  0  0  0  0  0  0
  1  2  1  0  0  0  0
  1 25  1  0  0  0  0
  1 26  1  0  0  0  0
  1 27  1  0  0  0  0
  2  7  1  0  0  0  0
  2  3  1  0  0  0  0
  2 28  1  0  0  0  0
  3  4  1  0  0  0  0
  3 29  1  0  0  0  0
  3 30  1  0  0  0  0
  4  5  1  0  0  0  0
  4 31  1  0  0  0  0
  4 32  1  0  0  0  0
  5  6  1  0  0  0  0
  5 33  1  0  0  0  0
  5 34  1  0  0  0  0
  6  7  1  0  0  0  0
  6 35  1  0  0  0  0
  6 36  1  0  0  0  0
  7  8  1  0  0  0  0
  7 37  1  0  0  0  0
  8  9  1  0  0  0  0
  8 38  1  0  0  0  0
  9 10  2  0  0  0  0
  9 11  1  0  0  0  0
 11 12  1  0  0  0  0
 11 39  1  0  0  0  0
 11 40  1  0  0  0  0
 12 23  1  0  0  0  0
 12 13  1  0  0  0  0
 13 14  2  0  0  0  0
 13 15  1  0  0  0  0
 15 16  1  0  0  0  0
 15 18  2  0  0  0  0
 16 17  3  0  0  0  0
 18 19  1  0  0  0  0
 18 41  1  0  0  0  0
 19 20  1  0  0  0  0
 19 23  1  0  0  0  0
 20 22  1  0  0  0  0
 20 21  1  0  0  0  0
 20 42  1  0  0  0  0
 21 22  1  0  0  0  0
 21 43  1  0  0  0  0
 21 44  1  0  0  0  0
 22 45  1  0  0  0  0
 22 46  1  0  0  0  0
 23 24  2  0  0  0  0
M  END
> <s_m_source_file>
AV-unprocessed.smi

> <i_m_source_file_index>
1964

> <i_lp_mmshare_version>
43012

> <i_f3d_flags>
0

> <s_epik_input>
W0NIM11bQ0BASF0xW0NIMl1bQ0gyXVtDSDJdW0NIMl1bQ0BIXTFbTkhdQyg9TylbQ0gyXW4yYyg9TyljKEMjTilbY0hdbihjMj1PKVtDSF0zW0NIMl1bQ0gyXTM=

> <s_epik_cmdline>
J2VwaWtfcHl0aG9uJywgJy1waCcsICc3LjAnLCAnLXRuJywgJzgnLCAnLW1hJywgJzIwMCcsICctbWV0YWxfYmluZGluZycsICctaW1hZScsICc8aW5maWxlLm1hZT4nLCAnLW9tYWUnLCAnPG91dGZpbGUubWFlPic=

> <r_lp_tautomer_probability>
1

> <r_epik_Ionization_Penalty>
1.91372e-08

> <r_epik_Ionization_Penalty_Charging>
9.0283e-11

> <r_epik_Ionization_Penalty_Neutral>
1.90469e-08

> <r_epik_State_Penalty>
-0

> <r_epik_Charging_Adjusted_Penalty>
9.0283e-11

> <i_epik_Tot_Q>
0

> <i_epik_Tot_abs_Q>
0

> <r_epik_Metal_State_Penalty>
-0

> <b_epik_Metal_Only>
0

> <s_lp_Force_Field>
OPLS_2005

> <r_lp_Energy>
35.2183

> <b_lp_Chiralities_Consistent>
1

> <s_lp_Variant>
AV-unprocessed.smi:1964-4

> <Gold.Version>
5.8.1

> <Gold.Id.Protein>
6NUR|6NUR_protein|mol2

> <Gold.PLP.Fitness>
38.8335

> <Gold.PLP.PLP>
-32.2151

> <Gold.PLP.part.hbond>
-3.0000

> <Gold.PLP.part.metal>
0.0000

> <Gold.PLP.part.buried>
-6.9848

> <Gold.PLP.part.nonpolar>
-23.9068

> <Gold.PLP.part.repulsive>
0.2276

> <Gold.PLP.ligand.clash>
0.0000

> <Gold.PLP.ligand.torsion>
0.4686

> <Gold.PLP.Chemscore.Hbond>
2.4542

> <Gold.PLP.Chemscore.CHOScore>
0.0000

> <Gold.PLP.Chemscore.Metal>
0.0000

> <Gold.Chemscore.Hbonds>
donor molecule, donor type, donor heavy atom, donor atom, acceptor molecule, acceptor atom, score
      P1  H  6931  6943       L1    17  0.89
      P1  H 10752 10765       L1    24  1.00

> <Gold.PLP.Chemscore.Internal.Correction>
0.1930

> <Gold.Rescore>
     Score         DG    S(hbond)    S(metal)    S(lipo)     H(rot)  DE(clash)    DE(int)     intcor
     14.40     -17.25       2.38        0.00      69.86       1.70       0.00       2.85       ----

> <Gold.Chemscore.Fitness>
14.3998

> <Gold.Chemscore.DG>
-17.2467

> <Gold.Chemscore.ZeroCoef>
-5.4800

> <Gold.Chemscore.Hbond>
2.3816

> <Gold.Chemscore.Metal>
0.0000

> <Gold.Chemscore.Lipo>
69.8616

> <Gold.Chemscore.Internal_Hbond>
0.0000

> <Gold.Chemscore.DEClash>
0.0000

> <Gold.Chemscore.DEInternal>
2.8470

> <Gold.Chemscore.Rot>
1.7038

> <Gold.Chemscore.Internal.Correction>
   9.000000E+99

> <Gold.Chemscore.Hbonds>
donor molecule, donor type, donor heavy atom, donor atom, acceptor molecule, acceptor atom, score
      P1  H  6931  6943       L1    17  0.79
      P1  H  6934  6947       L1    17  0.01
      P1  H 10752 10765       L1    24  0.97

> <Gold.Chemscore.Hbond.Weighted>
-7.9547

> <Gold.Chemscore.Metal.Weighted>
-0.0000

> <Gold.Chemscore.Lipo.Weighted>
-8.1738

> <Gold.Chemscore.Internal_Hbond.Weighted>
0.0000

> <Gold.Chemscore.DEClash.Weighted>
0.0000

> <Gold.Chemscore.DEInternal.Weighted>
2.8470

> <Gold.Chemscore.Rot.Weighted>
4.3618

> <Gold.Chemscore.Internal.Correction.Weighted>
   9.000000E+99

> <Gold.Protein.RotatedTorsions>
[ 6907 6896 6895 6894 ] final   96.26 input  -60.11 | X-H torsion
[ 7974 7965 7964 7962 ] final  125.07 input  175.53 | X-H torsion
[ 8008 7997 7996 7995 ] final  -27.65 input   59.86 | X-H torsion
[ 10167 10162 10161 10158 ] final   50.66 input  -65.29 | X-H torsion
[ 10718 10713 10712 10709 ] final  116.83 input   66.30 | X-H torsion
[ 10763 10752 10751 10750 ] final  168.47 input  -60.55 | X-H torsion
[ 11005 11000 10999 10996 ] final -130.42 input  -57.11 | X-H torsion

> <Gold.Protein.ActiveResidues>
 VAL166  LYS551  ARG553  GLY616  TRP617  ASP618  TYR619  PRO620  LYS621  CYS622 
 ASP623  PHE694  ASN695  SER759  ASP760  ASP761  ALA762  ILE779  LEU786  VAL792 
 PHE793  MET794  SER795  GLU796  ALA797  LYS798  CYS799  TRP800  GLU811  SER814 

> <Gold.Protein.RotatedAtoms>
  152.5436  134.0913  159.8277 H   0  0  0  0  0  0  0  0  0  0  0  0  # atno 6907 bound_to 6896
  151.1002  133.5241  159.2617 H   0  0  0  0  0  0  0  0  0  0  0  0  # atno 6908 bound_to 6896
  151.1999  135.0447  159.8922 H   0  0  0  0  0  0  0  0  0  0  0  0  # atno 6909 bound_to 6896
  145.0772  139.3685  143.4927 H   0  0  0  0  0  0  0  0  0  0  0  0  # atno 7974 bound_to 7965
  154.4367  140.1866  156.0965 H   0  0  0  0  0  0  0  0  0  0  0  0  # atno 8008 bound_to 7997
  156.0325  140.3329  155.7129 H   0  0  0  0  0  0  0  0  0  0  0  0  # atno 8009 bound_to 7997
  155.5818  140.0622  157.2772 H   0  0  0  0  0  0  0  0  0  0  0  0  # atno 8010 bound_to 7997
  140.2701  144.3275  150.6292 H   0  0  0  0  0  0  0  0  0  0  0  0  # atno 10167 bound_to 10162
  157.6136  131.1030  150.7528 H   0  0  0  0  0  0  0  0  0  0  0  0  # atno 10718 bound_to 10713
  154.3690  135.2753  155.2277 H   0  0  0  0  0  0  0  0  0  0  0  0  # atno 10763 bound_to 10752
  154.4433  135.5949  153.6147 H   0  0  0  0  0  0  0  0  0  0  0  0  # atno 10764 bound_to 10752
  152.9839  135.6024  154.3919 H   0  0  0  0  0  0  0  0  0  0  0  0  # atno 10765 bound_to 10752
  140.9347  134.1273  157.4204 H   0  0  0  0  0  0  0  0  0  0  0  0  # atno 11005 bound_to 11000
  146.3530  140.0545  142.8633 LP  0  0  0  0  0  0  0  0  0  0  0  0  # atno 17320 bound_to 7965
  145.1221  140.9469  143.4594 LP  0  0  0  0  0  0  0  0  0  0  0  0  # atno 17321 bound_to 7965
  140.5896  143.2168  151.7277 LP  0  0  0  0  0  0  0  0  0  0  0  0  # atno 17342 bound_to 10162
  139.4991  144.3958  152.0232 LP  0  0  0  0  0  0  0  0  0  0  0  0  # atno 17343 bound_to 10162
  156.7900  130.4887  149.5386 LP  0  0  0  0  0  0  0  0  0  0  0  0  # atno 17370 bound_to 10713
  156.1248  130.6136  151.0247 LP  0  0  0  0  0  0  0  0  0  0  0  0  # atno 17371 bound_to 10713
  139.8805  135.0017  156.6081 LP  0  0  0  0  0  0  0  0  0  0  0  0  # atno 17394 bound_to 11000
  140.7816  133.8656  155.8572 LP  0  0  0  0  0  0  0  0  0  0  0  0  # atno 17395 bound_to 11000

$$$$
