AV-unprocessed.smi:2166|AV-procd|sdf|8815|dock7
  -GOLD-   2272012 03D 1   1.00000     0.00000
 Structure written by MMmdl.
 38 39  0  0  0  0  0  0  0  0  1 V2000
  155.1362  134.1860  164.6436 C   0  0  0  0  0  0  0  0  0  0  0  0
  154.3293  135.6827  164.0118 S   0  0  0  0  0  0  0  0  0  0  0  0
  154.8909  135.6798  162.2824 C   0  0  1  0  0  0  0  0  0  0  0  0
  154.6515  134.2999  161.6487 C   0  0  0  0  0  0  0  0  0  0  0  0
  154.2262  136.7949  161.4641 C   0  0  0  0  0  0  0  0  0  0  0  0
  153.4246  136.5074  160.5744 O   0  0  0  0  0  0  0  0  0  0  0  0
  154.5769  138.0515  161.7979 N   0  0  0  0  0  0  0  0  0  0  0  0
  154.1068  139.2733  161.2488 C   0  0  0  0  0  0  0  0  0  0  0  0
  154.4926  140.4330  161.9535 C   0  0  0  0  0  0  0  0  0  0  0  0
  154.0677  141.6947  161.4964 C   0  0  0  0  0  0  0  0  0  0  0  0
  153.2602  141.7843  160.3407 C   0  0  0  0  0  0  0  0  0  0  0  0
  152.8187  143.0399  159.8700 N   0  0  0  0  0  0  0  0  0  0  0  0
  152.2768  143.1170  158.5163 C   0  0  0  0  0  0  0  0  0  0  0  0
  152.1316  144.5850  158.0799 C   0  0  0  0  0  0  0  0  0  0  0  0
  151.3401  145.2913  159.0293 O   0  0  0  0  0  0  0  0  0  0  0  0
  151.9434  145.2990  160.3190 C   0  0  0  0  0  0  0  0  0  0  0  0
  152.0885  143.8570  160.8363 C   0  0  0  0  0  0  0  0  0  0  0  0
  152.9350  140.5650  159.6979 C   0  0  0  0  0  0  0  0  0  0  0  0
  153.3400  139.3543  160.1355 N   0  0  0  0  0  0  0  0  0  0  0  0
  154.8521  134.0194  165.6825 H   0  0  0  0  0  0  0  0  0  0  0  0
  156.2209  134.2817  164.5988 H   0  0  0  0  0  0  0  0  0  0  0  0
  154.8372  133.3154  164.0600 H   0  0  0  0  0  0  0  0  0  0  0  0
  155.9687  135.8496  162.2930 H   0  0  0  0  0  0  0  0  0  0  0  0
  154.9680  134.2809  160.6051 H   0  0  0  0  0  0  0  0  0  0  0  0
  153.5985  134.0175  161.6844 H   0  0  0  0  0  0  0  0  0  0  0  0
  155.2158  133.5290  162.1746 H   0  0  0  0  0  0  0  0  0  0  0  0
  155.2471  138.1419  162.5472 H   0  0  0  0  0  0  0  0  0  0  0  0
  155.1088  140.3624  162.8380 H   0  0  0  0  0  0  0  0  0  0  0  0
  154.3762  142.5801  162.0321 H   0  0  0  0  0  0  0  0  0  0  0  0
  152.9322  142.5965  157.8171 H   0  0  0  0  0  0  0  0  0  0  0  0
  151.3038  142.6241  158.4866 H   0  0  0  0  0  0  0  0  0  0  0  0
  153.1090  145.0599  157.9792 H   0  0  0  0  0  0  0  0  0  0  0  0
  151.6490  144.6401  157.1040 H   0  0  0  0  0  0  0  0  0  0  0  0
  152.9142  145.7955  160.2753 H   0  0  0  0  0  0  0  0  0  0  0  0
  151.3199  145.8800  160.9986 H   0  0  0  0  0  0  0  0  0  0  0  0
  151.1024  143.4176  160.9935 H   0  0  0  0  0  0  0  0  0  0  0  0
  152.5843  143.8766  161.8059 H   0  0  0  0  0  0  0  0  0  0  0  0
  152.3190  140.5363  158.8117 H   0  0  0  0  0  0  0  0  0  0  0  0
  1  2  1  0  0  0  0
  1 20  1  0  0  0  0
  1 21  1  0  0  0  0
  1 22  1  0  0  0  0
  2  3  1  0  0  0  0
  3  4  1  0  0  0  0
  3  5  1  0  0  0  0
  3 23  1  0  0  0  0
  4 24  1  0  0  0  0
  4 25  1  0  0  0  0
  4 26  1  0  0  0  0
  5  6  2  0  0  0  0
  5  7  1  0  0  0  0
  7  8  1  0  0  0  0
  7 27  1  0  0  0  0
  8 19  1  0  0  0  0
  8  9  2  0  0  0  0
  9 10  1  0  0  0  0
  9 28  1  0  0  0  0
 10 11  2  0  0  0  0
 10 29  1  0  0  0  0
 11 12  1  0  0  0  0
 11 18  1  0  0  0  0
 12 17  1  0  0  0  0
 12 13  1  0  0  0  0
 13 14  1  0  0  0  0
 13 30  1  0  0  0  0
 13 31  1  0  0  0  0
 14 15  1  0  0  0  0
 14 32  1  0  0  0  0
 14 33  1  0  0  0  0
 15 16  1  0  0  0  0
 16 17  1  0  0  0  0
 16 34  1  0  0  0  0
 16 35  1  0  0  0  0
 17 36  1  0  0  0  0
 17 37  1  0  0  0  0
 18 19  2  0  0  0  0
 18 38  1  0  0  0  0
M  END
> <s_m_source_file>
AV-unprocessed.smi

> <i_m_source_file_index>
2166

> <i_lp_mmshare_version>
43012

> <i_f3d_flags>
0

> <s_epik_input>
W0NIM11TW0NASF0oW0NIM10pQyg9TylbTkhdYzFbY0hdW2NIXWMoW2NIXW4xKU4yW0NIMl1bQ0gyXU9bQ0gyXVtDSDJdMg==

> <s_epik_cmdline>
J2VwaWtfcHl0aG9uJywgJy1waCcsICc3LjAnLCAnLXRuJywgJzgnLCAnLW1hJywgJzIwMCcsICctbWV0YWxfYmluZGluZycsICctaW1hZScsICc8aW5maWxlLm1hZT4nLCAnLW9tYWUnLCAnPG91dGZpbGUubWFlPic=

> <r_lp_tautomer_probability>
1

> <r_epik_Ionization_Penalty>
0.0038652

> <r_epik_Ionization_Penalty_Charging>
0

> <r_epik_Ionization_Penalty_Neutral>
0.0038652

> <r_epik_State_Penalty>
0.00681294

> <r_epik_Charging_Adjusted_Penalty>
0.00681294

> <i_epik_Tot_Q>
0

> <i_epik_Tot_abs_Q>
0

> <r_epik_Metal_State_Penalty>
-0

> <b_epik_Metal_Only>
0

> <s_lp_Force_Field>
OPLS_2005

> <r_lp_Energy>
24.7489

> <b_lp_Chiralities_Consistent>
1

> <s_lp_Variant>
AV-unprocessed.smi:2166-2

> <Gold.Version>
5.8.1

> <Gold.Id.Protein>
6NUR|6NUR_protein|mol2

> <Gold.PLP.Fitness>
43.5825

> <Gold.PLP.PLP>
-41.8540

> <Gold.PLP.part.hbond>
-0.9332

> <Gold.PLP.part.metal>
0.0000

> <Gold.PLP.part.buried>
-5.4388

> <Gold.PLP.part.nonpolar>
-35.9127

> <Gold.PLP.part.repulsive>
0.1316

> <Gold.PLP.ligand.clash>
0.0000

> <Gold.PLP.ligand.torsion>
0.4443

> <Gold.PLP.Chemscore.Hbond>
0.7475

> <Gold.PLP.Chemscore.CHOScore>
0.0000

> <Gold.PLP.Chemscore.Metal>
0.0000

> <Gold.Chemscore.Hbonds>
donor molecule, donor type, donor heavy atom, donor atom, acceptor molecule, acceptor atom, score
      P1  H  6896  6908       L1     6  0.83

> <Gold.PLP.Chemscore.Internal.Correction>
0.3746

> <Gold.Rescore>
     Score         DG    S(hbond)    S(metal)    S(lipo)     H(rot)  DE(clash)    DE(int)     intcor
     16.26     -17.83       0.99        0.00     105.83       1.31       0.04       1.53       ----

> <Gold.Chemscore.Fitness>
16.2610

> <Gold.Chemscore.DG>
-17.8258

> <Gold.Chemscore.ZeroCoef>
-5.4800

> <Gold.Chemscore.Hbond>
0.9937

> <Gold.Chemscore.Metal>
0.0000

> <Gold.Chemscore.Lipo>
105.8270

> <Gold.Chemscore.Internal_Hbond>
0.0000

> <Gold.Chemscore.DEClash>
0.0353

> <Gold.Chemscore.DEInternal>
1.5295

> <Gold.Chemscore.Rot>
1.3105

> <Gold.Chemscore.Internal.Correction>
   9.000000E+99

> <Gold.Chemscore.Hbonds>
donor molecule, donor type, donor heavy atom, donor atom, acceptor molecule, acceptor atom, score
      P1  H  6896  6908       L1     6  0.81

> <Gold.Chemscore.Hbond.Weighted>
-3.3190

> <Gold.Chemscore.Metal.Weighted>
-0.0000

> <Gold.Chemscore.Lipo.Weighted>
-12.3818

> <Gold.Chemscore.Internal_Hbond.Weighted>
0.0000

> <Gold.Chemscore.DEClash.Weighted>
0.0353

> <Gold.Chemscore.DEInternal.Weighted>
1.5295

> <Gold.Chemscore.Rot.Weighted>
3.3549

> <Gold.Chemscore.Internal.Correction.Weighted>
   9.000000E+99

> <Gold.Protein.RotatedTorsions>
[ 6907 6896 6895 6894 ] final  -65.96 input  -60.11 | X-H torsion
[ 7974 7965 7964 7962 ] final  178.73 input  175.53 | X-H torsion
[ 8008 7997 7996 7995 ] final  -41.84 input   59.86 | X-H torsion
[ 10167 10162 10161 10158 ] final  114.60 input  -65.29 | X-H torsion
[ 10718 10713 10712 10709 ] final   80.62 input   66.30 | X-H torsion
[ 10763 10752 10751 10750 ] final  123.78 input  -60.55 | X-H torsion
[ 11005 11000 10999 10996 ] final   50.27 input  -57.11 | X-H torsion

> <Gold.Protein.ActiveResidues>
 VAL166  LYS551  ARG553  GLY616  TRP617  ASP618  TYR619  PRO620  LYS621  CYS622 
 ASP623  PHE694  ASN695  SER759  ASP760  ASP761  ALA762  ILE779  LEU786  VAL792 
 PHE793  MET794  SER795  GLU796  ALA797  LYS798  CYS799  TRP800  GLU811  SER814 

> <Gold.Protein.RotatedAtoms>
  150.7493  134.6087  159.6074 H   0  0  0  0  0  0  0  0  0  0  0  0  # atno 6907 bound_to 6896
  152.3428  134.7109  160.0268 H   0  0  0  0  0  0  0  0  0  0  0  0  # atno 6908 bound_to 6896
  151.7555  133.3294  159.3440 H   0  0  0  0  0  0  0  0  0  0  0  0  # atno 6909 bound_to 6896
  144.7153  140.0441  143.6437 H   0  0  0  0  0  0  0  0  0  0  0  0  # atno 7974 bound_to 7965
  154.4002  140.1489  156.3257 H   0  0  0  0  0  0  0  0  0  0  0  0  # atno 8008 bound_to 7997
  155.8489  140.3458  155.5659 H   0  0  0  0  0  0  0  0  0  0  0  0  # atno 8009 bound_to 7997
  155.8006  140.0869  157.1950 H   0  0  0  0  0  0  0  0  0  0  0  0  # atno 8010 bound_to 7997
  139.6377  144.7121  151.2301 H   0  0  0  0  0  0  0  0  0  0  0  0  # atno 10167 bound_to 10162
  157.6811  130.9967  150.2105 H   0  0  0  0  0  0  0  0  0  0  0  0  # atno 10718 bound_to 10713
  153.6509  135.3363  155.3099 H   0  0  0  0  0  0  0  0  0  0  0  0  # atno 10763 bound_to 10752
  154.8538  135.4341  154.1905 H   0  0  0  0  0  0  0  0  0  0  0  0  # atno 10764 bound_to 10752
  153.2847  135.7012  153.7426 H   0  0  0  0  0  0  0  0  0  0  0  0  # atno 10765 bound_to 10752
  140.1031  134.5054  155.8744 H   0  0  0  0  0  0  0  0  0  0  0  0  # atno 11005 bound_to 11000
  145.9999  139.3082  143.0934 LP  0  0  0  0  0  0  0  0  0  0  0  0  # atno 17320 bound_to 7965
  145.8806  140.9365  143.0603 LP  0  0  0  0  0  0  0  0  0  0  0  0  # atno 17321 bound_to 7965
  140.7474  143.6367  150.8373 LP  0  0  0  0  0  0  0  0  0  0  0  0  # atno 17342 bound_to 10162
  140.0000  143.5754  152.2879 LP  0  0  0  0  0  0  0  0  0  0  0  0  # atno 17343 bound_to 10162
  156.2777  130.3729  149.7967 LP  0  0  0  0  0  0  0  0  0  0  0  0  # atno 17370 bound_to 10713
  156.5664  130.8406  151.3344 LP  0  0  0  0  0  0  0  0  0  0  0  0  # atno 17371 bound_to 10713
  141.2111  133.6702  156.6558 LP  0  0  0  0  0  0  0  0  0  0  0  0  # atno 17394 bound_to 11000
  140.3192  134.8022  157.4239 LP  0  0  0  0  0  0  0  0  0  0  0  0  # atno 17395 bound_to 11000

$$$$
