AV-unprocessed.smi:79|AV-procd|sdf|784|dock5
  -GOLD-   2262017153D 1   1.00000     0.00000
 Structure written by MMmdl.
 56 59  0  0  0  0  0  0  0  0  2 V2000
  144.9435  132.0185  149.9608 C   0  0  0  0  0  0  0  0  0  0  0  0
  145.9897  132.6159  150.9105 C   0  0  1  0  0  0  0  0  0  0  0  0
  145.5240  133.8792  151.3404 O   0  0  0  0  0  0  0  0  0  0  0  0
  146.2338  131.7194  152.1407 C   0  0  0  0  0  0  0  0  0  0  0  0
  147.6333  131.7927  152.6332 N   0  3  1  0  0  0  0  0  0  0  0  0
  148.1633  133.1803  152.6257 C   0  0  0  0  0  0  0  0  0  0  0  0
  149.6470  133.2128  153.0311 C   0  0  0  0  0  0  0  0  0  0  0  0
  149.8483  132.5312  154.3078 N   0  0  0  0  0  0  0  0  0  0  0  0
  149.7978  133.3269  155.4082 C   0  0  0  0  0  0  0  0  0  0  0  0
  149.2635  132.8548  156.5661 N   0  0  0  0  0  0  0  0  0  0  0  0
  149.2076  133.6320  157.6515 C   0  0  0  0  0  0  0  0  0  0  0  0
  149.6230  134.8911  157.7975 N   0  0  0  0  0  0  0  0  0  0  0  0
  150.1618  135.3717  156.6409 C   0  0  0  0  0  0  0  0  0  0  0  0
  150.2855  134.6642  155.4118 C   0  0  0  0  0  0  0  0  0  0  0  0
  150.8933  135.4741  154.4602 N   0  0  0  0  0  0  0  0  0  0  0  0
  151.1110  136.5971  155.0887 C   0  0  0  0  0  0  0  0  0  0  0  0
  150.6961  136.6262  156.4013 N   0  0  0  0  0  0  0  0  0  0  0  0
  150.8236  137.7380  157.3315 C   0  0  0  0  0  0  0  0  0  0  0  0
  149.8644  138.9073  157.0412 C   0  0  0  0  0  0  0  0  0  0  0  0
  150.0941  139.3814  155.5921 C   0  0  0  0  0  0  0  0  0  0  0  0
  151.3485  140.0102  155.4200 O   0  0  0  0  0  0  0  0  0  0  0  0
  148.4051  138.6665  157.4532 C   0  0  0  0  0  0  0  0  0  0  0  0
  148.3579  139.8910  158.2183 O   0  0  0  0  0  0  0  0  0  0  0  0
  149.7933  140.0103  158.1070 C   0  0  0  0  0  0  0  0  0  0  0  0
  149.3180  131.1659  154.3863 C   0  0  2  0  0  0  0  0  0  0  0  0
  150.1764  130.1834  153.5710 C   0  0  0  0  0  0  0  0  0  0  0  0
  147.8357  131.1288  153.9499 C   0  0  0  0  0  0  0  0  0  0  0  0
  145.2665  131.0478  149.5839 H   0  0  0  0  0  0  0  0  0  0  0  0
  144.7790  132.6664  149.0990 H   0  0  0  0  0  0  0  0  0  0  0  0
  143.9842  131.8783  150.4601 H   0  0  0  0  0  0  0  0  0  0  0  0
  146.9123  132.7642  150.3508 H   0  0  0  0  0  0  0  0  0  0  0  0
  145.8024  134.0182  152.2330 H   0  0  0  0  0  0  0  0  0  0  0  0
  145.5490  132.0277  152.9326 H   0  0  0  0  0  0  0  0  0  0  0  0
  145.9868  130.6811  151.9141 H   0  0  0  0  0  0  0  0  0  0  0  0
  148.0543  133.6152  151.6316 H   0  0  0  0  0  0  0  0  0  0  0  0
  147.5753  133.7951  153.3091 H   0  0  0  0  0  0  0  0  0  0  0  0
  150.2534  132.7212  152.2703 H   0  0  0  0  0  0  0  0  0  0  0  0
  149.9896  134.2466  153.0658 H   0  0  0  0  0  0  0  0  0  0  0  0
  148.7679  133.1801  158.5286 H   0  0  0  0  0  0  0  0  0  0  0  0
  151.5880  137.4388  154.6080 H   0  0  0  0  0  0  0  0  0  0  0  0
  150.6748  137.3610  158.3442 H   0  0  0  0  0  0  0  0  0  0  0  0
  151.8595  138.0770  157.2953 H   0  0  0  0  0  0  0  0  0  0  0  0
  150.0566  138.5457  154.8939 H   0  0  0  0  0  0  0  0  0  0  0  0
  149.3196  140.0855  155.2869 H   0  0  0  0  0  0  0  0  0  0  0  0
  152.0202  139.3456  155.4145 H   0  0  0  0  0  0  0  0  0  0  0  0
  147.6969  138.6598  156.6240 H   0  0  0  0  0  0  0  0  0  0  0  0
  148.2614  137.7907  158.0875 H   0  0  0  0  0  0  0  0  0  0  0  0
  150.2873  139.7577  159.0456 H   0  0  0  0  0  0  0  0  0  0  0  0
  150.1082  140.9934  157.7553 H   0  0  0  0  0  0  0  0  0  0  0  0
  149.3751  130.8218  155.4200 H   0  0  0  0  0  0  0  0  0  0  0  0
  149.8201  129.1605  153.6950 H   0  0  0  0  0  0  0  0  0  0  0  0
  151.2155  130.2087  153.9000 H   0  0  0  0  0  0  0  0  0  0  0  0
  150.1596  130.4087  152.5045 H   0  0  0  0  0  0  0  0  0  0  0  0
  147.2176  131.6328  154.6940 H   0  0  0  0  0  0  0  0  0  0  0  0
  147.4949  130.0947  153.9209 H   0  0  0  0  0  0  0  0  0  0  0  0
  148.1913  131.2813  151.9640 H   0  0  0  0  0  0  0  0  0  0  0  0
  1  2  1  0  0  0  0
  1 28  1  0  0  0  0
  1 29  1  0  0  0  0
  1 30  1  0  0  0  0
  2  3  1  0  0  0  0
  2  4  1  0  0  0  0
  2 31  1  0  0  0  0
  3 32  1  0  0  0  0
  4  5  1  0  0  0  0
  4 33  1  0  0  0  0
  4 34  1  0  0  0  0
  5 27  1  0  0  0  0
  5  6  1  0  0  0  0
  5 56  1  0  0  0  0
  6  7  1  0  0  0  0
  6 35  1  0  0  0  0
  6 36  1  0  0  0  0
  7  8  1  0  0  0  0
  7 37  1  0  0  0  0
  7 38  1  0  0  0  0
  8  9  1  0  0  0  0
  8 25  1  0  0  0  0
  9 14  1  0  0  0  0
  9 10  2  0  0  0  0
 10 11  1  0  0  0  0
 11 12  2  0  0  0  0
 11 39  1  0  0  0  0
 12 13  1  0  0  0  0
 13 17  1  0  0  0  0
 13 14  2  0  0  0  0
 14 15  1  0  0  0  0
 15 16  2  0  0  0  0
 16 17  1  0  0  0  0
 16 40  1  0  0  0  0
 17 18  1  0  0  0  0
 18 19  1  0  0  0  0
 18 41  1  0  0  0  0
 18 42  1  0  0  0  0
 19 24  1  0  0  0  0
 19 20  1  0  0  0  0
 19 22  1  0  0  0  0
 20 21  1  0  0  0  0
 20 43  1  0  0  0  0
 20 44  1  0  0  0  0
 21 45  1  0  0  0  0
 22 23  1  0  0  0  0
 22 46  1  0  0  0  0
 22 47  1  0  0  0  0
 23 24  1  0  0  0  0
 24 48  1  0  0  0  0
 24 49  1  0  0  0  0
 25 26  1  0  0  0  0
 25 27  1  0  0  0  0
 25 50  1  0  0  0  0
 26 51  1  0  0  0  0
 26 52  1  0  0  0  0
 26 53  1  0  0  0  0
 27 54  1  0  0  0  0
 27 55  1  0  0  0  0
M  CHG  1   5   1
M  END
> <s_m_source_file>
AV-unprocessed.smi

> <i_m_source_file_index>
79

> <i_lp_mmshare_version>
43012

> <i_f3d_flags>
0

> <s_epik_input>
W0NIM11bQ0BIXShbT0hdKVtDSDJdTjFbQ0gyXVtDSDJdTihbQ0BASF0oW0NIM10pW0NIMl0xKWMobltjSF1uMiljKGMyMyluW2NIXW4zW0NIMl1DNChbQ0gyXVtPSF0pW0NIMl1PW0NIMl00

> <s_epik_cmdline>
J2VwaWtfcHl0aG9uJywgJy1waCcsICc3LjAnLCAnLXRuJywgJzgnLCAnLW1hJywgJzIwMCcsICctbWV0YWxfYmluZGluZycsICctaW1hZScsICc8aW5maWxlLm1hZT4nLCAnLW9tYWUnLCAnPG91dGZpbGUubWFlPic=

> <r_lp_tautomer_probability>
1

> <r_epik_Ionization_Penalty>
0.00515943

> <r_epik_Ionization_Penalty_Charging>
0.00509693

> <r_epik_Ionization_Penalty_Neutral>
6.25007e-05

> <r_epik_State_Penalty>
-0

> <r_epik_Charging_Adjusted_Penalty>
0.00509693

> <i_epik_Tot_Q>
1

> <i_epik_Tot_abs_Q>
1

> <r_epik_Metal_State_Penalty>
-0

> <b_epik_Metal_Only>
0

> <s_lp_Force_Field>
OPLS_2005

> <r_lp_Energy>
50.645

> <b_lp_Chiralities_Consistent>
1

> <s_lp_Variant>
AV-unprocessed.smi:79-8

> <Gold.Version>
5.8.1

> <Gold.Id.Protein>
6NUR|6NUR_protein|mol2

> <Gold.PLP.Fitness>
37.0475

> <Gold.PLP.PLP>
-33.4666

> <Gold.PLP.part.hbond>
-3.3757

> <Gold.PLP.part.metal>
0.0000

> <Gold.PLP.part.buried>
-5.9505

> <Gold.PLP.part.nonpolar>
-22.2729

> <Gold.PLP.part.repulsive>
0.1924

> <Gold.PLP.ligand.clash>
0.0000

> <Gold.PLP.ligand.torsion>
1.1125

> <Gold.PLP.Chemscore.Hbond>
1.6825

> <Gold.PLP.Chemscore.CHOScore>
0.0000

> <Gold.PLP.Chemscore.Metal>
0.0000

> <Gold.Chemscore.Hbonds>
donor molecule, donor type, donor heavy atom, donor atom, acceptor molecule, acceptor atom, score
      L1  H     5    56       P1 10747  1.00
      P1  H  7989  7998       L1    21  0.78

> <Gold.PLP.Chemscore.Internal.Correction>
0.7582

> <Gold.Rescore>
     Score         DG    S(hbond)    S(metal)    S(lipo)     H(rot)  DE(clash)    DE(int)     intcor
      7.58     -11.26       1.75        0.00      73.41       3.39       0.25       3.42       ----

> <Gold.Chemscore.Fitness>
7.5841

> <Gold.Chemscore.DG>
-11.2581

> <Gold.Chemscore.ZeroCoef>
-5.4800

> <Gold.Chemscore.Hbond>
1.7543

> <Gold.Chemscore.Metal>
0.0000

> <Gold.Chemscore.Lipo>
73.4083

> <Gold.Chemscore.Internal_Hbond>
0.0000

> <Gold.Chemscore.DEClash>
0.2542

> <Gold.Chemscore.DEInternal>
3.4198

> <Gold.Chemscore.Rot>
3.3868

> <Gold.Chemscore.Internal.Correction>
   9.000000E+99

> <Gold.Chemscore.Hbonds>
donor molecule, donor type, donor heavy atom, donor atom, acceptor molecule, acceptor atom, score
      L1  H     5    56       P1 10747  0.99
      P1  H  7989  7998       L1    21  0.17

> <Gold.Chemscore.Hbond.Weighted>
-5.8595

> <Gold.Chemscore.Metal.Weighted>
-0.0000

> <Gold.Chemscore.Lipo.Weighted>
-8.5888

> <Gold.Chemscore.Internal_Hbond.Weighted>
0.0000

> <Gold.Chemscore.DEClash.Weighted>
0.2542

> <Gold.Chemscore.DEInternal.Weighted>
3.4198

> <Gold.Chemscore.Rot.Weighted>
8.6701

> <Gold.Chemscore.Internal.Correction.Weighted>
   9.000000E+99

> <Gold.Protein.RotatedTorsions>
[ 6907 6896 6895 6894 ] final  101.42 input  -60.11 | X-H torsion
[ 7974 7965 7964 7962 ] final  -99.54 input  175.53 | X-H torsion
[ 8008 7997 7996 7995 ] final  156.21 input   59.86 | X-H torsion
[ 10167 10162 10161 10158 ] final  -86.73 input  -65.29 | X-H torsion
[ 10718 10713 10712 10709 ] final  -53.49 input   66.30 | X-H torsion
[ 10763 10752 10751 10750 ] final  -33.02 input  -60.55 | X-H torsion
[ 11005 11000 10999 10996 ] final   34.91 input  -57.11 | X-H torsion

> <Gold.Protein.ActiveResidues>
 VAL166  LYS551  ARG553  GLY616  TRP617  ASP618  TYR619  PRO620  LYS621  CYS622 
 ASP623  PHE694  ASN695  SER759  ASP760  ASP761  ALA762  ILE779  LEU786  VAL792 
 PHE793  MET794  SER795  GLU796  ALA797  LYS798  CYS799  TRP800  GLU811  SER814 

> <Gold.Protein.RotatedAtoms>
  152.5349  134.0128  159.7945 H   0  0  0  0  0  0  0  0  0  0  0  0  # atno 6907 bound_to 6896
  151.0327  133.5768  159.2666 H   0  0  0  0  0  0  0  0  0  0  0  0  # atno 6908 bound_to 6896
  151.2766  135.0708  159.9207 H   0  0  0  0  0  0  0  0  0  0  0  0  # atno 6909 bound_to 6896
  145.3062  140.9389  143.2795 H   0  0  0  0  0  0  0  0  0  0  0  0  # atno 7974 bound_to 7965
  156.2435  140.1918  156.6920 H   0  0  0  0  0  0  0  0  0  0  0  0  # atno 8008 bound_to 7997
  154.6245  140.0604  156.9682 H   0  0  0  0  0  0  0  0  0  0  0  0  # atno 8009 bound_to 7997
  155.1809  140.3276  155.4378 H   0  0  0  0  0  0  0  0  0  0  0  0  # atno 8010 bound_to 7997
  140.3913  143.2703  151.9261 H   0  0  0  0  0  0  0  0  0  0  0  0  # atno 10167 bound_to 10162
  156.1531  130.4151  149.9913 H   0  0  0  0  0  0  0  0  0  0  0  0  # atno 10718 bound_to 10713
  153.8234  135.6872  153.4824 H   0  0  0  0  0  0  0  0  0  0  0  0  # atno 10763 bound_to 10752
  153.1555  135.4601  154.9696 H   0  0  0  0  0  0  0  0  0  0  0  0  # atno 10764 bound_to 10752
  154.7918  135.3304  154.7704 H   0  0  0  0  0  0  0  0  0  0  0  0  # atno 10765 bound_to 10752
  140.2481  134.3336  155.7900 H   0  0  0  0  0  0  0  0  0  0  0  0  # atno 11005 bound_to 11000
  144.9053  139.4597  143.6613 LP  0  0  0  0  0  0  0  0  0  0  0  0  # atno 17320 bound_to 7965
  146.3134  139.7831  142.9002 LP  0  0  0  0  0  0  0  0  0  0  0  0  # atno 17321 bound_to 7965
  139.4789  144.5725  151.8065 LP  0  0  0  0  0  0  0  0  0  0  0  0  # atno 17342 bound_to 10162
  140.4837  144.1412  150.5937 LP  0  0  0  0  0  0  0  0  0  0  0  0  # atno 17343 bound_to 10162
  156.7765  130.9205  151.3645 LP  0  0  0  0  0  0  0  0  0  0  0  0  # atno 17370 bound_to 10713
  157.6673  130.9019  149.9960 LP  0  0  0  0  0  0  0  0  0  0  0  0  # atno 17371 bound_to 10713
  141.2204  133.7337  156.8993 LP  0  0  0  0  0  0  0  0  0  0  0  0  # atno 17394 bound_to 11000
  140.1586  134.9181  157.2685 LP  0  0  0  0  0  0  0  0  0  0  0  0  # atno 17395 bound_to 11000

$$$$
