AV-unprocessed.smi:2775|AV-procd|sdf|10692|dock7
  -GOLD-   2272015133D 1   1.00000     0.00000
 Structure written by MMmdl.
 42 45  0  0  0  0  0  0  0  0  1 V2000
  144.6747  131.7985  150.4153 C   0  0  0  0  0  0  0  0  0  0  0  0
  145.8816  131.6666  151.3252 C   0  0  0  0  0  0  0  0  0  0  0  0
  146.2526  130.4025  151.6253 N   0  0  0  0  0  0  0  0  0  0  0  0
  147.3160  130.2282  152.4369 C   0  0  0  0  0  0  0  0  0  0  0  0
  148.0590  131.2936  152.9800 C   0  0  0  0  0  0  0  0  0  0  0  0
  147.6828  132.6176  152.6530 C   0  0  0  0  0  0  0  0  0  0  0  0
  148.3516  133.7652  153.1567 N   0  0  0  0  0  0  0  0  0  0  0  0
  149.2337  133.8476  154.1709 C   0  0  0  0  0  0  0  0  0  0  0  0
  149.5484  132.9150  154.9072 O   0  0  0  0  0  0  0  0  0  0  0  0
  149.8056  135.0581  154.2920 N   0  0  0  0  0  0  0  0  0  0  0  0
  150.8009  135.4772  155.2853 C   0  0  2  0  0  0  0  0  0  0  0  0
  150.2909  135.4464  156.7509 C   0  0  2  0  0  0  0  0  0  0  0  0
  148.9920  134.8006  157.1731 C   0  0  0  0  0  0  0  0  0  0  0  0
  148.0365  135.9922  157.2765 C   0  0  0  0  0  0  0  0  0  0  0  0
  148.6260  137.0006  156.4594 O   0  0  0  0  0  0  0  0  0  0  0  0
  150.0356  136.9458  156.6556 C   0  0  2  0  0  0  0  0  0  0  0  0
  150.8873  137.0100  155.3808 C   0  0  0  0  0  0  0  0  0  0  0  0
  150.5270  137.9567  154.2237 C   0  0  0  0  0  0  0  0  0  0  0  0
  151.6124  138.9090  154.7326 C   0  0  0  0  0  0  0  0  0  0  0  0
  152.2535  137.7106  155.4390 C   0  0  0  0  0  0  0  0  0  0  0  0
  146.5586  132.8076  151.8163 C   0  0  0  0  0  0  0  0  0  0  0  0
  146.0307  134.4029  151.3933 Cl  0  0  0  0  0  0  0  0  0  0  0  0
  144.9354  132.3598  149.5176 H   0  0  0  0  0  0  0  0  0  0  0  0
  143.8686  132.3228  150.9292 H   0  0  0  0  0  0  0  0  0  0  0  0
  144.2983  130.8230  150.1038 H   0  0  0  0  0  0  0  0  0  0  0  0
  147.5799  129.2065  152.6662 H   0  0  0  0  0  0  0  0  0  0  0  0
  148.8868  131.0786  153.6380 H   0  0  0  0  0  0  0  0  0  0  0  0
  148.2537  134.5990  152.5958 H   0  0  0  0  0  0  0  0  0  0  0  0
  149.5801  135.7400  153.5820 H   0  0  0  0  0  0  0  0  0  0  0  0
  151.7818  135.0154  155.1600 H   0  0  0  0  0  0  0  0  0  0  0  0
  151.1168  135.2412  157.4336 H   0  0  0  0  0  0  0  0  0  0  0  0
  148.6313  134.0731  156.4484 H   0  0  0  0  0  0  0  0  0  0  0  0
  149.0806  134.2840  158.1291 H   0  0  0  0  0  0  0  0  0  0  0  0
  147.0248  135.7508  156.9496 H   0  0  0  0  0  0  0  0  0  0  0  0
  147.9862  136.3539  158.3045 H   0  0  0  0  0  0  0  0  0  0  0  0
  150.3927  137.5183  157.5129 H   0  0  0  0  0  0  0  0  0  0  0  0
  150.7651  137.5401  153.2437 H   0  0  0  0  0  0  0  0  0  0  0  0
  149.5143  138.3592  154.2547 H   0  0  0  0  0  0  0  0  0  0  0  0
  152.2253  139.3628  153.9533 H   0  0  0  0  0  0  0  0  0  0  0  0
  151.2258  139.6533  155.4308 H   0  0  0  0  0  0  0  0  0  0  0  0
  152.6239  137.9178  156.4435 H   0  0  0  0  0  0  0  0  0  0  0  0
  153.0093  137.2174  154.8256 H   0  0  0  0  0  0  0  0  0  0  0  0
  1  2  1  0  0  0  0
  1 23  1  0  0  0  0
  1 24  1  0  0  0  0
  1 25  1  0  0  0  0
  2 21  1  0  0  0  0
  2  3  2  0  0  0  0
  3  4  1  0  0  0  0
  4  5  2  0  0  0  0
  4 26  1  0  0  0  0
  5  6  1  0  0  0  0
  5 27  1  0  0  0  0
  6  7  1  0  0  0  0
  6 21  2  0  0  0  0
  7  8  1  0  0  0  0
  7 28  1  0  0  0  0
  8  9  2  0  0  0  0
  8 10  1  0  0  0  0
 10 11  1  0  0  0  0
 10 29  1  0  0  0  0
 11 17  1  0  0  0  0
 11 12  1  0  0  0  0
 11 30  1  0  0  0  0
 12 16  1  0  0  0  0
 12 13  1  0  0  0  0
 12 31  1  0  0  0  0
 13 14  1  0  0  0  0
 13 32  1  0  0  0  0
 13 33  1  0  0  0  0
 14 15  1  0  0  0  0
 14 34  1  0  0  0  0
 14 35  1  0  0  0  0
 15 16  1  0  0  0  0
 16 17  1  0  0  0  0
 16 36  1  0  0  0  0
 17 20  1  0  0  0  0
 17 18  1  0  0  0  0
 18 19  1  0  0  0  0
 18 37  1  0  0  0  0
 18 38  1  0  0  0  0
 19 20  1  0  0  0  0
 19 39  1  0  0  0  0
 19 40  1  0  0  0  0
 20 41  1  0  0  0  0
 20 42  1  0  0  0  0
 21 22  1  0  0  0  0
M  END
> <s_m_source_file>
AV-unprocessed.smi

> <i_m_source_file_index>
2775

> <i_lp_mmshare_version>
43012

> <i_f3d_flags>
0

> <s_epik_input>
W0NIM11jMW5bY0hdW2NIXWMoYzFDbClbTkhdQyg9TylbTkhdW0NAQEhdMltDQEhdKFtDSDJdW0NIMl1PMylbQ0BASF0zQzI0W0NIMl1bQ0gyXVtDSDJdNA==

> <s_epik_cmdline>
J2VwaWtfcHl0aG9uJywgJy1waCcsICc3LjAnLCAnLXRuJywgJzgnLCAnLW1hJywgJzIwMCcsICctbWV0YWxfYmluZGluZycsICctaW1hZScsICc8aW5maWxlLm1hZT4nLCAnLW9tYWUnLCAnPG91dGZpbGUubWFlPic=

> <r_epik_Ionization_Penalty>
0.01026

> <r_epik_Ionization_Penalty_Charging>
0

> <r_epik_Ionization_Penalty_Neutral>
0.01026

> <r_epik_State_Penalty>
0.00780685

> <r_epik_Charging_Adjusted_Penalty>
0.00780685

> <i_epik_Tot_Q>
0

> <i_epik_Tot_abs_Q>
0

> <r_epik_Metal_State_Penalty>
0.00767411

> <b_epik_Metal_Only>
0

> <s_lp_Force_Field>
OPLS_2005

> <r_lp_Energy>
58.5604

> <b_lp_Chiralities_Consistent>
1

> <s_lp_Variant>
AV-unprocessed.smi:2775-5

> <Gold.Version>
5.8.1

> <Gold.Id.Protein>
6NUR|6NUR_protein|mol2

> <Gold.PLP.Fitness>
38.3974

> <Gold.PLP.PLP>
-32.5372

> <Gold.PLP.part.hbond>
-2.0000

> <Gold.PLP.part.metal>
0.0000

> <Gold.PLP.part.buried>
-3.3130

> <Gold.PLP.part.nonpolar>
-26.4661

> <Gold.PLP.part.repulsive>
0.2343

> <Gold.PLP.ligand.clash>
0.0000

> <Gold.PLP.ligand.torsion>
0.1746

> <Gold.PLP.Chemscore.Hbond>
2.0000

> <Gold.PLP.Chemscore.CHOScore>
0.0000

> <Gold.PLP.Chemscore.Metal>
0.0000

> <Gold.Chemscore.Hbonds>
donor molecule, donor type, donor heavy atom, donor atom, acceptor molecule, acceptor atom, score
      L1  H     7    28       P1  7948  1.00
      L1  H    10    29       P1  7948  0.95

> <Gold.PLP.Chemscore.Internal.Correction>
0.2095

> <Gold.Rescore>
     Score         DG    S(hbond)    S(metal)    S(lipo)     H(rot)  DE(clash)    DE(int)     intcor
     16.48     -17.85       1.63        0.00      81.23       1.00       0.01       1.37       ----

> <Gold.Chemscore.Fitness>
16.4755

> <Gold.Chemscore.DG>
-17.8520

> <Gold.Chemscore.ZeroCoef>
-5.4800

> <Gold.Chemscore.Hbond>
1.6252

> <Gold.Chemscore.Metal>
0.0000

> <Gold.Chemscore.Lipo>
81.2301

> <Gold.Chemscore.Internal_Hbond>
0.0000

> <Gold.Chemscore.DEClash>
0.0097

> <Gold.Chemscore.DEInternal>
1.3669

> <Gold.Chemscore.Rot>
1.0000

> <Gold.Chemscore.Internal.Correction>
   9.000000E+99

> <Gold.Chemscore.Hbonds>
donor molecule, donor type, donor heavy atom, donor atom, acceptor molecule, acceptor atom, score
      L1  H     7    28       P1  7948  0.33
      L1  H    10    29       P1  7948  0.21

> <Gold.Chemscore.Hbond.Weighted>
-5.4281

> <Gold.Chemscore.Metal.Weighted>
-0.0000

> <Gold.Chemscore.Lipo.Weighted>
-9.5039

> <Gold.Chemscore.Internal_Hbond.Weighted>
0.0000

> <Gold.Chemscore.DEClash.Weighted>
0.0097

> <Gold.Chemscore.DEInternal.Weighted>
1.3669

> <Gold.Chemscore.Rot.Weighted>
2.5600

> <Gold.Chemscore.Internal.Correction.Weighted>
   9.000000E+99

> <Gold.Protein.RotatedTorsions>
[ 6907 6896 6895 6894 ] final   18.99 input  -60.11 | X-H torsion
[ 7974 7965 7964 7962 ] final  120.26 input  175.53 | X-H torsion
[ 8008 7997 7996 7995 ] final  -54.64 input   59.86 | X-H torsion
[ 10167 10162 10161 10158 ] final   81.07 input  -65.29 | X-H torsion
[ 10718 10713 10712 10709 ] final   96.30 input   66.30 | X-H torsion
[ 10763 10752 10751 10750 ] final  -33.62 input  -60.55 | X-H torsion
[ 11005 11000 10999 10996 ] final   99.80 input  -57.11 | X-H torsion

> <Gold.Protein.ActiveResidues>
 VAL166  LYS551  ARG553  GLY616  TRP617  ASP618  TYR619  PRO620  LYS621  CYS622 
 ASP623  PHE694  ASN695  SER759  ASP760  ASP761  ALA762  ILE779  LEU786  VAL792 
 PHE793  MET794  SER795  GLU796  ALA797  LYS798  CYS799  TRP800  GLU811  SER814 

> <Gold.Protein.RotatedAtoms>
  151.8738  135.0479  160.0481 H   0  0  0  0  0  0  0  0  0  0  0  0  # atno 6907 bound_to 6896
  152.2567  133.5257  159.5366 H   0  0  0  0  0  0  0  0  0  0  0  0  # atno 6908 bound_to 6896
  150.7102  134.0802  159.3938 H   0  0  0  0  0  0  0  0  0  0  0  0  # atno 6909 bound_to 6896
  145.1333  139.3313  143.4653 H   0  0  0  0  0  0  0  0  0  0  0  0  # atno 7974 bound_to 7965
  154.4169  140.1171  156.5348 H   0  0  0  0  0  0  0  0  0  0  0  0  # atno 8008 bound_to 7997
  155.6569  140.3496  155.4749 H   0  0  0  0  0  0  0  0  0  0  0  0  # atno 8009 bound_to 7997
  155.9746  140.1148  157.0771 H   0  0  0  0  0  0  0  0  0  0  0  0  # atno 8010 bound_to 7997
  139.9431  144.6076  150.8232 H   0  0  0  0  0  0  0  0  0  0  0  0  # atno 10167 bound_to 10162
  157.6928  131.0573  150.4471 H   0  0  0  0  0  0  0  0  0  0  0  0  # atno 10718 bound_to 10713
  153.8332  135.6864  153.4812 H   0  0  0  0  0  0  0  0  0  0  0  0  # atno 10763 bound_to 10752
  153.1498  135.4622  154.9618 H   0  0  0  0  0  0  0  0  0  0  0  0  # atno 10764 bound_to 10752
  154.7877  135.3291  154.7793 H   0  0  0  0  0  0  0  0  0  0  0  0  # atno 10765 bound_to 10752
  139.8770  134.9112  156.4660 H   0  0  0  0  0  0  0  0  0  0  0  0  # atno 11005 bound_to 11000
  146.3512  140.1341  142.8596 LP  0  0  0  0  0  0  0  0  0  0  0  0  # atno 17320 bound_to 7965
  145.0611  140.9088  143.4938 LP  0  0  0  0  0  0  0  0  0  0  0  0  # atno 17321 bound_to 7965
  140.7605  143.3153  151.2749 LP  0  0  0  0  0  0  0  0  0  0  0  0  # atno 17342 bound_to 10162
  139.6688  144.0057  152.2740 LP  0  0  0  0  0  0  0  0  0  0  0  0  # atno 17343 bound_to 10162
  156.4825  130.4077  149.6453 LP  0  0  0  0  0  0  0  0  0  0  0  0  # atno 17370 bound_to 10713
  156.3494  130.7424  151.2381 LP  0  0  0  0  0  0  0  0  0  0  0  0  # atno 17371 bound_to 10713
  140.8830  133.7904  155.9487 LP  0  0  0  0  0  0  0  0  0  0  0  0  # atno 17394 bound_to 11000
  140.8834  134.2583  157.5132 LP  0  0  0  0  0  0  0  0  0  0  0  0  # atno 17395 bound_to 11000

$$$$
