AV-unprocessed.smi:2098|AV-procd|sdf|8567|dock3
  -GOLD-   2272011293D 1   1.00000     0.00000
 Structure written by MMmdl.
 37 39  0  0  0  0  0  0  0  0  2 V2000
  150.1318  139.7355  157.9826 O   0  0  0  0  0  0  0  0  0  0  0  0
  151.4354  139.5675  157.4611 C   0  0  2  0  0  0  0  0  0  0  0  0
  152.4396  140.1612  158.4617 C   0  0  0  0  0  0  0  0  0  0  0  0
  152.1372  141.5365  158.6566 O   0  0  0  0  0  0  0  0  0  0  0  0
  152.4554  142.1095  159.8694 C   0  0  0  0  0  0  0  0  0  0  0  0
  153.3638  141.4081  160.6895 C   0  0  0  0  0  0  0  0  0  0  0  0
  153.7473  141.9207  161.9438 C   0  0  0  0  0  0  0  0  0  0  0  0
  153.2218  143.1461  162.3929 C   0  0  0  0  0  0  0  0  0  0  0  0
  153.5891  143.6408  163.5986 F   0  0  0  0  0  0  0  0  0  0  0  0
  152.3140  143.8564  161.5860 C   0  0  0  0  0  0  0  0  0  0  0  0
  151.9312  143.3439  160.3309 C   0  0  0  0  0  0  0  0  0  0  0  0
  151.5256  140.2561  156.0846 C   0  0  0  0  0  0  0  0  0  0  0  0
  150.5510  139.7324  155.1164 N   0  0  0  0  0  0  0  0  0  0  0  0
  150.5616  138.5616  154.4233 C   0  0  0  0  0  0  0  0  0  0  0  0
  149.4443  138.5326  153.6457 N   0  3  0  0  0  0  0  0  0  0  0  0
  148.7068  139.7015  153.8453 C   0  0  0  0  0  0  0  0  0  0  0  0
  147.5068  140.1276  153.2841 C   0  0  0  0  0  0  0  0  0  0  0  0
  147.0189  141.3806  153.7097 C   0  0  0  0  0  0  0  0  0  0  0  0
  147.7166  142.1571  154.6576 C   0  0  0  0  0  0  0  0  0  0  0  0
  148.9332  141.7159  155.2184 C   0  0  0  0  0  0  0  0  0  0  0  0
  149.4106  140.4770  154.7913 C   0  0  0  0  0  0  0  0  0  0  0  0
  149.8315  140.6040  157.7607 H   0  0  0  0  0  0  0  0  0  0  0  0
  151.6310  138.5017  157.3356 H   0  0  0  0  0  0  0  0  0  0  0  0
  152.3371  139.6481  159.4193 H   0  0  0  0  0  0  0  0  0  0  0  0
  153.4645  140.0181  158.1141 H   0  0  0  0  0  0  0  0  0  0  0  0
  153.7722  140.4665  160.3528 H   0  0  0  0  0  0  0  0  0  0  0  0
  154.4448  141.3736  162.5608 H   0  0  0  0  0  0  0  0  0  0  0  0
  151.9101  144.7973  161.9294 H   0  0  0  0  0  0  0  0  0  0  0  0
  151.2341  143.9189  159.7410 H   0  0  0  0  0  0  0  0  0  0  0  0
  151.4058  141.3363  156.1712 H   0  0  0  0  0  0  0  0  0  0  0  0
  152.5150  140.0942  155.6548 H   0  0  0  0  0  0  0  0  0  0  0  0
  151.3205  137.7946  154.4788 H   0  0  0  0  0  0  0  0  0  0  0  0
  146.9695  139.5338  152.5593 H   0  0  0  0  0  0  0  0  0  0  0  0
  146.0898  141.7526  153.3028 H   0  0  0  0  0  0  0  0  0  0  0  0
  147.3100  143.1106  154.9622 H   0  0  0  0  0  0  0  0  0  0  0  0
  149.4557  142.3166  155.9481 H   0  0  0  0  0  0  0  0  0  0  0  0
  149.2052  137.7697  153.0254 H   0  0  0  0  0  0  0  0  0  0  0  0
  1  2  1  0  0  0  0
  1 22  1  0  0  0  0
  2  3  1  0  0  0  0
  2 12  1  0  0  0  0
  2 23  1  0  0  0  0
  3  4  1  0  0  0  0
  3 24  1  0  0  0  0
  3 25  1  0  0  0  0
  4  5  1  0  0  0  0
  5 11  1  0  0  0  0
  5  6  2  0  0  0  0
  6  7  1  0  0  0  0
  6 26  1  0  0  0  0
  7  8  2  0  0  0  0
  7 27  1  0  0  0  0
  8  9  1  0  0  0  0
  8 10  1  0  0  0  0
 10 11  2  0  0  0  0
 10 28  1  0  0  0  0
 11 29  1  0  0  0  0
 12 13  1  0  0  0  0
 12 30  1  0  0  0  0
 12 31  1  0  0  0  0
 13 21  1  0  0  0  0
 13 14  1  0  0  0  0
 14 15  2  0  0  0  0
 14 32  1  0  0  0  0
 15 16  1  0  0  0  0
 15 37  1  0  0  0  0
 16 21  2  0  0  0  0
 16 17  1  0  0  0  0
 17 18  2  0  0  0  0
 17 33  1  0  0  0  0
 18 19  1  0  0  0  0
 18 34  1  0  0  0  0
 19 20  2  0  0  0  0
 19 35  1  0  0  0  0
 20 21  1  0  0  0  0
 20 36  1  0  0  0  0
M  CHG  1  15   1
M  END
> <s_m_source_file>
AV-unprocessed.smi

> <i_m_source_file_index>
2098

> <i_lp_mmshare_version>
43012

> <i_f3d_flags>
0

> <s_epik_input>
W2NIXTFbY0hdW2NIXVtjSF1jKGMxMiluKFtjSF1uMilbQ0gyXVtDQEhdKFtPSF0pW0NIMl1PYzNbY0hdW2NIXWMoRilbY0hdW2NIXTM=

> <s_epik_cmdline>
J2VwaWtfcHl0aG9uJywgJy1waCcsICc3LjAnLCAnLXRuJywgJzgnLCAnLW1hJywgJzIwMCcsICctbWV0YWxfYmluZGluZycsICctaW1hZScsICc8aW5maWxlLm1hZT4nLCAnLW9tYWUnLCAnPG91dGZpbGUubWFlPic=

> <r_lp_tautomer_probability>
1

> <r_epik_Ionization_Penalty>
1.3832

> <r_epik_Ionization_Penalty_Charging>
1.38319

> <r_epik_Ionization_Penalty_Neutral>
2.3993e-06

> <r_epik_State_Penalty>
1.46389

> <r_epik_Charging_Adjusted_Penalty>
2.84709

> <i_epik_Tot_Q>
1

> <i_epik_Tot_abs_Q>
1

> <r_epik_Metal_State_Penalty>
5.50438

> <b_epik_Metal_Only>
0

> <s_lp_Force_Field>
OPLS_2005

> <r_lp_Energy>
20.4389

> <b_lp_Chiralities_Consistent>
1

> <s_lp_Variant>
AV-unprocessed.smi:2098-3

> <Gold.Version>
5.8.1

> <Gold.Id.Protein>
6NUR|6NUR_protein|mol2

> <Gold.PLP.Fitness>
54.7740

> <Gold.PLP.PLP>
-51.1865

> <Gold.PLP.part.hbond>
-2.1873

> <Gold.PLP.part.metal>
0.0000

> <Gold.PLP.part.buried>
2.4243

> <Gold.PLP.part.nonpolar>
-50.9248

> <Gold.PLP.part.repulsive>
0.0725

> <Gold.PLP.ligand.clash>
1.2576

> <Gold.PLP.ligand.torsion>
0.5868

> <Gold.PLP.Chemscore.Hbond>
2.0000

> <Gold.PLP.Chemscore.CHOScore>
0.0000

> <Gold.PLP.Chemscore.Metal>
0.0000

> <Gold.Chemscore.Hbonds>
donor molecule, donor type, donor heavy atom, donor atom, acceptor molecule, acceptor atom, score
      L1  H    15    37       P1  7948  2.00

> <Gold.PLP.Chemscore.Internal.Correction>
0.0188

> <Gold.Rescore>
     Score         DG    S(hbond)    S(metal)    S(lipo)     H(rot)  DE(clash)    DE(int)     intcor
     15.63     -16.64       0.98        0.00     121.19       2.46       0.25       0.76       ----

> <Gold.Chemscore.Fitness>
15.6257

> <Gold.Chemscore.DG>
-16.6368

> <Gold.Chemscore.ZeroCoef>
-5.4800

> <Gold.Chemscore.Hbond>
0.9796

> <Gold.Chemscore.Metal>
0.0000

> <Gold.Chemscore.Lipo>
121.1854

> <Gold.Chemscore.Internal_Hbond>
0.0000

> <Gold.Chemscore.DEClash>
0.2531

> <Gold.Chemscore.DEInternal>
0.7580

> <Gold.Chemscore.Rot>
2.4584

> <Gold.Chemscore.Internal.Correction>
   9.000000E+99

> <Gold.Chemscore.Hbonds>
donor molecule, donor type, donor heavy atom, donor atom, acceptor molecule, acceptor atom, score
      L1  H    15    37       P1  7948  0.98

> <Gold.Chemscore.Hbond.Weighted>
-3.2717

> <Gold.Chemscore.Metal.Weighted>
-0.0000

> <Gold.Chemscore.Lipo.Weighted>
-14.1787

> <Gold.Chemscore.Internal_Hbond.Weighted>
0.0000

> <Gold.Chemscore.DEClash.Weighted>
0.2531

> <Gold.Chemscore.DEInternal.Weighted>
0.7580

> <Gold.Chemscore.Rot.Weighted>
6.2936

> <Gold.Chemscore.Internal.Correction.Weighted>
   9.000000E+99

> <Gold.Protein.RotatedTorsions>
[ 6907 6896 6895 6894 ] final  -77.05 input  -60.11 | X-H torsion
[ 7974 7965 7964 7962 ] final   -1.32 input  175.53 | X-H torsion
[ 8008 7997 7996 7995 ] final    8.46 input   59.86 | X-H torsion
[ 10167 10162 10161 10158 ] final  156.69 input  -65.29 | X-H torsion
[ 10718 10713 10712 10709 ] final  -95.46 input   66.30 | X-H torsion
[ 10763 10752 10751 10750 ] final  -54.58 input  -60.55 | X-H torsion
[ 11005 11000 10999 10996 ] final    2.90 input  -57.11 | X-H torsion

> <Gold.Protein.ActiveResidues>
 VAL166  LYS551  ARG553  GLY616  TRP617  ASP618  TYR619  PRO620  LYS621  CYS622 
 ASP623  PHE694  ASN695  SER759  ASP760  ASP761  ALA762  ILE779  LEU786  VAL792 
 PHE793  MET794  SER795  GLU796  ALA797  LYS798  CYS799  TRP800  GLU811  SER814 

> <Gold.Protein.RotatedAtoms>
  150.7009  134.4480  159.5322 H   0  0  0  0  0  0  0  0  0  0  0  0  # atno 6907 bound_to 6896
  152.2178  134.8439  160.0499 H   0  0  0  0  0  0  0  0  0  0  0  0  # atno 6908 bound_to 6896
  151.9300  133.3573  159.3964 H   0  0  0  0  0  0  0  0  0  0  0  0  # atno 6909 bound_to 6896
  146.2418  140.1402  142.8336 H   0  0  0  0  0  0  0  0  0  0  0  0  # atno 7974 bound_to 7965
  154.7671  140.2795  155.6167 H   0  0  0  0  0  0  0  0  0  0  0  0  # atno 8008 bound_to 7997
  156.2927  140.2648  156.2392 H   0  0  0  0  0  0  0  0  0  0  0  0  # atno 8009 bound_to 7997
  154.9945  140.0373  157.2323 H   0  0  0  0  0  0  0  0  0  0  0  0  # atno 8010 bound_to 7997
  139.4821  144.4986  151.8203 H   0  0  0  0  0  0  0  0  0  0  0  0  # atno 10167 bound_to 10162
  156.0044  130.5110  150.6080 H   0  0  0  0  0  0  0  0  0  0  0  0  # atno 10718 bound_to 10713
  154.1771  135.6449  153.5024 H   0  0  0  0  0  0  0  0  0  0  0  0  # atno 10763 bound_to 10752
  153.0069  135.5397  154.6552 H   0  0  0  0  0  0  0  0  0  0  0  0  # atno 10764 bound_to 10752
  154.5907  135.2934  155.0611 H   0  0  0  0  0  0  0  0  0  0  0  0  # atno 10765 bound_to 10752
  140.5991  133.9853  155.8123 H   0  0  0  0  0  0  0  0  0  0  0  0  # atno 11005 bound_to 11000
  145.0253  140.8827  143.5142 LP  0  0  0  0  0  0  0  0  0  0  0  0  # atno 17320 bound_to 7965
  145.1457  139.2545  143.5467 LP  0  0  0  0  0  0  0  0  0  0  0  0  # atno 17321 bound_to 7965
  140.4477  144.1899  150.5895 LP  0  0  0  0  0  0  0  0  0  0  0  0  # atno 17342 bound_to 10162
  140.4618  143.2446  151.9210 LP  0  0  0  0  0  0  0  0  0  0  0  0  # atno 17343 bound_to 10162
  157.3917  131.0796  151.1388 LP  0  0  0  0  0  0  0  0  0  0  0  0  # atno 17370 bound_to 10713
  157.2077  130.6424  149.5762 LP  0  0  0  0  0  0  0  0  0  0  0  0  # atno 17371 bound_to 10713
  141.0884  133.9954  157.3276 LP  0  0  0  0  0  0  0  0  0  0  0  0  # atno 17394 bound_to 11000
  139.9240  135.0201  156.8169 LP  0  0  0  0  0  0  0  0  0  0  0  0  # atno 17395 bound_to 11000

$$$$
