AV-unprocessed.smi:1322|AV-procd|sdf|5463|dock2
  -GOLD-   22720 5 33D 1   1.00000     0.00000
 Structure written by MMmdl.
 32 33  0  0  0  0  0  0  0  0  1 V2000
  151.0432  139.5649  158.5949 C   0  0  0  0  0  0  0  0  0  0  0  0
  151.0153  140.7134  157.5687 C   0  0  2  0  0  0  0  0  0  0  0  0
  151.9272  140.4565  156.3516 C   0  0  0  0  0  0  0  0  0  0  0  0
  151.4749  139.3520  155.5247 N   0  0  0  0  0  0  0  0  0  0  0  0
  151.7177  138.0039  155.6853 C   0  0  0  0  0  0  0  0  0  0  0  0
  151.0957  137.3539  154.6581 C   0  0  0  0  0  0  0  0  0  0  0  0
  150.4947  138.4038  153.9087 C   0  0  0  0  0  0  0  0  0  0  0  0
  150.7257  139.5984  154.4284 N   0  0  0  0  0  0  0  0  0  0  0  0
  151.4103  141.9697  158.2002 N   0  0  0  0  0  0  0  0  0  0  0  0
  152.5099  142.1571  158.9462 C   0  0  0  0  0  0  0  0  0  0  0  0
  153.3353  141.2702  159.1682 O   0  0  0  0  0  0  0  0  0  0  0  0
  152.6909  143.5644  159.5304 C   0  0  0  0  0  0  0  0  0  0  0  0
  151.4676  144.0970  160.2963 C   0  0  0  0  0  0  0  0  0  0  0  0
  151.6698  145.4449  159.5976 C   0  0  0  0  0  0  0  0  0  0  0  0
  152.4851  144.7139  158.5268 C   0  0  0  0  0  0  0  0  0  0  0  0
  150.6904  138.6307  158.1578 H   0  0  0  0  0  0  0  0  0  0  0  0
  150.4005  139.7804  159.4489 H   0  0  0  0  0  0  0  0  0  0  0  0
  152.0522  139.3962  158.9722 H   0  0  0  0  0  0  0  0  0  0  0  0
  149.9921  140.8191  157.2029 H   0  0  0  0  0  0  0  0  0  0  0  0
  151.9850  141.3487  155.7260 H   0  0  0  0  0  0  0  0  0  0  0  0
  152.9450  140.2429  156.6817 H   0  0  0  0  0  0  0  0  0  0  0  0
  152.3044  137.6237  156.5086 H   0  0  0  0  0  0  0  0  0  0  0  0
  151.0743  136.2908  154.4697 H   0  0  0  0  0  0  0  0  0  0  0  0
  149.9028  138.3339  153.0080 H   0  0  0  0  0  0  0  0  0  0  0  0
  150.7903  142.7560  158.0719 H   0  0  0  0  0  0  0  0  0  0  0  0
  153.6139  143.6833  160.1013 H   0  0  0  0  0  0  0  0  0  0  0  0
  150.5253  143.6179  160.0239 H   0  0  0  0  0  0  0  0  0  0  0  0
  151.5961  144.1347  161.3783 H   0  0  0  0  0  0  0  0  0  0  0  0
  150.7538  145.9112  159.2338 H   0  0  0  0  0  0  0  0  0  0  0  0
  152.2723  146.1389  160.1858 H   0  0  0  0  0  0  0  0  0  0  0  0
  153.4018  145.2296  158.2395 H   0  0  0  0  0  0  0  0  0  0  0  0
  151.8881  144.4502  157.6520 H   0  0  0  0  0  0  0  0  0  0  0  0
  1  2  1  0  0  0  0
  1 16  1  0  0  0  0
  1 17  1  0  0  0  0
  1 18  1  0  0  0  0
  2  3  1  0  0  0  0
  2  9  1  0  0  0  0
  2 19  1  0  0  0  0
  3  4  1  0  0  0  0
  3 20  1  0  0  0  0
  3 21  1  0  0  0  0
  4  8  1  0  0  0  0
  4  5  1  0  0  0  0
  5  6  2  0  0  0  0
  5 22  1  0  0  0  0
  6  7  1  0  0  0  0
  6 23  1  0  0  0  0
  7  8  2  0  0  0  0
  7 24  1  0  0  0  0
  9 10  1  0  0  0  0
  9 25  1  0  0  0  0
 10 11  2  0  0  0  0
 10 12  1  0  0  0  0
 12 15  1  0  0  0  0
 12 13  1  0  0  0  0
 12 26  1  0  0  0  0
 13 14  1  0  0  0  0
 13 27  1  0  0  0  0
 13 28  1  0  0  0  0
 14 15  1  0  0  0  0
 14 29  1  0  0  0  0
 14 30  1  0  0  0  0
 15 31  1  0  0  0  0
 15 32  1  0  0  0  0
M  END
> <s_m_source_file>
AV-unprocessed.smi

> <i_m_source_file_index>
1322

> <i_lp_mmshare_version>
43012

> <i_f3d_flags>
0

> <s_epik_input>
W0NIMl0xW0NIMl1bQ0gyXVtDSF0xQyg9TylbTkhdW0NASF0oW0NIM10pW0NIMl1uMltjSF1bY0hdW2NIXW4y

> <s_epik_cmdline>
J2VwaWtfcHl0aG9uJywgJy1waCcsICc3LjAnLCAnLXRuJywgJzgnLCAnLW1hJywgJzIwMCcsICctbWV0YWxfYmluZGluZycsICctaW1hZScsICc8aW5maWxlLm1hZT4nLCAnLW9tYWUnLCAnPG91dGZpbGUubWFlPic=

> <r_lp_tautomer_probability>
1

> <r_epik_Ionization_Penalty>
0.000326653

> <r_epik_Ionization_Penalty_Charging>
0

> <r_epik_Ionization_Penalty_Neutral>
0.000326653

> <r_epik_State_Penalty>
-0

> <r_epik_Charging_Adjusted_Penalty>
0

> <i_epik_Tot_Q>
0

> <i_epik_Tot_abs_Q>
0

> <r_epik_Metal_State_Penalty>
-0

> <b_epik_Metal_Only>
0

> <s_lp_Force_Field>
OPLS_2005

> <r_lp_Energy>
10.8536

> <b_lp_Chiralities_Consistent>
1

> <s_lp_Variant>
AV-unprocessed.smi:1322-1

> <Gold.Version>
5.8.1

> <Gold.Id.Protein>
6NUR|6NUR_protein|mol2

> <Gold.PLP.Fitness>
43.4097

> <Gold.PLP.PLP>
-35.4827

> <Gold.PLP.part.hbond>
-1.0000

> <Gold.PLP.part.metal>
0.0000

> <Gold.PLP.part.buried>
-4.9889

> <Gold.PLP.part.nonpolar>
-30.4283

> <Gold.PLP.part.repulsive>
0.1892

> <Gold.PLP.ligand.clash>
0.0000

> <Gold.PLP.ligand.torsion>
0.7066

> <Gold.PLP.Chemscore.Hbond>
1.0000

> <Gold.PLP.Chemscore.CHOScore>
1.9734

> <Gold.PLP.Chemscore.Metal>
0.0000

> <Gold.Chemscore.Hbonds>
donor molecule, donor type, donor heavy atom, donor atom, acceptor molecule, acceptor atom, score
      P1  H  7989  7998       L1     8  1.00
      L1  C     7    24       P1  7948  0.98
      L1  C     7    24       P1  7957  0.99

> <Gold.PLP.Chemscore.Internal.Correction>
0.4199

> <Gold.Rescore>
     Score         DG    S(hbond)    S(metal)    S(lipo)     H(rot)  DE(clash)    DE(int)     intcor
     13.47     -14.99       0.96        0.00      87.65       1.55       0.09       1.43       ----

> <Gold.Chemscore.Fitness>
13.4694

> <Gold.Chemscore.DG>
-14.9868

> <Gold.Chemscore.ZeroCoef>
-5.4800

> <Gold.Chemscore.Hbond>
0.9616

> <Gold.Chemscore.Metal>
0.0000

> <Gold.Chemscore.Lipo>
87.6548

> <Gold.Chemscore.Internal_Hbond>
0.0000

> <Gold.Chemscore.DEClash>
0.0895

> <Gold.Chemscore.DEInternal>
1.4279

> <Gold.Chemscore.Rot>
1.5471

> <Gold.Chemscore.Internal.Correction>
   9.000000E+99

> <Gold.Chemscore.Hbonds>
donor molecule, donor type, donor heavy atom, donor atom, acceptor molecule, acceptor atom, score
      P1  H  7989  7998       L1     8  0.54

> <Gold.Chemscore.Hbond.Weighted>
-3.2118

> <Gold.Chemscore.Metal.Weighted>
-0.0000

> <Gold.Chemscore.Lipo.Weighted>
-10.2556

> <Gold.Chemscore.Internal_Hbond.Weighted>
0.0000

> <Gold.Chemscore.DEClash.Weighted>
0.0895

> <Gold.Chemscore.DEInternal.Weighted>
1.4279

> <Gold.Chemscore.Rot.Weighted>
3.9606

> <Gold.Chemscore.Internal.Correction.Weighted>
   9.000000E+99

> <Gold.Protein.RotatedTorsions>
[ 6907 6896 6895 6894 ] final  131.58 input  -60.11 | X-H torsion
[ 7974 7965 7964 7962 ] final   -9.99 input  175.53 | X-H torsion
[ 8008 7997 7996 7995 ] final   14.77 input   59.86 | X-H torsion
[ 10167 10162 10161 10158 ] final  136.54 input  -65.29 | X-H torsion
[ 10718 10713 10712 10709 ] final  -73.34 input   66.30 | X-H torsion
[ 10763 10752 10751 10750 ] final   54.78 input  -60.55 | X-H torsion
[ 11005 11000 10999 10996 ] final  -62.11 input  -57.11 | X-H torsion

> <Gold.Protein.ActiveResidues>
 VAL166  LYS551  ARG553  GLY616  TRP617  ASP618  TYR619  PRO620  LYS621  CYS622 
 ASP623  PHE694  ASN695  SER759  ASP760  ASP761  ALA762  ILE779  LEU786  VAL792 
 PHE793  MET794  SER795  GLU796  ALA797  LYS798  CYS799  TRP800  GLU811  SER814 

> <Gold.Protein.RotatedAtoms>
  152.3412  133.6069  159.5877 H   0  0  0  0  0  0  0  0  0  0  0  0  # atno 6907 bound_to 6896
  150.7479  133.9720  159.3557 H   0  0  0  0  0  0  0  0  0  0  0  0  # atno 6908 bound_to 6896
  151.7583  135.0817  160.0392 H   0  0  0  0  0  0  0  0  0  0  0  0  # atno 6909 bound_to 6896
  146.2234  140.2698  142.8356 H   0  0  0  0  0  0  0  0  0  0  0  0  # atno 7974 bound_to 7965
  154.8531  140.2933  155.5585 H   0  0  0  0  0  0  0  0  0  0  0  0  # atno 8008 bound_to 7997
  156.3017  140.2492  156.3426 H   0  0  0  0  0  0  0  0  0  0  0  0  # atno 8009 bound_to 7997
  154.8999  140.0392  157.1876 H   0  0  0  0  0  0  0  0  0  0  0  0  # atno 8010 bound_to 7997
  139.5176  144.6459  151.5441 H   0  0  0  0  0  0  0  0  0  0  0  0  # atno 10167 bound_to 10162
  156.0284  130.4392  150.2728 H   0  0  0  0  0  0  0  0  0  0  0  0  # atno 10718 bound_to 10713
  152.9808  135.5733  154.4960 H   0  0  0  0  0  0  0  0  0  0  0  0  # atno 10763 bound_to 10752
  154.4487  135.2778  155.1798 H   0  0  0  0  0  0  0  0  0  0  0  0  # atno 10764 bound_to 10752
  154.3435  135.6224  153.5661 H   0  0  0  0  0  0  0  0  0  0  0  0  # atno 10765 bound_to 10752
  141.1348  133.6636  156.5478 H   0  0  0  0  0  0  0  0  0  0  0  0  # atno 11005 bound_to 11000
  144.9276  140.7939  143.5709 LP  0  0  0  0  0  0  0  0  0  0  0  0  # atno 17320 bound_to 7965
  145.2639  139.1981  143.4877 LP  0  0  0  0  0  0  0  0  0  0  0  0  # atno 17321 bound_to 7965
  140.6243  143.9198  150.6552 LP  0  0  0  0  0  0  0  0  0  0  0  0  # atno 17342 bound_to 10162
  140.2482  143.3613  152.1429 LP  0  0  0  0  0  0  0  0  0  0  0  0  # atno 17343 bound_to 10162
  157.0831  131.0149  151.3149 LP  0  0  0  0  0  0  0  0  0  0  0  0  # atno 17370 bound_to 10713
  157.4912  130.7823  149.7509 LP  0  0  0  0  0  0  0  0  0  0  0  0  # atno 17371 bound_to 10713
  140.4088  134.7291  157.4823 LP  0  0  0  0  0  0  0  0  0  0  0  0  # atno 17394 bound_to 11000
  140.0442  134.6223  155.8942 LP  0  0  0  0  0  0  0  0  0  0  0  0  # atno 17395 bound_to 11000

$$$$
