AV-unprocessed.smi:2066|AV-procd|sdf|8421|dock2
  -GOLD-   2272011113D 1   1.00000     0.00000
 Structure written by MMmdl.
 38 39  0  0  0  0  0  0  0  0  2 V2000
  152.6535  137.7840  160.4189 C   0  0  0  0  0  0  0  0  0  0  0  0
  152.2784  138.4076  159.0530 C   0  0  0  0  0  0  0  0  0  0  0  0
  153.4715  138.1675  158.0933 C   0  0  0  0  0  0  0  0  0  0  0  0
  151.0878  137.5836  158.4845 C   0  0  0  0  0  0  0  0  0  0  0  0
  149.8307  137.8850  159.1639 N   0  0  0  0  0  0  0  0  0  0  0  0
  148.8461  137.0080  159.3958 C   0  0  0  0  0  0  0  0  0  0  0  0
  148.9594  135.8420  159.0102 O   0  0  0  0  0  0  0  0  0  0  0  0
  147.7935  137.5342  160.0623 N   0  5  0  0  0  0  0  0  0  0  0  0
  146.9326  136.7271  160.7028 C   0  0  0  0  0  0  0  0  0  0  0  0
  145.9108  136.1174  160.0909 N   0  0  0  0  0  0  0  0  0  0  0  0
  145.1404  135.3300  160.9482 C   0  0  0  0  0  0  0  0  0  0  0  0
  145.5790  135.3494  162.2457 C   0  0  0  0  0  0  0  0  0  0  0  0
  146.9832  136.3614  162.4297 S   0  0  0  0  0  0  0  0  0  0  0  0
  151.9505  139.8581  159.1450 N   0  0  0  0  0  0  0  0  0  0  0  0
  151.6117  140.5005  157.8704 C   0  0  0  0  0  0  0  0  0  0  0  0
  151.1642  141.9601  158.0601 C   0  0  0  0  0  0  0  0  0  0  0  0
  152.1816  142.6908  158.7343 O   0  0  0  0  0  0  0  0  0  0  0  0
  152.4963  142.1335  160.0047 C   0  0  0  0  0  0  0  0  0  0  0  0
  152.9568  140.6766  159.8316 C   0  0  0  0  0  0  0  0  0  0  0  0
  152.8855  136.7235  160.3132 H   0  0  0  0  0  0  0  0  0  0  0  0
  151.8401  137.8559  161.1405 H   0  0  0  0  0  0  0  0  0  0  0  0
  153.5317  138.2546  160.8600 H   0  0  0  0  0  0  0  0  0  0  0  0
  153.6119  137.1059  157.8867 H   0  0  0  0  0  0  0  0  0  0  0  0
  154.4149  138.5224  158.5081 H   0  0  0  0  0  0  0  0  0  0  0  0
  153.3238  138.6672  157.1351 H   0  0  0  0  0  0  0  0  0  0  0  0
  150.9578  137.7896  157.4207 H   0  0  0  0  0  0  0  0  0  0  0  0
  151.2888  136.5134  158.5459 H   0  0  0  0  0  0  0  0  0  0  0  0
  149.7067  138.8296  159.4979 H   0  0  0  0  0  0  0  0  0  0  0  0
  144.2947  134.7903  160.5488 H   0  0  0  0  0  0  0  0  0  0  0  0
  145.1653  134.8342  163.0994 H   0  0  0  0  0  0  0  0  0  0  0  0
  152.4696  140.4805  157.1985 H   0  0  0  0  0  0  0  0  0  0  0  0
  150.8037  139.9697  157.3701 H   0  0  0  0  0  0  0  0  0  0  0  0
  150.9731  142.4259  157.0934 H   0  0  0  0  0  0  0  0  0  0  0  0
  150.2338  142.0080  158.6282 H   0  0  0  0  0  0  0  0  0  0  0  0
  153.2838  142.7272  160.4687 H   0  0  0  0  0  0  0  0  0  0  0  0
  151.6261  142.1871  160.6608 H   0  0  0  0  0  0  0  0  0  0  0  0
  153.1717  140.2801  160.8223 H   0  0  0  0  0  0  0  0  0  0  0  0
  153.8943  140.6672  159.2756 H   0  0  0  0  0  0  0  0  0  0  0  0
  1  2  1  0  0  0  0
  1 20  1  0  0  0  0
  1 21  1  0  0  0  0
  1 22  1  0  0  0  0
  2  3  1  0  0  0  0
  2  4  1  0  0  0  0
  2 14  1  0  0  0  0
  3 23  1  0  0  0  0
  3 24  1  0  0  0  0
  3 25  1  0  0  0  0
  4  5  1  0  0  0  0
  4 26  1  0  0  0  0
  4 27  1  0  0  0  0
  5  6  1  0  0  0  0
  5 28  1  0  0  0  0
  6  7  2  0  0  0  0
  6  8  1  0  0  0  0
  8  9  1  0  0  0  0
  9 13  1  0  0  0  0
  9 10  2  0  0  0  0
 10 11  1  0  0  0  0
 11 12  2  0  0  0  0
 11 29  1  0  0  0  0
 12 13  1  0  0  0  0
 12 30  1  0  0  0  0
 14 19  1  0  0  0  0
 14 15  1  0  0  0  0
 15 16  1  0  0  0  0
 15 31  1  0  0  0  0
 15 32  1  0  0  0  0
 16 17  1  0  0  0  0
 16 33  1  0  0  0  0
 16 34  1  0  0  0  0
 17 18  1  0  0  0  0
 18 19  1  0  0  0  0
 18 35  1  0  0  0  0
 18 36  1  0  0  0  0
 19 37  1  0  0  0  0
 19 38  1  0  0  0  0
M  CHG  1   8  -1
M  END
> <s_m_source_file>
AV-unprocessed.smi

> <i_m_source_file_index>
2066

> <i_lp_mmshare_version>
43012

> <i_f3d_flags>
0

> <s_epik_input>
W0NIMl0xW0NIMl1PW0NIMl1bQ0gyXU4xQyhbQ0gzXSkoW0NIM10pW0NIMl1bTkhdQyg9TylbTkhdYzJuW2NIXVtjSF1zMg==

> <s_epik_cmdline>
J2VwaWtfcHl0aG9uJywgJy1waCcsICc3LjAnLCAnLXRuJywgJzgnLCAnLW1hJywgJzIwMCcsICctbWV0YWxfYmluZGluZycsICctaW1hZScsICc8aW5maWxlLm1hZT4nLCAnLW9tYWUnLCAnPG91dGZpbGUubWFlPic=

> <r_lp_tautomer_probability>
0.999

> <r_epik_Ionization_Penalty>
7.22375

> <r_epik_Ionization_Penalty_Charging>
5.82415

> <r_epik_Ionization_Penalty_Neutral>
1.39959

> <r_epik_State_Penalty>
6.03347

> <r_epik_Charging_Adjusted_Penalty>
11.8576

> <i_epik_Tot_Q>
-1

> <i_epik_Tot_abs_Q>
1

> <r_epik_Metal_State_Penalty>
2.0104

> <b_epik_Metal_Only>
1

> <s_lp_Force_Field>
OPLS_2005

> <r_lp_Energy>
36.7798

> <b_lp_Chiralities_Consistent>
1

> <s_lp_Variant>
AV-unprocessed.smi:2066-3

> <Gold.Version>
5.8.1

> <Gold.Id.Protein>
6NUR|6NUR_protein|mol2

> <Gold.PLP.Fitness>
41.5608

> <Gold.PLP.PLP>
-32.5920

> <Gold.PLP.part.hbond>
-3.0000

> <Gold.PLP.part.metal>
0.0000

> <Gold.PLP.part.buried>
-4.5870

> <Gold.PLP.part.nonpolar>
-25.4911

> <Gold.PLP.part.repulsive>
0.2837

> <Gold.PLP.ligand.clash>
0.0000

> <Gold.PLP.ligand.torsion>
1.1614

> <Gold.PLP.Chemscore.Hbond>
3.7213

> <Gold.PLP.Chemscore.CHOScore>
0.0000

> <Gold.PLP.Chemscore.Metal>
0.0000

> <Gold.Chemscore.Hbonds>
donor molecule, donor type, donor heavy atom, donor atom, acceptor molecule, acceptor atom, score
      P1  H  6896  6909       L1     7  0.49
      P1  H  6931  6943       L1     8  0.20
      P1  H  6934  6947       L1     8  1.03

> <Gold.PLP.Chemscore.Internal.Correction>
0.1278

> <Gold.Rescore>
     Score         DG    S(hbond)    S(metal)    S(lipo)     H(rot)  DE(clash)    DE(int)     intcor
     14.40     -15.65       1.68        0.00      72.95       1.55       0.14       1.11       ----

> <Gold.Chemscore.Fitness>
14.3977

> <Gold.Chemscore.DG>
-15.6503

> <Gold.Chemscore.ZeroCoef>
-5.4800

> <Gold.Chemscore.Hbond>
1.6773

> <Gold.Chemscore.Metal>
0.0000

> <Gold.Chemscore.Lipo>
72.9462

> <Gold.Chemscore.Internal_Hbond>
0.0000

> <Gold.Chemscore.DEClash>
0.1399

> <Gold.Chemscore.DEInternal>
1.1128

> <Gold.Chemscore.Rot>
1.5495

> <Gold.Chemscore.Internal.Correction>
   9.000000E+99

> <Gold.Chemscore.Hbonds>
donor molecule, donor type, donor heavy atom, donor atom, acceptor molecule, acceptor atom, score
      P1  H  6896  6909       L1     7  0.47
      P1  H  6934  6947       L1     8  0.05

> <Gold.Chemscore.Hbond.Weighted>
-5.6022

> <Gold.Chemscore.Metal.Weighted>
-0.0000

> <Gold.Chemscore.Lipo.Weighted>
-8.5347

> <Gold.Chemscore.Internal_Hbond.Weighted>
0.0000

> <Gold.Chemscore.DEClash.Weighted>
0.1399

> <Gold.Chemscore.DEInternal.Weighted>
1.1128

> <Gold.Chemscore.Rot.Weighted>
3.9666

> <Gold.Chemscore.Internal.Correction.Weighted>
   9.000000E+99

> <Gold.Protein.RotatedTorsions>
[ 6907 6896 6895 6894 ] final   40.00 input  -60.11 | X-H torsion
[ 7974 7965 7964 7962 ] final  104.21 input  175.53 | X-H torsion
[ 8008 7997 7996 7995 ] final   97.67 input   59.86 | X-H torsion
[ 10167 10162 10161 10158 ] final -151.25 input  -65.29 | X-H torsion
[ 10718 10713 10712 10709 ] final  -53.86 input   66.30 | X-H torsion
[ 10763 10752 10751 10750 ] final -132.04 input  -60.55 | X-H torsion
[ 11005 11000 10999 10996 ] final  -14.38 input  -57.11 | X-H torsion

> <Gold.Protein.ActiveResidues>
 VAL166  LYS551  ARG553  GLY616  TRP617  ASP618  TYR619  PRO620  LYS621  CYS622 
 ASP623  PHE694  ASN695  SER759  ASP760  ASP761  ALA762  ILE779  LEU786  VAL792 
 PHE793  MET794  SER795  GLU796  ALA797  LYS798  CYS799  TRP800  GLU811  SER814 

> <Gold.Protein.RotatedAtoms>
  152.1768  134.8788  160.0529 H   0  0  0  0  0  0  0  0  0  0  0  0  # atno 6907 bound_to 6896
  151.9727  133.3726  159.4085 H   0  0  0  0  0  0  0  0  0  0  0  0  # atno 6908 bound_to 6896
  150.6911  134.4046  159.5178 H   0  0  0  0  0  0  0  0  0  0  0  0  # atno 6909 bound_to 6896
  145.3358  139.2475  143.3636 H   0  0  0  0  0  0  0  0  0  0  0  0  # atno 7974 bound_to 7965
  156.0925  140.3255  155.7834 H   0  0  0  0  0  0  0  0  0  0  0  0  # atno 8008 bound_to 7997
  155.4973  140.0566  157.2962 H   0  0  0  0  0  0  0  0  0  0  0  0  # atno 8009 bound_to 7997
  154.4646  140.1983  156.0168 H   0  0  0  0  0  0  0  0  0  0  0  0  # atno 8010 bound_to 7997
  139.7284  143.8847  152.2526 H   0  0  0  0  0  0  0  0  0  0  0  0  # atno 10167 bound_to 10162
  156.1499  130.4151  149.9961 H   0  0  0  0  0  0  0  0  0  0  0  0  # atno 10718 bound_to 10713
  154.8746  135.3811  154.4344 H   0  0  0  0  0  0  0  0  0  0  0  0  # atno 10763 bound_to 10752
  153.5035  135.7030  153.5824 H   0  0  0  0  0  0  0  0  0  0  0  0  # atno 10764 bound_to 10752
  153.4145  135.3916  155.2038 H   0  0  0  0  0  0  0  0  0  0  0  0  # atno 10765 bound_to 10752
  140.7858  133.8327  155.9334 H   0  0  0  0  0  0  0  0  0  0  0  0  # atno 11005 bound_to 11000
  146.3027  140.3945  142.8698 LP  0  0  0  0  0  0  0  0  0  0  0  0  # atno 17320 bound_to 7965
  144.8829  140.7424  143.5975 LP  0  0  0  0  0  0  0  0  0  0  0  0  # atno 17321 bound_to 7965
  139.8763  144.7041  150.8929 LP  0  0  0  0  0  0  0  0  0  0  0  0  # atno 17342 bound_to 10162
  140.7767  143.3697  151.1673 LP  0  0  0  0  0  0  0  0  0  0  0  0  # atno 17343 bound_to 10162
  156.7822  130.9225  151.3646 LP  0  0  0  0  0  0  0  0  0  0  0  0  # atno 17370 bound_to 10713
  157.6648  130.8998  149.9909 LP  0  0  0  0  0  0  0  0  0  0  0  0  # atno 17371 bound_to 10713
  140.9438  134.1867  157.4778 LP  0  0  0  0  0  0  0  0  0  0  0  0  # atno 17394 bound_to 11000
  139.8737  134.9882  156.5403 LP  0  0  0  0  0  0  0  0  0  0  0  0  # atno 17395 bound_to 11000

$$$$
