AV-unprocessed.smi:970|AV-procd|sdf|4294|dock3
  -GOLD-   22720 2203D 1   1.00000     0.00000
 Structure written by MMmdl.
 31 31  0  0  0  0  0  0  0  0  1 V2000
  146.5010  138.2581  151.8023 C   0  0  0  0  0  0  0  0  0  0  0  0
  147.1376  139.5237  152.1323 N   0  0  0  0  0  0  0  0  0  0  0  0
  147.2392  140.0164  153.3750 C   0  0  0  0  0  0  0  0  0  0  0  0
  146.7901  139.4388  154.3666 O   0  0  0  0  0  0  0  0  0  0  0  0
  147.9417  141.3773  153.5123 C   0  0  1  0  0  0  0  0  0  0  0  0
  147.0579  142.2857  154.3833 C   0  0  0  0  0  0  0  0  0  0  0  0
  149.2307  141.2272  154.1847 N   0  0  0  0  0  0  0  0  0  0  0  0
  149.3989  140.9441  155.4871 C   0  0  0  0  0  0  0  0  0  0  0  0
  148.4583  140.7735  156.2638 O   0  0  0  0  0  0  0  0  0  0  0  0
  150.8512  140.8385  155.9769 C   0  0  1  0  0  0  0  0  0  0  0  0
  150.9543  140.7599  157.5138 C   0  0  0  0  0  0  0  0  0  0  0  0
  151.5221  139.7241  155.3184 N   0  0  0  0  0  0  0  0  0  0  0  0
  151.0114  138.7121  154.6130 C   0  0  0  0  0  0  0  0  0  0  0  0
  151.9144  137.8364  154.1949 N   0  0  0  0  0  0  0  0  0  0  0  0
  153.0405  138.4004  154.7235 C   0  0  0  0  0  0  0  0  0  0  0  0
  152.8607  139.5255  155.4148 N   0  0  0  0  0  0  0  0  0  0  0  0
  146.6149  138.0506  150.7384 H   0  0  0  0  0  0  0  0  0  0  0  0
  145.4352  138.2906  152.0316 H   0  0  0  0  0  0  0  0  0  0  0  0
  146.9531  137.4367  152.3599 H   0  0  0  0  0  0  0  0  0  0  0  0
  147.5313  140.0563  151.3700 H   0  0  0  0  0  0  0  0  0  0  0  0
  148.0819  141.8338  152.5304 H   0  0  0  0  0  0  0  0  0  0  0  0
  146.0772  142.4378  153.9303 H   0  0  0  0  0  0  0  0  0  0  0  0
  147.5132  143.2690  154.5057 H   0  0  0  0  0  0  0  0  0  0  0  0
  146.9033  141.8691  155.3799 H   0  0  0  0  0  0  0  0  0  0  0  0
  150.0553  141.3617  153.6182 H   0  0  0  0  0  0  0  0  0  0  0  0
  151.3676  141.7490  155.6678 H   0  0  0  0  0  0  0  0  0  0  0  0
  150.4993  141.6333  157.9821 H   0  0  0  0  0  0  0  0  0  0  0  0
  151.9965  140.7253  157.8322 H   0  0  0  0  0  0  0  0  0  0  0  0
  150.4578  139.8752  157.9146 H   0  0  0  0  0  0  0  0  0  0  0  0
  149.9562  138.6114  154.4052 H   0  0  0  0  0  0  0  0  0  0  0  0
  154.0215  137.9653  154.6012 H   0  0  0  0  0  0  0  0  0  0  0  0
  1  2  1  0  0  0  0
  1 17  1  0  0  0  0
  1 18  1  0  0  0  0
  1 19  1  0  0  0  0
  2  3  1  0  0  0  0
  2 20  1  0  0  0  0
  3  4  2  0  0  0  0
  3  5  1  0  0  0  0
  5  6  1  0  0  0  0
  5  7  1  0  0  0  0
  5 21  1  0  0  0  0
  6 22  1  0  0  0  0
  6 23  1  0  0  0  0
  6 24  1  0  0  0  0
  7  8  1  0  0  0  0
  7 25  1  0  0  0  0
  8  9  2  0  0  0  0
  8 10  1  0  0  0  0
 10 11  1  0  0  0  0
 10 12  1  0  0  0  0
 10 26  1  0  0  0  0
 11 27  1  0  0  0  0
 11 28  1  0  0  0  0
 11 29  1  0  0  0  0
 12 16  1  0  0  0  0
 12 13  1  0  0  0  0
 13 14  2  0  0  0  0
 13 30  1  0  0  0  0
 14 15  1  0  0  0  0
 15 16  2  0  0  0  0
 15 31  1  0  0  0  0
M  END
> <s_m_source_file>
AV-unprocessed.smi

> <i_m_source_file_index>
970

> <i_lp_mmshare_version>
43012

> <i_f3d_flags>
0

> <s_epik_input>
W0NIM11bTkhdQyg9TylbQ0BIXShbQ0gzXSlbTkhdQyg9TylbQ0BIXShbQ0gzXSluMVtjSF1uW2NIXW4x

> <s_epik_cmdline>
J2VwaWtfcHl0aG9uJywgJy1waCcsICc3LjAnLCAnLXRuJywgJzgnLCAnLW1hJywgJzIwMCcsICctbWV0YWxfYmluZGluZycsICctaW1hZScsICc8aW5maWxlLm1hZT4nLCAnLW9tYWUnLCAnPG91dGZpbGUubWFlPic=

> <r_lp_tautomer_probability>
1

> <r_epik_Ionization_Penalty>
1.07271e-05

> <r_epik_Ionization_Penalty_Charging>
0

> <r_epik_Ionization_Penalty_Neutral>
1.07271e-05

> <r_epik_State_Penalty>
-0

> <r_epik_Charging_Adjusted_Penalty>
0

> <i_epik_Tot_Q>
0

> <i_epik_Tot_abs_Q>
0

> <r_epik_Metal_State_Penalty>
-0

> <b_epik_Metal_Only>
0

> <s_lp_Force_Field>
OPLS_2005

> <r_lp_Energy>
8.70478

> <b_lp_Chiralities_Consistent>
1

> <s_lp_Variant>
AV-unprocessed.smi:970-4

> <Gold.Version>
5.8.1

> <Gold.Id.Protein>
6NUR|6NUR_protein|mol2

> <Gold.PLP.Fitness>
34.8288

> <Gold.PLP.PLP>
-31.6844

> <Gold.PLP.part.hbond>
-2.4553

> <Gold.PLP.part.metal>
0.0000

> <Gold.PLP.part.buried>
-1.6696

> <Gold.PLP.part.nonpolar>
-27.7424

> <Gold.PLP.part.repulsive>
0.9898

> <Gold.PLP.ligand.clash>
0.0000

> <Gold.PLP.ligand.torsion>
0.6195

> <Gold.PLP.Chemscore.Hbond>
1.4245

> <Gold.PLP.Chemscore.CHOScore>
0.0000

> <Gold.PLP.Chemscore.Metal>
0.0000

> <Gold.Chemscore.Hbonds>
donor molecule, donor type, donor heavy atom, donor atom, acceptor molecule, acceptor atom, score
      L1  H     2    20       P1  7957  0.37
      P1  H  7997  8010       L1    16  1.00
      P1  H 10752 10765       L1    14  0.05

> <Gold.PLP.Chemscore.Internal.Correction>
0.1101

> <Gold.Rescore>
     Score         DG    S(hbond)    S(metal)    S(lipo)     H(rot)  DE(clash)    DE(int)     intcor
      3.85      -7.59       1.37        0.00      35.36       2.59       0.37       3.36       ----

> <Gold.Chemscore.Fitness>
3.8515

> <Gold.Chemscore.DG>
-7.5874

> <Gold.Chemscore.ZeroCoef>
-5.4800

> <Gold.Chemscore.Hbond>
1.3739

> <Gold.Chemscore.Metal>
0.0000

> <Gold.Chemscore.Lipo>
35.3579

> <Gold.Chemscore.Internal_Hbond>
0.0000

> <Gold.Chemscore.DEClash>
0.3709

> <Gold.Chemscore.DEInternal>
3.3649

> <Gold.Chemscore.Rot>
2.5852

> <Gold.Chemscore.Internal.Correction>
   9.000000E+99

> <Gold.Chemscore.Hbonds>
donor molecule, donor type, donor heavy atom, donor atom, acceptor molecule, acceptor atom, score
      L1  H     2    20       P1  7957  0.35
      P1  H  7997  8010       L1    16  0.82

> <Gold.Chemscore.Hbond.Weighted>
-4.5887

> <Gold.Chemscore.Metal.Weighted>
-0.0000

> <Gold.Chemscore.Lipo.Weighted>
-4.1369

> <Gold.Chemscore.Internal_Hbond.Weighted>
0.0000

> <Gold.Chemscore.DEClash.Weighted>
0.3709

> <Gold.Chemscore.DEInternal.Weighted>
3.3649

> <Gold.Chemscore.Rot.Weighted>
6.6182

> <Gold.Chemscore.Internal.Correction.Weighted>
   9.000000E+99

> <Gold.Protein.RotatedTorsions>
[ 6907 6896 6895 6894 ] final -171.16 input  -60.11 | X-H torsion
[ 7974 7965 7964 7962 ] final  122.26 input  175.53 | X-H torsion
[ 8008 7997 7996 7995 ] final   93.32 input   59.86 | X-H torsion
[ 10167 10162 10161 10158 ] final    3.48 input  -65.29 | X-H torsion
[ 10718 10713 10712 10709 ] final  -78.81 input   66.30 | X-H torsion
[ 10763 10752 10751 10750 ] final  156.95 input  -60.55 | X-H torsion
[ 11005 11000 10999 10996 ] final -125.68 input  -57.11 | X-H torsion

> <Gold.Protein.ActiveResidues>
 VAL166  LYS551  ARG553  GLY616  TRP617  ASP618  TYR619  PRO620  LYS621  CYS622 
 ASP623  PHE694  ASN695  SER759  ASP760  ASP761  ALA762  ILE779  LEU786  VAL792 
 PHE793  MET794  SER795  GLU796  ALA797  LYS798  CYS799  TRP800  GLU811  SER814 

> <Gold.Protein.RotatedAtoms>
  151.5193  133.3469  159.2898 H   0  0  0  0  0  0  0  0  0  0  0  0  # atno 6907 bound_to 6896
  150.8662  134.8028  159.7131 H   0  0  0  0  0  0  0  0  0  0  0  0  # atno 6908 bound_to 6896
  152.4666  134.5070  159.9794 H   0  0  0  0  0  0  0  0  0  0  0  0  # atno 6909 bound_to 6896
  145.1096  139.3462  143.4770 H   0  0  0  0  0  0  0  0  0  0  0  0  # atno 7974 bound_to 7965
  156.0454  140.3314  155.7291 H   0  0  0  0  0  0  0  0  0  0  0  0  # atno 8008 bound_to 7997
  155.5681  140.0625  157.2830 H   0  0  0  0  0  0  0  0  0  0  0  0  # atno 8009 bound_to 7997
  154.4411  140.1865  156.0840 H   0  0  0  0  0  0  0  0  0  0  0  0  # atno 8010 bound_to 7997
  140.6584  143.7369  150.7694 H   0  0  0  0  0  0  0  0  0  0  0  0  # atno 10167 bound_to 10162
  156.0108  130.4528  150.3552 H   0  0  0  0  0  0  0  0  0  0  0  0  # atno 10718 bound_to 10713
  154.1924  135.2794  155.3017 H   0  0  0  0  0  0  0  0  0  0  0  0  # atno 10763 bound_to 10752
  154.5918  135.5557  153.7289 H   0  0  0  0  0  0  0  0  0  0  0  0  # atno 10764 bound_to 10752
  153.0109  135.6370  154.2063 H   0  0  0  0  0  0  0  0  0  0  0  0  # atno 10765 bound_to 10752
  140.9742  134.0763  157.3836 H   0  0  0  0  0  0  0  0  0  0  0  0  # atno 11005 bound_to 11000
  146.3527  140.1010  142.8608 LP  0  0  0  0  0  0  0  0  0  0  0  0  # atno 17320 bound_to 7965
  145.0862  140.9254  143.4796 LP  0  0  0  0  0  0  0  0  0  0  0  0  # atno 17321 bound_to 7965
  140.1033  143.4767  152.2413 LP  0  0  0  0  0  0  0  0  0  0  0  0  # atno 17342 bound_to 10162
  139.5811  144.7511  151.3637 LP  0  0  0  0  0  0  0  0  0  0  0  0  # atno 17343 bound_to 10162
  157.1643  131.0353  151.2826 LP  0  0  0  0  0  0  0  0  0  0  0  0  # atno 17370 bound_to 10713
  157.4284  130.7476  149.6970 LP  0  0  0  0  0  0  0  0  0  0  0  0  # atno 17371 bound_to 10713
  139.8924  135.0124  156.6843 LP  0  0  0  0  0  0  0  0  0  0  0  0  # atno 17394 bound_to 11000
  140.7283  133.9080  155.8194 LP  0  0  0  0  0  0  0  0  0  0  0  0  # atno 17395 bound_to 11000

$$$$
