AV-unprocessed.smi:3274|AV-procd|sdf|12527|dock6
  -GOLD-   2272018443D 1   1.00000     0.00000
 Structure written by MMmdl.
 43 44  0  0  0  0  0  0  0  0  2 V2000
  151.8055  145.0749  159.0730 C   0  0  0  0  0  0  0  0  0  0  0  0
  152.1957  144.0106  160.0851 C   0  0  0  0  0  0  0  0  0  0  0  0
  152.2756  144.3260  161.3920 C   0  0  0  0  0  0  0  0  0  0  0  0
  152.7201  143.3687  162.4741 C   0  0  0  0  0  0  0  0  0  0  0  0
  153.5254  142.2079  161.8849 C   0  0  0  0  0  0  0  0  0  0  0  0
  152.7976  141.5683  160.6913 C   0  0  2  0  0  0  0  0  0  0  0  0
  153.6004  140.3499  160.1935 C   0  0  0  0  0  0  0  0  0  0  0  0
  152.5075  142.5966  159.5543 C   0  0  1  0  0  0  0  0  0  0  0  0
  151.3998  142.0525  158.6151 C   0  0  0  0  0  0  0  0  0  0  0  0
  151.8467  140.8926  157.8114 N   0  3  0  0  0  0  0  0  0  0  0  0
  150.9618  140.5140  156.6849 C   0  0  1  0  0  0  0  0  0  0  0  0
  150.6232  141.7717  155.8732 C   0  0  0  0  0  0  0  0  0  0  0  0
  151.6150  139.4474  155.7767 C   0  0  0  0  0  0  0  0  0  0  0  0
  152.0830  138.2775  156.4970 N   0  0  0  0  0  0  0  0  0  0  0  0
  151.6371  137.0200  156.4928 C   0  0  0  0  0  0  0  0  0  0  0  0
  152.3206  136.2078  157.2862 N   0  0  0  0  0  0  0  0  0  0  0  0
  153.2255  137.0946  157.7977 C   0  0  0  0  0  0  0  0  0  0  0  0
  153.1237  138.3497  157.3599 N   0  0  0  0  0  0  0  0  0  0  0  0
  152.5284  145.1101  158.2577 H   0  0  0  0  0  0  0  0  0  0  0  0
  151.7749  146.0647  159.5301 H   0  0  0  0  0  0  0  0  0  0  0  0
  150.8157  144.8771  158.6622 H   0  0  0  0  0  0  0  0  0  0  0  0
  152.0254  145.3239  161.7226 H   0  0  0  0  0  0  0  0  0  0  0  0
  153.3282  143.9075  163.2013 H   0  0  0  0  0  0  0  0  0  0  0  0
  151.8388  143.0023  163.0010 H   0  0  0  0  0  0  0  0  0  0  0  0
  154.5040  142.5695  161.5649 H   0  0  0  0  0  0  0  0  0  0  0  0
  153.7104  141.4660  162.6629 H   0  0  0  0  0  0  0  0  0  0  0  0
  151.8408  141.2019  161.0671 H   0  0  0  0  0  0  0  0  0  0  0  0
  154.5643  140.6524  159.7828 H   0  0  0  0  0  0  0  0  0  0  0  0
  153.0746  139.7887  159.4227 H   0  0  0  0  0  0  0  0  0  0  0  0
  153.7971  139.6539  161.0097 H   0  0  0  0  0  0  0  0  0  0  0  0
  153.4260  142.7010  158.9746 H   0  0  0  0  0  0  0  0  0  0  0  0
  150.5305  141.7463  159.1893 H   0  0  0  0  0  0  0  0  0  0  0  0
  151.0573  142.8481  157.9521 H   0  0  0  0  0  0  0  0  0  0  0  0
  152.7434  141.1424  157.4190 H   0  0  0  0  0  0  0  0  0  0  0  0
  150.0209  140.1297  157.0823 H   0  0  0  0  0  0  0  0  0  0  0  0
  149.9397  141.5400  155.0556 H   0  0  0  0  0  0  0  0  0  0  0  0
  151.5186  142.2200  155.4406 H   0  0  0  0  0  0  0  0  0  0  0  0
  150.1415  142.5249  156.4976 H   0  0  0  0  0  0  0  0  0  0  0  0
  150.8985  139.1058  155.0283 H   0  0  0  0  0  0  0  0  0  0  0  0
  152.4536  139.8771  155.2269 H   0  0  0  0  0  0  0  0  0  0  0  0
  150.8026  136.6892  155.8920 H   0  0  0  0  0  0  0  0  0  0  0  0
  153.9822  136.8063  158.5125 H   0  0  0  0  0  0  0  0  0  0  0  0
  151.9767  140.0921  158.4135 H   0  0  0  0  0  0  0  0  0  0  0  0
  1  2  1  0  0  0  0
  1 19  1  0  0  0  0
  1 20  1  0  0  0  0
  1 21  1  0  0  0  0
  2  8  1  0  0  0  0
  2  3  2  0  0  0  0
  3  4  1  0  0  0  0
  3 22  1  0  0  0  0
  4  5  1  0  0  0  0
  4 23  1  0  0  0  0
  4 24  1  0  0  0  0
  5  6  1  0  0  0  0
  5 25  1  0  0  0  0
  5 26  1  0  0  0  0
  6  7  1  0  0  0  0
  6  8  1  0  0  0  0
  6 27  1  0  0  0  0
  7 28  1  0  0  0  0
  7 29  1  0  0  0  0
  7 30  1  0  0  0  0
  8  9  1  0  0  0  0
  8 31  1  0  0  0  0
  9 10  1  0  0  0  0
  9 32  1  0  0  0  0
  9 33  1  0  0  0  0
 10 11  1  0  0  0  0
 10 34  1  0  0  0  0
 10 43  1  0  0  0  0
 11 12  1  0  0  0  0
 11 13  1  0  0  0  0
 11 35  1  0  0  0  0
 12 36  1  0  0  0  0
 12 37  1  0  0  0  0
 12 38  1  0  0  0  0
 13 14  1  0  0  0  0
 13 39  1  0  0  0  0
 13 40  1  0  0  0  0
 14 18  1  0  0  0  0
 14 15  1  0  0  0  0
 15 16  2  0  0  0  0
 15 41  1  0  0  0  0
 16 17  1  0  0  0  0
 17 18  2  0  0  0  0
 17 42  1  0  0  0  0
M  CHG  1  10   1
M  END
> <s_m_source_file>
AV-unprocessed.smi

> <i_m_source_file_index>
3274

> <i_lp_mmshare_version>
43012

> <i_f3d_flags>
0

> <s_epik_input>
W0NIM11DMT1bQ0hdW0NIMl1bQ0gyXVtDQEBIXShbQ0gzXSlbQ0BIXTFbQ0gyXVtOSF1bQ0BIXShbQ0gzXSlbQ0gyXW4yW2NIXW5bY0hdbjI=

> <s_epik_cmdline>
J2VwaWtfcHl0aG9uJywgJy1waCcsICc3LjAnLCAnLXRuJywgJzgnLCAnLW1hJywgJzIwMCcsICctbWV0YWxfYmluZGluZycsICctaW1hZScsICc8aW5maWxlLm1hZT4nLCAnLW9tYWUnLCAnPG91dGZpbGUubWFlPic=

> <r_lp_tautomer_probability>
1

> <r_epik_Ionization_Penalty>
0.0017527

> <r_epik_Ionization_Penalty_Charging>
0.00175191

> <r_epik_Ionization_Penalty_Neutral>
7.94565e-07

> <r_epik_State_Penalty>
0.00118605

> <r_epik_Charging_Adjusted_Penalty>
0.00293796

> <i_epik_Tot_Q>
1

> <i_epik_Tot_abs_Q>
1

> <r_epik_Metal_State_Penalty>
-0

> <b_epik_Metal_Only>
0

> <s_lp_Force_Field>
OPLS_2005

> <r_lp_Energy>
18.4066

> <b_lp_Chiralities_Consistent>
1

> <s_lp_Variant>
AV-unprocessed.smi:3274-6

> <Gold.Version>
5.8.1

> <Gold.Id.Protein>
6NUR|6NUR_protein|mol2

> <Gold.PLP.Fitness>
49.5691

> <Gold.PLP.PLP>
-44.0485

> <Gold.PLP.part.hbond>
-2.0000

> <Gold.PLP.part.metal>
0.0000

> <Gold.PLP.part.buried>
-2.5683

> <Gold.PLP.part.nonpolar>
-39.3785

> <Gold.PLP.part.repulsive>
0.0800

> <Gold.PLP.ligand.clash>
0.0000

> <Gold.PLP.ligand.torsion>
0.2672

> <Gold.PLP.Chemscore.Hbond>
2.0000

> <Gold.PLP.Chemscore.CHOScore>
0.0000

> <Gold.PLP.Chemscore.Metal>
0.0000

> <Gold.Chemscore.Hbonds>
donor molecule, donor type, donor heavy atom, donor atom, acceptor molecule, acceptor atom, score
      P1  H  7997  8010       L1    18  0.50
      P1  H 10752 10764       L1    16  0.01

> <Gold.PLP.Chemscore.Internal.Correction>
0.0550

> <Gold.Rescore>
     Score         DG    S(hbond)    S(metal)    S(lipo)     H(rot)  DE(clash)    DE(int)     intcor
     17.27     -19.06       1.76        0.00     117.65       2.36       0.06       1.73       ----

> <Gold.Chemscore.Fitness>
17.2745

> <Gold.Chemscore.DG>
-19.0631

> <Gold.Chemscore.ZeroCoef>
-5.4800

> <Gold.Chemscore.Hbond>
1.7555

> <Gold.Chemscore.Metal>
0.0000

> <Gold.Chemscore.Lipo>
117.6502

> <Gold.Chemscore.Internal_Hbond>
0.0000

> <Gold.Chemscore.DEClash>
0.0619

> <Gold.Chemscore.DEInternal>
1.7268

> <Gold.Chemscore.Rot>
2.3615

> <Gold.Chemscore.Internal.Correction>
   9.000000E+99

> <Gold.Chemscore.Hbonds>
donor molecule, donor type, donor heavy atom, donor atom, acceptor molecule, acceptor atom, score
      P1  H  7997  8010       L1    18  0.29

> <Gold.Chemscore.Hbond.Weighted>
-5.8635

> <Gold.Chemscore.Metal.Weighted>
-0.0000

> <Gold.Chemscore.Lipo.Weighted>
-13.7651

> <Gold.Chemscore.Internal_Hbond.Weighted>
0.0000

> <Gold.Chemscore.DEClash.Weighted>
0.0619

> <Gold.Chemscore.DEInternal.Weighted>
1.7268

> <Gold.Chemscore.Rot.Weighted>
6.0454

> <Gold.Chemscore.Internal.Correction.Weighted>
   9.000000E+99

> <Gold.Protein.RotatedTorsions>
[ 6907 6896 6895 6894 ] final  -79.04 input  -60.11 | X-H torsion
[ 7974 7965 7964 7962 ] final  -71.69 input  175.53 | X-H torsion
[ 8008 7997 7996 7995 ] final   57.02 input   59.86 | X-H torsion
[ 10167 10162 10161 10158 ] final  -61.92 input  -65.29 | X-H torsion
[ 10718 10713 10712 10709 ] final  129.89 input   66.30 | X-H torsion
[ 10763 10752 10751 10750 ] final  -10.51 input  -60.55 | X-H torsion
[ 11005 11000 10999 10996 ] final  -80.07 input  -57.11 | X-H torsion

> <Gold.Protein.ActiveResidues>
 VAL166  LYS551  ARG553  GLY616  TRP617  ASP618  TYR619  PRO620  LYS621  CYS622 
 ASP623  PHE694  ASN695  SER759  ASP760  ASP761  ALA762  ILE779  LEU786  VAL792 
 PHE793  MET794  SER795  GLU796  ALA797  LYS798  CYS799  TRP800  GLU811  SER814 

> <Gold.Protein.RotatedAtoms>
  150.6958  134.4181  159.5191 H   0  0  0  0  0  0  0  0  0  0  0  0  # atno 6907 bound_to 6896
  152.1928  134.8654  160.0525 H   0  0  0  0  0  0  0  0  0  0  0  0  # atno 6908 bound_to 6896
  151.9603  133.3658  159.4070 H   0  0  0  0  0  0  0  0  0  0  0  0  # atno 6909 bound_to 6896
  145.6749  140.9208  143.0863 H   0  0  0  0  0  0  0  0  0  0  0  0  # atno 7974 bound_to 7965
  155.5270  140.3481  155.4418 H   0  0  0  0  0  0  0  0  0  0  0  0  # atno 8008 bound_to 7997
  156.0745  140.1371  156.9815 H   0  0  0  0  0  0  0  0  0  0  0  0  # atno 8009 bound_to 7997
  154.4545  140.0959  156.6694 H   0  0  0  0  0  0  0  0  0  0  0  0  # atno 8010 bound_to 7997
  140.5974  143.2353  151.6006 H   0  0  0  0  0  0  0  0  0  0  0  0  # atno 10167 bound_to 10162
  157.5112  131.1097  150.9289 H   0  0  0  0  0  0  0  0  0  0  0  0  # atno 10718 bound_to 10713
  153.4702  135.7016  153.5998 H   0  0  0  0  0  0  0  0  0  0  0  0  # atno 10763 bound_to 10752
  153.4255  135.3815  155.2138 H   0  0  0  0  0  0  0  0  0  0  0  0  # atno 10764 bound_to 10752
  154.8725  135.3938  154.4139 H   0  0  0  0  0  0  0  0  0  0  0  0  # atno 10765 bound_to 10752
  141.1668  133.7134  156.8218 H   0  0  0  0  0  0  0  0  0  0  0  0  # atno 11005 bound_to 11000
  144.7045  139.8620  143.7434 LP  0  0  0  0  0  0  0  0  0  0  0  0  # atno 17320 bound_to 7965
  146.1014  139.4010  143.0344 LP  0  0  0  0  0  0  0  0  0  0  0  0  # atno 17321 bound_to 7965
  139.5267  144.3038  152.1051 LP  0  0  0  0  0  0  0  0  0  0  0  0  # atno 17342 bound_to 10162
  140.2212  144.4464  150.6341 LP  0  0  0  0  0  0  0  0  0  0  0  0  # atno 17343 bound_to 10162
  156.9929  130.5570  149.5305 LP  0  0  0  0  0  0  0  0  0  0  0  0  # atno 17370 bound_to 10713
  156.0290  130.5383  150.8485 LP  0  0  0  0  0  0  0  0  0  0  0  0  # atno 17371 bound_to 10713
  140.2113  134.8825  157.3278 LP  0  0  0  0  0  0  0  0  0  0  0  0  # atno 17394 bound_to 11000
  140.2083  134.4170  155.7626 LP  0  0  0  0  0  0  0  0  0  0  0  0  # atno 17395 bound_to 11000

$$$$
