AV-unprocessed.smi:1486|AV-procd|sdf|6005|dock2
  -GOLD-   22720 6103D 1   1.00000     0.00000
 Structure written by MMmdl.
 39 40  0  0  0  0  0  0  0  0  1 V2000
  153.7488  133.7809  165.4637 C   0  0  0  0  0  0  0  0  0  0  0  0
  154.1667  134.4090  164.2652 O   0  0  0  0  0  0  0  0  0  0  0  0
  154.9180  135.5895  164.4997 C   0  0  0  0  0  0  0  0  0  0  0  0
  153.9646  136.7859  164.6636 C   0  0  2  0  0  0  0  0  0  0  0  0
  153.1404  137.0291  163.3922 C   0  0  0  0  0  0  0  0  0  0  0  0
  154.7326  137.9884  164.9727 N   0  0  0  0  0  0  0  0  0  0  0  0
  155.3548  138.7742  164.0789 C   0  0  0  0  0  0  0  0  0  0  0  0
  155.4297  138.5165  162.8776 O   0  0  0  0  0  0  0  0  0  0  0  0
  155.9691  140.0643  164.6234 C   0  0  0  0  0  0  0  0  0  0  0  0
  155.1442  141.2415  164.1890 C   0  0  0  0  0  0  0  0  0  0  0  0
  154.9589  142.4162  164.8767 C   0  0  0  0  0  0  0  0  0  0  0  0
  153.9546  143.5361  163.9983 S   0  0  0  0  0  0  0  0  0  0  0  0
  153.8129  142.3423  162.7042 C   0  0  0  0  0  0  0  0  0  0  0  0
  153.0825  142.4937  161.4877 N   0  0  0  0  0  0  0  0  0  0  0  0
  152.2911  143.6890  161.2110 C   0  0  0  0  0  0  0  0  0  0  0  0
  151.8463  143.5715  159.7492 C   0  0  0  0  0  0  0  0  0  0  0  0
  152.1041  142.1164  159.3636 C   0  0  0  0  0  0  0  0  0  0  0  0
  152.9873  141.5998  160.4875 C   0  0  0  0  0  0  0  0  0  0  0  0
  153.5159  140.4905  160.4303 O   0  0  0  0  0  0  0  0  0  0  0  0
  154.4794  141.2111  162.9582 N   0  0  0  0  0  0  0  0  0  0  0  0
  153.1873  132.8773  165.2267 H   0  0  0  0  0  0  0  0  0  0  0  0
  153.0997  134.4365  166.0454 H   0  0  0  0  0  0  0  0  0  0  0  0
  154.6030  133.4960  166.0789 H   0  0  0  0  0  0  0  0  0  0  0  0
  155.5367  135.4756  165.3918 H   0  0  0  0  0  0  0  0  0  0  0  0
  155.5899  135.7597  163.6570 H   0  0  0  0  0  0  0  0  0  0  0  0
  153.2647  136.5680  165.4724 H   0  0  0  0  0  0  0  0  0  0  0  0
  152.5390  136.1548  163.1422 H   0  0  0  0  0  0  0  0  0  0  0  0
  153.7819  137.2468  162.5375 H   0  0  0  0  0  0  0  0  0  0  0  0
  152.4587  137.8705  163.5206 H   0  0  0  0  0  0  0  0  0  0  0  0
  154.7313  138.2889  165.9367 H   0  0  0  0  0  0  0  0  0  0  0  0
  156.0283  140.0043  165.7110 H   0  0  0  0  0  0  0  0  0  0  0  0
  156.9938  140.1599  164.2621 H   0  0  0  0  0  0  0  0  0  0  0  0
  155.3617  142.6929  165.8398 H   0  0  0  0  0  0  0  0  0  0  0  0
  151.4276  143.7092  161.8776 H   0  0  0  0  0  0  0  0  0  0  0  0
  152.8686  144.5997  161.3753 H   0  0  0  0  0  0  0  0  0  0  0  0
  150.8002  143.8514  159.6203 H   0  0  0  0  0  0  0  0  0  0  0  0
  152.4440  144.2332  159.1205 H   0  0  0  0  0  0  0  0  0  0  0  0
  151.1777  141.5417  159.3386 H   0  0  0  0  0  0  0  0  0  0  0  0
  152.5978  142.0281  158.3953 H   0  0  0  0  0  0  0  0  0  0  0  0
  1  2  1  0  0  0  0
  1 21  1  0  0  0  0
  1 22  1  0  0  0  0
  1 23  1  0  0  0  0
  2  3  1  0  0  0  0
  3  4  1  0  0  0  0
  3 24  1  0  0  0  0
  3 25  1  0  0  0  0
  4  5  1  0  0  0  0
  4  6  1  0  0  0  0
  4 26  1  0  0  0  0
  5 27  1  0  0  0  0
  5 28  1  0  0  0  0
  5 29  1  0  0  0  0
  6  7  1  0  0  0  0
  6 30  1  0  0  0  0
  7  8  2  0  0  0  0
  7  9  1  0  0  0  0
  9 10  1  0  0  0  0
  9 31  1  0  0  0  0
  9 32  1  0  0  0  0
 10 20  1  0  0  0  0
 10 11  2  0  0  0  0
 11 12  1  0  0  0  0
 11 33  1  0  0  0  0
 12 13  1  0  0  0  0
 13 14  1  0  0  0  0
 13 20  2  0  0  0  0
 14 18  1  0  0  0  0
 14 15  1  0  0  0  0
 15 16  1  0  0  0  0
 15 34  1  0  0  0  0
 15 35  1  0  0  0  0
 16 17  1  0  0  0  0
 16 36  1  0  0  0  0
 16 37  1  0  0  0  0
 17 18  1  0  0  0  0
 17 38  1  0  0  0  0
 17 39  1  0  0  0  0
 18 19  2  0  0  0  0
M  END
> <s_m_source_file>
AV-unprocessed.smi

> <i_m_source_file_index>
1486

> <i_lp_mmshare_version>
43012

> <i_f3d_flags>
0

> <s_epik_input>
W0NIM11PW0NIMl1bQ0BIXShbQ0gzXSlbTkhdQyg9TylbQ0gyXWMxW2NIXXNjKG4xKU4yW0NIMl1bQ0gyXVtDSDJdQzI9Tw==

> <s_epik_cmdline>
J2VwaWtfcHl0aG9uJywgJy1waCcsICc3LjAnLCAnLXRuJywgJzgnLCAnLW1hJywgJzIwMCcsICctbWV0YWxfYmluZGluZycsICctaW1hZScsICc8aW5maWxlLm1hZT4nLCAnLW9tYWUnLCAnPG91dGZpbGUubWFlPic=

> <r_lp_tautomer_probability>
1

> <r_epik_Ionization_Penalty>
3.00988e-05

> <r_epik_Ionization_Penalty_Charging>
0

> <r_epik_Ionization_Penalty_Neutral>
3.00988e-05

> <r_epik_State_Penalty>
-0

> <r_epik_Charging_Adjusted_Penalty>
0

> <i_epik_Tot_Q>
0

> <i_epik_Tot_abs_Q>
0

> <r_epik_Metal_State_Penalty>
-0

> <b_epik_Metal_Only>
0

> <s_lp_Force_Field>
OPLS_2005

> <r_lp_Energy>
17.4933

> <b_lp_Chiralities_Consistent>
1

> <s_lp_Variant>
AV-unprocessed.smi:1486-1

> <Gold.Version>
5.8.1

> <Gold.Id.Protein>
6NUR|6NUR_protein|mol2

> <Gold.PLP.Fitness>
43.0586

> <Gold.PLP.PLP>
-44.9616

> <Gold.PLP.part.hbond>
-1.0000

> <Gold.PLP.part.metal>
0.0000

> <Gold.PLP.part.buried>
-3.7777

> <Gold.PLP.part.nonpolar>
-39.7430

> <Gold.PLP.part.repulsive>
0.1358

> <Gold.PLP.ligand.clash>
0.0000

> <Gold.PLP.ligand.torsion>
0.9654

> <Gold.PLP.Chemscore.Hbond>
0.0000

> <Gold.PLP.Chemscore.CHOScore>
0.0000

> <Gold.PLP.Chemscore.Metal>
0.0000

> <Gold.PLP.Chemscore.Internal.Correction>
0.0278

> <Gold.Rescore>
     Score         DG    S(hbond)    S(metal)    S(lipo)     H(rot)  DE(clash)    DE(int)     intcor
      7.05     -12.47       0.00        0.00     102.16       1.94       0.36       5.07       ----

> <Gold.Chemscore.Fitness>
7.0451

> <Gold.Chemscore.DG>
-12.4734

> <Gold.Chemscore.ZeroCoef>
-5.4800

> <Gold.Chemscore.Hbond>
0.0000

> <Gold.Chemscore.Metal>
0.0000

> <Gold.Chemscore.Lipo>
102.1613

> <Gold.Chemscore.Internal_Hbond>
0.0000

> <Gold.Chemscore.DEClash>
0.3558

> <Gold.Chemscore.DEInternal>
5.0725

> <Gold.Chemscore.Rot>
1.9373

> <Gold.Chemscore.Internal.Correction>
   9.000000E+99

> <Gold.Chemscore.Hbond.Weighted>
-0.0000

> <Gold.Chemscore.Metal.Weighted>
-0.0000

> <Gold.Chemscore.Lipo.Weighted>
-11.9529

> <Gold.Chemscore.Internal_Hbond.Weighted>
0.0000

> <Gold.Chemscore.DEClash.Weighted>
0.3558

> <Gold.Chemscore.DEInternal.Weighted>
5.0725

> <Gold.Chemscore.Rot.Weighted>
4.9594

> <Gold.Chemscore.Internal.Correction.Weighted>
   9.000000E+99

> <Gold.Protein.RotatedTorsions>
[ 6907 6896 6895 6894 ] final  170.74 input  -60.11 | X-H torsion
[ 7974 7965 7964 7962 ] final   95.38 input  175.53 | X-H torsion
[ 8008 7997 7996 7995 ] final  135.10 input   59.86 | X-H torsion
[ 10167 10162 10161 10158 ] final   52.21 input  -65.29 | X-H torsion
[ 10718 10713 10712 10709 ] final  -94.55 input   66.30 | X-H torsion
[ 10763 10752 10751 10750 ] final  -99.72 input  -60.55 | X-H torsion
[ 11005 11000 10999 10996 ] final  -18.18 input  -57.11 | X-H torsion

> <Gold.Protein.ActiveResidues>
 VAL166  LYS551  ARG553  GLY616  TRP617  ASP618  TYR619  PRO620  LYS621  CYS622 
 ASP623  PHE694  ASN695  SER759  ASP760  ASP761  ALA762  ILE779  LEU786  VAL792 
 PHE793  MET794  SER795  GLU796  ALA797  LYS798  CYS799  TRP800  GLU811  SER814 

> <Gold.Protein.RotatedAtoms>
  151.8113  133.3382  159.3555 H   0  0  0  0  0  0  0  0  0  0  0  0  # atno 6907 bound_to 6896
  150.7325  134.5661  159.5876 H   0  0  0  0  0  0  0  0  0  0  0  0  # atno 6908 bound_to 6896
  152.3073  134.7541  160.0396 H   0  0  0  0  0  0  0  0  0  0  0  0  # atno 6909 bound_to 6896
  145.4529  139.2292  143.3030 H   0  0  0  0  0  0  0  0  0  0  0  0  # atno 7974 bound_to 7965
  156.3002  140.2479  156.3527 H   0  0  0  0  0  0  0  0  0  0  0  0  # atno 8008 bound_to 7997
  154.8951  140.0408  157.1880 H   0  0  0  0  0  0  0  0  0  0  0  0  # atno 8009 bound_to 7997
  154.8558  140.2913  155.5574 H   0  0  0  0  0  0  0  0  0  0  0  0  # atno 8010 bound_to 7997
  140.2538  144.3449  150.6339 H   0  0  0  0  0  0  0  0  0  0  0  0  # atno 10167 bound_to 10162
  156.0029  130.5072  150.5944 H   0  0  0  0  0  0  0  0  0  0  0  0  # atno 10718 bound_to 10713
  154.7521  135.4962  153.9307 H   0  0  0  0  0  0  0  0  0  0  0  0  # atno 10763 bound_to 10752
  153.1155  135.6719  153.9434 H   0  0  0  0  0  0  0  0  0  0  0  0  # atno 10764 bound_to 10752
  153.9181  135.3091  155.3427 H   0  0  0  0  0  0  0  0  0  0  0  0  # atno 10765 bound_to 10752
  140.8242  133.8045  155.9691 H   0  0  0  0  0  0  0  0  0  0  0  0  # atno 11005 bound_to 11000
  146.2494  140.5290  142.8900 LP  0  0  0  0  0  0  0  0  0  0  0  0  # atno 17320 bound_to 7965
  144.8050  140.6283  143.6453 LP  0  0  0  0  0  0  0  0  0  0  0  0  # atno 17321 bound_to 7965
  140.6020  143.2167  151.7054 LP  0  0  0  0  0  0  0  0  0  0  0  0  # atno 17342 bound_to 10162
  139.5038  144.3778  152.0406 LP  0  0  0  0  0  0  0  0  0  0  0  0  # atno 17343 bound_to 10162
  157.3803  131.0780  151.1482 LP  0  0  0  0  0  0  0  0  0  0  0  0  # atno 17370 bound_to 10713
  157.2207  130.6480  149.5810 LP  0  0  0  0  0  0  0  0  0  0  0  0  # atno 17371 bound_to 10713
  140.9067  134.2311  157.5010 LP  0  0  0  0  0  0  0  0  0  0  0  0  # atno 17394 bound_to 11000
  139.8707  134.9731  156.4798 LP  0  0  0  0  0  0  0  0  0  0  0  0  # atno 17395 bound_to 11000

$$$$
