AV-unprocessed.smi:2458|AV-procd|sdf|9709|dock8
  -GOLD-   2272013353D 1   1.00000     0.00000
 Structure written by MMmdl.
 47 48  0  0  0  0  0  0  0  0  1 V2000
  152.2405  143.5272  161.5265 C   0  0  0  0  0  0  0  0  0  0  0  0
  152.3314  144.1205  160.1071 C   0  0  0  0  0  0  0  0  0  0  0  0
  151.9359  145.6088  160.1669 C   0  0  0  0  0  0  0  0  0  0  0  0
  151.4982  143.3185  159.0642 C   0  0  1  0  0  0  0  0  0  0  0  0
  151.6446  143.8873  157.6310 C   0  0  0  0  0  0  0  0  0  0  0  0
  150.8378  143.0886  156.5945 C   0  0  0  0  0  0  0  0  0  0  0  0
  151.2378  141.6022  156.5970 C   0  0  2  0  0  0  0  0  0  0  0  0
  150.4260  140.8005  155.5715 C   0  0  0  0  0  0  0  0  0  0  0  0
  150.9966  140.1386  154.7039 O   0  0  0  0  0  0  0  0  0  0  0  0
  149.0909  140.8859  155.6699 N   0  0  0  0  0  0  0  0  0  0  0  0
  148.1403  140.2694  154.7494 C   0  0  0  0  0  0  0  0  0  0  0  0
  147.5573  141.2704  153.7260 C   0  0  1  0  0  0  0  0  0  0  0  0
  147.0717  140.5428  152.6168 O   0  0  0  0  0  0  0  0  0  0  0  0
  146.4934  142.1816  154.3238 C   0  0  0  0  0  0  0  0  0  0  0  0
  145.9544  143.2483  153.5738 C   0  0  0  0  0  0  0  0  0  0  0  0
  144.9916  144.0834  154.1717 C   0  0  0  0  0  0  0  0  0  0  0  0
  144.6046  143.8160  155.4997 C   0  0  0  0  0  0  0  0  0  0  0  0
  145.1122  142.7993  156.2289 N   0  0  0  0  0  0  0  0  0  0  0  0
  146.0360  142.0037  155.6480 C   0  0  0  0  0  0  0  0  0  0  0  0
  151.0547  141.0208  158.0102 C   0  0  0  0  0  0  0  0  0  0  0  0
  151.8606  141.8127  159.0517 C   0  0  0  0  0  0  0  0  0  0  0  0
  150.4468  143.4012  159.3450 H   0  0  0  0  0  0  0  0  0  0  0  0
  152.2942  141.5325  156.3309 H   0  0  0  0  0  0  0  0  0  0  0  0
  151.2044  143.4423  161.8555 H   0  0  0  0  0  0  0  0  0  0  0  0
  152.7654  144.1532  162.2487 H   0  0  0  0  0  0  0  0  0  0  0  0
  152.6977  142.5405  161.5877 H   0  0  0  0  0  0  0  0  0  0  0  0
  153.3795  144.0773  159.8079 H   0  0  0  0  0  0  0  0  0  0  0  0
  150.8698  145.7286  160.3614 H   0  0  0  0  0  0  0  0  0  0  0  0
  152.1724  146.1329  159.2416 H   0  0  0  0  0  0  0  0  0  0  0  0
  152.4756  146.1280  160.9594 H   0  0  0  0  0  0  0  0  0  0  0  0
  151.3039  144.9210  157.5894 H   0  0  0  0  0  0  0  0  0  0  0  0
  152.6971  143.8961  157.3441 H   0  0  0  0  0  0  0  0  0  0  0  0
  149.7737  143.1953  156.8115 H   0  0  0  0  0  0  0  0  0  0  0  0
  150.9946  143.5172  155.6036 H   0  0  0  0  0  0  0  0  0  0  0  0
  148.7048  141.4516  156.4119 H   0  0  0  0  0  0  0  0  0  0  0  0
  148.5992  139.4192  154.2419 H   0  0  0  0  0  0  0  0  0  0  0  0
  147.3350  139.8628  155.3624 H   0  0  0  0  0  0  0  0  0  0  0  0
  148.3684  141.8980  153.3542 H   0  0  0  0  0  0  0  0  0  0  0  0
  147.8014  140.3298  152.0554 H   0  0  0  0  0  0  0  0  0  0  0  0
  146.2790  143.4324  152.5599 H   0  0  0  0  0  0  0  0  0  0  0  0
  144.5619  144.9107  153.6265 H   0  0  0  0  0  0  0  0  0  0  0  0
  143.8691  144.4367  155.9896 H   0  0  0  0  0  0  0  0  0  0  0  0
  146.4270  141.2058  156.2621 H   0  0  0  0  0  0  0  0  0  0  0  0
  149.9995  141.0303  158.2887 H   0  0  0  0  0  0  0  0  0  0  0  0
  151.3682  139.9762  158.0289 H   0  0  0  0  0  0  0  0  0  0  0  0
  152.9268  141.6923  158.8550 H   0  0  0  0  0  0  0  0  0  0  0  0
  151.6729  141.3620  160.0253 H   0  0  0  0  0  0  0  0  0  0  0  0
  1  2  1  0  0  0  0
  1 24  1  0  0  0  0
  1 25  1  0  0  0  0
  1 26  1  0  0  0  0
  2  3  1  0  0  0  0
  2  4  1  0  0  0  0
  2 27  1  0  0  0  0
  3 28  1  0  0  0  0
  3 29  1  0  0  0  0
  3 30  1  0  0  0  0
  4 22  1  0  0  0  0
  4 21  1  0  0  0  0
  4  5  1  0  0  0  0
  5  6  1  0  0  0  0
  5 31  1  0  0  0  0
  5 32  1  0  0  0  0
  6  7  1  0  0  0  0
  6 33  1  0  0  0  0
  6 34  1  0  0  0  0
  7 23  1  0  0  0  0
  7  8  1  0  0  0  0
  7 20  1  0  0  0  0
  8  9  2  0  0  0  0
  8 10  1  0  0  0  0
 10 11  1  0  0  0  0
 10 35  1  0  0  0  0
 11 12  1  0  0  0  0
 11 36  1  0  0  0  0
 11 37  1  0  0  0  0
 12 13  1  0  0  0  0
 12 14  1  0  0  0  0
 12 38  1  0  0  0  0
 13 39  1  0  0  0  0
 14 19  1  0  0  0  0
 14 15  2  0  0  0  0
 15 16  1  0  0  0  0
 15 40  1  0  0  0  0
 16 17  2  0  0  0  0
 16 41  1  0  0  0  0
 17 18  1  0  0  0  0
 17 42  1  0  0  0  0
 18 19  2  0  0  0  0
 19 43  1  0  0  0  0
 20 21  1  0  0  0  0
 20 44  1  0  0  0  0
 20 45  1  0  0  0  0
 21 46  1  0  0  0  0
 21 47  1  0  0  0  0
M  END
> <s_m_source_file>
AV-unprocessed.smi

> <i_m_source_file_index>
2458

> <i_lp_mmshare_version>
43012

> <i_f3d_flags>
0

> <s_epik_input>
W0NIM11bQ0hdKFtDSDNdKVtDQEhdMVtDSDJdW0NIMl1bQ0BASF0oW0NIMl1bQ0gyXTEpQyg9TylbTkhdW0NIMl1bQ0BIXShbT0hdKWMyW2NIXVtjSF1bY0hdbltjSF0y

> <s_epik_cmdline>
J2VwaWtfcHl0aG9uJywgJy1waCcsICc3LjAnLCAnLXRuJywgJzgnLCAnLW1hJywgJzIwMCcsICctbWV0YWxfYmluZGluZycsICctaW1hZScsICc8aW5maWxlLm1hZT4nLCAnLW9tYWUnLCAnPG91dGZpbGUubWFlPic=

> <r_epik_Ionization_Penalty>
0.00169206

> <r_epik_Ionization_Penalty_Charging>
0

> <r_epik_Ionization_Penalty_Neutral>
0.00169206

> <r_epik_State_Penalty>
0.0011427

> <r_epik_Charging_Adjusted_Penalty>
0.0011427

> <i_epik_Tot_Q>
0

> <i_epik_Tot_abs_Q>
0

> <r_epik_Metal_State_Penalty>
-0

> <b_epik_Metal_Only>
0

> <s_lp_Force_Field>
OPLS_2005

> <r_lp_Energy>
14.1606

> <b_lp_Chiralities_Consistent>
1

> <s_lp_Variant>
AV-unprocessed.smi:2458-2

> <Gold.Version>
5.8.1

> <Gold.Id.Protein>
6NUR|6NUR_protein|mol2

> <Gold.PLP.Fitness>
53.2557

> <Gold.PLP.PLP>
-48.0693

> <Gold.PLP.part.hbond>
-2.0000

> <Gold.PLP.part.metal>
0.0000

> <Gold.PLP.part.buried>
-4.6134

> <Gold.PLP.part.nonpolar>
-40.9985

> <Gold.PLP.part.repulsive>
0.2559

> <Gold.PLP.ligand.clash>
0.0000

> <Gold.PLP.ligand.torsion>
0.4371

> <Gold.PLP.Chemscore.Hbond>
2.0000

> <Gold.PLP.Chemscore.CHOScore>
0.0000

> <Gold.PLP.Chemscore.Metal>
0.0000

> <Gold.Chemscore.Hbonds>
donor molecule, donor type, donor heavy atom, donor atom, acceptor molecule, acceptor atom, score
      L1  H    13    39       P1  7957  1.00
      P1  H  7989  7998       L1     9  1.00

> <Gold.PLP.Chemscore.Internal.Correction>
0.0605

> <Gold.Rescore>
     Score         DG    S(hbond)    S(metal)    S(lipo)     H(rot)  DE(clash)    DE(int)     intcor
     20.49     -21.34       1.93        0.00     125.46       2.06       0.34       0.51       ----

> <Gold.Chemscore.Fitness>
20.4887

> <Gold.Chemscore.DG>
-21.3408

> <Gold.Chemscore.ZeroCoef>
-5.4800

> <Gold.Chemscore.Hbond>
1.9317

> <Gold.Chemscore.Metal>
0.0000

> <Gold.Chemscore.Lipo>
125.4647

> <Gold.Chemscore.Internal_Hbond>
0.0000

> <Gold.Chemscore.DEClash>
0.3412

> <Gold.Chemscore.DEInternal>
0.5109

> <Gold.Chemscore.Rot>
2.0588

> <Gold.Chemscore.Internal.Correction>
   9.000000E+99

> <Gold.Chemscore.Hbonds>
donor molecule, donor type, donor heavy atom, donor atom, acceptor molecule, acceptor atom, score
      L1  H    13    39       P1  7957  0.95
      P1  H  7989  7998       L1     9  0.91

> <Gold.Chemscore.Hbond.Weighted>
-6.4519

> <Gold.Chemscore.Metal.Weighted>
-0.0000

> <Gold.Chemscore.Lipo.Weighted>
-14.6794

> <Gold.Chemscore.Internal_Hbond.Weighted>
0.0000

> <Gold.Chemscore.DEClash.Weighted>
0.3412

> <Gold.Chemscore.DEInternal.Weighted>
0.5109

> <Gold.Chemscore.Rot.Weighted>
5.2705

> <Gold.Chemscore.Internal.Correction.Weighted>
   9.000000E+99

> <Gold.Protein.RotatedTorsions>
[ 6907 6896 6895 6894 ] final  175.10 input  -60.11 | X-H torsion
[ 7974 7965 7964 7962 ] final  117.88 input  175.53 | X-H torsion
[ 8008 7997 7996 7995 ] final   63.54 input   59.86 | X-H torsion
[ 10167 10162 10161 10158 ] final -115.11 input  -65.29 | X-H torsion
[ 10718 10713 10712 10709 ] final   -2.37 input   66.30 | X-H torsion
[ 10763 10752 10751 10750 ] final   66.35 input  -60.55 | X-H torsion
[ 11005 11000 10999 10996 ] final   52.71 input  -57.11 | X-H torsion

> <Gold.Protein.ActiveResidues>
 VAL166  LYS551  ARG553  GLY616  TRP617  ASP618  TYR619  PRO620  LYS621  CYS622 
 ASP623  PHE694  ASN695  SER759  ASP760  ASP761  ALA762  ILE779  LEU786  VAL792 
 PHE793  MET794  SER795  GLU796  ALA797  LYS798  CYS799  TRP800  GLU811  SER814 

> <Gold.Protein.RotatedAtoms>
  151.7416  133.3322  159.3366 H   0  0  0  0  0  0  0  0  0  0  0  0  # atno 6907 bound_to 6896
  150.7571  134.6273  159.6177 H   0  0  0  0  0  0  0  0  0  0  0  0  # atno 6908 bound_to 6896
  152.3527  134.6985  160.0283 H   0  0  0  0  0  0  0  0  0  0  0  0  # atno 6909 bound_to 6896
  145.1619  139.3150  143.4512 H   0  0  0  0  0  0  0  0  0  0  0  0  # atno 7974 bound_to 7965
  155.6318  140.3496  155.4685 H   0  0  0  0  0  0  0  0  0  0  0  0  # atno 8008 bound_to 7997
  155.9997  140.1210  157.0583 H   0  0  0  0  0  0  0  0  0  0  0  0  # atno 8009 bound_to 7997
  154.4245  140.1103  156.5666 H   0  0  0  0  0  0  0  0  0  0  0  0  # atno 8010 bound_to 7997
  140.0937  143.4676  152.1854 H   0  0  0  0  0  0  0  0  0  0  0  0  # atno 10167 bound_to 10162
  156.7918  130.5364  149.5734 H   0  0  0  0  0  0  0  0  0  0  0  0  # atno 10718 bound_to 10713
  153.0136  135.5324  154.6809 H   0  0  0  0  0  0  0  0  0  0  0  0  # atno 10763 bound_to 10752
  154.5969  135.2864  155.0578 H   0  0  0  0  0  0  0  0  0  0  0  0  # atno 10764 bound_to 10752
  154.1650  135.6541  153.5047 H   0  0  0  0  0  0  0  0  0  0  0  0  # atno 10765 bound_to 10752
  140.0826  134.5317  155.8931 H   0  0  0  0  0  0  0  0  0  0  0  0  # atno 11005 bound_to 11000
  146.3481  140.1733  142.8589 LP  0  0  0  0  0  0  0  0  0  0  0  0  # atno 17320 bound_to 7965
  145.0322  140.8879  143.5103 LP  0  0  0  0  0  0  0  0  0  0  0  0  # atno 17321 bound_to 7965
  139.5710  144.7462  151.3890 LP  0  0  0  0  0  0  0  0  0  0  0  0  # atno 17342 bound_to 10162
  140.7015  143.7620  150.7411 LP  0  0  0  0  0  0  0  0  0  0  0  0  # atno 17343 bound_to 10162
  156.1155  130.6071  151.0113 LP  0  0  0  0  0  0  0  0  0  0  0  0  # atno 17370 bound_to 10713
  157.6597  131.0883  150.7867 LP  0  0  0  0  0  0  0  0  0  0  0  0  # atno 17371 bound_to 10713
  141.2052  133.6645  156.6166 LP  0  0  0  0  0  0  0  0  0  0  0  0  # atno 17394 bound_to 11000
  140.3465  134.7804  157.4436 LP  0  0  0  0  0  0  0  0  0  0  0  0  # atno 17395 bound_to 11000

$$$$
