AV-unprocessed.smi:2329|AV-procd|sdf|9302|dock7
  -GOLD-   2272012523D 1   1.00000     0.00000
 Structure written by MMmdl.
 45 48  0  0  0  0  0  0  0  0  1 V2000
  152.7136  143.3489  162.2870 C   0  0  0  0  0  0  0  0  0  0  0  0
  152.2269  143.3346  160.8534 C   0  0  0  0  0  0  0  0  0  0  0  0
  153.0728  142.9254  159.8037 C   0  0  0  0  0  0  0  0  0  0  0  0
  152.5581  142.9363  158.4948 C   0  0  0  0  0  0  0  0  0  0  0  0
  151.2287  143.3530  158.2910 C   0  0  0  0  0  0  0  0  0  0  0  0
  150.4472  143.7488  159.3996 C   0  0  0  0  0  0  0  0  0  0  0  0
  149.1209  144.1443  159.0874 N   0  0  0  0  0  0  0  0  0  0  0  0
  148.1201  144.4612  159.9319 C   0  0  0  0  0  0  0  0  0  0  0  0
  148.2335  144.5526  161.1528 O   0  0  0  0  0  0  0  0  0  0  0  0
  146.9426  144.6842  159.3228 N   0  0  0  0  0  0  0  0  0  0  0  0
  145.6673  145.0454  159.9438 C   0  0  2  0  0  0  0  0  0  0  0  0
  145.2819  144.0743  161.0602 C   0  0  1  0  0  0  0  0  0  0  0  0
  145.1707  144.1810  162.5393 C   0  0  0  0  0  0  0  0  0  0  0  0
  143.7887  143.4939  162.7009 C   0  0  0  0  0  0  0  0  0  0  0  0
  143.2528  143.3605  161.3622 O   0  0  0  0  0  0  0  0  0  0  0  0
  143.8656  144.4124  160.6446 C   0  0  2  0  0  0  0  0  0  0  0  0
  144.3920  144.4878  159.1977 C   0  0  0  0  0  0  0  0  0  0  0  0
  143.6542  145.4477  158.2563 C   0  0  0  0  0  0  0  0  0  0  0  0
  143.6512  144.8578  156.8403 C   0  0  0  0  0  0  0  0  0  0  0  0
  144.5040  143.5949  156.9067 C   0  0  0  0  0  0  0  0  0  0  0  0
  144.4801  143.1893  158.3774 C   0  0  0  0  0  0  0  0  0  0  0  0
  150.9522  143.7349  160.6581 N   0  0  0  0  0  0  0  0  0  0  0  0
  153.7148  142.9252  162.3696 H   0  0  0  0  0  0  0  0  0  0  0  0
  152.0451  142.7665  162.9216 H   0  0  0  0  0  0  0  0  0  0  0  0
  152.7432  144.3710  162.6652 H   0  0  0  0  0  0  0  0  0  0  0  0
  154.0886  142.6111  159.9931 H   0  0  0  0  0  0  0  0  0  0  0  0
  153.1720  142.6299  157.6609 H   0  0  0  0  0  0  0  0  0  0  0  0
  150.8170  143.3653  157.2923 H   0  0  0  0  0  0  0  0  0  0  0  0
  148.8860  144.1360  158.1059 H   0  0  0  0  0  0  0  0  0  0  0  0
  146.9345  144.6054  158.3160 H   0  0  0  0  0  0  0  0  0  0  0  0
  145.5957  146.0942  160.2464 H   0  0  0  0  0  0  0  0  0  0  0  0
  145.5638  143.0522  160.7901 H   0  0  0  0  0  0  0  0  0  0  0  0
  145.9665  143.6514  163.0636 H   0  0  0  0  0  0  0  0  0  0  0  0
  145.1527  145.2196  162.8725 H   0  0  0  0  0  0  0  0  0  0  0  0
  143.8743  142.5081  163.1589 H   0  0  0  0  0  0  0  0  0  0  0  0
  143.1241  144.0984  163.3193 H   0  0  0  0  0  0  0  0  0  0  0  0
  143.5148  145.3857  161.0071 H   0  0  0  0  0  0  0  0  0  0  0  0
  142.6265  145.6005  158.5882 H   0  0  0  0  0  0  0  0  0  0  0  0
  144.1194  146.4330  158.2547 H   0  0  0  0  0  0  0  0  0  0  0  0
  142.6312  144.6020  156.5521 H   0  0  0  0  0  0  0  0  0  0  0  0
  144.0337  145.5624  156.1013 H   0  0  0  0  0  0  0  0  0  0  0  0
  144.1396  142.8065  156.2477 H   0  0  0  0  0  0  0  0  0  0  0  0
  145.5260  143.8283  156.6066 H   0  0  0  0  0  0  0  0  0  0  0  0
  145.3481  142.5757  158.6176 H   0  0  0  0  0  0  0  0  0  0  0  0
  143.6000  142.5734  158.5672 H   0  0  0  0  0  0  0  0  0  0  0  0
  1  2  1  0  0  0  0
  1 23  1  0  0  0  0
  1 24  1  0  0  0  0
  1 25  1  0  0  0  0
  2 22  1  0  0  0  0
  2  3  2  0  0  0  0
  3  4  1  0  0  0  0
  3 26  1  0  0  0  0
  4  5  2  0  0  0  0
  4 27  1  0  0  0  0
  5  6  1  0  0  0  0
  5 28  1  0  0  0  0
  6  7  1  0  0  0  0
  6 22  2  0  0  0  0
  7  8  1  0  0  0  0
  7 29  1  0  0  0  0
  8  9  2  0  0  0  0
  8 10  1  0  0  0  0
 10 11  1  0  0  0  0
 10 30  1  0  0  0  0
 11 17  1  0  0  0  0
 11 12  1  0  0  0  0
 11 31  1  0  0  0  0
 12 16  1  0  0  0  0
 12 13  1  0  0  0  0
 12 32  1  0  0  0  0
 13 14  1  0  0  0  0
 13 33  1  0  0  0  0
 13 34  1  0  0  0  0
 14 15  1  0  0  0  0
 14 35  1  0  0  0  0
 14 36  1  0  0  0  0
 15 16  1  0  0  0  0
 16 17  1  0  0  0  0
 16 37  1  0  0  0  0
 17 21  1  0  0  0  0
 17 18  1  0  0  0  0
 18 19  1  0  0  0  0
 18 38  1  0  0  0  0
 18 39  1  0  0  0  0
 19 20  1  0  0  0  0
 19 40  1  0  0  0  0
 19 41  1  0  0  0  0
 20 21  1  0  0  0  0
 20 42  1  0  0  0  0
 20 43  1  0  0  0  0
 21 44  1  0  0  0  0
 21 45  1  0  0  0  0
M  END
> <s_m_source_file>
AV-unprocessed.smi

> <i_m_source_file_index>
2329

> <i_lp_mmshare_version>
43012

> <i_f3d_flags>
0

> <s_epik_input>
W0NIM11jMVtjSF1bY0hdW2NIXWMobjEpW05IXUMoPU8pW05IXVtDQEBIXTJbQ0BASF0oW0NIMl1bQ0gyXU8zKVtDQEhdM0MyNFtDSDJdW0NIMl1bQ0gyXVtDSDJdNA==

> <s_epik_cmdline>
J2VwaWtfcHl0aG9uJywgJy1waCcsICc3LjAnLCAnLXRuJywgJzgnLCAnLW1hJywgJzIwMCcsICctbWV0YWxfYmluZGluZycsICctaW1hZScsICc8aW5maWxlLm1hZT4nLCAnLW9tYWUnLCAnPG91dGZpbGUubWFlPic=

> <r_lp_tautomer_probability>
1

> <r_epik_Ionization_Penalty>
8.97002e-05

> <r_epik_Ionization_Penalty_Charging>
0

> <r_epik_Ionization_Penalty_Neutral>
8.97002e-05

> <r_epik_State_Penalty>
-0

> <r_epik_Charging_Adjusted_Penalty>
0

> <i_epik_Tot_Q>
0

> <i_epik_Tot_abs_Q>
0

> <r_epik_Metal_State_Penalty>
-0

> <b_epik_Metal_Only>
0

> <s_lp_Force_Field>
OPLS_2005

> <r_lp_Energy>
86.3971

> <b_lp_Chiralities_Consistent>
1

> <s_lp_Variant>
AV-unprocessed.smi:2329-1

> <Gold.Version>
5.8.1

> <Gold.Id.Protein>
6NUR|6NUR_protein|mol2

> <Gold.PLP.Fitness>
50.6250

> <Gold.PLP.PLP>
-42.5244

> <Gold.PLP.part.hbond>
-3.9194

> <Gold.PLP.part.metal>
0.0000

> <Gold.PLP.part.buried>
-6.3024

> <Gold.PLP.part.nonpolar>
-33.8677

> <Gold.PLP.part.repulsive>
0.6326

> <Gold.PLP.ligand.clash>
0.0000

> <Gold.PLP.ligand.torsion>
0.2177

> <Gold.PLP.Chemscore.Hbond>
2.7522

> <Gold.PLP.Chemscore.CHOScore>
0.0000

> <Gold.PLP.Chemscore.Metal>
0.0000

> <Gold.Chemscore.Hbonds>
donor molecule, donor type, donor heavy atom, donor atom, acceptor molecule, acceptor atom, score
      L1  H     7    29       P1  8029  0.15
      L1  H    10    30       P1  8029  0.38
      P1  H  6933  6944       L1     9  0.40

> <Gold.PLP.Chemscore.Internal.Correction>
0.2796

> <Gold.Rescore>
     Score         DG    S(hbond)    S(metal)    S(lipo)     H(rot)  DE(clash)    DE(int)     intcor
     22.11     -24.86       2.83        0.00     106.87       1.00       0.12       2.64       ----

> <Gold.Chemscore.Fitness>
22.1066

> <Gold.Chemscore.DG>
-24.8613

> <Gold.Chemscore.ZeroCoef>
-5.4800

> <Gold.Chemscore.Hbond>
2.8255

> <Gold.Chemscore.Metal>
0.0000

> <Gold.Chemscore.Lipo>
106.8739

> <Gold.Chemscore.Internal_Hbond>
0.0000

> <Gold.Chemscore.DEClash>
0.1168

> <Gold.Chemscore.DEInternal>
2.6379

> <Gold.Chemscore.Rot>
1.0000

> <Gold.Chemscore.Internal.Correction>
   9.000000E+99

> <Gold.Chemscore.Hbonds>
donor molecule, donor type, donor heavy atom, donor atom, acceptor molecule, acceptor atom, score
      L1  H     7    29       P1  8029  0.02
      L1  H    10    30       P1  8029  0.33
      P1  H  6933  6944       L1     9  0.05

> <Gold.Chemscore.Hbond.Weighted>
-9.4371

> <Gold.Chemscore.Metal.Weighted>
-0.0000

> <Gold.Chemscore.Lipo.Weighted>
-12.5043

> <Gold.Chemscore.Internal_Hbond.Weighted>
0.0000

> <Gold.Chemscore.DEClash.Weighted>
0.1168

> <Gold.Chemscore.DEInternal.Weighted>
2.6379

> <Gold.Chemscore.Rot.Weighted>
2.5600

> <Gold.Chemscore.Internal.Correction.Weighted>
   9.000000E+99

> <Gold.Protein.RotatedTorsions>
[ 6907 6896 6895 6894 ] final  170.48 input  -60.11 | X-H torsion
[ 7974 7965 7964 7962 ] final  167.83 input  175.53 | X-H torsion
[ 8008 7997 7996 7995 ] final  -84.91 input   59.86 | X-H torsion
[ 10167 10162 10161 10158 ] final -156.28 input  -65.29 | X-H torsion
[ 10718 10713 10712 10709 ] final  -78.61 input   66.30 | X-H torsion
[ 10763 10752 10751 10750 ] final  103.68 input  -60.55 | X-H torsion
[ 11005 11000 10999 10996 ] final  -82.17 input  -57.11 | X-H torsion

> <Gold.Protein.ActiveResidues>
 VAL166  LYS551  ARG553  GLY616  TRP617  ASP618  TYR619  PRO620  LYS621  CYS622 
 ASP623  PHE694  ASN695  SER759  ASP760  ASP761  ALA762  ILE779  LEU786  VAL792 
 PHE793  MET794  SER795  GLU796  ALA797  LYS798  CYS799  TRP800  GLU811  SER814 

> <Gold.Protein.RotatedAtoms>
  151.8154  133.3387  159.3567 H   0  0  0  0  0  0  0  0  0  0  0  0  # atno 6907 bound_to 6896
  150.7312  134.5624  159.5858 H   0  0  0  0  0  0  0  0  0  0  0  0  # atno 6908 bound_to 6896
  152.3045  134.7573  160.0401 H   0  0  0  0  0  0  0  0  0  0  0  0  # atno 6909 bound_to 6896
  144.7410  139.8819  143.6397 H   0  0  0  0  0  0  0  0  0  0  0  0  # atno 7974 bound_to 7965
  154.6350  140.0598  156.9777 H   0  0  0  0  0  0  0  0  0  0  0  0  # atno 8008 bound_to 7997
  155.1606  140.3282  155.4393 H   0  0  0  0  0  0  0  0  0  0  0  0  # atno 8009 bound_to 7997
  156.2502  140.1931  156.6714 H   0  0  0  0  0  0  0  0  0  0  0  0  # atno 8010 bound_to 7997
  139.6863  143.9496  152.2363 H   0  0  0  0  0  0  0  0  0  0  0  0  # atno 10167 bound_to 10162
  156.0113  130.4523  150.3523 H   0  0  0  0  0  0  0  0  0  0  0  0  # atno 10718 bound_to 10713
  153.3559  135.3968  155.1682 H   0  0  0  0  0  0  0  0  0  0  0  0  # atno 10763 bound_to 10752
  154.8671  135.3668  154.5162 H   0  0  0  0  0  0  0  0  0  0  0  0  # atno 10764 bound_to 10752
  153.5617  135.7081  153.5604 H   0  0  0  0  0  0  0  0  0  0  0  0  # atno 10765 bound_to 10752
  141.1664  133.7231  156.8532 H   0  0  0  0  0  0  0  0  0  0  0  0  # atno 11005 bound_to 11000
  146.1205  139.4222  143.0231 LP  0  0  0  0  0  0  0  0  0  0  0  0  # atno 17320 bound_to 7965
  145.7311  141.0042  143.1351 LP  0  0  0  0  0  0  0  0  0  0  0  0  # atno 17321 bound_to 7965
  139.9299  144.6747  150.8373 LP  0  0  0  0  0  0  0  0  0  0  0  0  # atno 17342 bound_to 10162
  140.7669  143.3316  151.2399 LP  0  0  0  0  0  0  0  0  0  0  0  0  # atno 17343 bound_to 10162
  157.1615  131.0346  151.2838 LP  0  0  0  0  0  0  0  0  0  0  0  0  # atno 17370 bound_to 10713
  157.4307  130.7489  149.6987 LP  0  0  0  0  0  0  0  0  0  0  0  0  # atno 17371 bound_to 10713
  140.1901  134.8972  157.3050 LP  0  0  0  0  0  0  0  0  0  0  0  0  # atno 17394 bound_to 11000
  140.2300  134.3921  155.7526 LP  0  0  0  0  0  0  0  0  0  0  0  0  # atno 17395 bound_to 11000

$$$$
