AV-unprocessed.smi:2104|AV-procd|sdf|8587|dock1
  -GOLD-   2272011313D 1   1.00000     0.00000
 Structure written by MMmdl.
 42 43  0  0  0  0  0  0  0  0  2 V2000
  146.6309  133.7864  162.9121 C   0  0  0  0  0  0  0  0  0  0  0  0
  147.0604  134.9705  162.1157 C   0  0  0  0  0  0  0  0  0  0  0  0
  147.2452  135.1701  160.7773 C   0  0  0  0  0  0  0  0  0  0  0  0
  147.6485  136.5312  160.7040 C   0  0  0  0  0  0  0  0  0  0  0  0
  147.9612  137.1982  159.5826 N   0  5  0  0  0  0  0  0  0  0  0  0
  149.1205  136.9372  158.9351 C   0  0  0  0  0  0  0  0  0  0  0  0
  149.3959  135.9082  158.3138 O   0  0  0  0  0  0  0  0  0  0  0  0
  150.0183  137.9274  159.0173 N   0  0  0  0  0  0  0  0  0  0  0  0
  151.3600  137.9049  158.4474 C   0  0  0  0  0  0  0  0  0  0  0  0
  152.1859  139.0796  158.9818 C   0  0  0  0  0  0  0  0  0  0  0  0
  151.3592  140.2337  159.0105 O   0  0  0  0  0  0  0  0  0  0  0  0
  152.0131  141.4461  158.6613 C   0  0  2  0  0  0  0  0  0  0  0  0
  152.7293  142.0231  159.9003 C   0  0  0  0  0  0  0  0  0  0  0  0
  153.3237  143.4101  159.6148 C   0  0  0  0  0  0  0  0  0  0  0  0
  152.2459  144.3767  159.1043 C   0  0  0  0  0  0  0  0  0  0  0  0
  151.5417  143.8103  157.8621 C   0  0  0  0  0  0  0  0  0  0  0  0
  150.9348  142.4194  158.1341 C   0  0  1  0  0  0  0  0  0  0  0  0
  150.2430  141.8713  156.8746 C   0  0  0  0  0  0  0  0  0  0  0  0
  147.7206  137.1021  161.8950 N   0  0  0  0  0  0  0  0  0  0  0  0
  147.3372  136.1097  162.8053 O   0  0  0  0  0  0  0  0  0  0  0  0
  147.0560  132.8702  162.5019 H   0  0  0  0  0  0  0  0  0  0  0  0
  145.5453  133.6901  162.9023 H   0  0  0  0  0  0  0  0  0  0  0  0
  146.9545  133.8730  163.9495 H   0  0  0  0  0  0  0  0  0  0  0  0
  147.1091  134.4592  159.9763 H   0  0  0  0  0  0  0  0  0  0  0  0
  149.7565  138.7509  159.5388 H   0  0  0  0  0  0  0  0  0  0  0  0
  151.8610  136.9645  158.6824 H   0  0  0  0  0  0  0  0  0  0  0  0
  151.2807  137.9669  157.3616 H   0  0  0  0  0  0  0  0  0  0  0  0
  152.5497  138.8505  159.9836 H   0  0  0  0  0  0  0  0  0  0  0  0
  153.0570  139.2434  158.3452 H   0  0  0  0  0  0  0  0  0  0  0  0
  152.7392  141.2716  157.8647 H   0  0  0  0  0  0  0  0  0  0  0  0
  152.0235  142.0953  160.7287 H   0  0  0  0  0  0  0  0  0  0  0  0
  153.5228  141.3525  160.2295 H   0  0  0  0  0  0  0  0  0  0  0  0
  153.7848  143.8107  160.5180 H   0  0  0  0  0  0  0  0  0  0  0  0
  154.1186  143.3224  158.8733 H   0  0  0  0  0  0  0  0  0  0  0  0
  151.5123  144.5576  159.8911 H   0  0  0  0  0  0  0  0  0  0  0  0
  152.6934  145.3430  158.8700 H   0  0  0  0  0  0  0  0  0  0  0  0
  150.7613  144.5007  157.5399 H   0  0  0  0  0  0  0  0  0  0  0  0
  152.2553  143.7467  157.0394 H   0  0  0  0  0  0  0  0  0  0  0  0
  150.1731  142.5323  158.9071 H   0  0  0  0  0  0  0  0  0  0  0  0
  150.9574  141.7158  156.0658 H   0  0  0  0  0  0  0  0  0  0  0  0
  149.4776  142.5595  156.5158 H   0  0  0  0  0  0  0  0  0  0  0  0
  149.7543  140.9167  157.0725 H   0  0  0  0  0  0  0  0  0  0  0  0
  1  2  1  0  0  0  0
  1 21  1  0  0  0  0
  1 22  1  0  0  0  0
  1 23  1  0  0  0  0
  2 20  1  0  0  0  0
  2  3  2  0  0  0  0
  3  4  1  0  0  0  0
  3 24  1  0  0  0  0
  4  5  1  0  0  0  0
  4 19  2  0  0  0  0
  5  6  1  0  0  0  0
  6  7  2  0  0  0  0
  6  8  1  0  0  0  0
  8  9  1  0  0  0  0
  8 25  1  0  0  0  0
  9 10  1  0  0  0  0
  9 26  1  0  0  0  0
  9 27  1  0  0  0  0
 10 11  1  0  0  0  0
 10 28  1  0  0  0  0
 10 29  1  0  0  0  0
 11 12  1  0  0  0  0
 12 17  1  0  0  0  0
 12 13  1  0  0  0  0
 12 30  1  0  0  0  0
 13 14  1  0  0  0  0
 13 31  1  0  0  0  0
 13 32  1  0  0  0  0
 14 15  1  0  0  0  0
 14 33  1  0  0  0  0
 14 34  1  0  0  0  0
 15 16  1  0  0  0  0
 15 35  1  0  0  0  0
 15 36  1  0  0  0  0
 16 17  1  0  0  0  0
 16 37  1  0  0  0  0
 16 38  1  0  0  0  0
 17 18  1  0  0  0  0
 17 39  1  0  0  0  0
 18 40  1  0  0  0  0
 18 41  1  0  0  0  0
 18 42  1  0  0  0  0
 19 20  1  0  0  0  0
M  CHG  1   5  -1
M  END
> <s_m_source_file>
AV-unprocessed.smi

> <i_m_source_file_index>
2104

> <i_lp_mmshare_version>
43012

> <i_f3d_flags>
0

> <s_epik_input>
W0NIM11jMVtjSF1jKG5vMSlbTkhdQyg9TylbTkhdW0NIMl1bQ0gyXU9bQ0BASF0yW0NIMl1bQ0gyXVtDSDJdW0NIMl1bQ0BIXTJbQ0gzXQ==

> <s_epik_cmdline>
J2VwaWtfcHl0aG9uJywgJy1waCcsICc3LjAnLCAnLXRuJywgJzgnLCAnLW1hJywgJzIwMCcsICctbWV0YWxfYmluZGluZycsICctaW1hZScsICc8aW5maWxlLm1hZT4nLCAnLW9tYWUnLCAnPG91dGZpbGUubWFlPic=

> <r_lp_tautomer_probability>
1

> <r_epik_Ionization_Penalty>
6.47137

> <r_epik_Ionization_Penalty_Charging>
6.47125

> <r_epik_Ionization_Penalty_Neutral>
0.000118933

> <r_epik_State_Penalty>
6.47124

> <r_epik_Charging_Adjusted_Penalty>
12.9425

> <i_epik_Tot_Q>
-1

> <i_epik_Tot_abs_Q>
1

> <r_epik_Metal_State_Penalty>
2.3995

> <b_epik_Metal_Only>
1

> <s_lp_Force_Field>
OPLS_2005

> <r_lp_Energy>
5.464

> <b_lp_Chiralities_Consistent>
1

> <s_lp_Variant>
AV-unprocessed.smi:2104-5

> <Gold.Version>
5.8.1

> <Gold.Id.Protein>
6NUR|6NUR_protein|mol2

> <Gold.PLP.Fitness>
45.4287

> <Gold.PLP.PLP>
-40.6178

> <Gold.PLP.part.hbond>
-3.0000

> <Gold.PLP.part.metal>
0.0000

> <Gold.PLP.part.buried>
-6.6478

> <Gold.PLP.part.nonpolar>
-32.8510

> <Gold.PLP.part.repulsive>
0.2031

> <Gold.PLP.ligand.clash>
0.0000

> <Gold.PLP.ligand.torsion>
2.0176

> <Gold.PLP.Chemscore.Hbond>
2.8720

> <Gold.PLP.Chemscore.CHOScore>
0.0000

> <Gold.PLP.Chemscore.Metal>
0.0000

> <Gold.Chemscore.Hbonds>
donor molecule, donor type, donor heavy atom, donor atom, acceptor molecule, acceptor atom, score
      P1  H  6896  6909       L1     7  0.54
      P1  H  6931  6943       L1    19  1.00
      P1  H  6934  6947       L1    19  0.17

> <Gold.PLP.Chemscore.Internal.Correction>
0.2301

> <Gold.Rescore>
     Score         DG    S(hbond)    S(metal)    S(lipo)     H(rot)  DE(clash)    DE(int)     intcor
     19.41     -21.32       2.53        0.00     100.58       1.71       0.00       1.91       ----

> <Gold.Chemscore.Fitness>
19.4074

> <Gold.Chemscore.DG>
-21.3179

> <Gold.Chemscore.ZeroCoef>
-5.4800

> <Gold.Chemscore.Hbond>
2.5295

> <Gold.Chemscore.Metal>
0.0000

> <Gold.Chemscore.Lipo>
100.5784

> <Gold.Chemscore.Internal_Hbond>
0.0000

> <Gold.Chemscore.DEClash>
0.0000

> <Gold.Chemscore.DEInternal>
1.9105

> <Gold.Chemscore.Rot>
1.7103

> <Gold.Chemscore.Internal.Correction>
   9.000000E+99

> <Gold.Chemscore.Hbonds>
donor molecule, donor type, donor heavy atom, donor atom, acceptor molecule, acceptor atom, score
      P1  H  6896  6909       L1     7  0.40
      P1  H  6931  6943       L1    19  0.72
      P1  H  6934  6947       L1    19  0.01

> <Gold.Chemscore.Hbond.Weighted>
-8.4486

> <Gold.Chemscore.Metal.Weighted>
-0.0000

> <Gold.Chemscore.Lipo.Weighted>
-11.7677

> <Gold.Chemscore.Internal_Hbond.Weighted>
0.0000

> <Gold.Chemscore.DEClash.Weighted>
0.0000

> <Gold.Chemscore.DEInternal.Weighted>
1.9105

> <Gold.Chemscore.Rot.Weighted>
4.3784

> <Gold.Chemscore.Internal.Correction.Weighted>
   9.000000E+99

> <Gold.Protein.RotatedTorsions>
[ 6907 6896 6895 6894 ] final   50.50 input  -60.11 | X-H torsion
[ 7974 7965 7964 7962 ] final -151.58 input  175.53 | X-H torsion
[ 8008 7997 7996 7995 ] final   72.74 input   59.86 | X-H torsion
[ 10167 10162 10161 10158 ] final   69.01 input  -65.29 | X-H torsion
[ 10718 10713 10712 10709 ] final  -76.53 input   66.30 | X-H torsion
[ 10763 10752 10751 10750 ] final   84.95 input  -60.55 | X-H torsion
[ 11005 11000 10999 10996 ] final  -35.83 input  -57.11 | X-H torsion

> <Gold.Protein.ActiveResidues>
 VAL166  LYS551  ARG553  GLY616  TRP617  ASP618  TYR619  PRO620  LYS621  CYS622 
 ASP623  PHE694  ASN695  SER759  ASP760  ASP761  ALA762  ILE779  LEU786  VAL792 
 PHE793  MET794  SER795  GLU796  ALA797  LYS798  CYS799  TRP800  GLU811  SER814 

> <Gold.Protein.RotatedAtoms>
  152.3024  134.7595  160.0354 H   0  0  0  0  0  0  0  0  0  0  0  0  # atno 6907 bound_to 6896
  151.8103  133.3375  159.3561 H   0  0  0  0  0  0  0  0  0  0  0  0  # atno 6908 bound_to 6896
  150.7280  134.5600  159.5882 H   0  0  0  0  0  0  0  0  0  0  0  0  # atno 6909 bound_to 6896
  144.7842  140.4778  143.5818 H   0  0  0  0  0  0  0  0  0  0  0  0  # atno 7974 bound_to 7965
  155.7733  140.3484  155.5258 H   0  0  0  0  0  0  0  0  0  0  0  0  # atno 8008 bound_to 7997
  155.8801  140.1000  157.1512 H   0  0  0  0  0  0  0  0  0  0  0  0  # atno 8009 bound_to 7997
  154.4024  140.1324  156.4173 H   0  0  0  0  0  0  0  0  0  0  0  0  # atno 8010 bound_to 7997
  140.0724  144.5141  150.7218 H   0  0  0  0  0  0  0  0  0  0  0  0  # atno 10167 bound_to 10162
  156.0172  130.4468  150.3207 H   0  0  0  0  0  0  0  0  0  0  0  0  # atno 10718 bound_to 10713
  153.1429  135.4635  154.9523 H   0  0  0  0  0  0  0  0  0  0  0  0  # atno 10763 bound_to 10752
  154.7762  135.3174  154.8089 H   0  0  0  0  0  0  0  0  0  0  0  0  # atno 10764 bound_to 10752
  153.8608  135.6913  153.4837 H   0  0  0  0  0  0  0  0  0  0  0  0  # atno 10765 bound_to 10752
  140.9827  133.7047  156.1712 H   0  0  0  0  0  0  0  0  0  0  0  0  # atno 11005 bound_to 11000
  145.5968  139.1500  143.3152 LP  0  0  0  0  0  0  0  0  0  0  0  0  # atno 17320 bound_to 7965
  146.2065  140.6091  142.9078 LP  0  0  0  0  0  0  0  0  0  0  0  0  # atno 17321 bound_to 7965
  140.7119  143.2512  151.4555 LP  0  0  0  0  0  0  0  0  0  0  0  0  # atno 17342 bound_to 10162
  139.5828  144.1671  152.1990 LP  0  0  0  0  0  0  0  0  0  0  0  0  # atno 17343 bound_to 10162
  157.1307  131.0271  151.2970 LP  0  0  0  0  0  0  0  0  0  0  0  0  # atno 17370 bound_to 10713
  157.4552  130.7621  149.7187 LP  0  0  0  0  0  0  0  0  0  0  0  0  # atno 17371 bound_to 10713
  140.7162  134.4408  157.5578 LP  0  0  0  0  0  0  0  0  0  0  0  0  # atno 17394 bound_to 11000
  139.8957  134.8677  156.2120 LP  0  0  0  0  0  0  0  0  0  0  0  0  # atno 17395 bound_to 11000

$$$$
