AV-unprocessed.smi:1749|AV-procd|sdf|7051|dock1
  -GOLD-   22720 8263D 1   1.00000     0.00000
 Structure written by MMmdl.
 31 32  0  0  0  0  0  0  0  0  2 V2000
  153.7118  141.5271  161.7549 C   0  0  0  0  0  0  0  0  0  0  0  0
  152.7911  142.3728  160.8639 C   0  0  1  0  0  0  0  0  0  0  0  0
  152.4498  143.7216  161.5258 C   0  0  0  0  0  0  0  0  0  0  0  0
  151.5324  144.5732  160.6340 C   0  0  0  0  0  0  0  0  0  0  0  0
  152.1517  144.7927  159.2433 C   0  0  0  0  0  0  0  0  0  0  0  0
  152.5148  143.4601  158.5554 C   0  0  2  0  0  0  0  0  0  0  0  0
  151.3145  142.7125  158.1870 N   0  0  0  0  0  0  0  0  0  0  0  0
  151.2622  141.4996  157.6034 C   0  0  0  0  0  0  0  0  0  0  0  0
  152.3137  140.9140  157.3481 O   0  0  0  0  0  0  0  0  0  0  0  0
  150.0347  140.9864  157.3245 N   0  5  0  0  0  0  0  0  0  0  0  0
  149.4166  141.1924  156.1464 C   0  0  0  0  0  0  0  0  0  0  0  0
  150.0813  141.2219  154.9802 N   0  0  0  0  0  0  0  0  0  0  0  0
  149.2579  141.4620  153.8885 N   0  0  0  0  0  0  0  0  0  0  0  0
  147.9853  141.5965  154.2601 C   0  0  0  0  0  0  0  0  0  0  0  0
  147.6773  141.4438  155.9768 S   0  0  0  0  0  0  0  0  0  0  0  0
  153.4097  142.5975  159.4675 C   0  0  0  0  0  0  0  0  0  0  0  0
  154.6666  142.0256  161.9246 H   0  0  0  0  0  0  0  0  0  0  0  0
  153.9176  140.5586  161.2984 H   0  0  0  0  0  0  0  0  0  0  0  0
  153.2547  141.3422  162.7274 H   0  0  0  0  0  0  0  0  0  0  0  0
  151.8610  141.8158  160.7393 H   0  0  0  0  0  0  0  0  0  0  0  0
  151.9668  143.5534  162.4889 H   0  0  0  0  0  0  0  0  0  0  0  0
  153.3677  144.2735  161.7330 H   0  0  0  0  0  0  0  0  0  0  0  0
  150.5626  144.0840  160.5327 H   0  0  0  0  0  0  0  0  0  0  0  0
  151.3419  145.5354  161.1098 H   0  0  0  0  0  0  0  0  0  0  0  0
  151.4704  145.3716  158.6187 H   0  0  0  0  0  0  0  0  0  0  0  0
  153.0531  145.3974  159.3470 H   0  0  0  0  0  0  0  0  0  0  0  0
  153.0768  143.6767  157.6453 H   0  0  0  0  0  0  0  0  0  0  0  0
  150.4327  143.1653  158.3776 H   0  0  0  0  0  0  0  0  0  0  0  0
  147.2234  141.7856  153.5190 H   0  0  0  0  0  0  0  0  0  0  0  0
  154.3782  143.0873  159.5780 H   0  0  0  0  0  0  0  0  0  0  0  0
  153.6097  141.6382  158.9879 H   0  0  0  0  0  0  0  0  0  0  0  0
  1  2  1  0  0  0  0
  1 17  1  0  0  0  0
  1 18  1  0  0  0  0
  1 19  1  0  0  0  0
  2 16  1  0  0  0  0
  2  3  1  0  0  0  0
  2 20  1  0  0  0  0
  3  4  1  0  0  0  0
  3 21  1  0  0  0  0
  3 22  1  0  0  0  0
  4  5  1  0  0  0  0
  4 23  1  0  0  0  0
  4 24  1  0  0  0  0
  5  6  1  0  0  0  0
  5 25  1  0  0  0  0
  5 26  1  0  0  0  0
  6  7  1  0  0  0  0
  6 16  1  0  0  0  0
  6 27  1  0  0  0  0
  7  8  1  0  0  0  0
  7 28  1  0  0  0  0
  8  9  2  0  0  0  0
  8 10  1  0  0  0  0
 10 11  1  0  0  0  0
 11 15  1  0  0  0  0
 11 12  2  0  0  0  0
 12 13  1  0  0  0  0
 13 14  2  0  0  0  0
 14 15  1  0  0  0  0
 14 29  1  0  0  0  0
 16 30  1  0  0  0  0
 16 31  1  0  0  0  0
M  CHG  1  10  -1
M  END
> <s_m_source_file>
AV-unprocessed.smi

> <i_m_source_file_index>
1749

> <i_lp_mmshare_version>
43012

> <i_f3d_flags>
0

> <s_epik_input>
W0NIM11bQ0BASF0xW0NIMl1bQ0gyXVtDSDJdW0NASF0oW0NIMl0xKVtOSF1DKD1PKVtOSF1jMm5uW2NIXXMy

> <s_epik_cmdline>
J2VwaWtfcHl0aG9uJywgJy1waCcsICc3LjAnLCAnLXRuJywgJzgnLCAnLW1hJywgJzIwMCcsICctbWV0YWxfYmluZGluZycsICctaW1hZScsICc8aW5maWxlLm1hZT4nLCAnLW9tYWUnLCAnPG91dGZpbGUubWFlPic=

> <r_lp_tautomer_probability>
1

> <r_epik_Ionization_Penalty>
4.55442

> <r_epik_Ionization_Penalty_Charging>
4.5081

> <r_epik_Ionization_Penalty_Neutral>
0.0463156

> <r_epik_State_Penalty>
4.50781

> <r_epik_Charging_Adjusted_Penalty>
9.01591

> <i_epik_Tot_Q>
-1

> <i_epik_Tot_abs_Q>
1

> <r_epik_Metal_State_Penalty>
0.823335

> <b_epik_Metal_Only>
1

> <s_lp_Force_Field>
OPLS_2005

> <r_lp_Energy>
7.79441

> <b_lp_Chiralities_Consistent>
1

> <s_lp_Variant>
AV-unprocessed.smi:1749-8

> <Gold.Version>
5.8.1

> <Gold.Id.Protein>
6NUR|6NUR_protein|mol2

> <Gold.PLP.Fitness>
38.4577

> <Gold.PLP.PLP>
-37.3429

> <Gold.PLP.part.hbond>
-3.7503

> <Gold.PLP.part.metal>
0.0000

> <Gold.PLP.part.buried>
-2.4180

> <Gold.PLP.part.nonpolar>
-30.9641

> <Gold.PLP.part.repulsive>
0.9776

> <Gold.PLP.ligand.clash>
0.0000

> <Gold.PLP.ligand.torsion>
1.0400

> <Gold.PLP.Chemscore.Hbond>
1.0574

> <Gold.PLP.Chemscore.CHOScore>
0.0000

> <Gold.PLP.Chemscore.Metal>
0.0000

> <Gold.Chemscore.Hbonds>
donor molecule, donor type, donor heavy atom, donor atom, acceptor molecule, acceptor atom, score
      P1  H  7989  7998       L1    12  0.10
      P1  H  7997  8008       L1     9  0.15
      P1  H  8011  8017       L1    13  0.74

> <Gold.PLP.Chemscore.Internal.Correction>
0.0227

> <Gold.Rescore>
     Score         DG    S(hbond)    S(metal)    S(lipo)     H(rot)  DE(clash)    DE(int)     intcor
     14.32     -16.71       0.92        0.00      91.62       1.00       0.30       2.10       ----

> <Gold.Chemscore.Fitness>
14.3214

> <Gold.Chemscore.DG>
-16.7144

> <Gold.Chemscore.ZeroCoef>
-5.4800

> <Gold.Chemscore.Hbond>
0.9205

> <Gold.Chemscore.Metal>
0.0000

> <Gold.Chemscore.Lipo>
91.6241

> <Gold.Chemscore.Internal_Hbond>
0.0000

> <Gold.Chemscore.DEClash>
0.2976

> <Gold.Chemscore.DEInternal>
2.0953

> <Gold.Chemscore.Rot>
1.0000

> <Gold.Chemscore.Internal.Correction>
   9.000000E+99

> <Gold.Chemscore.Hbonds>
donor molecule, donor type, donor heavy atom, donor atom, acceptor molecule, acceptor atom, score
      P1  H  7997  8008       L1     9  0.15
      P1  H  8011  8017       L1    13  0.69

> <Gold.Chemscore.Hbond.Weighted>
-3.0744

> <Gold.Chemscore.Metal.Weighted>
-0.0000

> <Gold.Chemscore.Lipo.Weighted>
-10.7200

> <Gold.Chemscore.Internal_Hbond.Weighted>
0.0000

> <Gold.Chemscore.DEClash.Weighted>
0.2976

> <Gold.Chemscore.DEInternal.Weighted>
2.0953

> <Gold.Chemscore.Rot.Weighted>
2.5600

> <Gold.Chemscore.Internal.Correction.Weighted>
   9.000000E+99

> <Gold.Protein.RotatedTorsions>
[ 6907 6896 6895 6894 ] final   69.93 input  -60.11 | X-H torsion
[ 7974 7965 7964 7962 ] final  -17.57 input  175.53 | X-H torsion
[ 8008 7997 7996 7995 ] final  -49.09 input   59.86 | X-H torsion
[ 10167 10162 10161 10158 ] final   47.59 input  -65.29 | X-H torsion
[ 10718 10713 10712 10709 ] final   95.05 input   66.30 | X-H torsion
[ 10763 10752 10751 10750 ] final  166.25 input  -60.55 | X-H torsion
[ 11005 11000 10999 10996 ] final  172.61 input  -57.11 | X-H torsion

> <Gold.Protein.ActiveResidues>
 VAL166  LYS551  ARG553  GLY616  TRP617  ASP618  TYR619  PRO620  LYS621  CYS622 
 ASP623  PHE694  ASN695  SER759  ASP760  ASP761  ALA762  ILE779  LEU786  VAL792 
 PHE793  MET794  SER795  GLU796  ALA797  LYS798  CYS799  TRP800  GLU811  SER814 

> <Gold.Protein.RotatedAtoms>
  152.4718  134.4943  159.9704 H   0  0  0  0  0  0  0  0  0  0  0  0  # atno 6907 bound_to 6896
  151.4968  133.3507  159.2870 H   0  0  0  0  0  0  0  0  0  0  0  0  # atno 6908 bound_to 6896
  150.8732  134.8137  159.7232 H   0  0  0  0  0  0  0  0  0  0  0  0  # atno 6909 bound_to 6896
  146.1934  140.3798  142.8449 H   0  0  0  0  0  0  0  0  0  0  0  0  # atno 7974 bound_to 7965
  154.4038  140.1305  156.4446 H   0  0  0  0  0  0  0  0  0  0  0  0  # atno 8008 bound_to 7997
  155.7425  140.3489  155.5091 H   0  0  0  0  0  0  0  0  0  0  0  0  # atno 8009 bound_to 7997
  155.9026  140.1022  157.1329 H   0  0  0  0  0  0  0  0  0  0  0  0  # atno 8010 bound_to 7997
  140.3020  144.2922  150.6217 H   0  0  0  0  0  0  0  0  0  0  0  0  # atno 10167 bound_to 10162
  157.6942  131.0533  150.4280 H   0  0  0  0  0  0  0  0  0  0  0  0  # atno 10718 bound_to 10713
  154.3362  135.2754  155.2446 H   0  0  0  0  0  0  0  0  0  0  0  0  # atno 10763 bound_to 10752
  154.4736  135.5876  153.6343 H   0  0  0  0  0  0  0  0  0  0  0  0  # atno 10764 bound_to 10752
  152.9862  135.6094  154.3559 H   0  0  0  0  0  0  0  0  0  0  0  0  # atno 10765 bound_to 10752
  140.3315  134.7353  157.4138 H   0  0  0  0  0  0  0  0  0  0  0  0  # atno 11005 bound_to 11000
  144.8532  140.7032  143.6155 LP  0  0  0  0  0  0  0  0  0  0  0  0  # atno 17320 bound_to 7965
  145.3720  139.1656  143.4327 LP  0  0  0  0  0  0  0  0  0  0  0  0  # atno 17321 bound_to 7965
  140.5642  143.2188  151.7712 LP  0  0  0  0  0  0  0  0  0  0  0  0  # atno 17342 bound_to 10162
  139.4913  144.4306  151.9876 LP  0  0  0  0  0  0  0  0  0  0  0  0  # atno 17343 bound_to 10162
  156.4649  130.4040  149.6553 LP  0  0  0  0  0  0  0  0  0  0  0  0  # atno 17370 bound_to 10713
  156.3655  130.7503  151.2481 LP  0  0  0  0  0  0  0  0  0  0  0  0  # atno 17371 bound_to 10713
  140.0856  134.5670  155.8495 LP  0  0  0  0  0  0  0  0  0  0  0  0  # atno 17394 bound_to 11000
  141.2062  133.6653  156.6227 LP  0  0  0  0  0  0  0  0  0  0  0  0  # atno 17395 bound_to 11000

$$$$
