AV-unprocessed.smi:2727|AV-procd|sdf|10523|dock5
  -GOLD-   2272014563D 1   1.00000     0.00000
 Structure written by MMmdl.
 40 41  0  0  0  0  0  0  0  0  1 V2000
  146.5493  137.2249  154.7558 O   0  0  0  0  0  0  0  0  0  0  0  0
  145.6702  137.7979  154.1036 C   0  0  0  0  0  0  0  0  0  0  0  0
  145.6731  139.1303  153.9448 N   0  0  0  0  0  0  0  0  0  0  0  0
  146.6743  140.0425  154.4881 C   0  0  0  0  0  0  0  0  0  0  0  0
  148.0877  139.7065  153.9701 C   0  0  0  0  0  0  0  0  0  0  0  0
  149.1811  140.6511  154.5009 C   0  0  0  0  0  0  0  0  0  0  0  0
  149.1553  141.8395  154.1751 O   0  0  0  0  0  0  0  0  0  0  0  0
  150.1508  140.1496  155.3051 N   0  0  0  0  0  0  0  0  0  0  0  0
  150.1344  138.7480  155.7415 C   0  0  0  0  0  0  0  0  0  0  0  0
  149.2056  138.5300  156.9534 C   0  0  0  0  0  0  0  0  0  0  0  0
  149.1497  139.6865  157.9759 C   0  0  0  0  0  0  0  0  0  0  0  0
  150.5040  140.3502  158.2946 C   0  0  0  0  0  0  0  0  0  0  0  0
  150.9088  141.4485  157.2882 C   0  0  0  0  0  0  0  0  0  0  0  0
  151.2562  140.9298  155.8799 C   0  0  0  0  0  0  0  0  0  0  0  0
  144.5838  137.2412  153.4428 N   0  0  0  0  0  0  0  0  0  0  0  0
  144.7686  136.5205  152.3790 C   0  0  0  0  0  0  0  0  0  0  0  0
  145.9089  136.1389  151.6763 N   0  0  0  0  0  0  0  0  0  0  0  0
  145.5191  135.3721  150.6141 C   0  0  0  0  0  0  0  0  0  0  0  0
  144.1936  135.2725  150.6432 C   0  0  0  0  0  0  0  0  0  0  0  0
  143.7067  135.9639  151.7117 O   0  0  0  0  0  0  0  0  0  0  0  0
  144.9294  139.5417  153.3996 H   0  0  0  0  0  0  0  0  0  0  0  0
  146.4029  141.0717  154.2448 H   0  0  0  0  0  0  0  0  0  0  0  0
  146.6459  139.9625  155.5753 H   0  0  0  0  0  0  0  0  0  0  0  0
  148.3415  138.6821  154.2446 H   0  0  0  0  0  0  0  0  0  0  0  0
  148.0848  139.7548  152.8814 H   0  0  0  0  0  0  0  0  0  0  0  0
  149.8444  138.0869  154.9230 H   0  0  0  0  0  0  0  0  0  0  0  0
  151.1401  138.4242  156.0110 H   0  0  0  0  0  0  0  0  0  0  0  0
  148.1917  138.3412  156.5989 H   0  0  0  0  0  0  0  0  0  0  0  0
  149.5135  137.6148  157.4604 H   0  0  0  0  0  0  0  0  0  0  0  0
  148.4492  140.4483  157.6310 H   0  0  0  0  0  0  0  0  0  0  0  0
  148.7188  139.2974  158.8990 H   0  0  0  0  0  0  0  0  0  0  0  0
  150.4278  140.8167  159.2772 H   0  0  0  0  0  0  0  0  0  0  0  0
  151.2885  139.5978  158.3831 H   0  0  0  0  0  0  0  0  0  0  0  0
  150.1132  142.1912  157.2257 H   0  0  0  0  0  0  0  0  0  0  0  0
  151.7760  141.9801  157.6812 H   0  0  0  0  0  0  0  0  0  0  0  0
  152.1601  140.3219  155.9322 H   0  0  0  0  0  0  0  0  0  0  0  0
  151.5359  141.7647  155.2377 H   0  0  0  0  0  0  0  0  0  0  0  0
  146.8722  136.3658  151.8776 H   0  0  0  0  0  0  0  0  0  0  0  0
  146.2530  134.9691  149.9318 H   0  0  0  0  0  0  0  0  0  0  0  0
  143.4819  134.7695  150.0053 H   0  0  0  0  0  0  0  0  0  0  0  0
  1  2  2  0  0  0  0
  2 15  1  0  0  0  0
  2  3  1  0  0  0  0
  3  4  1  0  0  0  0
  3 21  1  0  0  0  0
  4  5  1  0  0  0  0
  4 22  1  0  0  0  0
  4 23  1  0  0  0  0
  5  6  1  0  0  0  0
  5 24  1  0  0  0  0
  5 25  1  0  0  0  0
  6  7  2  0  0  0  0
  6  8  1  0  0  0  0
  8 14  1  0  0  0  0
  8  9  1  0  0  0  0
  9 10  1  0  0  0  0
  9 26  1  0  0  0  0
  9 27  1  0  0  0  0
 10 11  1  0  0  0  0
 10 28  1  0  0  0  0
 10 29  1  0  0  0  0
 11 12  1  0  0  0  0
 11 30  1  0  0  0  0
 11 31  1  0  0  0  0
 12 13  1  0  0  0  0
 12 32  1  0  0  0  0
 12 33  1  0  0  0  0
 13 14  1  0  0  0  0
 13 34  1  0  0  0  0
 13 35  1  0  0  0  0
 14 36  1  0  0  0  0
 14 37  1  0  0  0  0
 15 16  2  0  0  0  0
 16 20  1  0  0  0  0
 16 17  1  0  0  0  0
 17 38  1  0  0  0  0
 17 18  1  0  0  0  0
 18 39  1  0  0  0  0
 18 19  2  0  0  0  0
 19 40  1  0  0  0  0
 19 20  1  0  0  0  0
M  END
> <s_m_source_file>
AV-unprocessed.smi

> <i_m_source_file_index>
2727

> <i_lp_mmshare_version>
43012

> <i_f3d_flags>
0

> <s_epik_input>
bzFbY0hdW2NIXW5jMVtOSF1DKD1PKVtOSF1bQ0gyXVtDSDJdQyg9TylOMltDSDJdW0NIMl1bQ0gyXVtDSDJdW0NIMl1bQ0gyXTI=

> <s_epik_cmdline>
J2VwaWtfcHl0aG9uJywgJy1waCcsICc3LjAnLCAnLXRuJywgJzgnLCAnLW1hJywgJzIwMCcsICctbWV0YWxfYmluZGluZycsICctaW1hZScsICc8aW5maWxlLm1hZT4nLCAnLW9tYWUnLCAnPG91dGZpbGUubWFlPic=

> <r_lp_tautomer_probability>
0.107061

> <r_epik_Ionization_Penalty>
0.376272

> <r_epik_Ionization_Penalty_Charging>
0.375918

> <r_epik_Ionization_Penalty_Neutral>
0.000353756

> <r_epik_State_Penalty>
2.48665

> <r_epik_Charging_Adjusted_Penalty>
2.86256

> <i_epik_Tot_Q>
0

> <i_epik_Tot_abs_Q>
0

> <r_epik_Metal_State_Penalty>
4.1171

> <b_epik_Metal_Only>
0

> <s_lp_Force_Field>
OPLS_2005

> <r_lp_Energy>
47.9019

> <b_lp_Chiralities_Consistent>
1

> <s_lp_Variant>
AV-unprocessed.smi:2727-3

> <Gold.Version>
5.8.1

> <Gold.Id.Protein>
6NUR|6NUR_protein|mol2

> <Gold.PLP.Fitness>
37.8433

> <Gold.PLP.PLP>
-25.8396

> <Gold.PLP.part.hbond>
-3.6727

> <Gold.PLP.part.metal>
0.0000

> <Gold.PLP.part.buried>
-2.6208

> <Gold.PLP.part.nonpolar>
-20.5493

> <Gold.PLP.part.repulsive>
0.6493

> <Gold.PLP.ligand.clash>
0.0000

> <Gold.PLP.ligand.torsion>
0.6873

> <Gold.PLP.Chemscore.Hbond>
2.4873

> <Gold.PLP.Chemscore.CHOScore>
1.9678

> <Gold.PLP.Chemscore.Metal>
0.0000

> <Gold.Chemscore.Hbonds>
donor molecule, donor type, donor heavy atom, donor atom, acceptor molecule, acceptor atom, score
      L1  H     3    21       P1 10175  1.00
      L1  H    17    38       P1  7948  0.93
      P1  H  8011  8017       L1     7  0.48
      L1  C    18    39       P1  7921  0.98
      L1  C    19    40       P1 10186  1.00

> <Gold.PLP.Chemscore.Internal.Correction>
0.0131

> <Gold.Rescore>
     Score         DG    S(hbond)    S(metal)    S(lipo)     H(rot)  DE(clash)    DE(int)     intcor
     14.09     -15.07       2.57        0.00      45.91       1.70       0.19       0.79       ----

> <Gold.Chemscore.Fitness>
14.0898

> <Gold.Chemscore.DG>
-15.0651

> <Gold.Chemscore.ZeroCoef>
-5.4800

> <Gold.Chemscore.Hbond>
2.5666

> <Gold.Chemscore.Metal>
0.0000

> <Gold.Chemscore.Lipo>
45.9056

> <Gold.Chemscore.Internal_Hbond>
0.0000

> <Gold.Chemscore.DEClash>
0.1895

> <Gold.Chemscore.DEInternal>
0.7858

> <Gold.Chemscore.Rot>
1.7025

> <Gold.Chemscore.Internal.Correction>
   9.000000E+99

> <Gold.Chemscore.Hbonds>
donor molecule, donor type, donor heavy atom, donor atom, acceptor molecule, acceptor atom, score
      L1  H     3    21       P1 10175  1.00
      L1  H    17    38       P1  7948  0.88
      P1  H  8011  8017       L1     7  0.44

> <Gold.Chemscore.Hbond.Weighted>
-8.5725

> <Gold.Chemscore.Metal.Weighted>
-0.0000

> <Gold.Chemscore.Lipo.Weighted>
-5.3710

> <Gold.Chemscore.Internal_Hbond.Weighted>
0.0000

> <Gold.Chemscore.DEClash.Weighted>
0.1895

> <Gold.Chemscore.DEInternal.Weighted>
0.7858

> <Gold.Chemscore.Rot.Weighted>
4.3584

> <Gold.Chemscore.Internal.Correction.Weighted>
   9.000000E+99

> <Gold.Protein.RotatedTorsions>
[ 6907 6896 6895 6894 ] final  -41.22 input  -60.11 | X-H torsion
[ 7974 7965 7964 7962 ] final   45.38 input  175.53 | X-H torsion
[ 8008 7997 7996 7995 ] final  145.32 input   59.86 | X-H torsion
[ 10167 10162 10161 10158 ] final  105.04 input  -65.29 | X-H torsion
[ 10718 10713 10712 10709 ] final  -54.38 input   66.30 | X-H torsion
[ 10763 10752 10751 10750 ] final  109.68 input  -60.55 | X-H torsion
[ 11005 11000 10999 10996 ] final   32.24 input  -57.11 | X-H torsion

> <Gold.Protein.ActiveResidues>
 VAL166  LYS551  ARG553  GLY616  TRP617  ASP618  TYR619  PRO620  LYS621  CYS622 
 ASP623  PHE694  ASN695  SER759  ASP760  ASP761  ALA762  ILE779  LEU786  VAL792 
 PHE793  MET794  SER795  GLU796  ALA797  LYS798  CYS799  TRP800  GLU811  SER814 

> <Gold.Protein.RotatedAtoms>
  150.9693  134.9068  159.7777 H   0  0  0  0  0  0  0  0  0  0  0  0  # atno 6907 bound_to 6896
  152.5184  134.3563  159.9279 H   0  0  0  0  0  0  0  0  0  0  0  0  # atno 6908 bound_to 6896
  151.3573  133.3862  159.2721 H   0  0  0  0  0  0  0  0  0  0  0  0  # atno 6909 bound_to 6896
  146.0485  139.4971  142.9733 H   0  0  0  0  0  0  0  0  0  0  0  0  # atno 7974 bound_to 7965
  156.2886  140.2212  156.5196 H   0  0  0  0  0  0  0  0  0  0  0  0  # atno 8008 bound_to 7997
  154.7540  140.0478  157.0939 H   0  0  0  0  0  0  0  0  0  0  0  0  # atno 8009 bound_to 7997
  155.0074  140.3109  155.4846 H   0  0  0  0  0  0  0  0  0  0  0  0  # atno 8010 bound_to 7997
  139.7126  144.7074  151.1002 H   0  0  0  0  0  0  0  0  0  0  0  0  # atno 10167 bound_to 10162
  156.1456  130.4153  150.0030 H   0  0  0  0  0  0  0  0  0  0  0  0  # atno 10718 bound_to 10713
  153.4382  135.3772  155.2212 H   0  0  0  0  0  0  0  0  0  0  0  0  # atno 10763 bound_to 10752
  154.8753  135.3856  154.4184 H   0  0  0  0  0  0  0  0  0  0  0  0  # atno 10764 bound_to 10752
  153.4726  135.7087  153.6047 H   0  0  0  0  0  0  0  0  0  0  0  0  # atno 10765 bound_to 10752
  140.2755  134.3032  155.7815 H   0  0  0  0  0  0  0  0  0  0  0  0  # atno 11005 bound_to 11000
  145.6765  141.0203  143.1630 LP  0  0  0  0  0  0  0  0  0  0  0  0  # atno 17320 bound_to 7965
  144.7110  139.8371  143.7414 LP  0  0  0  0  0  0  0  0  0  0  0  0  # atno 17321 bound_to 7965
  140.7736  143.5272  150.9466 LP  0  0  0  0  0  0  0  0  0  0  0  0  # atno 17342 bound_to 10162
  139.8957  143.6898  152.3139 LP  0  0  0  0  0  0  0  0  0  0  0  0  # atno 17343 bound_to 10162
  156.7903  130.9253  151.3646 LP  0  0  0  0  0  0  0  0  0  0  0  0  # atno 17370 bound_to 10713
  157.6613  130.8969  149.9837 LP  0  0  0  0  0  0  0  0  0  0  0  0  # atno 17371 bound_to 10713
  141.2171  133.7493  156.9401 LP  0  0  0  0  0  0  0  0  0  0  0  0  # atno 17394 bound_to 11000
  140.1332  134.9342  157.2366 LP  0  0  0  0  0  0  0  0  0  0  0  0  # atno 17395 bound_to 11000

$$$$
