AV-unprocessed.smi:1786|AV-procd|sdf|7204|dock3
  -GOLD-   22720 8443D 1   1.00000     0.00000
 Structure written by MMmdl.
 44 45  0  0  0  0  0  0  0  0  2 V2000
  144.0515  135.9113  151.6517 C   0  0  0  0  0  0  0  0  0  0  0  0
  145.5629  135.7970  151.3553 C   0  0  2  0  0  0  0  0  0  0  0  0
  145.9415  134.4272  150.7535 C   0  0  0  0  0  0  0  0  0  0  0  0
  145.8977  133.3041  151.8003 C   0  0  0  0  0  0  0  0  0  0  0  0
  146.7705  133.6740  153.0056 C   0  0  0  0  0  0  0  0  0  0  0  0
  146.3713  135.0419  153.5828 C   0  0  0  0  0  0  0  0  0  0  0  0
  146.4245  136.1005  152.5373 N   0  3  2  0  0  0  0  0  0  0  0  0
  146.2404  137.4728  153.0745 C   0  0  0  0  0  0  0  0  0  0  0  0
  146.4625  138.5525  151.9990 C   0  0  0  0  0  0  0  0  0  0  0  0
  147.3958  139.5739  152.4565 N   0  0  0  0  0  0  0  0  0  0  0  0
  147.3528  140.1758  153.6578 C   0  0  0  0  0  0  0  0  0  0  0  0
  146.4940  139.9123  154.4988 O   0  0  0  0  0  0  0  0  0  0  0  0
  148.4149  141.2401  153.9852 C   0  0  0  0  0  0  0  0  0  0  0  0
  149.4879  140.7944  154.8923 N   0  0  0  0  0  0  0  0  0  0  0  0
  149.9048  141.7058  155.8828 C   0  0  0  0  0  0  0  0  0  0  0  0
  150.8734  141.4052  156.7623 C   0  0  0  0  0  0  0  0  0  0  0  0
  151.4924  140.1038  156.6769 C   0  0  0  0  0  0  0  0  0  0  0  0
  151.1040  139.2257  155.7308 C   0  0  0  0  0  0  0  0  0  0  0  0
  150.0511  139.5532  154.7623 C   0  0  0  0  0  0  0  0  0  0  0  0
  149.7025  138.7650  153.8834 O   0  0  0  0  0  0  0  0  0  0  0  0
  143.4680  135.7045  150.7541 H   0  0  0  0  0  0  0  0  0  0  0  0
  143.7778  136.9131  151.9822 H   0  0  0  0  0  0  0  0  0  0  0  0
  143.7231  135.2098  152.4180 H   0  0  0  0  0  0  0  0  0  0  0  0
  145.7934  136.5443  150.5947 H   0  0  0  0  0  0  0  0  0  0  0  0
  145.2850  134.1856  149.9168 H   0  0  0  0  0  0  0  0  0  0  0  0
  146.9491  134.4850  150.3391 H   0  0  0  0  0  0  0  0  0  0  0  0
  144.8710  133.1310  152.1244 H   0  0  0  0  0  0  0  0  0  0  0  0
  146.2435  132.3681  151.3606 H   0  0  0  0  0  0  0  0  0  0  0  0
  146.6878  132.9059  153.7752 H   0  0  0  0  0  0  0  0  0  0  0  0
  147.8186  133.6972  152.7042 H   0  0  0  0  0  0  0  0  0  0  0  0
  145.3731  134.9935  154.0189 H   0  0  0  0  0  0  0  0  0  0  0  0
  147.0494  135.2860  154.3999 H   0  0  0  0  0  0  0  0  0  0  0  0
  145.2230  137.5816  153.4533 H   0  0  0  0  0  0  0  0  0  0  0  0
  146.9051  137.6245  153.9264 H   0  0  0  0  0  0  0  0  0  0  0  0
  146.8295  138.1220  151.0668 H   0  0  0  0  0  0  0  0  0  0  0  0
  145.5168  139.0409  151.7627 H   0  0  0  0  0  0  0  0  0  0  0  0
  148.1325  139.8405  151.8189 H   0  0  0  0  0  0  0  0  0  0  0  0
  148.8452  141.5845  153.0437 H   0  0  0  0  0  0  0  0  0  0  0  0
  147.9095  142.1160  154.3956 H   0  0  0  0  0  0  0  0  0  0  0  0
  149.3939  142.6579  155.8761 H   0  0  0  0  0  0  0  0  0  0  0  0
  151.1817  142.1179  157.5131 H   0  0  0  0  0  0  0  0  0  0  0  0
  152.2699  139.8324  157.3758 H   0  0  0  0  0  0  0  0  0  0  0  0
  151.5780  138.2562  155.6830 H   0  0  0  0  0  0  0  0  0  0  0  0
  147.3683  136.0813  152.1780 H   0  0  0  0  0  0  0  0  0  0  0  0
  1  2  1  0  0  0  0
  1 21  1  0  0  0  0
  1 22  1  0  0  0  0
  1 23  1  0  0  0  0
  2  7  1  0  0  0  0
  2  3  1  0  0  0  0
  2 24  1  0  0  0  0
  3  4  1  0  0  0  0
  3 25  1  0  0  0  0
  3 26  1  0  0  0  0
  4  5  1  0  0  0  0
  4 27  1  0  0  0  0
  4 28  1  0  0  0  0
  5  6  1  0  0  0  0
  5 29  1  0  0  0  0
  5 30  1  0  0  0  0
  6  7  1  0  0  0  0
  6 31  1  0  0  0  0
  6 32  1  0  0  0  0
  7  8  1  0  0  0  0
  7 44  1  0  0  0  0
  8  9  1  0  0  0  0
  8 33  1  0  0  0  0
  8 34  1  0  0  0  0
  9 10  1  0  0  0  0
  9 35  1  0  0  0  0
  9 36  1  0  0  0  0
 10 11  1  0  0  0  0
 10 37  1  0  0  0  0
 11 12  2  0  0  0  0
 11 13  1  0  0  0  0
 13 14  1  0  0  0  0
 13 38  1  0  0  0  0
 13 39  1  0  0  0  0
 14 19  1  0  0  0  0
 14 15  1  0  0  0  0
 15 16  2  0  0  0  0
 15 40  1  0  0  0  0
 16 17  1  0  0  0  0
 16 41  1  0  0  0  0
 17 18  2  0  0  0  0
 17 42  1  0  0  0  0
 18 19  1  0  0  0  0
 18 43  1  0  0  0  0
 19 20  2  0  0  0  0
M  CHG  1   7   1
M  END
> <s_m_source_file>
AV-unprocessed.smi

> <i_m_source_file_index>
1786

> <i_lp_mmshare_version>
43012

> <i_f3d_flags>
0

> <s_epik_input>
W0NIM11bQ0BASF0xW0NIMl1bQ0gyXVtDSDJdW0NIMl1OMVtDSDJdW0NIMl1bTkhdQyg9TylbQ0gyXW4yW2NIXVtjSF1bY0hdW2NIXWMyPU8=

> <s_epik_cmdline>
J2VwaWtfcHl0aG9uJywgJy1waCcsICc3LjAnLCAnLXRuJywgJzgnLCAnLW1hJywgJzIwMCcsICctbWV0YWxfYmluZGluZycsICctaW1hZScsICc8aW5maWxlLm1hZT4nLCAnLW9tYWUnLCAnPG91dGZpbGUubWFlPic=

> <r_lp_tautomer_probability>
1

> <r_epik_Ionization_Penalty>
0.00237247

> <r_epik_Ionization_Penalty_Charging>
0.00237238

> <r_epik_Ionization_Penalty_Neutral>
8.2065e-08

> <r_epik_State_Penalty>
0.00163922

> <r_epik_Charging_Adjusted_Penalty>
0.0040116

> <i_epik_Tot_Q>
1

> <i_epik_Tot_abs_Q>
1

> <r_epik_Metal_State_Penalty>
-0

> <b_epik_Metal_Only>
0

> <s_lp_Force_Field>
OPLS_2005

> <r_lp_Energy>
28.5406

> <b_lp_Chiralities_Consistent>
1

> <s_lp_Variant>
AV-unprocessed.smi:1786-3

> <Gold.Version>
5.8.1

> <Gold.Id.Protein>
6NUR|6NUR_protein|mol2

> <Gold.PLP.Fitness>
47.9443

> <Gold.PLP.PLP>
-37.7037

> <Gold.PLP.part.hbond>
-1.9391

> <Gold.PLP.part.metal>
0.0000

> <Gold.PLP.part.buried>
-1.7014

> <Gold.PLP.part.nonpolar>
-34.3607

> <Gold.PLP.part.repulsive>
1.6273

> <Gold.PLP.ligand.clash>
0.0005

> <Gold.PLP.ligand.torsion>
0.9234

> <Gold.PLP.Chemscore.Hbond>
3.0000

> <Gold.PLP.Chemscore.CHOScore>
1.0000

> <Gold.PLP.Chemscore.Metal>
0.0000

> <Gold.Chemscore.Hbonds>
donor molecule, donor type, donor heavy atom, donor atom, acceptor molecule, acceptor atom, score
      L1  H     7    44       P1  7948  2.00
      L1  H    10    37       P1  7957  1.00
      L1  C    15    40       P1  8028  1.00

> <Gold.PLP.Chemscore.Internal.Correction>
0.0879

> <Gold.Rescore>
     Score         DG    S(hbond)    S(metal)    S(lipo)     H(rot)  DE(clash)    DE(int)     intcor
     12.79     -15.69       1.98        0.00      71.49       1.86       0.05       2.85       ----

> <Gold.Chemscore.Fitness>
12.7889

> <Gold.Chemscore.DG>
-15.6943

> <Gold.Chemscore.ZeroCoef>
-5.4800

> <Gold.Chemscore.Hbond>
1.9785

> <Gold.Chemscore.Metal>
0.0000

> <Gold.Chemscore.Lipo>
71.4893

> <Gold.Chemscore.Internal_Hbond>
0.0000

> <Gold.Chemscore.DEClash>
0.0546

> <Gold.Chemscore.DEInternal>
2.8509

> <Gold.Chemscore.Rot>
1.8586

> <Gold.Chemscore.Internal.Correction>
   9.000000E+99

> <Gold.Chemscore.Hbonds>
donor molecule, donor type, donor heavy atom, donor atom, acceptor molecule, acceptor atom, score
      L1  H     7    44       P1  7948  0.99
      L1  H    10    37       P1  7957  0.98

> <Gold.Chemscore.Hbond.Weighted>
-6.6082

> <Gold.Chemscore.Metal.Weighted>
-0.0000

> <Gold.Chemscore.Lipo.Weighted>
-8.3643

> <Gold.Chemscore.Internal_Hbond.Weighted>
0.0000

> <Gold.Chemscore.DEClash.Weighted>
0.0546

> <Gold.Chemscore.DEInternal.Weighted>
2.8509

> <Gold.Chemscore.Rot.Weighted>
4.7581

> <Gold.Chemscore.Internal.Correction.Weighted>
   9.000000E+99

> <Gold.Protein.RotatedTorsions>
[ 6907 6896 6895 6894 ] final  -27.19 input  -60.11 | X-H torsion
[ 7974 7965 7964 7962 ] final  -36.43 input  175.53 | X-H torsion
[ 8008 7997 7996 7995 ] final  136.47 input   59.86 | X-H torsion
[ 10167 10162 10161 10158 ] final  -12.70 input  -65.29 | X-H torsion
[ 10718 10713 10712 10709 ] final   76.80 input   66.30 | X-H torsion
[ 10763 10752 10751 10750 ] final  108.77 input  -60.55 | X-H torsion
[ 11005 11000 10999 10996 ] final  167.11 input  -57.11 | X-H torsion

> <Gold.Protein.ActiveResidues>
 VAL166  LYS551  ARG553  GLY616  TRP617  ASP618  TYR619  PRO620  LYS621  CYS622 
 ASP623  PHE694  ASN695  SER759  ASP760  ASP761  ALA762  ILE779  LEU786  VAL792 
 PHE793  MET794  SER795  GLU796  ALA797  LYS798  CYS799  TRP800  GLU811  SER814 

> <Gold.Protein.RotatedAtoms>
  151.1504  135.0224  159.8665 H   0  0  0  0  0  0  0  0  0  0  0  0  # atno 6907 bound_to 6896
  152.5453  134.1395  159.8483 H   0  0  0  0  0  0  0  0  0  0  0  0  # atno 6908 bound_to 6896
  151.1479  133.4881  159.2628 H   0  0  0  0  0  0  0  0  0  0  0  0  # atno 6909 bound_to 6896
  146.0662  140.6277  142.8974 H   0  0  0  0  0  0  0  0  0  0  0  0  # atno 7974 bound_to 7965
  156.3004  140.2444  156.3751 H   0  0  0  0  0  0  0  0  0  0  0  0  # atno 8008 bound_to 7997
  154.8753  140.0414  157.1769 H   0  0  0  0  0  0  0  0  0  0  0  0  # atno 8009 bound_to 7997
  154.8752  140.2941  155.5461 H   0  0  0  0  0  0  0  0  0  0  0  0  # atno 8010 bound_to 7997
  140.7167  143.5504  150.9307 H   0  0  0  0  0  0  0  0  0  0  0  0  # atno 10167 bound_to 10162
  157.6687  130.9792  150.1550 H   0  0  0  0  0  0  0  0  0  0  0  0  # atno 10718 bound_to 10713
  153.4253  135.3801  155.2137 H   0  0  0  0  0  0  0  0  0  0  0  0  # atno 10763 bound_to 10752
  154.8747  135.3827  154.4334 H   0  0  0  0  0  0  0  0  0  0  0  0  # atno 10764 bound_to 10752
  153.4859  135.7088  153.5974 H   0  0  0  0  0  0  0  0  0  0  0  0  # atno 10765 bound_to 10752
  140.2733  134.7809  157.3695 H   0  0  0  0  0  0  0  0  0  0  0  0  # atno 11005 bound_to 11000
  144.7204  140.4353  143.7012 LP  0  0  0  0  0  0  0  0  0  0  0  0  # atno 17320 bound_to 7965
  145.6473  139.1559  143.2882 LP  0  0  0  0  0  0  0  0  0  0  0  0  # atno 17321 bound_to 7965
  139.9228  143.6585  152.3093 LP  0  0  0  0  0  0  0  0  0  0  0  0  # atno 17342 bound_to 10162
  139.7008  144.7635  151.1276 LP  0  0  0  0  0  0  0  0  0  0  0  0  # atno 17343 bound_to 10162
  156.2340  130.3684  149.8412 LP  0  0  0  0  0  0  0  0  0  0  0  0  # atno 17370 bound_to 10713
  156.6231  130.8634  151.3479 LP  0  0  0  0  0  0  0  0  0  0  0  0  # atno 17371 bound_to 10713
  140.1352  134.5043  155.8074 LP  0  0  0  0  0  0  0  0  0  0  0  0  # atno 17394 bound_to 11000
  141.2174  133.6804  156.7111 LP  0  0  0  0  0  0  0  0  0  0  0  0  # atno 17395 bound_to 11000

$$$$
