AV-unprocessed.smi:6|AV-procd|sdf|40|dock4
  -GOLD-   2262015153D 1   1.00000     0.00000
 Structure written by MMmdl.
 38 39  0  0  0  0  0  0  0  0  2 V2000
  153.2291  143.4015  163.1352 C   0  0  0  0  0  0  0  0  0  0  0  0
  152.7185  142.6491  161.8967 C   0  0  0  0  0  0  0  0  0  0  0  0
  153.7347  141.6355  161.3488 C   0  0  0  0  0  0  0  0  0  0  0  0
  152.2233  143.5986  160.8151 C   0  0  0  0  0  0  0  0  0  0  0  0
  152.2390  144.9205  161.0521 N   0  3  0  0  0  0  0  0  0  0  0  0
  151.7922  145.7783  160.1024 C   0  0  0  0  0  0  0  0  0  0  0  0
  151.3139  145.2922  158.8712 C   0  0  0  0  0  0  0  0  0  0  0  0
  151.3267  143.8989  158.6876 C   0  0  0  0  0  0  0  0  0  0  0  0
  150.8611  143.3553  157.4825 N   0  0  0  0  0  0  0  0  0  0  0  0
  151.6310  142.3231  156.7982 C   0  0  0  0  0  0  0  0  0  0  0  0
  150.7610  141.3541  156.0124 C   0  0  0  0  0  0  0  0  0  0  0  0
  149.5699  141.7304  155.4805 C   0  0  0  0  0  0  0  0  0  0  0  0
  148.7616  140.8836  154.7385 N   0  0  0  0  0  0  0  0  0  0  0  0
  147.5001  141.2886  154.1809 C   0  0  0  0  0  0  0  0  0  0  0  0
  149.1705  139.5557  154.4963 C   0  0  0  0  0  0  0  0  0  0  0  0
  148.4998  138.7520  153.8482 O   0  0  0  0  0  0  0  0  0  0  0  0
  150.4004  139.1731  155.0299 N   0  0  0  0  0  0  0  0  0  0  0  0
  151.2500  139.9891  155.7832 C   0  0  0  0  0  0  0  0  0  0  0  0
  152.3166  139.5363  156.1957 O   0  0  0  0  0  0  0  0  0  0  0  0
  151.7787  143.0785  159.6618 N   0  0  0  0  0  0  0  0  0  0  0  0
  150.7036  138.2257  154.8559 H   0  0  0  0  0  0  0  0  0  0  0  0
  152.4566  144.0519  163.5461 H   0  0  0  0  0  0  0  0  0  0  0  0
  154.0946  144.0208  162.8971 H   0  0  0  0  0  0  0  0  0  0  0  0
  153.5274  142.7063  163.9205 H   0  0  0  0  0  0  0  0  0  0  0  0
  151.8558  142.0682  162.2276 H   0  0  0  0  0  0  0  0  0  0  0  0
  153.3118  141.0642  160.5218 H   0  0  0  0  0  0  0  0  0  0  0  0
  154.0356  140.9261  162.1200 H   0  0  0  0  0  0  0  0  0  0  0  0
  154.6357  142.1308  160.9854 H   0  0  0  0  0  0  0  0  0  0  0  0
  151.8312  146.8266  160.3598 H   0  0  0  0  0  0  0  0  0  0  0  0
  150.9532  145.9639  158.1057 H   0  0  0  0  0  0  0  0  0  0  0  0
  150.1707  143.8671  156.9518 H   0  0  0  0  0  0  0  0  0  0  0  0
  152.3447  142.8040  156.1282 H   0  0  0  0  0  0  0  0  0  0  0  0
  152.2132  141.7511  157.5220 H   0  0  0  0  0  0  0  0  0  0  0  0
  149.2348  142.7441  155.6476 H   0  0  0  0  0  0  0  0  0  0  0  0
  146.7254  140.6537  154.6154 H   0  0  0  0  0  0  0  0  0  0  0  0
  147.5641  141.1763  153.0967 H   0  0  0  0  0  0  0  0  0  0  0  0
  147.3262  142.3326  154.4436 H   0  0  0  0  0  0  0  0  0  0  0  0
  152.5813  145.2863  161.9410 H   0  0  0  0  0  0  0  0  0  0  0  0
  1  2  1  0  0  0  0
  1 22  1  0  0  0  0
  1 23  1  0  0  0  0
  1 24  1  0  0  0  0
  2  3  1  0  0  0  0
  2  4  1  0  0  0  0
  2 25  1  0  0  0  0
  3 26  1  0  0  0  0
  3 27  1  0  0  0  0
  3 28  1  0  0  0  0
  4 20  1  0  0  0  0
  4  5  2  0  0  0  0
  5  6  1  0  0  0  0
  5 38  1  0  0  0  0
  6  7  2  0  0  0  0
  6 29  1  0  0  0  0
  7  8  1  0  0  0  0
  7 30  1  0  0  0  0
  8  9  1  0  0  0  0
  8 20  2  0  0  0  0
  9 10  1  0  0  0  0
  9 31  1  0  0  0  0
 10 11  1  0  0  0  0
 10 32  1  0  0  0  0
 10 33  1  0  0  0  0
 11 18  1  0  0  0  0
 11 12  2  0  0  0  0
 12 13  1  0  0  0  0
 12 34  1  0  0  0  0
 13 14  1  0  0  0  0
 13 15  1  0  0  0  0
 14 35  1  0  0  0  0
 14 36  1  0  0  0  0
 14 37  1  0  0  0  0
 15 16  2  0  0  0  0
 15 17  1  0  0  0  0
 17 21  1  0  0  0  0
 17 18  1  0  0  0  0
 18 19  2  0  0  0  0
M  CHG  1   5   1
M  END
> <s_m_source_file>
AV-unprocessed.smi

> <i_m_source_file_index>
6

> <i_lp_mmshare_version>
43012

> <i_f3d_flags>
0

> <s_epik_input>
W0NIM11bQ0hdKFtDSDNdKWMxbltjSF1bY0hdYyhuMSlbTkhdW0NIMl1jMltjSF1uKFtDSDNdKWMoPU8pW25IXWMyPU8=

> <s_epik_cmdline>
J2VwaWtfcHl0aG9uJywgJy1waCcsICc3LjAnLCAnLXRuJywgJzgnLCAnLW1hJywgJzIwMCcsICctbWV0YWxfYmluZGluZycsICctaW1hZScsICc8aW5maWxlLm1hZT4nLCAnLW9tYWUnLCAnPG91dGZpbGUubWFlPic=

> <r_lp_tautomer_probability>
0.998874

> <r_epik_Ionization_Penalty>
0.537311

> <r_epik_Ionization_Penalty_Charging>
0.537291

> <r_epik_Ionization_Penalty_Neutral>
2.09214e-05

> <r_epik_State_Penalty>
0.545757

> <r_epik_Charging_Adjusted_Penalty>
1.08305

> <i_epik_Tot_Q>
1

> <i_epik_Tot_abs_Q>
1

> <r_epik_Metal_State_Penalty>
0.947272

> <b_epik_Metal_Only>
0

> <s_lp_Force_Field>
OPLS_2005

> <r_lp_Energy>
10.386

> <b_lp_Chiralities_Consistent>
1

> <s_lp_Variant>
AV-unprocessed.smi:6-2

> <Gold.Version>
5.8.1

> <Gold.Id.Protein>
6NUR|6NUR_protein|mol2

> <Gold.PLP.Fitness>
52.6853

> <Gold.PLP.PLP>
-45.6959

> <Gold.PLP.part.hbond>
-2.5387

> <Gold.PLP.part.metal>
0.0000

> <Gold.PLP.part.buried>
-5.6144

> <Gold.PLP.part.nonpolar>
-37.9305

> <Gold.PLP.part.repulsive>
1.0693

> <Gold.PLP.ligand.clash>
0.0000

> <Gold.PLP.ligand.torsion>
1.0441

> <Gold.PLP.Chemscore.Hbond>
2.0000

> <Gold.PLP.Chemscore.CHOScore>
1.0000

> <Gold.PLP.Chemscore.Metal>
0.0000

> <Gold.Chemscore.Hbonds>
donor molecule, donor type, donor heavy atom, donor atom, acceptor molecule, acceptor atom, score
      L1  H     9    31       P1  8028  1.00
      P1  H  7997  8008       L1    19  0.80
      L1  C    12    34       P1  8028  0.93

> <Gold.PLP.Chemscore.Internal.Correction>
0.0775

> <Gold.Rescore>
     Score         DG    S(hbond)    S(metal)    S(lipo)     H(rot)  DE(clash)    DE(int)     intcor
     14.63     -17.55       1.96        0.00      83.99       1.68       1.84       1.08       ----

> <Gold.Chemscore.Fitness>
14.6268

> <Gold.Chemscore.DG>
-17.5478

> <Gold.Chemscore.ZeroCoef>
-5.4800

> <Gold.Chemscore.Hbond>
1.9580

> <Gold.Chemscore.Metal>
0.0000

> <Gold.Chemscore.Lipo>
83.9855

> <Gold.Chemscore.Internal_Hbond>
0.0000

> <Gold.Chemscore.DEClash>
1.8386

> <Gold.Chemscore.DEInternal>
1.0824

> <Gold.Chemscore.Rot>
1.6789

> <Gold.Chemscore.Internal.Correction>
   9.000000E+99

> <Gold.Chemscore.Hbonds>
donor molecule, donor type, donor heavy atom, donor atom, acceptor molecule, acceptor atom, score
      L1  H     9    31       P1  8028  0.95
      P1  H  7997  8008       L1    19  0.79

> <Gold.Chemscore.Hbond.Weighted>
-6.5396

> <Gold.Chemscore.Metal.Weighted>
-0.0000

> <Gold.Chemscore.Lipo.Weighted>
-9.8263

> <Gold.Chemscore.Internal_Hbond.Weighted>
0.0000

> <Gold.Chemscore.DEClash.Weighted>
1.8386

> <Gold.Chemscore.DEInternal.Weighted>
1.0824

> <Gold.Chemscore.Rot.Weighted>
4.2980

> <Gold.Chemscore.Internal.Correction.Weighted>
   9.000000E+99

> <Gold.Protein.RotatedTorsions>
[ 6907 6896 6895 6894 ] final  119.35 input  -60.11 | X-H torsion
[ 7974 7965 7964 7962 ] final   54.97 input  175.53 | X-H torsion
[ 8008 7997 7996 7995 ] final  -37.22 input   59.86 | X-H torsion
[ 10167 10162 10161 10158 ] final  144.62 input  -65.29 | X-H torsion
[ 10718 10713 10712 10709 ] final  -55.55 input   66.30 | X-H torsion
[ 10763 10752 10751 10750 ] final   96.38 input  -60.55 | X-H torsion
[ 11005 11000 10999 10996 ] final   17.67 input  -57.11 | X-H torsion

> <Gold.Protein.ActiveResidues>
 VAL166  LYS551  ARG553  GLY616  TRP617  ASP618  TYR619  PRO620  LYS621  CYS622 
 ASP623  PHE694  ASN695  SER759  ASP760  ASP761  ALA762  ILE779  LEU786  VAL792 
 PHE793  MET794  SER795  GLU796  ALA797  LYS798  CYS799  TRP800  GLU811  SER814 

> <Gold.Protein.RotatedAtoms>
  152.4478  133.7570  159.6725 H   0  0  0  0  0  0  0  0  0  0  0  0  # atno 6907 bound_to 6896
  150.8382  133.7969  159.3077 H   0  0  0  0  0  0  0  0  0  0  0  0  # atno 6908 bound_to 6896
  151.5602  135.1068  160.0022 H   0  0  0  0  0  0  0  0  0  0  0  0  # atno 6909 bound_to 6896
  145.9553  139.4009  143.0281 H   0  0  0  0  0  0  0  0  0  0  0  0  # atno 7974 bound_to 7965
  154.4057  140.1610  156.2502 H   0  0  0  0  0  0  0  0  0  0  0  0  # atno 8008 bound_to 7997
  155.9126  140.3426  155.6088 H   0  0  0  0  0  0  0  0  0  0  0  0  # atno 8009 bound_to 7997
  155.7318  140.0781  157.2276 H   0  0  0  0  0  0  0  0  0  0  0  0  # atno 8010 bound_to 7997
  139.4943  144.5959  151.6584 H   0  0  0  0  0  0  0  0  0  0  0  0  # atno 10167 bound_to 10162
  156.1359  130.4157  150.0187 H   0  0  0  0  0  0  0  0  0  0  0  0  # atno 10718 bound_to 10713
  153.2643  135.4220  155.0925 H   0  0  0  0  0  0  0  0  0  0  0  0  # atno 10763 bound_to 10752
  154.8432  135.3456  154.6334 H   0  0  0  0  0  0  0  0  0  0  0  0  # atno 10764 bound_to 10752
  153.6754  135.7041  153.5191 H   0  0  0  0  0  0  0  0  0  0  0  0  # atno 10765 bound_to 10752
  140.4333  134.1397  155.7683 H   0  0  0  0  0  0  0  0  0  0  0  0  # atno 11005 bound_to 11000
  145.8114  140.9724  143.0946 LP  0  0  0  0  0  0  0  0  0  0  0  0  # atno 17320 bound_to 7965
  144.6804  139.9926  143.7484 LP  0  0  0  0  0  0  0  0  0  0  0  0  # atno 17321 bound_to 7965
  140.5597  144.0289  150.6164 LP  0  0  0  0  0  0  0  0  0  0  0  0  # atno 17342 bound_to 10162
  140.3371  143.3042  152.0627 LP  0  0  0  0  0  0  0  0  0  0  0  0  # atno 17343 bound_to 10162
  156.8086  130.9316  151.3644 LP  0  0  0  0  0  0  0  0  0  0  0  0  # atno 17370 bound_to 10713
  157.6532  130.8902  149.9675 LP  0  0  0  0  0  0  0  0  0  0  0  0  # atno 17371 bound_to 10713
  141.1736  133.8559  157.1492 LP  0  0  0  0  0  0  0  0  0  0  0  0  # atno 17394 bound_to 11000
  140.0119  134.9984  157.0413 LP  0  0  0  0  0  0  0  0  0  0  0  0  # atno 17395 bound_to 11000

$$$$
