AV-unprocessed.smi:2090|AV-procd|sdf|8535|dock3
  -GOLD-   2272011253D 1   1.00000     0.00000
 Structure written by MMmdl.
 41 42  0  0  0  0  0  0  0  0  3 V2000
  150.8945  141.1535  156.0399 C   0  0  0  0  0  0  0  0  0  0  0  0
  151.2350  139.7649  155.6188 C   0  0  0  0  0  0  0  0  0  0  0  0
  150.4908  138.6270  155.4864 C   0  0  0  0  0  0  0  0  0  0  0  0
  151.4398  137.6688  155.0365 C   0  0  0  0  0  0  0  0  0  0  0  0
  151.1881  136.3777  154.7701 N   0  5  0  0  0  0  0  0  0  0  0  0
  150.1451  135.7515  155.3609 C   0  0  0  0  0  0  0  0  0  0  0  0
  150.1133  135.3026  156.5089 O   0  0  0  0  0  0  0  0  0  0  0  0
  149.0705  135.6348  154.5699 N   0  0  0  0  0  0  0  0  0  0  0  0
  147.8148  135.0004  154.9456 C   0  0  0  0  0  0  0  0  0  0  0  0
  146.6408  135.6714  154.2167 C   0  0  0  0  0  0  0  0  0  0  0  0
  146.4142  135.0987  152.8662 N   0  3  2  0  0  0  0  0  0  0  0  0
  145.2291  135.6940  152.1967 C   0  0  0  0  0  0  0  0  0  0  0  0
  145.0926  135.1896  150.7489 C   0  0  0  0  0  0  0  0  0  0  0  0
  145.0388  133.6534  150.6708 C   0  0  2  0  0  0  0  0  0  0  0  0
  143.6922  133.0801  151.1463 C   0  0  0  0  0  0  0  0  0  0  0  0
  146.2402  133.0612  151.4297 C   0  0  0  0  0  0  0  0  0  0  0  0
  146.3558  133.6126  152.8626 C   0  0  0  0  0  0  0  0  0  0  0  0
  152.6562  138.1758  154.9242 N   0  0  0  0  0  0  0  0  0  0  0  0
  152.5317  139.5221  155.2881 O   0  0  0  0  0  0  0  0  0  0  0  0
  150.2253  141.1428  156.9003 H   0  0  0  0  0  0  0  0  0  0  0  0
  150.3971  141.6889  155.2315 H   0  0  0  0  0  0  0  0  0  0  0  0
  151.7895  141.7114  156.3160 H   0  0  0  0  0  0  0  0  0  0  0  0
  149.4358  138.5001  155.6768 H   0  0  0  0  0  0  0  0  0  0  0  0
  149.1358  136.0185  153.6384 H   0  0  0  0  0  0  0  0  0  0  0  0
  147.8455  133.9387  154.6953 H   0  0  0  0  0  0  0  0  0  0  0  0
  147.7065  135.0755  156.0275 H   0  0  0  0  0  0  0  0  0  0  0  0
  145.7254  135.6058  154.8071 H   0  0  0  0  0  0  0  0  0  0  0  0
  146.8700  136.7343  154.1224 H   0  0  0  0  0  0  0  0  0  0  0  0
  144.3300  135.4652  152.7703 H   0  0  0  0  0  0  0  0  0  0  0  0
  145.3232  136.7805  152.1831 H   0  0  0  0  0  0  0  0  0  0  0  0
  144.2075  135.6236  150.2825 H   0  0  0  0  0  0  0  0  0  0  0  0
  145.9447  135.5473  150.1689 H   0  0  0  0  0  0  0  0  0  0  0  0
  145.1400  133.3728  149.6216 H   0  0  0  0  0  0  0  0  0  0  0  0
  143.4970  133.3005  152.1954 H   0  0  0  0  0  0  0  0  0  0  0  0
  143.6658  131.9968  151.0271 H   0  0  0  0  0  0  0  0  0  0  0  0
  142.8667  133.4917  150.5649 H   0  0  0  0  0  0  0  0  0  0  0  0
  146.1741  131.9729  151.4518 H   0  0  0  0  0  0  0  0  0  0  0  0
  147.1569  133.2962  150.8867 H   0  0  0  0  0  0  0  0  0  0  0  0
  147.2526  133.1991  153.3224 H   0  0  0  0  0  0  0  0  0  0  0  0
  145.5137  133.2771  153.4692 H   0  0  0  0  0  0  0  0  0  0  0  0
  147.2133  135.3640  152.3083 H   0  0  0  0  0  0  0  0  0  0  0  0
  1  2  1  0  0  0  0
  1 20  1  0  0  0  0
  1 21  1  0  0  0  0
  1 22  1  0  0  0  0
  2 19  1  0  0  0  0
  2  3  2  0  0  0  0
  3  4  1  0  0  0  0
  3 23  1  0  0  0  0
  4  5  1  0  0  0  0
  4 18  2  0  0  0  0
  5  6  1  0  0  0  0
  6  7  2  0  0  0  0
  6  8  1  0  0  0  0
  8  9  1  0  0  0  0
  8 24  1  0  0  0  0
  9 10  1  0  0  0  0
  9 25  1  0  0  0  0
  9 26  1  0  0  0  0
 10 11  1  0  0  0  0
 10 27  1  0  0  0  0
 10 28  1  0  0  0  0
 11 17  1  0  0  0  0
 11 12  1  0  0  0  0
 11 41  1  0  0  0  0
 12 13  1  0  0  0  0
 12 29  1  0  0  0  0
 12 30  1  0  0  0  0
 13 14  1  0  0  0  0
 13 31  1  0  0  0  0
 13 32  1  0  0  0  0
 14 15  1  0  0  0  0
 14 16  1  0  0  0  0
 14 33  1  0  0  0  0
 15 34  1  0  0  0  0
 15 35  1  0  0  0  0
 15 36  1  0  0  0  0
 16 17  1  0  0  0  0
 16 37  1  0  0  0  0
 16 38  1  0  0  0  0
 17 39  1  0  0  0  0
 17 40  1  0  0  0  0
 18 19  1  0  0  0  0
M  CHG  1   5  -1
M  CHG  1  11   1
M  END
> <s_m_source_file>
AV-unprocessed.smi

> <i_m_source_file_index>
2090

> <i_lp_mmshare_version>
43012

> <i_f3d_flags>
0

> <s_epik_input>
W0NIM11jMVtjSF1jKG5vMSlbTkhdQyg9TylbTkhdW0NIMl1bQ0gyXU4yW0NIMl1bQ0gyXVtDSF0oW0NIM10pW0NIMl1bQ0gyXTI=

> <s_epik_cmdline>
J2VwaWtfcHl0aG9uJywgJy1waCcsICc3LjAnLCAnLXRuJywgJzgnLCAnLW1hJywgJzIwMCcsICctbWV0YWxfYmluZGluZycsICctaW1hZScsICc8aW5maWxlLm1hZT4nLCAnLW9tYWUnLCAnPG91dGZpbGUubWFlPic=

> <r_epik_Ionization_Penalty>
6.22503

> <r_epik_Ionization_Penalty_Charging>
6.22494

> <r_epik_Ionization_Penalty_Neutral>
9.3589e-05

> <r_epik_State_Penalty>
6.22491

> <r_epik_Charging_Adjusted_Penalty>
12.4498

> <i_epik_Tot_Q>
0

> <i_epik_Tot_abs_Q>
2

> <r_epik_Metal_State_Penalty>
2.16853

> <b_epik_Metal_Only>
1

> <s_lp_Force_Field>
OPLS_2005

> <r_lp_Energy>
7.06079

> <b_lp_Chiralities_Consistent>
1

> <s_lp_Variant>
AV-unprocessed.smi:2090-4

> <Gold.Version>
5.8.1

> <Gold.Id.Protein>
6NUR|6NUR_protein|mol2

> <Gold.PLP.Fitness>
48.7185

> <Gold.PLP.PLP>
-33.2171

> <Gold.PLP.part.hbond>
-5.2446

> <Gold.PLP.part.metal>
0.0000

> <Gold.PLP.part.buried>
-4.3202

> <Gold.PLP.part.nonpolar>
-23.3528

> <Gold.PLP.part.repulsive>
0.5232

> <Gold.PLP.ligand.clash>
0.0000

> <Gold.PLP.ligand.torsion>
1.2260

> <Gold.PLP.Chemscore.Hbond>
5.9750

> <Gold.PLP.Chemscore.CHOScore>
0.0000

> <Gold.PLP.Chemscore.Metal>
0.0000

> <Gold.Chemscore.Hbonds>
donor molecule, donor type, donor heavy atom, donor atom, acceptor molecule, acceptor atom, score
      L1  H     8    24       P1  7948  1.00
      L1  H    11    41       P1  7948  2.00
      P1  H  7997  8009       L1    19  0.81
      P1  H 10752 10764       L1     5  2.00

> <Gold.PLP.Chemscore.Internal.Correction>
0.0284

> <Gold.Rescore>
     Score         DG    S(hbond)    S(metal)    S(lipo)     H(rot)  DE(clash)    DE(int)     intcor
     18.28     -19.65       3.33        0.00      59.83       1.54       0.19       1.18       ----

> <Gold.Chemscore.Fitness>
18.2793

> <Gold.Chemscore.DG>
-19.6500

> <Gold.Chemscore.ZeroCoef>
-5.4800

> <Gold.Chemscore.Hbond>
3.3278

> <Gold.Chemscore.Metal>
0.0000

> <Gold.Chemscore.Lipo>
59.8284

> <Gold.Chemscore.Internal_Hbond>
0.0000

> <Gold.Chemscore.DEClash>
0.1944

> <Gold.Chemscore.DEInternal>
1.1763

> <Gold.Chemscore.Rot>
1.5409

> <Gold.Chemscore.Internal.Correction>
   9.000000E+99

> <Gold.Chemscore.Hbonds>
donor molecule, donor type, donor heavy atom, donor atom, acceptor molecule, acceptor atom, score
      L1  H     8    24       P1  7948  0.90
      L1  H    11    41       P1  7948  0.98
      P1  H  7997  8009       L1    19  0.51
      P1  H 10752 10764       L1     5  0.45

> <Gold.Chemscore.Hbond.Weighted>
-11.1147

> <Gold.Chemscore.Metal.Weighted>
-0.0000

> <Gold.Chemscore.Lipo.Weighted>
-6.9999

> <Gold.Chemscore.Internal_Hbond.Weighted>
0.0000

> <Gold.Chemscore.DEClash.Weighted>
0.1944

> <Gold.Chemscore.DEInternal.Weighted>
1.1763

> <Gold.Chemscore.Rot.Weighted>
3.9446

> <Gold.Chemscore.Internal.Correction.Weighted>
   9.000000E+99

> <Gold.Protein.RotatedTorsions>
[ 6907 6896 6895 6894 ] final   50.34 input  -60.11 | X-H torsion
[ 7974 7965 7964 7962 ] final -173.18 input  175.53 | X-H torsion
[ 8008 7997 7996 7995 ] final -138.96 input   59.86 | X-H torsion
[ 10167 10162 10161 10158 ] final  -34.61 input  -65.29 | X-H torsion
[ 10718 10713 10712 10709 ] final  -72.77 input   66.30 | X-H torsion
[ 10763 10752 10751 10750 ] final  -70.57 input  -60.55 | X-H torsion
[ 11005 11000 10999 10996 ] final -168.94 input  -57.11 | X-H torsion

> <Gold.Protein.ActiveResidues>
 VAL166  LYS551  ARG553  GLY616  TRP617  ASP618  TYR619  PRO620  LYS621  CYS622 
 ASP623  PHE694  ASN695  SER759  ASP760  ASP761  ALA762  ILE779  LEU786  VAL792 
 PHE793  MET794  SER795  GLU796  ALA797  LYS798  CYS799  TRP800  GLU811  SER814 

> <Gold.Protein.RotatedAtoms>
  152.3008  134.7614  160.0358 H   0  0  0  0  0  0  0  0  0  0  0  0  # atno 6907 bound_to 6896
  151.8128  133.3378  159.3568 H   0  0  0  0  0  0  0  0  0  0  0  0  # atno 6908 bound_to 6896
  150.7273  134.5578  159.5871 H   0  0  0  0  0  0  0  0  0  0  0  0  # atno 6909 bound_to 6896
  144.7140  140.1661  143.6372 H   0  0  0  0  0  0  0  0  0  0  0  0  # atno 7974 bound_to 7965
  155.4369  140.0529  157.3014 H   0  0  0  0  0  0  0  0  0  0  0  0  # atno 8008 bound_to 7997
  154.4835  140.2091  155.9666 H   0  0  0  0  0  0  0  0  0  0  0  0  # atno 8009 bound_to 7997
  156.1241  140.3183  155.8256 H   0  0  0  0  0  0  0  0  0  0  0  0  # atno 8010 bound_to 7997
  140.7182  143.3535  151.2106 H   0  0  0  0  0  0  0  0  0  0  0  0  # atno 10167 bound_to 10162
  156.0307  130.4379  150.2643 H   0  0  0  0  0  0  0  0  0  0  0  0  # atno 10718 bound_to 10713
  154.4196  135.5990  153.6002 H   0  0  0  0  0  0  0  0  0  0  0  0  # atno 10763 bound_to 10752
  152.9793  135.5949  154.3971 H   0  0  0  0  0  0  0  0  0  0  0  0  # atno 10764 bound_to 10752
  154.3795  135.2841  155.2198 H   0  0  0  0  0  0  0  0  0  0  0  0  # atno 10765 bound_to 10752
  140.5364  134.5566  157.5088 H   0  0  0  0  0  0  0  0  0  0  0  0  # atno 11005 bound_to 11000
  145.8986  139.2417  143.1507 LP  0  0  0  0  0  0  0  0  0  0  0  0  # atno 17320 bound_to 7965
  145.9833  140.8665  143.0103 LP  0  0  0  0  0  0  0  0  0  0  0  0  # atno 17321 bound_to 7965
  139.7072  143.9436  152.2932 LP  0  0  0  0  0  0  0  0  0  0  0  0  # atno 17342 bound_to 10162
  139.9149  144.6834  150.8523 LP  0  0  0  0  0  0  0  0  0  0  0  0  # atno 17343 bound_to 10162
  157.0745  131.0126  151.3178 LP  0  0  0  0  0  0  0  0  0  0  0  0  # atno 17370 bound_to 10713
  157.4974  130.7859  149.7570 LP  0  0  0  0  0  0  0  0  0  0  0  0  # atno 17371 bound_to 10713
  139.9527  134.7589  156.0411 LP  0  0  0  0  0  0  0  0  0  0  0  0  # atno 17394 bound_to 11000
  141.1252  133.6601  156.3319 LP  0  0  0  0  0  0  0  0  0  0  0  0  # atno 17395 bound_to 11000

$$$$
