AV-unprocessed.smi:786|AV-procd|sdf|3722|dock3
  -GOLD-   22720 1143D 1   1.00000     0.00000
 Structure written by MMmdl.
 40 41  0  0  0  0  0  0  0  0  2 V2000
  152.6076  140.0595  154.9560 O   0  0  0  0  0  0  0  0  0  0  0  0
  151.9821  139.4366  156.1321 S   0  0  0  0  0  0  0  0  0  0  0  0
  152.8000  138.6763  157.0894 O   0  0  0  0  0  0  0  0  0  0  0  0
  150.9842  140.7149  157.0240 C   0  0  0  0  0  0  0  0  0  0  0  0
  151.8448  141.8133  157.6806 C   0  0  0  0  0  0  0  0  0  0  0  0
  152.4913  141.3141  158.9834 C   0  0  0  0  0  0  0  0  0  0  0  0
  153.3034  142.4328  159.6567 C   0  0  0  0  0  0  0  0  0  0  0  0
  152.4690  143.5588  159.9037 O   0  0  0  0  0  0  0  0  0  0  0  0
  151.9359  144.1254  158.7119 C   0  0  0  0  0  0  0  0  0  0  0  0
  151.0500  143.0962  157.9913 C   0  0  0  0  0  0  0  0  0  0  0  0
  150.7570  138.3756  155.5348 N   0  0  0  0  0  0  0  0  0  0  0  0
  151.0138  136.9351  155.5404 C   0  0  0  0  0  0  0  0  0  0  0  0
  149.7326  136.1469  155.2248 C   0  0  0  0  0  0  0  0  0  0  0  0
  150.0137  134.6816  154.9546 C   0  0  0  0  0  0  0  0  0  0  0  0
  150.7026  133.8681  155.8802 C   0  0  0  0  0  0  0  0  0  0  0  0
  150.9385  132.5136  155.5656 C   0  0  0  0  0  0  0  0  0  0  0  0
  150.4817  132.0016  154.3333 C   0  0  0  0  0  0  0  0  0  0  0  0
  149.8008  132.8590  153.4451 C   0  0  0  0  0  0  0  0  0  0  0  0
  149.5942  134.1510  153.7829 N   0  3  0  0  0  0  0  0  0  0  0  0
  150.2906  141.1598  156.3101 H   0  0  0  0  0  0  0  0  0  0  0  0
  150.3767  140.1937  157.7640 H   0  0  0  0  0  0  0  0  0  0  0  0
  152.6552  142.0633  156.9942 H   0  0  0  0  0  0  0  0  0  0  0  0
  151.7193  140.9648  159.6702 H   0  0  0  0  0  0  0  0  0  0  0  0
  153.1391  140.4605  158.7816 H   0  0  0  0  0  0  0  0  0  0  0  0
  153.7093  142.0814  160.6053 H   0  0  0  0  0  0  0  0  0  0  0  0
  154.1521  142.7252  159.0364 H   0  0  0  0  0  0  0  0  0  0  0  0
  151.3492  145.0059  158.9740 H   0  0  0  0  0  0  0  0  0  0  0  0
  152.7455  144.4639  158.0637 H   0  0  0  0  0  0  0  0  0  0  0  0
  150.6443  143.5404  157.0837 H   0  0  0  0  0  0  0  0  0  0  0  0
  150.1941  142.8564  158.6235 H   0  0  0  0  0  0  0  0  0  0  0  0
  150.4308  138.6827  154.6184 H   0  0  0  0  0  0  0  0  0  0  0  0
  151.7781  136.7173  154.7940 H   0  0  0  0  0  0  0  0  0  0  0  0
  151.4234  136.6438  156.5085 H   0  0  0  0  0  0  0  0  0  0  0  0
  149.0224  136.2199  156.0484 H   0  0  0  0  0  0  0  0  0  0  0  0
  149.2345  136.5778  154.3552 H   0  0  0  0  0  0  0  0  0  0  0  0
  151.0483  134.2758  156.8194 H   0  0  0  0  0  0  0  0  0  0  0  0
  151.4641  131.8758  156.2611 H   0  0  0  0  0  0  0  0  0  0  0  0
  150.6519  130.9668  154.0733 H   0  0  0  0  0  0  0  0  0  0  0  0
  149.4184  132.5529  152.4824 H   0  0  0  0  0  0  0  0  0  0  0  0
  149.0995  134.7533  153.1246 H   0  0  0  0  0  0  0  0  0  0  0  0
  1  2  2  0  0  0  0
  2  3  2  0  0  0  0
  2  4  1  0  0  0  0
  2 11  1  0  0  0  0
  4  5  1  0  0  0  0
  4 20  1  0  0  0  0
  4 21  1  0  0  0  0
  5 10  1  0  0  0  0
  5  6  1  0  0  0  0
  5 22  1  0  0  0  0
  6  7  1  0  0  0  0
  6 23  1  0  0  0  0
  6 24  1  0  0  0  0
  7  8  1  0  0  0  0
  7 25  1  0  0  0  0
  7 26  1  0  0  0  0
  8  9  1  0  0  0  0
  9 10  1  0  0  0  0
  9 27  1  0  0  0  0
  9 28  1  0  0  0  0
 10 29  1  0  0  0  0
 10 30  1  0  0  0  0
 11 12  1  0  0  0  0
 11 31  1  0  0  0  0
 12 13  1  0  0  0  0
 12 32  1  0  0  0  0
 12 33  1  0  0  0  0
 13 14  1  0  0  0  0
 13 34  1  0  0  0  0
 13 35  1  0  0  0  0
 14 19  1  0  0  0  0
 14 15  2  0  0  0  0
 15 16  1  0  0  0  0
 15 36  1  0  0  0  0
 16 17  2  0  0  0  0
 16 37  1  0  0  0  0
 17 18  1  0  0  0  0
 17 38  1  0  0  0  0
 18 19  2  0  0  0  0
 18 39  1  0  0  0  0
 19 40  1  0  0  0  0
M  CHG  1  19   1
M  END
> <s_m_source_file>
AV-unprocessed.smi

> <i_m_source_file_index>
786

> <i_lp_mmshare_version>
43012

> <i_f3d_flags>
0

> <s_epik_input>
W0NIMl0xW0NIMl1PW0NIMl1bQ0gyXVtDSF0xW0NIMl1TKD1PKSg9TylbTkhdW0NIMl1bQ0gyXWMyW2NIXVtjSF1bY0hdW2NIXW4y

> <s_epik_cmdline>
J2VwaWtfcHl0aG9uJywgJy1waCcsICc3LjAnLCAnLXRuJywgJzgnLCAnLW1hJywgJzIwMCcsICctbWV0YWxfYmluZGluZycsICctaW1hZScsICc8aW5maWxlLm1hZT4nLCAnLW9tYWUnLCAnPG91dGZpbGUubWFlPic=

> <r_epik_Ionization_Penalty>
1.99786

> <r_epik_Ionization_Penalty_Charging>
1.99784

> <r_epik_Ionization_Penalty_Neutral>
1.9654e-05

> <r_epik_State_Penalty>
2.12638

> <r_epik_Charging_Adjusted_Penalty>
4.12422

> <i_epik_Tot_Q>
1

> <i_epik_Tot_abs_Q>
1

> <r_epik_Metal_State_Penalty>
2.17464

> <b_epik_Metal_Only>
0

> <s_lp_Force_Field>
OPLS_2005

> <r_lp_Energy>
11.1046

> <b_lp_Chiralities_Consistent>
1

> <s_lp_Variant>
AV-unprocessed.smi:786-2

> <Gold.Version>
5.8.1

> <Gold.Id.Protein>
6NUR|6NUR_protein|mol2

> <Gold.PLP.Fitness>
43.8226

> <Gold.PLP.PLP>
-34.6685

> <Gold.PLP.part.hbond>
-3.0000

> <Gold.PLP.part.metal>
0.0000

> <Gold.PLP.part.buried>
-4.4000

> <Gold.PLP.part.nonpolar>
-27.2363

> <Gold.PLP.part.repulsive>
0.0246

> <Gold.PLP.ligand.clash>
0.0000

> <Gold.PLP.ligand.torsion>
0.7239

> <Gold.PLP.Chemscore.Hbond>
3.4493

> <Gold.PLP.Chemscore.CHOScore>
0.0000

> <Gold.PLP.Chemscore.Metal>
0.0000

> <Gold.Chemscore.Hbonds>
donor molecule, donor type, donor heavy atom, donor atom, acceptor molecule, acceptor atom, score
      L1  H    19    40       P1  7948  1.20
      P1  H  7989  7998       L1     1  0.50
      P1  H  7997  8009       L1     1  0.29

> <Gold.PLP.Chemscore.Internal.Correction>
0.2541

> <Gold.Rescore>
     Score         DG    S(hbond)    S(metal)    S(lipo)     H(rot)  DE(clash)    DE(int)     intcor
     16.03     -16.65       1.92        0.00      83.29       1.94       0.01       0.61       ----

> <Gold.Chemscore.Fitness>
16.0308

> <Gold.Chemscore.DG>
-16.6545

> <Gold.Chemscore.ZeroCoef>
-5.4800

> <Gold.Chemscore.Hbond>
1.9170

> <Gold.Chemscore.Metal>
0.0000

> <Gold.Chemscore.Lipo>
83.2891

> <Gold.Chemscore.Internal_Hbond>
0.0000

> <Gold.Chemscore.DEClash>
0.0089

> <Gold.Chemscore.DEInternal>
0.6148

> <Gold.Chemscore.Rot>
1.9426

> <Gold.Chemscore.Internal.Correction>
   9.000000E+99

> <Gold.Chemscore.Hbonds>
donor molecule, donor type, donor heavy atom, donor atom, acceptor molecule, acceptor atom, score
      L1  H    19    40       P1  7948  0.04
      P1  H  7989  7998       L1     1  0.50
      P1  H  7997  8009       L1     1  0.01

> <Gold.Chemscore.Hbond.Weighted>
-6.4028

> <Gold.Chemscore.Metal.Weighted>
-0.0000

> <Gold.Chemscore.Lipo.Weighted>
-9.7448

> <Gold.Chemscore.Internal_Hbond.Weighted>
0.0000

> <Gold.Chemscore.DEClash.Weighted>
0.0089

> <Gold.Chemscore.DEInternal.Weighted>
0.6148

> <Gold.Chemscore.Rot.Weighted>
4.9731

> <Gold.Chemscore.Internal.Correction.Weighted>
   9.000000E+99

> <Gold.Protein.RotatedTorsions>
[ 6907 6896 6895 6894 ] final  -50.79 input  -60.11 | X-H torsion
[ 7974 7965 7964 7962 ] final   85.24 input  175.53 | X-H torsion
[ 8008 7997 7996 7995 ] final -149.26 input   59.86 | X-H torsion
[ 10167 10162 10161 10158 ] final -113.32 input  -65.29 | X-H torsion
[ 10718 10713 10712 10709 ] final   78.20 input   66.30 | X-H torsion
[ 10763 10752 10751 10750 ] final  -50.84 input  -60.55 | X-H torsion
[ 11005 11000 10999 10996 ] final   94.53 input  -57.11 | X-H torsion

> <Gold.Protein.ActiveResidues>
 VAL166  LYS551  ARG553  GLY616  TRP617  ASP618  TYR619  PRO620  LYS621  CYS622 
 ASP623  PHE694  ASN695  SER759  ASP760  ASP761  ALA762  ILE779  LEU786  VAL792 
 PHE793  MET794  SER795  GLU796  ALA797  LYS798  CYS799  TRP800  GLU811  SER814 

> <Gold.Protein.RotatedAtoms>
  150.8673  134.8040  159.7128 H   0  0  0  0  0  0  0  0  0  0  0  0  # atno 6907 bound_to 6896
  152.4690  134.5003  159.9732 H   0  0  0  0  0  0  0  0  0  0  0  0  # atno 6908 bound_to 6896
  151.5097  133.3449  159.2918 H   0  0  0  0  0  0  0  0  0  0  0  0  # atno 6909 bound_to 6896
  145.5881  139.2334  143.2315 H   0  0  0  0  0  0  0  0  0  0  0  0  # atno 7974 bound_to 7965
  155.6048  140.0666  157.2723 H   0  0  0  0  0  0  0  0  0  0  0  0  # atno 8008 bound_to 7997
  154.4269  140.1812  156.1259 H   0  0  0  0  0  0  0  0  0  0  0  0  # atno 8009 bound_to 7997
  156.0131  140.3324  155.6964 H   0  0  0  0  0  0  0  0  0  0  0  0  # atno 8010 bound_to 7997
  140.1131  143.4510  152.1739 H   0  0  0  0  0  0  0  0  0  0  0  0  # atno 10167 bound_to 10162
  157.6736  130.9857  150.1751 H   0  0  0  0  0  0  0  0  0  0  0  0  # atno 10718 bound_to 10713
  154.1168  135.6541  153.4895 H   0  0  0  0  0  0  0  0  0  0  0  0  # atno 10763 bound_to 10752
  153.0238  135.5261  154.7137 H   0  0  0  0  0  0  0  0  0  0  0  0  # atno 10764 bound_to 10752
  154.6333  135.2979  155.0161 H   0  0  0  0  0  0  0  0  0  0  0  0  # atno 10765 bound_to 10752
  139.8798  134.8850  156.3877 H   0  0  0  0  0  0  0  0  0  0  0  0  # atno 11005 bound_to 11000
  146.1667  140.6707  142.9252 LP  0  0  0  0  0  0  0  0  0  0  0  0  # atno 17320 bound_to 7965
  144.7363  140.4819  143.6901 LP  0  0  0  0  0  0  0  0  0  0  0  0  # atno 17321 bound_to 7965
  139.5608  144.7404  151.4159 LP  0  0  0  0  0  0  0  0  0  0  0  0  # atno 17342 bound_to 10162
  140.6914  143.7852  150.7261 LP  0  0  0  0  0  0  0  0  0  0  0  0  # atno 17343 bound_to 10162
  156.2496  130.3699  149.8247 LP  0  0  0  0  0  0  0  0  0  0  0  0  # atno 17370 bound_to 10713
  156.6023  130.8552  151.3435 LP  0  0  0  0  0  0  0  0  0  0  0  0  # atno 17371 bound_to 10713
  140.9355  133.7550  156.0079 LP  0  0  0  0  0  0  0  0  0  0  0  0  # atno 17394 bound_to 11000
  140.8281  134.3210  157.5358 LP  0  0  0  0  0  0  0  0  0  0  0  0  # atno 17395 bound_to 11000

$$$$
