AV-unprocessed.smi:445|AV-procd|sdf|2591|dock2
  -GOLD-   2262022583D 1   1.00000     0.00000
 Structure written by MMmdl.
 44 45  0  0  0  0  0  0  0  0  3 V2000
  148.0209  132.2866  161.5455 C   0  0  0  0  0  0  0  0  0  0  0  0
  147.1193  133.2873  162.2889 C   0  0  2  0  0  0  0  0  0  0  0  0
  145.6243  132.9710  162.0753 C   0  0  0  0  0  0  0  0  0  0  0  0
  144.7243  133.9345  162.8657 C   0  0  0  0  0  0  0  0  0  0  0  0
  145.0259  135.3986  162.5125 C   0  0  0  0  0  0  0  0  0  0  0  0
  146.5149  135.7263  162.7201 C   0  0  0  0  0  0  0  0  0  0  0  0
  147.4386  134.7648  161.9452 C   0  0  2  0  0  0  0  0  0  0  0  0
  147.3297  135.0230  160.5079 N   0  0  0  0  0  0  0  0  0  0  0  0
  147.5433  136.1969  159.8939 C   0  0  0  0  0  0  0  0  0  0  0  0
  147.8858  137.2215  160.4858 O   0  0  0  0  0  0  0  0  0  0  0  0
  147.3633  136.1955  158.3692 C   0  0  0  0  0  0  0  0  0  0  0  0
  148.4450  136.9000  157.6570 N   0  0  0  0  0  0  0  0  0  0  0  0
  149.7027  136.9181  158.2859 C   0  0  0  0  0  0  0  0  0  0  0  0
  150.7670  137.5351  157.7435 C   0  0  0  0  0  0  0  0  0  0  0  0
  152.0500  137.5447  158.4134 N   0  3  0  0  0  0  0  0  0  0  0  0
  152.1775  136.9053  159.4527 O   0  0  0  0  0  0  0  0  0  0  0  0
  152.9722  138.1908  157.9250 O   0  5  0  0  0  0  0  0  0  0  0  0
  150.5885  138.1951  156.4667 C   0  0  0  0  0  0  0  0  0  0  0  0
  149.3824  138.1948  155.8433 C   0  0  0  0  0  0  0  0  0  0  0  0
  149.1545  138.8567  154.5391 C   0  0  0  0  0  0  0  0  0  0  0  0
  150.2606  139.3559  153.9733 N   0  0  0  0  0  0  0  0  0  0  0  0
  148.0802  138.9847  153.9519 O   0  0  0  0  0  0  0  0  0  0  0  0
  148.2094  137.5123  156.4543 C   0  0  0  0  0  0  0  0  0  0  0  0
  147.0806  137.4704  155.9571 O   0  0  0  0  0  0  0  0  0  0  0  0
  147.8392  132.2987  160.4706 H   0  0  0  0  0  0  0  0  0  0  0  0
  147.8458  131.2691  161.8958 H   0  0  0  0  0  0  0  0  0  0  0  0
  149.0749  132.5136  161.7081 H   0  0  0  0  0  0  0  0  0  0  0  0
  147.3245  133.1585  163.3527 H   0  0  0  0  0  0  0  0  0  0  0  0
  145.3784  133.0290  161.0141 H   0  0  0  0  0  0  0  0  0  0  0  0
  145.4137  131.9460  162.3820 H   0  0  0  0  0  0  0  0  0  0  0  0
  143.6758  133.7125  162.6652 H   0  0  0  0  0  0  0  0  0  0  0  0
  144.8737  133.7788  163.9349 H   0  0  0  0  0  0  0  0  0  0  0  0
  144.7454  135.5909  161.4763 H   0  0  0  0  0  0  0  0  0  0  0  0
  144.4127  136.0613  163.1237 H   0  0  0  0  0  0  0  0  0  0  0  0
  146.7147  136.7584  162.4288 H   0  0  0  0  0  0  0  0  0  0  0  0
  146.7467  135.6631  163.7841 H   0  0  0  0  0  0  0  0  0  0  0  0
  148.4594  134.9707  162.2717 H   0  0  0  0  0  0  0  0  0  0  0  0
  147.0609  134.2378  159.9326 H   0  0  0  0  0  0  0  0  0  0  0  0
  147.2959  135.1580  158.0395 H   0  0  0  0  0  0  0  0  0  0  0  0
  146.3956  136.6330  158.1156 H   0  0  0  0  0  0  0  0  0  0  0  0
  149.7357  136.4063  159.2371 H   0  0  0  0  0  0  0  0  0  0  0  0
  151.4437  138.6863  156.0277 H   0  0  0  0  0  0  0  0  0  0  0  0
  150.2072  139.8242  153.0807 H   0  0  0  0  0  0  0  0  0  0  0  0
  151.1487  139.2587  154.4443 H   0  0  0  0  0  0  0  0  0  0  0  0
  1  2  1  0  0  0  0
  1 25  1  0  0  0  0
  1 26  1  0  0  0  0
  1 27  1  0  0  0  0
  2  7  1  0  0  0  0
  2  3  1  0  0  0  0
  2 28  1  0  0  0  0
  3  4  1  0  0  0  0
  3 29  1  0  0  0  0
  3 30  1  0  0  0  0
  4  5  1  0  0  0  0
  4 31  1  0  0  0  0
  4 32  1  0  0  0  0
  5  6  1  0  0  0  0
  5 33  1  0  0  0  0
  5 34  1  0  0  0  0
  6  7  1  0  0  0  0
  6 35  1  0  0  0  0
  6 36  1  0  0  0  0
  7  8  1  0  0  0  0
  7 37  1  0  0  0  0
  8  9  1  0  0  0  0
  8 38  1  0  0  0  0
  9 10  2  0  0  0  0
  9 11  1  0  0  0  0
 11 12  1  0  0  0  0
 11 39  1  0  0  0  0
 11 40  1  0  0  0  0
 12 23  1  0  0  0  0
 12 13  1  0  0  0  0
 13 14  2  0  0  0  0
 13 41  1  0  0  0  0
 14 15  1  0  0  0  0
 14 18  1  0  0  0  0
 15 16  2  0  0  0  0
 15 17  1  0  0  0  0
 18 19  2  0  0  0  0
 18 42  1  0  0  0  0
 19 20  1  0  0  0  0
 19 23  1  0  0  0  0
 20 21  1  0  0  0  0
 20 22  2  0  0  0  0
 21 43  1  0  0  0  0
 21 44  1  0  0  0  0
 23 24  2  0  0  0  0
M  CHG  1  15   1
M  CHG  1  17  -1
M  END
> <s_m_source_file>
AV-unprocessed.smi

> <i_m_source_file_index>
445

> <i_lp_mmshare_version>
43012

> <i_f3d_flags>
0

> <s_epik_input>
W0NIM11bQ0BASF0xW0NIMl1bQ0gyXVtDSDJdW0NIMl1bQ0BIXTFbTkhdQyg9TylbQ0gyXW4yW2NIXWMoW04rXSg9TylbTy1dKVtjSF1jKGMyPU8pQyg9TylbTkgyXQ==

> <s_epik_cmdline>
J2VwaWtfcHl0aG9uJywgJy1waCcsICc3LjAnLCAnLXRuJywgJzgnLCAnLW1hJywgJzIwMCcsICctbWV0YWxfYmluZGluZycsICctaW1hZScsICc8aW5maWxlLm1hZT4nLCAnLW9tYWUnLCAnPG91dGZpbGUubWFlPic=

> <r_lp_tautomer_probability>
1

> <r_epik_Ionization_Penalty>
2.81321e-06

> <r_epik_Ionization_Penalty_Charging>
2.43777e-12

> <r_epik_Ionization_Penalty_Neutral>
2.81321e-06

> <r_epik_State_Penalty>
-0

> <r_epik_Charging_Adjusted_Penalty>
2.43777e-12

> <i_epik_Tot_Q>
0

> <i_epik_Tot_abs_Q>
2

> <r_epik_Metal_State_Penalty>
-0

> <b_epik_Metal_Only>
0

> <s_lp_Force_Field>
OPLS_2005

> <r_lp_Energy>
27.547

> <b_lp_Chiralities_Consistent>
1

> <s_lp_Variant>
AV-unprocessed.smi:445-3

> <Gold.Version>
5.8.1

> <Gold.Id.Protein>
6NUR|6NUR_protein|mol2

> <Gold.PLP.Fitness>
40.0658

> <Gold.PLP.PLP>
-30.8558

> <Gold.PLP.part.hbond>
-4.0000

> <Gold.PLP.part.metal>
0.0000

> <Gold.PLP.part.buried>
-5.6246

> <Gold.PLP.part.nonpolar>
-22.6497

> <Gold.PLP.part.repulsive>
0.9716

> <Gold.PLP.ligand.clash>
0.0000

> <Gold.PLP.ligand.torsion>
0.6009

> <Gold.PLP.Chemscore.Hbond>
3.4595

> <Gold.PLP.Chemscore.CHOScore>
0.0000

> <Gold.PLP.Chemscore.Metal>
0.0000

> <Gold.Chemscore.Hbonds>
donor molecule, donor type, donor heavy atom, donor atom, acceptor molecule, acceptor atom, score
      L1  H    21    43       P1  7957  1.00
      P1  H  6896  6907       L1    16  1.00
      P1  H  6931  6943       L1    10  0.63
      P1  H  6934  6947       L1    10  0.82

> <Gold.PLP.Chemscore.Internal.Correction>
0.0332

> <Gold.Rescore>
     Score         DG    S(hbond)    S(metal)    S(lipo)     H(rot)  DE(clash)    DE(int)     intcor
     16.69     -20.23       3.34        0.00      68.10       1.71       0.15       3.39       ----

> <Gold.Chemscore.Fitness>
16.6934

> <Gold.Chemscore.DG>
-20.2292

> <Gold.Chemscore.ZeroCoef>
-5.4800

> <Gold.Chemscore.Hbond>
3.3427

> <Gold.Chemscore.Metal>
0.0000

> <Gold.Chemscore.Lipo>
68.1027

> <Gold.Chemscore.Internal_Hbond>
0.0000

> <Gold.Chemscore.DEClash>
0.1489

> <Gold.Chemscore.DEInternal>
3.3869

> <Gold.Chemscore.Rot>
1.7123

> <Gold.Chemscore.Internal.Correction>
   9.000000E+99

> <Gold.Chemscore.Hbonds>
donor molecule, donor type, donor heavy atom, donor atom, acceptor molecule, acceptor atom, score
      L1  H    21    43       P1  7957  0.92
      P1  H  6896  6907       L1    16  0.99
      P1  H  6931  6943       L1    10  0.62
      P1  H  6934  6947       L1    10  0.80

> <Gold.Chemscore.Hbond.Weighted>
-11.1646

> <Gold.Chemscore.Metal.Weighted>
-0.0000

> <Gold.Chemscore.Lipo.Weighted>
-7.9680

> <Gold.Chemscore.Internal_Hbond.Weighted>
0.0000

> <Gold.Chemscore.DEClash.Weighted>
0.1489

> <Gold.Chemscore.DEInternal.Weighted>
3.3869

> <Gold.Chemscore.Rot.Weighted>
4.3835

> <Gold.Chemscore.Internal.Correction.Weighted>
   9.000000E+99

> <Gold.Protein.RotatedTorsions>
[ 6907 6896 6895 6894 ] final    7.19 input  -60.11 | X-H torsion
[ 7974 7965 7964 7962 ] final  105.50 input  175.53 | X-H torsion
[ 8008 7997 7996 7995 ] final  134.26 input   59.86 | X-H torsion
[ 10167 10162 10161 10158 ] final   40.70 input  -65.29 | X-H torsion
[ 10718 10713 10712 10709 ] final  -16.34 input   66.30 | X-H torsion
[ 10763 10752 10751 10750 ] final  -57.34 input  -60.55 | X-H torsion
[ 11005 11000 10999 10996 ] final  -67.63 input  -57.11 | X-H torsion

> <Gold.Protein.ActiveResidues>
 VAL166  LYS551  ARG553  GLY616  TRP617  ASP618  TYR619  PRO620  LYS621  CYS622 
 ASP623  PHE694  ASN695  SER759  ASP760  ASP761  ALA762  ILE779  LEU786  VAL792 
 PHE793  MET794  SER795  GLU796  ALA797  LYS798  CYS799  TRP800  GLU811  SER814 

> <Gold.Protein.RotatedAtoms>
  151.6859  135.0954  160.0224 H   0  0  0  0  0  0  0  0  0  0  0  0  # atno 6907 bound_to 6896
  152.3808  133.6539  159.6168 H   0  0  0  0  0  0  0  0  0  0  0  0  # atno 6908 bound_to 6896
  150.7745  133.9034  159.3389 H   0  0  0  0  0  0  0  0  0  0  0  0  # atno 6909 bound_to 6896
  145.3188  139.2518  143.3723 H   0  0  0  0  0  0  0  0  0  0  0  0  # atno 7974 bound_to 7965
  156.2998  140.2500  156.3388 H   0  0  0  0  0  0  0  0  0  0  0  0  # atno 8008 bound_to 7997
  154.9075  140.0404  157.1947 H   0  0  0  0  0  0  0  0  0  0  0  0  # atno 8009 bound_to 7997
  154.8438  140.2895  155.5646 H   0  0  0  0  0  0  0  0  0  0  0  0  # atno 8010 bound_to 7997
  140.3716  144.2097  150.6133 H   0  0  0  0  0  0  0  0  0  0  0  0  # atno 10167 bound_to 10162
  156.5890  130.4794  149.6287 H   0  0  0  0  0  0  0  0  0  0  0  0  # atno 10718 bound_to 10713
  154.2209  135.6378  153.5144 H   0  0  0  0  0  0  0  0  0  0  0  0  # atno 10763 bound_to 10752
  152.9969  135.5496  154.6115 H   0  0  0  0  0  0  0  0  0  0  0  0  # atno 10764 bound_to 10752
  154.5575  135.2906  155.0924 H   0  0  0  0  0  0  0  0  0  0  0  0  # atno 10765 bound_to 10752
  141.1513  133.6723  156.6322 H   0  0  0  0  0  0  0  0  0  0  0  0  # atno 11005 bound_to 11000
  146.3090  140.3741  142.8677 LP  0  0  0  0  0  0  0  0  0  0  0  0  # atno 17320 bound_to 7965
  144.8956  140.7578  143.5899 LP  0  0  0  0  0  0  0  0  0  0  0  0  # atno 17321 bound_to 7965
  140.5027  143.2313  151.8654 LP  0  0  0  0  0  0  0  0  0  0  0  0  # atno 17342 bound_to 10162
  139.4803  144.5040  151.9022 LP  0  0  0  0  0  0  0  0  0  0  0  0  # atno 17343 bound_to 10162
  156.2566  130.6938  151.1693 LP  0  0  0  0  0  0  0  0  0  0  0  0  # atno 17370 bound_to 10713
  157.7308  131.0613  150.5708 LP  0  0  0  0  0  0  0  0  0  0  0  0  # atno 17371 bound_to 10713
  140.3458  134.7810  157.4431 LP  0  0  0  0  0  0  0  0  0  0  0  0  # atno 17394 bound_to 11000
  140.0901  134.5613  155.8453 LP  0  0  0  0  0  0  0  0  0  0  0  0  # atno 17395 bound_to 11000

$$$$
