AV-unprocessed.smi:848|AV-procd|sdf|3939|dock1
  -GOLD-   22720 1403D 1   1.00000     0.00000
 Structure written by MMmdl.
 46 48  0  0  0  0  0  0  0  0  1 V2000
  154.0148  135.6064  164.7860 C   0  0  0  0  0  0  0  0  0  0  0  0
  154.4009  136.7579  163.8806 C   0  0  0  0  0  0  0  0  0  0  0  0
  155.3294  137.7244  164.3157 C   0  0  0  0  0  0  0  0  0  0  0  0
  155.6844  138.7931  163.4701 C   0  0  0  0  0  0  0  0  0  0  0  0
  156.6815  139.8302  163.9445 C   0  0  0  0  0  0  0  0  0  0  0  0
  155.1106  138.8892  162.1860 C   0  0  0  0  0  0  0  0  0  0  0  0
  154.1823  137.9292  161.7339 C   0  0  0  0  0  0  0  0  0  0  0  0
  153.6764  138.1008  160.4632 O   0  0  0  0  0  0  0  0  0  0  0  0
  152.8421  137.0834  159.9255 C   0  0  0  0  0  0  0  0  0  0  0  0
  151.8459  137.7229  158.9451 C   0  0  2  0  0  0  0  0  0  0  0  0
  150.7122  136.8832  158.8435 O   0  0  0  0  0  0  0  0  0  0  0  0
  152.4644  137.9151  157.5446 C   0  0  0  0  0  0  0  0  0  0  0  0
  151.9901  139.1186  156.8733 N   0  0  0  0  0  0  0  0  0  0  0  0
  151.4877  139.2322  155.6177 C   0  0  0  0  0  0  0  0  0  0  0  0
  151.3468  138.0349  154.7202 C   0  0  0  0  0  0  0  0  0  0  0  0
  150.5822  138.2756  153.5559 O   0  0  0  0  0  0  0  0  0  0  0  0
  151.1255  140.4641  155.2512 N   0  0  0  0  0  0  0  0  0  0  0  0
  151.4181  141.2161  156.3715 C   0  0  0  0  0  0  0  0  0  0  0  0
  151.2625  142.5995  156.6150 C   0  0  0  0  0  0  0  0  0  0  0  0
  151.6330  143.1514  157.8588 C   0  0  0  0  0  0  0  0  0  0  0  0
  152.1629  142.3298  158.8745 C   0  0  0  0  0  0  0  0  0  0  0  0
  152.3280  140.9493  158.6519 C   0  0  0  0  0  0  0  0  0  0  0  0
  151.9573  140.4034  157.4081 C   0  0  0  0  0  0  0  0  0  0  0  0
  153.8300  136.8599  162.5956 C   0  0  0  0  0  0  0  0  0  0  0  0
  154.4141  135.7390  165.7920 H   0  0  0  0  0  0  0  0  0  0  0  0
  154.3997  134.6679  164.3865 H   0  0  0  0  0  0  0  0  0  0  0  0
  152.9296  135.5293  164.8600 H   0  0  0  0  0  0  0  0  0  0  0  0
  155.7707  137.6489  165.2990 H   0  0  0  0  0  0  0  0  0  0  0  0
  156.7419  140.6702  163.2519 H   0  0  0  0  0  0  0  0  0  0  0  0
  157.6734  139.3866  164.0318 H   0  0  0  0  0  0  0  0  0  0  0  0
  156.3904  140.2169  164.9216 H   0  0  0  0  0  0  0  0  0  0  0  0
  155.3830  139.7076  161.5354 H   0  0  0  0  0  0  0  0  0  0  0  0
  153.4714  136.3743  159.3852 H   0  0  0  0  0  0  0  0  0  0  0  0
  152.3177  136.5342  160.7097 H   0  0  0  0  0  0  0  0  0  0  0  0
  151.5271  138.6910  159.3324 H   0  0  0  0  0  0  0  0  0  0  0  0
  150.2061  137.1492  158.0912 H   0  0  0  0  0  0  0  0  0  0  0  0
  153.5517  137.9583  157.6134 H   0  0  0  0  0  0  0  0  0  0  0  0
  152.2399  137.0551  156.9122 H   0  0  0  0  0  0  0  0  0  0  0  0
  152.3351  137.6932  154.4147 H   0  0  0  0  0  0  0  0  0  0  0  0
  150.8784  137.2250  155.2797 H   0  0  0  0  0  0  0  0  0  0  0  0
  150.8653  137.6784  152.8809 H   0  0  0  0  0  0  0  0  0  0  0  0
  150.8568  143.2367  155.8432 H   0  0  0  0  0  0  0  0  0  0  0  0
  151.5097  144.2101  158.0338 H   0  0  0  0  0  0  0  0  0  0  0  0
  152.4433  142.7605  159.8247 H   0  0  0  0  0  0  0  0  0  0  0  0
  152.7364  140.3190  159.4275 H   0  0  0  0  0  0  0  0  0  0  0  0
  153.1234  136.1029  162.2912 H   0  0  0  0  0  0  0  0  0  0  0  0
  1  2  1  0  0  0  0
  1 25  1  0  0  0  0
  1 26  1  0  0  0  0
  1 27  1  0  0  0  0
  2 24  1  0  0  0  0
  2  3  2  0  0  0  0
  3  4  1  0  0  0  0
  3 28  1  0  0  0  0
  4  5  1  0  0  0  0
  4  6  2  0  0  0  0
  5 29  1  0  0  0  0
  5 30  1  0  0  0  0
  5 31  1  0  0  0  0
  6  7  1  0  0  0  0
  6 32  1  0  0  0  0
  7  8  1  0  0  0  0
  7 24  2  0  0  0  0
  8  9  1  0  0  0  0
  9 10  1  0  0  0  0
  9 33  1  0  0  0  0
  9 34  1  0  0  0  0
 10 11  1  0  0  0  0
 10 12  1  0  0  0  0
 10 35  1  0  0  0  0
 11 36  1  0  0  0  0
 12 13  1  0  0  0  0
 12 37  1  0  0  0  0
 12 38  1  0  0  0  0
 13 23  1  0  0  0  0
 13 14  1  0  0  0  0
 14 15  1  0  0  0  0
 14 17  2  0  0  0  0
 15 16  1  0  0  0  0
 15 39  1  0  0  0  0
 15 40  1  0  0  0  0
 16 41  1  0  0  0  0
 17 18  1  0  0  0  0
 18 23  2  0  0  0  0
 18 19  1  0  0  0  0
 19 20  2  0  0  0  0
 19 42  1  0  0  0  0
 20 21  1  0  0  0  0
 20 43  1  0  0  0  0
 21 22  2  0  0  0  0
 21 44  1  0  0  0  0
 22 23  1  0  0  0  0
 22 45  1  0  0  0  0
 24 46  1  0  0  0  0
M  END
> <s_m_source_file>
AV-unprocessed.smi

> <i_m_source_file_index>
848

> <i_lp_mmshare_version>
43012

> <i_f3d_flags>
0

> <s_epik_input>
W0NIM11jMVtjSF1jKFtDSDNdKVtjSF1jKFtjSF0xKU9bQ0gyXVtDQEhdKFtPSF0pW0NIMl1uKGMobjIpW0NIMl1bT0hdKWMoYzIzKVtjSF1bY0hdW2NIXVtjSF0z

> <s_epik_cmdline>
J2VwaWtfcHl0aG9uJywgJy1waCcsICc3LjAnLCAnLXRuJywgJzgnLCAnLW1hJywgJzIwMCcsICctbWV0YWxfYmluZGluZycsICctaW1hZScsICc8aW5maWxlLm1hZT4nLCAnLW9tYWUnLCAnPG91dGZpbGUubWFlPic=

> <r_lp_tautomer_probability>
1

> <r_epik_Ionization_Penalty>
0.0554234

> <r_epik_Ionization_Penalty_Charging>
0

> <r_epik_Ionization_Penalty_Neutral>
0.0554234

> <r_epik_State_Penalty>
0.0476717

> <r_epik_Charging_Adjusted_Penalty>
0.0476717

> <i_epik_Tot_Q>
0

> <i_epik_Tot_abs_Q>
0

> <r_epik_Metal_State_Penalty>
4.96399e-05

> <b_epik_Metal_Only>
0

> <s_lp_Force_Field>
OPLS_2005

> <r_lp_Energy>
17.4445

> <b_lp_Chiralities_Consistent>
1

> <s_lp_Variant>
AV-unprocessed.smi:848-1

> <Gold.Version>
5.8.1

> <Gold.Id.Protein>
6NUR|6NUR_protein|mol2

> <Gold.PLP.Fitness>
50.5130

> <Gold.PLP.PLP>
-43.5521

> <Gold.PLP.part.hbond>
-4.4065

> <Gold.PLP.part.metal>
0.0000

> <Gold.PLP.part.buried>
-1.3396

> <Gold.PLP.part.nonpolar>
-38.4325

> <Gold.PLP.part.repulsive>
0.0396

> <Gold.PLP.ligand.clash>
0.0000

> <Gold.PLP.ligand.torsion>
1.1377

> <Gold.PLP.Chemscore.Hbond>
3.0000

> <Gold.PLP.Chemscore.CHOScore>
0.0000

> <Gold.PLP.Chemscore.Metal>
0.0000

> <Gold.Chemscore.Hbonds>
donor molecule, donor type, donor heavy atom, donor atom, acceptor molecule, acceptor atom, score
      L1  H    16    41       P1  7949  0.48
      P1  H  6896  6907       L1    11  0.83
      P1  H  7989  7998       L1    17  0.98

> <Gold.PLP.Chemscore.Internal.Correction>
0.2364

> <Gold.Rescore>
     Score         DG    S(hbond)    S(metal)    S(lipo)     H(rot)  DE(clash)    DE(int)     intcor
     19.65     -21.03       2.61        0.00     123.05       2.96       0.42       0.96       ----

> <Gold.Chemscore.Fitness>
19.6475

> <Gold.Chemscore.DG>
-21.0316

> <Gold.Chemscore.ZeroCoef>
-5.4800

> <Gold.Chemscore.Hbond>
2.6115

> <Gold.Chemscore.Metal>
0.0000

> <Gold.Chemscore.Lipo>
123.0499

> <Gold.Chemscore.Internal_Hbond>
0.0000

> <Gold.Chemscore.DEClash>
0.4235

> <Gold.Chemscore.DEInternal>
0.9606

> <Gold.Chemscore.Rot>
2.9561

> <Gold.Chemscore.Internal.Correction>
   9.000000E+99

> <Gold.Chemscore.Hbonds>
donor molecule, donor type, donor heavy atom, donor atom, acceptor molecule, acceptor atom, score
      L1  H    16    41       P1  7949  0.08
      P1  H  6896  6907       L1    11  0.57
      P1  H  7989  7998       L1    17  0.79

> <Gold.Chemscore.Hbond.Weighted>
-8.7224

> <Gold.Chemscore.Metal.Weighted>
-0.0000

> <Gold.Chemscore.Lipo.Weighted>
-14.3968

> <Gold.Chemscore.Internal_Hbond.Weighted>
0.0000

> <Gold.Chemscore.DEClash.Weighted>
0.4235

> <Gold.Chemscore.DEInternal.Weighted>
0.9606

> <Gold.Chemscore.Rot.Weighted>
7.5677

> <Gold.Chemscore.Internal.Correction.Weighted>
   9.000000E+99

> <Gold.Protein.RotatedTorsions>
[ 6907 6896 6895 6894 ] final  -28.72 input  -60.11 | X-H torsion
[ 7974 7965 7964 7962 ] final -141.11 input  175.53 | X-H torsion
[ 8008 7997 7996 7995 ] final  -17.56 input   59.86 | X-H torsion
[ 10167 10162 10161 10158 ] final  -45.85 input  -65.29 | X-H torsion
[ 10718 10713 10712 10709 ] final -100.83 input   66.30 | X-H torsion
[ 10763 10752 10751 10750 ] final  -30.39 input  -60.55 | X-H torsion
[ 11005 11000 10999 10996 ] final -118.18 input  -57.11 | X-H torsion

> <Gold.Protein.ActiveResidues>
 VAL166  LYS551  ARG553  GLY616  TRP617  ASP618  TYR619  PRO620  LYS621  CYS622 
 ASP623  PHE694  ASN695  SER759  ASP760  ASP761  ALA762  ILE779  LEU786  VAL792 
 PHE793  MET794  SER795  GLU796  ALA797  LYS798  CYS799  TRP800  GLU811  SER814 

> <Gold.Protein.RotatedAtoms>
  151.1290  135.0120  159.8573 H   0  0  0  0  0  0  0  0  0  0  0  0  # atno 6907 bound_to 6896
  152.5450  134.1632  159.8576 H   0  0  0  0  0  0  0  0  0  0  0  0  # atno 6908 bound_to 6896
  151.1697  133.4747  159.2627 H   0  0  0  0  0  0  0  0  0  0  0  0  # atno 6909 bound_to 6896
  144.8545  140.6119  143.5368 H   0  0  0  0  0  0  0  0  0  0  0  0  # atno 7974 bound_to 7965
  154.4970  140.2139  155.9427 H   0  0  0  0  0  0  0  0  0  0  0  0  # atno 8008 bound_to 7997
  156.1383  140.3184  155.8423 H   0  0  0  0  0  0  0  0  0  0  0  0  # atno 8009 bound_to 7997
  155.4168  140.0494  157.3019 H   0  0  0  0  0  0  0  0  0  0  0  0  # atno 8010 bound_to 7997
  140.6841  143.2859  151.3698 H   0  0  0  0  0  0  0  0  0  0  0  0  # atno 10167 bound_to 10162
  156.0175  130.5345  150.6874 H   0  0  0  0  0  0  0  0  0  0  0  0  # atno 10718 bound_to 10713
  153.7803  135.6905  153.4890 H   0  0  0  0  0  0  0  0  0  0  0  0  # atno 10763 bound_to 10752
  153.1816  135.4504  155.0034 H   0  0  0  0  0  0  0  0  0  0  0  0  # atno 10764 bound_to 10752
  154.8084  135.3367  154.7306 H   0  0  0  0  0  0  0  0  0  0  0  0  # atno 10765 bound_to 10752
  141.0303  133.9991  157.3152 H   0  0  0  0  0  0  0  0  0  0  0  0  # atno 11005 bound_to 11000
  145.4434  139.1532  143.3958 LP  0  0  0  0  0  0  0  0  0  0  0  0  # atno 17320 bound_to 7965
  146.2812  140.4556  142.8776 LP  0  0  0  0  0  0  0  0  0  0  0  0  # atno 17321 bound_to 7965
  139.6186  144.0953  152.2369 LP  0  0  0  0  0  0  0  0  0  0  0  0  # atno 17342 bound_to 10162
  140.0390  144.6022  150.7426 LP  0  0  0  0  0  0  0  0  0  0  0  0  # atno 17343 bound_to 10162
  157.4563  131.0878  151.0793 LP  0  0  0  0  0  0  0  0  0  0  0  0  # atno 17370 bound_to 10713
  157.1294  130.6096  149.5525 LP  0  0  0  0  0  0  0  0  0  0  0  0  # atno 17371 bound_to 10713
  139.9204  135.0200  156.8041 LP  0  0  0  0  0  0  0  0  0  0  0  0  # atno 17394 bound_to 11000
  140.6418  133.9812  155.7711 LP  0  0  0  0  0  0  0  0  0  0  0  0  # atno 17395 bound_to 11000

$$$$
