AV-unprocessed.smi:1884|AV-procd|sdf|7646|dock6
  -GOLD-   22720 9373D 1   1.00000     0.00000
 Structure written by MMmdl.
 40 42  0  0  0  0  0  0  0  0  1 V2000
  147.8265  140.1203  153.6510 C   0  0  0  0  0  0  0  0  0  0  0  0
  148.7305  140.4785  154.7874 C   0  0  0  0  0  0  0  0  0  0  0  0
  148.3817  141.3624  155.7224 N   0  0  0  0  0  0  0  0  0  0  0  0
  149.4922  141.3880  156.5441 C   0  0  0  0  0  0  0  0  0  0  0  0
  149.7487  142.1307  157.7189 C   0  0  0  0  0  0  0  0  0  0  0  0
  150.9758  141.9891  158.3994 C   0  0  0  0  0  0  0  0  0  0  0  0
  151.9620  141.1045  157.9166 C   0  0  0  0  0  0  0  0  0  0  0  0
  151.7265  140.3541  156.7486 C   0  0  0  0  0  0  0  0  0  0  0  0
  150.5001  140.4995  156.0725 C   0  0  0  0  0  0  0  0  0  0  0  0
  149.9596  139.9238  154.9264 N   0  0  0  0  0  0  0  0  0  0  0  0
  150.5991  138.9363  154.0673 C   0  0  0  0  0  0  0  0  0  0  0  0
  151.1320  137.7190  154.8505 C   0  0  2  0  0  0  0  0  0  0  0  0
  152.0085  136.9667  154.0353 O   0  0  0  0  0  0  0  0  0  0  0  0
  150.0067  136.7912  155.3307 C   0  0  0  0  0  0  0  0  0  0  0  0
  150.5727  135.7137  156.0652 O   0  0  0  0  0  0  0  0  0  0  0  0
  150.4333  134.4379  155.5620 C   0  0  0  0  0  0  0  0  0  0  0  0
  151.0691  133.3973  156.2700 C   0  0  0  0  0  0  0  0  0  0  0  0
  150.9811  132.0635  155.8272 C   0  0  0  0  0  0  0  0  0  0  0  0
  150.2516  131.7543  154.6624 C   0  0  0  0  0  0  0  0  0  0  0  0
  150.1610  130.3794  154.2003 C   0  0  0  0  0  0  0  0  0  0  0  0
  150.0887  129.2849  153.8321 N   0  0  0  0  0  0  0  0  0  0  0  0
  149.6104  132.7845  153.9468 C   0  0  0  0  0  0  0  0  0  0  0  0
  149.6995  134.1180  154.3915 C   0  0  0  0  0  0  0  0  0  0  0  0
  146.8781  140.6521  153.7354 H   0  0  0  0  0  0  0  0  0  0  0  0
  147.6200  139.0503  153.6515 H   0  0  0  0  0  0  0  0  0  0  0  0
  148.2878  140.3922  152.7016 H   0  0  0  0  0  0  0  0  0  0  0  0
  148.9998  142.8106  158.0973 H   0  0  0  0  0  0  0  0  0  0  0  0
  151.1615  142.5623  159.2960 H   0  0  0  0  0  0  0  0  0  0  0  0
  152.8991  141.0021  158.4439 H   0  0  0  0  0  0  0  0  0  0  0  0
  152.4789  139.6736  156.3785 H   0  0  0  0  0  0  0  0  0  0  0  0
  149.8846  138.6171  153.3082 H   0  0  0  0  0  0  0  0  0  0  0  0
  151.4121  139.4226  153.5270 H   0  0  0  0  0  0  0  0  0  0  0  0
  151.7033  138.0574  155.7153 H   0  0  0  0  0  0  0  0  0  0  0  0
  151.6684  136.9645  153.1534 H   0  0  0  0  0  0  0  0  0  0  0  0
  149.2987  137.3485  155.9467 H   0  0  0  0  0  0  0  0  0  0  0  0
  149.4672  136.3958  154.4682 H   0  0  0  0  0  0  0  0  0  0  0  0
  151.6310  133.6244  157.1641 H   0  0  0  0  0  0  0  0  0  0  0  0
  151.4764  131.2823  156.3862 H   0  0  0  0  0  0  0  0  0  0  0  0
  149.0471  132.5593  153.0524 H   0  0  0  0  0  0  0  0  0  0  0  0
  149.1956  134.8782  153.8142 H   0  0  0  0  0  0  0  0  0  0  0  0
  1  2  1  0  0  0  0
  1 24  1  0  0  0  0
  1 25  1  0  0  0  0
  1 26  1  0  0  0  0
  2 10  1  0  0  0  0
  2  3  2  0  0  0  0
  3  4  1  0  0  0  0
  4  9  2  0  0  0  0
  4  5  1  0  0  0  0
  5  6  2  0  0  0  0
  5 27  1  0  0  0  0
  6  7  1  0  0  0  0
  6 28  1  0  0  0  0
  7  8  2  0  0  0  0
  7 29  1  0  0  0  0
  8  9  1  0  0  0  0
  8 30  1  0  0  0  0
  9 10  1  0  0  0  0
 10 11  1  0  0  0  0
 11 12  1  0  0  0  0
 11 31  1  0  0  0  0
 11 32  1  0  0  0  0
 12 13  1  0  0  0  0
 12 14  1  0  0  0  0
 12 33  1  0  0  0  0
 13 34  1  0  0  0  0
 14 15  1  0  0  0  0
 14 35  1  0  0  0  0
 14 36  1  0  0  0  0
 15 16  1  0  0  0  0
 16 23  1  0  0  0  0
 16 17  2  0  0  0  0
 17 18  1  0  0  0  0
 17 37  1  0  0  0  0
 18 19  2  0  0  0  0
 18 38  1  0  0  0  0
 19 20  1  0  0  0  0
 19 22  1  0  0  0  0
 20 21  3  0  0  0  0
 22 23  2  0  0  0  0
 22 39  1  0  0  0  0
 23 40  1  0  0  0  0
M  END
> <s_m_source_file>
AV-unprocessed.smi

> <i_m_source_file_index>
1884

> <i_lp_mmshare_version>
43012

> <i_f3d_flags>
0

> <s_epik_input>
W2NIXTFbY0hdW2NIXVtjSF1jKGMxMiluKGMobjIpW0NIM10pW0NIMl1bQ0BIXShbT0hdKVtDSDJdT2MzW2NIXVtjSF1jKEMjTilbY0hdW2NIXTM=

> <s_epik_cmdline>
J2VwaWtfcHl0aG9uJywgJy1waCcsICc3LjAnLCAnLXRuJywgJzgnLCAnLW1hJywgJzIwMCcsICctbWV0YWxfYmluZGluZycsICctaW1hZScsICc8aW5maWxlLm1hZT4nLCAnLW9tYWUnLCAnPG91dGZpbGUubWFlPic=

> <r_epik_Ionization_Penalty>
0.110799

> <r_epik_Ionization_Penalty_Charging>
0

> <r_epik_Ionization_Penalty_Neutral>
0.110799

> <r_epik_State_Penalty>
0.100537

> <r_epik_Charging_Adjusted_Penalty>
0.100537

> <i_epik_Tot_Q>
0

> <i_epik_Tot_abs_Q>
0

> <r_epik_Metal_State_Penalty>
0.000109561

> <b_epik_Metal_Only>
0

> <s_lp_Force_Field>
OPLS_2005

> <r_lp_Energy>
14.1942

> <b_lp_Chiralities_Consistent>
1

> <s_lp_Variant>
AV-unprocessed.smi:1884-1

> <Gold.Version>
5.8.1

> <Gold.Id.Protein>
6NUR|6NUR_protein|mol2

> <Gold.PLP.Fitness>
46.9591

> <Gold.PLP.PLP>
-41.9541

> <Gold.PLP.part.hbond>
-2.0000

> <Gold.PLP.part.metal>
0.0000

> <Gold.PLP.part.buried>
-4.1517

> <Gold.PLP.part.nonpolar>
-35.3957

> <Gold.PLP.part.repulsive>
0.2807

> <Gold.PLP.ligand.clash>
0.0000

> <Gold.PLP.ligand.torsion>
0.5395

> <Gold.PLP.Chemscore.Hbond>
1.9920

> <Gold.PLP.Chemscore.CHOScore>
0.0000

> <Gold.PLP.Chemscore.Metal>
0.0000

> <Gold.Chemscore.Hbonds>
donor molecule, donor type, donor heavy atom, donor atom, acceptor molecule, acceptor atom, score
      L1  H    13    34       P1  7949  1.00
      P1  H 10752 10763       L1    13  1.00

> <Gold.PLP.Chemscore.Internal.Correction>
0.1081

> <Gold.Rescore>
     Score         DG    S(hbond)    S(metal)    S(lipo)     H(rot)  DE(clash)    DE(int)     intcor
     15.65     -16.37       1.64        0.00      96.72       2.31       0.21       0.51       ----

> <Gold.Chemscore.Fitness>
15.6517

> <Gold.Chemscore.DG>
-16.3732

> <Gold.Chemscore.ZeroCoef>
-5.4800

> <Gold.Chemscore.Hbond>
1.6442

> <Gold.Chemscore.Metal>
0.0000

> <Gold.Chemscore.Lipo>
96.7161

> <Gold.Chemscore.Internal_Hbond>
0.0000

> <Gold.Chemscore.DEClash>
0.2073

> <Gold.Chemscore.DEInternal>
0.5142

> <Gold.Chemscore.Rot>
2.3102

> <Gold.Chemscore.Internal.Correction>
   9.000000E+99

> <Gold.Chemscore.Hbonds>
donor molecule, donor type, donor heavy atom, donor atom, acceptor molecule, acceptor atom, score
      L1  H    13    34       P1  7949  0.89
      P1  H 10752 10763       L1    13  0.43

> <Gold.Chemscore.Hbond.Weighted>
-5.4915

> <Gold.Chemscore.Metal.Weighted>
-0.0000

> <Gold.Chemscore.Lipo.Weighted>
-11.3158

> <Gold.Chemscore.Internal_Hbond.Weighted>
0.0000

> <Gold.Chemscore.DEClash.Weighted>
0.2073

> <Gold.Chemscore.DEInternal.Weighted>
0.5142

> <Gold.Chemscore.Rot.Weighted>
5.9141

> <Gold.Chemscore.Internal.Correction.Weighted>
   9.000000E+99

> <Gold.Protein.RotatedTorsions>
[ 6907 6896 6895 6894 ] final  -17.18 input  -60.11 | X-H torsion
[ 7974 7965 7964 7962 ] final   56.79 input  175.53 | X-H torsion
[ 8008 7997 7996 7995 ] final  -14.86 input   59.86 | X-H torsion
[ 10167 10162 10161 10158 ] final  169.62 input  -65.29 | X-H torsion
[ 10718 10713 10712 10709 ] final -135.54 input   66.30 | X-H torsion
[ 10763 10752 10751 10750 ] final   28.58 input  -60.55 | X-H torsion
[ 11005 11000 10999 10996 ] final   95.82 input  -57.11 | X-H torsion

> <Gold.Protein.ActiveResidues>
 VAL166  LYS551  ARG553  GLY616  TRP617  ASP618  TYR619  PRO620  LYS621  CYS622 
 ASP623  PHE694  ASN695  SER759  ASP760  ASP761  ALA762  ILE779  LEU786  VAL792 
 PHE793  MET794  SER795  GLU796  ALA797  LYS798  CYS799  TRP800  GLU811  SER814 

> <Gold.Protein.RotatedAtoms>
  151.2973  135.0758  159.9225 H   0  0  0  0  0  0  0  0  0  0  0  0  # atno 6907 bound_to 6896
  152.5305  133.9870  159.7843 H   0  0  0  0  0  0  0  0  0  0  0  0  # atno 6908 bound_to 6896
  151.0150  133.5878  159.2708 H   0  0  0  0  0  0  0  0  0  0  0  0  # atno 6909 bound_to 6896
  145.9360  139.3847  143.0392 H   0  0  0  0  0  0  0  0  0  0  0  0  # atno 7974 bound_to 7965
  154.5176  140.2211  155.9037 H   0  0  0  0  0  0  0  0  0  0  0  0  # atno 8008 bound_to 7997
  156.1625  140.3139  155.8797 H   0  0  0  0  0  0  0  0  0  0  0  0  # atno 8009 bound_to 7997
  155.3723  140.0467  157.3036 H   0  0  0  0  0  0  0  0  0  0  0  0  # atno 8010 bound_to 7997
  139.4997  144.3686  151.9749 H   0  0  0  0  0  0  0  0  0  0  0  0  # atno 10167 bound_to 10162
  156.2673  130.7245  151.1200 H   0  0  0  0  0  0  0  0  0  0  0  0  # atno 10718 bound_to 10713
  153.0483  135.6509  154.0760 H   0  0  0  0  0  0  0  0  0  0  0  0  # atno 10763 bound_to 10752
  154.0453  135.2900  155.3350 H   0  0  0  0  0  0  0  0  0  0  0  0  # atno 10764 bound_to 10752
  154.6755  135.5340  153.8260 H   0  0  0  0  0  0  0  0  0  0  0  0  # atno 10765 bound_to 10752
  139.8786  134.8919  156.4068 H   0  0  0  0  0  0  0  0  0  0  0  0  # atno 11005 bound_to 11000
  145.8363  140.9604  143.0822 LP  0  0  0  0  0  0  0  0  0  0  0  0  # atno 17320 bound_to 7965
  144.6771  140.0227  143.7483 LP  0  0  0  0  0  0  0  0  0  0  0  0  # atno 17321 bound_to 7965
  140.3122  144.3525  150.6031 LP  0  0  0  0  0  0  0  0  0  0  0  0  # atno 17342 bound_to 10162
  140.5790  143.2174  151.7463 LP  0  0  0  0  0  0  0  0  0  0  0  0  # atno 17343 bound_to 10162
  157.7272  131.0641  150.5877 LP  0  0  0  0  0  0  0  0  0  0  0  0  # atno 17370 bound_to 10713
  156.5970  130.4344  149.5913 LP  0  0  0  0  0  0  0  0  0  0  0  0  # atno 17371 bound_to 10713
  140.9228  133.7633  155.9928 LP  0  0  0  0  0  0  0  0  0  0  0  0  # atno 17394 bound_to 11000
  140.8420  134.3056  157.5310 LP  0  0  0  0  0  0  0  0  0  0  0  0  # atno 17395 bound_to 11000

$$$$
