AV-unprocessed.smi:330|AV-procd|sdf|2349|dock8
  -GOLD-   2262022263D 1   1.00000     0.00000
 Structure written by MMmdl.
 36 38  0  0  0  0  0  0  0  0  1 V2000
  150.4812  145.2252  159.9441 C   0  0  0  0  0  0  0  0  0  0  0  0
  151.5039  144.1349  160.2148 C   0  0  0  0  0  0  0  0  0  0  0  0
  152.0482  143.8557  161.4038 C   0  0  0  0  0  0  0  0  0  0  0  0
  153.1633  142.5129  161.3378 S   0  0  0  0  0  0  0  0  0  0  0  0
  152.8536  142.3309  159.5738 C   0  0  0  0  0  0  0  0  0  0  0  0
  153.3973  141.4676  158.8867 O   0  0  0  0  0  0  0  0  0  0  0  0
  151.9370  143.3029  159.1729 N   0  0  0  0  0  0  0  0  0  0  0  0
  151.4747  143.4374  157.7852 C   0  0  0  0  0  0  0  0  0  0  0  0
  150.9302  142.1288  157.1976 C   0  0  0  0  0  0  0  0  0  0  0  0
  151.2559  141.0375  157.6672 O   0  0  0  0  0  0  0  0  0  0  0  0
  150.0953  142.2627  156.1559 N   0  0  0  0  0  0  0  0  0  0  0  0
  149.4534  141.1695  155.4337 C   0  0  0  0  0  0  0  0  0  0  0  0
  150.4596  140.2445  154.7697 C   0  0  0  0  0  0  0  0  0  0  0  0
  150.1741  138.7720  154.5888 C   0  0  0  0  0  0  0  0  0  0  0  0
  151.2347  139.2225  155.5673 C   0  0  0  0  0  0  0  0  0  0  0  0
  148.4546  141.6851  154.4140 C   0  0  0  0  0  0  0  0  0  0  0  0
  146.9952  141.8458  154.7657 C   0  0  0  0  0  0  0  0  0  0  0  0
  147.4245  140.7733  153.7900 C   0  0  0  0  0  0  0  0  0  0  0  0
  150.0352  145.5669  160.8786 H   0  0  0  0  0  0  0  0  0  0  0  0
  149.6719  144.8693  159.3066 H   0  0  0  0  0  0  0  0  0  0  0  0
  150.9571  146.0802  159.4636 H   0  0  0  0  0  0  0  0  0  0  0  0
  151.8485  144.3653  162.3348 H   0  0  0  0  0  0  0  0  0  0  0  0
  150.7189  144.2191  157.7058 H   0  0  0  0  0  0  0  0  0  0  0  0
  152.3012  143.7718  157.1562 H   0  0  0  0  0  0  0  0  0  0  0  0
  149.8869  143.1977  155.8370 H   0  0  0  0  0  0  0  0  0  0  0  0
  148.8857  140.5724  156.1505 H   0  0  0  0  0  0  0  0  0  0  0  0
  151.0062  140.7169  153.9555 H   0  0  0  0  0  0  0  0  0  0  0  0
  149.2506  138.3745  155.0049 H   0  0  0  0  0  0  0  0  0  0  0  0
  150.5077  138.3057  153.6643 H   0  0  0  0  0  0  0  0  0  0  0  0
  152.2751  139.0587  155.2945 H   0  0  0  0  0  0  0  0  0  0  0  0
  151.0102  139.1266  156.6278 H   0  0  0  0  0  0  0  0  0  0  0  0
  148.8645  142.4488  153.7552 H   0  0  0  0  0  0  0  0  0  0  0  0
  146.6736  141.5253  155.7548 H   0  0  0  0  0  0  0  0  0  0  0  0
  146.4752  142.7135  154.3647 H   0  0  0  0  0  0  0  0  0  0  0  0
  147.1900  140.9257  152.7387 H   0  0  0  0  0  0  0  0  0  0  0  0
  147.3797  139.7416  154.1333 H   0  0  0  0  0  0  0  0  0  0  0  0
  1  2  1  0  0  0  0
  1 19  1  0  0  0  0
  1 20  1  0  0  0  0
  1 21  1  0  0  0  0
  2  7  1  0  0  0  0
  2  3  2  0  0  0  0
  3  4  1  0  0  0  0
  3 22  1  0  0  0  0
  4  5  1  0  0  0  0
  5  6  2  0  0  0  0
  5  7  1  0  0  0  0
  7  8  1  0  0  0  0
  8  9  1  0  0  0  0
  8 23  1  0  0  0  0
  8 24  1  0  0  0  0
  9 10  2  0  0  0  0
  9 11  1  0  0  0  0
 11 12  1  0  0  0  0
 11 25  1  0  0  0  0
 12 13  1  0  0  0  0
 12 16  1  0  0  0  0
 12 26  1  0  0  0  0
 13 15  1  0  0  0  0
 13 14  1  0  0  0  0
 13 27  1  0  0  0  0
 14 15  1  0  0  0  0
 14 28  1  0  0  0  0
 14 29  1  0  0  0  0
 15 30  1  0  0  0  0
 15 31  1  0  0  0  0
 16 18  1  0  0  0  0
 16 17  1  0  0  0  0
 16 32  1  0  0  0  0
 17 18  1  0  0  0  0
 17 33  1  0  0  0  0
 17 34  1  0  0  0  0
 18 35  1  0  0  0  0
 18 36  1  0  0  0  0
M  END
> <s_m_source_file>
AV-unprocessed.smi

> <i_m_source_file_index>
330

> <i_lp_mmshare_version>
43012

> <i_f3d_flags>
0

> <s_epik_input>
W0NIM11jMVtjSF1zYyg9TyluMVtDSDJdQyg9TylbTkhdW0NIXShbQ0hdMltDSDJdW0NIMl0yKVtDSF0zW0NIMl1bQ0gyXTM=

> <s_epik_cmdline>
J2VwaWtfcHl0aG9uJywgJy1waCcsICc3LjAnLCAnLXRuJywgJzgnLCAnLW1hJywgJzIwMCcsICctbWV0YWxfYmluZGluZycsICctaW1hZScsICc8aW5maWxlLm1hZT4nLCAnLW9tYWUnLCAnPG91dGZpbGUubWFlPic=

> <r_lp_tautomer_probability>
1

> <r_epik_Ionization_Penalty>
1.36851e-06

> <r_epik_Ionization_Penalty_Charging>
1.26835e-06

> <r_epik_Ionization_Penalty_Neutral>
1.00162e-07

> <r_epik_State_Penalty>
-0

> <r_epik_Charging_Adjusted_Penalty>
1.26835e-06

> <i_epik_Tot_Q>
0

> <i_epik_Tot_abs_Q>
0

> <r_epik_Metal_State_Penalty>
-0

> <b_epik_Metal_Only>
0

> <s_lp_Force_Field>
OPLS_2005

> <r_lp_Energy>
27.3766

> <b_lp_Chiralities_Consistent>
1

> <s_lp_Variant>
AV-unprocessed.smi:330-1

> <Gold.Version>
5.8.1

> <Gold.Id.Protein>
6NUR|6NUR_protein|mol2

> <Gold.PLP.Fitness>
47.2193

> <Gold.PLP.PLP>
-45.3316

> <Gold.PLP.part.hbond>
-1.0500

> <Gold.PLP.part.metal>
0.0000

> <Gold.PLP.part.buried>
-2.0684

> <Gold.PLP.part.nonpolar>
-42.7549

> <Gold.PLP.part.repulsive>
0.1065

> <Gold.PLP.ligand.clash>
0.0000

> <Gold.PLP.ligand.torsion>
1.4845

> <Gold.PLP.Chemscore.Hbond>
0.9120

> <Gold.PLP.Chemscore.CHOScore>
0.0000

> <Gold.PLP.Chemscore.Metal>
0.0000

> <Gold.Chemscore.Hbonds>
donor molecule, donor type, donor heavy atom, donor atom, acceptor molecule, acceptor atom, score
      L1  H    11    25       P1  8028  1.00

> <Gold.PLP.Chemscore.Internal.Correction>
2.1207

> <Gold.Rescore>
     Score         DG    S(hbond)    S(metal)    S(lipo)     H(rot)  DE(clash)    DE(int)     intcor
     10.02     -15.85       0.96        0.00      98.16       1.69       0.06       5.77       ----

> <Gold.Chemscore.Fitness>
10.0227

> <Gold.Chemscore.DG>
-15.8475

> <Gold.Chemscore.ZeroCoef>
-5.4800

> <Gold.Chemscore.Hbond>
0.9586

> <Gold.Chemscore.Metal>
0.0000

> <Gold.Chemscore.Lipo>
98.1593

> <Gold.Chemscore.Internal_Hbond>
0.0000

> <Gold.Chemscore.DEClash>
0.0556

> <Gold.Chemscore.DEInternal>
5.7692

> <Gold.Chemscore.Rot>
1.6871

> <Gold.Chemscore.Internal.Correction>
   9.000000E+99

> <Gold.Chemscore.Hbonds>
donor molecule, donor type, donor heavy atom, donor atom, acceptor molecule, acceptor atom, score
      L1  H    11    25       P1  8028  0.99

> <Gold.Chemscore.Hbond.Weighted>
-3.2018

> <Gold.Chemscore.Metal.Weighted>
-0.0000

> <Gold.Chemscore.Lipo.Weighted>
-11.4846

> <Gold.Chemscore.Internal_Hbond.Weighted>
0.0000

> <Gold.Chemscore.DEClash.Weighted>
0.0556

> <Gold.Chemscore.DEInternal.Weighted>
5.7692

> <Gold.Chemscore.Rot.Weighted>
4.3189

> <Gold.Chemscore.Internal.Correction.Weighted>
   9.000000E+99

> <Gold.Protein.RotatedTorsions>
[ 6907 6896 6895 6894 ] final    6.68 input  -60.11 | X-H torsion
[ 7974 7965 7964 7962 ] final -164.00 input  175.53 | X-H torsion
[ 8008 7997 7996 7995 ] final -177.06 input   59.86 | X-H torsion
[ 10167 10162 10161 10158 ] final -142.78 input  -65.29 | X-H torsion
[ 10718 10713 10712 10709 ] final  -41.21 input   66.30 | X-H torsion
[ 10763 10752 10751 10750 ] final   35.88 input  -60.55 | X-H torsion
[ 11005 11000 10999 10996 ] final  147.07 input  -57.11 | X-H torsion

> <Gold.Protein.ActiveResidues>
 VAL166  LYS551  ARG553  GLY616  TRP617  ASP618  TYR619  PRO620  LYS621  CYS622 
 ASP623  PHE694  ASN695  SER759  ASP760  ASP761  ALA762  ILE779  LEU786  VAL792 
 PHE793  MET794  SER795  GLU796  ALA797  LYS798  CYS799  TRP800  GLU811  SER814 

> <Gold.Protein.RotatedAtoms>
  151.6775  135.0967  160.0209 H   0  0  0  0  0  0  0  0  0  0  0  0  # atno 6907 bound_to 6896
  152.3855  133.6601  159.6203 H   0  0  0  0  0  0  0  0  0  0  0  0  # atno 6908 bound_to 6896
  150.7782  133.8959  159.3368 H   0  0  0  0  0  0  0  0  0  0  0  0  # atno 6909 bound_to 6896
  144.7309  140.3025  143.6202 H   0  0  0  0  0  0  0  0  0  0  0  0  # atno 7974 bound_to 7965
  156.0024  140.1223  157.0535 H   0  0  0  0  0  0  0  0  0  0  0  0  # atno 8008 bound_to 7997
  154.4247  140.1104  156.5784 H   0  0  0  0  0  0  0  0  0  0  0  0  # atno 8009 bound_to 7997
  155.6194  140.3472  155.4649 H   0  0  0  0  0  0  0  0  0  0  0  0  # atno 8010 bound_to 7997
  139.8056  143.7774  152.2661 H   0  0  0  0  0  0  0  0  0  0  0  0  # atno 10167 bound_to 10162
  156.2729  130.4208  149.8419 H   0  0  0  0  0  0  0  0  0  0  0  0  # atno 10718 bound_to 10713
  153.0100  135.6321  154.1897 H   0  0  0  0  0  0  0  0  0  0  0  0  # atno 10763 bound_to 10752
  154.1639  135.2822  155.3102 H   0  0  0  0  0  0  0  0  0  0  0  0  # atno 10764 bound_to 10752
  154.5960  135.5602  153.7386 H   0  0  0  0  0  0  0  0  0  0  0  0  # atno 10765 bound_to 10752
  140.0845  134.9078  157.1553 H   0  0  0  0  0  0  0  0  0  0  0  0  # atno 11005 bound_to 11000
  145.7746  139.1869  143.2192 LP  0  0  0  0  0  0  0  0  0  0  0  0  # atno 17320 bound_to 7965
  146.0883  140.7685  142.9608 LP  0  0  0  0  0  0  0  0  0  0  0  0  # atno 17321 bound_to 7965
  139.7907  144.7411  150.9959 LP  0  0  0  0  0  0  0  0  0  0  0  0  # atno 17342 bound_to 10162
  140.7819  143.4445  151.0502 LP  0  0  0  0  0  0  0  0  0  0  0  0  # atno 17343 bound_to 10162
  156.5894  130.8500  151.3404 LP  0  0  0  0  0  0  0  0  0  0  0  0  # atno 17370 bound_to 10713
  157.7290  130.9664  150.1766 LP  0  0  0  0  0  0  0  0  0  0  0  0  # atno 17371 bound_to 10713
  140.3440  134.2672  155.7208 LP  0  0  0  0  0  0  0  0  0  0  0  0  # atno 17394 bound_to 11000
  141.2058  133.7851  157.0214 LP  0  0  0  0  0  0  0  0  0  0  0  0  # atno 17395 bound_to 11000

$$$$
