AV-unprocessed.smi:3208|AV-procd|sdf|12260|dock2
  -GOLD-   2272018 93D 1   1.00000     0.00000
 Structure written by MMmdl.
 30 30  0  0  0  0  0  0  0  0  1 V2000
  146.7324  139.3173  153.0608 C   0  0  0  0  0  0  0  0  0  0  0  0
  147.7005  139.6732  153.9201 C   0  0  0  0  0  0  0  0  0  0  0  0
  149.0201  138.9515  154.1094 C   0  0  0  0  0  0  0  0  0  0  0  0
  149.8687  139.6312  155.0298 O   0  0  0  0  0  0  0  0  0  0  0  0
  151.2474  139.2723  154.9775 C   0  0  2  0  0  0  0  0  0  0  0  0
  151.3277  137.7384  154.9888 C   0  0  0  0  0  0  0  0  0  0  0  0
  152.0092  139.8876  156.1631 C   0  0  0  0  0  0  0  0  0  0  0  0
  153.1496  139.5026  156.4238 O   0  0  0  0  0  0  0  0  0  0  0  0
  151.3397  140.8244  156.8603 N   0  0  0  0  0  0  0  0  0  0  0  0
  151.7688  141.5597  157.9993 C   0  0  0  0  0  0  0  0  0  0  0  0
  152.9304  141.3036  158.6522 N   0  0  0  0  0  0  0  0  0  0  0  0
  153.2656  142.0496  159.7254 C   0  0  0  0  0  0  0  0  0  0  0  0
  152.4649  143.0970  160.2143 C   0  0  0  0  0  0  0  0  0  0  0  0
  151.2585  143.3745  159.5484 C   0  0  0  0  0  0  0  0  0  0  0  0
  150.9028  142.5985  158.4268 C   0  0  0  0  0  0  0  0  0  0  0  0
  149.7296  142.8620  157.7751 O   0  0  0  0  0  0  0  0  0  0  0  0
  146.8316  138.4554  152.4175 H   0  0  0  0  0  0  0  0  0  0  0  0
  145.8201  139.8908  152.9907 H   0  0  0  0  0  0  0  0  0  0  0  0
  147.5499  140.5444  154.5406 H   0  0  0  0  0  0  0  0  0  0  0  0
  148.8084  137.9438  154.4691 H   0  0  0  0  0  0  0  0  0  0  0  0
  149.4969  138.8601  153.1333 H   0  0  0  0  0  0  0  0  0  0  0  0
  151.6771  139.6270  154.0386 H   0  0  0  0  0  0  0  0  0  0  0  0
  152.3627  137.3951  154.9732 H   0  0  0  0  0  0  0  0  0  0  0  0
  150.8292  137.3200  154.1140 H   0  0  0  0  0  0  0  0  0  0  0  0
  150.8472  137.3167  155.8725 H   0  0  0  0  0  0  0  0  0  0  0  0
  150.4040  141.0329  156.5433 H   0  0  0  0  0  0  0  0  0  0  0  0
  154.1998  141.8037  160.2079 H   0  0  0  0  0  0  0  0  0  0  0  0
  152.7685  143.6713  161.0771 H   0  0  0  0  0  0  0  0  0  0  0  0
  150.6158  144.1709  159.8942 H   0  0  0  0  0  0  0  0  0  0  0  0
  149.7567  143.6613  157.2715 H   0  0  0  0  0  0  0  0  0  0  0  0
  1  2  2  0  0  0  0
  1 17  1  0  0  0  0
  1 18  1  0  0  0  0
  2  3  1  0  0  0  0
  2 19  1  0  0  0  0
  3  4  1  0  0  0  0
  3 20  1  0  0  0  0
  3 21  1  0  0  0  0
  4  5  1  0  0  0  0
  5  6  1  0  0  0  0
  5  7  1  0  0  0  0
  5 22  1  0  0  0  0
  6 23  1  0  0  0  0
  6 24  1  0  0  0  0
  6 25  1  0  0  0  0
  7  8  2  0  0  0  0
  7  9  1  0  0  0  0
  9 10  1  0  0  0  0
  9 26  1  0  0  0  0
 10 15  1  0  0  0  0
 10 11  2  0  0  0  0
 11 12  1  0  0  0  0
 12 13  2  0  0  0  0
 12 27  1  0  0  0  0
 13 14  1  0  0  0  0
 13 28  1  0  0  0  0
 14 15  2  0  0  0  0
 14 29  1  0  0  0  0
 15 16  1  0  0  0  0
 16 30  1  0  0  0  0
M  END
> <s_m_source_file>
AV-unprocessed.smi

> <i_m_source_file_index>
3208

> <i_lp_mmshare_version>
43012

> <i_f3d_flags>
0

> <s_epik_input>
W0NIMl09W0NIXVtDSDJdT1tDQEhdKFtDSDNdKUMoPU8pW05IXWMxbltjSF1bY0hdW2NIXWMxW09IXQ==

> <s_epik_cmdline>
J2VwaWtfcHl0aG9uJywgJy1waCcsICc3LjAnLCAnLXRuJywgJzgnLCAnLW1hJywgJzIwMCcsICctbWV0YWxfYmluZGluZycsICctaW1hZScsICc8aW5maWxlLm1hZT4nLCAnLW9tYWUnLCAnPG91dGZpbGUubWFlPic=

> <r_lp_tautomer_probability>
0.43658

> <r_epik_Ionization_Penalty>
0.0201706

> <r_epik_Ionization_Penalty_Charging>
0

> <r_epik_Ionization_Penalty_Neutral>
0.0201706

> <r_epik_State_Penalty>
0.426656

> <r_epik_Charging_Adjusted_Penalty>
0.426656

> <i_epik_Tot_Q>
0

> <i_epik_Tot_abs_Q>
0

> <r_epik_Metal_State_Penalty>
0.386934

> <b_epik_Metal_Only>
0

> <s_lp_Force_Field>
OPLS_2005

> <r_lp_Energy>
6.86977

> <b_lp_Chiralities_Consistent>
1

> <s_lp_Variant>
AV-unprocessed.smi:3208-1

> <Gold.Version>
5.8.1

> <Gold.Id.Protein>
6NUR|6NUR_protein|mol2

> <Gold.PLP.Fitness>
34.8759

> <Gold.PLP.PLP>
-30.2319

> <Gold.PLP.part.hbond>
-1.8339

> <Gold.PLP.part.metal>
0.0000

> <Gold.PLP.part.buried>
-3.3031

> <Gold.PLP.part.nonpolar>
-25.6407

> <Gold.PLP.part.repulsive>
0.1746

> <Gold.PLP.ligand.clash>
0.0000

> <Gold.PLP.ligand.torsion>
0.4214

> <Gold.PLP.Chemscore.Hbond>
1.8160

> <Gold.PLP.Chemscore.CHOScore>
0.0000

> <Gold.PLP.Chemscore.Metal>
0.0000

> <Gold.Chemscore.Hbonds>
donor molecule, donor type, donor heavy atom, donor atom, acceptor molecule, acceptor atom, score
      L1  H    16    30       P1  8028  0.76
      P1  H  7997  8008       L1     8  0.71

> <Gold.PLP.Chemscore.Internal.Correction>
0.0388

> <Gold.Rescore>
     Score         DG    S(hbond)    S(metal)    S(lipo)     H(rot)  DE(clash)    DE(int)     intcor
     13.00     -14.56       1.89        0.00      72.69       2.24       0.04       1.51       ----

> <Gold.Chemscore.Fitness>
13.0043

> <Gold.Chemscore.DG>
-14.5566

> <Gold.Chemscore.ZeroCoef>
-5.4800

> <Gold.Chemscore.Hbond>
1.8915

> <Gold.Chemscore.Metal>
0.0000

> <Gold.Chemscore.Lipo>
72.6910

> <Gold.Chemscore.Internal_Hbond>
0.0000

> <Gold.Chemscore.DEClash>
0.0402

> <Gold.Chemscore.DEInternal>
1.5121

> <Gold.Chemscore.Rot>
2.2445

> <Gold.Chemscore.Internal.Correction>
   9.000000E+99

> <Gold.Chemscore.Hbonds>
donor molecule, donor type, donor heavy atom, donor atom, acceptor molecule, acceptor atom, score
      L1  H    16    30       P1  8028  0.61
      P1  H  7997  8008       L1     8  0.68

> <Gold.Chemscore.Hbond.Weighted>
-6.3176

> <Gold.Chemscore.Metal.Weighted>
-0.0000

> <Gold.Chemscore.Lipo.Weighted>
-8.5049

> <Gold.Chemscore.Internal_Hbond.Weighted>
0.0000

> <Gold.Chemscore.DEClash.Weighted>
0.0402

> <Gold.Chemscore.DEInternal.Weighted>
1.5121

> <Gold.Chemscore.Rot.Weighted>
5.7458

> <Gold.Chemscore.Internal.Correction.Weighted>
   9.000000E+99

> <Gold.Protein.RotatedTorsions>
[ 6907 6896 6895 6894 ] final   88.36 input  -60.11 | X-H torsion
[ 7974 7965 7964 7962 ] final   -3.94 input  175.53 | X-H torsion
[ 8008 7997 7996 7995 ] final  -70.19 input   59.86 | X-H torsion
[ 10167 10162 10161 10158 ] final  -59.69 input  -65.29 | X-H torsion
[ 10718 10713 10712 10709 ] final  -61.08 input   66.30 | X-H torsion
[ 10763 10752 10751 10750 ] final  -69.98 input  -60.55 | X-H torsion
[ 11005 11000 10999 10996 ] final   83.24 input  -57.11 | X-H torsion

> <Gold.Protein.ActiveResidues>
 VAL166  LYS551  ARG553  GLY616  TRP617  ASP618  TYR619  PRO620  LYS621  CYS622 
 ASP623  PHE694  ASN695  SER759  ASP760  ASP761  ALA762  ILE779  LEU786  VAL792 
 PHE793  MET794  SER795  GLU796  ALA797  LYS798  CYS799  TRP800  GLU811  SER814 

> <Gold.Protein.RotatedAtoms>
  152.5424  134.2134  159.8758 H   0  0  0  0  0  0  0  0  0  0  0  0  # atno 6907 bound_to 6896
  151.2115  133.4546  159.2606 H   0  0  0  0  0  0  0  0  0  0  0  0  # atno 6908 bound_to 6896
  151.0892  134.9919  159.8450 H   0  0  0  0  0  0  0  0  0  0  0  0  # atno 6909 bound_to 6896
  146.2381  140.1797  142.8332 H   0  0  0  0  0  0  0  0  0  0  0  0  # atno 7974 bound_to 7965
  154.4993  140.0839  156.7764 H   0  0  0  0  0  0  0  0  0  0  0  0  # atno 8008 bound_to 7997
  155.4040  140.3438  155.4241 H   0  0  0  0  0  0  0  0  0  0  0  0  # atno 8009 bound_to 7997
  156.1436  140.1537  156.8870 H   0  0  0  0  0  0  0  0  0  0  0  0  # atno 8010 bound_to 7997
  140.6119  143.2390  151.5689 H   0  0  0  0  0  0  0  0  0  0  0  0  # atno 10167 bound_to 10162
  156.0946  130.4195  150.0944 H   0  0  0  0  0  0  0  0  0  0  0  0  # atno 10718 bound_to 10713
  154.4112  135.6008  153.5954 H   0  0  0  0  0  0  0  0  0  0  0  0  # atno 10763 bound_to 10752
  152.9790  135.5930  154.4068 H   0  0  0  0  0  0  0  0  0  0  0  0  # atno 10764 bound_to 10752
  154.3880  135.2841  155.2150 H   0  0  0  0  0  0  0  0  0  0  0  0  # atno 10765 bound_to 10752
  139.9037  134.8130  156.2283 H   0  0  0  0  0  0  0  0  0  0  0  0  # atno 11005 bound_to 11000
  144.9944  140.8576  143.5319 LP  0  0  0  0  0  0  0  0  0  0  0  0  # atno 17320 bound_to 7965
  145.1808  139.2353  143.5293 LP  0  0  0  0  0  0  0  0  0  0  0  0  # atno 17321 bound_to 7965
  139.5368  144.2759  152.1268 LP  0  0  0  0  0  0  0  0  0  0  0  0  # atno 17342 bound_to 10162
  140.1960  144.4705  150.6455 LP  0  0  0  0  0  0  0  0  0  0  0  0  # atno 17343 bound_to 10162
  156.8946  130.9600  151.3584 LP  0  0  0  0  0  0  0  0  0  0  0  0  # atno 17370 bound_to 10713
  157.6104  130.8578  149.8942 LP  0  0  0  0  0  0  0  0  0  0  0  0  # atno 17371 bound_to 10713
  141.0362  133.6962  156.1516 LP  0  0  0  0  0  0  0  0  0  0  0  0  # atno 17394 bound_to 11000
  140.7024  134.4550  157.5585 LP  0  0  0  0  0  0  0  0  0  0  0  0  # atno 17395 bound_to 11000

$$$$
