AV-unprocessed.smi:1511|AV-procd|sdf|6099|dock10
  -GOLD-   22720 6233D 1   1.00000     0.00000
 Structure written by MMmdl.
 32 33  0  0  0  0  0  0  0  0  1 V2000
  154.3096  140.4663  159.2053 O   0  0  0  0  0  0  0  0  0  0  0  0
  153.2093  141.0092  159.3009 C   0  0  0  0  0  0  0  0  0  0  0  0
  153.0295  142.2142  160.2225 C   0  0  0  0  0  0  0  0  0  0  0  0
  152.4014  143.3088  159.5038 N   0  0  0  0  0  0  0  0  0  0  0  0
  152.1389  144.5872  159.9507 C   0  0  0  0  0  0  0  0  0  0  0  0
  151.5129  145.2523  158.9358 C   0  0  0  0  0  0  0  0  0  0  0  0
  151.4358  144.2853  157.8948 C   0  0  0  0  0  0  0  0  0  0  0  0
  151.9676  143.1229  158.2373 N   0  0  0  0  0  0  0  0  0  0  0  0
  152.1085  140.5809  158.6633 N   0  0  0  0  0  0  0  0  0  0  0  0
  152.0059  139.3522  157.8839 C   0  0  0  0  0  0  0  0  0  0  0  0
  151.4829  139.6416  156.4637 C   0  0  1  0  0  0  0  0  0  0  0  0
  151.5194  138.3979  155.5547 C   0  0  0  0  0  0  0  0  0  0  0  0
  150.7553  138.7116  154.2638 C   0  0  0  0  0  0  0  0  0  0  0  0
  149.4065  139.8520  154.7496 S   0  0  0  0  0  0  0  0  0  0  0  0
  149.4912  141.0691  153.9283 O   0  0  0  0  0  0  0  0  0  0  0  0
  148.1461  139.1031  154.8665 O   0  0  0  0  0  0  0  0  0  0  0  0
  150.0498  140.2017  156.4287 C   0  0  0  0  0  0  0  0  0  0  0  0
  152.4025  141.9458  161.0738 H   0  0  0  0  0  0  0  0  0  0  0  0
  153.9934  142.5381  160.6189 H   0  0  0  0  0  0  0  0  0  0  0  0
  152.4114  144.9101  160.9449 H   0  0  0  0  0  0  0  0  0  0  0  0
  151.1617  146.2734  158.9376 H   0  0  0  0  0  0  0  0  0  0  0  0
  151.0103  144.3925  156.9078 H   0  0  0  0  0  0  0  0  0  0  0  0
  151.2538  141.0998  158.8059 H   0  0  0  0  0  0  0  0  0  0  0  0
  152.9988  138.9055  157.8266 H   0  0  0  0  0  0  0  0  0  0  0  0
  151.3702  138.6185  158.3823 H   0  0  0  0  0  0  0  0  0  0  0  0
  152.1328  140.3903  156.0075 H   0  0  0  0  0  0  0  0  0  0  0  0
  152.5410  138.0799  155.3447 H   0  0  0  0  0  0  0  0  0  0  0  0
  151.0256  137.5684  156.0628 H   0  0  0  0  0  0  0  0  0  0  0  0
  151.3959  139.2314  153.5511 H   0  0  0  0  0  0  0  0  0  0  0  0
  150.3452  137.8235  153.7827 H   0  0  0  0  0  0  0  0  0  0  0  0
  149.4098  139.6854  157.1451 H   0  0  0  0  0  0  0  0  0  0  0  0
  150.0040  141.2720  156.6324 H   0  0  0  0  0  0  0  0  0  0  0  0
  1  2  2  0  0  0  0
  2  3  1  0  0  0  0
  2  9  1  0  0  0  0
  3  4  1  0  0  0  0
  3 18  1  0  0  0  0
  3 19  1  0  0  0  0
  4  8  1  0  0  0  0
  4  5  1  0  0  0  0
  5  6  2  0  0  0  0
  5 20  1  0  0  0  0
  6  7  1  0  0  0  0
  6 21  1  0  0  0  0
  7  8  2  0  0  0  0
  7 22  1  0  0  0  0
  9 10  1  0  0  0  0
  9 23  1  0  0  0  0
 10 11  1  0  0  0  0
 10 24  1  0  0  0  0
 10 25  1  0  0  0  0
 11 17  1  0  0  0  0
 11 12  1  0  0  0  0
 11 26  1  0  0  0  0
 12 13  1  0  0  0  0
 12 27  1  0  0  0  0
 12 28  1  0  0  0  0
 13 14  1  0  0  0  0
 13 29  1  0  0  0  0
 13 30  1  0  0  0  0
 14 15  2  0  0  0  0
 14 16  2  0  0  0  0
 14 17  1  0  0  0  0
 17 31  1  0  0  0  0
 17 32  1  0  0  0  0
M  END
> <s_m_source_file>
AV-unprocessed.smi

> <i_m_source_file_index>
1511

> <i_lp_mmshare_version>
43012

> <i_f3d_flags>
0

> <s_epik_input>
bjFbY0hdW2NIXVtjSF1uMVtDSDJdQyg9TylbTkhdW0NIMl1bQ0BASF0oW0NIMl0yKVtDSDJdW0NIMl1TMig9Tyk9Tw==

> <s_epik_cmdline>
J2VwaWtfcHl0aG9uJywgJy1waCcsICc3LjAnLCAnLXRuJywgJzgnLCAnLW1hJywgJzIwMCcsICctbWV0YWxfYmluZGluZycsICctaW1hZScsICc8aW5maWxlLm1hZT4nLCAnLW9tYWUnLCAnPG91dGZpbGUubWFlPic=

> <r_lp_tautomer_probability>
1

> <r_epik_Ionization_Penalty>
1.34373e-05

> <r_epik_Ionization_Penalty_Charging>
0

> <r_epik_Ionization_Penalty_Neutral>
1.34373e-05

> <r_epik_State_Penalty>
-0

> <r_epik_Charging_Adjusted_Penalty>
0

> <i_epik_Tot_Q>
0

> <i_epik_Tot_abs_Q>
0

> <r_epik_Metal_State_Penalty>
-0

> <b_epik_Metal_Only>
0

> <s_lp_Force_Field>
OPLS_2005

> <r_lp_Energy>
3.15153

> <b_lp_Chiralities_Consistent>
1

> <s_lp_Variant>
AV-unprocessed.smi:1511-2

> <Gold.Version>
5.8.1

> <Gold.Id.Protein>
6NUR|6NUR_protein|mol2

> <Gold.PLP.Fitness>
42.4849

> <Gold.PLP.PLP>
-36.2385

> <Gold.PLP.part.hbond>
-3.0000

> <Gold.PLP.part.metal>
0.0000

> <Gold.PLP.part.buried>
-3.6066

> <Gold.PLP.part.nonpolar>
-30.7774

> <Gold.PLP.part.repulsive>
1.7842

> <Gold.PLP.ligand.clash>
0.0000

> <Gold.PLP.ligand.torsion>
0.1161

> <Gold.PLP.Chemscore.Hbond>
1.1669

> <Gold.PLP.Chemscore.CHOScore>
0.9902

> <Gold.PLP.Chemscore.Metal>
0.0000

> <Gold.Chemscore.Hbonds>
donor molecule, donor type, donor heavy atom, donor atom, acceptor molecule, acceptor atom, score
      P1  H  7989  7998       L1    15  0.22
      P1  H  8011  8017       L1    15  0.71
      L1  C     7    22       P1  8028  1.00

> <Gold.PLP.Chemscore.Internal.Correction>
0.0074

> <Gold.Rescore>
     Score         DG    S(hbond)    S(metal)    S(lipo)     H(rot)  DE(clash)    DE(int)     intcor
     11.70     -13.36       0.97        0.00      79.43       1.82       1.31       0.35       ----

> <Gold.Chemscore.Fitness>
11.6972

> <Gold.Chemscore.DG>
-13.3642

> <Gold.Chemscore.ZeroCoef>
-5.4800

> <Gold.Chemscore.Hbond>
0.9714

> <Gold.Chemscore.Metal>
0.0000

> <Gold.Chemscore.Lipo>
79.4306

> <Gold.Chemscore.Internal_Hbond>
0.0000

> <Gold.Chemscore.DEClash>
1.3125

> <Gold.Chemscore.DEInternal>
0.3545

> <Gold.Chemscore.Rot>
1.8178

> <Gold.Chemscore.Internal.Correction>
   9.000000E+99

> <Gold.Chemscore.Hbonds>
donor molecule, donor type, donor heavy atom, donor atom, acceptor molecule, acceptor atom, score
      P1  H  7989  7998       L1    15  0.04
      P1  H  8011  8017       L1    15  0.68

> <Gold.Chemscore.Hbond.Weighted>
-3.2445

> <Gold.Chemscore.Metal.Weighted>
-0.0000

> <Gold.Chemscore.Lipo.Weighted>
-9.2934

> <Gold.Chemscore.Internal_Hbond.Weighted>
0.0000

> <Gold.Chemscore.DEClash.Weighted>
1.3125

> <Gold.Chemscore.DEInternal.Weighted>
0.3545

> <Gold.Chemscore.Rot.Weighted>
4.6537

> <Gold.Chemscore.Internal.Correction.Weighted>
   9.000000E+99

> <Gold.Protein.RotatedTorsions>
[ 6907 6896 6895 6894 ] final   44.19 input  -60.11 | X-H torsion
[ 7974 7965 7964 7962 ] final  136.06 input  175.53 | X-H torsion
[ 8008 7997 7996 7995 ] final   70.31 input   59.86 | X-H torsion
[ 10167 10162 10161 10158 ] final   74.76 input  -65.29 | X-H torsion
[ 10718 10713 10712 10709 ] final   74.73 input   66.30 | X-H torsion
[ 10763 10752 10751 10750 ] final  -90.20 input  -60.55 | X-H torsion
[ 11005 11000 10999 10996 ] final  -92.69 input  -57.11 | X-H torsion

> <Gold.Protein.ActiveResidues>
 VAL166  LYS551  ARG553  GLY616  TRP617  ASP618  TYR619  PRO620  LYS621  CYS622 
 ASP623  PHE694  ASN695  SER759  ASP760  ASP761  ALA762  ILE779  LEU786  VAL792 
 PHE793  MET794  SER795  GLU796  ALA797  LYS798  CYS799  TRP800  GLU811  SER814 

> <Gold.Protein.RotatedAtoms>
  152.2295  134.8336  160.0475 H   0  0  0  0  0  0  0  0  0  0  0  0  # atno 6907 bound_to 6896
  151.9090  133.3551  159.3865 H   0  0  0  0  0  0  0  0  0  0  0  0  # atno 6908 bound_to 6896
  150.7021  134.4677  159.5454 H   0  0  0  0  0  0  0  0  0  0  0  0  # atno 6909 bound_to 6896
  144.9602  139.4719  143.5483 H   0  0  0  0  0  0  0  0  0  0  0  0  # atno 7974 bound_to 7965
  155.7369  140.3491  155.5085 H   0  0  0  0  0  0  0  0  0  0  0  0  # atno 8008 bound_to 7997
  155.9131  140.1054  157.1286 H   0  0  0  0  0  0  0  0  0  0  0  0  # atno 8009 bound_to 7997
  154.4059  140.1264  156.4569 H   0  0  0  0  0  0  0  0  0  0  0  0  # atno 8010 bound_to 7997
  140.0102  144.5620  150.7665 H   0  0  0  0  0  0  0  0  0  0  0  0  # atno 10167 bound_to 10162
  157.6605  130.9692  150.1253 H   0  0  0  0  0  0  0  0  0  0  0  0  # atno 10718 bound_to 10713
  154.6632  135.5313  153.8044 H   0  0  0  0  0  0  0  0  0  0  0  0  # atno 10763 bound_to 10752
  153.0455  135.6511  154.0839 H   0  0  0  0  0  0  0  0  0  0  0  0  # atno 10764 bound_to 10752
  154.0746  135.2951  155.3282 H   0  0  0  0  0  0  0  0  0  0  0  0  # atno 10765 bound_to 10752
  141.1516  133.7838  157.0055 H   0  0  0  0  0  0  0  0  0  0  0  0  # atno 11005 bound_to 11000
  146.3350  139.8747  142.8834 LP  0  0  0  0  0  0  0  0  0  0  0  0  # atno 17320 bound_to 7965
  145.2711  141.0109  143.3771 LP  0  0  0  0  0  0  0  0  0  0  0  0  # atno 17321 bound_to 7965
  140.7384  143.2778  151.3689 LP  0  0  0  0  0  0  0  0  0  0  0  0  # atno 17342 bound_to 10162
  139.6210  144.0907  152.2391 LP  0  0  0  0  0  0  0  0  0  0  0  0  # atno 17343 bound_to 10162
  156.2114  130.3667  149.8666 LP  0  0  0  0  0  0  0  0  0  0  0  0  # atno 17370 bound_to 10713
  156.6544  130.8756  151.3537 LP  0  0  0  0  0  0  0  0  0  0  0  0  # atno 17371 bound_to 10713
  140.0912  134.9591  157.1778 LP  0  0  0  0  0  0  0  0  0  0  0  0  # atno 17394 bound_to 11000
  140.3444  134.2668  155.7207 LP  0  0  0  0  0  0  0  0  0  0  0  0  # atno 17395 bound_to 11000

$$$$
