AV-unprocessed.smi:2063|AV-procd|sdf|8414|dock10
  -GOLD-   2272011103D 1   1.00000     0.00000
 Structure written by MMmdl.
 38 39  0  0  0  0  0  0  0  0  2 V2000
  147.8888  140.7658  155.9811 C   0  0  0  0  0  0  0  0  0  0  0  0
  148.5116  140.5458  154.5948 C   0  0  0  0  0  0  0  0  0  0  0  0
  147.4658  140.3946  153.4809 C   0  0  0  0  0  0  0  0  0  0  0  0
  149.5031  139.4244  154.5929 C   0  0  0  0  0  0  0  0  0  0  0  0
  150.8054  139.6006  154.3480 N   0  0  0  0  0  0  0  0  0  0  0  0
  151.5159  138.4107  154.4058 N   0  0  0  0  0  0  0  0  0  0  0  0
  150.7475  137.3535  154.7023 C   0  0  0  0  0  0  0  0  0  0  0  0
  151.2427  136.1089  154.8026 N   0  5  0  0  0  0  0  0  0  0  0  0
  150.4547  135.1005  155.2403 C   0  0  0  0  0  0  0  0  0  0  0  0
  150.6043  134.4556  156.2809 O   0  0  0  0  0  0  0  0  0  0  0  0
  149.4305  134.8228  154.4206 N   0  0  0  0  0  0  0  0  0  0  0  0
  148.4077  133.8000  154.6289 C   0  0  2  0  0  0  0  0  0  0  0  0
  149.0637  132.4076  154.6540 C   0  0  0  0  0  0  0  0  0  0  0  0
  147.3440  133.9215  153.5208 C   0  0  1  0  0  0  0  0  0  0  0  0
  147.7337  133.2905  152.1822 C   0  0  0  0  0  0  0  0  0  0  0  0
  146.3998  132.9281  151.5460 C   0  0  0  0  0  0  0  0  0  0  0  0
  145.3882  133.0811  152.6844 C   0  0  0  0  0  0  0  0  0  0  0  0
  146.1767  133.1876  153.8599 O   0  0  0  0  0  0  0  0  0  0  0  0
  149.0450  137.7598  154.9151 S   0  0  0  0  0  0  0  0  0  0  0  0
  148.6583  140.9521  156.7309 H   0  0  0  0  0  0  0  0  0  0  0  0
  147.3153  139.8952  156.3011 H   0  0  0  0  0  0  0  0  0  0  0  0
  147.2161  141.6236  155.9776 H   0  0  0  0  0  0  0  0  0  0  0  0
  149.0734  141.4523  154.3655 H   0  0  0  0  0  0  0  0  0  0  0  0
  147.9426  140.3258  152.5027 H   0  0  0  0  0  0  0  0  0  0  0  0
  146.7886  141.2488  153.4594 H   0  0  0  0  0  0  0  0  0  0  0  0
  146.8636  139.4965  153.6219 H   0  0  0  0  0  0  0  0  0  0  0  0
  149.3476  135.3810  153.5839 H   0  0  0  0  0  0  0  0  0  0  0  0
  147.9203  133.9750  155.5897 H   0  0  0  0  0  0  0  0  0  0  0  0
  148.3300  131.6258  154.8497 H   0  0  0  0  0  0  0  0  0  0  0  0
  149.8208  132.3410  155.4358 H   0  0  0  0  0  0  0  0  0  0  0  0
  149.5475  132.1808  153.7032 H   0  0  0  0  0  0  0  0  0  0  0  0
  147.0692  134.9675  153.3698 H   0  0  0  0  0  0  0  0  0  0  0  0
  148.3277  133.9613  151.5612 H   0  0  0  0  0  0  0  0  0  0  0  0
  148.3154  132.3825  152.3472 H   0  0  0  0  0  0  0  0  0  0  0  0
  146.1532  133.5921  150.7169 H   0  0  0  0  0  0  0  0  0  0  0  0
  146.4208  131.9068  151.1646 H   0  0  0  0  0  0  0  0  0  0  0  0
  144.8060  133.9952  152.5605 H   0  0  0  0  0  0  0  0  0  0  0  0
  144.6956  132.2418  152.7477 H   0  0  0  0  0  0  0  0  0  0  0  0
  1  2  1  0  0  0  0
  1 20  1  0  0  0  0
  1 21  1  0  0  0  0
  1 22  1  0  0  0  0
  2  3  1  0  0  0  0
  2  4  1  0  0  0  0
  2 23  1  0  0  0  0
  3 24  1  0  0  0  0
  3 25  1  0  0  0  0
  3 26  1  0  0  0  0
  4 19  1  0  0  0  0
  4  5  2  0  0  0  0
  5  6  1  0  0  0  0
  6  7  2  0  0  0  0
  7  8  1  0  0  0  0
  7 19  1  0  0  0  0
  8  9  1  0  0  0  0
  9 10  2  0  0  0  0
  9 11  1  0  0  0  0
 11 12  1  0  0  0  0
 11 27  1  0  0  0  0
 12 13  1  0  0  0  0
 12 14  1  0  0  0  0
 12 28  1  0  0  0  0
 13 29  1  0  0  0  0
 13 30  1  0  0  0  0
 13 31  1  0  0  0  0
 14 18  1  0  0  0  0
 14 15  1  0  0  0  0
 14 32  1  0  0  0  0
 15 16  1  0  0  0  0
 15 33  1  0  0  0  0
 15 34  1  0  0  0  0
 16 17  1  0  0  0  0
 16 35  1  0  0  0  0
 16 36  1  0  0  0  0
 17 18  1  0  0  0  0
 17 37  1  0  0  0  0
 17 38  1  0  0  0  0
M  CHG  1   8  -1
M  END
> <s_m_source_file>
AV-unprocessed.smi

> <i_m_source_file_index>
2063

> <i_lp_mmshare_version>
43012

> <i_f3d_flags>
0

> <s_epik_input>
W0NIM11bQ0hdKFtDSDNdKWMxbm5jKHMxKVtOSF1DKD1PKVtOSF1bQ0BIXShbQ0gzXSlbQ0BASF0yW0NIMl1bQ0gyXVtDSDJdTzI=

> <s_epik_cmdline>
J2VwaWtfcHl0aG9uJywgJy1waCcsICc3LjAnLCAnLXRuJywgJzgnLCAnLW1hJywgJzIwMCcsICctbWV0YWxfYmluZGluZycsICctaW1hZScsICc8aW5maWxlLm1hZT4nLCAnLW9tYWUnLCAnPG91dGZpbGUubWFlPic=

> <r_lp_tautomer_probability>
1

> <r_epik_Ionization_Penalty>
4.37022

> <r_epik_Ionization_Penalty_Charging>
4.21437

> <r_epik_Ionization_Penalty_Neutral>
0.15585

> <r_epik_State_Penalty>
4.21389

> <r_epik_Charging_Adjusted_Penalty>
8.42826

> <i_epik_Tot_Q>
-1

> <i_epik_Tot_abs_Q>
1

> <r_epik_Metal_State_Penalty>
0.693772

> <b_epik_Metal_Only>
1

> <s_lp_Force_Field>
OPLS_2005

> <r_lp_Energy>
10.221

> <b_lp_Chiralities_Consistent>
1

> <s_lp_Variant>
AV-unprocessed.smi:2063-7

> <Gold.Version>
5.8.1

> <Gold.Id.Protein>
6NUR|6NUR_protein|mol2

> <Gold.PLP.Fitness>
37.2604

> <Gold.PLP.PLP>
-27.0467

> <Gold.PLP.part.hbond>
-3.0000

> <Gold.PLP.part.metal>
0.0000

> <Gold.PLP.part.buried>
-3.2942

> <Gold.PLP.part.nonpolar>
-20.7536

> <Gold.PLP.part.repulsive>
0.5710

> <Gold.PLP.ligand.clash>
0.0000

> <Gold.PLP.ligand.torsion>
0.9491

> <Gold.PLP.Chemscore.Hbond>
4.0000

> <Gold.PLP.Chemscore.CHOScore>
0.0000

> <Gold.PLP.Chemscore.Metal>
0.0000

> <Gold.Chemscore.Hbonds>
donor molecule, donor type, donor heavy atom, donor atom, acceptor molecule, acceptor atom, score
      L1  H    11    27       P1  7948  1.00
      P1  H  7989  7998       L1     5  1.00
      P1  H 10752 10764       L1     8  2.00

> <Gold.PLP.Chemscore.Internal.Correction>
0.1119

> <Gold.Rescore>
     Score         DG    S(hbond)    S(metal)    S(lipo)     H(rot)  DE(clash)    DE(int)     intcor
     15.35     -16.42       2.58        0.00      50.18       1.39       0.10       0.96       ----

> <Gold.Chemscore.Fitness>
15.3541

> <Gold.Chemscore.DG>
-16.4151

> <Gold.Chemscore.ZeroCoef>
-5.4800

> <Gold.Chemscore.Hbond>
2.5812

> <Gold.Chemscore.Metal>
0.0000

> <Gold.Chemscore.Lipo>
50.1772

> <Gold.Chemscore.Internal_Hbond>
0.0000

> <Gold.Chemscore.DEClash>
0.1027

> <Gold.Chemscore.DEInternal>
0.9583

> <Gold.Chemscore.Rot>
1.3893

> <Gold.Chemscore.Internal.Correction>
   9.000000E+99

> <Gold.Chemscore.Hbonds>
donor molecule, donor type, donor heavy atom, donor atom, acceptor molecule, acceptor atom, score
      L1  H    11    27       P1  7948  0.25
      P1  H  7989  7998       L1     5  0.85
      P1  H 10752 10764       L1     8  0.78

> <Gold.Chemscore.Hbond.Weighted>
-8.6211

> <Gold.Chemscore.Metal.Weighted>
-0.0000

> <Gold.Chemscore.Lipo.Weighted>
-5.8707

> <Gold.Chemscore.Internal_Hbond.Weighted>
0.0000

> <Gold.Chemscore.DEClash.Weighted>
0.1027

> <Gold.Chemscore.DEInternal.Weighted>
0.9583

> <Gold.Chemscore.Rot.Weighted>
3.5567

> <Gold.Chemscore.Internal.Correction.Weighted>
   9.000000E+99

> <Gold.Protein.RotatedTorsions>
[ 6907 6896 6895 6894 ] final  -95.13 input  -60.11 | X-H torsion
[ 7974 7965 7964 7962 ] final  -42.85 input  175.53 | X-H torsion
[ 8008 7997 7996 7995 ] final  161.90 input   59.86 | X-H torsion
[ 10167 10162 10161 10158 ] final -103.75 input  -65.29 | X-H torsion
[ 10718 10713 10712 10709 ] final   15.11 input   66.30 | X-H torsion
[ 10763 10752 10751 10750 ] final  -58.42 input  -60.55 | X-H torsion
[ 11005 11000 10999 10996 ] final  178.29 input  -57.11 | X-H torsion

> <Gold.Protein.ActiveResidues>
 VAL166  LYS551  ARG553  GLY616  TRP617  ASP618  TYR619  PRO620  LYS621  CYS622 
 ASP623  PHE694  ASN695  SER759  ASP760  ASP761  ALA762  ILE779  LEU786  VAL792 
 PHE793  MET794  SER795  GLU796  ALA797  LYS798  CYS799  TRP800  GLU811  SER814 

> <Gold.Protein.RotatedAtoms>
  150.6957  134.1705  159.4210 H   0  0  0  0  0  0  0  0  0  0  0  0  # atno 6907 bound_to 6896
  151.9683  135.0087  160.0560 H   0  0  0  0  0  0  0  0  0  0  0  0  # atno 6908 bound_to 6896
  152.1864  133.4708  159.5022 H   0  0  0  0  0  0  0  0  0  0  0  0  # atno 6909 bound_to 6896
  146.0076  140.7002  142.9240 H   0  0  0  0  0  0  0  0  0  0  0  0  # atno 7974 bound_to 7965
  156.2070  140.1765  156.7778 H   0  0  0  0  0  0  0  0  0  0  0  0  # atno 8008 bound_to 7997
  154.5669  140.0689  156.8935 H   0  0  0  0  0  0  0  0  0  0  0  0  # atno 8009 bound_to 7997
  155.2744  140.3344  155.4265 H   0  0  0  0  0  0  0  0  0  0  0  0  # atno 8010 bound_to 7997
  140.2167  143.3706  152.1005 H   0  0  0  0  0  0  0  0  0  0  0  0  # atno 10167 bound_to 10162
  157.0488  130.6261  149.5764 H   0  0  0  0  0  0  0  0  0  0  0  0  # atno 10718 bound_to 10713
  154.2379  135.6349  153.5197 H   0  0  0  0  0  0  0  0  0  0  0  0  # atno 10763 bound_to 10752
  152.9936  135.5535  154.5942 H   0  0  0  0  0  0  0  0  0  0  0  0  # atno 10764 bound_to 10752
  154.5440  135.2897  155.1044 H   0  0  0  0  0  0  0  0  0  0  0  0  # atno 10765 bound_to 10752
  140.3935  134.6841  157.4521 H   0  0  0  0  0  0  0  0  0  0  0  0  # atno 11005 bound_to 11000
  144.6941  140.3341  143.7211 LP  0  0  0  0  0  0  0  0  0  0  0  0  # atno 17320 bound_to 7965
  145.7392  139.1759  143.2385 LP  0  0  0  0  0  0  0  0  0  0  0  0  # atno 17321 bound_to 7965
  139.5159  144.6970  151.5602 LP  0  0  0  0  0  0  0  0  0  0  0  0  # atno 17342 bound_to 10162
  140.6285  143.9122  150.6585 LP  0  0  0  0  0  0  0  0  0  0  0  0  # atno 17343 bound_to 10162
  156.0014  130.5094  150.7677 LP  0  0  0  0  0  0  0  0  0  0  0  0  # atno 17370 bound_to 10713
  157.5047  131.0921  151.0272 LP  0  0  0  0  0  0  0  0  0  0  0  0  # atno 17371 bound_to 10713
  140.0389  134.6296  155.9006 LP  0  0  0  0  0  0  0  0  0  0  0  0  # atno 17394 bound_to 11000
  141.1882  133.6562  156.5316 LP  0  0  0  0  0  0  0  0  0  0  0  0  # atno 17395 bound_to 11000

$$$$
