AV-unprocessed.smi:2287|AV-procd|sdf|9205|dock7
  -GOLD-   2272012423D 1   1.00000     0.00000
 Structure written by MMmdl.
 38 39  0  0  0  0  0  0  0  0  2 V2000
  146.8310  133.2199  150.8846 C   0  0  0  0  0  0  0  0  0  0  0  0
  147.3202  133.6583  152.2121 N   0  3  0  0  0  0  0  0  0  0  0  0
  146.2124  134.1431  153.0649 C   0  0  0  0  0  0  0  0  0  0  0  0
  148.1491  132.6375  152.9017 C   0  0  0  0  0  0  0  0  0  0  0  0
  148.8589  133.1959  154.1459 C   0  0  0  0  0  0  0  0  0  0  0  0
  149.1990  134.5998  153.9547 N   0  0  0  0  0  0  0  0  0  0  0  0
  149.5456  135.4332  154.9447 C   0  0  0  0  0  0  0  0  0  0  0  0
  149.5929  135.0938  156.1264 O   0  0  0  0  0  0  0  0  0  0  0  0
  149.8108  136.6643  154.4755 N   0  0  0  0  0  0  0  0  0  0  0  0
  150.2790  137.8022  155.1866 C   0  0  0  0  0  0  0  0  0  0  0  0
  150.6775  137.8123  156.5467 C   0  0  0  0  0  0  0  0  0  0  0  0
  151.1386  138.9330  157.1430 N   0  0  0  0  0  0  0  0  0  0  0  0
  151.1963  140.0387  156.3958 C   0  0  0  0  0  0  0  0  0  0  0  0
  151.7576  141.2633  157.0498 C   0  0  0  0  0  0  0  0  0  0  0  0
  151.1382  141.8213  158.3148 C   0  0  0  0  0  0  0  0  0  0  0  0
  151.0017  142.5761  157.0217 C   0  0  0  0  0  0  0  0  0  0  0  0
  150.8658  140.1448  155.1059 N   0  0  0  0  0  0  0  0  0  0  0  0
  150.4051  139.0290  154.5011 C   0  0  0  0  0  0  0  0  0  0  0  0
  146.1960  132.3374  150.9732 H   0  0  0  0  0  0  0  0  0  0  0  0
  147.6545  132.9834  150.2117 H   0  0  0  0  0  0  0  0  0  0  0  0
  146.2472  134.0106  150.4120 H   0  0  0  0  0  0  0  0  0  0  0  0
  145.5246  133.3328  153.3097 H   0  0  0  0  0  0  0  0  0  0  0  0
  145.6495  134.9282  152.5587 H   0  0  0  0  0  0  0  0  0  0  0  0
  146.5947  134.5620  153.9963 H   0  0  0  0  0  0  0  0  0  0  0  0
  147.5051  131.8159  153.2199 H   0  0  0  0  0  0  0  0  0  0  0  0
  148.8702  132.2121  152.2016 H   0  0  0  0  0  0  0  0  0  0  0  0
  148.2258  133.1164  155.0299 H   0  0  0  0  0  0  0  0  0  0  0  0
  149.7653  132.6209  154.3434 H   0  0  0  0  0  0  0  0  0  0  0  0
  149.1766  134.9583  153.0111 H   0  0  0  0  0  0  0  0  0  0  0  0
  149.6497  136.8094  153.4895 H   0  0  0  0  0  0  0  0  0  0  0  0
  150.6589  136.9326  157.1702 H   0  0  0  0  0  0  0  0  0  0  0  0
  152.8413  141.2989  156.9566 H   0  0  0  0  0  0  0  0  0  0  0  0
  150.2480  141.3313  158.7045 H   0  0  0  0  0  0  0  0  0  0  0  0
  151.8136  142.2264  159.0656 H   0  0  0  0  0  0  0  0  0  0  0  0
  151.5853  143.4871  156.9066 H   0  0  0  0  0  0  0  0  0  0  0  0
  150.0203  142.5884  156.5512 H   0  0  0  0  0  0  0  0  0  0  0  0
  150.1385  139.1171  153.4580 H   0  0  0  0  0  0  0  0  0  0  0  0
  147.9192  134.4565  152.0544 H   0  0  0  0  0  0  0  0  0  0  0  0
  1  2  1  0  0  0  0
  1 19  1  0  0  0  0
  1 20  1  0  0  0  0
  1 21  1  0  0  0  0
  2  3  1  0  0  0  0
  2  4  1  0  0  0  0
  2 38  1  0  0  0  0
  3 22  1  0  0  0  0
  3 23  1  0  0  0  0
  3 24  1  0  0  0  0
  4  5  1  0  0  0  0
  4 25  1  0  0  0  0
  4 26  1  0  0  0  0
  5  6  1  0  0  0  0
  5 27  1  0  0  0  0
  5 28  1  0  0  0  0
  6  7  1  0  0  0  0
  6 29  1  0  0  0  0
  7  8  2  0  0  0  0
  7  9  1  0  0  0  0
  9 10  1  0  0  0  0
  9 30  1  0  0  0  0
 10 18  1  0  0  0  0
 10 11  2  0  0  0  0
 11 12  1  0  0  0  0
 11 31  1  0  0  0  0
 12 13  2  0  0  0  0
 13 14  1  0  0  0  0
 13 17  1  0  0  0  0
 14 16  1  0  0  0  0
 14 15  1  0  0  0  0
 14 32  1  0  0  0  0
 15 16  1  0  0  0  0
 15 33  1  0  0  0  0
 15 34  1  0  0  0  0
 16 35  1  0  0  0  0
 16 36  1  0  0  0  0
 17 18  2  0  0  0  0
 18 37  1  0  0  0  0
M  CHG  1   2   1
M  END
> <s_m_source_file>
AV-unprocessed.smi

> <i_m_source_file_index>
2287

> <i_lp_mmshare_version>
43012

> <i_f3d_flags>
0

> <s_epik_input>
W0NIM11OKFtDSDNdKVtDSDJdW0NIMl1bTkhdQyg9TylbTkhdYzFbY0hdbmMobltjSF0xKVtDSF0yW0NIMl1bQ0gyXTI=

> <s_epik_cmdline>
J2VwaWtfcHl0aG9uJywgJy1waCcsICc3LjAnLCAnLXRuJywgJzgnLCAnLW1hJywgJzIwMCcsICctbWV0YWxfYmluZGluZycsICctaW1hZScsICc8aW5maWxlLm1hZT4nLCAnLW9tYWUnLCAnPG91dGZpbGUubWFlPic=

> <r_lp_tautomer_probability>
1

> <r_epik_Ionization_Penalty>
0.00435795

> <r_epik_Ionization_Penalty_Charging>
0.00433655

> <r_epik_Ionization_Penalty_Neutral>
2.14019e-05

> <r_epik_State_Penalty>
0.00312208

> <r_epik_Charging_Adjusted_Penalty>
0.00745864

> <i_epik_Tot_Q>
1

> <i_epik_Tot_abs_Q>
1

> <r_epik_Metal_State_Penalty>
-0

> <b_epik_Metal_Only>
0

> <s_lp_Force_Field>
OPLS_2005

> <r_lp_Energy>
7.96618

> <b_lp_Chiralities_Consistent>
1

> <s_lp_Variant>
AV-unprocessed.smi:2287-1

> <Gold.Version>
5.8.1

> <Gold.Id.Protein>
6NUR|6NUR_protein|mol2

> <Gold.PLP.Fitness>
42.2501

> <Gold.PLP.PLP>
-26.7822

> <Gold.PLP.part.hbond>
-4.0000

> <Gold.PLP.part.metal>
0.0000

> <Gold.PLP.part.buried>
-3.0098

> <Gold.PLP.part.nonpolar>
-19.7552

> <Gold.PLP.part.repulsive>
0.1432

> <Gold.PLP.ligand.clash>
0.0000

> <Gold.PLP.ligand.torsion>
0.3621

> <Gold.PLP.Chemscore.Hbond>
4.3500

> <Gold.PLP.Chemscore.CHOScore>
1.0000

> <Gold.PLP.Chemscore.Metal>
0.0000

> <Gold.Chemscore.Hbonds>
donor molecule, donor type, donor heavy atom, donor atom, acceptor molecule, acceptor atom, score
      L1  H     2    38       P1  7948  1.90
      L1  H     6    29       P1  7948  0.55
      L1  H     9    30       P1  7948  1.00
      P1  H  7989  7998       L1    17  0.75
      L1  C    18    37       P1  7957  1.00

> <Gold.PLP.Chemscore.Internal.Correction>
0.1422

> <Gold.Rescore>
     Score         DG    S(hbond)    S(metal)    S(lipo)     H(rot)  DE(clash)    DE(int)     intcor
     13.28     -14.90       2.19        0.00      55.75       1.73       0.05       1.57       ----

> <Gold.Chemscore.Fitness>
13.2766

> <Gold.Chemscore.DG>
-14.8986

> <Gold.Chemscore.ZeroCoef>
-5.4800

> <Gold.Chemscore.Hbond>
2.1898

> <Gold.Chemscore.Metal>
0.0000

> <Gold.Chemscore.Lipo>
55.7529

> <Gold.Chemscore.Internal_Hbond>
0.0000

> <Gold.Chemscore.DEClash>
0.0477

> <Gold.Chemscore.DEInternal>
1.5743

> <Gold.Chemscore.Rot>
1.7260

> <Gold.Chemscore.Internal.Correction>
   9.000000E+99

> <Gold.Chemscore.Hbonds>
donor molecule, donor type, donor heavy atom, donor atom, acceptor molecule, acceptor atom, score
      L1  H     2    38       P1  7948  0.21
      L1  H     6    29       P1  7948  0.03
      L1  H     9    30       P1  7948  0.62
      P1  H  7989  7998       L1    17  0.09

> <Gold.Chemscore.Hbond.Weighted>
-7.3141

> <Gold.Chemscore.Metal.Weighted>
-0.0000

> <Gold.Chemscore.Lipo.Weighted>
-6.5231

> <Gold.Chemscore.Internal_Hbond.Weighted>
0.0000

> <Gold.Chemscore.DEClash.Weighted>
0.0477

> <Gold.Chemscore.DEInternal.Weighted>
1.5743

> <Gold.Chemscore.Rot.Weighted>
4.4186

> <Gold.Chemscore.Internal.Correction.Weighted>
   9.000000E+99

> <Gold.Protein.RotatedTorsions>
[ 6907 6896 6895 6894 ] final  157.39 input  -60.11 | X-H torsion
[ 7974 7965 7964 7962 ] final -142.02 input  175.53 | X-H torsion
[ 8008 7997 7996 7995 ] final  -42.47 input   59.86 | X-H torsion
[ 10167 10162 10161 10158 ] final   88.28 input  -65.29 | X-H torsion
[ 10718 10713 10712 10709 ] final  -81.62 input   66.30 | X-H torsion
[ 10763 10752 10751 10750 ] final   79.71 input  -60.55 | X-H torsion
[ 11005 11000 10999 10996 ] final -154.61 input  -57.11 | X-H torsion

> <Gold.Protein.ActiveResidues>
 VAL166  LYS551  ARG553  GLY616  TRP617  ASP618  TYR619  PRO620  LYS621  CYS622 
 ASP623  PHE694  ASN695  SER759  ASP760  ASP761  ALA762  ILE779  LEU786  VAL792 
 PHE793  MET794  SER795  GLU796  ALA797  LYS798  CYS799  TRP800  GLU811  SER814 

> <Gold.Protein.RotatedAtoms>
  152.0159  133.3879  159.4238 H   0  0  0  0  0  0  0  0  0  0  0  0  # atno 6907 bound_to 6896
  150.6895  134.3680  159.4988 H   0  0  0  0  0  0  0  0  0  0  0  0  # atno 6908 bound_to 6896
  152.1447  134.9035  160.0602 H   0  0  0  0  0  0  0  0  0  0  0  0  # atno 6909 bound_to 6896
  144.8475  140.6009  143.5412 H   0  0  0  0  0  0  0  0  0  0  0  0  # atno 7974 bound_to 7965
  154.3999  140.1472  156.3361 H   0  0  0  0  0  0  0  0  0  0  0  0  # atno 8008 bound_to 7997
  155.8399  140.3462  155.5604 H   0  0  0  0  0  0  0  0  0  0  0  0  # atno 8009 bound_to 7997
  155.8098  140.0882  157.1901 H   0  0  0  0  0  0  0  0  0  0  0  0  # atno 8010 bound_to 7997
  139.8688  144.6504  150.8973 H   0  0  0  0  0  0  0  0  0  0  0  0  # atno 10167 bound_to 10162
  156.0047  130.4609  150.3981 H   0  0  0  0  0  0  0  0  0  0  0  0  # atno 10718 bound_to 10713
  153.0975  135.4829  154.8805 H   0  0  0  0  0  0  0  0  0  0  0  0  # atno 10763 bound_to 10752
  154.7341  135.3067  154.8844 H   0  0  0  0  0  0  0  0  0  0  0  0  # atno 10764 bound_to 10752
  153.9472  135.6827  153.4797 H   0  0  0  0  0  0  0  0  0  0  0  0  # atno 10765 bound_to 10752
  140.6955  134.3995  157.5215 H   0  0  0  0  0  0  0  0  0  0  0  0  # atno 11005 bound_to 11000
  145.4567  139.1517  143.3888 LP  0  0  0  0  0  0  0  0  0  0  0  0  # atno 17320 bound_to 7965
  146.2757  140.4695  142.8796 LP  0  0  0  0  0  0  0  0  0  0  0  0  # atno 17321 bound_to 7965
  140.7764  143.3681  151.1700 LP  0  0  0  0  0  0  0  0  0  0  0  0  # atno 17342 bound_to 10162
  139.7303  143.9083  152.3017 LP  0  0  0  0  0  0  0  0  0  0  0  0  # atno 17343 bound_to 10162
  157.2051  131.0447  151.2629 LP  0  0  0  0  0  0  0  0  0  0  0  0  # atno 17370 bound_to 10713
  157.3940  130.7297  149.6718 LP  0  0  0  0  0  0  0  0  0  0  0  0  # atno 17371 bound_to 10713
  139.8911  134.8787  156.2335 LP  0  0  0  0  0  0  0  0  0  0  0  0  # atno 17394 bound_to 11000
  141.0206  133.7043  156.1263 LP  0  0  0  0  0  0  0  0  0  0  0  0  # atno 17395 bound_to 11000

$$$$
