AV-unprocessed.smi:1677|AV-procd|sdf|6725|dock10
  -GOLD-   22720 7473D 1   1.00000     0.00000
 Structure written by MMmdl.
 36 37  0  0  0  0  0  0  0  0  1 V2000
  149.0910  141.4154  154.4079 C   0  0  0  0  0  0  0  0  0  0  0  0
  149.9600  140.8040  155.5193 C   0  0  1  0  0  0  0  0  0  0  0  0
  151.2887  140.2148  154.9978 C   0  0  0  0  0  0  0  0  0  0  0  0
  151.3301  138.7669  155.0781 N   0  0  0  0  0  0  0  0  0  0  0  0
  150.5443  137.8686  154.3686 C   0  0  0  0  0  0  0  0  0  0  0  0
  150.9316  136.6087  154.7659 C   0  0  0  0  0  0  0  0  0  0  0  0
  151.9437  136.7075  155.7178 N   0  0  0  0  0  0  0  0  0  0  0  0
  152.1235  138.0149  155.8538 C   0  0  0  0  0  0  0  0  0  0  0  0
  150.2259  141.8226  156.5309 N   0  0  0  0  0  0  0  0  0  0  0  0
  150.9779  141.6532  157.6300 C   0  0  0  0  0  0  0  0  0  0  0  0
  151.5441  140.5945  157.9041 O   0  0  0  0  0  0  0  0  0  0  0  0
  151.1093  142.8653  158.5622 C   0  0  2  0  0  0  0  0  0  0  0  0
  151.5819  144.1198  157.7913 C   0  0  0  0  0  0  0  0  0  0  0  0
  151.9617  145.2561  158.7247 C   0  0  0  0  0  0  0  0  0  0  0  0
  152.1914  145.0883  160.0385 C   0  0  0  0  0  0  0  0  0  0  0  0
  152.1019  143.7433  160.7373 C   0  0  0  0  0  0  0  0  0  0  0  0
  152.0582  142.5690  159.7410 C   0  0  0  0  0  0  0  0  0  0  0  0
  148.7871  140.6647  153.6781 H   0  0  0  0  0  0  0  0  0  0  0  0
  149.6263  142.2015  153.8745 H   0  0  0  0  0  0  0  0  0  0  0  0
  148.1800  141.8519  154.8185 H   0  0  0  0  0  0  0  0  0  0  0  0
  149.3803  140.0008  155.9785 H   0  0  0  0  0  0  0  0  0  0  0  0
  151.4519  140.5095  153.9600 H   0  0  0  0  0  0  0  0  0  0  0  0
  152.1310  140.6069  155.5693 H   0  0  0  0  0  0  0  0  0  0  0  0
  149.7980  138.1923  153.6578 H   0  0  0  0  0  0  0  0  0  0  0  0
  150.5615  135.6465  154.4435 H   0  0  0  0  0  0  0  0  0  0  0  0
  152.8544  138.4346  156.5296 H   0  0  0  0  0  0  0  0  0  0  0  0
  149.7996  142.7264  156.3871 H   0  0  0  0  0  0  0  0  0  0  0  0
  150.1235  143.0801  158.9800 H   0  0  0  0  0  0  0  0  0  0  0  0
  152.4467  143.8994  157.1641 H   0  0  0  0  0  0  0  0  0  0  0  0
  150.7886  144.4657  157.1276 H   0  0  0  0  0  0  0  0  0  0  0  0
  152.0584  146.2375  158.2839 H   0  0  0  0  0  0  0  0  0  0  0  0
  152.4452  145.9400  160.6525 H   0  0  0  0  0  0  0  0  0  0  0  0
  152.9532  143.6287  161.4087 H   0  0  0  0  0  0  0  0  0  0  0  0
  151.2054  143.7444  161.3578 H   0  0  0  0  0  0  0  0  0  0  0  0
  151.7573  141.6591  160.2618 H   0  0  0  0  0  0  0  0  0  0  0  0
  153.0648  142.3863  159.3612 H   0  0  0  0  0  0  0  0  0  0  0  0
  1  2  1  0  0  0  0
  1 18  1  0  0  0  0
  1 19  1  0  0  0  0
  1 20  1  0  0  0  0
  2  3  1  0  0  0  0
  2  9  1  0  0  0  0
  2 21  1  0  0  0  0
  3  4  1  0  0  0  0
  3 22  1  0  0  0  0
  3 23  1  0  0  0  0
  4  8  1  0  0  0  0
  4  5  1  0  0  0  0
  5  6  2  0  0  0  0
  5 24  1  0  0  0  0
  6  7  1  0  0  0  0
  6 25  1  0  0  0  0
  7  8  2  0  0  0  0
  8 26  1  0  0  0  0
  9 10  1  0  0  0  0
  9 27  1  0  0  0  0
 10 11  2  0  0  0  0
 10 12  1  0  0  0  0
 12 17  1  0  0  0  0
 12 13  1  0  0  0  0
 12 28  1  0  0  0  0
 13 14  1  0  0  0  0
 13 29  1  0  0  0  0
 13 30  1  0  0  0  0
 14 15  2  0  0  0  0
 14 31  1  0  0  0  0
 15 16  1  0  0  0  0
 15 32  1  0  0  0  0
 16 17  1  0  0  0  0
 16 33  1  0  0  0  0
 16 34  1  0  0  0  0
 17 35  1  0  0  0  0
 17 36  1  0  0  0  0
M  END
> <s_m_source_file>
AV-unprocessed.smi

> <i_m_source_file_index>
1677

> <i_lp_mmshare_version>
43012

> <i_f3d_flags>
0

> <s_epik_input>
W2NIXTFuW2NIXVtjSF1uMVtDSDJdW0NAQEhdKFtDSDNdKVtOSF1DKD1PKVtDQEBIXTJbQ0gyXVtDSF09W0NIXVtDSDJdW0NIMl0y

> <s_epik_cmdline>
J2VwaWtfcHl0aG9uJywgJy1waCcsICc3LjAnLCAnLXRuJywgJzgnLCAnLW1hJywgJzIwMCcsICctbWV0YWxfYmluZGluZycsICctaW1hZScsICc8aW5maWxlLm1hZT4nLCAnLW9tYWUnLCAnPG91dGZpbGUubWFlPic=

> <r_lp_tautomer_probability>
1

> <r_epik_Ionization_Penalty>
0.640435

> <r_epik_Ionization_Penalty_Charging>
0.640435

> <r_epik_Ionization_Penalty_Neutral>
2.11108e-08

> <r_epik_State_Penalty>
0.658069

> <r_epik_Charging_Adjusted_Penalty>
1.2985

> <i_epik_Tot_Q>
0

> <i_epik_Tot_abs_Q>
0

> <r_epik_Metal_State_Penalty>
0.311689

> <b_epik_Metal_Only>
0

> <s_lp_Force_Field>
OPLS_2005

> <r_lp_Energy>
10.0444

> <b_lp_Chiralities_Consistent>
1

> <s_lp_Variant>
AV-unprocessed.smi:1677-6

> <Gold.Version>
5.8.1

> <Gold.Id.Protein>
6NUR|6NUR_protein|mol2

> <Gold.PLP.Fitness>
42.5140

> <Gold.PLP.PLP>
-39.2745

> <Gold.PLP.part.hbond>
-1.0716

> <Gold.PLP.part.metal>
0.0000

> <Gold.PLP.part.buried>
-0.8209

> <Gold.PLP.part.nonpolar>
-37.1304

> <Gold.PLP.part.repulsive>
0.0958

> <Gold.PLP.ligand.clash>
0.0000

> <Gold.PLP.ligand.torsion>
0.8338

> <Gold.PLP.Chemscore.Hbond>
1.3088

> <Gold.PLP.Chemscore.CHOScore>
0.3135

> <Gold.PLP.Chemscore.Metal>
0.0000

> <Gold.Chemscore.Hbonds>
donor molecule, donor type, donor heavy atom, donor atom, acceptor molecule, acceptor atom, score
      L1  H     9    27       P1  8028  0.29
      P1  H 10752 10764       L1     7  1.00
      L1  C     5    24       P1  7948  0.31

> <Gold.PLP.Chemscore.Internal.Correction>
0.0404

> <Gold.Rescore>
     Score         DG    S(hbond)    S(metal)    S(lipo)     H(rot)  DE(clash)    DE(int)     intcor
     12.83     -16.39       0.87        0.00     106.73       1.75       1.80       1.76       ----

> <Gold.Chemscore.Fitness>
12.8279

> <Gold.Chemscore.DG>
-16.3886

> <Gold.Chemscore.ZeroCoef>
-5.4800

> <Gold.Chemscore.Hbond>
0.8665

> <Gold.Chemscore.Metal>
0.0000

> <Gold.Chemscore.Lipo>
106.7345

> <Gold.Chemscore.Internal_Hbond>
0.0000

> <Gold.Chemscore.DEClash>
1.7972

> <Gold.Chemscore.DEInternal>
1.7635

> <Gold.Chemscore.Rot>
1.7475

> <Gold.Chemscore.Internal.Correction>
   9.000000E+99

> <Gold.Chemscore.Hbonds>
donor molecule, donor type, donor heavy atom, donor atom, acceptor molecule, acceptor atom, score
      L1  H     9    27       P1  8028  0.31
      P1  H 10752 10764       L1     7  0.29

> <Gold.Chemscore.Hbond.Weighted>
-2.8942

> <Gold.Chemscore.Metal.Weighted>
-0.0000

> <Gold.Chemscore.Lipo.Weighted>
-12.4879

> <Gold.Chemscore.Internal_Hbond.Weighted>
0.0000

> <Gold.Chemscore.DEClash.Weighted>
1.7972

> <Gold.Chemscore.DEInternal.Weighted>
1.7635

> <Gold.Chemscore.Rot.Weighted>
4.4735

> <Gold.Chemscore.Internal.Correction.Weighted>
   9.000000E+99

> <Gold.Protein.RotatedTorsions>
[ 6907 6896 6895 6894 ] final   51.03 input  -60.11 | X-H torsion
[ 7974 7965 7964 7962 ] final -114.86 input  175.53 | X-H torsion
[ 8008 7997 7996 7995 ] final  -69.46 input   59.86 | X-H torsion
[ 10167 10162 10161 10158 ] final -151.88 input  -65.29 | X-H torsion
[ 10718 10713 10712 10709 ] final  138.75 input   66.30 | X-H torsion
[ 10763 10752 10751 10750 ] final  -28.22 input  -60.55 | X-H torsion
[ 11005 11000 10999 10996 ] final    7.72 input  -57.11 | X-H torsion

> <Gold.Protein.ActiveResidues>
 VAL166  LYS551  ARG553  GLY616  TRP617  ASP618  TYR619  PRO620  LYS621  CYS622 
 ASP623  PHE694  ASN695  SER759  ASP760  ASP761  ALA762  ILE779  LEU786  VAL792 
 PHE793  MET794  SER795  GLU796  ALA797  LYS798  CYS799  TRP800  GLU811  SER814 

> <Gold.Protein.RotatedAtoms>
  152.3083  134.7528  160.0342 H   0  0  0  0  0  0  0  0  0  0  0  0  # atno 6907 bound_to 6896
  151.8018  133.3365  159.3537 H   0  0  0  0  0  0  0  0  0  0  0  0  # atno 6908 bound_to 6896
  150.7307  134.5677  159.5918 H   0  0  0  0  0  0  0  0  0  0  0  0  # atno 6909 bound_to 6896
  145.1151  140.8635  143.3847 H   0  0  0  0  0  0  0  0  0  0  0  0  # atno 7974 bound_to 7965
  154.4940  140.0853  156.7657 H   0  0  0  0  0  0  0  0  0  0  0  0  # atno 8008 bound_to 7997
  155.4161  140.3443  155.4249 H   0  0  0  0  0  0  0  0  0  0  0  0  # atno 8009 bound_to 7997
  156.1369  140.1518  156.8968 H   0  0  0  0  0  0  0  0  0  0  0  0  # atno 8010 bound_to 7997
  139.7229  143.8928  152.2509 H   0  0  0  0  0  0  0  0  0  0  0  0  # atno 10167 bound_to 10162
  157.4220  131.1039  151.0344 H   0  0  0  0  0  0  0  0  0  0  0  0  # atno 10718 bound_to 10713
  153.7448  135.6930  153.4959 H   0  0  0  0  0  0  0  0  0  0  0  0  # atno 10763 bound_to 10752
  153.2044  135.4425  155.0304 H   0  0  0  0  0  0  0  0  0  0  0  0  # atno 10764 bound_to 10752
  154.8208  135.3421  154.6971 H   0  0  0  0  0  0  0  0  0  0  0  0  # atno 10765 bound_to 10752
  140.5450  134.0337  155.7917 H   0  0  0  0  0  0  0  0  0  0  0  0  # atno 11005 bound_to 11000
  145.0803  139.2965  143.5787 LP  0  0  0  0  0  0  0  0  0  0  0  0  # atno 17320 bound_to 7965
  146.3524  140.0307  142.8651 LP  0  0  0  0  0  0  0  0  0  0  0  0  # atno 17321 bound_to 7965
  139.8829  144.7007  150.8857 LP  0  0  0  0  0  0  0  0  0  0  0  0  # atno 17342 bound_to 10162
  140.7757  143.3646  151.1762 LP  0  0  0  0  0  0  0  0  0  0  0  0  # atno 17343 bound_to 10162
  157.1271  130.6086  149.5520 LP  0  0  0  0  0  0  0  0  0  0  0  0  # atno 17370 bound_to 10713
  155.9883  130.4927  150.7166 LP  0  0  0  0  0  0  0  0  0  0  0  0  # atno 17371 bound_to 10713
  141.1205  133.9470  157.2739 LP  0  0  0  0  0  0  0  0  0  0  0  0  # atno 17394 bound_to 11000
  139.9484  135.0180  156.8921 LP  0  0  0  0  0  0  0  0  0  0  0  0  # atno 17395 bound_to 11000

$$$$
