AV-unprocessed.smi:112|AV-procd|sdf|1087|dock4
  -GOLD-   2262018183D 1   1.00000     0.00000
 Structure written by MMmdl.
 54 57  0  0  0  0  0  0  0  0  3 V2000
  145.5851  141.3669  155.2973 C   0  0  0  0  0  0  0  0  0  0  0  0
  146.6276  141.8009  156.3153 C   0  0  0  0  0  0  0  0  0  0  0  0
  146.2872  142.2924  157.5285 C   0  0  0  0  0  0  0  0  0  0  0  0
  147.2092  142.6912  158.4773 N   0  0  0  0  0  0  0  0  0  0  0  0
  146.7477  143.2321  159.8081 C   0  0  2  0  0  0  0  0  0  0  0  0
  145.2287  143.2669  159.8969 C   0  0  0  0  0  0  0  0  0  0  0  0
  145.0175  144.3972  160.8861 C   0  0  1  0  0  0  0  0  0  0  0  0
  144.9765  143.8910  162.2066 O   0  0  0  0  0  0  0  0  0  0  0  0
  146.2520  145.3051  160.7002 C   0  0  2  0  0  0  0  0  0  0  0  0
  145.9303  146.5857  159.9118 C   0  0  0  0  0  0  0  0  0  0  0  0
  147.0973  147.3651  159.7605 O   0  0  0  0  0  0  0  0  0  0  0  0
  147.1845  144.5465  159.9277 O   0  0  0  0  0  0  0  0  0  0  0  0
  148.5874  142.5820  158.2043 C   0  0  0  0  0  0  0  0  0  0  0  0
  149.4293  142.8980  159.0478 O   0  0  0  0  0  0  0  0  0  0  0  0
  148.9772  142.0837  156.9402 N   0  0  0  0  0  0  0  0  0  0  0  0
  150.4224  141.9502  156.6456 C   0  0  0  0  0  0  0  0  0  0  0  0
  151.1578  140.9626  157.5785 C   0  0  0  0  0  0  0  0  0  0  0  0
  150.9399  139.7564  157.4577 O   0  0  0  0  0  0  0  0  0  0  0  0
  152.0150  141.4755  158.4962 N   0  0  0  0  0  0  0  0  0  0  0  0
  152.2692  142.9180  158.6539 C   0  0  0  0  0  0  0  0  0  0  0  0
  153.2901  143.0556  159.8046 C   0  0  0  0  0  0  0  0  0  0  0  0
  153.5408  141.6327  160.2077 C   0  0  0  0  0  0  0  0  0  0  0  0
  154.4063  141.1878  161.2214 C   0  0  0  0  0  0  0  0  0  0  0  0
  154.5190  139.7961  161.4633 C   0  0  0  0  0  0  0  0  0  0  0  0
  155.4188  139.2917  162.5196 N   0  3  0  0  0  0  0  0  0  0  0  0
  156.0691  140.1055  163.1675 O   0  0  0  0  0  0  0  0  0  0  0  0
  155.4766  138.0802  162.7034 O   0  5  0  0  0  0  0  0  0  0  0  0
  153.7553  138.8945  160.6752 C   0  0  0  0  0  0  0  0  0  0  0  0
  152.8903  139.3591  159.6604 C   0  0  0  0  0  0  0  0  0  0  0  0
  152.7932  140.7498  159.4370 C   0  0  0  0  0  0  0  0  0  0  0  0
  148.0425  141.6716  155.9579 C   0  0  0  0  0  0  0  0  0  0  0  0
  148.4258  141.2235  154.8754 O   0  0  0  0  0  0  0  0  0  0  0  0
  144.5703  141.5176  155.6667 H   0  0  0  0  0  0  0  0  0  0  0  0
  145.7002  140.3083  155.0612 H   0  0  0  0  0  0  0  0  0  0  0  0
  145.6919  141.9380  154.3744 H   0  0  0  0  0  0  0  0  0  0  0  0
  145.2373  142.3718  157.7724 H   0  0  0  0  0  0  0  0  0  0  0  0
  147.2113  142.6458  160.6023 H   0  0  0  0  0  0  0  0  0  0  0  0
  144.8099  143.5371  158.9267 H   0  0  0  0  0  0  0  0  0  0  0  0
  144.8215  142.3031  160.2054 H   0  0  0  0  0  0  0  0  0  0  0  0
  144.0781  144.9182  160.6974 H   0  0  0  0  0  0  0  0  0  0  0  0
  144.6308  144.5605  162.7772 H   0  0  0  0  0  0  0  0  0  0  0  0
  146.6881  145.5611  161.6679 H   0  0  0  0  0  0  0  0  0  0  0  0
  145.4964  146.3573  158.9379 H   0  0  0  0  0  0  0  0  0  0  0  0
  145.2059  147.1933  160.4549 H   0  0  0  0  0  0  0  0  0  0  0  0
  147.5164  147.1194  158.9496 H   0  0  0  0  0  0  0  0  0  0  0  0
  150.5702  141.6381  155.6108 H   0  0  0  0  0  0  0  0  0  0  0  0
  150.9124  142.9231  156.7028 H   0  0  0  0  0  0  0  0  0  0  0  0
  152.6759  143.3414  157.7345 H   0  0  0  0  0  0  0  0  0  0  0  0
  151.3489  143.4499  158.8992 H   0  0  0  0  0  0  0  0  0  0  0  0
  154.2153  143.5280  159.4733 H   0  0  0  0  0  0  0  0  0  0  0  0
  152.8836  143.6229  160.6422 H   0  0  0  0  0  0  0  0  0  0  0  0
  154.9700  141.9066  161.7979 H   0  0  0  0  0  0  0  0  0  0  0  0
  153.8261  137.8298  160.8418 H   0  0  0  0  0  0  0  0  0  0  0  0
  152.3297  138.6403  159.0843 H   0  0  0  0  0  0  0  0  0  0  0  0
  1  2  1  0  0  0  0
  1 33  1  0  0  0  0
  1 34  1  0  0  0  0
  1 35  1  0  0  0  0
  2 31  1  0  0  0  0
  2  3  2  0  0  0  0
  3  4  1  0  0  0  0
  3 36  1  0  0  0  0
  4  5  1  0  0  0  0
  4 13  1  0  0  0  0
  5 12  1  0  0  0  0
  5  6  1  0  0  0  0
  5 37  1  0  0  0  0
  6  7  1  0  0  0  0
  6 38  1  0  0  0  0
  6 39  1  0  0  0  0
  7  8  1  0  0  0  0
  7  9  1  0  0  0  0
  7 40  1  0  0  0  0
  8 41  1  0  0  0  0
  9 10  1  0  0  0  0
  9 12  1  0  0  0  0
  9 42  1  0  0  0  0
 10 11  1  0  0  0  0
 10 43  1  0  0  0  0
 10 44  1  0  0  0  0
 11 45  1  0  0  0  0
 13 14  2  0  0  0  0
 13 15  1  0  0  0  0
 15 16  1  0  0  0  0
 15 31  1  0  0  0  0
 16 17  1  0  0  0  0
 16 46  1  0  0  0  0
 16 47  1  0  0  0  0
 17 18  2  0  0  0  0
 17 19  1  0  0  0  0
 19 30  1  0  0  0  0
 19 20  1  0  0  0  0
 20 21  1  0  0  0  0
 20 48  1  0  0  0  0
 20 49  1  0  0  0  0
 21 22  1  0  0  0  0
 21 50  1  0  0  0  0
 21 51  1  0  0  0  0
 22 30  2  0  0  0  0
 22 23  1  0  0  0  0
 23 24  2  0  0  0  0
 23 52  1  0  0  0  0
 24 25  1  0  0  0  0
 24 28  1  0  0  0  0
 25 26  2  0  0  0  0
 25 27  1  0  0  0  0
 28 29  2  0  0  0  0
 28 53  1  0  0  0  0
 29 30  1  0  0  0  0
 29 54  1  0  0  0  0
 31 32  2  0  0  0  0
M  CHG  1  25   1
M  CHG  1  27  -1
M  END
> <s_m_source_file>
AV-unprocessed.smi

> <i_m_source_file_index>
112

> <i_lp_mmshare_version>
43012

> <i_f3d_flags>
0

> <s_epik_input>
W09IXVtDSDJdW0NAQEhdKE8xKVtDQEhdKFtPSF0pW0NIMl1bQ0BIXTFuKFtjSF1jMltDSDNdKWMoPU8pbihjMj1PKVtDSDJdQyg9TylOKFtDSDJdW0NIMl0zKWMoYzM0KVtjSF1bY0hdYyhbY0hdNClbTitdKD1PKVtPLV0=

> <s_epik_cmdline>
J2VwaWtfcHl0aG9uJywgJy1waCcsICc3LjAnLCAnLXRuJywgJzgnLCAnLW1hJywgJzIwMCcsICctbWV0YWxfYmluZGluZycsICctaW1hZScsICc8aW5maWxlLm1hZT4nLCAnLW9tYWUnLCAnPG91dGZpbGUubWFlPic=

> <r_lp_tautomer_probability>
1

> <r_epik_Ionization_Penalty>
2.5696e-07

> <r_epik_Ionization_Penalty_Charging>
1.04886e-08

> <r_epik_Ionization_Penalty_Neutral>
2.46472e-07

> <r_epik_State_Penalty>
-0

> <r_epik_Charging_Adjusted_Penalty>
1.04886e-08

> <i_epik_Tot_Q>
0

> <i_epik_Tot_abs_Q>
2

> <r_epik_Metal_State_Penalty>
-0

> <b_epik_Metal_Only>
0

> <s_epik_Chemistry_Notes>
This compound contains an acetal/aminal-like group ( X-CH(R)-Y where X, Y are N, S, or O) that may be acid/base labile, releasing an aldehyde.

> <s_lp_Force_Field>
OPLS_2005

> <r_lp_Energy>
58.3709

> <b_lp_Chiralities_Consistent>
1

> <s_lp_Variant>
AV-unprocessed.smi:112-5

> <Gold.Version>
5.8.1

> <Gold.Id.Protein>
6NUR|6NUR_protein|mol2

> <Gold.PLP.Fitness>
50.3212

> <Gold.PLP.PLP>
-47.5473

> <Gold.PLP.part.hbond>
-4.6173

> <Gold.PLP.part.metal>
0.0000

> <Gold.PLP.part.buried>
-4.3530

> <Gold.PLP.part.nonpolar>
-38.9401

> <Gold.PLP.part.repulsive>
0.7336

> <Gold.PLP.ligand.clash>
0.0000

> <Gold.PLP.ligand.torsion>
0.1320

> <Gold.PLP.Chemscore.Hbond>
1.0000

> <Gold.PLP.Chemscore.CHOScore>
0.0000

> <Gold.PLP.Chemscore.Metal>
0.0000

> <Gold.Chemscore.Hbonds>
donor molecule, donor type, donor heavy atom, donor atom, acceptor molecule, acceptor atom, score
      L1  H    11    45       P1  8029  1.00

> <Gold.PLP.Chemscore.Internal.Correction>
0.0379

> <Gold.Rescore>
     Score         DG    S(hbond)    S(metal)    S(lipo)     H(rot)  DE(clash)    DE(int)     intcor
      9.76     -11.34       1.00        0.00      93.56       3.29       0.01       1.57       ----

> <Gold.Chemscore.Fitness>
9.7618

> <Gold.Chemscore.DG>
-11.3412

> <Gold.Chemscore.ZeroCoef>
-5.4800

> <Gold.Chemscore.Hbond>
1.0002

> <Gold.Chemscore.Metal>
0.0000

> <Gold.Chemscore.Lipo>
93.5637

> <Gold.Chemscore.Internal_Hbond>
0.0000

> <Gold.Chemscore.DEClash>
0.0122

> <Gold.Chemscore.DEInternal>
1.5671

> <Gold.Chemscore.Rot>
3.2916

> <Gold.Chemscore.Internal.Correction>
   9.000000E+99

> <Gold.Chemscore.Hbonds>
donor molecule, donor type, donor heavy atom, donor atom, acceptor molecule, acceptor atom, score
      L1  H    11    45       P1  8029  0.92

> <Gold.Chemscore.Hbond.Weighted>
-3.3407

> <Gold.Chemscore.Metal.Weighted>
-0.0000

> <Gold.Chemscore.Lipo.Weighted>
-10.9469

> <Gold.Chemscore.Internal_Hbond.Weighted>
0.0000

> <Gold.Chemscore.DEClash.Weighted>
0.0122

> <Gold.Chemscore.DEInternal.Weighted>
1.5671

> <Gold.Chemscore.Rot.Weighted>
8.4265

> <Gold.Chemscore.Internal.Correction.Weighted>
   9.000000E+99

> <Gold.Protein.RotatedTorsions>
[ 6907 6896 6895 6894 ] final   29.91 input  -60.11 | X-H torsion
[ 7974 7965 7964 7962 ] final  -24.14 input  175.53 | X-H torsion
[ 8008 7997 7996 7995 ] final  -48.14 input   59.86 | X-H torsion
[ 10167 10162 10161 10158 ] final -175.14 input  -65.29 | X-H torsion
[ 10718 10713 10712 10709 ] final -170.96 input   66.30 | X-H torsion
[ 10763 10752 10751 10750 ] final -154.38 input  -60.55 | X-H torsion
[ 11005 11000 10999 10996 ] final   78.30 input  -57.11 | X-H torsion

> <Gold.Protein.ActiveResidues>
 VAL166  LYS551  ARG553  GLY616  TRP617  ASP618  TYR619  PRO620  LYS621  CYS622 
 ASP623  PHE694  ASN695  SER759  ASP760  ASP761  ALA762  ILE779  LEU786  VAL792 
 PHE793  MET794  SER795  GLU796  ALA797  LYS798  CYS799  TRP800  GLU811  SER814 

> <Gold.Protein.RotatedAtoms>
  152.0384  134.9726  160.0573 H   0  0  0  0  0  0  0  0  0  0  0  0  # atno 6907 bound_to 6896
  152.1175  133.4330  159.4668 H   0  0  0  0  0  0  0  0  0  0  0  0  # atno 6908 bound_to 6896
  150.6847  134.2493  159.4547 H   0  0  0  0  0  0  0  0  0  0  0  0  # atno 6909 bound_to 6896
  146.1573  140.4712  142.8586 H   0  0  0  0  0  0  0  0  0  0  0  0  # atno 7974 bound_to 7965
  154.4025  140.1329  156.4290 H   0  0  0  0  0  0  0  0  0  0  0  0  # atno 8008 bound_to 7997
  155.7570  140.3487  155.5158 H   0  0  0  0  0  0  0  0  0  0  0  0  # atno 8009 bound_to 7997
  155.8896  140.1001  157.1418 H   0  0  0  0  0  0  0  0  0  0  0  0  # atno 8010 bound_to 7997
  139.5596  144.1902  152.1217 H   0  0  0  0  0  0  0  0  0  0  0  0  # atno 10167 bound_to 10162
  156.7338  130.9316  151.3106 H   0  0  0  0  0  0  0  0  0  0  0  0  # atno 10718 bound_to 10713
  154.7863  135.3191  154.7879 H   0  0  0  0  0  0  0  0  0  0  0  0  # atno 10763 bound_to 10752
  153.8579  135.6856  153.4790 H   0  0  0  0  0  0  0  0  0  0  0  0  # atno 10764 bound_to 10752
  153.1515  135.4697  154.9583 H   0  0  0  0  0  0  0  0  0  0  0  0  # atno 10765 bound_to 10752
  139.9218  134.7752  156.1631 H   0  0  0  0  0  0  0  0  0  0  0  0  # atno 11005 bound_to 11000
  144.7980  140.6159  143.6497 LP  0  0  0  0  0  0  0  0  0  0  0  0  # atno 17320 bound_to 7965
  145.4677  139.1506  143.3831 LP  0  0  0  0  0  0  0  0  0  0  0  0  # atno 17321 bound_to 7965
  140.1412  144.5200  150.6743 LP  0  0  0  0  0  0  0  0  0  0  0  0  # atno 17342 bound_to 10162
  140.6875  143.2357  151.5222 LP  0  0  0  0  0  0  0  0  0  0  0  0  # atno 17343 bound_to 10162
  157.6847  130.9174  150.0357 LP  0  0  0  0  0  0  0  0  0  0  0  0  # atno 17370 bound_to 10713
  156.1511  130.3642  149.9437 LP  0  0  0  0  0  0  0  0  0  0  0  0  # atno 17371 bound_to 10713
  141.0746  133.6781  156.2209 LP  0  0  0  0  0  0  0  0  0  0  0  0  # atno 17394 bound_to 11000
  140.6451  134.5126  157.5573 LP  0  0  0  0  0  0  0  0  0  0  0  0  # atno 17395 bound_to 11000

$$$$
