AV-unprocessed.smi:2299|AV-procd|sdf|9230|dock9
  -GOLD-   2272012453D 1   1.00000     0.00000
 Structure written by MMmdl.
 42 43  0  0  0  0  0  0  0  0  1 V2000
  155.6653  140.8936  159.7818 C   0  0  0  0  0  0  0  0  0  0  0  0
  154.5369  140.5809  160.7758 C   0  0  0  0  0  0  0  0  0  0  0  0
  153.7715  139.3056  160.3925 C   0  0  0  0  0  0  0  0  0  0  0  0
  153.6087  141.7545  160.9458 C   0  0  0  0  0  0  0  0  0  0  0  0
  153.4763  142.4110  162.0960 N   0  0  0  0  0  0  0  0  0  0  0  0
  152.5318  143.3958  161.8433 C   0  0  0  0  0  0  0  0  0  0  0  0
  152.1197  143.3030  160.5378 C   0  0  0  0  0  0  0  0  0  0  0  0
  152.8267  142.2472  159.9591 N   0  0  0  0  0  0  0  0  0  0  0  0
  152.7382  141.7508  158.5838 C   0  0  0  0  0  0  0  0  0  0  0  0
  151.5141  142.2435  157.8058 C   0  0  0  0  0  0  0  0  0  0  0  0
  151.1875  143.4290  157.8578 O   0  0  0  0  0  0  0  0  0  0  0  0
  150.8504  141.3211  157.0911 N   0  0  0  0  0  0  0  0  0  0  0  0
  149.6839  141.5704  156.2436 C   0  0  2  0  0  0  0  0  0  0  0  0
  148.3908  141.1670  156.9868 C   0  0  0  0  0  0  0  0  0  0  0  0
  147.1235  141.8582  156.4580 C   0  0  0  0  0  0  0  0  0  0  0  0
  146.7676  141.5258  155.0013 C   0  0  0  0  0  0  0  0  0  0  0  0
  147.8018  142.0332  153.9820 C   0  0  0  0  0  0  0  0  0  0  0  0
  148.9729  141.1696  153.8944 N   0  0  0  0  0  0  0  0  0  0  0  0
  149.8597  140.9043  154.8658 C   0  0  0  0  0  0  0  0  0  0  0  0
  150.7986  140.1351  154.6606 O   0  0  0  0  0  0  0  0  0  0  0  0
  156.2343  141.7681  160.0990 H   0  0  0  0  0  0  0  0  0  0  0  0
  155.2732  141.0950  158.7844 H   0  0  0  0  0  0  0  0  0  0  0  0
  156.3612  140.0581  159.7024 H   0  0  0  0  0  0  0  0  0  0  0  0
  155.0217  140.3733  161.7281 H   0  0  0  0  0  0  0  0  0  0  0  0
  153.0181  139.0611  161.1421 H   0  0  0  0  0  0  0  0  0  0  0  0
  154.4455  138.4525  160.3117 H   0  0  0  0  0  0  0  0  0  0  0  0
  153.2636  139.4187  159.4342 H   0  0  0  0  0  0  0  0  0  0  0  0
  152.2205  144.0858  162.6137 H   0  0  0  0  0  0  0  0  0  0  0  0
  151.3974  143.8967  159.9972 H   0  0  0  0  0  0  0  0  0  0  0  0
  153.6366  142.0545  158.0449 H   0  0  0  0  0  0  0  0  0  0  0  0
  152.7314  140.6602  158.6111 H   0  0  0  0  0  0  0  0  0  0  0  0
  151.1986  140.3730  157.1041 H   0  0  0  0  0  0  0  0  0  0  0  0
  149.6526  142.6457  156.0572 H   0  0  0  0  0  0  0  0  0  0  0  0
  148.2650  140.0836  156.9592 H   0  0  0  0  0  0  0  0  0  0  0  0
  148.4822  141.4251  158.0427 H   0  0  0  0  0  0  0  0  0  0  0  0
  146.2843  141.5725  157.0930 H   0  0  0  0  0  0  0  0  0  0  0  0
  147.2250  142.9383  156.5705 H   0  0  0  0  0  0  0  0  0  0  0  0
  146.6118  140.4525  154.8831 H   0  0  0  0  0  0  0  0  0  0  0  0
  145.8082  141.9926  154.7757 H   0  0  0  0  0  0  0  0  0  0  0  0
  147.3462  142.0515  152.9917 H   0  0  0  0  0  0  0  0  0  0  0  0
  148.0998  143.0598  154.1996 H   0  0  0  0  0  0  0  0  0  0  0  0
  149.1229  140.7166  153.0045 H   0  0  0  0  0  0  0  0  0  0  0  0
  1  2  1  0  0  0  0
  1 21  1  0  0  0  0
  1 22  1  0  0  0  0
  1 23  1  0  0  0  0
  2  3  1  0  0  0  0
  2  4  1  0  0  0  0
  2 24  1  0  0  0  0
  3 25  1  0  0  0  0
  3 26  1  0  0  0  0
  3 27  1  0  0  0  0
  4  8  1  0  0  0  0
  4  5  2  0  0  0  0
  5  6  1  0  0  0  0
  6  7  2  0  0  0  0
  6 28  1  0  0  0  0
  7  8  1  0  0  0  0
  7 29  1  0  0  0  0
  8  9  1  0  0  0  0
  9 10  1  0  0  0  0
  9 30  1  0  0  0  0
  9 31  1  0  0  0  0
 10 11  2  0  0  0  0
 10 12  1  0  0  0  0
 12 13  1  0  0  0  0
 12 32  1  0  0  0  0
 13 19  1  0  0  0  0
 13 14  1  0  0  0  0
 13 33  1  0  0  0  0
 14 15  1  0  0  0  0
 14 34  1  0  0  0  0
 14 35  1  0  0  0  0
 15 16  1  0  0  0  0
 15 36  1  0  0  0  0
 15 37  1  0  0  0  0
 16 17  1  0  0  0  0
 16 38  1  0  0  0  0
 16 39  1  0  0  0  0
 17 18  1  0  0  0  0
 17 40  1  0  0  0  0
 17 41  1  0  0  0  0
 18 19  1  0  0  0  0
 18 42  1  0  0  0  0
 19 20  2  0  0  0  0
M  END
> <s_m_source_file>
AV-unprocessed.smi

> <i_m_source_file_index>
2299

> <i_lp_mmshare_version>
43012

> <i_f3d_flags>
0

> <s_epik_input>
W0NIM11bQ0hdKFtDSDNdKWMxbltjSF1bY0hdbjFbQ0gyXUMoPU8pW05IXVtDQEBIXTJbQ0gyXVtDSDJdW0NIMl1bQ0gyXVtOSF1DMj1P

> <s_epik_cmdline>
J2VwaWtfcHl0aG9uJywgJy1waCcsICc3LjAnLCAnLXRuJywgJzgnLCAnLW1hJywgJzIwMCcsICctbWV0YWxfYmluZGluZycsICctaW1hZScsICc8aW5maWxlLm1hZT4nLCAnLW9tYWUnLCAnPG91dGZpbGUubWFlPic=

> <r_lp_tautomer_probability>
1

> <r_epik_Ionization_Penalty>
0.557868

> <r_epik_Ionization_Penalty_Charging>
0.557868

> <r_epik_Ionization_Penalty_Neutral>
1.99744e-07

> <r_epik_State_Penalty>
0.568774

> <r_epik_Charging_Adjusted_Penalty>
1.12664

> <i_epik_Tot_Q>
0

> <i_epik_Tot_abs_Q>
0

> <r_epik_Metal_State_Penalty>
0.289303

> <b_epik_Metal_Only>
0

> <s_lp_Force_Field>
OPLS_2005

> <r_lp_Energy>
12.6328

> <b_lp_Chiralities_Consistent>
1

> <s_lp_Variant>
AV-unprocessed.smi:2299-3

> <Gold.Version>
5.8.1

> <Gold.Id.Protein>
6NUR|6NUR_protein|mol2

> <Gold.PLP.Fitness>
45.6672

> <Gold.PLP.PLP>
-40.8243

> <Gold.PLP.part.hbond>
-2.0000

> <Gold.PLP.part.metal>
0.0000

> <Gold.PLP.part.buried>
-6.5405

> <Gold.PLP.part.nonpolar>
-31.8833

> <Gold.PLP.part.repulsive>
0.6330

> <Gold.PLP.ligand.clash>
0.0000

> <Gold.PLP.ligand.torsion>
0.6141

> <Gold.PLP.Chemscore.Hbond>
2.0000

> <Gold.PLP.Chemscore.CHOScore>
0.0000

> <Gold.PLP.Chemscore.Metal>
0.0000

> <Gold.Chemscore.Hbonds>
donor molecule, donor type, donor heavy atom, donor atom, acceptor molecule, acceptor atom, score
      L1  H    18    42       P1  7957  1.00
      P1  H  7989  7998       L1    20  1.00

> <Gold.PLP.Chemscore.Internal.Correction>
0.0710

> <Gold.Rescore>
     Score         DG    S(hbond)    S(metal)    S(lipo)     H(rot)  DE(clash)    DE(int)     intcor
     13.93     -15.86       1.61        0.00      79.89       1.70       0.05       1.88       ----

> <Gold.Chemscore.Fitness>
13.9266

> <Gold.Chemscore.DG>
-15.8592

> <Gold.Chemscore.ZeroCoef>
-5.4800

> <Gold.Chemscore.Hbond>
1.6122

> <Gold.Chemscore.Metal>
0.0000

> <Gold.Chemscore.Lipo>
79.8930

> <Gold.Chemscore.Internal_Hbond>
0.0000

> <Gold.Chemscore.DEClash>
0.0522

> <Gold.Chemscore.DEInternal>
1.8804

> <Gold.Chemscore.Rot>
1.7004

> <Gold.Chemscore.Internal.Correction>
   9.000000E+99

> <Gold.Chemscore.Hbonds>
donor molecule, donor type, donor heavy atom, donor atom, acceptor molecule, acceptor atom, score
      L1  H    18    42       P1  7957  0.94
      P1  H  7989  7998       L1    20  0.39

> <Gold.Chemscore.Hbond.Weighted>
-5.3848

> <Gold.Chemscore.Metal.Weighted>
-0.0000

> <Gold.Chemscore.Lipo.Weighted>
-9.3475

> <Gold.Chemscore.Internal_Hbond.Weighted>
0.0000

> <Gold.Chemscore.DEClash.Weighted>
0.0522

> <Gold.Chemscore.DEInternal.Weighted>
1.8804

> <Gold.Chemscore.Rot.Weighted>
4.3530

> <Gold.Chemscore.Internal.Correction.Weighted>
   9.000000E+99

> <Gold.Protein.RotatedTorsions>
[ 6907 6896 6895 6894 ] final  171.01 input  -60.11 | X-H torsion
[ 7974 7965 7964 7962 ] final  -67.56 input  175.53 | X-H torsion
[ 8008 7997 7996 7995 ] final  -47.18 input   59.86 | X-H torsion
[ 10167 10162 10161 10158 ] final   22.32 input  -65.29 | X-H torsion
[ 10718 10713 10712 10709 ] final  -56.01 input   66.30 | X-H torsion
[ 10763 10752 10751 10750 ] final -146.61 input  -60.55 | X-H torsion
[ 11005 11000 10999 10996 ] final   40.08 input  -57.11 | X-H torsion

> <Gold.Protein.ActiveResidues>
 VAL166  LYS551  ARG553  GLY616  TRP617  ASP618  TYR619  PRO620  LYS621  CYS622 
 ASP623  PHE694  ASN695  SER759  ASP760  ASP761  ALA762  ILE779  LEU786  VAL792 
 PHE793  MET794  SER795  GLU796  ALA797  LYS798  CYS799  TRP800  GLU811  SER814 

> <Gold.Protein.RotatedAtoms>
  151.8071  133.3377  159.3543 H   0  0  0  0  0  0  0  0  0  0  0  0  # atno 6907 bound_to 6896
  150.7339  134.5699  159.5894 H   0  0  0  0  0  0  0  0  0  0  0  0  # atno 6908 bound_to 6896
  152.3102  134.7508  160.0389 H   0  0  0  0  0  0  0  0  0  0  0  0  # atno 6909 bound_to 6896
  145.7276  140.9011  143.0597 H   0  0  0  0  0  0  0  0  0  0  0  0  # atno 7974 bound_to 7965
  154.4014  140.1353  156.4134 H   0  0  0  0  0  0  0  0  0  0  0  0  # atno 8008 bound_to 7997
  155.7712  140.3484  155.5228 H   0  0  0  0  0  0  0  0  0  0  0  0  # atno 8009 bound_to 7997
  155.8765  140.0980  157.1505 H   0  0  0  0  0  0  0  0  0  0  0  0  # atno 8010 bound_to 7997
  140.5357  143.9764  150.6490 H   0  0  0  0  0  0  0  0  0  0  0  0  # atno 10167 bound_to 10162
  156.1322  130.4159  150.0248 H   0  0  0  0  0  0  0  0  0  0  0  0  # atno 10718 bound_to 10713
  154.8327  135.3382  154.6689 H   0  0  0  0  0  0  0  0  0  0  0  0  # atno 10763 bound_to 10752
  153.7307  135.6952  153.4994 H   0  0  0  0  0  0  0  0  0  0  0  0  # atno 10764 bound_to 10752
  153.2314  135.4415  155.0551 H   0  0  0  0  0  0  0  0  0  0  0  0  # atno 10765 bound_to 10752
  140.1966  134.3922  155.8118 H   0  0  0  0  0  0  0  0  0  0  0  0  # atno 11005 bound_to 11000
  144.6901  139.9287  143.7471 LP  0  0  0  0  0  0  0  0  0  0  0  0  # atno 17320 bound_to 7965
  146.0568  139.3564  143.0606 LP  0  0  0  0  0  0  0  0  0  0  0  0  # atno 17321 bound_to 7965
  140.3151  143.3173  152.0840 LP  0  0  0  0  0  0  0  0  0  0  0  0  # atno 17342 bound_to 10162
  139.4970  144.6611  151.6463 LP  0  0  0  0  0  0  0  0  0  0  0  0  # atno 17343 bound_to 10162
  156.8157  130.9341  151.3643 LP  0  0  0  0  0  0  0  0  0  0  0  0  # atno 17370 bound_to 10713
  157.6499  130.8875  149.9612 LP  0  0  0  0  0  0  0  0  0  0  0  0  # atno 17371 bound_to 10713
  141.2227  133.7073  156.8186 LP  0  0  0  0  0  0  0  0  0  0  0  0  # atno 17394 bound_to 11000
  140.2101  134.8834  157.3265 LP  0  0  0  0  0  0  0  0  0  0  0  0  # atno 17395 bound_to 11000

$$$$
