AV-unprocessed.smi:2863|AV-procd|sdf|11012|dock5
  -GOLD-   2272015473D 1   1.00000     0.00000
 Structure written by MMmdl.
 42 43  0  0  0  0  0  0  0  0  1 V2000
  156.9950  137.8620  153.4917 C   0  0  0  0  0  0  0  0  0  0  0  0
  156.8832  137.5955  154.9530 C   0  0  0  0  0  0  0  0  0  0  0  0
  157.0643  138.4602  155.9490 N   0  0  0  0  0  0  0  0  0  0  0  0
  156.8463  137.7210  157.1033 C   0  0  0  0  0  0  0  0  0  0  0  0
  156.9407  138.3288  158.4692 C   0  0  0  0  0  0  0  0  0  0  0  0
  155.6192  138.2084  159.2451 C   0  0  0  0  0  0  0  0  0  0  0  0
  155.2294  139.4772  159.8485 N   0  0  0  0  0  0  0  0  0  0  0  0
  154.1484  140.1905  159.5038 C   0  0  0  0  0  0  0  0  0  0  0  0
  153.3456  139.8496  158.6347 O   0  0  0  0  0  0  0  0  0  0  0  0
  154.0475  141.3183  160.2213 N   0  0  0  0  0  0  0  0  0  0  0  0
  152.9881  142.3131  160.0830 C   0  0  0  0  0  0  0  0  0  0  0  0
  153.3923  143.3524  159.0201 C   0  0  0  0  0  0  0  0  0  0  0  0
  152.3322  144.4571  158.8810 C   0  0  0  0  0  0  0  0  0  0  0  0
  152.0546  145.1354  160.2317 C   0  0  0  0  0  0  0  0  0  0  0  0
  151.6461  144.1045  161.2957 C   0  0  0  0  0  0  0  0  0  0  0  0
  152.7030  142.9969  161.4365 C   0  0  0  0  0  0  0  0  0  0  0  0
  156.5361  136.4364  156.7360 C   0  0  0  0  0  0  0  0  0  0  0  0
  156.1972  135.2093  157.5123 C   0  0  0  0  0  0  0  0  0  0  0  0
  156.5593  136.3421  155.3705 O   0  0  0  0  0  0  0  0  0  0  0  0
  157.2413  138.9092  153.3141 H   0  0  0  0  0  0  0  0  0  0  0  0
  156.0499  137.6353  152.9984 H   0  0  0  0  0  0  0  0  0  0  0  0
  157.7772  137.2390  153.0582 H   0  0  0  0  0  0  0  0  0  0  0  0
  157.7437  137.8494  159.0302 H   0  0  0  0  0  0  0  0  0  0  0  0
  157.2205  139.3798  158.3873 H   0  0  0  0  0  0  0  0  0  0  0  0
  154.8202  137.8952  158.5726 H   0  0  0  0  0  0  0  0  0  0  0  0
  155.6975  137.4377  160.0142 H   0  0  0  0  0  0  0  0  0  0  0  0
  155.8288  139.8392  160.5759 H   0  0  0  0  0  0  0  0  0  0  0  0
  154.7586  141.5063  160.9126 H   0  0  0  0  0  0  0  0  0  0  0  0
  152.0780  141.8165  159.7404 H   0  0  0  0  0  0  0  0  0  0  0  0
  154.3490  143.8034  159.2879 H   0  0  0  0  0  0  0  0  0  0  0  0
  153.5400  142.8637  158.0562 H   0  0  0  0  0  0  0  0  0  0  0  0
  152.6618  145.1989  158.1529 H   0  0  0  0  0  0  0  0  0  0  0  0
  151.4083  144.0295  158.4898 H   0  0  0  0  0  0  0  0  0  0  0  0
  152.9460  145.6697  160.5628 H   0  0  0  0  0  0  0  0  0  0  0  0
  151.2696  145.8837  160.1177 H   0  0  0  0  0  0  0  0  0  0  0  0
  151.4969  144.5998  162.2556 H   0  0  0  0  0  0  0  0  0  0  0  0
  150.6873  143.6608  161.0248 H   0  0  0  0  0  0  0  0  0  0  0  0
  152.3635  142.2614  162.1668 H   0  0  0  0  0  0  0  0  0  0  0  0
  153.6237  143.4249  161.8354 H   0  0  0  0  0  0  0  0  0  0  0  0
  155.7182  135.4675  158.4570 H   0  0  0  0  0  0  0  0  0  0  0  0
  157.0957  134.6336  157.7345 H   0  0  0  0  0  0  0  0  0  0  0  0
  155.5138  134.5704  156.9526 H   0  0  0  0  0  0  0  0  0  0  0  0
  1  2  1  0  0  0  0
  1 20  1  0  0  0  0
  1 21  1  0  0  0  0
  1 22  1  0  0  0  0
  2 19  1  0  0  0  0
  2  3  2  0  0  0  0
  3  4  1  0  0  0  0
  4  5  1  0  0  0  0
  4 17  2  0  0  0  0
  5  6  1  0  0  0  0
  5 23  1  0  0  0  0
  5 24  1  0  0  0  0
  6  7  1  0  0  0  0
  6 25  1  0  0  0  0
  6 26  1  0  0  0  0
  7  8  1  0  0  0  0
  7 27  1  0  0  0  0
  8  9  2  0  0  0  0
  8 10  1  0  0  0  0
 10 11  1  0  0  0  0
 10 28  1  0  0  0  0
 11 16  1  0  0  0  0
 11 12  1  0  0  0  0
 11 29  1  0  0  0  0
 12 13  1  0  0  0  0
 12 30  1  0  0  0  0
 12 31  1  0  0  0  0
 13 14  1  0  0  0  0
 13 32  1  0  0  0  0
 13 33  1  0  0  0  0
 14 15  1  0  0  0  0
 14 34  1  0  0  0  0
 14 35  1  0  0  0  0
 15 16  1  0  0  0  0
 15 36  1  0  0  0  0
 15 37  1  0  0  0  0
 16 38  1  0  0  0  0
 16 39  1  0  0  0  0
 17 18  1  0  0  0  0
 17 19  1  0  0  0  0
 18 40  1  0  0  0  0
 18 41  1  0  0  0  0
 18 42  1  0  0  0  0
M  END
> <s_m_source_file>
AV-unprocessed.smi

> <i_m_source_file_index>
2863

> <i_lp_mmshare_version>
43012

> <i_f3d_flags>
0

> <s_epik_input>
W0NIM11jMW5jKGMobzEpW0NIM10pW0NIMl1bQ0gyXVtOSF1DKD1PKVtOSF1bQ0hdMltDSDJdW0NIMl1bQ0gyXVtDSDJdW0NIMl0y

> <s_epik_cmdline>
J2VwaWtfcHl0aG9uJywgJy1waCcsICc3LjAnLCAnLXRuJywgJzgnLCAnLW1hJywgJzIwMCcsICctbWV0YWxfYmluZGluZycsICctaW1hZScsICc8aW5maWxlLm1hZT4nLCAnLW9tYWUnLCAnPG91dGZpbGUubWFlPic=

> <r_lp_tautomer_probability>
1

> <r_epik_Ionization_Penalty>
0.000108106

> <r_epik_Ionization_Penalty_Charging>
0

> <r_epik_Ionization_Penalty_Neutral>
0.000108106

> <r_epik_State_Penalty>
-0

> <r_epik_Charging_Adjusted_Penalty>
0

> <i_epik_Tot_Q>
0

> <i_epik_Tot_abs_Q>
0

> <r_epik_Metal_State_Penalty>
-0

> <b_epik_Metal_Only>
0

> <s_lp_Force_Field>
OPLS_2005

> <r_lp_Energy>
1.15326

> <b_lp_Chiralities_Consistent>
1

> <s_lp_Variant>
AV-unprocessed.smi:2863-1

> <Gold.Version>
5.8.1

> <Gold.Id.Protein>
6NUR|6NUR_protein|mol2

> <Gold.PLP.Fitness>
42.6623

> <Gold.PLP.PLP>
-37.6397

> <Gold.PLP.part.hbond>
-2.9585

> <Gold.PLP.part.metal>
0.0000

> <Gold.PLP.part.buried>
-4.4546

> <Gold.PLP.part.nonpolar>
-30.4073

> <Gold.PLP.part.repulsive>
0.2280

> <Gold.PLP.ligand.clash>
0.0000

> <Gold.PLP.ligand.torsion>
0.7324

> <Gold.PLP.Chemscore.Hbond>
2.1568

> <Gold.PLP.Chemscore.CHOScore>
0.0000

> <Gold.PLP.Chemscore.Metal>
0.0000

> <Gold.Chemscore.Hbonds>
donor molecule, donor type, donor heavy atom, donor atom, acceptor molecule, acceptor atom, score
      P1  H  7997  8009       L1     3  0.38
      P1  H  7997  8010       L1     9  0.84
      P1  H 10752 10764       L1    19  0.96

> <Gold.PLP.Chemscore.Internal.Correction>
0.0170

> <Gold.Rescore>
     Score         DG    S(hbond)    S(metal)    S(lipo)     H(rot)  DE(clash)    DE(int)     intcor
     16.17     -16.92       1.07        0.00     102.63       1.61       0.01       0.75       ----

> <Gold.Chemscore.Fitness>
16.1685

> <Gold.Chemscore.DG>
-16.9242

> <Gold.Chemscore.ZeroCoef>
-5.4800

> <Gold.Chemscore.Hbond>
1.0675

> <Gold.Chemscore.Metal>
0.0000

> <Gold.Chemscore.Lipo>
102.6335

> <Gold.Chemscore.Internal_Hbond>
0.0000

> <Gold.Chemscore.DEClash>
0.0075

> <Gold.Chemscore.DEInternal>
0.7482

> <Gold.Chemscore.Rot>
1.6130

> <Gold.Chemscore.Internal.Correction>
   9.000000E+99

> <Gold.Chemscore.Hbonds>
donor molecule, donor type, donor heavy atom, donor atom, acceptor molecule, acceptor atom, score
      P1  H  7997  8009       L1     3  0.06
      P1  H  7997  8010       L1     9  0.13
      P1  H 10752 10764       L1    19  0.67

> <Gold.Chemscore.Hbond.Weighted>
-3.5654

> <Gold.Chemscore.Metal.Weighted>
-0.0000

> <Gold.Chemscore.Lipo.Weighted>
-12.0081

> <Gold.Chemscore.Internal_Hbond.Weighted>
0.0000

> <Gold.Chemscore.DEClash.Weighted>
0.0075

> <Gold.Chemscore.DEInternal.Weighted>
0.7482

> <Gold.Chemscore.Rot.Weighted>
4.1293

> <Gold.Chemscore.Internal.Correction.Weighted>
   9.000000E+99

> <Gold.Protein.RotatedTorsions>
[ 6907 6896 6895 6894 ] final  107.36 input  -60.11 | X-H torsion
[ 7974 7965 7964 7962 ] final   12.32 input  175.53 | X-H torsion
[ 8008 7997 7996 7995 ] final   33.24 input   59.86 | X-H torsion
[ 10167 10162 10161 10158 ] final  -45.13 input  -65.29 | X-H torsion
[ 10718 10713 10712 10709 ] final  115.98 input   66.30 | X-H torsion
[ 10763 10752 10751 10750 ] final   93.12 input  -60.55 | X-H torsion
[ 11005 11000 10999 10996 ] final  -92.78 input  -57.11 | X-H torsion

> <Gold.Protein.ActiveResidues>
 VAL166  LYS551  ARG553  GLY616  TRP617  ASP618  TYR619  PRO620  LYS621  CYS622 
 ASP623  PHE694  ASN695  SER759  ASP760  ASP761  ALA762  ILE779  LEU786  VAL792 
 PHE793  MET794  SER795  GLU796  ALA797  LYS798  CYS799  TRP800  GLU811  SER814 

> <Gold.Protein.RotatedAtoms>
  152.5157  133.9245  159.7550 H   0  0  0  0  0  0  0  0  0  0  0  0  # atno 6907 bound_to 6896
  150.9609  133.6437  159.2761 H   0  0  0  0  0  0  0  0  0  0  0  0  # atno 6908 bound_to 6896
  151.3683  135.0923  159.9510 H   0  0  0  0  0  0  0  0  0  0  0  0  # atno 6909 bound_to 6896
  146.2354  139.9355  142.8490 H   0  0  0  0  0  0  0  0  0  0  0  0  # atno 7974 bound_to 7965
  155.1354  140.3261  155.4464 H   0  0  0  0  0  0  0  0  0  0  0  0  # atno 8008 bound_to 7997
  156.2621  140.2003  156.6421 H   0  0  0  0  0  0  0  0  0  0  0  0  # atno 8009 bound_to 7997
  154.6581  140.0550  157.0018 H   0  0  0  0  0  0  0  0  0  0  0  0  # atno 8010 bound_to 7997
  140.6870  143.2895  151.3594 H   0  0  0  0  0  0  0  0  0  0  0  0  # atno 10167 bound_to 10162
  157.6189  131.1019  150.7407 H   0  0  0  0  0  0  0  0  0  0  0  0  # atno 10718 bound_to 10713
  153.2267  135.4337  155.0550 H   0  0  0  0  0  0  0  0  0  0  0  0  # atno 10763 bound_to 10752
  154.8277  135.3369  154.6847 H   0  0  0  0  0  0  0  0  0  0  0  0  # atno 10764 bound_to 10752
  153.7277  135.7013  153.5053 H   0  0  0  0  0  0  0  0  0  0  0  0  # atno 10765 bound_to 10752
  141.1513  133.7843  157.0067 H   0  0  0  0  0  0  0  0  0  0  0  0  # atno 11005 bound_to 11000
  145.2003  140.9851  143.4159 LP  0  0  0  0  0  0  0  0  0  0  0  0  # atno 17320 bound_to 7965
  144.9779  139.3813  143.6276 LP  0  0  0  0  0  0  0  0  0  0  0  0  # atno 17321 bound_to 7965
  139.6237  144.0856  152.2415 LP  0  0  0  0  0  0  0  0  0  0  0  0  # atno 17342 bound_to 10162
  140.0308  144.6082  150.7489 LP  0  0  0  0  0  0  0  0  0  0  0  0  # atno 17343 bound_to 10162
  156.7769  130.4847  149.5408 LP  0  0  0  0  0  0  0  0  0  0  0  0  # atno 17370 bound_to 10713
  156.1324  130.6187  151.0352 LP  0  0  0  0  0  0  0  0  0  0  0  0  # atno 17371 bound_to 10713
  140.0904  134.9596  157.1767 LP  0  0  0  0  0  0  0  0  0  0  0  0  # atno 17394 bound_to 11000
  140.3454  134.2658  155.7206 LP  0  0  0  0  0  0  0  0  0  0  0  0  # atno 17395 bound_to 11000

$$$$
