AV-unprocessed.smi:3336|AV-procd|sdf|12854|dock10
  -GOLD-   2272019243D 1   1.00000     0.00000
 Structure written by MMmdl.
 42 43  0  0  0  0  0  0  0  0  2 V2000
  147.5303  140.4313  154.0755 C   0  0  0  0  0  0  0  0  0  0  0  0
  147.5484  139.0327  153.4294 C   0  0  1  0  0  0  0  0  0  0  0  0
  146.7851  138.9965  152.0894 C   0  0  0  0  0  0  0  0  0  0  0  0
  146.1663  137.7106  151.8208 N   0  0  0  0  0  0  0  0  0  0  0  0
  145.2110  137.0449  152.5602 C   0  0  0  0  0  0  0  0  0  0  0  0
  144.9310  135.8793  151.9063 C   0  0  0  0  0  0  0  0  0  0  0  0
  145.7693  135.9259  150.7573 C   0  0  0  0  0  0  0  0  0  0  0  0
  146.5052  137.0247  150.7077 N   0  0  0  0  0  0  0  0  0  0  0  0
  148.9398  138.5708  153.2105 N   0  3  0  0  0  0  0  0  0  0  0  0
  149.7276  138.2626  154.4299 C   0  0  2  0  0  0  0  0  0  0  0  0
  148.7969  137.6387  155.4834 C   0  0  0  0  0  0  0  0  0  0  0  0
  150.4112  139.5251  154.9998 C   0  0  0  0  0  0  0  0  0  0  0  0
  150.2645  140.5855  154.3889 O   0  0  0  0  0  0  0  0  0  0  0  0
  151.1425  139.4520  156.1404 N   0  0  0  0  0  0  0  0  0  0  0  0
  151.8270  140.6132  156.7197 C   0  0  0  0  0  0  0  0  0  0  0  0
  151.2166  140.9059  158.1009 C   0  0  0  0  0  0  0  0  0  0  0  0
  151.3503  139.7571  158.9328 O   0  0  0  0  0  0  0  0  0  0  0  0
  150.7154  138.6023  158.3914 C   0  0  0  0  0  0  0  0  0  0  0  0
  151.3095  138.2793  157.0076 C   0  0  0  0  0  0  0  0  0  0  0  0
  146.5120  140.7590  154.2863 H   0  0  0  0  0  0  0  0  0  0  0  0
  147.9875  141.1742  153.4210 H   0  0  0  0  0  0  0  0  0  0  0  0
  148.0686  140.4490  155.0226 H   0  0  0  0  0  0  0  0  0  0  0  0
  147.0561  138.3344  154.1077 H   0  0  0  0  0  0  0  0  0  0  0  0
  146.0079  139.7622  152.0762 H   0  0  0  0  0  0  0  0  0  0  0  0
  147.4610  139.2247  151.2638 H   0  0  0  0  0  0  0  0  0  0  0  0
  144.8153  137.4492  153.4805 H   0  0  0  0  0  0  0  0  0  0  0  0
  144.2310  135.1117  152.2014 H   0  0  0  0  0  0  0  0  0  0  0  0
  145.8632  135.2000  149.9629 H   0  0  0  0  0  0  0  0  0  0  0  0
  148.9082  137.7238  152.6603 H   0  0  0  0  0  0  0  0  0  0  0  0
  150.4779  137.5285  154.1433 H   0  0  0  0  0  0  0  0  0  0  0  0
  149.3357  137.3619  156.3896 H   0  0  0  0  0  0  0  0  0  0  0  0
  148.3268  136.7329  155.0989 H   0  0  0  0  0  0  0  0  0  0  0  0
  148.0011  138.3271  155.7711 H   0  0  0  0  0  0  0  0  0  0  0  0
  152.8908  140.3922  156.8185 H   0  0  0  0  0  0  0  0  0  0  0  0
  151.7634  141.5056  156.0959 H   0  0  0  0  0  0  0  0  0  0  0  0
  151.7305  141.7444  158.5709 H   0  0  0  0  0  0  0  0  0  0  0  0
  150.1651  141.1832  158.0113 H   0  0  0  0  0  0  0  0  0  0  0  0
  150.8674  137.7647  159.0726 H   0  0  0  0  0  0  0  0  0  0  0  0
  149.6390  138.7675  158.3250 H   0  0  0  0  0  0  0  0  0  0  0  0
  150.8436  137.3724  156.6306 H   0  0  0  0  0  0  0  0  0  0  0  0
  152.3723  138.0517  157.1015 H   0  0  0  0  0  0  0  0  0  0  0  0
  149.4227  139.2797  152.6777 H   0  0  0  0  0  0  0  0  0  0  0  0
  1  2  1  0  0  0  0
  1 20  1  0  0  0  0
  1 21  1  0  0  0  0
  1 22  1  0  0  0  0
  2  3  1  0  0  0  0
  2  9  1  0  0  0  0
  2 23  1  0  0  0  0
  3  4  1  0  0  0  0
  3 24  1  0  0  0  0
  3 25  1  0  0  0  0
  4  8  1  0  0  0  0
  4  5  1  0  0  0  0
  5  6  2  0  0  0  0
  5 26  1  0  0  0  0
  6  7  1  0  0  0  0
  6 27  1  0  0  0  0
  7  8  2  0  0  0  0
  7 28  1  0  0  0  0
  9 10  1  0  0  0  0
  9 29  1  0  0  0  0
  9 42  1  0  0  0  0
 10 11  1  0  0  0  0
 10 12  1  0  0  0  0
 10 30  1  0  0  0  0
 11 31  1  0  0  0  0
 11 32  1  0  0  0  0
 11 33  1  0  0  0  0
 12 13  2  0  0  0  0
 12 14  1  0  0  0  0
 14 19  1  0  0  0  0
 14 15  1  0  0  0  0
 15 16  1  0  0  0  0
 15 34  1  0  0  0  0
 15 35  1  0  0  0  0
 16 17  1  0  0  0  0
 16 36  1  0  0  0  0
 16 37  1  0  0  0  0
 17 18  1  0  0  0  0
 18 19  1  0  0  0  0
 18 38  1  0  0  0  0
 18 39  1  0  0  0  0
 19 40  1  0  0  0  0
 19 41  1  0  0  0  0
M  CHG  1   9   1
M  END
> <s_m_source_file>
AV-unprocessed.smi

> <i_m_source_file_index>
3336

> <i_lp_mmshare_version>
43012

> <i_f3d_flags>
0

> <s_epik_input>
bjFbY0hdW2NIXVtjSF1uMVtDSDJdW0NAQEhdKFtDSDNdKVtOSF1bQ0BIXShbQ0gzXSlDKD1PKU4yW0NIMl1bQ0gyXU9bQ0gyXVtDSDJdMg==

> <s_epik_cmdline>
J2VwaWtfcHl0aG9uJywgJy1waCcsICc3LjAnLCAnLXRuJywgJzgnLCAnLW1hJywgJzIwMCcsICctbWV0YWxfYmluZGluZycsICctaW1hZScsICc8aW5maWxlLm1hZT4nLCAnLW9tYWUnLCAnPG91dGZpbGUubWFlPic=

> <r_lp_tautomer_probability>
1

> <r_epik_Ionization_Penalty>
0.200288

> <r_epik_Ionization_Penalty_Charging>
0.200285

> <r_epik_Ionization_Penalty_Neutral>
3.37705e-06

> <r_epik_State_Penalty>
0.190126

> <r_epik_Charging_Adjusted_Penalty>
0.39041

> <i_epik_Tot_Q>
1

> <i_epik_Tot_abs_Q>
1

> <r_epik_Metal_State_Penalty>
0.190133

> <b_epik_Metal_Only>
0

> <s_lp_Force_Field>
OPLS_2005

> <r_lp_Energy>
27.5118

> <b_lp_Chiralities_Consistent>
1

> <s_lp_Variant>
AV-unprocessed.smi:3336-2

> <Gold.Version>
5.8.1

> <Gold.Id.Protein>
6NUR|6NUR_protein|mol2

> <Gold.PLP.Fitness>
45.2628

> <Gold.PLP.PLP>
-29.4554

> <Gold.PLP.part.hbond>
-3.8613

> <Gold.PLP.part.metal>
0.0000

> <Gold.PLP.part.buried>
-1.1960

> <Gold.PLP.part.nonpolar>
-26.5250

> <Gold.PLP.part.repulsive>
2.5111

> <Gold.PLP.ligand.clash>
0.0000

> <Gold.PLP.ligand.torsion>
0.7243

> <Gold.PLP.Chemscore.Hbond>
4.7426

> <Gold.PLP.Chemscore.CHOScore>
1.0000

> <Gold.PLP.Chemscore.Metal>
0.0000

> <Gold.Chemscore.Hbonds>
donor molecule, donor type, donor heavy atom, donor atom, acceptor molecule, acceptor atom, score
      L1  H     9    29       P1  7948  2.00
      L1  H     9    42       P1  7957  0.91
      P1  H  7954  7966       L1     8  0.96
      P1  H  7989  7998       L1    13  0.86
      L1  C     7    28       P1  7921  1.00

> <Gold.PLP.Chemscore.Internal.Correction>
0.0282

> <Gold.Rescore>
     Score         DG    S(hbond)    S(metal)    S(lipo)     H(rot)  DE(clash)    DE(int)     intcor
     16.22     -20.29       3.52        0.00      66.68       1.85       1.92       2.15       ----

> <Gold.Chemscore.Fitness>
16.2176

> <Gold.Chemscore.DG>
-20.2875

> <Gold.Chemscore.ZeroCoef>
-5.4800

> <Gold.Chemscore.Hbond>
3.5186

> <Gold.Chemscore.Metal>
0.0000

> <Gold.Chemscore.Lipo>
66.6824

> <Gold.Chemscore.Internal_Hbond>
0.0000

> <Gold.Chemscore.DEClash>
1.9194

> <Gold.Chemscore.DEInternal>
2.1506

> <Gold.Chemscore.Rot>
1.8541

> <Gold.Chemscore.Internal.Correction>
   9.000000E+99

> <Gold.Chemscore.Hbonds>
donor molecule, donor type, donor heavy atom, donor atom, acceptor molecule, acceptor atom, score
      L1  H     9    29       P1  7948  1.00
      L1  H     9    42       P1  7957  0.89
      P1  H  7954  7966       L1     8  0.65
      P1  H  7989  7998       L1    13  0.63

> <Gold.Chemscore.Hbond.Weighted>
-11.7522

> <Gold.Chemscore.Metal.Weighted>
-0.0000

> <Gold.Chemscore.Lipo.Weighted>
-7.8018

> <Gold.Chemscore.Internal_Hbond.Weighted>
0.0000

> <Gold.Chemscore.DEClash.Weighted>
1.9194

> <Gold.Chemscore.DEInternal.Weighted>
2.1506

> <Gold.Chemscore.Rot.Weighted>
4.7465

> <Gold.Chemscore.Internal.Correction.Weighted>
   9.000000E+99

> <Gold.Protein.RotatedTorsions>
[ 6907 6896 6895 6894 ] final  -20.48 input  -60.11 | X-H torsion
[ 7974 7965 7964 7962 ] final  -46.78 input  175.53 | X-H torsion
[ 8008 7997 7996 7995 ] final -136.05 input   59.86 | X-H torsion
[ 10167 10162 10161 10158 ] final   -8.90 input  -65.29 | X-H torsion
[ 10718 10713 10712 10709 ] final   93.26 input   66.30 | X-H torsion
[ 10763 10752 10751 10750 ] final  -49.64 input  -60.55 | X-H torsion
[ 11005 11000 10999 10996 ] final  -88.63 input  -57.11 | X-H torsion

> <Gold.Protein.ActiveResidues>
 VAL166  LYS551  ARG553  GLY616  TRP617  ASP618  TYR619  PRO620  LYS621  CYS622 
 ASP623  PHE694  ASN695  SER759  ASP760  ASP761  ALA762  ILE779  LEU786  VAL792 
 PHE793  MET794  SER795  GLU796  ALA797  LYS798  CYS799  TRP800  GLU811  SER814 

> <Gold.Protein.RotatedAtoms>
  151.2476  135.0611  159.9048 H   0  0  0  0  0  0  0  0  0  0  0  0  # atno 6907 bound_to 6896
  152.5384  134.0367  159.8059 H   0  0  0  0  0  0  0  0  0  0  0  0  # atno 6908 bound_to 6896
  151.0570  133.5526  159.2668 H   0  0  0  0  0  0  0  0  0  0  0  0  # atno 6909 bound_to 6896
  145.9684  140.7408  142.9422 H   0  0  0  0  0  0  0  0  0  0  0  0  # atno 7974 bound_to 7965
  155.3888  140.0498  157.3041 H   0  0  0  0  0  0  0  0  0  0  0  0  # atno 8008 bound_to 7997
  154.5046  140.2169  155.9238 H   0  0  0  0  0  0  0  0  0  0  0  0  # atno 8009 bound_to 7997
  156.1510  140.3136  155.8653 H   0  0  0  0  0  0  0  0  0  0  0  0  # atno 8010 bound_to 7997
  140.7072  143.5917  150.8887 H   0  0  0  0  0  0  0  0  0  0  0  0  # atno 10167 bound_to 10162
  157.6955  131.0472  150.4007 H   0  0  0  0  0  0  0  0  0  0  0  0  # atno 10718 bound_to 10713
  154.0974  135.6568  153.4862 H   0  0  0  0  0  0  0  0  0  0  0  0  # atno 10763 bound_to 10752
  153.0300  135.5217  154.7320 H   0  0  0  0  0  0  0  0  0  0  0  0  # atno 10764 bound_to 10752
  154.6462  135.2995  155.0012 H   0  0  0  0  0  0  0  0  0  0  0  0  # atno 10765 bound_to 10752
  141.1598  133.7581  156.9479 H   0  0  0  0  0  0  0  0  0  0  0  0  # atno 11005 bound_to 11000
  144.6831  140.2707  143.7306 LP  0  0  0  0  0  0  0  0  0  0  0  0  # atno 17320 bound_to 7965
  145.7941  139.1938  143.2086 LP  0  0  0  0  0  0  0  0  0  0  0  0  # atno 17321 bound_to 7965
  139.9642  143.6129  152.2993 LP  0  0  0  0  0  0  0  0  0  0  0  0  # atno 17342 bound_to 10162
  139.6693  144.7661  151.1814 LP  0  0  0  0  0  0  0  0  0  0  0  0  # atno 17343 bound_to 10162
  156.4400  130.3990  149.6703 LP  0  0  0  0  0  0  0  0  0  0  0  0  # atno 17370 bound_to 10713
  156.3890  130.7617  151.2617 LP  0  0  0  0  0  0  0  0  0  0  0  0  # atno 17371 bound_to 10713
  140.1277  134.9376  157.2293 LP  0  0  0  0  0  0  0  0  0  0  0  0  # atno 17394 bound_to 11000
  140.2992  134.3151  155.7294 LP  0  0  0  0  0  0  0  0  0  0  0  0  # atno 17395 bound_to 11000

$$$$
