AV-unprocessed.smi:1983|AV-procd|sdf|8032|dock2
  -GOLD-   2272010223D 1   1.00000     0.00000
 Structure written by MMmdl.
 49 50  0  0  0  0  0  0  0  0  1 V2000
  150.8342  135.3158  155.9593 C   0  0  0  0  0  0  0  0  0  0  0  0
  149.4741  135.0375  155.2940 C   0  0  2  0  0  0  0  0  0  0  0  0
  149.4508  133.7453  154.4567 C   0  0  0  0  0  0  0  0  0  0  0  0
  148.3950  133.7540  153.5167 O   0  0  0  0  0  0  0  0  0  0  0  0
  149.0386  136.1667  154.4766 N   0  0  0  0  0  0  0  0  0  0  0  0
  148.7729  137.3992  154.9308 C   0  0  0  0  0  0  0  0  0  0  0  0
  148.8508  137.7328  156.1135 O   0  0  0  0  0  0  0  0  0  0  0  0
  148.4219  138.2289  153.9386 N   0  0  0  0  0  0  0  0  0  0  0  0
  148.0993  139.6420  154.1099 C   0  0  0  0  0  0  0  0  0  0  0  0
  148.9832  140.3705  155.1128 C   0  0  0  0  0  0  0  0  0  0  0  0
  150.3847  140.2687  155.0274 C   0  0  0  0  0  0  0  0  0  0  0  0
  151.1816  140.9494  155.9674 C   0  0  0  0  0  0  0  0  0  0  0  0
  150.5532  141.7194  156.9790 C   0  0  0  0  0  0  0  0  0  0  0  0
  151.2905  142.4230  157.9577 N   0  0  0  0  0  0  0  0  0  0  0  0
  152.2445  141.6878  158.7808 C   0  0  0  0  0  0  0  0  0  0  0  0
  152.6462  142.5169  160.0135 C   0  0  1  0  0  0  0  0  0  0  0  0
  153.7538  141.8353  160.8237 C   0  0  0  0  0  0  0  0  0  0  0  0
  153.1256  143.7945  159.5980 O   0  0  0  0  0  0  0  0  0  0  0  0
  152.1942  144.5600  158.8307 C   0  0  2  0  0  0  0  0  0  0  0  0
  151.0238  145.0815  159.6838 C   0  0  0  0  0  0  0  0  0  0  0  0
  151.7412  143.7646  157.5907 C   0  0  0  0  0  0  0  0  0  0  0  0
  149.2036  141.8062  157.0611 N   0  0  0  0  0  0  0  0  0  0  0  0
  148.4452  141.1514  156.1576 C   0  0  0  0  0  0  0  0  0  0  0  0
  151.1581  134.4631  156.5563 H   0  0  0  0  0  0  0  0  0  0  0  0
  150.7784  136.1783  156.6242 H   0  0  0  0  0  0  0  0  0  0  0  0
  151.6097  135.5198  155.2204 H   0  0  0  0  0  0  0  0  0  0  0  0
  148.7396  134.9016  156.0900 H   0  0  0  0  0  0  0  0  0  0  0  0
  150.3889  133.6402  153.9109 H   0  0  0  0  0  0  0  0  0  0  0  0
  149.3584  132.8677  155.0977 H   0  0  0  0  0  0  0  0  0  0  0  0
  148.4523  134.5482  153.0079 H   0  0  0  0  0  0  0  0  0  0  0  0
  148.9492  135.9952  153.4858 H   0  0  0  0  0  0  0  0  0  0  0  0
  148.3862  137.8619  152.9988 H   0  0  0  0  0  0  0  0  0  0  0  0
  148.2048  140.1338  153.1428 H   0  0  0  0  0  0  0  0  0  0  0  0
  147.0512  139.7451  154.3961 H   0  0  0  0  0  0  0  0  0  0  0  0
  150.8479  139.6808  154.2488 H   0  0  0  0  0  0  0  0  0  0  0  0
  152.2551  140.8746  155.8845 H   0  0  0  0  0  0  0  0  0  0  0  0
  151.8073  140.7477  159.1188 H   0  0  0  0  0  0  0  0  0  0  0  0
  153.1233  141.4477  158.1808 H   0  0  0  0  0  0  0  0  0  0  0  0
  151.7824  142.6426  160.6663 H   0  0  0  0  0  0  0  0  0  0  0  0
  153.4352  140.8536  161.1754 H   0  0  0  0  0  0  0  0  0  0  0  0
  154.0194  142.4308  161.6973 H   0  0  0  0  0  0  0  0  0  0  0  0
  154.6552  141.7009  160.2252 H   0  0  0  0  0  0  0  0  0  0  0  0
  152.7402  145.4358  158.4793 H   0  0  0  0  0  0  0  0  0  0  0  0
  150.4070  145.7726  159.1091 H   0  0  0  0  0  0  0  0  0  0  0  0
  151.3898  145.6167  160.5601 H   0  0  0  0  0  0  0  0  0  0  0  0
  150.3719  144.2792  160.0279 H   0  0  0  0  0  0  0  0  0  0  0  0
  152.5762  143.6621  156.8966 H   0  0  0  0  0  0  0  0  0  0  0  0
  150.9681  144.3282  157.0681 H   0  0  0  0  0  0  0  0  0  0  0  0
  147.3773  141.2567  156.2793 H   0  0  0  0  0  0  0  0  0  0  0  0
  1  2  1  0  0  0  0
  1 24  1  0  0  0  0
  1 25  1  0  0  0  0
  1 26  1  0  0  0  0
  2  3  1  0  0  0  0
  2  5  1  0  0  0  0
  2 27  1  0  0  0  0
  3  4  1  0  0  0  0
  3 28  1  0  0  0  0
  3 29  1  0  0  0  0
  4 30  1  0  0  0  0
  5  6  1  0  0  0  0
  5 31  1  0  0  0  0
  6  7  2  0  0  0  0
  6  8  1  0  0  0  0
  8  9  1  0  0  0  0
  8 32  1  0  0  0  0
  9 10  1  0  0  0  0
  9 33  1  0  0  0  0
  9 34  1  0  0  0  0
 10 23  1  0  0  0  0
 10 11  2  0  0  0  0
 11 12  1  0  0  0  0
 11 35  1  0  0  0  0
 12 13  2  0  0  0  0
 12 36  1  0  0  0  0
 13 14  1  0  0  0  0
 13 22  1  0  0  0  0
 14 21  1  0  0  0  0
 14 15  1  0  0  0  0
 15 16  1  0  0  0  0
 15 37  1  0  0  0  0
 15 38  1  0  0  0  0
 16 17  1  0  0  0  0
 16 18  1  0  0  0  0
 16 39  1  0  0  0  0
 17 40  1  0  0  0  0
 17 41  1  0  0  0  0
 17 42  1  0  0  0  0
 18 19  1  0  0  0  0
 19 20  1  0  0  0  0
 19 21  1  0  0  0  0
 19 43  1  0  0  0  0
 20 44  1  0  0  0  0
 20 45  1  0  0  0  0
 20 46  1  0  0  0  0
 21 47  1  0  0  0  0
 21 48  1  0  0  0  0
 22 23  2  0  0  0  0
 23 49  1  0  0  0  0
M  END
> <s_m_source_file>
AV-unprocessed.smi

> <i_m_source_file_index>
1983

> <i_lp_mmshare_version>
43012

> <i_f3d_flags>
0

> <s_epik_input>
W09IXVtDSDJdW0NAQEhdKFtDSDNdKVtOSF1DKD1PKVtOSF1bQ0gyXWMxW2NIXVtjSF1jKG5bY0hdMSlOMltDSDJdW0NAQEhdKFtDSDNdKU9bQ0BASF0oW0NIM10pW0NIMl0y

> <s_epik_cmdline>
J2VwaWtfcHl0aG9uJywgJy1waCcsICc3LjAnLCAnLXRuJywgJzgnLCAnLW1hJywgJzIwMCcsICctbWV0YWxfYmluZGluZycsICctaW1hZScsICc8aW5maWxlLm1hZT4nLCAnLW9tYWUnLCAnPG91dGZpbGUubWFlPic=

> <r_lp_tautomer_probability>
1

> <r_epik_Ionization_Penalty>
0.00801967

> <r_epik_Ionization_Penalty_Charging>
0

> <r_epik_Ionization_Penalty_Neutral>
0.00801967

> <r_epik_State_Penalty>
0.00598289

> <r_epik_Charging_Adjusted_Penalty>
0.00598289

> <i_epik_Tot_Q>
0

> <i_epik_Tot_abs_Q>
0

> <r_epik_Metal_State_Penalty>
0.00590297

> <b_epik_Metal_Only>
0

> <s_lp_Force_Field>
OPLS_2005

> <r_lp_Energy>
17.8108

> <b_lp_Chiralities_Consistent>
1

> <s_lp_Variant>
AV-unprocessed.smi:1983-5

> <Gold.Version>
5.8.1

> <Gold.Id.Protein>
6NUR|6NUR_protein|mol2

> <Gold.PLP.Fitness>
50.8587

> <Gold.PLP.PLP>
-43.5752

> <Gold.PLP.part.hbond>
-3.0000

> <Gold.PLP.part.metal>
0.0000

> <Gold.PLP.part.buried>
-3.7422

> <Gold.PLP.part.nonpolar>
-37.1651

> <Gold.PLP.part.repulsive>
0.2180

> <Gold.PLP.ligand.clash>
0.0000

> <Gold.PLP.ligand.torsion>
0.8891

> <Gold.PLP.Chemscore.Hbond>
2.8480

> <Gold.PLP.Chemscore.CHOScore>
0.0000

> <Gold.PLP.Chemscore.Metal>
0.0000

> <Gold.Chemscore.Hbonds>
donor molecule, donor type, donor heavy atom, donor atom, acceptor molecule, acceptor atom, score
      L1  H     4    30       P1  7948  0.94
      L1  H     5    31       P1  7948  1.00
      L1  H     8    32       P1  7948  0.80

> <Gold.PLP.Chemscore.Internal.Correction>
0.5176

> <Gold.Rescore>
     Score         DG    S(hbond)    S(metal)    S(lipo)     H(rot)  DE(clash)    DE(int)     intcor
     16.93     -17.71       1.91        0.00     107.20       2.61       0.12       0.66       ----

> <Gold.Chemscore.Fitness>
16.9277

> <Gold.Chemscore.DG>
-17.7089

> <Gold.Chemscore.ZeroCoef>
-5.4800

> <Gold.Chemscore.Hbond>
1.9066

> <Gold.Chemscore.Metal>
0.0000

> <Gold.Chemscore.Lipo>
107.1957

> <Gold.Chemscore.Internal_Hbond>
0.0000

> <Gold.Chemscore.DEClash>
0.1196

> <Gold.Chemscore.DEInternal>
0.6616

> <Gold.Chemscore.Rot>
2.6097

> <Gold.Chemscore.Internal.Correction>
   9.000000E+99

> <Gold.Chemscore.Hbonds>
donor molecule, donor type, donor heavy atom, donor atom, acceptor molecule, acceptor atom, score
      L1  H     4    30       P1  7948  0.31
      L1  H     5    31       P1  7948  0.96
      L1  H     8    32       P1  7948  0.76

> <Gold.Chemscore.Hbond.Weighted>
-6.3679

> <Gold.Chemscore.Metal.Weighted>
-0.0000

> <Gold.Chemscore.Lipo.Weighted>
-12.5419

> <Gold.Chemscore.Internal_Hbond.Weighted>
0.0000

> <Gold.Chemscore.DEClash.Weighted>
0.1196

> <Gold.Chemscore.DEInternal.Weighted>
0.6616

> <Gold.Chemscore.Rot.Weighted>
6.6809

> <Gold.Chemscore.Internal.Correction.Weighted>
   9.000000E+99

> <Gold.Protein.RotatedTorsions>
[ 6907 6896 6895 6894 ] final  105.08 input  -60.11 | X-H torsion
[ 7974 7965 7964 7962 ] final  -63.00 input  175.53 | X-H torsion
[ 8008 7997 7996 7995 ] final  -94.77 input   59.86 | X-H torsion
[ 10167 10162 10161 10158 ] final  -40.47 input  -65.29 | X-H torsion
[ 10718 10713 10712 10709 ] final  165.47 input   66.30 | X-H torsion
[ 10763 10752 10751 10750 ] final   71.71 input  -60.55 | X-H torsion
[ 11005 11000 10999 10996 ] final  162.53 input  -57.11 | X-H torsion

> <Gold.Protein.ActiveResidues>
 VAL166  LYS551  ARG553  GLY616  TRP617  ASP618  TYR619  PRO620  LYS621  CYS622 
 ASP623  PHE694  ASN695  SER759  ASP760  ASP761  ALA762  ILE779  LEU786  VAL792 
 PHE793  MET794  SER795  GLU796  ALA797  LYS798  CYS799  TRP800  GLU811  SER814 

> <Gold.Protein.RotatedAtoms>
  152.5242  133.9581  159.7703 H   0  0  0  0  0  0  0  0  0  0  0  0  # atno 6907 bound_to 6896
  150.9877  133.6172  159.2720 H   0  0  0  0  0  0  0  0  0  0  0  0  # atno 6908 bound_to 6896
  151.3327  135.0851  159.9397 H   0  0  0  0  0  0  0  0  0  0  0  0  # atno 6909 bound_to 6896
  145.7844  140.8744  143.0313 H   0  0  0  0  0  0  0  0  0  0  0  0  # atno 7974 bound_to 7965
  154.7527  140.0486  157.0907 H   0  0  0  0  0  0  0  0  0  0  0  0  # atno 8008 bound_to 7997
  155.0036  140.3127  155.4838 H   0  0  0  0  0  0  0  0  0  0  0  0  # atno 8009 bound_to 7997
  156.2888  140.2197  156.5147 H   0  0  0  0  0  0  0  0  0  0  0  0  # atno 8010 bound_to 7997
  140.7033  143.3151  151.2929 H   0  0  0  0  0  0  0  0  0  0  0  0  # atno 10167 bound_to 10162
  157.0796  131.0388  151.2580 H   0  0  0  0  0  0  0  0  0  0  0  0  # atno 10718 bound_to 10713
  153.0415  135.5127  154.7634 H   0  0  0  0  0  0  0  0  0  0  0  0  # atno 10763 bound_to 10752
  154.6568  135.2933  154.9920 H   0  0  0  0  0  0  0  0  0  0  0  0  # atno 10764 bound_to 10752
  154.0785  135.6667  153.4887 H   0  0  0  0  0  0  0  0  0  0  0  0  # atno 10765 bound_to 10752
  140.2267  134.8155  157.3275 H   0  0  0  0  0  0  0  0  0  0  0  0  # atno 11005 bound_to 11000
  144.6791  140.0034  143.7484 LP  0  0  0  0  0  0  0  0  0  0  0  0  # atno 17320 bound_to 7965
  146.0041  139.3115  143.0910 LP  0  0  0  0  0  0  0  0  0  0  0  0  # atno 17321 bound_to 7965
  139.6587  144.0228  152.2678 LP  0  0  0  0  0  0  0  0  0  0  0  0  # atno 17342 bound_to 10162
  139.9788  144.6442  150.7920 LP  0  0  0  0  0  0  0  0  0  0  0  0  # atno 17343 bound_to 10162
  157.4811  130.7765  149.7415 LP  0  0  0  0  0  0  0  0  0  0  0  0  # atno 17370 bound_to 10713
  155.9927  130.3929  150.2930 LP  0  0  0  0  0  0  0  0  0  0  0  0  # atno 17371 bound_to 10713
  140.1793  134.4510  155.7782 LP  0  0  0  0  0  0  0  0  0  0  0  0  # atno 17394 bound_to 11000
  141.2220  133.6976  156.7841 LP  0  0  0  0  0  0  0  0  0  0  0  0  # atno 17395 bound_to 11000

$$$$
