AV-unprocessed.smi:1306|AV-procd|sdf|5435|dock10
  -GOLD-   22720 5 03D 1   1.00000     0.00000
 Structure written by MMmdl.
 38 39  0  0  0  0  0  0  0  0  2 V2000
  152.6153  139.5554  154.8585 O   0  0  0  0  0  0  0  0  0  0  0  0
  151.5120  139.0180  154.7505 C   0  0  0  0  0  0  0  0  0  0  0  0
  151.3886  137.5715  154.2528 C   0  0  0  0  0  0  0  0  0  0  0  0
  150.8768  136.6530  155.2826 N   0  0  0  0  0  0  0  0  0  0  0  0
  149.5405  136.2292  155.1762 C   0  0  0  0  0  0  0  0  0  0  0  0
  148.9895  135.3854  156.0693 C   0  0  0  0  0  0  0  0  0  0  0  0
  149.8171  134.9090  157.1706 C   0  0  0  0  0  0  0  0  0  0  0  0
  149.3298  134.1406  157.9973 O   0  0  0  0  0  0  0  0  0  0  0  0
  151.1089  135.3466  157.2290 N   0  5  0  0  0  0  0  0  0  0  0  0
  151.6567  136.2033  156.3120 C   0  0  0  0  0  0  0  0  0  0  0  0
  152.8258  136.5842  156.3826 O   0  0  0  0  0  0  0  0  0  0  0  0
  150.3611  139.6471  155.0247 N   0  0  0  0  0  0  0  0  0  0  0  0
  150.2654  141.0143  155.5187 C   0  0  0  0  0  0  0  0  0  0  0  0
  150.1464  141.0390  157.0483 C   0  0  0  0  0  0  0  0  0  0  0  0
  151.7570  140.8255  157.8605 S   0  0  0  0  0  0  0  0  0  0  0  0
  151.6472  142.1003  159.1487 C   0  0  0  0  0  0  0  0  0  0  0  0
  151.8340  143.5103  158.5908 C   0  0  0  0  0  0  0  0  0  0  0  0
  152.2097  144.3539  159.8108 C   0  0  0  0  0  0  0  0  0  0  0  0
  152.9182  143.3982  160.7826 C   0  0  0  0  0  0  0  0  0  0  0  0
  152.7472  141.9847  160.2083 C   0  0  0  0  0  0  0  0  0  0  0  0
  150.7480  137.5358  153.3693 H   0  0  0  0  0  0  0  0  0  0  0  0
  152.3711  137.2475  153.9072 H   0  0  0  0  0  0  0  0  0  0  0  0
  148.9987  136.6235  154.3290 H   0  0  0  0  0  0  0  0  0  0  0  0
  147.9621  135.0670  155.9717 H   0  0  0  0  0  0  0  0  0  0  0  0
  149.4976  139.1361  154.9124 H   0  0  0  0  0  0  0  0  0  0  0  0
  151.1381  141.5863  155.1995 H   0  0  0  0  0  0  0  0  0  0  0  0
  149.3903  141.4914  155.0751 H   0  0  0  0  0  0  0  0  0  0  0  0
  149.7244  141.9919  157.3680 H   0  0  0  0  0  0  0  0  0  0  0  0
  149.4625  140.2593  157.3842 H   0  0  0  0  0  0  0  0  0  0  0  0
  150.6694  142.0375  159.6288 H   0  0  0  0  0  0  0  0  0  0  0  0
  152.6563  143.5222  157.8738 H   0  0  0  0  0  0  0  0  0  0  0  0
  150.9440  143.8822  158.0824 H   0  0  0  0  0  0  0  0  0  0  0  0
  152.8325  145.2072  159.5409 H   0  0  0  0  0  0  0  0  0  0  0  0
  151.3052  144.7444  160.2788 H   0  0  0  0  0  0  0  0  0  0  0  0
  153.9755  143.6458  160.8830 H   0  0  0  0  0  0  0  0  0  0  0  0
  152.4715  143.4714  161.7746 H   0  0  0  0  0  0  0  0  0  0  0  0
  152.5056  141.2529  160.9797 H   0  0  0  0  0  0  0  0  0  0  0  0
  153.6822  141.6720  159.7412 H   0  0  0  0  0  0  0  0  0  0  0  0
  1  2  2  0  0  0  0
  2  3  1  0  0  0  0
  2 12  1  0  0  0  0
  3  4  1  0  0  0  0
  3 21  1  0  0  0  0
  3 22  1  0  0  0  0
  4 10  1  0  0  0  0
  4  5  1  0  0  0  0
  5  6  2  0  0  0  0
  5 23  1  0  0  0  0
  6  7  1  0  0  0  0
  6 24  1  0  0  0  0
  7  8  2  0  0  0  0
  7  9  1  0  0  0  0
  9 10  1  0  0  0  0
 10 11  2  0  0  0  0
 12 13  1  0  0  0  0
 12 25  1  0  0  0  0
 13 14  1  0  0  0  0
 13 26  1  0  0  0  0
 13 27  1  0  0  0  0
 14 15  1  0  0  0  0
 14 28  1  0  0  0  0
 14 29  1  0  0  0  0
 15 16  1  0  0  0  0
 16 20  1  0  0  0  0
 16 17  1  0  0  0  0
 16 30  1  0  0  0  0
 17 18  1  0  0  0  0
 17 31  1  0  0  0  0
 17 32  1  0  0  0  0
 18 19  1  0  0  0  0
 18 33  1  0  0  0  0
 18 34  1  0  0  0  0
 19 20  1  0  0  0  0
 19 35  1  0  0  0  0
 19 36  1  0  0  0  0
 20 37  1  0  0  0  0
 20 38  1  0  0  0  0
M  CHG  1   9  -1
M  END
> <s_m_source_file>
AV-unprocessed.smi

> <i_m_source_file_index>
1306

> <i_lp_mmshare_version>
43012

> <i_f3d_flags>
0

> <s_epik_input>
Tz1jMVtuSF1jKD1PKVtjSF1bY0hdbjFbQ0gyXUMoPU8pW05IXVtDSDJdW0NIMl1TW0NIXTJbQ0gyXVtDSDJdW0NIMl1bQ0gyXTI=

> <s_epik_cmdline>
J2VwaWtfcHl0aG9uJywgJy1waCcsICc3LjAnLCAnLXRuJywgJzgnLCAnLW1hJywgJzIwMCcsICctbWV0YWxfYmluZGluZycsICctaW1hZScsICc8aW5maWxlLm1hZT4nLCAnLW9tYWUnLCAnPG91dGZpbGUubWFlPic=

> <r_lp_tautomer_probability>
0.999537

> <r_epik_Ionization_Penalty>
3.06336

> <r_epik_Ionization_Penalty_Charging>
2.63481e-08

> <r_epik_Ionization_Penalty_Neutral>
3.06336

> <r_epik_State_Penalty>
3.06238

> <r_epik_Charging_Adjusted_Penalty>
3.06238

> <i_epik_Tot_Q>
-1

> <i_epik_Tot_abs_Q>
1

> <r_epik_Metal_State_Penalty>
0.458539

> <b_epik_Metal_Only>
1

> <s_lp_Force_Field>
OPLS_2005

> <r_lp_Energy>
29.7989

> <b_lp_Chiralities_Consistent>
1

> <s_lp_Variant>
AV-unprocessed.smi:1306-2

> <Gold.Version>
5.8.1

> <Gold.Id.Protein>
6NUR|6NUR_protein|mol2

> <Gold.PLP.Fitness>
48.2581

> <Gold.PLP.PLP>
-38.3686

> <Gold.PLP.part.hbond>
-5.0000

> <Gold.PLP.part.metal>
0.0000

> <Gold.PLP.part.buried>
-4.2963

> <Gold.PLP.part.nonpolar>
-29.8867

> <Gold.PLP.part.repulsive>
0.1157

> <Gold.PLP.ligand.clash>
0.0000

> <Gold.PLP.ligand.torsion>
0.9181

> <Gold.PLP.Chemscore.Hbond>
2.8800

> <Gold.PLP.Chemscore.CHOScore>
1.0000

> <Gold.PLP.Chemscore.Metal>
0.0000

> <Gold.Chemscore.Hbonds>
donor molecule, donor type, donor heavy atom, donor atom, acceptor molecule, acceptor atom, score
      P1  H  6896  6908       L1     8  1.00
      P1  H  7997  8010       L1     1  0.57
      P1  H 10752 10763       L1    11  0.80
      L1  C     5    23       P1  7948  1.00

> <Gold.PLP.Chemscore.Internal.Correction>
0.0858

> <Gold.Rescore>
     Score         DG    S(hbond)    S(metal)    S(lipo)     H(rot)  DE(clash)    DE(int)     intcor
     14.88     -15.90       1.93        0.00      86.04       2.38       0.02       1.00       ----

> <Gold.Chemscore.Fitness>
14.8773

> <Gold.Chemscore.DG>
-15.8954

> <Gold.Chemscore.ZeroCoef>
-5.4800

> <Gold.Chemscore.Hbond>
1.9261

> <Gold.Chemscore.Metal>
0.0000

> <Gold.Chemscore.Lipo>
86.0378

> <Gold.Chemscore.Internal_Hbond>
0.0000

> <Gold.Chemscore.DEClash>
0.0186

> <Gold.Chemscore.DEInternal>
0.9994

> <Gold.Chemscore.Rot>
2.3767

> <Gold.Chemscore.Internal.Correction>
   9.000000E+99

> <Gold.Chemscore.Hbonds>
donor molecule, donor type, donor heavy atom, donor atom, acceptor molecule, acceptor atom, score
      P1  H  6896  6908       L1     8  0.45
      P1  H  7997  8010       L1     1  0.58
      P1  H 10752 10763       L1    11  0.24

> <Gold.Chemscore.Hbond.Weighted>
-6.4333

> <Gold.Chemscore.Metal.Weighted>
-0.0000

> <Gold.Chemscore.Lipo.Weighted>
-10.0664

> <Gold.Chemscore.Internal_Hbond.Weighted>
0.0000

> <Gold.Chemscore.DEClash.Weighted>
0.0186

> <Gold.Chemscore.DEInternal.Weighted>
0.9994

> <Gold.Chemscore.Rot.Weighted>
6.0844

> <Gold.Chemscore.Internal.Correction.Weighted>
   9.000000E+99

> <Gold.Protein.RotatedTorsions>
[ 6907 6896 6895 6894 ] final  129.69 input  -60.11 | X-H torsion
[ 7974 7965 7964 7962 ] final  -76.19 input  175.53 | X-H torsion
[ 8008 7997 7996 7995 ] final  100.50 input   59.86 | X-H torsion
[ 10167 10162 10161 10158 ] final  138.43 input  -65.29 | X-H torsion
[ 10718 10713 10712 10709 ] final  -64.91 input   66.30 | X-H torsion
[ 10763 10752 10751 10750 ] final  125.46 input  -60.55 | X-H torsion
[ 11005 11000 10999 10996 ] final -136.87 input  -57.11 | X-H torsion

> <Gold.Protein.ActiveResidues>
 VAL166  LYS551  ARG553  GLY616  TRP617  ASP618  TYR619  PRO620  LYS621  CYS622 
 ASP623  PHE694  ASN695  SER759  ASP760  ASP761  ALA762  ILE779  LEU786  VAL792 
 PHE793  MET794  SER795  GLU796  ALA797  LYS798  CYS799  TRP800  GLU811  SER814 

> <Gold.Protein.RotatedAtoms>
  152.3599  133.6284  159.6007 H   0  0  0  0  0  0  0  0  0  0  0  0  # atno 6907 bound_to 6896
  150.7594  133.9440  159.3474 H   0  0  0  0  0  0  0  0  0  0  0  0  # atno 6908 bound_to 6896
  151.7279  135.0882  160.0346 H   0  0  0  0  0  0  0  0  0  0  0  0  # atno 6909 bound_to 6896
  145.6161  140.9375  143.1163 H   0  0  0  0  0  0  0  0  0  0  0  0  # atno 7974 bound_to 7965
  156.1209  140.3212  155.8207 H   0  0  0  0  0  0  0  0  0  0  0  0  # atno 8008 bound_to 7997
  155.4506  140.0532  157.3018 H   0  0  0  0  0  0  0  0  0  0  0  0  # atno 8009 bound_to 7997
  154.4827  140.2060  155.9740 H   0  0  0  0  0  0  0  0  0  0  0  0  # atno 8010 bound_to 7997
  139.5111  144.6354  151.5711 H   0  0  0  0  0  0  0  0  0  0  0  0  # atno 10167 bound_to 10162
  156.0701  130.4240  150.1488 H   0  0  0  0  0  0  0  0  0  0  0  0  # atno 10718 bound_to 10713
  153.6776  135.3320  155.3170 H   0  0  0  0  0  0  0  0  0  0  0  0  # atno 10763 bound_to 10752
  154.8474  135.4401  154.1640 H   0  0  0  0  0  0  0  0  0  0  0  0  # atno 10764 bound_to 10752
  153.2648  135.6994  153.7618 H   0  0  0  0  0  0  0  0  0  0  0  0  # atno 10765 bound_to 10752
  140.8764  134.1987  157.4619 H   0  0  0  0  0  0  0  0  0  0  0  0  # atno 11005 bound_to 11000
  144.7250  139.7905  143.7368 LP  0  0  0  0  0  0  0  0  0  0  0  0  # atno 17320 bound_to 7965
  146.1467  139.4538  143.0074 LP  0  0  0  0  0  0  0  0  0  0  0  0  # atno 17321 bound_to 7965
  140.6101  143.9452  150.6447 LP  0  0  0  0  0  0  0  0  0  0  0  0  # atno 17342 bound_to 10162
  140.2692  143.3468  152.1253 LP  0  0  0  0  0  0  0  0  0  0  0  0  # atno 17343 bound_to 10162
  156.9541  130.9784  151.3492 LP  0  0  0  0  0  0  0  0  0  0  0  0  # atno 17370 bound_to 10713
  157.5766  130.8347  149.8464 LP  0  0  0  0  0  0  0  0  0  0  0  0  # atno 17371 bound_to 10713
  139.8716  134.9797  156.5049 LP  0  0  0  0  0  0  0  0  0  0  0  0  # atno 17394 bound_to 11000
  140.8513  133.8130  155.9171 LP  0  0  0  0  0  0  0  0  0  0  0  0  # atno 17395 bound_to 11000

$$$$
