AV-unprocessed.smi:1702|AV-procd|sdf|6847|dock10
  -GOLD-   22720 8 23D 1   1.00000     0.00000
 Structure written by MMmdl.
 44 46  0  0  0  0  0  0  0  0  2 V2000
  148.9026  139.0433  157.3170 C   0  0  0  0  0  0  0  0  0  0  0  0
  149.5779  138.3727  156.1081 C   0  0  2  0  0  0  0  0  0  0  0  0
  149.6441  139.2948  154.8768 C   0  0  0  0  0  0  0  0  0  0  0  0
  148.2749  139.4521  154.1907 C   0  0  0  0  0  0  0  0  0  0  0  0
  147.7038  138.1309  153.8239 N   0  3  2  0  0  0  0  0  0  0  0  0
  146.4562  138.2544  153.0264 C   0  0  0  0  0  0  0  0  0  0  0  0
  146.2826  137.0995  152.0201 C   0  0  2  0  0  0  0  0  0  0  0  0
  146.4768  137.6040  150.7120 O   0  0  0  0  0  0  0  0  0  0  0  0
  144.8850  136.4578  152.1197 C   0  0  0  0  0  0  0  0  0  0  0  0
  144.7518  135.2810  151.2787 N   0  0  0  0  0  0  0  0  0  0  0  0
  144.3019  135.2412  150.0097 C   0  0  0  0  0  0  0  0  0  0  0  0
  144.2569  134.0525  149.4159 N   0  0  0  0  0  0  0  0  0  0  0  0
  144.7362  133.2224  150.4145 C   0  0  0  0  0  0  0  0  0  0  0  0
  144.9403  131.8241  150.4250 C   0  0  0  0  0  0  0  0  0  0  0  0
  145.4474  131.1841  151.5748 C   0  0  0  0  0  0  0  0  0  0  0  0
  145.6374  129.8434  151.5679 F   0  0  0  0  0  0  0  0  0  0  0  0
  145.7572  131.9318  152.7303 C   0  0  0  0  0  0  0  0  0  0  0  0
  146.2440  131.3101  153.8303 F   0  0  0  0  0  0  0  0  0  0  0  0
  145.5615  133.3262  152.7439 C   0  0  0  0  0  0  0  0  0  0  0  0
  145.0562  133.9607  151.5940 C   0  0  0  0  0  0  0  0  0  0  0  0
  147.5586  137.2507  155.0136 C   0  0  0  0  0  0  0  0  0  0  0  0
  148.9123  137.0410  155.7157 C   0  0  0  0  0  0  0  0  0  0  0  0
  147.8663  139.3118  157.1139 H   0  0  0  0  0  0  0  0  0  0  0  0
  149.4287  139.9554  157.6004 H   0  0  0  0  0  0  0  0  0  0  0  0
  148.9077  138.3818  158.1836 H   0  0  0  0  0  0  0  0  0  0  0  0
  150.6023  138.1519  156.4111 H   0  0  0  0  0  0  0  0  0  0  0  0
  150.0379  140.2725  155.1565 H   0  0  0  0  0  0  0  0  0  0  0  0
  150.3525  138.8795  154.1586 H   0  0  0  0  0  0  0  0  0  0  0  0
  147.5786  139.9874  154.8374 H   0  0  0  0  0  0  0  0  0  0  0  0
  148.3993  140.0595  153.2933 H   0  0  0  0  0  0  0  0  0  0  0  0
  145.6018  138.3067  153.7031 H   0  0  0  0  0  0  0  0  0  0  0  0
  146.4594  139.1947  152.4726 H   0  0  0  0  0  0  0  0  0  0  0  0
  147.0298  136.3266  152.1973 H   0  0  0  0  0  0  0  0  0  0  0  0
  145.7204  138.1156  150.4676 H   0  0  0  0  0  0  0  0  0  0  0  0
  144.6801  136.1622  153.1495 H   0  0  0  0  0  0  0  0  0  0  0  0
  144.1113  137.1754  151.8436 H   0  0  0  0  0  0  0  0  0  0  0  0
  143.9869  136.1364  149.4935 H   0  0  0  0  0  0  0  0  0  0  0  0
  144.7065  131.2413  149.5465 H   0  0  0  0  0  0  0  0  0  0  0  0
  145.7980  133.8983  153.6283 H   0  0  0  0  0  0  0  0  0  0  0  0
  146.8343  137.6840  155.7045 H   0  0  0  0  0  0  0  0  0  0  0  0
  147.1631  136.2792  154.7204 H   0  0  0  0  0  0  0  0  0  0  0  0
  149.5764  136.4945  155.0446 H   0  0  0  0  0  0  0  0  0  0  0  0
  148.7852  136.4080  156.5946 H   0  0  0  0  0  0  0  0  0  0  0  0
  148.3818  137.6938  153.2154 H   0  0  0  0  0  0  0  0  0  0  0  0
  1  2  1  0  0  0  0
  1 23  1  0  0  0  0
  1 24  1  0  0  0  0
  1 25  1  0  0  0  0
  2 22  1  0  0  0  0
  2  3  1  0  0  0  0
  2 26  1  0  0  0  0
  3  4  1  0  0  0  0
  3 27  1  0  0  0  0
  3 28  1  0  0  0  0
  4  5  1  0  0  0  0
  4 29  1  0  0  0  0
  4 30  1  0  0  0  0
  5  6  1  0  0  0  0
  5 21  1  0  0  0  0
  5 44  1  0  0  0  0
  6  7  1  0  0  0  0
  6 31  1  0  0  0  0
  6 32  1  0  0  0  0
  7  8  1  0  0  0  0
  7  9  1  0  0  0  0
  7 33  1  0  0  0  0
  8 34  1  0  0  0  0
  9 10  1  0  0  0  0
  9 35  1  0  0  0  0
  9 36  1  0  0  0  0
 10 20  1  0  0  0  0
 10 11  1  0  0  0  0
 11 12  2  0  0  0  0
 11 37  1  0  0  0  0
 12 13  1  0  0  0  0
 13 20  2  0  0  0  0
 13 14  1  0  0  0  0
 14 15  2  0  0  0  0
 14 38  1  0  0  0  0
 15 16  1  0  0  0  0
 15 17  1  0  0  0  0
 17 18  1  0  0  0  0
 17 19  2  0  0  0  0
 19 20  1  0  0  0  0
 19 39  1  0  0  0  0
 21 22  1  0  0  0  0
 21 40  1  0  0  0  0
 21 41  1  0  0  0  0
 22 42  1  0  0  0  0
 22 43  1  0  0  0  0
M  CHG  1   5   1
M  END
> <s_m_source_file>
AV-unprocessed.smi

> <i_m_source_file_index>
1702

> <i_lp_mmshare_version>
43012

> <i_f3d_flags>
0

> <s_epik_input>
W0NIM11bQ0hdMVtDSDJdW0NIMl1OKFtDSDJdW0NIMl0xKVtDSDJdW0NASF0oW09IXSlbQ0gyXW4oW2NIXW4yKWMoYzIzKVtjSF1jKEYpYyhGKVtjSF0z

> <s_epik_cmdline>
J2VwaWtfcHl0aG9uJywgJy1waCcsICc3LjAnLCAnLXRuJywgJzgnLCAnLW1hJywgJzIwMCcsICctbWV0YWxfYmluZGluZycsICctaW1hZScsICc8aW5maWxlLm1hZT4nLCAnLW9tYWUnLCAnPG91dGZpbGUubWFlPic=

> <r_epik_Ionization_Penalty>
0.0135195

> <r_epik_Ionization_Penalty_Charging>
0.00181365

> <r_epik_Ionization_Penalty_Neutral>
0.0117059

> <r_epik_State_Penalty>
0.00902283

> <r_epik_Charging_Adjusted_Penalty>
0.0108365

> <i_epik_Tot_Q>
1

> <i_epik_Tot_abs_Q>
1

> <r_epik_Metal_State_Penalty>
9.09181e-06

> <b_epik_Metal_Only>
0

> <s_lp_Force_Field>
OPLS_2005

> <r_lp_Energy>
24.0829

> <b_lp_Chiralities_Consistent>
1

> <s_lp_Variant>
AV-unprocessed.smi:1702-3

> <Gold.Version>
5.8.1

> <Gold.Id.Protein>
6NUR|6NUR_protein|mol2

> <Gold.PLP.Fitness>
46.2620

> <Gold.PLP.PLP>
-34.1415

> <Gold.PLP.part.hbond>
-3.5842

> <Gold.PLP.part.metal>
0.0000

> <Gold.PLP.part.buried>
-3.4581

> <Gold.PLP.part.nonpolar>
-29.9179

> <Gold.PLP.part.repulsive>
1.4638

> <Gold.PLP.ligand.clash>
0.0000

> <Gold.PLP.ligand.torsion>
1.4212

> <Gold.PLP.Chemscore.Hbond>
3.9760

> <Gold.PLP.Chemscore.CHOScore>
1.0000

> <Gold.PLP.Chemscore.Metal>
0.0000

> <Gold.Chemscore.Hbonds>
donor molecule, donor type, donor heavy atom, donor atom, acceptor molecule, acceptor atom, score
      L1  H     5    44       P1  7948  1.85
      L1  H     8    34       P1 10171  1.00
      P1  H  7954  7966       L1     8  1.00
      L1  C    11    37       P1 10171  1.00

> <Gold.PLP.Chemscore.Internal.Correction>
0.0350

> <Gold.Rescore>
     Score         DG    S(hbond)    S(metal)    S(lipo)     H(rot)  DE(clash)    DE(int)     intcor
     14.60     -17.80       2.82        0.00      74.27       2.26       1.82       1.38       ----

> <Gold.Chemscore.Fitness>
14.6042

> <Gold.Chemscore.DG>
-17.7997

> <Gold.Chemscore.ZeroCoef>
-5.4800

> <Gold.Chemscore.Hbond>
2.8204

> <Gold.Chemscore.Metal>
0.0000

> <Gold.Chemscore.Lipo>
74.2721

> <Gold.Chemscore.Internal_Hbond>
0.0000

> <Gold.Chemscore.DEClash>
1.8203

> <Gold.Chemscore.DEInternal>
1.3752

> <Gold.Chemscore.Rot>
2.2619

> <Gold.Chemscore.Internal.Correction>
   9.000000E+99

> <Gold.Chemscore.Hbonds>
donor molecule, donor type, donor heavy atom, donor atom, acceptor molecule, acceptor atom, score
      L1  H     5    44       P1  7948  0.86
      L1  H     8    34       P1 10171  0.96
      P1  H  7954  7966       L1     8  0.95

> <Gold.Chemscore.Hbond.Weighted>
-9.4203

> <Gold.Chemscore.Metal.Weighted>
-0.0000

> <Gold.Chemscore.Lipo.Weighted>
-8.6898

> <Gold.Chemscore.Internal_Hbond.Weighted>
0.0000

> <Gold.Chemscore.DEClash.Weighted>
1.8203

> <Gold.Chemscore.DEInternal.Weighted>
1.3752

> <Gold.Chemscore.Rot.Weighted>
5.7904

> <Gold.Chemscore.Internal.Correction.Weighted>
   9.000000E+99

> <Gold.Protein.RotatedTorsions>
[ 6907 6896 6895 6894 ] final  109.84 input  -60.11 | X-H torsion
[ 7974 7965 7964 7962 ] final  -66.60 input  175.53 | X-H torsion
[ 8008 7997 7996 7995 ] final  127.93 input   59.86 | X-H torsion
[ 10167 10162 10161 10158 ] final  149.22 input  -65.29 | X-H torsion
[ 10718 10713 10712 10709 ] final  -22.39 input   66.30 | X-H torsion
[ 10763 10752 10751 10750 ] final   54.80 input  -60.55 | X-H torsion
[ 11005 11000 10999 10996 ] final  123.50 input  -57.11 | X-H torsion

> <Gold.Protein.ActiveResidues>
 VAL166  LYS551  ARG553  GLY616  TRP617  ASP618  TYR619  PRO620  LYS621  CYS622 
 ASP623  PHE694  ASN695  SER759  ASP760  ASP761  ALA762  ILE779  LEU786  VAL792 
 PHE793  MET794  SER795  GLU796  ALA797  LYS798  CYS799  TRP800  GLU811  SER814 

> <Gold.Protein.RotatedAtoms>
  152.5048  133.8887  159.7382 H   0  0  0  0  0  0  0  0  0  0  0  0  # atno 6907 bound_to 6896
  150.9331  133.6735  159.2813 H   0  0  0  0  0  0  0  0  0  0  0  0  # atno 6908 bound_to 6896
  151.4072  135.0984  159.9627 H   0  0  0  0  0  0  0  0  0  0  0  0  # atno 6909 bound_to 6896
  145.7397  140.8959  143.0536 H   0  0  0  0  0  0  0  0  0  0  0  0  # atno 7974 bound_to 7965
  156.2903  140.2657  156.2353 H   0  0  0  0  0  0  0  0  0  0  0  0  # atno 8008 bound_to 7997
  155.0031  140.0387  157.2387 H   0  0  0  0  0  0  0  0  0  0  0  0  # atno 8009 bound_to 7997
  154.7583  140.2756  155.6240 H   0  0  0  0  0  0  0  0  0  0  0  0  # atno 8010 bound_to 7997
  139.4864  144.5618  151.7217 H   0  0  0  0  0  0  0  0  0  0  0  0  # atno 10167 bound_to 10162
  156.5052  130.4597  149.6679 H   0  0  0  0  0  0  0  0  0  0  0  0  # atno 10718 bound_to 10713
  152.9809  135.5732  154.4963 H   0  0  0  0  0  0  0  0  0  0  0  0  # atno 10763 bound_to 10752
  154.4490  135.2778  155.1797 H   0  0  0  0  0  0  0  0  0  0  0  0  # atno 10764 bound_to 10752
  154.3432  135.6225  153.5660 H   0  0  0  0  0  0  0  0  0  0  0  0  # atno 10765 bound_to 10752
  139.9315  134.9641  156.8268 H   0  0  0  0  0  0  0  0  0  0  0  0  # atno 11005 bound_to 11000
  144.6873  139.9444  143.7476 LP  0  0  0  0  0  0  0  0  0  0  0  0  # atno 17320 bound_to 7965
  146.0459  139.3465  143.0669 LP  0  0  0  0  0  0  0  0  0  0  0  0  # atno 17321 bound_to 7965
  140.5189  144.0909  150.6017 LP  0  0  0  0  0  0  0  0  0  0  0  0  # atno 17342 bound_to 10162
  140.3860  143.2777  152.0115 LP  0  0  0  0  0  0  0  0  0  0  0  0  # atno 17343 bound_to 10162
  156.3294  130.7323  151.2250 LP  0  0  0  0  0  0  0  0  0  0  0  0  # atno 17370 bound_to 10713
  157.7458  131.0434  150.4742 LP  0  0  0  0  0  0  0  0  0  0  0  0  # atno 17371 bound_to 10713
  140.6189  134.0013  155.7609 LP  0  0  0  0  0  0  0  0  0  0  0  0  # atno 17394 bound_to 11000
  141.0906  133.9922  157.3242 LP  0  0  0  0  0  0  0  0  0  0  0  0  # atno 17395 bound_to 11000

$$$$
