AV-unprocessed.smi:2421|AV-procd|sdf|9555|dock2
  -GOLD-   2272013183D 1   1.00000     0.00000
 Structure written by MMmdl.
 44 46  0  0  0  0  0  0  0  0  1 V2000
  141.8218  136.6881  154.7088 C   0  0  0  0  0  0  0  0  0  0  0  0
  142.7231  135.9827  153.7372 C   0  0  0  0  0  0  0  0  0  0  0  0
  142.4819  134.7261  153.3944 N   0  0  0  0  0  0  0  0  0  0  0  0
  143.4829  134.3641  152.4764 O   0  0  0  0  0  0  0  0  0  0  0  0
  144.3132  135.4245  152.2848 C   0  0  0  0  0  0  0  0  0  0  0  0
  145.4461  135.2450  151.3324 C   0  0  0  0  0  0  0  0  0  0  0  0
  143.8787  136.4547  153.0635 C   0  0  0  0  0  0  0  0  0  0  0  0
  144.4379  137.7464  153.1459 N   0  0  0  0  0  0  0  0  0  0  0  0
  145.6122  138.0192  153.7381 C   0  0  0  0  0  0  0  0  0  0  0  0
  146.3572  137.1551  154.1975 O   0  0  0  0  0  0  0  0  0  0  0  0
  145.9281  139.3261  153.7844 N   0  0  0  0  0  0  0  0  0  0  0  0
  147.1242  139.9481  154.3563 C   0  0  2  0  0  0  0  0  0  0  0  0
  147.3785  141.3014  153.6813 C   0  0  0  0  0  0  0  0  0  0  0  0
  148.6779  141.9282  154.2060 C   0  0  0  0  0  0  0  0  0  0  0  0
  149.7764  141.0362  154.0252 O   0  0  0  0  0  0  0  0  0  0  0  0
  149.6515  139.7494  154.6424 C   0  0  0  0  0  0  0  0  0  0  0  0
  149.7889  139.8348  156.1732 C   0  0  0  0  0  0  0  0  0  0  0  0
  151.2840  140.0443  156.4303 C   0  0  0  0  0  0  0  0  0  0  0  0
  152.0088  139.4523  155.2134 C   0  0  0  0  0  0  0  0  0  0  0  0
  150.9122  138.9654  154.2582 C   0  0  0  0  0  0  0  0  0  0  0  0
  148.3611  139.0549  154.1561 C   0  0  0  0  0  0  0  0  0  0  0  0
  142.1722  137.6999  154.9135 H   0  0  0  0  0  0  0  0  0  0  0  0
  141.7773  136.1556  155.6589 H   0  0  0  0  0  0  0  0  0  0  0  0
  140.8065  136.7623  154.3186 H   0  0  0  0  0  0  0  0  0  0  0  0
  146.0759  136.1344  151.3017 H   0  0  0  0  0  0  0  0  0  0  0  0
  145.0765  135.0568  150.3245 H   0  0  0  0  0  0  0  0  0  0  0  0
  146.0689  134.4011  151.6288 H   0  0  0  0  0  0  0  0  0  0  0  0
  143.8927  138.5124  152.7777 H   0  0  0  0  0  0  0  0  0  0  0  0
  145.2734  139.9592  153.3480 H   0  0  0  0  0  0  0  0  0  0  0  0
  146.9684  140.1267  155.4216 H   0  0  0  0  0  0  0  0  0  0  0  0
  147.4529  141.1717  152.6005 H   0  0  0  0  0  0  0  0  0  0  0  0
  146.5417  141.9781  153.8584 H   0  0  0  0  0  0  0  0  0  0  0  0
  148.8905  142.8480  153.6609 H   0  0  0  0  0  0  0  0  0  0  0  0
  148.5758  142.2118  155.2529 H   0  0  0  0  0  0  0  0  0  0  0  0
  149.1741  140.6030  156.6400 H   0  0  0  0  0  0  0  0  0  0  0  0
  149.4880  138.8840  156.6155 H   0  0  0  0  0  0  0  0  0  0  0  0
  151.5027  141.1103  156.5051 H   0  0  0  0  0  0  0  0  0  0  0  0
  151.5999  139.5791  157.3646 H   0  0  0  0  0  0  0  0  0  0  0  0
  152.6134  140.2226  154.7326 H   0  0  0  0  0  0  0  0  0  0  0  0
  152.6789  138.6390  155.4938 H   0  0  0  0  0  0  0  0  0  0  0  0
  150.7468  137.8995  154.4234 H   0  0  0  0  0  0  0  0  0  0  0  0
  151.1850  139.0914  153.2097 H   0  0  0  0  0  0  0  0  0  0  0  0
  148.2334  138.0995  154.6665 H   0  0  0  0  0  0  0  0  0  0  0  0
  148.4631  138.8201  153.0952 H   0  0  0  0  0  0  0  0  0  0  0  0
  1  2  1  0  0  0  0
  1 22  1  0  0  0  0
  1 23  1  0  0  0  0
  1 24  1  0  0  0  0
  2  7  1  0  0  0  0
  2  3  2  0  0  0  0
  3  4  1  0  0  0  0
  4  5  1  0  0  0  0
  5  6  1  0  0  0  0
  5  7  2  0  0  0  0
  6 25  1  0  0  0  0
  6 26  1  0  0  0  0
  6 27  1  0  0  0  0
  7  8  1  0  0  0  0
  8  9  1  0  0  0  0
  8 28  1  0  0  0  0
  9 10  2  0  0  0  0
  9 11  1  0  0  0  0
 11 12  1  0  0  0  0
 11 29  1  0  0  0  0
 12 21  1  0  0  0  0
 12 13  1  0  0  0  0
 12 30  1  0  0  0  0
 13 14  1  0  0  0  0
 13 31  1  0  0  0  0
 13 32  1  0  0  0  0
 14 15  1  0  0  0  0
 14 33  1  0  0  0  0
 14 34  1  0  0  0  0
 15 16  1  0  0  0  0
 16 20  1  0  0  0  0
 16 17  1  0  0  0  0
 16 21  1  0  0  0  0
 17 18  1  0  0  0  0
 17 35  1  0  0  0  0
 17 36  1  0  0  0  0
 18 19  1  0  0  0  0
 18 37  1  0  0  0  0
 18 38  1  0  0  0  0
 19 20  1  0  0  0  0
 19 39  1  0  0  0  0
 19 40  1  0  0  0  0
 20 41  1  0  0  0  0
 20 42  1  0  0  0  0
 21 43  1  0  0  0  0
 21 44  1  0  0  0  0
M  END
> <s_m_source_file>
AV-unprocessed.smi

> <i_m_source_file_index>
2421

> <i_lp_mmshare_version>
43012

> <i_f3d_flags>
0

> <s_epik_input>
W0NIM11jMW5vYyhbQ0gzXSljMVtOSF1DKD1PKVtOSF1bQ0BASF0oW0NIMl0yKVtDSDJdW0NIMl1PQzIzW0NIMl1bQ0gyXVtDSDJdW0NIMl0z

> <s_epik_cmdline>
J2VwaWtfcHl0aG9uJywgJy1waCcsICc3LjAnLCAnLXRuJywgJzgnLCAnLW1hJywgJzIwMCcsICctbWV0YWxfYmluZGluZycsICctaW1hZScsICc8aW5maWxlLm1hZT4nLCAnLW9tYWUnLCAnPG91dGZpbGUubWFlPic=

> <r_lp_tautomer_probability>
1

> <r_epik_Ionization_Penalty>
3.59808e-05

> <r_epik_Ionization_Penalty_Charging>
0

> <r_epik_Ionization_Penalty_Neutral>
3.59808e-05

> <r_epik_State_Penalty>
-0

> <r_epik_Charging_Adjusted_Penalty>
0

> <i_epik_Tot_Q>
0

> <i_epik_Tot_abs_Q>
0

> <r_epik_Metal_State_Penalty>
-0

> <b_epik_Metal_Only>
0

> <s_lp_Force_Field>
OPLS_2005

> <r_lp_Energy>
43.4187

> <b_lp_Chiralities_Consistent>
1

> <s_lp_Variant>
AV-unprocessed.smi:2421-1

> <Gold.Version>
5.8.1

> <Gold.Id.Protein>
6NUR|6NUR_protein|mol2

> <Gold.PLP.Fitness>
39.9398

> <Gold.PLP.PLP>
-33.6413

> <Gold.PLP.part.hbond>
-3.3250

> <Gold.PLP.part.metal>
0.0000

> <Gold.PLP.part.buried>
-6.3796

> <Gold.PLP.part.nonpolar>
-25.7248

> <Gold.PLP.part.repulsive>
1.2510

> <Gold.PLP.ligand.clash>
0.0000

> <Gold.PLP.ligand.torsion>
1.0140

> <Gold.PLP.Chemscore.Hbond>
2.6080

> <Gold.PLP.Chemscore.CHOScore>
0.0000

> <Gold.PLP.Chemscore.Metal>
0.0000

> <Gold.Chemscore.Hbonds>
donor molecule, donor type, donor heavy atom, donor atom, acceptor molecule, acceptor atom, score
      L1  H     8    28       P1 10175  1.00
      L1  H    11    29       P1 10175  1.00
      P1  H  7989  7998       L1    15  0.43

> <Gold.PLP.Chemscore.Internal.Correction>
0.5025

> <Gold.Rescore>
     Score         DG    S(hbond)    S(metal)    S(lipo)     H(rot)  DE(clash)    DE(int)     intcor
     18.35     -20.85       2.64        0.00      77.82       1.00       0.13       2.37       ----

> <Gold.Chemscore.Fitness>
18.3496

> <Gold.Chemscore.DG>
-20.8492

> <Gold.Chemscore.ZeroCoef>
-5.4800

> <Gold.Chemscore.Hbond>
2.6419

> <Gold.Chemscore.Metal>
0.0000

> <Gold.Chemscore.Lipo>
77.8225

> <Gold.Chemscore.Internal_Hbond>
0.0000

> <Gold.Chemscore.DEClash>
0.1297

> <Gold.Chemscore.DEInternal>
2.3699

> <Gold.Chemscore.Rot>
1.0000

> <Gold.Chemscore.Internal.Correction>
   9.000000E+99

> <Gold.Chemscore.Hbonds>
donor molecule, donor type, donor heavy atom, donor atom, acceptor molecule, acceptor atom, score
      L1  H     8    28       P1 10175  0.94
      L1  H    11    29       P1 10175  0.99
      P1  H  7989  7998       L1    15  0.09

> <Gold.Chemscore.Hbond.Weighted>
-8.8240

> <Gold.Chemscore.Metal.Weighted>
-0.0000

> <Gold.Chemscore.Lipo.Weighted>
-9.1052

> <Gold.Chemscore.Internal_Hbond.Weighted>
0.0000

> <Gold.Chemscore.DEClash.Weighted>
0.1297

> <Gold.Chemscore.DEInternal.Weighted>
2.3699

> <Gold.Chemscore.Rot.Weighted>
2.5600

> <Gold.Chemscore.Internal.Correction.Weighted>
   9.000000E+99

> <Gold.Protein.RotatedTorsions>
[ 6907 6896 6895 6894 ] final   69.50 input  -60.11 | X-H torsion
[ 7974 7965 7964 7962 ] final  -15.14 input  175.53 | X-H torsion
[ 8008 7997 7996 7995 ] final  173.60 input   59.86 | X-H torsion
[ 10167 10162 10161 10158 ] final  -13.49 input  -65.29 | X-H torsion
[ 10718 10713 10712 10709 ] final -149.78 input   66.30 | X-H torsion
[ 10763 10752 10751 10750 ] final   72.14 input  -60.55 | X-H torsion
[ 11005 11000 10999 10996 ] final   76.61 input  -57.11 | X-H torsion

> <Gold.Protein.ActiveResidues>
 VAL166  LYS551  ARG553  GLY616  TRP617  ASP618  TYR619  PRO620  LYS621  CYS622 
 ASP623  PHE694  ASN695  SER759  ASP760  ASP761  ALA762  ILE779  LEU786  VAL792 
 PHE793  MET794  SER795  GLU796  ALA797  LYS798  CYS799  TRP800  GLU811  SER814 

> <Gold.Protein.RotatedAtoms>
  152.4690  134.5007  159.9723 H   0  0  0  0  0  0  0  0  0  0  0  0  # atno 6907 bound_to 6896
  151.5038  133.3493  159.2881 H   0  0  0  0  0  0  0  0  0  0  0  0  # atno 6908 bound_to 6896
  150.8689  134.8087  159.7202 H   0  0  0  0  0  0  0  0  0  0  0  0  # atno 6909 bound_to 6896
  146.2045  140.3449  142.8412 H   0  0  0  0  0  0  0  0  0  0  0  0  # atno 7974 bound_to 7965
  156.1059  140.1456  156.9404 H   0  0  0  0  0  0  0  0  0  0  0  0  # atno 8008 bound_to 7997
  154.4734  140.0902  156.7245 H   0  0  0  0  0  0  0  0  0  0  0  0  # atno 8009 bound_to 7997
  155.4679  140.3440  155.4324 H   0  0  0  0  0  0  0  0  0  0  0  0  # atno 8010 bound_to 7997
  140.7183  143.5421  150.9397 H   0  0  0  0  0  0  0  0  0  0  0  0  # atno 10167 bound_to 10162
  156.4376  130.8106  151.2335 H   0  0  0  0  0  0  0  0  0  0  0  0  # atno 10718 bound_to 10713
  153.0441  135.5111  154.7699 H   0  0  0  0  0  0  0  0  0  0  0  0  # atno 10763 bound_to 10752
  154.6613  135.2939  154.9865 H   0  0  0  0  0  0  0  0  0  0  0  0  # atno 10764 bound_to 10752
  154.0715  135.6677  153.4877 H   0  0  0  0  0  0  0  0  0  0  0  0  # atno 10765 bound_to 10752
  139.9291  134.7615  156.1417 H   0  0  0  0  0  0  0  0  0  0  0  0  # atno 11005 bound_to 11000
  144.8759  140.7336  143.6017 LP  0  0  0  0  0  0  0  0  0  0  0  0  # atno 17320 bound_to 7965
  145.3369  139.1743  143.4507 LP  0  0  0  0  0  0  0  0  0  0  0  0  # atno 17321 bound_to 7965
  139.9144  143.6681  152.3109 LP  0  0  0  0  0  0  0  0  0  0  0  0  # atno 17342 bound_to 10162
  139.7076  144.7625  151.1167 LP  0  0  0  0  0  0  0  0  0  0  0  0  # atno 17343 bound_to 10162
  157.7507  131.0178  150.3602 LP  0  0  0  0  0  0  0  0  0  0  0  0  # atno 17370 bound_to 10713
  156.3953  130.3905  149.7000 LP  0  0  0  0  0  0  0  0  0  0  0  0  # atno 17371 bound_to 10713
  141.0868  133.6731  156.2453 LP  0  0  0  0  0  0  0  0  0  0  0  0  # atno 17394 bound_to 11000
  140.6253  134.5319  157.5553 LP  0  0  0  0  0  0  0  0  0  0  0  0  # atno 17395 bound_to 11000

$$$$
