AV-unprocessed.smi:1430|AV-procd|sdf|5823|dock8
  -GOLD-   22720 5483D 1   1.00000     0.00000
 Structure written by MMmdl.
 46 47  0  0  0  0  0  0  0  0  1 V2000
  144.4833  131.9393  151.1062 C   0  0  0  0  0  0  0  0  0  0  0  0
  143.4870  132.7828  151.6735 O   0  0  0  0  0  0  0  0  0  0  0  0
  143.8279  134.0838  151.9821 C   0  0  0  0  0  0  0  0  0  0  0  0
  142.8362  134.9331  152.5115 C   0  0  0  0  0  0  0  0  0  0  0  0
  143.1757  136.2618  152.8311 C   0  0  0  0  0  0  0  0  0  0  0  0
  144.5048  136.6988  152.6165 C   0  0  0  0  0  0  0  0  0  0  0  0
  144.9709  138.0155  152.8801 N   0  0  0  0  0  0  0  0  0  0  0  0
  146.1545  138.4030  153.3858 C   0  0  0  0  0  0  0  0  0  0  0  0
  147.0790  137.6518  153.6958 O   0  0  0  0  0  0  0  0  0  0  0  0
  146.2191  139.7374  153.4965 N   0  0  0  0  0  0  0  0  0  0  0  0
  147.3725  140.4803  153.9898 C   0  0  0  0  0  0  0  0  0  0  0  0
  147.6304  140.1851  155.4790 C   0  0  0  0  0  0  0  0  0  0  0  0
  148.9929  140.4534  155.9344 N   0  0  0  0  0  0  0  0  0  0  0  0
  149.9228  139.4676  155.3979 C   0  0  0  0  0  0  0  0  0  0  0  0
  151.3735  139.7462  155.8300 C   0  0  2  0  0  0  0  0  0  0  0  0
  152.3387  138.6628  155.3376 C   0  0  0  0  0  0  0  0  0  0  0  0
  151.4434  139.7870  157.2540 O   0  0  0  0  0  0  0  0  0  0  0  0
  150.5458  140.7045  157.8810 C   0  0  1  0  0  0  0  0  0  0  0  0
  151.0113  142.1609  157.7134 C   0  0  0  0  0  0  0  0  0  0  0  0
  149.1031  140.4638  157.3919 C   0  0  0  0  0  0  0  0  0  0  0  0
  145.4181  135.7740  152.0693 C   0  0  0  0  0  0  0  0  0  0  0  0
  145.0997  134.4992  151.7616 N   0  0  0  0  0  0  0  0  0  0  0  0
  144.0580  130.9528  150.9215 H   0  0  0  0  0  0  0  0  0  0  0  0
  145.3307  131.8130  151.7815 H   0  0  0  0  0  0  0  0  0  0  0  0
  144.8406  132.3290  150.1520 H   0  0  0  0  0  0  0  0  0  0  0  0
  141.8301  134.5725  152.6667 H   0  0  0  0  0  0  0  0  0  0  0  0
  142.4098  136.9150  153.2184 H   0  0  0  0  0  0  0  0  0  0  0  0
  144.3448  138.7572  152.6026 H   0  0  0  0  0  0  0  0  0  0  0  0
  145.4155  140.2794  153.2141 H   0  0  0  0  0  0  0  0  0  0  0  0
  148.2408  140.1887  153.3985 H   0  0  0  0  0  0  0  0  0  0  0  0
  147.2174  141.5451  153.8126 H   0  0  0  0  0  0  0  0  0  0  0  0
  146.9229  140.7433  156.0943 H   0  0  0  0  0  0  0  0  0  0  0  0
  147.4061  139.1307  155.6482 H   0  0  0  0  0  0  0  0  0  0  0  0
  149.6301  138.4682  155.7250 H   0  0  0  0  0  0  0  0  0  0  0  0
  149.8692  139.4659  154.3084 H   0  0  0  0  0  0  0  0  0  0  0  0
  151.6975  140.7044  155.4232 H   0  0  0  0  0  0  0  0  0  0  0  0
  152.3318  138.5956  154.2494 H   0  0  0  0  0  0  0  0  0  0  0  0
  152.0695  137.6843  155.7361 H   0  0  0  0  0  0  0  0  0  0  0  0
  153.3600  138.8803  155.6511 H   0  0  0  0  0  0  0  0  0  0  0  0
  150.5783  140.4829  158.9480 H   0  0  0  0  0  0  0  0  0  0  0  0
  150.3799  142.8383  158.2888 H   0  0  0  0  0  0  0  0  0  0  0  0
  150.9736  142.4861  156.6740 H   0  0  0  0  0  0  0  0  0  0  0  0
  152.0355  142.2843  158.0659 H   0  0  0  0  0  0  0  0  0  0  0  0
  148.4552  141.2278  157.8208 H   0  0  0  0  0  0  0  0  0  0  0  0
  148.7540  139.5083  157.7866 H   0  0  0  0  0  0  0  0  0  0  0  0
  146.4407  136.0636  151.8754 H   0  0  0  0  0  0  0  0  0  0  0  0
  1  2  1  0  0  0  0
  1 23  1  0  0  0  0
  1 24  1  0  0  0  0
  1 25  1  0  0  0  0
  2  3  1  0  0  0  0
  3 22  1  0  0  0  0
  3  4  2  0  0  0  0
  4  5  1  0  0  0  0
  4 26  1  0  0  0  0
  5  6  2  0  0  0  0
  5 27  1  0  0  0  0
  6  7  1  0  0  0  0
  6 21  1  0  0  0  0
  7  8  1  0  0  0  0
  7 28  1  0  0  0  0
  8  9  2  0  0  0  0
  8 10  1  0  0  0  0
 10 11  1  0  0  0  0
 10 29  1  0  0  0  0
 11 12  1  0  0  0  0
 11 30  1  0  0  0  0
 11 31  1  0  0  0  0
 12 13  1  0  0  0  0
 12 32  1  0  0  0  0
 12 33  1  0  0  0  0
 13 20  1  0  0  0  0
 13 14  1  0  0  0  0
 14 15  1  0  0  0  0
 14 34  1  0  0  0  0
 14 35  1  0  0  0  0
 15 16  1  0  0  0  0
 15 17  1  0  0  0  0
 15 36  1  0  0  0  0
 16 37  1  0  0  0  0
 16 38  1  0  0  0  0
 16 39  1  0  0  0  0
 17 18  1  0  0  0  0
 18 19  1  0  0  0  0
 18 20  1  0  0  0  0
 18 40  1  0  0  0  0
 19 41  1  0  0  0  0
 19 42  1  0  0  0  0
 19 43  1  0  0  0  0
 20 44  1  0  0  0  0
 20 45  1  0  0  0  0
 21 22  2  0  0  0  0
 21 46  1  0  0  0  0
M  END
> <s_m_source_file>
AV-unprocessed.smi

> <i_m_source_file_index>
1430

> <i_lp_mmshare_version>
43012

> <i_f3d_flags>
0

> <s_epik_input>
W0NIM11PYzFbY0hdW2NIXWMoW2NIXW4xKVtOSF1DKD1PKVtOSF1bQ0gyXVtDSDJdTjJbQ0gyXVtDQEBIXShbQ0gzXSlPW0NAQEhdKFtDSDNdKVtDSDJdMg==

> <s_epik_cmdline>
J2VwaWtfcHl0aG9uJywgJy1waCcsICc3LjAnLCAnLXRuJywgJzgnLCAnLW1hJywgJzIwMCcsICctbWV0YWxfYmluZGluZycsICctaW1hZScsICc8aW5maWxlLm1hZT4nLCAnLW9tYWUnLCAnPG91dGZpbGUubWFlPic=

> <r_lp_tautomer_probability>
1

> <r_epik_Ionization_Penalty>
0.266083

> <r_epik_Ionization_Penalty_Charging>
0

> <r_epik_Ionization_Penalty_Neutral>
0.266083

> <r_epik_State_Penalty>
0.257924

> <r_epik_Charging_Adjusted_Penalty>
0.257924

> <i_epik_Tot_Q>
0

> <i_epik_Tot_abs_Q>
0

> <r_epik_Metal_State_Penalty>
0.257922

> <b_epik_Metal_Only>
0

> <s_lp_Force_Field>
OPLS_2005

> <r_lp_Energy>
25.3264

> <b_lp_Chiralities_Consistent>
1

> <s_lp_Variant>
AV-unprocessed.smi:1430-2

> <Gold.Version>
5.8.1

> <Gold.Id.Protein>
6NUR|6NUR_protein|mol2

> <Gold.PLP.Fitness>
40.1294

> <Gold.PLP.PLP>
-32.1347

> <Gold.PLP.part.hbond>
-2.4436

> <Gold.PLP.part.metal>
0.0000

> <Gold.PLP.part.buried>
-7.1125

> <Gold.PLP.part.nonpolar>
-26.0197

> <Gold.PLP.part.repulsive>
2.9696

> <Gold.PLP.ligand.clash>
0.0000

> <Gold.PLP.ligand.torsion>
0.5084

> <Gold.PLP.Chemscore.Hbond>
2.0000

> <Gold.PLP.Chemscore.CHOScore>
1.0000

> <Gold.PLP.Chemscore.Metal>
0.0000

> <Gold.Chemscore.Hbonds>
donor molecule, donor type, donor heavy atom, donor atom, acceptor molecule, acceptor atom, score
      L1  H     7    28       P1 10175  1.00
      L1  H    10    29       P1 10175  1.00
      L1  C    21    46       P1  7948  1.00

> <Gold.PLP.Chemscore.Internal.Correction>
0.0116

> <Gold.Rescore>
     Score         DG    S(hbond)    S(metal)    S(lipo)     H(rot)  DE(clash)    DE(int)     intcor
     13.94     -16.04       1.94        0.00      72.33       1.71       0.45       1.65       ----

> <Gold.Chemscore.Fitness>
13.9428

> <Gold.Chemscore.DG>
-16.0431

> <Gold.Chemscore.ZeroCoef>
-5.4800

> <Gold.Chemscore.Hbond>
1.9401

> <Gold.Chemscore.Metal>
0.0000

> <Gold.Chemscore.Lipo>
72.3302

> <Gold.Chemscore.Internal_Hbond>
0.0000

> <Gold.Chemscore.DEClash>
0.4535

> <Gold.Chemscore.DEInternal>
1.6467

> <Gold.Chemscore.Rot>
1.7107

> <Gold.Chemscore.Internal.Correction>
   9.000000E+99

> <Gold.Chemscore.Hbonds>
donor molecule, donor type, donor heavy atom, donor atom, acceptor molecule, acceptor atom, score
      L1  H     7    28       P1 10175  0.99
      L1  H    10    29       P1 10175  0.96

> <Gold.Chemscore.Hbond.Weighted>
-6.4799

> <Gold.Chemscore.Metal.Weighted>
-0.0000

> <Gold.Chemscore.Lipo.Weighted>
-8.4626

> <Gold.Chemscore.Internal_Hbond.Weighted>
0.0000

> <Gold.Chemscore.DEClash.Weighted>
0.4535

> <Gold.Chemscore.DEInternal.Weighted>
1.6467

> <Gold.Chemscore.Rot.Weighted>
4.3794

> <Gold.Chemscore.Internal.Correction.Weighted>
   9.000000E+99

> <Gold.Protein.RotatedTorsions>
[ 6907 6896 6895 6894 ] final -124.45 input  -60.11 | X-H torsion
[ 7974 7965 7964 7962 ] final -121.77 input  175.53 | X-H torsion
[ 8008 7997 7996 7995 ] final   66.77 input   59.86 | X-H torsion
[ 10167 10162 10161 10158 ] final -102.96 input  -65.29 | X-H torsion
[ 10718 10713 10712 10709 ] final -152.16 input   66.30 | X-H torsion
[ 10763 10752 10751 10750 ] final  -19.00 input  -60.55 | X-H torsion
[ 11005 11000 10999 10996 ] final  -77.21 input  -57.11 | X-H torsion

> <Gold.Protein.ActiveResidues>
 VAL166  LYS551  ARG553  GLY616  TRP617  ASP618  TYR619  PRO620  LYS621  CYS622 
 ASP623  PHE694  ASN695  SER759  ASP760  ASP761  ALA762  ILE779  LEU786  VAL792 
 PHE793  MET794  SER795  GLU796  ALA797  LYS798  CYS799  TRP800  GLU811  SER814 

> <Gold.Protein.RotatedAtoms>
  150.8769  133.7426  159.2943 H   0  0  0  0  0  0  0  0  0  0  0  0  # atno 6907 bound_to 6896
  151.5019  135.1060  159.9841 H   0  0  0  0  0  0  0  0  0  0  0  0  # atno 6908 bound_to 6896
  152.4734  133.8036  159.7021 H   0  0  0  0  0  0  0  0  0  0  0  0  # atno 6909 bound_to 6896
  145.0367  140.8112  143.4291 H   0  0  0  0  0  0  0  0  0  0  0  0  # atno 7974 bound_to 7965
  155.6826  140.3496  155.4861 H   0  0  0  0  0  0  0  0  0  0  0  0  # atno 8008 bound_to 7997
  155.9594  140.1134  157.0931 H   0  0  0  0  0  0  0  0  0  0  0  0  # atno 8009 bound_to 7997
  154.4139  140.1178  156.5144 H   0  0  0  0  0  0  0  0  0  0  0  0  # atno 8010 bound_to 7997
  140.2251  143.3647  152.0936 H   0  0  0  0  0  0  0  0  0  0  0  0  # atno 10167 bound_to 10162
  156.4689  130.8249  151.2478 H   0  0  0  0  0  0  0  0  0  0  0  0  # atno 10718 bound_to 10713
  153.5981  135.7000  153.5396 H   0  0  0  0  0  0  0  0  0  0  0  0  # atno 10763 bound_to 10752
  153.3121  135.4098  155.1344 H   0  0  0  0  0  0  0  0  0  0  0  0  # atno 10764 bound_to 10752
  154.8588  135.3674  154.5515 H   0  0  0  0  0  0  0  0  0  0  0  0  # atno 10765 bound_to 10752
  141.1659  133.7013  156.7785 H   0  0  0  0  0  0  0  0  0  0  0  0  # atno 11005 bound_to 11000
  145.1700  139.2410  143.5347 LP  0  0  0  0  0  0  0  0  0  0  0  0  # atno 17320 bound_to 7965
  146.3505  140.1448  142.8593 LP  0  0  0  0  0  0  0  0  0  0  0  0  # atno 17321 bound_to 7965
  139.5130  144.6926  151.5719 LP  0  0  0  0  0  0  0  0  0  0  0  0  # atno 17342 bound_to 10162
  140.6227  143.9228  150.6539 LP  0  0  0  0  0  0  0  0  0  0  0  0  # atno 17343 bound_to 10162
  157.7493  131.0083  150.3222 LP  0  0  0  0  0  0  0  0  0  0  0  0  # atno 17370 bound_to 10713
  156.3639  130.3852  149.7229 LP  0  0  0  0  0  0  0  0  0  0  0  0  # atno 17371 bound_to 10713
  140.2412  134.8612  157.3575 LP  0  0  0  0  0  0  0  0  0  0  0  0  # atno 17394 bound_to 11000
  140.1794  134.4508  155.7781 LP  0  0  0  0  0  0  0  0  0  0  0  0  # atno 17395 bound_to 11000

$$$$
