AV-unprocessed.smi:467|AV-procd|sdf|2647|dock2
  -GOLD-   2262023 53D 1   1.00000     0.00000
 Structure written by MMmdl.
 45 47  0  0  0  0  0  0  0  0  2 V2000
  152.1736  144.1163  161.1028 C   0  0  0  0  0  0  0  0  0  0  0  0
  152.0235  143.1811  159.9149 C   0  0  0  0  0  0  0  0  0  0  0  0
  151.1081  143.5275  158.8957 C   0  0  0  0  0  0  0  0  0  0  0  0
  150.9896  142.6500  157.8246 C   0  0  0  0  0  0  0  0  0  0  0  0
  150.1860  142.7050  156.6840 N   0  3  0  0  0  0  0  0  0  0  0  0
  150.4144  141.6055  155.9143 C   0  0  0  0  0  0  0  0  0  0  0  0
  151.3536  140.8498  156.5450 N   0  0  0  0  0  0  0  0  0  0  0  0
  151.9457  139.5671  156.1391 C   0  0  0  0  0  0  0  0  0  0  0  0
  150.9130  138.4218  156.0944 C   0  0  2  0  0  0  0  0  0  0  0  0
  149.9909  138.6567  155.0497 O   0  0  0  0  0  0  0  0  0  0  0  0
  150.1124  138.2908  157.4055 C   0  0  0  0  0  0  0  0  0  0  0  0
  149.3487  137.0517  157.5564 N   0  0  0  0  0  0  0  0  0  0  0  0
  149.0221  136.7570  158.9506 C   0  0  0  0  0  0  0  0  0  0  0  0
  148.2507  135.4331  159.0939 C   0  0  0  0  0  0  0  0  0  0  0  0
  149.0019  134.3736  158.5112 O   0  0  0  0  0  0  0  0  0  0  0  0
  149.2953  134.6019  157.1372 C   0  0  0  0  0  0  0  0  0  0  0  0
  150.0759  135.9194  156.9915 C   0  0  0  0  0  0  0  0  0  0  0  0
  151.7439  141.4632  157.7419 C   0  0  0  0  0  0  0  0  0  0  0  0
  152.6526  141.1089  158.7367 C   0  0  0  0  0  0  0  0  0  0  0  0
  152.7865  141.9875  159.8357 C   0  0  0  0  0  0  0  0  0  0  0  0
  153.7676  141.6245  160.9374 C   0  0  0  0  0  0  0  0  0  0  0  0
  151.4877  144.9613  161.0346 H   0  0  0  0  0  0  0  0  0  0  0  0
  153.1882  144.5125  161.1513 H   0  0  0  0  0  0  0  0  0  0  0  0
  151.9611  143.5912  162.0343 H   0  0  0  0  0  0  0  0  0  0  0  0
  150.5237  144.4344  158.9487 H   0  0  0  0  0  0  0  0  0  0  0  0
  149.9356  141.3736  154.9737 H   0  0  0  0  0  0  0  0  0  0  0  0
  152.3742  139.7196  155.1479 H   0  0  0  0  0  0  0  0  0  0  0  0
  152.7816  139.3268  156.7964 H   0  0  0  0  0  0  0  0  0  0  0  0
  151.4162  137.4839  155.8610 H   0  0  0  0  0  0  0  0  0  0  0  0
  150.3468  139.3201  154.4789 H   0  0  0  0  0  0  0  0  0  0  0  0
  150.8150  138.3769  158.2356 H   0  0  0  0  0  0  0  0  0  0  0  0
  149.4352  139.1413  157.5018 H   0  0  0  0  0  0  0  0  0  0  0  0
  149.9374  136.7068  159.5426 H   0  0  0  0  0  0  0  0  0  0  0  0
  148.4167  137.5559  159.3767 H   0  0  0  0  0  0  0  0  0  0  0  0
  148.0746  135.2090  160.1460 H   0  0  0  0  0  0  0  0  0  0  0  0
  147.2738  135.5024  158.6128 H   0  0  0  0  0  0  0  0  0  0  0  0
  149.8840  133.7678  156.7550 H   0  0  0  0  0  0  0  0  0  0  0  0
  148.3699  134.6340  156.5597 H   0  0  0  0  0  0  0  0  0  0  0  0
  150.2802  136.1001  155.9355 H   0  0  0  0  0  0  0  0  0  0  0  0
  151.0448  135.8187  157.4836 H   0  0  0  0  0  0  0  0  0  0  0  0
  153.2312  140.1991  158.6809 H   0  0  0  0  0  0  0  0  0  0  0  0
  154.2882  140.6920  160.7171 H   0  0  0  0  0  0  0  0  0  0  0  0
  153.2469  141.4983  161.8870 H   0  0  0  0  0  0  0  0  0  0  0  0
  154.5193  142.4053  161.0550 H   0  0  0  0  0  0  0  0  0  0  0  0
  149.5282  143.4367  156.4470 H   0  0  0  0  0  0  0  0  0  0  0  0
  1  2  1  0  0  0  0
  1 22  1  0  0  0  0
  1 23  1  0  0  0  0
  1 24  1  0  0  0  0
  2 20  1  0  0  0  0
  2  3  2  0  0  0  0
  3  4  1  0  0  0  0
  3 25  1  0  0  0  0
  4 18  2  0  0  0  0
  4  5  1  0  0  0  0
  5  6  2  0  0  0  0
  5 45  1  0  0  0  0
  6  7  1  0  0  0  0
  6 26  1  0  0  0  0
  7  8  1  0  0  0  0
  7 18  1  0  0  0  0
  8  9  1  0  0  0  0
  8 27  1  0  0  0  0
  8 28  1  0  0  0  0
  9 10  1  0  0  0  0
  9 11  1  0  0  0  0
  9 29  1  0  0  0  0
 10 30  1  0  0  0  0
 11 12  1  0  0  0  0
 11 31  1  0  0  0  0
 11 32  1  0  0  0  0
 12 17  1  0  0  0  0
 12 13  1  0  0  0  0
 13 14  1  0  0  0  0
 13 33  1  0  0  0  0
 13 34  1  0  0  0  0
 14 15  1  0  0  0  0
 14 35  1  0  0  0  0
 14 36  1  0  0  0  0
 15 16  1  0  0  0  0
 16 17  1  0  0  0  0
 16 37  1  0  0  0  0
 16 38  1  0  0  0  0
 17 39  1  0  0  0  0
 17 40  1  0  0  0  0
 18 19  1  0  0  0  0
 19 20  2  0  0  0  0
 19 41  1  0  0  0  0
 20 21  1  0  0  0  0
 21 42  1  0  0  0  0
 21 43  1  0  0  0  0
 21 44  1  0  0  0  0
M  CHG  1   5   1
M  END
> <s_m_source_file>
AV-unprocessed.smi

> <i_m_source_file_index>
467

> <i_lp_mmshare_version>
43012

> <i_f3d_flags>
0

> <s_epik_input>
W0NIM11jKFtjSF0xKWMoW0NIM10pW2NIXWMoYzEyKW4oW2NIXW4yKVtDSDJdW0NASF0oW09IXSlbQ0gyXU4zW0NIMl1bQ0gyXU9bQ0gyXVtDSDJdMw==

> <s_epik_cmdline>
J2VwaWtfcHl0aG9uJywgJy1waCcsICc3LjAnLCAnLXRuJywgJzgnLCAnLW1hJywgJzIwMCcsICctbWV0YWxfYmluZGluZycsICctaW1hZScsICc8aW5maWxlLm1hZT4nLCAnLW9tYWUnLCAnPG91dGZpbGUubWFlPic=

> <r_epik_Ionization_Penalty>
1.42557

> <r_epik_Ionization_Penalty_Charging>
1.21121

> <r_epik_Ionization_Penalty_Neutral>
0.214359

> <r_epik_State_Penalty>
1.47019

> <r_epik_Charging_Adjusted_Penalty>
2.68141

> <i_epik_Tot_Q>
1

> <i_epik_Tot_abs_Q>
1

> <r_epik_Metal_State_Penalty>
5.48819

> <b_epik_Metal_Only>
0

> <s_lp_Force_Field>
OPLS_2005

> <r_lp_Energy>
33.4521

> <b_lp_Chiralities_Consistent>
1

> <s_lp_Variant>
AV-unprocessed.smi:467-5

> <Gold.Version>
5.8.1

> <Gold.Id.Protein>
6NUR|6NUR_protein|mol2

> <Gold.PLP.Fitness>
46.5771

> <Gold.PLP.PLP>
-38.2951

> <Gold.PLP.part.hbond>
-2.0000

> <Gold.PLP.part.metal>
0.0000

> <Gold.PLP.part.buried>
-6.0174

> <Gold.PLP.part.nonpolar>
-30.7177

> <Gold.PLP.part.repulsive>
0.0540

> <Gold.PLP.ligand.clash>
0.0000

> <Gold.PLP.ligand.torsion>
0.3616

> <Gold.PLP.Chemscore.Hbond>
3.0000

> <Gold.PLP.Chemscore.CHOScore>
0.0000

> <Gold.PLP.Chemscore.Metal>
0.0000

> <Gold.Chemscore.Hbonds>
donor molecule, donor type, donor heavy atom, donor atom, acceptor molecule, acceptor atom, score
      L1  H     5    45       P1  8028  2.00
      P1  H  6896  6909       L1    15  1.00

> <Gold.PLP.Chemscore.Internal.Correction>
0.0052

> <Gold.Rescore>
     Score         DG    S(hbond)    S(metal)    S(lipo)     H(rot)  DE(clash)    DE(int)     intcor
     17.74     -18.24       1.75        0.00     104.68       2.08       0.00       0.50       ----

> <Gold.Chemscore.Fitness>
17.7446

> <Gold.Chemscore.DG>
-18.2423

> <Gold.Chemscore.ZeroCoef>
-5.4800

> <Gold.Chemscore.Hbond>
1.7492

> <Gold.Chemscore.Metal>
0.0000

> <Gold.Chemscore.Lipo>
104.6802

> <Gold.Chemscore.Internal_Hbond>
0.0000

> <Gold.Chemscore.DEClash>
0.0000

> <Gold.Chemscore.DEInternal>
0.4977

> <Gold.Chemscore.Rot>
2.0811

> <Gold.Chemscore.Internal.Correction>
   9.000000E+99

> <Gold.Chemscore.Hbonds>
donor molecule, donor type, donor heavy atom, donor atom, acceptor molecule, acceptor atom, score
      L1  H     5    45       P1  8028  0.99
      P1  H  6896  6909       L1    15  0.46

> <Gold.Chemscore.Hbond.Weighted>
-5.8423

> <Gold.Chemscore.Metal.Weighted>
-0.0000

> <Gold.Chemscore.Lipo.Weighted>
-12.2476

> <Gold.Chemscore.Internal_Hbond.Weighted>
0.0000

> <Gold.Chemscore.DEClash.Weighted>
0.0000

> <Gold.Chemscore.DEInternal.Weighted>
0.4977

> <Gold.Chemscore.Rot.Weighted>
5.3275

> <Gold.Chemscore.Internal.Correction.Weighted>
   9.000000E+99

> <Gold.Protein.RotatedTorsions>
[ 6907 6896 6895 6894 ] final   10.85 input  -60.11 | X-H torsion
[ 7974 7965 7964 7962 ] final   31.89 input  175.53 | X-H torsion
[ 8008 7997 7996 7995 ] final  -78.87 input   59.86 | X-H torsion
[ 10167 10162 10161 10158 ] final  -65.41 input  -65.29 | X-H torsion
[ 10718 10713 10712 10709 ] final  -45.26 input   66.30 | X-H torsion
[ 10763 10752 10751 10750 ] final  -45.80 input  -60.55 | X-H torsion
[ 11005 11000 10999 10996 ] final -160.25 input  -57.11 | X-H torsion

> <Gold.Protein.ActiveResidues>
 VAL166  LYS551  ARG553  GLY616  TRP617  ASP618  TYR619  PRO620  LYS621  CYS622 
 ASP623  PHE694  ASN695  SER759  ASP760  ASP761  ALA762  ILE779  LEU786  VAL792 
 PHE793  MET794  SER795  GLU796  ALA797  LYS798  CYS799  TRP800  GLU811  SER814 

> <Gold.Protein.RotatedAtoms>
  151.7449  135.0846  160.0321 H   0  0  0  0  0  0  0  0  0  0  0  0  # atno 6907 bound_to 6896
  152.3455  133.6113  159.5915 H   0  0  0  0  0  0  0  0  0  0  0  0  # atno 6908 bound_to 6896
  150.7506  133.9572  159.3546 H   0  0  0  0  0  0  0  0  0  0  0  0  # atno 6909 bound_to 6896
  146.1521  139.6598  142.9091 H   0  0  0  0  0  0  0  0  0  0  0  0  # atno 7974 bound_to 7965
  154.5731  140.0687  156.8994 H   0  0  0  0  0  0  0  0  0  0  0  0  # atno 8008 bound_to 7997
  155.2598  140.3357  155.4256 H   0  0  0  0  0  0  0  0  0  0  0  0  # atno 8009 bound_to 7997
  156.2133  140.1768  156.7631 H   0  0  0  0  0  0  0  0  0  0  0  0  # atno 8010 bound_to 7997
  140.5732  143.2319  151.6496 H   0  0  0  0  0  0  0  0  0  0  0  0  # atno 10167 bound_to 10162
  156.2301  130.4172  149.8885 H   0  0  0  0  0  0  0  0  0  0  0  0  # atno 10718 bound_to 10713
  154.0345  135.6652  153.4784 H   0  0  0  0  0  0  0  0  0  0  0  0  # atno 10763 bound_to 10752
  153.0527  135.5075  154.7901 H   0  0  0  0  0  0  0  0  0  0  0  0  # atno 10764 bound_to 10752
  154.6857  135.3052  154.9516 H   0  0  0  0  0  0  0  0  0  0  0  0  # atno 10765 bound_to 10752
  140.6336  134.4625  157.5230 H   0  0  0  0  0  0  0  0  0  0  0  0  # atno 11005 bound_to 11000
  145.4797  141.0437  143.2653 LP  0  0  0  0  0  0  0  0  0  0  0  0  # atno 17320 bound_to 7965
  144.7917  139.6314  143.7110 LP  0  0  0  0  0  0  0  0  0  0  0  0  # atno 17321 bound_to 7965
  139.5128  144.3463  152.0694 LP  0  0  0  0  0  0  0  0  0  0  0  0  # atno 17342 bound_to 10162
  140.2603  144.4074  150.6188 LP  0  0  0  0  0  0  0  0  0  0  0  0  # atno 17343 bound_to 10162
  156.6502  130.8740  151.3530 LP  0  0  0  0  0  0  0  0  0  0  0  0  # atno 17370 bound_to 10713
  157.7129  130.9462  150.1152 LP  0  0  0  0  0  0  0  0  0  0  0  0  # atno 17371 bound_to 10713
  139.9106  134.8352  156.1541 LP  0  0  0  0  0  0  0  0  0  0  0  0  # atno 17394 bound_to 11000
  141.0657  133.6820  156.2040 LP  0  0  0  0  0  0  0  0  0  0  0  0  # atno 17395 bound_to 11000

$$$$
