AV-unprocessed.smi:183|AV-procd|sdf|1458|dock1
  -GOLD-   2262019263D 1   1.00000     0.00000
 Structure written by MMmdl.
 55 57  0  0  0  0  0  0  0  0  1 V2000
  147.6721  136.2421  163.0407 C   0  0  0  0  0  0  0  0  0  0  0  0
  147.5786  136.1674  161.5207 C   0  0  0  0  0  0  0  0  0  0  0  0
  147.7749  137.1749  160.8408 O   0  0  0  0  0  0  0  0  0  0  0  0
  147.2817  134.9650  161.0018 N   0  0  0  0  0  0  0  0  0  0  0  0
  147.1625  134.6868  159.5757 C   0  0  0  0  0  0  0  0  0  0  0  0
  147.9027  133.3870  159.1905 C   0  0  0  0  0  0  0  0  0  0  0  0
  147.1078  132.4793  158.3562 N   0  0  0  0  0  0  0  0  0  0  0  0
  147.6661  132.3469  157.1263 C   0  0  0  0  0  0  0  0  0  0  0  0
  148.9564  131.9282  157.0788 N   0  0  0  0  0  0  0  0  0  0  0  0
  149.5920  131.8384  155.9073 C   0  0  0  0  0  0  0  0  0  0  0  0
  149.1373  132.1287  154.6874 N   0  0  0  0  0  0  0  0  0  0  0  0
  147.8424  132.5545  154.7300 C   0  0  0  0  0  0  0  0  0  0  0  0
  147.0312  132.6765  155.8932 C   0  0  0  0  0  0  0  0  0  0  0  0
  145.7668  133.1329  155.5378 N   0  0  0  0  0  0  0  0  0  0  0  0
  145.8318  133.2839  154.2441 C   0  0  0  0  0  0  0  0  0  0  0  0
  147.0518  132.9881  153.6805 N   0  0  0  0  0  0  0  0  0  0  0  0
  147.4126  133.1005  152.2768 C   0  0  0  0  0  0  0  0  0  0  0  0
  146.3133  132.6345  151.2858 C   0  0  2  0  0  0  0  0  0  0  0  0
  146.9682  132.4048  150.0498 O   0  0  0  0  0  0  0  0  0  0  0  0
  145.1781  133.6242  151.0610 C   0  0  0  0  0  0  0  0  0  0  0  0
  144.0780  132.7491  150.4685 C   0  0  0  0  0  0  0  0  0  0  0  0
  144.2600  131.4585  151.0419 O   0  0  0  0  0  0  0  0  0  0  0  0
  145.5187  131.3792  151.7073 C   0  0  1  0  0  0  0  0  0  0  0  0
  146.1971  130.0233  151.4592 C   0  0  0  0  0  0  0  0  0  0  0  0
  145.6391  132.4776  158.4617 C   0  0  0  0  0  0  0  0  0  0  0  0
  145.1737  132.3743  159.9263 C   0  0  0  0  0  0  0  0  0  0  0  0
  144.9917  131.3300  157.6559 C   0  0  0  0  0  0  0  0  0  0  0  0
  148.4592  135.5823  163.4065 H   0  0  0  0  0  0  0  0  0  0  0  0
  146.7283  135.9416  163.4961 H   0  0  0  0  0  0  0  0  0  0  0  0
  147.9002  137.2580  163.3651 H   0  0  0  0  0  0  0  0  0  0  0  0
  147.1362  134.1924  161.6356 H   0  0  0  0  0  0  0  0  0  0  0  0
  146.1072  134.6038  159.3160 H   0  0  0  0  0  0  0  0  0  0  0  0
  147.5348  135.5477  159.0217 H   0  0  0  0  0  0  0  0  0  0  0  0
  148.8272  133.6318  158.6647 H   0  0  0  0  0  0  0  0  0  0  0  0
  148.2335  132.8673  160.0894 H   0  0  0  0  0  0  0  0  0  0  0  0
  150.6155  131.4977  155.9560 H   0  0  0  0  0  0  0  0  0  0  0  0
  144.9928  133.6397  153.6641 H   0  0  0  0  0  0  0  0  0  0  0  0
  147.6757  134.1405  152.0785 H   0  0  0  0  0  0  0  0  0  0  0  0
  148.3249  132.5232  152.1191 H   0  0  0  0  0  0  0  0  0  0  0  0
  147.8293  132.0594  150.2296 H   0  0  0  0  0  0  0  0  0  0  0  0
  144.8189  134.0268  152.0072 H   0  0  0  0  0  0  0  0  0  0  0  0
  145.4489  134.4660  150.4227 H   0  0  0  0  0  0  0  0  0  0  0  0
  143.0807  133.1390  150.6736 H   0  0  0  0  0  0  0  0  0  0  0  0
  144.1939  132.6690  149.3871 H   0  0  0  0  0  0  0  0  0  0  0  0
  145.2725  131.4479  152.7658 H   0  0  0  0  0  0  0  0  0  0  0  0
  147.1608  129.9695  151.9661 H   0  0  0  0  0  0  0  0  0  0  0  0
  146.3633  129.8424  150.3971 H   0  0  0  0  0  0  0  0  0  0  0  0
  145.5788  129.2087  151.8363 H   0  0  0  0  0  0  0  0  0  0  0  0
  145.2664  133.4231  158.0683 H   0  0  0  0  0  0  0  0  0  0  0  0
  144.0861  132.3295  159.9889 H   0  0  0  0  0  0  0  0  0  0  0  0
  145.4847  133.2374  160.5144 H   0  0  0  0  0  0  0  0  0  0  0  0
  145.5696  131.4785  160.4060 H   0  0  0  0  0  0  0  0  0  0  0  0
  143.9084  131.3310  157.7786 H   0  0  0  0  0  0  0  0  0  0  0  0
  145.3595  130.3587  157.9882 H   0  0  0  0  0  0  0  0  0  0  0  0
  145.1831  131.4082  156.5863 H   0  0  0  0  0  0  0  0  0  0  0  0
  1  2  1  0  0  0  0
  1 28  1  0  0  0  0
  1 29  1  0  0  0  0
  1 30  1  0  0  0  0
  2  3  2  0  0  0  0
  2  4  1  0  0  0  0
  4  5  1  0  0  0  0
  4 31  1  0  0  0  0
  5  6  1  0  0  0  0
  5 32  1  0  0  0  0
  5 33  1  0  0  0  0
  6  7  1  0  0  0  0
  6 34  1  0  0  0  0
  6 35  1  0  0  0  0
  7  8  1  0  0  0  0
  7 25  1  0  0  0  0
  8 13  1  0  0  0  0
  8  9  2  0  0  0  0
  9 10  1  0  0  0  0
 10 11  2  0  0  0  0
 10 36  1  0  0  0  0
 11 12  1  0  0  0  0
 12 16  1  0  0  0  0
 12 13  2  0  0  0  0
 13 14  1  0  0  0  0
 14 15  2  0  0  0  0
 15 16  1  0  0  0  0
 15 37  1  0  0  0  0
 16 17  1  0  0  0  0
 17 18  1  0  0  0  0
 17 38  1  0  0  0  0
 17 39  1  0  0  0  0
 18 23  1  0  0  0  0
 18 19  1  0  0  0  0
 18 20  1  0  0  0  0
 19 40  1  0  0  0  0
 20 21  1  0  0  0  0
 20 41  1  0  0  0  0
 20 42  1  0  0  0  0
 21 22  1  0  0  0  0
 21 43  1  0  0  0  0
 21 44  1  0  0  0  0
 22 23  1  0  0  0  0
 23 24  1  0  0  0  0
 23 45  1  0  0  0  0
 24 46  1  0  0  0  0
 24 47  1  0  0  0  0
 24 48  1  0  0  0  0
 25 26  1  0  0  0  0
 25 27  1  0  0  0  0
 25 49  1  0  0  0  0
 26 50  1  0  0  0  0
 26 51  1  0  0  0  0
 26 52  1  0  0  0  0
 27 53  1  0  0  0  0
 27 54  1  0  0  0  0
 27 55  1  0  0  0  0
M  END
> <s_m_source_file>
AV-unprocessed.smi

> <i_m_source_file_index>
183

> <i_lp_mmshare_version>
43012

> <i_f3d_flags>
0

> <s_epik_input>
W0NIM11DKD1PKVtOSF1bQ0gyXVtDSDJdTihbQ0hdKFtDSDNdKVtDSDNdKWMobltjSF1uMSljKGMxMiluW2NIXW4yW0NIMl1bQ0BAXTMoW09IXSlbQ0gyXVtDSDJdT1tDQEhdM1tDSDNd

> <s_epik_cmdline>
J2VwaWtfcHl0aG9uJywgJy1waCcsICc3LjAnLCAnLXRuJywgJzgnLCAnLW1hJywgJzIwMCcsICctbWV0YWxfYmluZGluZycsICctaW1hZScsICc8aW5maWxlLm1hZT4nLCAnLW9tYWUnLCAnPG91dGZpbGUubWFlPic=

> <r_lp_tautomer_probability>
1

> <r_epik_Ionization_Penalty>
0.00156158

> <r_epik_Ionization_Penalty_Charging>
0

> <r_epik_Ionization_Penalty_Neutral>
0.00156158

> <r_epik_State_Penalty>
0.000865808

> <r_epik_Charging_Adjusted_Penalty>
0.000865808

> <i_epik_Tot_Q>
0

> <i_epik_Tot_abs_Q>
0

> <r_epik_Metal_State_Penalty>
-0

> <b_epik_Metal_Only>
0

> <s_lp_Force_Field>
OPLS_2005

> <r_lp_Energy>
32.608

> <b_lp_Chiralities_Consistent>
1

> <s_lp_Variant>
AV-unprocessed.smi:183-2

> <Gold.Version>
5.8.1

> <Gold.Id.Protein>
6NUR|6NUR_protein|mol2

> <Gold.PLP.Fitness>
39.1332

> <Gold.PLP.PLP>
-33.6463

> <Gold.PLP.part.hbond>
-3.1030

> <Gold.PLP.part.metal>
0.0000

> <Gold.PLP.part.buried>
-6.2758

> <Gold.PLP.part.nonpolar>
-25.3407

> <Gold.PLP.part.repulsive>
0.3355

> <Gold.PLP.ligand.clash>
0.0000

> <Gold.PLP.ligand.torsion>
1.9506

> <Gold.PLP.Chemscore.Hbond>
2.7280

> <Gold.PLP.Chemscore.CHOScore>
0.0000

> <Gold.PLP.Chemscore.Metal>
0.0000

> <Gold.Chemscore.Hbonds>
donor molecule, donor type, donor heavy atom, donor atom, acceptor molecule, acceptor atom, score
      L1  H    19    40       P1 10747  1.00
      P1  H  6931  6943       L1     3  0.86
      P1  H  6934  6947       L1     3  0.86

> <Gold.PLP.Chemscore.Internal.Correction>
1.2042

> <Gold.Rescore>
     Score         DG    S(hbond)    S(metal)    S(lipo)     H(rot)  DE(clash)    DE(int)     intcor
      7.92     -13.46       2.64        0.00      68.23       3.45       0.15       5.40       ----

> <Gold.Chemscore.Fitness>
7.9160

> <Gold.Chemscore.DG>
-13.4644

> <Gold.Chemscore.ZeroCoef>
-5.4800

> <Gold.Chemscore.Hbond>
2.6410

> <Gold.Chemscore.Metal>
0.0000

> <Gold.Chemscore.Lipo>
68.2289

> <Gold.Chemscore.Internal_Hbond>
0.0000

> <Gold.Chemscore.DEClash>
0.1461

> <Gold.Chemscore.DEInternal>
5.4023

> <Gold.Chemscore.Rot>
3.4451

> <Gold.Chemscore.Internal.Correction>
   9.000000E+99

> <Gold.Chemscore.Hbonds>
donor molecule, donor type, donor heavy atom, donor atom, acceptor molecule, acceptor atom, score
      L1  H    19    40       P1 10747  0.97
      P1  H  6931  6943       L1     3  0.42
      P1  H  6934  6947       L1     3  0.86

> <Gold.Chemscore.Hbond.Weighted>
-8.8211

> <Gold.Chemscore.Metal.Weighted>
-0.0000

> <Gold.Chemscore.Lipo.Weighted>
-7.9828

> <Gold.Chemscore.Internal_Hbond.Weighted>
0.0000

> <Gold.Chemscore.DEClash.Weighted>
0.1461

> <Gold.Chemscore.DEInternal.Weighted>
5.4023

> <Gold.Chemscore.Rot.Weighted>
8.8194

> <Gold.Chemscore.Internal.Correction.Weighted>
   9.000000E+99

> <Gold.Protein.RotatedTorsions>
[ 6907 6896 6895 6894 ] final  104.13 input  -60.11 | X-H torsion
[ 7974 7965 7964 7962 ] final  114.18 input  175.53 | X-H torsion
[ 8008 7997 7996 7995 ] final   79.45 input   59.86 | X-H torsion
[ 10167 10162 10161 10158 ] final  -35.04 input  -65.29 | X-H torsion
[ 10718 10713 10712 10709 ] final  111.09 input   66.30 | X-H torsion
[ 10763 10752 10751 10750 ] final  106.25 input  -60.55 | X-H torsion
[ 11005 11000 10999 10996 ] final   62.27 input  -57.11 | X-H torsion

> <Gold.Protein.ActiveResidues>
 VAL166  LYS551  ARG553  GLY616  TRP617  ASP618  TYR619  PRO620  LYS621  CYS622 
 ASP623  PHE694  ASN695  SER759  ASP760  ASP761  ALA762  ILE779  LEU786  VAL792 
 PHE793  MET794  SER795  GLU796  ALA797  LYS798  CYS799  TRP800  GLU811  SER814 

> <Gold.Protein.RotatedAtoms>
  152.5274  133.9722  159.7767 H   0  0  0  0  0  0  0  0  0  0  0  0  # atno 6907 bound_to 6896
  150.9992  133.6065  159.2704 H   0  0  0  0  0  0  0  0  0  0  0  0  # atno 6908 bound_to 6896
  151.3180  135.0817  159.9349 H   0  0  0  0  0  0  0  0  0  0  0  0  # atno 6909 bound_to 6896
  145.2077  139.2921  143.4285 H   0  0  0  0  0  0  0  0  0  0  0  0  # atno 7974 bound_to 7965
  155.8699  140.3449  155.5814 H   0  0  0  0  0  0  0  0  0  0  0  0  # atno 8008 bound_to 7997
  155.7839  140.0862  157.2064 H   0  0  0  0  0  0  0  0  0  0  0  0  # atno 8009 bound_to 7997
  154.4017  140.1495  156.3071 H   0  0  0  0  0  0  0  0  0  0  0  0  # atno 8010 bound_to 7997
  140.7173  143.3505  151.2165 H   0  0  0  0  0  0  0  0  0  0  0  0  # atno 10167 bound_to 10162
  157.6462  131.0944  150.6698 H   0  0  0  0  0  0  0  0  0  0  0  0  # atno 10718 bound_to 10713
  153.3903  135.3883  155.1919 H   0  0  0  0  0  0  0  0  0  0  0  0  # atno 10763 bound_to 10752
  154.8718  135.3747  154.4745 H   0  0  0  0  0  0  0  0  0  0  0  0  # atno 10764 bound_to 10752
  153.5231  135.7086  153.5782 H   0  0  0  0  0  0  0  0  0  0  0  0  # atno 10765 bound_to 10752
  140.0103  134.6306  155.9790 H   0  0  0  0  0  0  0  0  0  0  0  0  # atno 11005 bound_to 11000
  146.3404  140.2342  142.8594 LP  0  0  0  0  0  0  0  0  0  0  0  0  # atno 17320 bound_to 7965
  144.9886  140.8526  143.5353 LP  0  0  0  0  0  0  0  0  0  0  0  0  # atno 17321 bound_to 7965
  139.7035  143.9494  152.2916 LP  0  0  0  0  0  0  0  0  0  0  0  0  # atno 17342 bound_to 10162
  139.9195  144.6808  150.8477 LP  0  0  0  0  0  0  0  0  0  0  0  0  # atno 17343 bound_to 10162
  156.7015  130.4624  149.5572 LP  0  0  0  0  0  0  0  0  0  0  0  0  # atno 17370 bound_to 10713
  156.1792  130.6488  151.0931 LP  0  0  0  0  0  0  0  0  0  0  0  0  # atno 17371 bound_to 10713
  141.1706  133.6537  156.4639 LP  0  0  0  0  0  0  0  0  0  0  0  0  # atno 17394 bound_to 11000
  140.4566  134.6880  157.5065 LP  0  0  0  0  0  0  0  0  0  0  0  0  # atno 17395 bound_to 11000

$$$$
