AV-unprocessed.smi:193|AV-procd|sdf|1506|dock4
  -GOLD-   2262019333D 1   1.00000     0.00000
 Structure written by MMmdl.
 62 66  0  0  0  0  0  0  0  0  2 V2000
  144.5114  132.4418  149.9739 C   0  0  0  0  0  0  0  0  0  0  0  0
  145.2474  131.8212  151.1712 C   0  0  2  0  0  0  0  0  0  0  0  0
  146.3423  132.7711  151.6956 C   0  0  0  0  0  0  0  0  0  0  0  0
  146.5746  132.5912  153.1281 N   0  0  0  0  0  0  0  0  0  0  0  0
  147.0585  133.7061  153.7136 C   0  0  0  0  0  0  0  0  0  0  0  0
  146.2877  134.8197  153.6716 N   0  0  0  0  0  0  0  0  0  0  0  0
  146.7259  135.9528  154.2296 C   0  0  0  0  0  0  0  0  0  0  0  0
  147.8786  136.1801  154.8641 N   0  0  0  0  0  0  0  0  0  0  0  0
  148.6535  135.0581  154.9065 C   0  0  0  0  0  0  0  0  0  0  0  0
  148.3238  133.7878  154.3583 C   0  0  0  0  0  0  0  0  0  0  0  0
  149.3555  132.8858  154.5880 N   0  0  0  0  0  0  0  0  0  0  0  0
  150.2438  133.5833  155.2427 C   0  0  0  0  0  0  0  0  0  0  0  0
  149.9015  134.8955  155.4818 N   0  0  0  0  0  0  0  0  0  0  0  0
  150.6995  135.8885  156.1844 C   0  0  0  0  0  0  0  0  0  0  0  0
  151.1702  137.0626  155.2908 C   0  0  0  0  0  0  0  0  0  0  0  0
  151.6965  136.5108  154.0957 O   0  0  0  0  0  0  0  0  0  0  0  0
  149.9778  137.9689  154.9246 C   0  0  0  0  0  0  0  0  0  0  0  0
  150.4215  139.2429  154.1838 C   0  0  0  0  0  0  0  0  0  0  0  0
  151.3841  139.9457  154.9598 O   0  0  0  0  0  0  0  0  0  0  0  0
  152.5762  139.1975  155.1655 C   0  0  0  0  0  0  0  0  0  0  0  0
  152.2688  137.9167  155.9612 C   0  0  0  0  0  0  0  0  0  0  0  0
  147.2289  131.3781  153.6124 C   0  0  0  0  0  0  0  0  0  0  0  0
  146.5532  130.0825  153.1385 C   0  0  0  0  0  0  0  0  0  0  0  0
  146.8190  129.8697  151.6957 N   0  3  1  0  0  0  0  0  0  0  0  0
  147.1480  128.4632  151.3660 C   0  0  2  0  0  0  0  0  0  0  0  0
  146.9393  127.5007  152.5141 C   0  0  0  0  0  0  0  0  0  0  0  0
  148.3435  127.8898  152.1077 C   0  0  2  0  0  0  0  0  0  0  0  0
  149.2118  128.6953  153.0574 C   0  0  0  0  0  0  0  0  0  0  0  0
  145.7744  130.4174  150.7920 C   0  0  0  0  0  0  0  0  0  0  0  0
  145.1870  132.6113  149.1348 H   0  0  0  0  0  0  0  0  0  0  0  0
  144.0654  133.4010  150.2392 H   0  0  0  0  0  0  0  0  0  0  0  0
  143.7062  131.7929  149.6285 H   0  0  0  0  0  0  0  0  0  0  0  0
  144.4998  131.7086  151.9582 H   0  0  0  0  0  0  0  0  0  0  0  0
  147.2712  132.6370  151.1394 H   0  0  0  0  0  0  0  0  0  0  0  0
  146.0291  133.8029  151.5241 H   0  0  0  0  0  0  0  0  0  0  0  0
  146.0577  136.7984  154.1576 H   0  0  0  0  0  0  0  0  0  0  0  0
  151.1792  133.1574  155.5762 H   0  0  0  0  0  0  0  0  0  0  0  0
  150.1135  136.2634  157.0249 H   0  0  0  0  0  0  0  0  0  0  0  0
  151.5617  135.3821  156.6201 H   0  0  0  0  0  0  0  0  0  0  0  0
  151.1179  136.7341  153.3826 H   0  0  0  0  0  0  0  0  0  0  0  0
  149.2495  137.4210  154.3248 H   0  0  0  0  0  0  0  0  0  0  0  0
  149.4588  138.2661  155.8369 H   0  0  0  0  0  0  0  0  0  0  0  0
  150.8311  139.0055  153.2010 H   0  0  0  0  0  0  0  0  0  0  0  0
  149.5632  139.8941  154.0182 H   0  0  0  0  0  0  0  0  0  0  0  0
  153.0416  138.9628  154.2072 H   0  0  0  0  0  0  0  0  0  0  0  0
  153.2857  139.8150  155.7166 H   0  0  0  0  0  0  0  0  0  0  0  0
  151.9396  138.2025  156.9610 H   0  0  0  0  0  0  0  0  0  0  0  0
  153.1852  137.3402  156.0936 H   0  0  0  0  0  0  0  0  0  0  0  0
  148.2788  131.3746  153.3163 H   0  0  0  0  0  0  0  0  0  0  0  0
  147.2166  131.3964  154.7035 H   0  0  0  0  0  0  0  0  0  0  0  0
  146.9858  129.2622  153.7125 H   0  0  0  0  0  0  0  0  0  0  0  0
  145.4853  130.0670  153.3610 H   0  0  0  0  0  0  0  0  0  0  0  0
  146.9176  128.1462  150.3504 H   0  0  0  0  0  0  0  0  0  0  0  0
  146.5555  127.8962  153.4532 H   0  0  0  0  0  0  0  0  0  0  0  0
  146.6147  126.4910  152.2709 H   0  0  0  0  0  0  0  0  0  0  0  0
  148.9035  127.1324  151.5624 H   0  0  0  0  0  0  0  0  0  0  0  0
  148.6173  129.3909  153.6506 H   0  0  0  0  0  0  0  0  0  0  0  0
  149.9582  129.2594  152.4981 H   0  0  0  0  0  0  0  0  0  0  0  0
  149.7321  128.0247  153.7416 H   0  0  0  0  0  0  0  0  0  0  0  0
  144.9323  129.7246  150.7520 H   0  0  0  0  0  0  0  0  0  0  0  0
  146.1932  130.4449  149.7860 H   0  0  0  0  0  0  0  0  0  0  0  0
  147.6605  130.3946  151.5037 H   0  0  0  0  0  0  0  0  0  0  0  0
  1  2  1  0  0  0  0
  1 30  1  0  0  0  0
  1 31  1  0  0  0  0
  1 32  1  0  0  0  0
  2 29  1  0  0  0  0
  2  3  1  0  0  0  0
  2 33  1  0  0  0  0
  3  4  1  0  0  0  0
  3 34  1  0  0  0  0
  3 35  1  0  0  0  0
  4  5  1  0  0  0  0
  4 22  1  0  0  0  0
  5 10  1  0  0  0  0
  5  6  2  0  0  0  0
  6  7  1  0  0  0  0
  7  8  2  0  0  0  0
  7 36  1  0  0  0  0
  8  9  1  0  0  0  0
  9 13  1  0  0  0  0
  9 10  2  0  0  0  0
 10 11  1  0  0  0  0
 11 12  2  0  0  0  0
 12 13  1  0  0  0  0
 12 37  1  0  0  0  0
 13 14  1  0  0  0  0
 14 15  1  0  0  0  0
 14 38  1  0  0  0  0
 14 39  1  0  0  0  0
 15 21  1  0  0  0  0
 15 16  1  0  0  0  0
 15 17  1  0  0  0  0
 16 40  1  0  0  0  0
 17 18  1  0  0  0  0
 17 41  1  0  0  0  0
 17 42  1  0  0  0  0
 18 19  1  0  0  0  0
 18 43  1  0  0  0  0
 18 44  1  0  0  0  0
 19 20  1  0  0  0  0
 20 21  1  0  0  0  0
 20 45  1  0  0  0  0
 20 46  1  0  0  0  0
 21 47  1  0  0  0  0
 21 48  1  0  0  0  0
 22 23  1  0  0  0  0
 22 49  1  0  0  0  0
 22 50  1  0  0  0  0
 23 24  1  0  0  0  0
 23 51  1  0  0  0  0
 23 52  1  0  0  0  0
 24 25  1  0  0  0  0
 24 29  1  0  0  0  0
 24 62  1  0  0  0  0
 25 27  1  0  0  0  0
 25 26  1  0  0  0  0
 25 53  1  0  0  0  0
 26 27  1  0  0  0  0
 26 54  1  0  0  0  0
 26 55  1  0  0  0  0
 27 28  1  0  0  0  0
 27 56  1  0  0  0  0
 28 57  1  0  0  0  0
 28 58  1  0  0  0  0
 28 59  1  0  0  0  0
 29 60  1  0  0  0  0
 29 61  1  0  0  0  0
M  CHG  1  24   1
M  END
> <s_m_source_file>
AV-unprocessed.smi

> <i_m_source_file_index>
193

> <i_lp_mmshare_version>
43012

> <i_f3d_flags>
0

> <s_epik_input>
W0NIM11bQ0BASF0xW0NIMl1bQ0BIXTFOKFtDSDJdMilbQ0gyXVtDSDJdTihbQ0gyXVtDQEhdMltDSDNdKWMobltjSF1uMyljKGMzNCluW2NIXW40W0NIMl1DNShbT0hdKVtDSDJdW0NIMl1PW0NIMl1bQ0gyXTU=

> <s_epik_cmdline>
J2VwaWtfcHl0aG9uJywgJy1waCcsICc3LjAnLCAnLXRuJywgJzgnLCAnLW1hJywgJzIwMCcsICctbWV0YWxfYmluZGluZycsICctaW1hZScsICc8aW5maWxlLm1hZT4nLCAnLW9tYWUnLCAnPG91dGZpbGUubWFlPic=

> <r_lp_tautomer_probability>
1

> <r_epik_Ionization_Penalty>
0.0540825

> <r_epik_Ionization_Penalty_Charging>
0.0538476

> <r_epik_Ionization_Penalty_Neutral>
0.000234891

> <r_epik_State_Penalty>
0.0200719

> <r_epik_Charging_Adjusted_Penalty>
0.0739194

> <i_epik_Tot_Q>
1

> <i_epik_Tot_abs_Q>
1

> <r_epik_Metal_State_Penalty>
0.0199414

> <b_epik_Metal_Only>
0

> <s_lp_Force_Field>
OPLS_2005

> <r_lp_Energy>
59.2238

> <b_lp_Chiralities_Consistent>
1

> <s_lp_Variant>
AV-unprocessed.smi:193-11

> <Gold.Version>
5.8.1

> <Gold.Id.Protein>
6NUR|6NUR_protein|mol2

> <Gold.PLP.Fitness>
50.6435

> <Gold.PLP.PLP>
-45.2060

> <Gold.PLP.part.hbond>
-4.0000

> <Gold.PLP.part.metal>
0.0000

> <Gold.PLP.part.buried>
-5.6464

> <Gold.PLP.part.nonpolar>
-36.0631

> <Gold.PLP.part.repulsive>
0.4636

> <Gold.PLP.ligand.clash>
2.3790

> <Gold.PLP.ligand.torsion>
1.1757

> <Gold.PLP.Chemscore.Hbond>
2.8500

> <Gold.PLP.Chemscore.CHOScore>
0.0000

> <Gold.PLP.Chemscore.Metal>
0.0000

> <Gold.Chemscore.Hbonds>
donor molecule, donor type, donor heavy atom, donor atom, acceptor molecule, acceptor atom, score
      L1  H    16    40       P1  7949  0.52
      L1  H    24    62       P1 10747  0.94
      P1  H  7989  7998       L1    19  0.25
      P1  H 10752 10764       L1    16  1.00

> <Gold.PLP.Chemscore.Internal.Correction>
1.6178

> <Gold.Rescore>
     Score         DG    S(hbond)    S(metal)    S(lipo)     H(rot)  DE(clash)    DE(int)     intcor
     15.09     -20.65       1.96        0.00     121.95       2.20       1.49       4.06       ----

> <Gold.Chemscore.Fitness>
15.0913

> <Gold.Chemscore.DG>
-20.6467

> <Gold.Chemscore.ZeroCoef>
-5.4800

> <Gold.Chemscore.Hbond>
1.9568

> <Gold.Chemscore.Metal>
0.0000

> <Gold.Chemscore.Lipo>
121.9451

> <Gold.Chemscore.Internal_Hbond>
0.0000

> <Gold.Chemscore.DEClash>
1.4910

> <Gold.Chemscore.DEInternal>
4.0645

> <Gold.Chemscore.Rot>
2.2018

> <Gold.Chemscore.Internal.Correction>
   9.000000E+99

> <Gold.Chemscore.Hbonds>
donor molecule, donor type, donor heavy atom, donor atom, acceptor molecule, acceptor atom, score
      L1  H    16    40       P1  7949  0.22
      L1  H    24    62       P1 10747  0.91
      P1  H 10752 10764       L1    16  0.51

> <Gold.Chemscore.Hbond.Weighted>
-6.5357

> <Gold.Chemscore.Metal.Weighted>
-0.0000

> <Gold.Chemscore.Lipo.Weighted>
-14.2676

> <Gold.Chemscore.Internal_Hbond.Weighted>
0.0000

> <Gold.Chemscore.DEClash.Weighted>
1.4910

> <Gold.Chemscore.DEInternal.Weighted>
4.0645

> <Gold.Chemscore.Rot.Weighted>
5.6366

> <Gold.Chemscore.Internal.Correction.Weighted>
   9.000000E+99

> <Gold.Protein.RotatedTorsions>
[ 6907 6896 6895 6894 ] final  115.06 input  -60.11 | X-H torsion
[ 7974 7965 7964 7962 ] final -176.86 input  175.53 | X-H torsion
[ 8008 7997 7996 7995 ] final  -43.72 input   59.86 | X-H torsion
[ 10167 10162 10161 10158 ] final -158.03 input  -65.29 | X-H torsion
[ 10718 10713 10712 10709 ] final  -37.74 input   66.30 | X-H torsion
[ 10763 10752 10751 10750 ] final  -61.65 input  -60.55 | X-H torsion
[ 11005 11000 10999 10996 ] final  162.14 input  -57.11 | X-H torsion

> <Gold.Protein.ActiveResidues>
 VAL166  LYS551  ARG553  GLY616  TRP617  ASP618  TYR619  PRO620  LYS621  CYS622 
 ASP623  PHE694  ASN695  SER759  ASP760  ASP761  ALA762  ILE779  LEU786  VAL792 
 PHE793  MET794  SER795  GLU796  ALA797  LYS798  CYS799  TRP800  GLU811  SER814 

> <Gold.Protein.RotatedAtoms>
  152.4764  133.8149  159.7022 H   0  0  0  0  0  0  0  0  0  0  0  0  # atno 6907 bound_to 6896
  150.8784  133.7396  159.2946 H   0  0  0  0  0  0  0  0  0  0  0  0  # atno 6908 bound_to 6896
  151.4908  135.1061  159.9855 H   0  0  0  0  0  0  0  0  0  0  0  0  # atno 6909 bound_to 6896
  144.7127  140.1107  143.6411 H   0  0  0  0  0  0  0  0  0  0  0  0  # atno 7974 bound_to 7965
  154.3997  140.1440  156.3565 H   0  0  0  0  0  0  0  0  0  0  0  0  # atno 8008 bound_to 7997
  155.8221  140.3469  155.5499 H   0  0  0  0  0  0  0  0  0  0  0  0  # atno 8009 bound_to 7997
  155.8277  140.0907  157.1802 H   0  0  0  0  0  0  0  0  0  0  0  0  # atno 8010 bound_to 7997
  139.6724  143.9723  152.2291 H   0  0  0  0  0  0  0  0  0  0  0  0  # atno 10167 bound_to 10162
  156.3117  130.4253  149.8044 H   0  0  0  0  0  0  0  0  0  0  0  0  # atno 10718 bound_to 10713
  154.2878  135.6259  153.5373 H   0  0  0  0  0  0  0  0  0  0  0  0  # atno 10763 bound_to 10752
  152.9856  135.5648  154.5423 H   0  0  0  0  0  0  0  0  0  0  0  0  # atno 10764 bound_to 10752
  154.5028  135.2873  155.1383 H   0  0  0  0  0  0  0  0  0  0  0  0  # atno 10765 bound_to 10752
  140.2228  134.8183  157.3238 H   0  0  0  0  0  0  0  0  0  0  0  0  # atno 11005 bound_to 11000
  145.9457  139.2699  143.1242 LP  0  0  0  0  0  0  0  0  0  0  0  0  # atno 17320 bound_to 7965
  145.9376  140.9003  143.0324 LP  0  0  0  0  0  0  0  0  0  0  0  0  # atno 17321 bound_to 7965
  139.9491  144.6632  150.8190 LP  0  0  0  0  0  0  0  0  0  0  0  0  # atno 17342 bound_to 10162
  140.7623  143.3194  151.2657 LP  0  0  0  0  0  0  0  0  0  0  0  0  # atno 17343 bound_to 10162
  156.5385  130.8289  151.3261 LP  0  0  0  0  0  0  0  0  0  0  0  0  # atno 17370 bound_to 10713
  157.7392  130.9828  150.2301 LP  0  0  0  0  0  0  0  0  0  0  0  0  # atno 17371 bound_to 10713
  140.1832  134.4464  155.7759 LP  0  0  0  0  0  0  0  0  0  0  0  0  # atno 17394 bound_to 11000
  141.2222  133.6993  156.7903 LP  0  0  0  0  0  0  0  0  0  0  0  0  # atno 17395 bound_to 11000

$$$$
