AV-unprocessed.smi:107|AV-procd|sdf|1027|dock7
  -GOLD-   2262018 33D 1   1.00000     0.00000
 Structure written by MMmdl.
 30 31  0  0  0  0  0  0  0  0  2 V2000
  151.5338  142.7866  159.3451 C   0  0  0  0  0  0  0  0  0  0  0  0
  151.4995  141.8930  158.1177 C   0  0  0  0  0  0  0  0  0  0  0  0
  150.6473  142.1099  157.0910 C   0  0  0  0  0  0  0  0  0  0  0  0
  150.6226  141.2935  155.9742 N   0  0  0  0  0  0  0  0  0  0  0  0
  149.6751  141.5775  154.8336 C   0  0  2  0  0  0  0  0  0  0  0  0
  148.4263  142.2980  155.3255 C   0  0  0  0  0  0  0  0  0  0  0  0
  147.3721  141.8255  154.3313 C   0  0  2  0  0  0  0  0  0  0  0  0
  146.1798  141.4859  155.0151 O   0  0  0  0  0  0  0  0  0  0  0  0
  148.0344  140.6500  153.5705 C   0  0  2  0  0  0  0  0  0  0  0  0
  147.1990  139.3618  153.4456 C   0  0  0  0  0  0  0  0  0  0  0  0
  147.8906  138.4070  152.6685 O   0  0  0  0  0  0  0  0  0  0  0  0
  149.2253  140.3774  154.2997 O   0  0  0  0  0  0  0  0  0  0  0  0
  151.5349  140.2119  155.8731 C   0  0  0  0  0  0  0  0  0  0  0  0
  151.5175  139.5322  154.8464 O   0  0  0  0  0  0  0  0  0  0  0  0
  152.3918  139.9790  156.9083 N   0  5  0  0  0  0  0  0  0  0  0  0
  152.4238  140.7556  158.0295 C   0  0  0  0  0  0  0  0  0  0  0  0
  153.2012  140.5324  158.9573 O   0  0  0  0  0  0  0  0  0  0  0  0
  150.7985  143.5884  159.2727 H   0  0  0  0  0  0  0  0  0  0  0  0
  152.5190  143.2404  159.4575 H   0  0  0  0  0  0  0  0  0  0  0  0
  151.3157  142.2085  160.2435 H   0  0  0  0  0  0  0  0  0  0  0  0
  149.9726  142.9515  157.1452 H   0  0  0  0  0  0  0  0  0  0  0  0
  150.2303  142.1219  154.0672 H   0  0  0  0  0  0  0  0  0  0  0  0
  148.1952  141.9620  156.3383 H   0  0  0  0  0  0  0  0  0  0  0  0
  148.5757  143.3780  155.3342 H   0  0  0  0  0  0  0  0  0  0  0  0
  147.1392  142.6246  153.6265 H   0  0  0  0  0  0  0  0  0  0  0  0
  145.7170  142.2825  155.2247 H   0  0  0  0  0  0  0  0  0  0  0  0
  148.3177  141.0087  152.5791 H   0  0  0  0  0  0  0  0  0  0  0  0
  146.9562  138.9506  154.4260 H   0  0  0  0  0  0  0  0  0  0  0  0
  146.2589  139.5630  152.9315 H   0  0  0  0  0  0  0  0  0  0  0  0
  148.4720  138.8633  152.0798 H   0  0  0  0  0  0  0  0  0  0  0  0
  1  2  1  0  0  0  0
  1 18  1  0  0  0  0
  1 19  1  0  0  0  0
  1 20  1  0  0  0  0
  2 16  1  0  0  0  0
  2  3  2  0  0  0  0
  3  4  1  0  0  0  0
  3 21  1  0  0  0  0
  4  5  1  0  0  0  0
  4 13  1  0  0  0  0
  5 12  1  0  0  0  0
  5  6  1  0  0  0  0
  5 22  1  0  0  0  0
  6  7  1  0  0  0  0
  6 23  1  0  0  0  0
  6 24  1  0  0  0  0
  7  8  1  0  0  0  0
  7  9  1  0  0  0  0
  7 25  1  0  0  0  0
  8 26  1  0  0  0  0
  9 10  1  0  0  0  0
  9 12  1  0  0  0  0
  9 27  1  0  0  0  0
 10 11  1  0  0  0  0
 10 28  1  0  0  0  0
 10 29  1  0  0  0  0
 11 30  1  0  0  0  0
 13 14  2  0  0  0  0
 13 15  1  0  0  0  0
 15 16  1  0  0  0  0
 16 17  2  0  0  0  0
M  CHG  1  15  -1
M  END
> <s_m_source_file>
AV-unprocessed.smi

> <i_m_source_file_index>
107

> <i_lp_mmshare_version>
43012

> <i_f3d_flags>
0

> <s_epik_input>
Tz1jMVtuSF1jKD1PKW4oW2NIXWMxW0NIM10pW0NAQEhdMltDSDJdW0NAQEhdKFtPSF0pW0NASF0oTzIpW0NIMl1bT0hd

> <s_epik_cmdline>
J2VwaWtfcHl0aG9uJywgJy1waCcsICc3LjAnLCAnLXRuJywgJzgnLCAnLW1hJywgJzIwMCcsICctbWV0YWxfYmluZGluZycsICctaW1hZScsICc8aW5maWxlLm1hZT4nLCAnLW9tYWUnLCAnPG91dGZpbGUubWFlPic=

> <r_lp_tautomer_probability>
0.999537

> <r_epik_Ionization_Penalty>
3.66603

> <r_epik_Ionization_Penalty_Charging>
1.09773e-07

> <r_epik_Ionization_Penalty_Neutral>
3.66603

> <r_epik_State_Penalty>
3.66562

> <r_epik_Charging_Adjusted_Penalty>
3.66562

> <i_epik_Tot_Q>
-1

> <i_epik_Tot_abs_Q>
1

> <r_epik_Metal_State_Penalty>
0.234536

> <b_epik_Metal_Only>
1

> <s_epik_Chemistry_Notes>
This compound contains an acetal/aminal-like group ( X-CH(R)-Y where X, Y are N, S, or O) that may be acid/base labile, releasing an aldehyde.

> <s_lp_Force_Field>
OPLS_2005

> <r_lp_Energy>
40.7454

> <b_lp_Chiralities_Consistent>
1

> <s_lp_Variant>
AV-unprocessed.smi:107-15

> <Gold.Version>
5.8.1

> <Gold.Id.Protein>
6NUR|6NUR_protein|mol2

> <Gold.PLP.Fitness>
40.7076

> <Gold.PLP.PLP>
-27.0672

> <Gold.PLP.part.hbond>
-4.4139

> <Gold.PLP.part.metal>
0.0000

> <Gold.PLP.part.buried>
3.3206

> <Gold.PLP.part.nonpolar>
-24.8809

> <Gold.PLP.part.repulsive>
0.1788

> <Gold.PLP.ligand.clash>
0.0000

> <Gold.PLP.ligand.torsion>
0.6919

> <Gold.PLP.Chemscore.Hbond>
4.0000

> <Gold.PLP.Chemscore.CHOScore>
1.0000

> <Gold.PLP.Chemscore.Metal>
0.0000

> <Gold.Chemscore.Hbonds>
donor molecule, donor type, donor heavy atom, donor atom, acceptor molecule, acceptor atom, score
      L1  H    11    30       P1  7957  1.00
      P1  H  7989  7998       L1    14  1.00
      P1  H  7997  8008       L1    15  1.98
      L1  C     3    21       P1  8028  0.96

> <Gold.PLP.Chemscore.Internal.Correction>
0.0242

> <Gold.Rescore>
     Score         DG    S(hbond)    S(metal)    S(lipo)     H(rot)  DE(clash)    DE(int)     intcor
      7.92     -12.53       2.43        0.00      49.78       2.69       2.19       2.41       ----

> <Gold.Chemscore.Fitness>
7.9219

> <Gold.Chemscore.DG>
-12.5289

> <Gold.Chemscore.ZeroCoef>
-5.4800

> <Gold.Chemscore.Hbond>
2.4263

> <Gold.Chemscore.Metal>
0.0000

> <Gold.Chemscore.Lipo>
49.7784

> <Gold.Chemscore.Internal_Hbond>
0.0000

> <Gold.Chemscore.DEClash>
2.1933

> <Gold.Chemscore.DEInternal>
2.4137

> <Gold.Chemscore.Rot>
2.6871

> <Gold.Chemscore.Internal.Correction>
   9.000000E+99

> <Gold.Chemscore.Hbonds>
donor molecule, donor type, donor heavy atom, donor atom, acceptor molecule, acceptor atom, score
      L1  H    11    30       P1  7957  0.94
      P1  H  7989  7998       L1    14  0.34
      P1  H  7997  8008       L1    15  0.18

> <Gold.Chemscore.Hbond.Weighted>
-8.1039

> <Gold.Chemscore.Metal.Weighted>
-0.0000

> <Gold.Chemscore.Lipo.Weighted>
-5.8241

> <Gold.Chemscore.Internal_Hbond.Weighted>
0.0000

> <Gold.Chemscore.DEClash.Weighted>
2.1933

> <Gold.Chemscore.DEInternal.Weighted>
2.4137

> <Gold.Chemscore.Rot.Weighted>
6.8791

> <Gold.Chemscore.Internal.Correction.Weighted>
   9.000000E+99

> <Gold.Protein.RotatedTorsions>
[ 6907 6896 6895 6894 ] final -117.29 input  -60.11 | X-H torsion
[ 7974 7965 7964 7962 ] final   81.40 input  175.53 | X-H torsion
[ 8008 7997 7996 7995 ] final  -40.29 input   59.86 | X-H torsion
[ 10167 10162 10161 10158 ] final   67.36 input  -65.29 | X-H torsion
[ 10718 10713 10712 10709 ] final   60.80 input   66.30 | X-H torsion
[ 10763 10752 10751 10750 ] final -165.02 input  -60.55 | X-H torsion
[ 11005 11000 10999 10996 ] final   80.03 input  -57.11 | X-H torsion

> <Gold.Protein.ActiveResidues>
 VAL166  LYS551  ARG553  GLY616  TRP617  ASP618  TYR619  PRO620  LYS621  CYS622 
 ASP623  PHE694  ASN695  SER759  ASP760  ASP761  ALA762  ILE779  LEU786  VAL792 
 PHE793  MET794  SER795  GLU796  ALA797  LYS798  CYS799  TRP800  GLU811  SER814 

> <Gold.Protein.RotatedAtoms>
  150.8125  133.8397  159.3175 H   0  0  0  0  0  0  0  0  0  0  0  0  # atno 6907 bound_to 6896
  151.6178  135.1033  160.0104 H   0  0  0  0  0  0  0  0  0  0  0  0  # atno 6908 bound_to 6896
  152.4216  133.7086  159.6522 H   0  0  0  0  0  0  0  0  0  0  0  0  # atno 6909 bound_to 6896
  145.6386  139.2420  143.2043 H   0  0  0  0  0  0  0  0  0  0  0  0  # atno 7974 bound_to 7965
  154.4013  140.1529  156.3002 H   0  0  0  0  0  0  0  0  0  0  0  0  # atno 8008 bound_to 7997
  155.8707  140.3449  155.5797 H   0  0  0  0  0  0  0  0  0  0  0  0  # atno 8009 bound_to 7997
  155.7777  140.0839  157.2066 H   0  0  0  0  0  0  0  0  0  0  0  0  # atno 8010 bound_to 7997
  140.0904  144.4993  150.7102 H   0  0  0  0  0  0  0  0  0  0  0  0  # atno 10167 bound_to 10162
  157.5780  130.8959  149.9380 H   0  0  0  0  0  0  0  0  0  0  0  0  # atno 10718 bound_to 10713
  154.6972  135.2981  154.9394 H   0  0  0  0  0  0  0  0  0  0  0  0  # atno 10763 bound_to 10752
  154.0338  135.6666  153.4787 H   0  0  0  0  0  0  0  0  0  0  0  0  # atno 10764 bound_to 10752
  153.0654  135.5091  154.8096 H   0  0  0  0  0  0  0  0  0  0  0  0  # atno 10765 bound_to 10752
  139.9150  134.7889  156.1856 H   0  0  0  0  0  0  0  0  0  0  0  0  # atno 11005 bound_to 11000
  146.1299  140.7199  142.9417 LP  0  0  0  0  0  0  0  0  0  0  0  0  # atno 17320 bound_to 7965
  144.7166  140.4230  143.7040 LP  0  0  0  0  0  0  0  0  0  0  0  0  # atno 17321 bound_to 7965
  140.7031  143.2449  151.4805 LP  0  0  0  0  0  0  0  0  0  0  0  0  # atno 17342 bound_to 10162
  139.5728  144.1889  152.1860 LP  0  0  0  0  0  0  0  0  0  0  0  0  # atno 17343 bound_to 10162
  156.0825  130.3671  150.0553 LP  0  0  0  0  0  0  0  0  0  0  0  0  # atno 17370 bound_to 10713
  156.8696  130.9519  151.3610 LP  0  0  0  0  0  0  0  0  0  0  0  0  # atno 17371 bound_to 10713
  141.0615  133.6839  156.1962 LP  0  0  0  0  0  0  0  0  0  0  0  0  # atno 17394 bound_to 11000
  140.6653  134.4925  157.5585 LP  0  0  0  0  0  0  0  0  0  0  0  0  # atno 17395 bound_to 11000

$$$$
