AV-unprocessed.smi:1982|AV-procd|sdf|8022|dock8
  -GOLD-   2272010213D 1   1.00000     0.00000
 Structure written by MMmdl.
 36 37  0  0  0  0  0  0  0  0  1 V2000
  152.7742  142.6007  162.2423 C   0  0  0  0  0  0  0  0  0  0  0  0
  152.7978  143.3386  160.8908 C   0  0  2  0  0  0  0  0  0  0  0  0
  151.8661  144.5656  160.9582 C   0  0  0  0  0  0  0  0  0  0  0  0
  151.8713  145.3600  159.6476 C   0  0  0  0  0  0  0  0  0  0  0  0
  151.4662  144.4643  158.4733 C   0  0  0  0  0  0  0  0  0  0  0  0
  152.3859  143.2341  158.3655 C   0  0  2  0  0  0  0  0  0  0  0  0
  151.9262  142.3851  157.2697 N   0  0  0  0  0  0  0  0  0  0  0  0
  150.7782  141.6903  157.2415 C   0  0  0  0  0  0  0  0  0  0  0  0
  149.9996  141.6224  158.1918 O   0  0  0  0  0  0  0  0  0  0  0  0
  150.4526  140.9675  155.9332 C   0  0  0  0  0  0  0  0  0  0  0  0
  151.4524  139.9583  155.6311 N   0  0  0  0  0  0  0  0  0  0  0  0
  151.5326  139.0724  154.6360 C   0  0  0  0  0  0  0  0  0  0  0  0
  152.6350  138.3434  154.7184 N   0  0  0  0  0  0  0  0  0  0  0  0
  153.2542  138.8363  155.8547 N   0  0  0  0  0  0  0  0  0  0  0  0
  152.5571  139.7943  156.4008 N   0  0  0  0  0  0  0  0  0  0  0  0
  152.4318  142.4224  159.6885 C   0  0  1  0  0  0  0  0  0  0  0  0
  153.3894  141.2158  159.5646 C   0  0  0  0  0  0  0  0  0  0  0  0
  151.8080  142.1275  162.4195 H   0  0  0  0  0  0  0  0  0  0  0  0
  152.9607  143.2889  163.0672 H   0  0  0  0  0  0  0  0  0  0  0  0
  153.5423  141.8305  162.3000 H   0  0  0  0  0  0  0  0  0  0  0  0
  153.8136  143.7064  160.7372 H   0  0  0  0  0  0  0  0  0  0  0  0
  150.8483  144.2446  161.1844 H   0  0  0  0  0  0  0  0  0  0  0  0
  152.1697  145.2209  161.7754 H   0  0  0  0  0  0  0  0  0  0  0  0
  151.1888  146.2069  159.7225 H   0  0  0  0  0  0  0  0  0  0  0  0
  152.8644  145.7751  159.4707 H   0  0  0  0  0  0  0  0  0  0  0  0
  150.4309  144.1442  158.6014 H   0  0  0  0  0  0  0  0  0  0  0  0
  151.4992  145.0405  157.5477 H   0  0  0  0  0  0  0  0  0  0  0  0
  153.3993  143.5805  158.1523 H   0  0  0  0  0  0  0  0  0  0  0  0
  152.5038  142.3699  156.4412 H   0  0  0  0  0  0  0  0  0  0  0  0
  149.4690  140.5007  156.0040 H   0  0  0  0  0  0  0  0  0  0  0  0
  150.4162  141.6797  155.1080 H   0  0  0  0  0  0  0  0  0  0  0  0
  150.7957  138.9703  153.8531 H   0  0  0  0  0  0  0  0  0  0  0  0
  151.4308  142.0262  159.8687 H   0  0  0  0  0  0  0  0  0  0  0  0
  154.4206  141.5433  159.4290 H   0  0  0  0  0  0  0  0  0  0  0  0
  153.1345  140.5761  158.7196 H   0  0  0  0  0  0  0  0  0  0  0  0
  153.3547  140.5772  160.4463 H   0  0  0  0  0  0  0  0  0  0  0  0
  1  2  1  0  0  0  0
  1 18  1  0  0  0  0
  1 19  1  0  0  0  0
  1 20  1  0  0  0  0
  2 16  1  0  0  0  0
  2  3  1  0  0  0  0
  2 21  1  0  0  0  0
  3  4  1  0  0  0  0
  3 22  1  0  0  0  0
  3 23  1  0  0  0  0
  4  5  1  0  0  0  0
  4 24  1  0  0  0  0
  4 25  1  0  0  0  0
  5  6  1  0  0  0  0
  5 26  1  0  0  0  0
  5 27  1  0  0  0  0
  6  7  1  0  0  0  0
  6 16  1  0  0  0  0
  6 28  1  0  0  0  0
  7  8  1  0  0  0  0
  7 29  1  0  0  0  0
  8  9  2  0  0  0  0
  8 10  1  0  0  0  0
 10 11  1  0  0  0  0
 10 30  1  0  0  0  0
 10 31  1  0  0  0  0
 11 15  1  0  0  0  0
 11 12  1  0  0  0  0
 12 13  2  0  0  0  0
 12 32  1  0  0  0  0
 13 14  1  0  0  0  0
 14 15  2  0  0  0  0
 16 17  1  0  0  0  0
 16 33  1  0  0  0  0
 17 34  1  0  0  0  0
 17 35  1  0  0  0  0
 17 36  1  0  0  0  0
M  END
> <s_m_source_file>
AV-unprocessed.smi

> <i_m_source_file_index>
1982

> <i_lp_mmshare_version>
43012

> <i_f3d_flags>
0

> <s_epik_input>
W0NIM11bQ0BASF0xW0NIMl1bQ0gyXVtDSDJdW0NASF0oW0NASF0xW0NIM10pW05IXUMoPU8pW0NIMl1uMltjSF1ubm4y

> <s_epik_cmdline>
J2VwaWtfcHl0aG9uJywgJy1waCcsICc3LjAnLCAnLXRuJywgJzgnLCAnLW1hJywgJzIwMCcsICctbWV0YWxfYmluZGluZycsICctaW1hZScsICc8aW5maWxlLm1hZT4nLCAnLW9tYWUnLCAnPG91dGZpbGUubWFlPic=

> <r_lp_tautomer_probability>
1

> <r_epik_Ionization_Penalty>
5.03816e-07

> <r_epik_Ionization_Penalty_Charging>
0

> <r_epik_Ionization_Penalty_Neutral>
5.03816e-07

> <r_epik_State_Penalty>
-0

> <r_epik_Charging_Adjusted_Penalty>
0

> <i_epik_Tot_Q>
0

> <i_epik_Tot_abs_Q>
0

> <r_epik_Metal_State_Penalty>
-0

> <b_epik_Metal_Only>
0

> <s_lp_Force_Field>
OPLS_2005

> <r_lp_Energy>
13.7929

> <b_lp_Chiralities_Consistent>
1

> <s_lp_Variant>
AV-unprocessed.smi:1982-3

> <Gold.Version>
5.8.1

> <Gold.Id.Protein>
6NUR|6NUR_protein|mol2

> <Gold.PLP.Fitness>
42.3750

> <Gold.PLP.PLP>
-42.4874

> <Gold.PLP.part.hbond>
-2.0000

> <Gold.PLP.part.metal>
0.0000

> <Gold.PLP.part.buried>
-2.6651

> <Gold.PLP.part.nonpolar>
-37.4003

> <Gold.PLP.part.repulsive>
0.1632

> <Gold.PLP.ligand.clash>
0.0000

> <Gold.PLP.ligand.torsion>
0.0600

> <Gold.PLP.Chemscore.Hbond>
0.0000

> <Gold.PLP.Chemscore.CHOScore>
0.0000

> <Gold.PLP.Chemscore.Metal>
0.0000

> <Gold.PLP.Chemscore.Internal.Correction>
0.0077

> <Gold.Rescore>
     Score         DG    S(hbond)    S(metal)    S(lipo)     H(rot)  DE(clash)    DE(int)     intcor
     11.85     -14.68       0.89        0.00      94.83       1.91       0.75       2.08       ----

> <Gold.Chemscore.Fitness>
11.8479

> <Gold.Chemscore.DG>
-14.6775

> <Gold.Chemscore.ZeroCoef>
-5.4800

> <Gold.Chemscore.Hbond>
0.8926

> <Gold.Chemscore.Metal>
0.0000

> <Gold.Chemscore.Lipo>
94.8293

> <Gold.Chemscore.Internal_Hbond>
0.0000

> <Gold.Chemscore.DEClash>
0.7454

> <Gold.Chemscore.DEInternal>
2.0842

> <Gold.Chemscore.Rot>
1.9058

> <Gold.Chemscore.Internal.Correction>
   9.000000E+99

> <Gold.Chemscore.Hbond.Weighted>
-2.9813

> <Gold.Chemscore.Metal.Weighted>
-0.0000

> <Gold.Chemscore.Lipo.Weighted>
-11.0950

> <Gold.Chemscore.Internal_Hbond.Weighted>
0.0000

> <Gold.Chemscore.DEClash.Weighted>
0.7454

> <Gold.Chemscore.DEInternal.Weighted>
2.0842

> <Gold.Chemscore.Rot.Weighted>
4.8788

> <Gold.Chemscore.Internal.Correction.Weighted>
   9.000000E+99

> <Gold.Protein.RotatedTorsions>
[ 6907 6896 6895 6894 ] final  -68.92 input  -60.11 | X-H torsion
[ 7974 7965 7964 7962 ] final  -33.17 input  175.53 | X-H torsion
[ 8008 7997 7996 7995 ] final   88.27 input   59.86 | X-H torsion
[ 10167 10162 10161 10158 ] final  -34.13 input  -65.29 | X-H torsion
[ 10718 10713 10712 10709 ] final -149.56 input   66.30 | X-H torsion
[ 10763 10752 10751 10750 ] final -143.87 input  -60.55 | X-H torsion
[ 11005 11000 10999 10996 ] final -100.35 input  -57.11 | X-H torsion

> <Gold.Protein.ActiveResidues>
 VAL166  LYS551  ARG553  GLY616  TRP617  ASP618  TYR619  PRO620  LYS621  CYS622 
 ASP623  PHE694  ASN695  SER759  ASP760  ASP761  ALA762  ILE779  LEU786  VAL792 
 PHE793  MET794  SER795  GLU796  ALA797  LYS798  CYS799  TRP800  GLU811  SER814 

> <Gold.Protein.RotatedAtoms>
  150.7332  134.5671  159.5871 H   0  0  0  0  0  0  0  0  0  0  0  0  # atno 6907 bound_to 6896
  152.3119  134.7483  160.0343 H   0  0  0  0  0  0  0  0  0  0  0  0  # atno 6908 bound_to 6896
  151.8028  133.3336  159.3569 H   0  0  0  0  0  0  0  0  0  0  0  0  # atno 6909 bound_to 6896
  146.0932  140.5884  142.8855 H   0  0  0  0  0  0  0  0  0  0  0  0  # atno 7974 bound_to 7965
  155.9857  140.3373  155.6705 H   0  0  0  0  0  0  0  0  0  0  0  0  # atno 8008 bound_to 7997
  155.6489  140.0703  157.2611 H   0  0  0  0  0  0  0  0  0  0  0  0  # atno 8009 bound_to 7997
  154.4204  140.1729  156.1641 H   0  0  0  0  0  0  0  0  0  0  0  0  # atno 8010 bound_to 7997
  140.7191  143.3570  151.2040 H   0  0  0  0  0  0  0  0  0  0  0  0  # atno 10167 bound_to 10162
  156.4347  130.8093  151.2321 H   0  0  0  0  0  0  0  0  0  0  0  0  # atno 10718 bound_to 10713
  154.8452  135.3456  154.6256 H   0  0  0  0  0  0  0  0  0  0  0  0  # atno 10763 bound_to 10752
  153.6865  135.6977  153.5107 H   0  0  0  0  0  0  0  0  0  0  0  0  # atno 10764 bound_to 10752
  153.2628  135.4317  155.0866 H   0  0  0  0  0  0  0  0  0  0  0  0  # atno 10765 bound_to 10752
  141.1274  133.8392  157.1091 H   0  0  0  0  0  0  0  0  0  0  0  0  # atno 11005 bound_to 11000
  144.7375  140.4850  143.6893 LP  0  0  0  0  0  0  0  0  0  0  0  0  # atno 17320 bound_to 7965
  145.6000  139.1503  143.3134 LP  0  0  0  0  0  0  0  0  0  0  0  0  # atno 17321 bound_to 7965
  139.7113  143.9371  152.2949 LP  0  0  0  0  0  0  0  0  0  0  0  0  # atno 17342 bound_to 10162
  139.9097  144.6863  150.8575 LP  0  0  0  0  0  0  0  0  0  0  0  0  # atno 17343 bound_to 10162
  157.7507  131.0187  150.3637 LP  0  0  0  0  0  0  0  0  0  0  0  0  # atno 17370 bound_to 10713
  156.3982  130.3911  149.6979 LP  0  0  0  0  0  0  0  0  0  0  0  0  # atno 17371 bound_to 10713
  140.0286  134.9912  157.0735 LP  0  0  0  0  0  0  0  0  0  0  0  0  # atno 17394 bound_to 11000
  140.4322  134.1768  155.7169 LP  0  0  0  0  0  0  0  0  0  0  0  0  # atno 17395 bound_to 11000

$$$$
