AV-unprocessed.smi:35|AV-procd|sdf|251|dock7
  -GOLD-   2262016 13D 1   1.00000     0.00000
 Structure written by MMmdl.
 29 30  0  0  0  0  0  0  0  0  1 V2000
  140.8131  134.9514  153.9836 O   0  0  0  0  0  0  0  0  0  0  0  0
  141.9070  135.3413  153.5816 C   0  0  0  0  0  0  0  0  0  0  0  0
  142.9933  134.4642  153.5286 N   0  0  0  0  0  0  0  0  0  0  0  0
  144.2771  134.7898  153.0871 C   0  0  0  0  0  0  0  0  0  0  0  0
  145.1669  133.9399  153.1058 O   0  0  0  0  0  0  0  0  0  0  0  0
  144.4940  136.1105  152.6309 N   0  0  0  0  0  0  0  0  0  0  0  0
  145.8919  136.4897  152.1705 C   0  0  2  0  0  0  0  0  0  0  0  0
  146.7501  136.5691  153.2673 O   0  0  0  0  0  0  0  0  0  0  0  0
  146.7960  137.9102  153.7362 C   0  0  1  0  0  0  0  0  0  0  0  0
  148.0419  138.1166  154.6091 C   0  0  0  0  0  0  0  0  0  0  0  0
  149.1871  138.2315  153.7920 O   0  0  0  0  0  0  0  0  0  0  0  0
  146.8227  138.6985  152.4262 C   0  0  2  0  0  0  0  0  0  0  0  0
  146.3065  139.9997  152.6243 O   0  0  0  0  0  0  0  0  0  0  0  0
  145.9092  137.8882  151.5086 C   0  0  1  0  0  0  0  0  0  0  0  0
  146.4437  137.8438  150.2010 O   0  0  0  0  0  0  0  0  0  0  0  0
  143.4491  137.0272  152.7013 C   0  0  0  0  0  0  0  0  0  0  0  0
  142.2112  136.6968  153.1384 C   0  0  0  0  0  0  0  0  0  0  0  0
  140.8624  138.1479  153.1571 Br  0  0  0  0  0  0  0  0  0  0  0  0
  142.8380  133.5172  153.8427 H   0  0  0  0  0  0  0  0  0  0  0  0
  146.2024  135.6704  151.5186 H   0  0  0  0  0  0  0  0  0  0  0  0
  145.8850  138.1461  154.2902 H   0  0  0  0  0  0  0  0  0  0  0  0
  147.9395  138.9948  155.2473 H   0  0  0  0  0  0  0  0  0  0  0  0
  148.1899  137.2557  155.2616 H   0  0  0  0  0  0  0  0  0  0  0  0
  149.3883  137.3797  153.4355 H   0  0  0  0  0  0  0  0  0  0  0  0
  147.8397  138.7436  152.0324 H   0  0  0  0  0  0  0  0  0  0  0  0
  145.3637  139.9438  152.6633 H   0  0  0  0  0  0  0  0  0  0  0  0
  144.9020  138.3078  151.4843 H   0  0  0  0  0  0  0  0  0  0  0  0
  145.7574  138.0693  149.5911 H   0  0  0  0  0  0  0  0  0  0  0  0
  143.6025  138.0543  152.4076 H   0  0  0  0  0  0  0  0  0  0  0  0
  1  2  2  0  0  0  0
  2 17  1  0  0  0  0
  2  3  1  0  0  0  0
  3 19  1  0  0  0  0
  3  4  1  0  0  0  0
  4  5  2  0  0  0  0
  4  6  1  0  0  0  0
  6  7  1  0  0  0  0
  6 16  1  0  0  0  0
  7 14  1  0  0  0  0
  7  8  1  0  0  0  0
  7 20  1  0  0  0  0
  8  9  1  0  0  0  0
  9 10  1  0  0  0  0
  9 12  1  0  0  0  0
  9 21  1  0  0  0  0
 10 11  1  0  0  0  0
 10 22  1  0  0  0  0
 10 23  1  0  0  0  0
 11 24  1  0  0  0  0
 12 13  1  0  0  0  0
 12 14  1  0  0  0  0
 12 25  1  0  0  0  0
 13 26  1  0  0  0  0
 14 15  1  0  0  0  0
 14 27  1  0  0  0  0
 15 28  1  0  0  0  0
 16 17  2  0  0  0  0
 16 29  1  0  0  0  0
 17 18  1  0  0  0  0
M  END
> <s_m_source_file>
AV-unprocessed.smi

> <i_m_source_file_index>
35

> <i_lp_mmshare_version>
43012

> <i_f3d_flags>
0

> <s_epik_input>
Tz1jMVtuSF1jKD1PKW4oW2NIXWMxQnIpW0NAQEhdMk9bQ0BASF0oW0NIMl1bT0hdKVtDQEBIXShbT0hdKVtDQEhdMltPSF0=

> <s_epik_cmdline>
J2VwaWtfcHl0aG9uJywgJy1waCcsICc3LjAnLCAnLXRuJywgJzgnLCAnLW1hJywgJzIwMCcsICctbWV0YWxfYmluZGluZycsICctaW1hZScsICc8aW5maWxlLm1hZT4nLCAnLW9tYWUnLCAnPG91dGZpbGUubWFlPic=

> <r_lp_tautomer_probability>
0.999537

> <r_epik_Ionization_Penalty>
0.10812

> <r_epik_Ionization_Penalty_Charging>
0.108119

> <r_epik_Ionization_Penalty_Neutral>
4.93006e-07

> <r_epik_State_Penalty>
0.0979238

> <r_epik_Charging_Adjusted_Penalty>
0.206043

> <i_epik_Tot_Q>
0

> <i_epik_Tot_abs_Q>
0

> <r_epik_Metal_State_Penalty>
3.07911

> <b_epik_Metal_Only>
0

> <s_epik_Chemistry_Notes>
This compound contains an acetal/aminal-like group ( X-CH(R)-Y where X, Y are N, S, or O) that may be acid/base labile, releasing an aldehyde.

> <s_lp_Force_Field>
OPLS_2005

> <r_lp_Energy>
25.602

> <b_lp_Chiralities_Consistent>
1

> <s_lp_Variant>
AV-unprocessed.smi:35-5

> <Gold.Version>
5.8.1

> <Gold.Id.Protein>
6NUR|6NUR_protein|mol2

> <Gold.PLP.Fitness>
46.4328

> <Gold.PLP.PLP>
-26.8782

> <Gold.PLP.part.hbond>
-7.1113

> <Gold.PLP.part.metal>
0.0000

> <Gold.PLP.part.buried>
-2.8363

> <Gold.PLP.part.nonpolar>
-20.3116

> <Gold.PLP.part.repulsive>
3.0709

> <Gold.PLP.ligand.clash>
0.0000

> <Gold.PLP.ligand.torsion>
0.4488

> <Gold.PLP.Chemscore.Hbond>
5.2720

> <Gold.PLP.Chemscore.CHOScore>
1.5334

> <Gold.PLP.Chemscore.Metal>
0.0000

> <Gold.Chemscore.Hbonds>
donor molecule, donor type, donor heavy atom, donor atom, acceptor molecule, acceptor atom, score
      L1  H     3    19       P1 10957  1.00
      L1  H    11    24       P1  7948  0.82
      L1  H    13    26       P1 10175  1.00
      L1  H    15    28       P1 10171  0.70
      P1  H  7954  7966       L1    15  0.75
      P1  H 11000 11005       L1     1  1.00
      L1  C    16    29       P1 10171  0.54
      L1  C    16    29       P1 10175  1.00

> <Gold.PLP.Chemscore.Internal.Correction>
0.0359

> <Gold.Rescore>
     Score         DG    S(hbond)    S(metal)    S(lipo)     H(rot)  DE(clash)    DE(int)     intcor
     13.99     -16.58       4.90        0.00      35.41       3.67       2.20       0.39       ----

> <Gold.Chemscore.Fitness>
13.9861

> <Gold.Chemscore.DG>
-16.5799

> <Gold.Chemscore.ZeroCoef>
-5.4800

> <Gold.Chemscore.Hbond>
4.8959

> <Gold.Chemscore.Metal>
0.0000

> <Gold.Chemscore.Lipo>
35.4118

> <Gold.Chemscore.Internal_Hbond>
0.0000

> <Gold.Chemscore.DEClash>
2.2048

> <Gold.Chemscore.DEInternal>
0.3890

> <Gold.Chemscore.Rot>
3.6701

> <Gold.Chemscore.Internal.Correction>
   9.000000E+99

> <Gold.Chemscore.Hbonds>
donor molecule, donor type, donor heavy atom, donor atom, acceptor molecule, acceptor atom, score
      L1  H     3    19       P1 10957  0.97
      L1  H    11    24       P1  7948  0.77
      L1  H    13    26       P1 10175  0.98
      L1  H    15    28       P1 10171  0.70
      P1  H  7954  7966       L1    15  0.75
      P1  H 11000 11005       L1     1  0.97

> <Gold.Chemscore.Hbond.Weighted>
-16.3522

> <Gold.Chemscore.Metal.Weighted>
-0.0000

> <Gold.Chemscore.Lipo.Weighted>
-4.1432

> <Gold.Chemscore.Internal_Hbond.Weighted>
0.0000

> <Gold.Chemscore.DEClash.Weighted>
2.2048

> <Gold.Chemscore.DEInternal.Weighted>
0.3890

> <Gold.Chemscore.Rot.Weighted>
9.3955

> <Gold.Chemscore.Internal.Correction.Weighted>
   9.000000E+99

> <Gold.Protein.RotatedTorsions>
[ 6907 6896 6895 6894 ] final   24.98 input  -60.11 | X-H torsion
[ 7974 7965 7964 7962 ] final  158.46 input  175.53 | X-H torsion
[ 8008 7997 7996 7995 ] final   54.39 input   59.86 | X-H torsion
[ 10167 10162 10161 10158 ] final  172.12 input  -65.29 | X-H torsion
[ 10718 10713 10712 10709 ] final  -54.15 input   66.30 | X-H torsion
[ 10763 10752 10751 10750 ] final  128.29 input  -60.55 | X-H torsion
[ 11005 11000 10999 10996 ] final   41.21 input  -57.11 | X-H torsion

> <Gold.Protein.ActiveResidues>
 VAL166  LYS551  ARG553  GLY616  TRP617  ASP618  TYR619  PRO620  LYS621  CYS622 
 ASP623  PHE694  ASN695  SER759  ASP760  ASP761  ALA762  ILE779  LEU786  VAL792 
 PHE793  MET794  SER795  GLU796  ALA797  LYS798  CYS799  TRP800  GLU811  SER814 

> <Gold.Protein.RotatedAtoms>
  151.9657  135.0101  160.0549 H   0  0  0  0  0  0  0  0  0  0  0  0  # atno 6907 bound_to 6896
  152.1828  133.4714  159.4975 H   0  0  0  0  0  0  0  0  0  0  0  0  # atno 6908 bound_to 6896
  150.6920  134.1729  159.4262 H   0  0  0  0  0  0  0  0  0  0  0  0  # atno 6909 bound_to 6896
  144.7845  139.7481  143.6246 H   0  0  0  0  0  0  0  0  0  0  0  0  # atno 7974 bound_to 7965
  155.4839  140.3469  155.4344 H   0  0  0  0  0  0  0  0  0  0  0  0  # atno 8008 bound_to 7997
  156.1021  140.1438  156.9482 H   0  0  0  0  0  0  0  0  0  0  0  0  # atno 8009 bound_to 7997
  154.4700  140.0904  156.7099 H   0  0  0  0  0  0  0  0  0  0  0  0  # atno 8010 bound_to 7997
  139.5067  144.3409  152.0019 H   0  0  0  0  0  0  0  0  0  0  0  0  # atno 10167 bound_to 10162
  156.1475  130.4152  150.0000 H   0  0  0  0  0  0  0  0  0  0  0  0  # atno 10718 bound_to 10713
  153.7231  135.3250  155.3271 H   0  0  0  0  0  0  0  0  0  0  0  0  # atno 10763 bound_to 10752
  154.8349  135.4504  154.1197 H   0  0  0  0  0  0  0  0  0  0  0  0  # atno 10764 bound_to 10752
  153.2323  135.6961  153.7956 H   0  0  0  0  0  0  0  0  0  0  0  0  # atno 10765 bound_to 10752
  140.1856  134.4050  155.8175 H   0  0  0  0  0  0  0  0  0  0  0  0  # atno 11005 bound_to 11000
  146.2069  139.5400  142.9706 LP  0  0  0  0  0  0  0  0  0  0  0  0  # atno 17320 bound_to 7965
  145.5960  141.0362  143.2044 LP  0  0  0  0  0  0  0  0  0  0  0  0  # atno 17321 bound_to 7965
  140.2847  144.3821  150.6107 LP  0  0  0  0  0  0  0  0  0  0  0  0  # atno 17342 bound_to 10162
  140.5992  143.2167  151.7105 LP  0  0  0  0  0  0  0  0  0  0  0  0  # atno 17343 bound_to 10162
  156.7867  130.9241  151.3646 LP  0  0  0  0  0  0  0  0  0  0  0  0  # atno 17370 bound_to 10713
  157.6629  130.8982  149.9868 LP  0  0  0  0  0  0  0  0  0  0  0  0  # atno 17371 bound_to 10713
  141.2225  133.7021  156.8006 LP  0  0  0  0  0  0  0  0  0  0  0  0  # atno 17394 bound_to 11000
  140.2218  134.8752  157.3384 LP  0  0  0  0  0  0  0  0  0  0  0  0  # atno 17395 bound_to 11000

$$$$
