AV-unprocessed.smi:1381|AV-procd|sdf|5616|dock10
  -GOLD-   22720 5223D 1   1.00000     0.00000
 Structure written by MMmdl.
 42 43  0  0  0  0  0  0  0  0  3 V2000
  152.1151  140.1550  158.2245 C   0  0  0  0  0  0  0  0  0  0  0  0
  151.5607  140.0777  156.8433 C   0  0  0  0  0  0  0  0  0  0  0  0
  150.2894  140.1462  156.3473 C   0  0  0  0  0  0  0  0  0  0  0  0
  150.4817  139.9951  154.9482 C   0  0  0  0  0  0  0  0  0  0  0  0
  149.3740  140.0080  154.0595 N   0  0  0  0  0  0  0  0  0  0  0  0
  148.1010  140.3686  154.3046 C   0  0  0  0  0  0  0  0  0  0  0  0
  147.7629  140.7400  155.4349 O   0  0  0  0  0  0  0  0  0  0  0  0
  147.3120  140.2590  153.1998 N   0  5  0  0  0  0  0  0  0  0  0  0
  147.0170  139.0062  152.5057 C   0  0  0  0  0  0  0  0  0  0  0  0
  146.3582  138.0032  153.4709 C   0  0  0  0  0  0  0  0  0  0  0  0
  146.4694  136.6158  152.9524 N   0  3  1  0  0  0  0  0  0  0  0  0
  146.4572  135.5816  154.0147 C   0  0  0  0  0  0  0  0  0  0  0  0
  146.6786  134.1859  153.4029 C   0  0  1  0  0  0  0  0  0  0  0  0
  146.5996  133.0740  154.4546 C   0  0  0  0  0  0  0  0  0  0  0  0
  145.6749  133.9437  152.4221 O   0  0  0  0  0  0  0  0  0  0  0  0
  145.7202  134.8770  151.3474 C   0  0  1  0  0  0  0  0  0  0  0  0
  144.6637  134.4690  150.3149 C   0  0  0  0  0  0  0  0  0  0  0  0
  145.4752  136.2932  151.9003 C   0  0  0  0  0  0  0  0  0  0  0  0
  151.7571  139.8484  154.6208 N   0  0  0  0  0  0  0  0  0  0  0  0
  152.4547  139.8997  155.8334 O   0  0  0  0  0  0  0  0  0  0  0  0
  151.4482  140.7155  158.8797 H   0  0  0  0  0  0  0  0  0  0  0  0
  153.0859  140.6510  158.2280 H   0  0  0  0  0  0  0  0  0  0  0  0
  152.2424  139.1572  158.6441 H   0  0  0  0  0  0  0  0  0  0  0  0
  149.3707  140.2817  156.8983 H   0  0  0  0  0  0  0  0  0  0  0  0
  149.5704  139.7106  153.1155 H   0  0  0  0  0  0  0  0  0  0  0  0
  146.3661  139.1544  151.6428 H   0  0  0  0  0  0  0  0  0  0  0  0
  147.9271  138.5584  152.1058 H   0  0  0  0  0  0  0  0  0  0  0  0
  146.8298  138.0805  154.4521 H   0  0  0  0  0  0  0  0  0  0  0  0
  145.3098  138.2648  153.6249 H   0  0  0  0  0  0  0  0  0  0  0  0
  147.2419  135.7960  154.7416 H   0  0  0  0  0  0  0  0  0  0  0  0
  145.5054  135.6170  154.5474 H   0  0  0  0  0  0  0  0  0  0  0  0
  147.6607  134.1441  152.9285 H   0  0  0  0  0  0  0  0  0  0  0  0
  147.3612  133.2062  155.2237 H   0  0  0  0  0  0  0  0  0  0  0  0
  146.7550  132.0958  153.9991 H   0  0  0  0  0  0  0  0  0  0  0  0
  145.6262  133.0622  154.9457 H   0  0  0  0  0  0  0  0  0  0  0  0
  146.7028  134.8318  150.8741 H   0  0  0  0  0  0  0  0  0  0  0  0
  144.6660  135.1480  149.4619 H   0  0  0  0  0  0  0  0  0  0  0  0
  143.6632  134.4788  150.7484 H   0  0  0  0  0  0  0  0  0  0  0  0
  144.8539  133.4633  149.9390 H   0  0  0  0  0  0  0  0  0  0  0  0
  144.4688  136.3686  152.3155 H   0  0  0  0  0  0  0  0  0  0  0  0
  145.5467  137.0246  151.0938 H   0  0  0  0  0  0  0  0  0  0  0  0
  147.3784  136.5621  152.5149 H   0  0  0  0  0  0  0  0  0  0  0  0
  1  2  1  0  0  0  0
  1 21  1  0  0  0  0
  1 22  1  0  0  0  0
  1 23  1  0  0  0  0
  2 20  1  0  0  0  0
  2  3  2  0  0  0  0
  3  4  1  0  0  0  0
  3 24  1  0  0  0  0
  4  5  1  0  0  0  0
  4 19  2  0  0  0  0
  5  6  1  0  0  0  0
  5 25  1  0  0  0  0
  6  7  2  0  0  0  0
  6  8  1  0  0  0  0
  8  9  1  0  0  0  0
  9 10  1  0  0  0  0
  9 26  1  0  0  0  0
  9 27  1  0  0  0  0
 10 11  1  0  0  0  0
 10 28  1  0  0  0  0
 10 29  1  0  0  0  0
 11 18  1  0  0  0  0
 11 12  1  0  0  0  0
 11 42  1  0  0  0  0
 12 13  1  0  0  0  0
 12 30  1  0  0  0  0
 12 31  1  0  0  0  0
 13 14  1  0  0  0  0
 13 15  1  0  0  0  0
 13 32  1  0  0  0  0
 14 33  1  0  0  0  0
 14 34  1  0  0  0  0
 14 35  1  0  0  0  0
 15 16  1  0  0  0  0
 16 17  1  0  0  0  0
 16 18  1  0  0  0  0
 16 36  1  0  0  0  0
 17 37  1  0  0  0  0
 17 38  1  0  0  0  0
 17 39  1  0  0  0  0
 18 40  1  0  0  0  0
 18 41  1  0  0  0  0
 19 20  1  0  0  0  0
M  CHG  1   8  -1
M  CHG  1  11   1
M  END
> <s_m_source_file>
AV-unprocessed.smi

> <i_m_source_file_index>
1381

> <i_lp_mmshare_version>
43012

> <i_f3d_flags>
0

> <s_epik_input>
W0NIM11jMVtjSF1jKG5vMSlbTkhdQyg9TylbTkhdW0NIMl1bQ0gyXU4yW0NIMl1bQ0BASF0oW0NIM10pT1tDQEBIXShbQ0gzXSlbQ0gyXTI=

> <s_epik_cmdline>
J2VwaWtfcHl0aG9uJywgJy1waCcsICc3LjAnLCAnLXRuJywgJzgnLCAnLW1hJywgJzIwMCcsICctbWV0YWxfYmluZGluZycsICctaW1hZScsICc8aW5maWxlLm1hZT4nLCAnLW9tYWUnLCAnPG91dGZpbGUubWFlPic=

> <r_epik_Ionization_Penalty>
6.8073

> <r_epik_Ionization_Penalty_Charging>
6.80729

> <r_epik_Ionization_Penalty_Neutral>
5.65391e-06

> <r_epik_State_Penalty>
7.47323

> <r_epik_Charging_Adjusted_Penalty>
14.2805

> <i_epik_Tot_Q>
0

> <i_epik_Tot_abs_Q>
2

> <r_epik_Metal_State_Penalty>
3.40035

> <b_epik_Metal_Only>
1

> <s_lp_Force_Field>
OPLS_2005

> <r_lp_Energy>
11.4992

> <b_lp_Chiralities_Consistent>
1

> <s_lp_Variant>
AV-unprocessed.smi:1381-15

> <Gold.Version>
5.8.1

> <Gold.Id.Protein>
6NUR|6NUR_protein|mol2

> <Gold.PLP.Fitness>
39.0086

> <Gold.PLP.PLP>
-26.5226

> <Gold.PLP.part.hbond>
-3.9281

> <Gold.PLP.part.metal>
0.0000

> <Gold.PLP.part.buried>
-2.6219

> <Gold.PLP.part.nonpolar>
-19.9335

> <Gold.PLP.part.repulsive>
0.5628

> <Gold.PLP.ligand.clash>
0.0000

> <Gold.PLP.ligand.torsion>
0.9689

> <Gold.PLP.Chemscore.Hbond>
4.7913

> <Gold.PLP.Chemscore.CHOScore>
0.0000

> <Gold.PLP.Chemscore.Metal>
0.0000

> <Gold.Chemscore.Hbonds>
donor molecule, donor type, donor heavy atom, donor atom, acceptor molecule, acceptor atom, score
      L1  H     5    25       P1  7957  1.00
      L1  H    11    42       P1  7948  2.00
      P1  H  7989  7998       L1    19  0.62
      P1  H  7997  8008       L1    20  1.00

> <Gold.PLP.Chemscore.Internal.Correction>
0.0499

> <Gold.Rescore>
     Score         DG    S(hbond)    S(metal)    S(lipo)     H(rot)  DE(clash)    DE(int)     intcor
     14.73     -17.49       2.99        0.00      51.84       1.58       0.34       2.43       ----

> <Gold.Chemscore.Fitness>
14.7251

> <Gold.Chemscore.DG>
-17.4937

> <Gold.Chemscore.ZeroCoef>
-5.4800

> <Gold.Chemscore.Hbond>
2.9913

> <Gold.Chemscore.Metal>
0.0000

> <Gold.Chemscore.Lipo>
51.8427

> <Gold.Chemscore.Internal_Hbond>
0.0000

> <Gold.Chemscore.DEClash>
0.3379

> <Gold.Chemscore.DEInternal>
2.4307

> <Gold.Chemscore.Rot>
1.5792

> <Gold.Chemscore.Internal.Correction>
   9.000000E+99

> <Gold.Chemscore.Hbonds>
donor molecule, donor type, donor heavy atom, donor atom, acceptor molecule, acceptor atom, score
      L1  H     5    25       P1  7957  0.94
      L1  H    11    42       P1  7948  1.00
      P1  H  7989  7998       L1    19  0.05
      P1  H  7997  8008       L1    20  0.97

> <Gold.Chemscore.Hbond.Weighted>
-9.9909

> <Gold.Chemscore.Metal.Weighted>
-0.0000

> <Gold.Chemscore.Lipo.Weighted>
-6.0656

> <Gold.Chemscore.Internal_Hbond.Weighted>
0.0000

> <Gold.Chemscore.DEClash.Weighted>
0.3379

> <Gold.Chemscore.DEInternal.Weighted>
2.4307

> <Gold.Chemscore.Rot.Weighted>
4.0428

> <Gold.Chemscore.Internal.Correction.Weighted>
   9.000000E+99

> <Gold.Protein.RotatedTorsions>
[ 6907 6896 6895 6894 ] final  165.63 input  -60.11 | X-H torsion
[ 7974 7965 7964 7962 ] final   20.36 input  175.53 | X-H torsion
[ 8008 7997 7996 7995 ] final  -24.94 input   59.86 | X-H torsion
[ 10167 10162 10161 10158 ] final  146.82 input  -65.29 | X-H torsion
[ 10718 10713 10712 10709 ] final   79.24 input   66.30 | X-H torsion
[ 10763 10752 10751 10750 ] final  -45.39 input  -60.55 | X-H torsion
[ 11005 11000 10999 10996 ] final  -48.32 input  -57.11 | X-H torsion

> <Gold.Protein.ActiveResidues>
 VAL166  LYS551  ARG553  GLY616  TRP617  ASP618  TYR619  PRO620  LYS621  CYS622 
 ASP623  PHE694  ASN695  SER759  ASP760  ASP761  ALA762  ILE779  LEU786  VAL792 
 PHE793  MET794  SER795  GLU796  ALA797  LYS798  CYS799  TRP800  GLU811  SER814 

> <Gold.Protein.RotatedAtoms>
  151.8915  133.3517  159.3799 H   0  0  0  0  0  0  0  0  0  0  0  0  # atno 6907 bound_to 6896
  150.7102  134.4919  159.5529 H   0  0  0  0  0  0  0  0  0  0  0  0  # atno 6908 bound_to 6896
  152.2490  134.8152  160.0500 H   0  0  0  0  0  0  0  0  0  0  0  0  # atno 6909 bound_to 6896
  146.2114  139.8180  142.8686 H   0  0  0  0  0  0  0  0  0  0  0  0  # atno 7974 bound_to 7965
  154.4502  140.1940  156.0542 H   0  0  0  0  0  0  0  0  0  0  0  0  # atno 8008 bound_to 7997
  156.0631  140.3294  155.7458 H   0  0  0  0  0  0  0  0  0  0  0  0  # atno 8009 bound_to 7997
  155.5380  140.0584  157.2866 H   0  0  0  0  0  0  0  0  0  0  0  0  # atno 8010 bound_to 7997
  139.4900  144.5801  151.6888 H   0  0  0  0  0  0  0  0  0  0  0  0  # atno 10167 bound_to 10162
  157.6770  130.9905  150.1904 H   0  0  0  0  0  0  0  0  0  0  0  0  # atno 10718 bound_to 10713
  154.0278  135.6660  153.4778 H   0  0  0  0  0  0  0  0  0  0  0  0  # atno 10763 bound_to 10752
  153.0553  135.5060  154.7961 H   0  0  0  0  0  0  0  0  0  0  0  0  # atno 10764 bound_to 10752
  154.6897  135.3059  154.9462 H   0  0  0  0  0  0  0  0  0  0  0  0  # atno 10765 bound_to 10752
  141.0693  133.6684  156.3424 H   0  0  0  0  0  0  0  0  0  0  0  0  # atno 11005 bound_to 11000
  145.3126  141.0224  143.3546 LP  0  0  0  0  0  0  0  0  0  0  0  0  # atno 17320 bound_to 7965
  144.8925  139.4756  143.6671 LP  0  0  0  0  0  0  0  0  0  0  0  0  # atno 17321 bound_to 7965
  140.5405  144.0586  150.6087 LP  0  0  0  0  0  0  0  0  0  0  0  0  # atno 17342 bound_to 10162
  140.3607  143.2910  152.0387 LP  0  0  0  0  0  0  0  0  0  0  0  0  # atno 17343 bound_to 10162
  156.2616  130.3711  149.8124 LP  0  0  0  0  0  0  0  0  0  0  0  0  # atno 17370 bound_to 10713
  156.5867  130.8489  151.3397 LP  0  0  0  0  0  0  0  0  0  0  0  0  # atno 17371 bound_to 10713
  140.5706  134.5844  157.5456 LP  0  0  0  0  0  0  0  0  0  0  0  0  # atno 17394 bound_to 11000
  139.9508  134.7621  156.0454 LP  0  0  0  0  0  0  0  0  0  0  0  0  # atno 17395 bound_to 11000

$$$$
