AV-unprocessed.smi:1260|AV-procd|sdf|5295|dock7
  -GOLD-   22720 4413D 1   1.00000     0.00000
 Structure written by MMmdl.
 37 39  0  0  0  0  0  0  0  0  2 V2000
  151.4894  139.8707  154.7831 O   0  0  0  0  0  0  0  0  0  0  0  0
  150.8643  139.1022  155.5128 C   0  0  0  0  0  0  0  0  0  0  0  0
  151.2018  137.6096  155.5169 C   0  0  0  0  0  0  0  0  0  0  0  0
  151.6909  137.1768  156.8130 N   0  0  0  0  0  0  0  0  0  0  0  0
  151.1484  137.2660  158.0292 C   0  0  0  0  0  0  0  0  0  0  0  0
  151.9423  136.7548  158.9574 N   0  0  0  0  0  0  0  0  0  0  0  0
  153.0405  136.3262  158.2306 N   0  0  0  0  0  0  0  0  0  0  0  0
  152.8972  136.5740  156.9576 N   0  0  0  0  0  0  0  0  0  0  0  0
  149.8670  139.4989  156.3195 N   0  0  0  0  0  0  0  0  0  0  0  0
  149.3970  140.8729  156.4658 C   0  0  2  0  0  0  0  0  0  0  0  0
  148.9985  141.2176  157.9119 C   0  0  0  0  0  0  0  0  0  0  0  0
  147.7517  142.1160  157.7906 C   0  0  0  0  0  0  0  0  0  0  0  0
  147.5643  142.3313  156.3431 N   0  3  2  0  0  0  0  0  0  0  0  0
  146.1999  142.6715  155.8840 C   0  0  0  0  0  0  0  0  0  0  0  0
  146.2256  142.9370  154.3653 C   0  0  0  0  0  0  0  0  0  0  0  0
  146.8659  141.7676  153.5898 C   0  0  0  0  0  0  0  0  0  0  0  0
  148.2433  141.3996  154.1742 C   0  0  0  0  0  0  0  0  0  0  0  0
  148.1077  141.1344  155.6831 C   0  0  1  0  0  0  0  0  0  0  0  0
  150.3126  137.0313  155.2624 H   0  0  0  0  0  0  0  0  0  0  0  0
  151.9569  137.3904  154.7602 H   0  0  0  0  0  0  0  0  0  0  0  0
  150.1841  137.7073  158.2329 H   0  0  0  0  0  0  0  0  0  0  0  0
  149.4076  138.7978  156.8827 H   0  0  0  0  0  0  0  0  0  0  0  0
  150.1672  141.5783  156.1460 H   0  0  0  0  0  0  0  0  0  0  0  0
  148.7521  140.3216  158.4837 H   0  0  0  0  0  0  0  0  0  0  0  0
  149.8131  141.7227  158.4321 H   0  0  0  0  0  0  0  0  0  0  0  0
  146.8827  141.6065  158.2100 H   0  0  0  0  0  0  0  0  0  0  0  0
  147.8705  143.0666  158.3112 H   0  0  0  0  0  0  0  0  0  0  0  0
  145.5145  141.8555  156.1178 H   0  0  0  0  0  0  0  0  0  0  0  0
  145.8441  143.5550  156.4150 H   0  0  0  0  0  0  0  0  0  0  0  0
  145.2140  143.1180  154.0004 H   0  0  0  0  0  0  0  0  0  0  0  0
  146.7908  143.8489  154.1688 H   0  0  0  0  0  0  0  0  0  0  0  0
  146.2087  140.8983  153.6380 H   0  0  0  0  0  0  0  0  0  0  0  0
  146.9615  142.0243  152.5342 H   0  0  0  0  0  0  0  0  0  0  0  0
  148.6377  140.5193  153.6661 H   0  0  0  0  0  0  0  0  0  0  0  0
  148.9522  142.2092  153.9960 H   0  0  0  0  0  0  0  0  0  0  0  0
  147.4160  140.3041  155.8449 H   0  0  0  0  0  0  0  0  0  0  0  0
  148.1692  143.0983  156.0856 H   0  0  0  0  0  0  0  0  0  0  0  0
  1  2  2  0  0  0  0
  2  3  1  0  0  0  0
  2  9  1  0  0  0  0
  3  4  1  0  0  0  0
  3 19  1  0  0  0  0
  3 20  1  0  0  0  0
  4  8  1  0  0  0  0
  4  5  1  0  0  0  0
  5  6  2  0  0  0  0
  5 21  1  0  0  0  0
  6  7  1  0  0  0  0
  7  8  2  0  0  0  0
  9 10  1  0  0  0  0
  9 22  1  0  0  0  0
 10 18  1  0  0  0  0
 10 11  1  0  0  0  0
 10 23  1  0  0  0  0
 11 12  1  0  0  0  0
 11 24  1  0  0  0  0
 11 25  1  0  0  0  0
 12 13  1  0  0  0  0
 12 26  1  0  0  0  0
 12 27  1  0  0  0  0
 13 18  1  0  0  0  0
 13 14  1  0  0  0  0
 13 37  1  0  0  0  0
 14 15  1  0  0  0  0
 14 28  1  0  0  0  0
 14 29  1  0  0  0  0
 15 16  1  0  0  0  0
 15 30  1  0  0  0  0
 15 31  1  0  0  0  0
 16 17  1  0  0  0  0
 16 32  1  0  0  0  0
 16 33  1  0  0  0  0
 17 18  1  0  0  0  0
 17 34  1  0  0  0  0
 17 35  1  0  0  0  0
 18 36  1  0  0  0  0
M  CHG  1  13   1
M  END
> <s_m_source_file>
AV-unprocessed.smi

> <i_m_source_file_index>
1260

> <i_lp_mmshare_version>
43012

> <i_f3d_flags>
0

> <s_epik_input>
bjFubltjSF1uMVtDSDJdQyg9TylbTkhdW0NASF0oW0NIMl1bQ0gyXTIpW0NAQEhdKE4yMylbQ0gyXVtDSDJdW0NIMl1bQ0gyXTM=

> <s_epik_cmdline>
J2VwaWtfcHl0aG9uJywgJy1waCcsICc3LjAnLCAnLXRuJywgJzgnLCAnLW1hJywgJzIwMCcsICctbWV0YWxfYmluZGluZycsICctaW1hZScsICc8aW5maWxlLm1hZT4nLCAnLW9tYWUnLCAnPG91dGZpbGUubWFlPic=

> <r_lp_tautomer_probability>
1

> <r_epik_Ionization_Penalty>
0.00234324

> <r_epik_Ionization_Penalty_Charging>
0.00233897

> <r_epik_Ionization_Penalty_Neutral>
4.26861e-06

> <r_epik_State_Penalty>
0.00161477

> <r_epik_Charging_Adjusted_Penalty>
0.00395374

> <i_epik_Tot_Q>
1

> <i_epik_Tot_abs_Q>
1

> <r_epik_Metal_State_Penalty>
-0

> <b_epik_Metal_Only>
0

> <s_lp_Force_Field>
OPLS_2005

> <r_lp_Energy>
37.0555

> <b_lp_Chiralities_Consistent>
1

> <s_lp_Variant>
AV-unprocessed.smi:1260-3

> <Gold.Version>
5.8.1

> <Gold.Id.Protein>
6NUR|6NUR_protein|mol2

> <Gold.PLP.Fitness>
40.0236

> <Gold.PLP.PLP>
-26.2033

> <Gold.PLP.part.hbond>
-4.6271

> <Gold.PLP.part.metal>
0.0000

> <Gold.PLP.part.buried>
-6.3807

> <Gold.PLP.part.nonpolar>
-16.2021

> <Gold.PLP.part.repulsive>
0.1044

> <Gold.PLP.ligand.clash>
0.0000

> <Gold.PLP.ligand.torsion>
0.3192

> <Gold.PLP.Chemscore.Hbond>
4.8160

> <Gold.PLP.Chemscore.CHOScore>
0.0000

> <Gold.PLP.Chemscore.Metal>
0.0000

> <Gold.Chemscore.Hbonds>
donor molecule, donor type, donor heavy atom, donor atom, acceptor molecule, acceptor atom, score
      L1  H    13    37       P1  8028  2.00
      P1  H  6896  6907       L1     6  0.90
      P1  H  7989  7998       L1     1  1.00
      P1  H 10752 10764       L1     8  0.76

> <Gold.PLP.Chemscore.Internal.Correction>
0.0107

> <Gold.Rescore>
     Score         DG    S(hbond)    S(metal)    S(lipo)     H(rot)  DE(clash)    DE(int)     intcor
     16.56     -17.02       3.38        0.00      45.24       1.98       0.20       0.26       ----

> <Gold.Chemscore.Fitness>
16.5625

> <Gold.Chemscore.DG>
-17.0191

> <Gold.Chemscore.ZeroCoef>
-5.4800

> <Gold.Chemscore.Hbond>
3.3842

> <Gold.Chemscore.Metal>
0.0000

> <Gold.Chemscore.Lipo>
45.2448

> <Gold.Chemscore.Internal_Hbond>
0.0000

> <Gold.Chemscore.DEClash>
0.2010

> <Gold.Chemscore.DEInternal>
0.2555

> <Gold.Chemscore.Rot>
1.9757

> <Gold.Chemscore.Internal.Correction>
   9.000000E+99

> <Gold.Chemscore.Hbonds>
donor molecule, donor type, donor heavy atom, donor atom, acceptor molecule, acceptor atom, score
      L1  H    13    37       P1  8028  0.70
      P1  H  6896  6907       L1     6  0.22
      P1  H  7989  7998       L1     1  0.99
      P1  H 10752 10764       L1     8  0.71

> <Gold.Chemscore.Hbond.Weighted>
-11.3032

> <Gold.Chemscore.Metal.Weighted>
-0.0000

> <Gold.Chemscore.Lipo.Weighted>
-5.2936

> <Gold.Chemscore.Internal_Hbond.Weighted>
0.0000

> <Gold.Chemscore.DEClash.Weighted>
0.2010

> <Gold.Chemscore.DEInternal.Weighted>
0.2555

> <Gold.Chemscore.Rot.Weighted>
5.0578

> <Gold.Chemscore.Internal.Correction.Weighted>
   9.000000E+99

> <Gold.Protein.RotatedTorsions>
[ 6907 6896 6895 6894 ] final   -1.52 input  -60.11 | X-H torsion
[ 7974 7965 7964 7962 ] final  -83.94 input  175.53 | X-H torsion
[ 8008 7997 7996 7995 ] final  148.62 input   59.86 | X-H torsion
[ 10167 10162 10161 10158 ] final   30.01 input  -65.29 | X-H torsion
[ 10718 10713 10712 10709 ] final -161.18 input   66.30 | X-H torsion
[ 10763 10752 10751 10750 ] final    4.83 input  -60.55 | X-H torsion
[ 11005 11000 10999 10996 ] final  119.23 input  -57.11 | X-H torsion

> <Gold.Protein.ActiveResidues>
 VAL166  LYS551  ARG553  GLY616  TRP617  ASP618  TYR619  PRO620  LYS621  CYS622 
 ASP623  PHE694  ASN695  SER759  ASP760  ASP761  ALA762  ILE779  LEU786  VAL792 
 PHE793  MET794  SER795  GLU796  ALA797  LYS798  CYS799  TRP800  GLU811  SER814 

> <Gold.Protein.RotatedAtoms>
  151.5447  135.1068  159.9934 H   0  0  0  0  0  0  0  0  0  0  0  0  # atno 6907 bound_to 6896
  152.4519  133.7642  159.6774 H   0  0  0  0  0  0  0  0  0  0  0  0  # atno 6908 bound_to 6896
  150.8450  133.7809  159.3071 H   0  0  0  0  0  0  0  0  0  0  0  0  # atno 6909 bound_to 6896
  145.5133  140.9538  143.1695 H   0  0  0  0  0  0  0  0  0  0  0  0  # atno 7974 bound_to 7965
  156.2784  140.2123  156.5728 H   0  0  0  0  0  0  0  0  0  0  0  0  # atno 8008 bound_to 7997
  154.7122  140.0511  157.0583 H   0  0  0  0  0  0  0  0  0  0  0  0  # atno 8009 bound_to 7997
  155.0591  140.3164  155.4669 H   0  0  0  0  0  0  0  0  0  0  0  0  # atno 8010 bound_to 7997
  140.4715  144.0755  150.6239 H   0  0  0  0  0  0  0  0  0  0  0  0  # atno 10167 bound_to 10162
  156.5925  130.8776  151.2893 H   0  0  0  0  0  0  0  0  0  0  0  0  # atno 10718 bound_to 10713
  153.2666  135.6928  153.7523 H   0  0  0  0  0  0  0  0  0  0  0  0  # atno 10763 bound_to 10752
  153.6562  135.3368  155.3115 H   0  0  0  0  0  0  0  0  0  0  0  0  # atno 10764 bound_to 10752
  154.8449  135.4466  154.1674 H   0  0  0  0  0  0  0  0  0  0  0  0  # atno 10765 bound_to 10752
  139.9139  134.9627  156.7623 H   0  0  0  0  0  0  0  0  0  0  0  0  # atno 11005 bound_to 11000
  144.7716  139.6723  143.7192 LP  0  0  0  0  0  0  0  0  0  0  0  0  # atno 17320 bound_to 7965
  146.2153  139.5538  142.9654 LP  0  0  0  0  0  0  0  0  0  0  0  0  # atno 17321 bound_to 7965
  140.3971  143.2723  151.9992 LP  0  0  0  0  0  0  0  0  0  0  0  0  # atno 17342 bound_to 10162
  139.4819  144.6029  151.7573 LP  0  0  0  0  0  0  0  0  0  0  0  0  # atno 17343 bound_to 10162
  157.7300  130.9679  150.1812 LP  0  0  0  0  0  0  0  0  0  0  0  0  # atno 17370 bound_to 10713
  156.2537  130.3703  149.8204 LP  0  0  0  0  0  0  0  0  0  0  0  0  # atno 17371 bound_to 10713
  140.6687  133.9579  155.7844 LP  0  0  0  0  0  0  0  0  0  0  0  0  # atno 17394 bound_to 11000
  141.0593  134.0370  157.3680 LP  0  0  0  0  0  0  0  0  0  0  0  0  # atno 17395 bound_to 11000

$$$$
