AV-unprocessed.smi:72|AV-procd|sdf|704|dock10
  -GOLD-   2262017 23D 1   1.00000     0.00000
 Structure written by MMmdl.
 30 31  0  0  0  0  0  0  0  0  2 V2000
  140.1138  139.4348  153.1338 N   0  0  0  0  0  0  0  0  0  0  0  0
  140.8462  138.2663  153.1074 C   0  0  0  0  0  0  0  0  0  0  0  0
  142.1295  138.3236  152.5958 N   0  3  0  0  0  0  0  0  0  0  0  0
  142.9753  137.2876  152.5156 C   0  0  0  0  0  0  0  0  0  0  0  0
  142.5965  136.1116  152.9800 N   0  0  0  0  0  0  0  0  0  0  0  0
  143.4992  134.8987  152.9188 C   0  0  1  0  0  0  0  0  0  0  0  0
  143.2415  134.2112  151.7368 O   0  0  0  0  0  0  0  0  0  0  0  0
  144.0786  134.7260  150.7096 C   0  0  2  0  0  0  0  0  0  0  0  0
  144.1401  133.7365  149.5371 C   0  0  0  0  0  0  0  0  0  0  0  0
  143.6810  134.3653  148.3596 O   0  0  0  0  0  0  0  0  0  0  0  0
  145.4100  134.9013  151.4443 C   0  0  1  0  0  0  0  0  0  0  0  0
  146.1634  135.9333  150.8406 O   0  0  0  0  0  0  0  0  0  0  0  0
  144.9901  135.3014  152.8593 C   0  0  2  0  0  0  0  0  0  0  0  0
  145.7547  134.5997  153.8178 O   0  0  0  0  0  0  0  0  0  0  0  0
  141.2705  135.9420  153.4589 C   0  0  0  0  0  0  0  0  0  0  0  0
  140.8737  134.8325  153.8125 O   0  0  0  0  0  0  0  0  0  0  0  0
  140.4611  137.0861  153.5063 N   0  0  0  0  0  0  0  0  0  0  0  0
  143.2191  134.2980  153.7862 H   0  0  0  0  0  0  0  0  0  0  0  0
  143.7110  135.6999  150.3793 H   0  0  0  0  0  0  0  0  0  0  0  0
  145.9713  133.9650  151.4455 H   0  0  0  0  0  0  0  0  0  0  0  0
  145.1034  136.3742  153.0226 H   0  0  0  0  0  0  0  0  0  0  0  0
  139.1664  139.4852  153.4814 H   0  0  0  0  0  0  0  0  0  0  0  0
  140.4604  140.3264  152.8097 H   0  0  0  0  0  0  0  0  0  0  0  0
  143.9427  137.4452  152.0573 H   0  0  0  0  0  0  0  0  0  0  0  0
  145.1703  133.4244  149.3627 H   0  0  0  0  0  0  0  0  0  0  0  0
  143.5582  132.8374  149.7422 H   0  0  0  0  0  0  0  0  0  0  0  0
  144.4056  134.4403  147.7570 H   0  0  0  0  0  0  0  0  0  0  0  0
  147.0786  135.7826  151.0236 H   0  0  0  0  0  0  0  0  0  0  0  0
  145.3650  133.7495  153.9539 H   0  0  0  0  0  0  0  0  0  0  0  0
  142.4501  139.2174  152.2514 H   0  0  0  0  0  0  0  0  0  0  0  0
  1  2  1  0  0  0  0
  1 22  1  0  0  0  0
  1 23  1  0  0  0  0
  2 17  2  0  0  0  0
  2  3  1  0  0  0  0
  3  4  2  0  0  0  0
  3 30  1  0  0  0  0
  4  5  1  0  0  0  0
  4 24  1  0  0  0  0
  5  6  1  0  0  0  0
  5 15  1  0  0  0  0
  6 18  1  0  0  0  0
  6 13  1  0  0  0  0
  6  7  1  0  0  0  0
  7  8  1  0  0  0  0
  8 19  1  0  0  0  0
  8  9  1  0  0  0  0
  8 11  1  0  0  0  0
  9 10  1  0  0  0  0
  9 25  1  0  0  0  0
  9 26  1  0  0  0  0
 10 27  1  0  0  0  0
 11 20  1  0  0  0  0
 11 12  1  0  0  0  0
 11 13  1  0  0  0  0
 12 28  1  0  0  0  0
 13 21  1  0  0  0  0
 13 14  1  0  0  0  0
 14 29  1  0  0  0  0
 15 16  2  0  0  0  0
 15 17  1  0  0  0  0
M  CHG  1   3   1
M  END
> <s_m_source_file>
AV-unprocessed.smi

> <i_m_source_file_index>
72

> <i_lp_mmshare_version>
43012

> <i_f3d_flags>
0

> <s_epik_input>
W05IMl1jMW5bY0hdbihjKD1PKW4xKVtDQEBIXTJPW0NASF0oW0NIMl1bT0hdKVtDQEBIXShbT0hdKVtDQEhdMltPSF0=

> <s_epik_cmdline>
J2VwaWtfcHl0aG9uJywgJy1waCcsICc3LjAnLCAnLXRuJywgJzgnLCAnLW1hJywgJzIwMCcsICctbWV0YWxfYmluZGluZycsICctaW1hZScsICc8aW5maWxlLm1hZT4nLCAnLW9tYWUnLCAnPG91dGZpbGUubWFlPic=

> <r_lp_tautomer_probability>
4.77166e-05

> <r_epik_Ionization_Penalty>
0.104979

> <r_epik_Ionization_Penalty_Charging>
0.0999619

> <r_epik_Ionization_Penalty_Neutral>
0.00501745

> <r_epik_State_Penalty>
2.51541

> <r_epik_Charging_Adjusted_Penalty>
2.61537

> <i_epik_Tot_Q>
1

> <i_epik_Tot_abs_Q>
1

> <r_epik_Metal_State_Penalty>
3.53763

> <b_epik_Metal_Only>
0

> <s_epik_Chemistry_Notes>
This compound contains an acetal/aminal-like group ( X-CH(R)-Y where X, Y are N, S, or O) that may be acid/base labile, releasing an aldehyde.

> <s_lp_Force_Field>
OPLS_2005

> <r_lp_Energy>
25.3677

> <b_lp_Chiralities_Consistent>
1

> <s_lp_Variant>
AV-unprocessed.smi:72-42

> <Gold.Version>
5.8.1

> <Gold.Id.Protein>
6NUR|6NUR_protein|mol2

> <Gold.PLP.Fitness>
42.2797

> <Gold.PLP.PLP>
-26.1343

> <Gold.PLP.part.hbond>
-7.2784

> <Gold.PLP.part.metal>
0.0000

> <Gold.PLP.part.buried>
-2.2355

> <Gold.PLP.part.nonpolar>
-16.3178

> <Gold.PLP.part.repulsive>
0.5952

> <Gold.PLP.ligand.clash>
0.0000

> <Gold.PLP.ligand.torsion>
1.4074

> <Gold.PLP.Chemscore.Hbond>
5.7331

> <Gold.PLP.Chemscore.CHOScore>
0.5713

> <Gold.PLP.Chemscore.Metal>
0.0000

> <Gold.Chemscore.Hbonds>
donor molecule, donor type, donor heavy atom, donor atom, acceptor molecule, acceptor atom, score
      L1  H     1    23       P1 10160  0.29
      L1  H     3    30       P1 10175  1.82
      L1  H    10    27       P1  7921  0.91
      L1  H    12    28       P1  7948  0.96
      P1  H 10192 10197       L1    10  0.57
      P1  H 11000 11005       L1    16  0.91
      L1  C     4    24       P1 10171  0.68

> <Gold.PLP.Chemscore.Internal.Correction>
0.0472

> <Gold.Rescore>
     Score         DG    S(hbond)    S(metal)    S(lipo)     H(rot)  DE(clash)    DE(int)     intcor
      9.58     -11.04       4.05        0.00      21.10       4.08       0.15       1.31       ----

> <Gold.Chemscore.Fitness>
9.5820

> <Gold.Chemscore.DG>
-11.0397

> <Gold.Chemscore.ZeroCoef>
-5.4800

> <Gold.Chemscore.Hbond>
4.0514

> <Gold.Chemscore.Metal>
0.0000

> <Gold.Chemscore.Lipo>
21.0987

> <Gold.Chemscore.Internal_Hbond>
0.0000

> <Gold.Chemscore.DEClash>
0.1513

> <Gold.Chemscore.DEInternal>
1.3064

> <Gold.Chemscore.Rot>
4.0783

> <Gold.Chemscore.Internal.Correction>
   9.000000E+99

> <Gold.Chemscore.Hbonds>
donor molecule, donor type, donor heavy atom, donor atom, acceptor molecule, acceptor atom, score
      L1  H     1    23       P1 10160  0.28
      L1  H     3    30       P1 10175  0.67
      L1  H    10    27       P1  7921  0.90
      L1  H    12    28       P1  7948  0.83
      P1  H 10192 10197       L1    10  0.17
      P1  H 11000 11005       L1    16  0.88

> <Gold.Chemscore.Hbond.Weighted>
-13.5316

> <Gold.Chemscore.Metal.Weighted>
-0.0000

> <Gold.Chemscore.Lipo.Weighted>
-2.4685

> <Gold.Chemscore.Internal_Hbond.Weighted>
0.0000

> <Gold.Chemscore.DEClash.Weighted>
0.1513

> <Gold.Chemscore.DEInternal.Weighted>
1.3064

> <Gold.Chemscore.Rot.Weighted>
10.4404

> <Gold.Chemscore.Internal.Correction.Weighted>
   9.000000E+99

> <Gold.Protein.RotatedTorsions>
[ 6907 6896 6895 6894 ] final  -50.80 input  -60.11 | X-H torsion
[ 7974 7965 7964 7962 ] final  106.42 input  175.53 | X-H torsion
[ 8008 7997 7996 7995 ] final   22.88 input   59.86 | X-H torsion
[ 10167 10162 10161 10158 ] final  -55.20 input  -65.29 | X-H torsion
[ 10718 10713 10712 10709 ] final  130.16 input   66.30 | X-H torsion
[ 10763 10752 10751 10750 ] final   70.38 input  -60.55 | X-H torsion
[ 11005 11000 10999 10996 ] final   13.40 input  -57.11 | X-H torsion

> <Gold.Protein.ActiveResidues>
 VAL166  LYS551  ARG553  GLY616  TRP617  ASP618  TYR619  PRO620  LYS621  CYS622 
 ASP623  PHE694  ASN695  SER759  ASP760  ASP761  ALA762  ILE779  LEU786  VAL792 
 PHE793  MET794  SER795  GLU796  ALA797  LYS798  CYS799  TRP800  GLU811  SER814 

> <Gold.Protein.RotatedAtoms>
  150.8673  134.8039  159.7127 H   0  0  0  0  0  0  0  0  0  0  0  0  # atno 6907 bound_to 6896
  152.4690  134.5004  159.9733 H   0  0  0  0  0  0  0  0  0  0  0  0  # atno 6908 bound_to 6896
  151.5098  133.3449  159.2918 H   0  0  0  0  0  0  0  0  0  0  0  0  # atno 6909 bound_to 6896
  145.3069  139.2552  143.3784 H   0  0  0  0  0  0  0  0  0  0  0  0  # atno 7974 bound_to 7965
  154.9725  140.3092  155.4982 H   0  0  0  0  0  0  0  0  0  0  0  0  # atno 8008 bound_to 7997
  156.2964  140.2281  156.4757 H   0  0  0  0  0  0  0  0  0  0  0  0  # atno 8009 bound_to 7997
  154.7864  140.0442  157.1155 H   0  0  0  0  0  0  0  0  0  0  0  0  # atno 8010 bound_to 7997
  140.6388  143.2496  151.5045 H   0  0  0  0  0  0  0  0  0  0  0  0  # atno 10167 bound_to 10162
  157.5088  131.1096  150.9323 H   0  0  0  0  0  0  0  0  0  0  0  0  # atno 10718 bound_to 10713
  153.0339  135.5176  154.7433 H   0  0  0  0  0  0  0  0  0  0  0  0  # atno 10763 bound_to 10752
  154.6426  135.2914  155.0088 H   0  0  0  0  0  0  0  0  0  0  0  0  # atno 10764 bound_to 10752
  154.1000  135.6637  153.4919 H   0  0  0  0  0  0  0  0  0  0  0  0  # atno 10765 bound_to 10752
  140.4812  134.0934  155.7751 H   0  0  0  0  0  0  0  0  0  0  0  0  # atno 11005 bound_to 11000
  146.3132  140.3596  142.8663 LP  0  0  0  0  0  0  0  0  0  0  0  0  # atno 17320 bound_to 7965
  144.9047  140.7686  143.5845 LP  0  0  0  0  0  0  0  0  0  0  0  0  # atno 17321 bound_to 7965
  139.5598  144.2185  152.1672 LP  0  0  0  0  0  0  0  0  0  0  0  0  # atno 17342 bound_to 10162
  140.1450  144.5167  150.6721 LP  0  0  0  0  0  0  0  0  0  0  0  0  # atno 17343 bound_to 10162
  156.9970  130.5585  149.5308 LP  0  0  0  0  0  0  0  0  0  0  0  0  # atno 17370 bound_to 10713
  156.0275  130.5368  150.8447 LP  0  0  0  0  0  0  0  0  0  0  0  0  # atno 17371 bound_to 10713
  141.1530  133.8933  157.2049 LP  0  0  0  0  0  0  0  0  0  0  0  0  # atno 17394 bound_to 11000
  139.9825  135.0093  156.9785 LP  0  0  0  0  0  0  0  0  0  0  0  0  # atno 17395 bound_to 11000

$$$$
