AV-unprocessed.smi:287|AV-procd|sdf|2201|dock7
  -GOLD-   2262022 13D 1   1.00000     0.00000
 Structure written by MMmdl.
 55 58  0  0  0  0  0  0  0  0  1 V2000
  151.1799  129.1356  154.4876 C   0  0  0  0  0  0  0  0  0  0  0  0
  150.7174  130.5291  154.7424 C   0  0  0  0  0  0  0  0  0  0  0  0
  151.1494  131.5329  155.5591 C   0  0  0  0  0  0  0  0  0  0  0  0
  150.2829  132.6487  155.3585 C   0  0  0  0  0  0  0  0  0  0  0  0
  150.3863  133.9959  156.0610 C   0  0  1  0  0  0  0  0  0  0  0  0
  149.1548  134.2130  156.9560 C   0  0  0  0  0  0  0  0  0  0  0  0
  151.4993  134.0800  156.9303 O   0  0  0  0  0  0  0  0  0  0  0  0
  150.5310  135.1685  155.0644 C   0  0  0  0  0  0  0  0  0  0  0  0
  150.0595  136.4360  155.6075 N   0  0  0  0  0  0  0  0  0  0  0  0
  150.9000  137.4781  155.7760 C   0  0  0  0  0  0  0  0  0  0  0  0
  151.9890  137.4813  154.9710 N   0  0  0  0  0  0  0  0  0  0  0  0
  152.8824  138.4703  155.0537 C   0  0  0  0  0  0  0  0  0  0  0  0
  152.8759  139.5333  155.8587 N   0  0  0  0  0  0  0  0  0  0  0  0
  151.7842  139.5387  156.6772 C   0  0  0  0  0  0  0  0  0  0  0  0
  150.7533  138.5549  156.7011 C   0  0  0  0  0  0  0  0  0  0  0  0
  149.8130  138.9023  157.6658 N   0  0  0  0  0  0  0  0  0  0  0  0
  150.2623  140.0180  158.1720 C   0  0  0  0  0  0  0  0  0  0  0  0
  151.4467  140.4709  157.6383 N   0  0  0  0  0  0  0  0  0  0  0  0
  152.2028  141.7074  158.0152 C   0  0  2  0  0  0  0  0  0  0  0  0
  152.4964  141.6456  159.3751 O   0  0  0  0  0  0  0  0  0  0  0  0
  152.4465  142.9578  159.9212 C   0  0  2  0  0  0  0  0  0  0  0  0
  152.3146  142.9167  161.4541 C   0  0  0  0  0  0  0  0  0  0  0  0
  152.0120  144.2036  161.9491 O   0  0  0  0  0  0  0  0  0  0  0  0
  151.2725  143.6028  159.1698 C   0  0  2  0  0  0  0  0  0  0  0  0
  150.0356  143.2850  159.7853 O   0  0  0  0  0  0  0  0  0  0  0  0
  151.4075  143.0078  157.7683 C   0  0  2  0  0  0  0  0  0  0  0  0
  150.1718  142.8563  157.0882 O   0  0  0  0  0  0  0  0  0  0  0  0
  149.3824  132.2269  154.4096 C   0  0  0  0  0  0  0  0  0  0  0  0
  148.2192  132.8659  153.7247 C   0  0  0  0  0  0  0  0  0  0  0  0
  149.6374  130.9426  154.0333 O   0  0  0  0  0  0  0  0  0  0  0  0
  153.1218  141.6596  157.4292 H   0  0  0  0  0  0  0  0  0  0  0  0
  153.3602  143.4841  159.6372 H   0  0  0  0  0  0  0  0  0  0  0  0
  151.3627  144.6893  159.1526 H   0  0  0  0  0  0  0  0  0  0  0  0
  152.0452  143.6576  157.1677 H   0  0  0  0  0  0  0  0  0  0  0  0
  151.9228  128.8313  155.2249 H   0  0  0  0  0  0  0  0  0  0  0  0
  151.6312  129.0537  153.4986 H   0  0  0  0  0  0  0  0  0  0  0  0
  150.3465  128.4346  154.5395 H   0  0  0  0  0  0  0  0  0  0  0  0
  151.9926  131.4736  156.2314 H   0  0  0  0  0  0  0  0  0  0  0  0
  148.2343  134.2056  156.3713 H   0  0  0  0  0  0  0  0  0  0  0  0
  149.2023  135.1704  157.4766 H   0  0  0  0  0  0  0  0  0  0  0  0
  149.0695  133.4301  157.7107 H   0  0  0  0  0  0  0  0  0  0  0  0
  152.0766  134.7576  156.6136 H   0  0  0  0  0  0  0  0  0  0  0  0
  151.5893  135.2932  154.8317 H   0  0  0  0  0  0  0  0  0  0  0  0
  150.0229  134.9441  154.1254 H   0  0  0  0  0  0  0  0  0  0  0  0
  149.0870  136.4591  155.8793 H   0  0  0  0  0  0  0  0  0  0  0  0
  153.7227  138.4000  154.3788 H   0  0  0  0  0  0  0  0  0  0  0  0
  149.7390  140.5426  158.9581 H   0  0  0  0  0  0  0  0  0  0  0  0
  151.4963  142.2567  161.7433 H   0  0  0  0  0  0  0  0  0  0  0  0
  153.2229  142.5352  161.9218 H   0  0  0  0  0  0  0  0  0  0  0  0
  151.2113  144.1522  162.4486 H   0  0  0  0  0  0  0  0  0  0  0  0
  149.4738  144.0444  159.7326 H   0  0  0  0  0  0  0  0  0  0  0  0
  149.8977  143.7030  156.7705 H   0  0  0  0  0  0  0  0  0  0  0  0
  148.5190  133.7957  153.2409 H   0  0  0  0  0  0  0  0  0  0  0  0
  147.4284  133.0943  154.4393 H   0  0  0  0  0  0  0  0  0  0  0  0
  147.8018  132.2108  152.9596 H   0  0  0  0  0  0  0  0  0  0  0  0
  1  2  1  0  0  0  0
  1 35  1  0  0  0  0
  1 36  1  0  0  0  0
  1 37  1  0  0  0  0
  2 30  1  0  0  0  0
  2  3  2  0  0  0  0
  3  4  1  0  0  0  0
  3 38  1  0  0  0  0
  4  5  1  0  0  0  0
  4 28  2  0  0  0  0
  5  6  1  0  0  0  0
  5  7  1  0  0  0  0
  5  8  1  0  0  0  0
  6 39  1  0  0  0  0
  6 40  1  0  0  0  0
  6 41  1  0  0  0  0
  7 42  1  0  0  0  0
  8  9  1  0  0  0  0
  8 43  1  0  0  0  0
  8 44  1  0  0  0  0
  9 10  1  0  0  0  0
  9 45  1  0  0  0  0
 10 15  1  0  0  0  0
 10 11  2  0  0  0  0
 11 12  1  0  0  0  0
 12 13  2  0  0  0  0
 12 46  1  0  0  0  0
 13 14  1  0  0  0  0
 14 18  1  0  0  0  0
 14 15  2  0  0  0  0
 15 16  1  0  0  0  0
 16 17  2  0  0  0  0
 17 18  1  0  0  0  0
 17 47  1  0  0  0  0
 18 19  1  0  0  0  0
 19 31  1  0  0  0  0
 19 26  1  0  0  0  0
 19 20  1  0  0  0  0
 20 21  1  0  0  0  0
 21 32  1  0  0  0  0
 21 22  1  0  0  0  0
 21 24  1  0  0  0  0
 22 23  1  0  0  0  0
 22 48  1  0  0  0  0
 22 49  1  0  0  0  0
 23 50  1  0  0  0  0
 24 33  1  0  0  0  0
 24 25  1  0  0  0  0
 24 26  1  0  0  0  0
 25 51  1  0  0  0  0
 26 34  1  0  0  0  0
 26 27  1  0  0  0  0
 27 52  1  0  0  0  0
 28 29  1  0  0  0  0
 28 30  1  0  0  0  0
 29 53  1  0  0  0  0
 29 54  1  0  0  0  0
 29 55  1  0  0  0  0
M  END
> <s_m_source_file>
AV-unprocessed.smi

> <i_m_source_file_index>
287

> <i_lp_mmshare_version>
43012

> <i_f3d_flags>
0

> <s_epik_input>
W0NIM11jMVtjSF1jKGMobzEpW0NIM10pW0NAQF0oW0NIM10pKFtPSF0pW0NIMl1bTkhdYyhuW2NIXW4yKWMoYzIzKW5bY0hdbjNbQ0BASF00T1tDQEhdKFtDSDJdW09IXSlbQ0BASF0oW09IXSlbQ0BIXTRbT0hd

> <s_epik_cmdline>
J2VwaWtfcHl0aG9uJywgJy1waCcsICc3LjAnLCAnLXRuJywgJzgnLCAnLW1hJywgJzIwMCcsICctbWV0YWxfYmluZGluZycsICctaW1hZScsICc8aW5maWxlLm1hZT4nLCAnLW9tYWUnLCAnPG91dGZpbGUubWFlPic=

> <r_lp_tautomer_probability>
1

> <r_epik_Ionization_Penalty>
0.000992612

> <r_epik_Ionization_Penalty_Charging>
0

> <r_epik_Ionization_Penalty_Neutral>
0.000992612

> <r_epik_State_Penalty>
-0

> <r_epik_Charging_Adjusted_Penalty>
0

> <i_epik_Tot_Q>
0

> <i_epik_Tot_abs_Q>
0

> <r_epik_Metal_State_Penalty>
-0

> <b_epik_Metal_Only>
0

> <s_epik_Chemistry_Notes>
This compound contains an acetal/aminal-like group ( X-CH(R)-Y where X, Y are N, S, or O) that may be acid/base labile, releasing an aldehyde.

> <s_lp_Force_Field>
OPLS_2005

> <r_lp_Energy>
50.9422

> <b_lp_Chiralities_Consistent>
1

> <s_lp_Variant>
AV-unprocessed.smi:287-25

> <Gold.Version>
5.8.1

> <Gold.Id.Protein>
6NUR|6NUR_protein|mol2

> <Gold.PLP.Fitness>
56.3735

> <Gold.PLP.PLP>
-49.6255

> <Gold.PLP.part.hbond>
-6.4902

> <Gold.PLP.part.metal>
0.0000

> <Gold.PLP.part.buried>
-9.8147

> <Gold.PLP.part.nonpolar>
-34.8109

> <Gold.PLP.part.repulsive>
0.2028

> <Gold.PLP.ligand.clash>
0.0000

> <Gold.PLP.ligand.torsion>
0.6585

> <Gold.PLP.Chemscore.Hbond>
2.6292

> <Gold.PLP.Chemscore.CHOScore>
0.0000

> <Gold.PLP.Chemscore.Metal>
0.0000

> <Gold.Chemscore.Hbonds>
donor molecule, donor type, donor heavy atom, donor atom, acceptor molecule, acceptor atom, score
      L1  H    27    52       P1  8028  1.00
      P1  H  6896  6907       L1     7  0.06
      P1  H  7997  8010       L1    13  1.00
      P1  H 10752 10765       L1    11  0.43

> <Gold.PLP.Chemscore.Internal.Correction>
0.1774

> <Gold.Rescore>
     Score         DG    S(hbond)    S(metal)    S(lipo)     H(rot)  DE(clash)    DE(int)     intcor
      9.10     -11.02       2.49        0.00      91.44       5.27       0.26       1.66       ----

> <Gold.Chemscore.Fitness>
9.0988

> <Gold.Chemscore.DG>
-11.0248

> <Gold.Chemscore.ZeroCoef>
-5.4800

> <Gold.Chemscore.Hbond>
2.4942

> <Gold.Chemscore.Metal>
0.0000

> <Gold.Chemscore.Lipo>
91.4356

> <Gold.Chemscore.Internal_Hbond>
0.0000

> <Gold.Chemscore.DEClash>
0.2612

> <Gold.Chemscore.DEInternal>
1.6648

> <Gold.Chemscore.Rot>
5.2672

> <Gold.Chemscore.Internal.Correction>
   9.000000E+99

> <Gold.Chemscore.Hbonds>
donor molecule, donor type, donor heavy atom, donor atom, acceptor molecule, acceptor atom, score
      L1  H    27    52       P1  8028  0.96
      P1  H  6896  6907       L1     7  0.05
      P1  H  7997  8010       L1    13  0.67
      P1  H 10752 10765       L1    11  0.30

> <Gold.Chemscore.Hbond.Weighted>
-8.3308

> <Gold.Chemscore.Metal.Weighted>
-0.0000

> <Gold.Chemscore.Lipo.Weighted>
-10.6980

> <Gold.Chemscore.Internal_Hbond.Weighted>
0.0000

> <Gold.Chemscore.DEClash.Weighted>
0.2612

> <Gold.Chemscore.DEInternal.Weighted>
1.6648

> <Gold.Chemscore.Rot.Weighted>
13.4839

> <Gold.Chemscore.Internal.Correction.Weighted>
   9.000000E+99

> <Gold.Protein.RotatedTorsions>
[ 6907 6896 6895 6894 ] final -137.94 input  -60.11 | X-H torsion
[ 7974 7965 7964 7962 ] final  159.92 input  175.53 | X-H torsion
[ 8008 7997 7996 7995 ] final  104.17 input   59.86 | X-H torsion
[ 10167 10162 10161 10158 ] final   70.69 input  -65.29 | X-H torsion
[ 10718 10713 10712 10709 ] final  106.28 input   66.30 | X-H torsion
[ 10763 10752 10751 10750 ] final  154.21 input  -60.55 | X-H torsion
[ 11005 11000 10999 10996 ] final   50.30 input  -57.11 | X-H torsion

> <Gold.Protein.ActiveResidues>
 VAL166  LYS551  ARG553  GLY616  TRP617  ASP618  TYR619  PRO620  LYS621  CYS622 
 ASP623  PHE694  ASN695  SER759  ASP760  ASP761  ALA762  ILE779  LEU786  VAL792 
 PHE793  MET794  SER795  GLU796  ALA797  LYS798  CYS799  TRP800  GLU811  SER814 

> <Gold.Protein.RotatedAtoms>
  151.0288  133.5809  159.2662 H   0  0  0  0  0  0  0  0  0  0  0  0  # atno 6907 bound_to 6896
  151.2899  135.0738  159.9210 H   0  0  0  0  0  0  0  0  0  0  0  0  # atno 6908 bound_to 6896
  152.5340  133.9988  159.7939 H   0  0  0  0  0  0  0  0  0  0  0  0  # atno 6909 bound_to 6896
  144.7764  139.7685  143.6277 H   0  0  0  0  0  0  0  0  0  0  0  0  # atno 7974 bound_to 7965
  156.1549  140.3152  155.8710 H   0  0  0  0  0  0  0  0  0  0  0  0  # atno 8008 bound_to 7997
  155.3897  140.0493  157.3058 H   0  0  0  0  0  0  0  0  0  0  0  0  # atno 8009 bound_to 7997
  154.5092  140.2158  155.9201 H   0  0  0  0  0  0  0  0  0  0  0  0  # atno 8010 bound_to 7997
  140.0542  144.5287  150.7341 H   0  0  0  0  0  0  0  0  0  0  0  0  # atno 10167 bound_to 10162
  157.6674  131.0847  150.5983 H   0  0  0  0  0  0  0  0  0  0  0  0  # atno 10718 bound_to 10713
  154.1486  135.2816  155.3141 H   0  0  0  0  0  0  0  0  0  0  0  0  # atno 10763 bound_to 10752
  154.6234  135.5459  153.7604 H   0  0  0  0  0  0  0  0  0  0  0  0  # atno 10764 bound_to 10752
  153.0228  135.6444  154.1631 H   0  0  0  0  0  0  0  0  0  0  0  0  # atno 10765 bound_to 10752
  140.1029  134.5057  155.8746 H   0  0  0  0  0  0  0  0  0  0  0  0  # atno 11005 bound_to 11000
  146.1946  139.5205  142.9783 LP  0  0  0  0  0  0  0  0  0  0  0  0  # atno 17320 bound_to 7965
  145.6174  141.0329  143.1933 LP  0  0  0  0  0  0  0  0  0  0  0  0  # atno 17321 bound_to 7965
  140.7202  143.2582  151.4302 LP  0  0  0  0  0  0  0  0  0  0  0  0  # atno 17342 bound_to 10162
  139.5934  144.1450  152.2115 LP  0  0  0  0  0  0  0  0  0  0  0  0  # atno 17343 bound_to 10162
  156.6284  130.4425  149.5796 LP  0  0  0  0  0  0  0  0  0  0  0  0  # atno 17370 bound_to 10713
  156.2301  130.6789  151.1455 LP  0  0  0  0  0  0  0  0  0  0  0  0  # atno 17371 bound_to 10713
  141.2110  133.6702  156.6554 LP  0  0  0  0  0  0  0  0  0  0  0  0  # atno 17394 bound_to 11000
  140.3195  134.8019  157.4241 LP  0  0  0  0  0  0  0  0  0  0  0  0  # atno 17395 bound_to 11000

$$$$
