AV-unprocessed.smi:945|AV-procd|sdf|4233|dock9
  -GOLD-   22720 2143D 1   1.00000     0.00000
 Structure written by MMmdl.
 31 32  0  0  0  0  0  0  0  0  1 V2000
  153.3229  142.2116  161.8978 C   0  0  0  0  0  0  0  0  0  0  0  0
  152.5807  143.5520  161.9306 C   0  0  0  0  0  0  0  0  0  0  0  0
  152.1068  143.9763  160.5810 C   0  0  0  0  0  0  0  0  0  0  0  0
  151.8714  143.1216  159.5818 N   0  0  0  0  0  0  0  0  0  0  0  0
  151.4712  143.7643  158.4061 C   0  0  0  0  0  0  0  0  0  0  0  0
  151.1695  142.9586  157.1792 C   0  0  0  0  0  0  0  0  0  0  0  0
  151.1032  141.4522  157.4804 C   0  0  0  0  0  0  0  0  0  0  0  0
  150.9598  140.6619  156.2631 N   0  0  0  0  0  0  0  0  0  0  0  0
  151.7402  139.6266  155.9181 C   0  0  0  0  0  0  0  0  0  0  0  0
  152.6861  139.2404  156.6066 O   0  0  0  0  0  0  0  0  0  0  0  0
  151.3565  138.9834  154.6255 C   0  0  0  0  0  0  0  0  0  0  0  0
  149.9054  138.5868  154.4443 C   0  0  0  0  0  0  0  0  0  0  0  0
  150.9531  137.5233  154.6565 C   0  0  0  0  0  0  0  0  0  0  0  0
  151.4159  145.1304  158.5281 C   0  0  0  0  0  0  0  0  0  0  0  0
  151.8705  145.6594  160.1245 S   0  0  0  0  0  0  0  0  0  0  0  0
  153.6561  141.9273  162.8960 H   0  0  0  0  0  0  0  0  0  0  0  0
  154.2017  142.2636  161.2543 H   0  0  0  0  0  0  0  0  0  0  0  0
  152.6792  141.4155  161.5223 H   0  0  0  0  0  0  0  0  0  0  0  0
  151.7234  143.4870  162.6015 H   0  0  0  0  0  0  0  0  0  0  0  0
  153.2332  144.3280  162.3317 H   0  0  0  0  0  0  0  0  0  0  0  0
  150.2235  143.2853  156.7450 H   0  0  0  0  0  0  0  0  0  0  0  0
  151.9278  143.1488  156.4189 H   0  0  0  0  0  0  0  0  0  0  0  0
  151.9901  141.1338  158.0312 H   0  0  0  0  0  0  0  0  0  0  0  0
  150.2475  141.2388  158.1216 H   0  0  0  0  0  0  0  0  0  0  0  0
  150.2049  140.9149  155.6419 H   0  0  0  0  0  0  0  0  0  0  0  0
  151.8832  139.3264  153.7362 H   0  0  0  0  0  0  0  0  0  0  0  0
  149.2093  138.7726  155.2604 H   0  0  0  0  0  0  0  0  0  0  0  0
  149.4840  138.6970  153.4472 H   0  0  0  0  0  0  0  0  0  0  0  0
  151.2424  136.9138  153.8030 H   0  0  0  0  0  0  0  0  0  0  0  0
  150.9507  137.0032  155.6128 H   0  0  0  0  0  0  0  0  0  0  0  0
  151.1435  145.8554  157.7753 H   0  0  0  0  0  0  0  0  0  0  0  0
  1  2  1  0  0  0  0
  1 16  1  0  0  0  0
  1 17  1  0  0  0  0
  1 18  1  0  0  0  0
  2  3  1  0  0  0  0
  2 19  1  0  0  0  0
  2 20  1  0  0  0  0
  3 15  1  0  0  0  0
  3  4  2  0  0  0  0
  4  5  1  0  0  0  0
  5  6  1  0  0  0  0
  5 14  2  0  0  0  0
  6  7  1  0  0  0  0
  6 21  1  0  0  0  0
  6 22  1  0  0  0  0
  7  8  1  0  0  0  0
  7 23  1  0  0  0  0
  7 24  1  0  0  0  0
  8  9  1  0  0  0  0
  8 25  1  0  0  0  0
  9 10  2  0  0  0  0
  9 11  1  0  0  0  0
 11 13  1  0  0  0  0
 11 12  1  0  0  0  0
 11 26  1  0  0  0  0
 12 13  1  0  0  0  0
 12 27  1  0  0  0  0
 12 28  1  0  0  0  0
 13 29  1  0  0  0  0
 13 30  1  0  0  0  0
 14 15  1  0  0  0  0
 14 31  1  0  0  0  0
M  END
> <s_m_source_file>
AV-unprocessed.smi

> <i_m_source_file_index>
945

> <i_lp_mmshare_version>
43012

> <i_f3d_flags>
0

> <s_epik_input>
W0NIM11bQ0gyXWMxbmMoW2NIXXMxKVtDSDJdW0NIMl1bTkhdQyg9TylbQ0hdMltDSDJdW0NIMl0y

> <s_epik_cmdline>
J2VwaWtfcHl0aG9uJywgJy1waCcsICc3LjAnLCAnLXRuJywgJzgnLCAnLW1hJywgJzIwMCcsICctbWV0YWxfYmluZGluZycsICctaW1hZScsICc8aW5maWxlLm1hZT4nLCAnLW9tYWUnLCAnPG91dGZpbGUubWFlPic=

> <r_epik_Ionization_Penalty>
0.00109668

> <r_epik_Ionization_Penalty_Charging>
0

> <r_epik_Ionization_Penalty_Neutral>
0.00109668

> <r_epik_State_Penalty>
0.000719322

> <r_epik_Charging_Adjusted_Penalty>
0.000719322

> <i_epik_Tot_Q>
0

> <i_epik_Tot_abs_Q>
0

> <r_epik_Metal_State_Penalty>
-0

> <b_epik_Metal_Only>
0

> <s_lp_Force_Field>
OPLS_2005

> <r_lp_Energy>
-3.93776

> <b_lp_Chiralities_Consistent>
1

> <s_lp_Variant>
AV-unprocessed.smi:945-1

> <Gold.Version>
5.8.1

> <Gold.Id.Protein>
6NUR|6NUR_protein|mol2

> <Gold.PLP.Fitness>
44.0167

> <Gold.PLP.PLP>
-42.0726

> <Gold.PLP.part.hbond>
-1.0000

> <Gold.PLP.part.metal>
0.0000

> <Gold.PLP.part.buried>
-5.8434

> <Gold.PLP.part.nonpolar>
-34.8494

> <Gold.PLP.part.repulsive>
0.1199

> <Gold.PLP.ligand.clash>
0.0000

> <Gold.PLP.ligand.torsion>
0.5724

> <Gold.PLP.Chemscore.Hbond>
1.0000

> <Gold.PLP.Chemscore.CHOScore>
0.0000

> <Gold.PLP.Chemscore.Metal>
0.0000

> <Gold.Chemscore.Hbonds>
donor molecule, donor type, donor heavy atom, donor atom, acceptor molecule, acceptor atom, score
      P1  H  7997  8009       L1    10  1.00

> <Gold.PLP.Chemscore.Internal.Correction>
0.0888

> <Gold.Rescore>
     Score         DG    S(hbond)    S(metal)    S(lipo)     H(rot)  DE(clash)    DE(int)     intcor
     17.48     -17.73       0.98        0.00     111.07       1.58       0.06       0.19       ----

> <Gold.Chemscore.Fitness>
17.4784

> <Gold.Chemscore.DG>
-17.7263

> <Gold.Chemscore.ZeroCoef>
-5.4800

> <Gold.Chemscore.Hbond>
0.9836

> <Gold.Chemscore.Metal>
0.0000

> <Gold.Chemscore.Lipo>
111.0745

> <Gold.Chemscore.Internal_Hbond>
0.0000

> <Gold.Chemscore.DEClash>
0.0577

> <Gold.Chemscore.DEInternal>
0.1902

> <Gold.Chemscore.Rot>
1.5760

> <Gold.Chemscore.Internal.Correction>
   9.000000E+99

> <Gold.Chemscore.Hbonds>
donor molecule, donor type, donor heavy atom, donor atom, acceptor molecule, acceptor atom, score
      P1  H  7997  8009       L1    10  0.99

> <Gold.Chemscore.Hbond.Weighted>
-3.2852

> <Gold.Chemscore.Metal.Weighted>
-0.0000

> <Gold.Chemscore.Lipo.Weighted>
-12.9957

> <Gold.Chemscore.Internal_Hbond.Weighted>
0.0000

> <Gold.Chemscore.DEClash.Weighted>
0.0577

> <Gold.Chemscore.DEInternal.Weighted>
0.1902

> <Gold.Chemscore.Rot.Weighted>
4.0346

> <Gold.Chemscore.Internal.Correction.Weighted>
   9.000000E+99

> <Gold.Protein.RotatedTorsions>
[ 6907 6896 6895 6894 ] final -108.97 input  -60.11 | X-H torsion
[ 7974 7965 7964 7962 ] final -141.22 input  175.53 | X-H torsion
[ 8008 7997 7996 7995 ] final  179.78 input   59.86 | X-H torsion
[ 10167 10162 10161 10158 ] final -110.80 input  -65.29 | X-H torsion
[ 10718 10713 10712 10709 ] final  -43.74 input   66.30 | X-H torsion
[ 10763 10752 10751 10750 ] final   76.00 input  -60.55 | X-H torsion
[ 11005 11000 10999 10996 ] final   26.64 input  -57.11 | X-H torsion

> <Gold.Protein.ActiveResidues>
 VAL166  LYS551  ARG553  GLY616  TRP617  ASP618  TYR619  PRO620  LYS621  CYS622 
 ASP623  PHE694  ASN695  SER759  ASP760  ASP761  ALA762  ILE779  LEU786  VAL792 
 PHE793  MET794  SER795  GLU796  ALA797  LYS798  CYS799  TRP800  GLU811  SER814 

> <Gold.Protein.RotatedAtoms>
  150.7533  133.9598  159.3511 H   0  0  0  0  0  0  0  0  0  0  0  0  # atno 6907 bound_to 6896
  151.7523  135.0828  160.0342 H   0  0  0  0  0  0  0  0  0  0  0  0  # atno 6908 bound_to 6896
  152.3458  133.6083  159.5945 H   0  0  0  0  0  0  0  0  0  0  0  0  # atno 6909 bound_to 6896
  144.8536  140.6106  143.5374 H   0  0  0  0  0  0  0  0  0  0  0  0  # atno 7974 bound_to 7965
  156.0394  140.1300  157.0172 H   0  0  0  0  0  0  0  0  0  0  0  0  # atno 8008 bound_to 7997
  154.4384  140.1033  156.6286 H   0  0  0  0  0  0  0  0  0  0  0  0  # atno 8009 bound_to 7997
  155.5688  140.3466  155.4512 H   0  0  0  0  0  0  0  0  0  0  0  0  # atno 8010 bound_to 7997
  140.1406  143.4283  152.1565 H   0  0  0  0  0  0  0  0  0  0  0  0  # atno 10167 bound_to 10162
  156.2458  130.4184  149.8707 H   0  0  0  0  0  0  0  0  0  0  0  0  # atno 10718 bound_to 10713
  153.0694  135.4968  154.8271 H   0  0  0  0  0  0  0  0  0  0  0  0  # atno 10763 bound_to 10752
  154.7000  135.3000  154.9357 H   0  0  0  0  0  0  0  0  0  0  0  0  # atno 10764 bound_to 10752
  154.0083  135.6757  153.4816 H   0  0  0  0  0  0  0  0  0  0  0  0  # atno 10765 bound_to 10752
  140.3348  134.2397  155.7697 H   0  0  0  0  0  0  0  0  0  0  0  0  # atno 11005 bound_to 11000
  145.4450  139.1530  143.3949 LP  0  0  0  0  0  0  0  0  0  0  0  0  # atno 17320 bound_to 7965
  146.2805  140.4573  142.8778 LP  0  0  0  0  0  0  0  0  0  0  0  0  # atno 17321 bound_to 7965
  139.5474  144.7310  151.4541 LP  0  0  0  0  0  0  0  0  0  0  0  0  # atno 17342 bound_to 10162
  140.6763  143.8183  150.7062 LP  0  0  0  0  0  0  0  0  0  0  0  0  # atno 17343 bound_to 10162
  156.6272  130.8651  151.3488 LP  0  0  0  0  0  0  0  0  0  0  0  0  # atno 17370 bound_to 10713
  157.7194  130.9539  150.1380 LP  0  0  0  0  0  0  0  0  0  0  0  0  # atno 17371 bound_to 10713
  141.2054  133.7861  157.0235 LP  0  0  0  0  0  0  0  0  0  0  0  0  # atno 17394 bound_to 11000
  140.0830  134.9637  157.1655 LP  0  0  0  0  0  0  0  0  0  0  0  0  # atno 17395 bound_to 11000

$$$$
