AV-unprocessed.smi:3253|AV-procd|sdf|12445|dock6
  -GOLD-   2272018343D 1   1.00000     0.00000
 Structure written by MMmdl.
 37 38  0  0  0  0  0  0  0  0  2 V2000
  150.2794  139.3740  156.1395 C   0  0  0  0  0  0  0  0  0  0  0  0
  149.8828  140.8549  156.2869 C   0  0  2  0  0  0  0  0  0  0  0  0
  149.5253  141.5217  154.9435 C   0  0  0  0  0  0  0  0  0  0  0  0
  148.3774  140.8969  154.2795 N   0  0  0  0  0  0  0  0  0  0  0  0
  148.2456  139.5858  153.8986 C   0  0  0  0  0  0  0  0  0  0  0  0
  147.0093  139.4707  153.3167 C   0  0  0  0  0  0  0  0  0  0  0  0
  146.4408  140.7155  153.3641 N   0  3  0  0  0  0  0  0  0  0  0  0
  147.2756  141.5820  153.9471 C   0  0  0  0  0  0  0  0  0  0  0  0
  150.9620  141.6068  156.9213 N   0  0  0  0  0  0  0  0  0  0  0  0
  151.4810  141.3489  158.1322 C   0  0  0  0  0  0  0  0  0  0  0  0
  151.0930  140.4267  158.8500 O   0  0  0  0  0  0  0  0  0  0  0  0
  152.6118  142.2760  158.6055 C   0  0  2  0  0  0  0  0  0  0  0  0
  152.9781  142.0111  160.0803 C   0  0  0  0  0  0  0  0  0  0  0  0
  152.5404  143.2748  160.8020 C   0  0  0  0  0  0  0  0  0  0  0  0
  152.5876  143.3965  162.0251 O   0  0  0  0  0  0  0  0  0  0  0  0
  152.1049  144.1934  159.9357 N   0  0  0  0  0  0  0  0  0  0  0  0
  151.5962  145.5140  160.2799 C   0  0  0  0  0  0  0  0  0  0  0  0
  152.2136  143.7678  158.5509 C   0  0  0  0  0  0  0  0  0  0  0  0
  149.4630  138.7799  155.7292 H   0  0  0  0  0  0  0  0  0  0  0  0
  150.5395  138.9363  157.1039 H   0  0  0  0  0  0  0  0  0  0  0  0
  151.1401  139.2584  155.4801 H   0  0  0  0  0  0  0  0  0  0  0  0
  149.0011  140.9084  156.9285 H   0  0  0  0  0  0  0  0  0  0  0  0
  149.2895  142.5773  155.0887 H   0  0  0  0  0  0  0  0  0  0  0  0
  150.3719  141.4782  154.2566 H   0  0  0  0  0  0  0  0  0  0  0  0
  149.0192  138.8506  154.0676 H   0  0  0  0  0  0  0  0  0  0  0  0
  146.5052  138.6188  152.8834 H   0  0  0  0  0  0  0  0  0  0  0  0
  147.0936  142.6280  154.1187 H   0  0  0  0  0  0  0  0  0  0  0  0
  151.3446  142.3829  156.4008 H   0  0  0  0  0  0  0  0  0  0  0  0
  153.4892  142.1145  157.9766 H   0  0  0  0  0  0  0  0  0  0  0  0
  152.4815  141.1378  160.5066 H   0  0  0  0  0  0  0  0  0  0  0  0
  154.0538  141.8786  160.2004 H   0  0  0  0  0  0  0  0  0  0  0  0
  152.3414  146.0779  160.8419 H   0  0  0  0  0  0  0  0  0  0  0  0
  150.6971  145.4283  160.8908 H   0  0  0  0  0  0  0  0  0  0  0  0
  151.3449  146.0836  159.3849 H   0  0  0  0  0  0  0  0  0  0  0  0
  152.9847  144.3568  158.0522 H   0  0  0  0  0  0  0  0  0  0  0  0
  151.2741  143.9426  158.0232 H   0  0  0  0  0  0  0  0  0  0  0  0
  145.5218  140.9495  153.0095 H   0  0  0  0  0  0  0  0  0  0  0  0
  1  2  1  0  0  0  0
  1 19  1  0  0  0  0
  1 20  1  0  0  0  0
  1 21  1  0  0  0  0
  2  3  1  0  0  0  0
  2  9  1  0  0  0  0
  2 22  1  0  0  0  0
  3  4  1  0  0  0  0
  3 23  1  0  0  0  0
  3 24  1  0  0  0  0
  4  8  1  0  0  0  0
  4  5  1  0  0  0  0
  5  6  2  0  0  0  0
  5 25  1  0  0  0  0
  6  7  1  0  0  0  0
  6 26  1  0  0  0  0
  7  8  2  0  0  0  0
  7 37  1  0  0  0  0
  8 27  1  0  0  0  0
  9 10  1  0  0  0  0
  9 28  1  0  0  0  0
 10 11  2  0  0  0  0
 10 12  1  0  0  0  0
 12 18  1  0  0  0  0
 12 13  1  0  0  0  0
 12 29  1  0  0  0  0
 13 14  1  0  0  0  0
 13 30  1  0  0  0  0
 13 31  1  0  0  0  0
 14 15  2  0  0  0  0
 14 16  1  0  0  0  0
 16 17  1  0  0  0  0
 16 18  1  0  0  0  0
 17 32  1  0  0  0  0
 17 33  1  0  0  0  0
 17 34  1  0  0  0  0
 18 35  1  0  0  0  0
 18 36  1  0  0  0  0
M  CHG  1   7   1
M  END
> <s_m_source_file>
AV-unprocessed.smi

> <i_m_source_file_index>
3253

> <i_lp_mmshare_version>
43012

> <i_f3d_flags>
0

> <s_epik_input>
W2NIXTFuW2NIXVtjSF1uMVtDSDJdW0NAQEhdKFtDSDNdKVtOSF1DKD1PKVtDQEBIXTJbQ0gyXUMoPU8pTihbQ0gzXSlbQ0gyXTI=

> <s_epik_cmdline>
J2VwaWtfcHl0aG9uJywgJy1waCcsICc3LjAnLCAnLXRuJywgJzgnLCAnLW1hJywgJzIwMCcsICctbWV0YWxfYmluZGluZycsICctaW1hZScsICc8aW5maWxlLm1hZT4nLCAnLW9tYWUnLCAnPG91dGZpbGUubWFlPic=

> <r_lp_tautomer_probability>
1

> <r_epik_Ionization_Penalty>
0.251561

> <r_epik_Ionization_Penalty_Charging>
0

> <r_epik_Ionization_Penalty_Neutral>
0.251561

> <r_epik_State_Penalty>
0.242926

> <r_epik_Charging_Adjusted_Penalty>
0.242926

> <i_epik_Tot_Q>
1

> <i_epik_Tot_abs_Q>
1

> <r_epik_Metal_State_Penalty>
0.533885

> <b_epik_Metal_Only>
0

> <s_lp_Force_Field>
OPLS_2005

> <r_lp_Energy>
15.657

> <b_lp_Chiralities_Consistent>
1

> <s_lp_Variant>
AV-unprocessed.smi:3253-1

> <Gold.Version>
5.8.1

> <Gold.Id.Protein>
6NUR|6NUR_protein|mol2

> <Gold.PLP.Fitness>
47.1861

> <Gold.PLP.PLP>
-41.4075

> <Gold.PLP.part.hbond>
-1.0000

> <Gold.PLP.part.metal>
0.0000

> <Gold.PLP.part.buried>
-5.1003

> <Gold.PLP.part.nonpolar>
-35.8891

> <Gold.PLP.part.repulsive>
0.2417

> <Gold.PLP.ligand.clash>
0.0000

> <Gold.PLP.ligand.torsion>
0.1237

> <Gold.PLP.Chemscore.Hbond>
2.0000

> <Gold.PLP.Chemscore.CHOScore>
0.0000

> <Gold.PLP.Chemscore.Metal>
0.0000

> <Gold.Chemscore.Hbonds>
donor molecule, donor type, donor heavy atom, donor atom, acceptor molecule, acceptor atom, score
      L1  H     7    37       P1 10175  2.00

> <Gold.PLP.Chemscore.Internal.Correction>
0.0260

> <Gold.Rescore>
     Score         DG    S(hbond)    S(metal)    S(lipo)     H(rot)  DE(clash)    DE(int)     intcor
     12.18     -12.28       0.99        0.00      74.47       2.03       0.01       0.09       ----

> <Gold.Chemscore.Fitness>
12.1848

> <Gold.Chemscore.DG>
-12.2792

> <Gold.Chemscore.ZeroCoef>
-5.4800

> <Gold.Chemscore.Hbond>
0.9860

> <Gold.Chemscore.Metal>
0.0000

> <Gold.Chemscore.Lipo>
74.4713

> <Gold.Chemscore.Internal_Hbond>
0.0000

> <Gold.Chemscore.DEClash>
0.0076

> <Gold.Chemscore.DEInternal>
0.0868

> <Gold.Chemscore.Rot>
2.0341

> <Gold.Chemscore.Internal.Correction>
   9.000000E+99

> <Gold.Chemscore.Hbonds>
donor molecule, donor type, donor heavy atom, donor atom, acceptor molecule, acceptor atom, score
      L1  H     7    37       P1 10175  0.33

> <Gold.Chemscore.Hbond.Weighted>
-3.2933

> <Gold.Chemscore.Metal.Weighted>
-0.0000

> <Gold.Chemscore.Lipo.Weighted>
-8.7131

> <Gold.Chemscore.Internal_Hbond.Weighted>
0.0000

> <Gold.Chemscore.DEClash.Weighted>
0.0076

> <Gold.Chemscore.DEInternal.Weighted>
0.0868

> <Gold.Chemscore.Rot.Weighted>
5.2072

> <Gold.Chemscore.Internal.Correction.Weighted>
   9.000000E+99

> <Gold.Protein.RotatedTorsions>
[ 6907 6896 6895 6894 ] final  170.84 input  -60.11 | X-H torsion
[ 7974 7965 7964 7962 ] final -132.45 input  175.53 | X-H torsion
[ 8008 7997 7996 7995 ] final   90.32 input   59.86 | X-H torsion
[ 10167 10162 10161 10158 ] final -144.39 input  -65.29 | X-H torsion
[ 10718 10713 10712 10709 ] final -124.90 input   66.30 | X-H torsion
[ 10763 10752 10751 10750 ] final -154.40 input  -60.55 | X-H torsion
[ 11005 11000 10999 10996 ] final  150.45 input  -57.11 | X-H torsion

> <Gold.Protein.ActiveResidues>
 VAL166  LYS551  ARG553  GLY616  TRP617  ASP618  TYR619  PRO620  LYS621  CYS622 
 ASP623  PHE694  ASN695  SER759  ASP760  ASP761  ALA762  ILE779  LEU786  VAL792 
 PHE793  MET794  SER795  GLU796  ALA797  LYS798  CYS799  TRP800  GLU811  SER814 

> <Gold.Protein.RotatedAtoms>
  151.8097  133.3380  159.3551 H   0  0  0  0  0  0  0  0  0  0  0  0  # atno 6907 bound_to 6896
  150.7330  134.5675  159.5883 H   0  0  0  0  0  0  0  0  0  0  0  0  # atno 6908 bound_to 6896
  152.3084  134.7529  160.0393 H   0  0  0  0  0  0  0  0  0  0  0  0  # atno 6909 bound_to 6896
  144.9284  140.7099  143.4921 H   0  0  0  0  0  0  0  0  0  0  0  0  # atno 7974 bound_to 7965
  156.0106  140.3350  155.6937 H   0  0  0  0  0  0  0  0  0  0  0  0  # atno 8008 bound_to 7997
  155.6163  140.0670  157.2709 H   0  0  0  0  0  0  0  0  0  0  0  0  # atno 8009 bound_to 7997
  154.4280  140.1784  156.1312 H   0  0  0  0  0  0  0  0  0  0  0  0  # atno 8010 bound_to 7997
  139.7904  143.7974  152.2649 H   0  0  0  0  0  0  0  0  0  0  0  0  # atno 10167 bound_to 10162
  156.1628  130.6613  151.0073 H   0  0  0  0  0  0  0  0  0  0  0  0  # atno 10718 bound_to 10713
  154.7861  135.3191  154.7882 H   0  0  0  0  0  0  0  0  0  0  0  0  # atno 10763 bound_to 10752
  153.8582  135.6856  153.4789 H   0  0  0  0  0  0  0  0  0  0  0  0  # atno 10764 bound_to 10752
  153.1513  135.4698  154.9580 H   0  0  0  0  0  0  0  0  0  0  0  0  # atno 10765 bound_to 10752
  140.1132  134.8911  157.1966 H   0  0  0  0  0  0  0  0  0  0  0  0  # atno 11005 bound_to 11000
  145.3181  139.1797  143.4602 LP  0  0  0  0  0  0  0  0  0  0  0  0  # atno 17320 bound_to 7965
  146.3236  140.3195  142.8632 LP  0  0  0  0  0  0  0  0  0  0  0  0  # atno 17321 bound_to 7965
  139.8064  144.7353  150.9756 LP  0  0  0  0  0  0  0  0  0  0  0  0  # atno 17342 bound_to 10162
  140.7820  143.4294  151.0718 LP  0  0  0  0  0  0  0  0  0  0  0  0  # atno 17343 bound_to 10162
  157.6745  131.0853  150.7529 LP  0  0  0  0  0  0  0  0  0  0  0  0  # atno 17370 bound_to 10713
  156.7591  130.4793  149.5441 LP  0  0  0  0  0  0  0  0  0  0  0  0  # atno 17371 bound_to 10713
  140.3063  134.3074  155.7277 LP  0  0  0  0  0  0  0  0  0  0  0  0  # atno 17394 bound_to 11000
  141.2135  133.7623  156.9713 LP  0  0  0  0  0  0  0  0  0  0  0  0  # atno 17395 bound_to 11000

$$$$
