AV-unprocessed.smi:1599|AV-procd|sdf|6425|dock9
  -GOLD-   22720 7 63D 1   1.00000     0.00000
 Structure written by MMmdl.
 39 40  0  0  0  0  0  0  0  0  1 V2000
  151.7571  145.3772  158.8212 C   0  0  0  0  0  0  0  0  0  0  0  0
  152.0697  143.9742  158.2806 C   0  0  2  0  0  0  0  0  0  0  0  0
  151.0745  143.6310  157.2657 N   0  0  0  0  0  0  0  0  0  0  0  0
  150.8054  142.3972  156.8143 C   0  0  0  0  0  0  0  0  0  0  0  0
  151.3776  141.3828  157.2130 O   0  0  0  0  0  0  0  0  0  0  0  0
  149.8346  142.4201  155.8864 N   0  0  0  0  0  0  0  0  0  0  0  0
  149.2711  141.3122  155.2044 C   0  0  0  0  0  0  0  0  0  0  0  0
  149.8013  139.9960  155.2184 C   0  0  0  0  0  0  0  0  0  0  0  0
  149.0631  139.1745  154.4875 N   0  0  0  0  0  0  0  0  0  0  0  0
  148.0578  139.9436  153.9985 N   0  0  0  0  0  0  0  0  0  0  0  0
  147.0505  139.3508  153.1359 C   0  0  0  0  0  0  0  0  0  0  0  0
  146.2239  138.2984  153.8787 C   0  0  0  0  0  0  0  0  0  0  0  0
  144.8981  138.4628  153.8998 N   0  0  0  0  0  0  0  0  0  0  0  0
  146.7761  137.3519  154.4352 O   0  0  0  0  0  0  0  0  0  0  0  0
  148.1543  141.2556  154.4197 C   0  0  0  0  0  0  0  0  0  0  0  0
  152.0843  142.9176  159.4052 C   0  0  1  0  0  0  0  0  0  0  0  0
  153.4720  142.5456  159.9320 C   0  0  0  0  0  0  0  0  0  0  0  0
  153.1410  142.0075  161.3047 C   0  0  0  0  0  0  0  0  0  0  0  0
  152.0286  142.9525  161.7482 C   0  0  0  0  0  0  0  0  0  0  0  0
  151.3893  143.3976  160.5541 O   0  0  0  0  0  0  0  0  0  0  0  0
  152.4962  145.6893  159.5596 H   0  0  0  0  0  0  0  0  0  0  0  0
  150.7770  145.4108  159.2982 H   0  0  0  0  0  0  0  0  0  0  0  0
  151.7639  146.1173  158.0203 H   0  0  0  0  0  0  0  0  0  0  0  0
  153.0621  144.0113  157.8278 H   0  0  0  0  0  0  0  0  0  0  0  0
  150.5473  144.3994  156.8774 H   0  0  0  0  0  0  0  0  0  0  0  0
  149.4499  143.3232  155.6521 H   0  0  0  0  0  0  0  0  0  0  0  0
  150.6785  139.6168  155.7215 H   0  0  0  0  0  0  0  0  0  0  0  0
  146.3982  140.1358  152.7501 H   0  0  0  0  0  0  0  0  0  0  0  0
  147.5446  138.8960  152.2765 H   0  0  0  0  0  0  0  0  0  0  0  0
  144.3128  137.7963  154.3821 H   0  0  0  0  0  0  0  0  0  0  0  0
  144.4860  139.2592  153.4355 H   0  0  0  0  0  0  0  0  0  0  0  0
  147.4359  142.0056  154.1241 H   0  0  0  0  0  0  0  0  0  0  0  0
  151.5797  142.0092  159.0710 H   0  0  0  0  0  0  0  0  0  0  0  0
  153.9893  141.8212  159.3024 H   0  0  0  0  0  0  0  0  0  0  0  0
  154.1008  143.4326  160.0225 H   0  0  0  0  0  0  0  0  0  0  0  0
  152.7598  140.9886  161.2247 H   0  0  0  0  0  0  0  0  0  0  0  0
  153.9940  142.0027  161.9837 H   0  0  0  0  0  0  0  0  0  0  0  0
  151.3212  142.4704  162.4231 H   0  0  0  0  0  0  0  0  0  0  0  0
  152.4461  143.8209  162.2590 H   0  0  0  0  0  0  0  0  0  0  0  0
  1  2  1  0  0  0  0
  1 21  1  0  0  0  0
  1 22  1  0  0  0  0
  1 23  1  0  0  0  0
  2  3  1  0  0  0  0
  2 16  1  0  0  0  0
  2 24  1  0  0  0  0
  3  4  1  0  0  0  0
  3 25  1  0  0  0  0
  4  5  2  0  0  0  0
  4  6  1  0  0  0  0
  6  7  1  0  0  0  0
  6 26  1  0  0  0  0
  7 15  2  0  0  0  0
  7  8  1  0  0  0  0
  8  9  2  0  0  0  0
  8 27  1  0  0  0  0
  9 10  1  0  0  0  0
 10 11  1  0  0  0  0
 10 15  1  0  0  0  0
 11 12  1  0  0  0  0
 11 28  1  0  0  0  0
 11 29  1  0  0  0  0
 12 13  1  0  0  0  0
 12 14  2  0  0  0  0
 13 30  1  0  0  0  0
 13 31  1  0  0  0  0
 15 32  1  0  0  0  0
 16 20  1  0  0  0  0
 16 17  1  0  0  0  0
 16 33  1  0  0  0  0
 17 18  1  0  0  0  0
 17 34  1  0  0  0  0
 17 35  1  0  0  0  0
 18 19  1  0  0  0  0
 18 36  1  0  0  0  0
 18 37  1  0  0  0  0
 19 20  1  0  0  0  0
 19 38  1  0  0  0  0
 19 39  1  0  0  0  0
M  END
> <s_m_source_file>
AV-unprocessed.smi

> <i_m_source_file_index>
1599

> <i_lp_mmshare_version>
43012

> <i_f3d_flags>
0

> <s_epik_input>
TzFbQ0gyXVtDSDJdW0NIMl1bQ0BIXTFbQ0BIXShbQ0gzXSlbTkhdQyg9TylbTkhdYzJbY0hdbm4oW2NIXTIpW0NIMl1DKD1PKVtOSDJd

> <s_epik_cmdline>
J2VwaWtfcHl0aG9uJywgJy1waCcsICc3LjAnLCAnLXRuJywgJzgnLCAnLW1hJywgJzIwMCcsICctbWV0YWxfYmluZGluZycsICctaW1hZScsICc8aW5maWxlLm1hZT4nLCAnLW9tYWUnLCAnPG91dGZpbGUubWFlPic=

> <r_lp_tautomer_probability>
1

> <r_epik_Ionization_Penalty>
4.15391e-05

> <r_epik_Ionization_Penalty_Charging>
0

> <r_epik_Ionization_Penalty_Neutral>
4.15391e-05

> <r_epik_State_Penalty>
-0

> <r_epik_Charging_Adjusted_Penalty>
0

> <i_epik_Tot_Q>
0

> <i_epik_Tot_abs_Q>
0

> <r_epik_Metal_State_Penalty>
-0

> <b_epik_Metal_Only>
0

> <s_lp_Force_Field>
OPLS_2005

> <r_lp_Energy>
20.4971

> <b_lp_Chiralities_Consistent>
1

> <s_lp_Variant>
AV-unprocessed.smi:1599-3

> <Gold.Version>
5.8.1

> <Gold.Id.Protein>
6NUR|6NUR_protein|mol2

> <Gold.PLP.Fitness>
48.5595

> <Gold.PLP.PLP>
-43.5379

> <Gold.PLP.part.hbond>
-3.3687

> <Gold.PLP.part.metal>
0.0000

> <Gold.PLP.part.buried>
-3.8345

> <Gold.PLP.part.nonpolar>
-37.1922

> <Gold.PLP.part.repulsive>
0.5212

> <Gold.PLP.ligand.clash>
0.0000

> <Gold.PLP.ligand.torsion>
1.4748

> <Gold.PLP.Chemscore.Hbond>
2.6490

> <Gold.PLP.Chemscore.CHOScore>
0.0000

> <Gold.PLP.Chemscore.Metal>
0.0000

> <Gold.Chemscore.Hbonds>
donor molecule, donor type, donor heavy atom, donor atom, acceptor molecule, acceptor atom, score
      L1  H     3    25       P1  8028  0.77
      L1  H     6    26       P1  8028  0.94
      L1  H    13    31       P1 10175  1.00

> <Gold.PLP.Chemscore.Internal.Correction>
0.0243

> <Gold.Rescore>
     Score         DG    S(hbond)    S(metal)    S(lipo)     H(rot)  DE(clash)    DE(int)     intcor
     17.14     -20.90       2.85        0.00     100.39       2.28       0.58       3.18       ----

> <Gold.Chemscore.Fitness>
17.1357

> <Gold.Chemscore.DG>
-20.8995

> <Gold.Chemscore.ZeroCoef>
-5.4800

> <Gold.Chemscore.Hbond>
2.8491

> <Gold.Chemscore.Metal>
0.0000

> <Gold.Chemscore.Lipo>
100.3940

> <Gold.Chemscore.Internal_Hbond>
0.0000

> <Gold.Chemscore.DEClash>
0.5836

> <Gold.Chemscore.DEInternal>
3.1802

> <Gold.Chemscore.Rot>
2.2823

> <Gold.Chemscore.Internal.Correction>
   9.000000E+99

> <Gold.Chemscore.Hbonds>
donor molecule, donor type, donor heavy atom, donor atom, acceptor molecule, acceptor atom, score
      L1  H     3    25       P1  8028  0.69
      L1  H     6    26       P1  8028  0.90
      L1  H    13    31       P1 10175  1.00

> <Gold.Chemscore.Hbond.Weighted>
-9.5161

> <Gold.Chemscore.Metal.Weighted>
-0.0000

> <Gold.Chemscore.Lipo.Weighted>
-11.7461

> <Gold.Chemscore.Internal_Hbond.Weighted>
0.0000

> <Gold.Chemscore.DEClash.Weighted>
0.5836

> <Gold.Chemscore.DEInternal.Weighted>
3.1802

> <Gold.Chemscore.Rot.Weighted>
5.8427

> <Gold.Chemscore.Internal.Correction.Weighted>
   9.000000E+99

> <Gold.Protein.RotatedTorsions>
[ 6907 6896 6895 6894 ] final   19.75 input  -60.11 | X-H torsion
[ 7974 7965 7964 7962 ] final   23.92 input  175.53 | X-H torsion
[ 8008 7997 7996 7995 ] final  109.65 input   59.86 | X-H torsion
[ 10167 10162 10161 10158 ] final -133.38 input  -65.29 | X-H torsion
[ 10718 10713 10712 10709 ] final -104.87 input   66.30 | X-H torsion
[ 10763 10752 10751 10750 ] final  173.91 input  -60.55 | X-H torsion
[ 11005 11000 10999 10996 ] final  -89.20 input  -57.11 | X-H torsion

> <Gold.Protein.ActiveResidues>
 VAL166  LYS551  ARG553  GLY616  TRP617  ASP618  TYR619  PRO620  LYS621  CYS622 
 ASP623  PHE694  ASN695  SER759  ASP760  ASP761  ALA762  ILE779  LEU786  VAL792 
 PHE793  MET794  SER795  GLU796  ALA797  LYS798  CYS799  TRP800  GLU811  SER814 

> <Gold.Protein.RotatedAtoms>
  151.8857  135.0436  160.0492 H   0  0  0  0  0  0  0  0  0  0  0  0  # atno 6907 bound_to 6896
  152.2477  133.5183  159.5315 H   0  0  0  0  0  0  0  0  0  0  0  0  # atno 6908 bound_to 6896
  150.7073  134.0920  159.3977 H   0  0  0  0  0  0  0  0  0  0  0  0  # atno 6909 bound_to 6896
  146.1962  139.7677  142.8796 H   0  0  0  0  0  0  0  0  0  0  0  0  # atno 7974 bound_to 7965
  156.1995  140.3054  155.9496 H   0  0  0  0  0  0  0  0  0  0  0  0  # atno 8008 bound_to 7997
  155.2988  140.0445  157.3045 H   0  0  0  0  0  0  0  0  0  0  0  0  # atno 8009 bound_to 7997
  154.5552  140.2303  155.8431 H   0  0  0  0  0  0  0  0  0  0  0  0  # atno 8010 bound_to 7997
  139.8989  143.6632  152.2599 H   0  0  0  0  0  0  0  0  0  0  0  0  # atno 10167 bound_to 10162
  156.0322  130.5536  150.7458 H   0  0  0  0  0  0  0  0  0  0  0  0  # atno 10718 bound_to 10713
  154.4466  135.2763  155.1810 H   0  0  0  0  0  0  0  0  0  0  0  0  # atno 10763 bound_to 10752
  154.3654  135.6120  153.5716 H   0  0  0  0  0  0  0  0  0  0  0  0  # atno 10764 bound_to 10752
  152.9844  135.5844  154.4803 H   0  0  0  0  0  0  0  0  0  0  0  0  # atno 10765 bound_to 10752
  141.1589  133.7616  156.9561 H   0  0  0  0  0  0  0  0  0  0  0  0  # atno 11005 bound_to 11000
  145.3636  141.0330  143.3271 LP  0  0  0  0  0  0  0  0  0  0  0  0  # atno 17320 bound_to 7965
  144.8585  139.5213  143.6823 LP  0  0  0  0  0  0  0  0  0  0  0  0  # atno 17321 bound_to 7965
  139.7043  144.7630  151.1219 LP  0  0  0  0  0  0  0  0  0  0  0  0  # atno 17342 bound_to 10162
  140.7711  143.5415  150.9307 LP  0  0  0  0  0  0  0  0  0  0  0  0  # atno 17343 bound_to 10162
  157.5015  131.0919  151.0308 LP  0  0  0  0  0  0  0  0  0  0  0  0  # atno 17370 bound_to 10713
  157.0688  130.5855  149.5399 LP  0  0  0  0  0  0  0  0  0  0  0  0  # atno 17371 bound_to 10713
  140.1224  134.9408  157.2222 LP  0  0  0  0  0  0  0  0  0  0  0  0  # atno 17394 bound_to 11000
  140.3055  134.3083  155.7279 LP  0  0  0  0  0  0  0  0  0  0  0  0  # atno 17395 bound_to 11000

$$$$
