AV-unprocessed.smi:1875|AV-procd|sdf|7612|dock10
  -GOLD-   22720 9333D 1   1.00000     0.00000
 Structure written by MMmdl.
 48 50  0  0  0  0  0  0  0  0  2 V2000
  144.3882  143.8353  158.1668 C   0  0  0  0  0  0  0  0  0  0  0  0
  144.3215  143.9996  156.6625 C   0  0  0  0  0  0  0  0  0  0  0  0
  143.4616  144.9085  156.1927 N   0  0  0  0  0  0  0  0  0  0  0  0
  143.4047  145.0627  154.8520 C   0  0  0  0  0  0  0  0  0  0  0  0
  144.2135  144.3020  153.9832 C   0  0  0  0  0  0  0  0  0  0  0  0
  145.0860  143.3778  154.5954 C   0  0  0  0  0  0  0  0  0  0  0  0
  145.9940  142.4860  153.7754 C   0  0  0  0  0  0  0  0  0  0  0  0
  147.2090  142.1551  154.5423 N   0  3  0  0  0  0  0  0  0  0  0  0
  148.0024  141.0483  153.9725 C   0  0  0  0  0  0  0  0  0  0  0  0
  149.1176  140.6123  154.9366 C   0  0  2  0  0  0  0  0  0  0  0  0
  148.5270  140.0630  156.0994 O   0  0  0  0  0  0  0  0  0  0  0  0
  150.0354  141.7858  155.3298 C   0  0  0  0  0  0  0  0  0  0  0  0
  151.0757  141.3874  156.2613 N   0  0  0  0  0  0  0  0  0  0  0  0
  151.8902  140.3198  156.1556 C   0  0  0  0  0  0  0  0  0  0  0  0
  152.7790  140.1333  157.1264 N   0  0  0  0  0  0  0  0  0  0  0  0
  152.5111  141.2055  157.9599 C   0  0  0  0  0  0  0  0  0  0  0  0
  153.1087  141.5894  159.1801 C   0  0  0  0  0  0  0  0  0  0  0  0
  152.6672  142.7388  159.8734 C   0  0  0  0  0  0  0  0  0  0  0  0
  153.3370  143.1129  161.1839 C   0  0  0  0  0  0  0  0  0  0  0  0
  151.6119  143.5255  159.3454 C   0  0  0  0  0  0  0  0  0  0  0  0
  151.1222  144.7653  160.0726 C   0  0  0  0  0  0  0  0  0  0  0  0
  151.0036  143.1564  158.1274 C   0  0  0  0  0  0  0  0  0  0  0  0
  151.4514  142.0100  157.4471 C   0  0  0  0  0  0  0  0  0  0  0  0
  145.1350  143.2252  155.9373 N   0  0  0  0  0  0  0  0  0  0  0  0
  143.4664  144.1735  158.6419 H   0  0  0  0  0  0  0  0  0  0  0  0
  145.2158  144.4187  158.5708 H   0  0  0  0  0  0  0  0  0  0  0  0
  144.5410  142.7898  158.4368 H   0  0  0  0  0  0  0  0  0  0  0  0
  142.7084  145.7945  154.4698 H   0  0  0  0  0  0  0  0  0  0  0  0
  144.1642  144.4262  152.9114 H   0  0  0  0  0  0  0  0  0  0  0  0
  145.4661  141.5708  153.5040 H   0  0  0  0  0  0  0  0  0  0  0  0
  146.2661  142.9918  152.8476 H   0  0  0  0  0  0  0  0  0  0  0  0
  147.7918  142.9796  154.5826 H   0  0  0  0  0  0  0  0  0  0  0  0
  147.3310  140.2097  153.7829 H   0  0  0  0  0  0  0  0  0  0  0  0
  148.4208  141.3463  153.0098 H   0  0  0  0  0  0  0  0  0  0  0  0
  149.7206  139.8366  154.4618 H   0  0  0  0  0  0  0  0  0  0  0  0
  147.7131  140.5128  156.2695 H   0  0  0  0  0  0  0  0  0  0  0  0
  150.5166  142.2000  154.4427 H   0  0  0  0  0  0  0  0  0  0  0  0
  149.4565  142.5958  155.7752 H   0  0  0  0  0  0  0  0  0  0  0  0
  151.8253  139.6394  155.3190 H   0  0  0  0  0  0  0  0  0  0  0  0
  153.9128  140.9903  159.5815 H   0  0  0  0  0  0  0  0  0  0  0  0
  152.6064  143.1409  161.9925 H   0  0  0  0  0  0  0  0  0  0  0  0
  153.8070  144.0938  161.1064 H   0  0  0  0  0  0  0  0  0  0  0  0
  154.1088  142.3924  161.4562 H   0  0  0  0  0  0  0  0  0  0  0  0
  150.3185  145.2577  159.5241 H   0  0  0  0  0  0  0  0  0  0  0  0
  151.9338  145.4835  160.1922 H   0  0  0  0  0  0  0  0  0  0  0  0
  150.7421  144.5036  161.0602 H   0  0  0  0  0  0  0  0  0  0  0  0
  150.1981  143.7464  157.7163 H   0  0  0  0  0  0  0  0  0  0  0  0
  146.9371  141.9094  155.4833 H   0  0  0  0  0  0  0  0  0  0  0  0
  1  2  1  0  0  0  0
  1 25  1  0  0  0  0
  1 26  1  0  0  0  0
  1 27  1  0  0  0  0
  2 24  1  0  0  0  0
  2  3  2  0  0  0  0
  3  4  1  0  0  0  0
  4  5  2  0  0  0  0
  4 28  1  0  0  0  0
  5  6  1  0  0  0  0
  5 29  1  0  0  0  0
  6  7  1  0  0  0  0
  6 24  2  0  0  0  0
  7  8  1  0  0  0  0
  7 30  1  0  0  0  0
  7 31  1  0  0  0  0
  8  9  1  0  0  0  0
  8 32  1  0  0  0  0
  8 48  1  0  0  0  0
  9 10  1  0  0  0  0
  9 33  1  0  0  0  0
  9 34  1  0  0  0  0
 10 11  1  0  0  0  0
 10 12  1  0  0  0  0
 10 35  1  0  0  0  0
 11 36  1  0  0  0  0
 12 13  1  0  0  0  0
 12 37  1  0  0  0  0
 12 38  1  0  0  0  0
 13 23  1  0  0  0  0
 13 14  1  0  0  0  0
 14 15  2  0  0  0  0
 14 39  1  0  0  0  0
 15 16  1  0  0  0  0
 16 23  2  0  0  0  0
 16 17  1  0  0  0  0
 17 18  2  0  0  0  0
 17 40  1  0  0  0  0
 18 19  1  0  0  0  0
 18 20  1  0  0  0  0
 19 41  1  0  0  0  0
 19 42  1  0  0  0  0
 19 43  1  0  0  0  0
 20 21  1  0  0  0  0
 20 22  2  0  0  0  0
 21 44  1  0  0  0  0
 21 45  1  0  0  0  0
 21 46  1  0  0  0  0
 22 23  1  0  0  0  0
 22 47  1  0  0  0  0
M  CHG  1   8   1
M  END
> <s_m_source_file>
AV-unprocessed.smi

> <i_m_source_file_index>
1875

> <i_lp_mmshare_version>
43012

> <i_f3d_flags>
0

> <s_epik_input>
W0NIM11jMW5bY0hdW2NIXWMobjEpW0NIMl1bTkhdW0NIMl1bQ0BIXShbT0hdKVtDSDJdbihbY0hdbjIpYyhjMjMpW2NIXWMoW0NIM10pYyhbY0hdMylbQ0gzXQ==

> <s_epik_cmdline>
J2VwaWtfcHl0aG9uJywgJy1waCcsICc3LjAnLCAnLXRuJywgJzgnLCAnLW1hJywgJzIwMCcsICctbWV0YWxfYmluZGluZycsICctaW1hZScsICc8aW5maWxlLm1hZT4nLCAnLW9tYWUnLCAnPG91dGZpbGUubWFlPic=

> <r_lp_tautomer_probability>
1

> <r_epik_Ionization_Penalty>
0.192455

> <r_epik_Ionization_Penalty_Charging>
0.102343

> <r_epik_Ionization_Penalty_Neutral>
0.0901122

> <r_epik_State_Penalty>
0.175389

> <r_epik_Charging_Adjusted_Penalty>
0.277732

> <i_epik_Tot_Q>
1

> <i_epik_Tot_abs_Q>
1

> <r_epik_Metal_State_Penalty>
0.167659

> <b_epik_Metal_Only>
0

> <s_epik_Chemistry_Notes>
This compound contains an electron-poor aromatic ring that is susceptible to covalent hydrolysis at low pH, typically resulting in measured values for nitrogen ring protonation that are around two units higher than predicted values.

> <s_lp_Force_Field>
OPLS_2005

> <r_lp_Energy>
2.18652

> <b_lp_Chiralities_Consistent>
1

> <s_lp_Variant>
AV-unprocessed.smi:1875-1

> <Gold.Version>
5.8.1

> <Gold.Id.Protein>
6NUR|6NUR_protein|mol2

> <Gold.PLP.Fitness>
57.4041

> <Gold.PLP.PLP>
-49.5122

> <Gold.PLP.part.hbond>
-2.0000

> <Gold.PLP.part.metal>
0.0000

> <Gold.PLP.part.buried>
-7.3157

> <Gold.PLP.part.nonpolar>
-39.9027

> <Gold.PLP.part.repulsive>
0.3358

> <Gold.PLP.ligand.clash>
0.0000

> <Gold.PLP.ligand.torsion>
0.5802

> <Gold.PLP.Chemscore.Hbond>
3.0000

> <Gold.PLP.Chemscore.CHOScore>
0.0000

> <Gold.PLP.Chemscore.Metal>
0.0000

> <Gold.Chemscore.Hbonds>
donor molecule, donor type, donor heavy atom, donor atom, acceptor molecule, acceptor atom, score
      L1  H     8    32       P1  8028  0.75
      P1  H  7997  8009       L1    15  1.00

> <Gold.PLP.Chemscore.Internal.Correction>
0.0524

> <Gold.Rescore>
     Score         DG    S(hbond)    S(metal)    S(lipo)     H(rot)  DE(clash)    DE(int)     intcor
     16.64     -18.22       1.44        0.00     129.18       2.80       0.83       0.75       ----

> <Gold.Chemscore.Fitness>
16.6442

> <Gold.Chemscore.DG>
-18.2234

> <Gold.Chemscore.ZeroCoef>
-5.4800

> <Gold.Chemscore.Hbond>
1.4398

> <Gold.Chemscore.Metal>
0.0000

> <Gold.Chemscore.Lipo>
129.1832

> <Gold.Chemscore.Internal_Hbond>
0.0000

> <Gold.Chemscore.DEClash>
0.8288

> <Gold.Chemscore.DEInternal>
0.7503

> <Gold.Chemscore.Rot>
2.8047

> <Gold.Chemscore.Internal.Correction>
   9.000000E+99

> <Gold.Chemscore.Hbonds>
donor molecule, donor type, donor heavy atom, donor atom, acceptor molecule, acceptor atom, score
      L1  H     8    32       P1  8028  0.31
      P1  H  7997  8009       L1    15  0.74

> <Gold.Chemscore.Hbond.Weighted>
-4.8090

> <Gold.Chemscore.Metal.Weighted>
-0.0000

> <Gold.Chemscore.Lipo.Weighted>
-15.1144

> <Gold.Chemscore.Internal_Hbond.Weighted>
0.0000

> <Gold.Chemscore.DEClash.Weighted>
0.8288

> <Gold.Chemscore.DEInternal.Weighted>
0.7503

> <Gold.Chemscore.Rot.Weighted>
7.1801

> <Gold.Chemscore.Internal.Correction.Weighted>
   9.000000E+99

> <Gold.Protein.RotatedTorsions>
[ 6907 6896 6895 6894 ] final  -54.20 input  -60.11 | X-H torsion
[ 7974 7965 7964 7962 ] final  -57.99 input  175.53 | X-H torsion
[ 8008 7997 7996 7995 ] final  178.70 input   59.86 | X-H torsion
[ 10167 10162 10161 10158 ] final   26.53 input  -65.29 | X-H torsion
[ 10718 10713 10712 10709 ] final -129.47 input   66.30 | X-H torsion
[ 10763 10752 10751 10750 ] final -114.40 input  -60.55 | X-H torsion
[ 11005 11000 10999 10996 ] final  -66.73 input  -57.11 | X-H torsion

> <Gold.Protein.ActiveResidues>
 VAL166  LYS551  ARG553  GLY616  TRP617  ASP618  TYR619  PRO620  LYS621  CYS622 
 ASP623  PHE694  ASN695  SER759  ASP760  ASP761  ALA762  ILE779  LEU786  VAL792 
 PHE793  MET794  SER795  GLU796  ALA797  LYS798  CYS799  TRP800  GLU811  SER814 

> <Gold.Protein.RotatedAtoms>
  150.8359  134.7632  159.6891 H   0  0  0  0  0  0  0  0  0  0  0  0  # atno 6907 bound_to 6896
  152.4456  134.5499  159.9873 H   0  0  0  0  0  0  0  0  0  0  0  0  # atno 6908 bound_to 6896
  151.5649  133.3360  159.3014 H   0  0  0  0  0  0  0  0  0  0  0  0  # atno 6909 bound_to 6896
  145.8445  140.8394  143.0017 H   0  0  0  0  0  0  0  0  0  0  0  0  # atno 7974 bound_to 7965
  156.0517  140.1327  157.0043 H   0  0  0  0  0  0  0  0  0  0  0  0  # atno 8008 bound_to 7997
  154.4438  140.1009  156.6456 H   0  0  0  0  0  0  0  0  0  0  0  0  # atno 8009 bound_to 7997
  155.5514  140.3463  155.4471 H   0  0  0  0  0  0  0  0  0  0  0  0  # atno 8010 bound_to 7997
  140.5015  144.0307  150.6335 H   0  0  0  0  0  0  0  0  0  0  0  0  # atno 10167 bound_to 10162
  156.2050  130.6882  151.0584 H   0  0  0  0  0  0  0  0  0  0  0  0  # atno 10718 bound_to 10713
  154.8438  135.4419  154.1499 H   0  0  0  0  0  0  0  0  0  0  0  0  # atno 10763 bound_to 10752
  153.2663  135.6941  153.7533 H   0  0  0  0  0  0  0  0  0  0  0  0  # atno 10764 bound_to 10752
  153.6790  135.3406  155.3148 H   0  0  0  0  0  0  0  0  0  0  0  0  # atno 10765 bound_to 10752
  141.1490  133.6705  156.6185 H   0  0  0  0  0  0  0  0  0  0  0  0  # atno 11005 bound_to 11000
  144.6732  140.0862  143.7467 LP  0  0  0  0  0  0  0  0  0  0  0  0  # atno 17320 bound_to 7965
  145.9427  139.2680  143.1259 LP  0  0  0  0  0  0  0  0  0  0  0  0  # atno 17321 bound_to 7965
  140.3604  143.2911  152.0389 LP  0  0  0  0  0  0  0  0  0  0  0  0  # atno 17342 bound_to 10162
  139.4873  144.6307  151.7076 LP  0  0  0  0  0  0  0  0  0  0  0  0  # atno 17343 bound_to 10162
  157.7007  131.0777  150.6828 LP  0  0  0  0  0  0  0  0  0  0  0  0  # atno 17370 bound_to 10713
  156.6887  130.4588  149.5606 LP  0  0  0  0  0  0  0  0  0  0  0  0  # atno 17371 bound_to 10713
  140.3559  134.7729  157.4500 LP  0  0  0  0  0  0  0  0  0  0  0  0  # atno 17394 bound_to 11000
  140.0823  134.5714  155.8527 LP  0  0  0  0  0  0  0  0  0  0  0  0  # atno 17395 bound_to 11000

$$$$
