AV-unprocessed.smi:1736|AV-procd|sdf|6990|dock6
  -GOLD-   22720 8203D 1   1.00000     0.00000
 Structure written by MMmdl.
 45 46  0  0  0  0  0  0  0  0  2 V2000
  144.8224  131.9422  150.6360 C   0  0  0  0  0  0  0  0  0  0  0  0
  145.3748  133.3013  150.8395 N   0  3  0  0  0  0  0  0  0  0  0  0
  146.8532  133.3456  150.9073 C   0  0  0  0  0  0  0  0  0  0  0  0
  147.3718  132.8447  152.2700 C   0  0  0  0  0  0  0  0  0  0  0  0
  146.8195  133.6626  153.3632 N   0  0  0  0  0  0  0  0  0  0  0  0
  147.4453  133.4250  154.6926 C   0  0  0  0  0  0  0  0  0  0  0  0
  146.9288  134.4750  155.7090 C   0  0  0  0  0  0  0  0  0  0  0  0
  147.1206  132.0133  155.2367 C   0  0  0  0  0  0  0  0  0  0  0  0
  148.9929  133.5781  154.6009 C   0  0  0  0  0  0  0  0  0  0  0  0
  149.4160  134.9375  154.2625 N   0  0  0  0  0  0  0  0  0  0  0  0
  150.1530  135.7451  155.0383 C   0  0  0  0  0  0  0  0  0  0  0  0
  150.5778  135.4260  156.1485 O   0  0  0  0  0  0  0  0  0  0  0  0
  150.3502  136.9355  154.4496 N   0  0  0  0  0  0  0  0  0  0  0  0
  151.0973  138.0284  154.9549 C   0  0  0  0  0  0  0  0  0  0  0  0
  152.4476  138.0649  155.4121 C   0  0  0  0  0  0  0  0  0  0  0  0
  152.7881  139.2848  155.8034 N   0  0  0  0  0  0  0  0  0  0  0  0
  151.6741  140.0239  155.6009 N   0  0  0  0  0  0  0  0  0  0  0  0
  150.6228  139.2994  155.0847 C   0  0  0  0  0  0  0  0  0  0  0  0
  145.3552  133.5073  153.3308 C   0  0  0  0  0  0  0  0  0  0  0  0
  144.7886  134.0219  151.9921 C   0  0  0  0  0  0  0  0  0  0  0  0
  151.6482  141.0103  155.8163 H   0  0  0  0  0  0  0  0  0  0  0  0
  145.0409  131.2822  151.4755 H   0  0  0  0  0  0  0  0  0  0  0  0
  145.2387  131.4921  149.7342 H   0  0  0  0  0  0  0  0  0  0  0  0
  143.7398  131.9860  150.5124 H   0  0  0  0  0  0  0  0  0  0  0  0
  147.2809  132.7565  150.0952 H   0  0  0  0  0  0  0  0  0  0  0  0
  147.1805  134.3740  150.7474 H   0  0  0  0  0  0  0  0  0  0  0  0
  147.1212  131.7930  152.4083 H   0  0  0  0  0  0  0  0  0  0  0  0
  148.4570  132.9072  152.2408 H   0  0  0  0  0  0  0  0  0  0  0  0
  147.5271  134.4660  156.6209 H   0  0  0  0  0  0  0  0  0  0  0  0
  145.9033  134.2835  156.0241 H   0  0  0  0  0  0  0  0  0  0  0  0
  146.9718  135.4874  155.3058 H   0  0  0  0  0  0  0  0  0  0  0  0
  147.5679  131.8702  156.2209 H   0  0  0  0  0  0  0  0  0  0  0  0
  147.5136  131.2221  154.5986 H   0  0  0  0  0  0  0  0  0  0  0  0
  146.0499  131.8485  155.3536 H   0  0  0  0  0  0  0  0  0  0  0  0
  149.4485  133.2624  155.5414 H   0  0  0  0  0  0  0  0  0  0  0  0
  149.4186  132.8991  153.8632 H   0  0  0  0  0  0  0  0  0  0  0  0
  149.1088  135.2940  153.3700 H   0  0  0  0  0  0  0  0  0  0  0  0
  149.9265  137.0730  153.5440 H   0  0  0  0  0  0  0  0  0  0  0  0
  153.1812  137.2747  155.4728 H   0  0  0  0  0  0  0  0  0  0  0  0
  149.6616  139.7391  154.8629 H   0  0  0  0  0  0  0  0  0  0  0  0
  145.0713  132.4672  153.4908 H   0  0  0  0  0  0  0  0  0  0  0  0
  144.8792  134.0882  154.1176 H   0  0  0  0  0  0  0  0  0  0  0  0
  145.0079  135.0858  151.8878 H   0  0  0  0  0  0  0  0  0  0  0  0
  143.7021  133.9292  151.9755 H   0  0  0  0  0  0  0  0  0  0  0  0
  145.1123  133.8222  150.0149 H   0  0  0  0  0  0  0  0  0  0  0  0
  1  2  1  0  0  0  0
  1 22  1  0  0  0  0
  1 23  1  0  0  0  0
  1 24  1  0  0  0  0
  2 20  1  0  0  0  0
  2  3  1  0  0  0  0
  2 45  1  0  0  0  0
  3  4  1  0  0  0  0
  3 25  1  0  0  0  0
  3 26  1  0  0  0  0
  4  5  1  0  0  0  0
  4 27  1  0  0  0  0
  4 28  1  0  0  0  0
  5  6  1  0  0  0  0
  5 19  1  0  0  0  0
  6  7  1  0  0  0  0
  6  8  1  0  0  0  0
  6  9  1  0  0  0  0
  7 29  1  0  0  0  0
  7 30  1  0  0  0  0
  7 31  1  0  0  0  0
  8 32  1  0  0  0  0
  8 33  1  0  0  0  0
  8 34  1  0  0  0  0
  9 10  1  0  0  0  0
  9 35  1  0  0  0  0
  9 36  1  0  0  0  0
 10 11  1  0  0  0  0
 10 37  1  0  0  0  0
 11 12  2  0  0  0  0
 11 13  1  0  0  0  0
 13 14  1  0  0  0  0
 13 38  1  0  0  0  0
 14 18  2  0  0  0  0
 14 15  1  0  0  0  0
 15 16  2  0  0  0  0
 15 39  1  0  0  0  0
 16 17  1  0  0  0  0
 17 21  1  0  0  0  0
 17 18  1  0  0  0  0
 18 40  1  0  0  0  0
 19 20  1  0  0  0  0
 19 41  1  0  0  0  0
 19 42  1  0  0  0  0
 20 43  1  0  0  0  0
 20 44  1  0  0  0  0
M  CHG  1   2   1
M  END
> <s_m_source_file>
AV-unprocessed.smi

> <i_m_source_file_index>
1736

> <i_lp_mmshare_version>
43012

> <i_f3d_flags>
0

> <s_epik_input>
W0NIM11OMVtDSDJdW0NIMl1OKFtDSDJdW0NIMl0xKUMoW0NIM10pKFtDSDNdKVtDSDJdW05IXUMoPU8pW05IXWMyW2NIXW5bbkhdW2NIXTI=

> <s_epik_cmdline>
J2VwaWtfcHl0aG9uJywgJy1waCcsICc3LjAnLCAnLXRuJywgJzgnLCAnLW1hJywgJzIwMCcsICctbWV0YWxfYmluZGluZycsICctaW1hZScsICc8aW5maWxlLm1hZT4nLCAnLW9tYWUnLCAnPG91dGZpbGUubWFlPic=

> <r_lp_tautomer_probability>
0.5

> <r_epik_Ionization_Penalty>
0.0248316

> <r_epik_Ionization_Penalty_Charging>
0.0238192

> <r_epik_Ionization_Penalty_Neutral>
0.00101244

> <r_epik_State_Penalty>
0.139266

> <r_epik_Charging_Adjusted_Penalty>
0.163085

> <i_epik_Tot_Q>
1

> <i_epik_Tot_abs_Q>
1

> <r_epik_Metal_State_Penalty>
0.139266

> <b_epik_Metal_Only>
0

> <s_lp_Force_Field>
OPLS_2005

> <r_lp_Energy>
29.1357

> <b_lp_Chiralities_Consistent>
1

> <s_lp_Variant>
AV-unprocessed.smi:1736-1

> <Gold.Version>
5.8.1

> <Gold.Id.Protein>
6NUR|6NUR_protein|mol2

> <Gold.PLP.Fitness>
35.4655

> <Gold.PLP.PLP>
-27.5785

> <Gold.PLP.part.hbond>
-3.6595

> <Gold.PLP.part.metal>
0.0000

> <Gold.PLP.part.buried>
-6.1538

> <Gold.PLP.part.nonpolar>
-20.1698

> <Gold.PLP.part.repulsive>
1.6286

> <Gold.PLP.ligand.clash>
0.0000

> <Gold.PLP.ligand.torsion>
0.5616

> <Gold.PLP.Chemscore.Hbond>
2.9920

> <Gold.PLP.Chemscore.CHOScore>
0.0000

> <Gold.PLP.Chemscore.Metal>
0.0000

> <Gold.Chemscore.Hbonds>
donor molecule, donor type, donor heavy atom, donor atom, acceptor molecule, acceptor atom, score
      L1  H    10    37       P1  7948  1.00
      L1  H    13    38       P1  7948  0.86
      P1  H  7997  8010       L1    16  1.00

> <Gold.PLP.Chemscore.Internal.Correction>
0.0343

> <Gold.Rescore>
     Score         DG    S(hbond)    S(metal)    S(lipo)     H(rot)  DE(clash)    DE(int)     intcor
     15.94     -16.67       2.35        0.00      64.05       1.63       0.18       0.55       ----

> <Gold.Chemscore.Fitness>
15.9360

> <Gold.Chemscore.DG>
-16.6725

> <Gold.Chemscore.ZeroCoef>
-5.4800

> <Gold.Chemscore.Hbond>
2.3543

> <Gold.Chemscore.Metal>
0.0000

> <Gold.Chemscore.Lipo>
64.0474

> <Gold.Chemscore.Internal_Hbond>
0.0000

> <Gold.Chemscore.DEClash>
0.1831

> <Gold.Chemscore.DEInternal>
0.5533

> <Gold.Chemscore.Rot>
1.6267

> <Gold.Chemscore.Internal.Correction>
   9.000000E+99

> <Gold.Chemscore.Hbonds>
donor molecule, donor type, donor heavy atom, donor atom, acceptor molecule, acceptor atom, score
      L1  H    10    37       P1  7948  0.35
      L1  H    13    38       P1  7948  0.31
      P1  H  7997  8010       L1    16  0.98

> <Gold.Chemscore.Hbond.Weighted>
-7.8634

> <Gold.Chemscore.Metal.Weighted>
-0.0000

> <Gold.Chemscore.Lipo.Weighted>
-7.4935

> <Gold.Chemscore.Internal_Hbond.Weighted>
0.0000

> <Gold.Chemscore.DEClash.Weighted>
0.1831

> <Gold.Chemscore.DEInternal.Weighted>
0.5533

> <Gold.Chemscore.Rot.Weighted>
4.1645

> <Gold.Chemscore.Internal.Correction.Weighted>
   9.000000E+99

> <Gold.Protein.RotatedTorsions>
[ 6907 6896 6895 6894 ] final -128.46 input  -60.11 | X-H torsion
[ 7974 7965 7964 7962 ] final   75.53 input  175.53 | X-H torsion
[ 8008 7997 7996 7995 ] final   77.36 input   59.86 | X-H torsion
[ 10167 10162 10161 10158 ] final   95.89 input  -65.29 | X-H torsion
[ 10718 10713 10712 10709 ] final   -2.38 input   66.30 | X-H torsion
[ 10763 10752 10751 10750 ] final   77.24 input  -60.55 | X-H torsion
[ 11005 11000 10999 10996 ] final  -90.99 input  -57.11 | X-H torsion

> <Gold.Protein.ActiveResidues>
 VAL166  LYS551  ARG553  GLY616  TRP617  ASP618  TYR619  PRO620  LYS621  CYS622 
 ASP623  PHE694  ASN695  SER759  ASP760  ASP761  ALA762  ILE779  LEU786  VAL792 
 PHE793  MET794  SER795  GLU796  ALA797  LYS798  CYS799  TRP800  GLU811  SER814 

> <Gold.Protein.RotatedAtoms>
  150.9181  133.6914  159.2838 H   0  0  0  0  0  0  0  0  0  0  0  0  # atno 6907 bound_to 6896
  151.4378  135.1015  159.9671 H   0  0  0  0  0  0  0  0  0  0  0  0  # atno 6908 bound_to 6896
  152.4965  133.8596  159.7298 H   0  0  0  0  0  0  0  0  0  0  0  0  # atno 6909 bound_to 6896
  145.7145  139.2626  143.1632 H   0  0  0  0  0  0  0  0  0  0  0  0  # atno 7974 bound_to 7965
  155.8405  140.3462  155.5629 H   0  0  0  0  0  0  0  0  0  0  0  0  # atno 8008 bound_to 7997
  155.8146  140.0904  157.1904 H   0  0  0  0  0  0  0  0  0  0  0  0  # atno 8009 bound_to 7997
  154.4005  140.1441  156.3415 H   0  0  0  0  0  0  0  0  0  0  0  0  # atno 8010 bound_to 7997
  139.7946  144.6838  150.9846 H   0  0  0  0  0  0  0  0  0  0  0  0  # atno 10167 bound_to 10162
  156.7917  130.5364  149.5734 H   0  0  0  0  0  0  0  0  0  0  0  0  # atno 10718 bound_to 10713
  153.0784  135.4921  154.8452 H   0  0  0  0  0  0  0  0  0  0  0  0  # atno 10763 bound_to 10752
  154.7118  135.3021  154.9187 H   0  0  0  0  0  0  0  0  0  0  0  0  # atno 10764 bound_to 10752
  153.9878  135.6782  153.4806 H   0  0  0  0  0  0  0  0  0  0  0  0  # atno 10765 bound_to 10752
  141.1554  133.7727  156.9816 H   0  0  0  0  0  0  0  0  0  0  0  0  # atno 11005 bound_to 11000
  146.0683  140.7897  142.9701 LP  0  0  0  0  0  0  0  0  0  0  0  0  # atno 17320 bound_to 7965
  144.6933  140.3302  143.7217 LP  0  0  0  0  0  0  0  0  0  0  0  0  # atno 17321 bound_to 7965
  140.7820  143.4345  151.0644 LP  0  0  0  0  0  0  0  0  0  0  0  0  # atno 17342 bound_to 10162
  139.8020  143.8070  152.3164 LP  0  0  0  0  0  0  0  0  0  0  0  0  # atno 17343 bound_to 10162
  156.1155  130.6072  151.0114 LP  0  0  0  0  0  0  0  0  0  0  0  0  # atno 17370 bound_to 10713
  157.6597  131.0883  150.7866 LP  0  0  0  0  0  0  0  0  0  0  0  0  # atno 17371 bound_to 10713
  140.1062  134.9505  157.1998 LP  0  0  0  0  0  0  0  0  0  0  0  0  # atno 17394 bound_to 11000
  140.3253  134.2870  155.7238 LP  0  0  0  0  0  0  0  0  0  0  0  0  # atno 17395 bound_to 11000

$$$$
