AV-unprocessed.smi:2768|AV-procd|sdf|10652|dock7
  -GOLD-   2272015103D 1   1.00000     0.00000
 Structure written by MMmdl.
 34 35  0  0  0  0  0  0  0  0  2 V2000
  152.2894  140.1495  155.3394 O   0  0  0  0  0  0  0  0  0  0  0  0
  151.2176  140.1866  155.9550 C   0  0  0  0  0  0  0  0  0  0  0  0
  150.8766  140.8958  157.0694 N   0  5  0  0  0  0  0  0  0  0  0  0
  151.7722  141.8172  157.7719 C   0  0  2  0  0  0  0  0  0  0  0  0
  152.0093  141.3022  159.2137 C   0  0  0  0  0  0  0  0  0  0  0  0
  152.8258  142.2819  160.0935 C   0  0  0  0  0  0  0  0  0  0  0  0
  152.1898  143.6854  160.1614 C   0  0  0  0  0  0  0  0  0  0  0  0
  151.9655  144.2185  158.7314 C   0  0  0  0  0  0  0  0  0  0  0  0
  151.1477  143.2396  157.8466 C   0  0  1  0  0  0  0  0  0  0  0  0
  151.0562  143.7945  156.5486 O   0  0  0  0  0  0  0  0  0  0  0  0
  150.0547  139.3088  155.4437 C   0  0  0  0  0  0  0  0  0  0  0  0
  150.4243  138.6351  154.3485 F   0  0  0  0  0  0  0  0  0  0  0  0
  149.7608  138.4055  156.3824 F   0  0  0  0  0  0  0  0  0  0  0  0
  148.8185  140.1622  155.1667 C   0  0  0  0  0  0  0  0  0  0  0  0
  148.8547  141.1893  154.1957 C   0  0  0  0  0  0  0  0  0  0  0  0
  147.6888  141.9441  153.9653 C   0  0  0  0  0  0  0  0  0  0  0  0
  146.5309  141.6488  154.7091 C   0  0  0  0  0  0  0  0  0  0  0  0
  146.5915  140.6053  155.6535 C   0  0  0  0  0  0  0  0  0  0  0  0
  147.7043  139.8767  155.8828 N   0  0  0  0  0  0  0  0  0  0  0  0
  152.7475  141.9016  157.2884 H   0  0  0  0  0  0  0  0  0  0  0  0
  150.1367  143.1725  158.2520 H   0  0  0  0  0  0  0  0  0  0  0  0
  151.0487  141.1185  159.6978 H   0  0  0  0  0  0  0  0  0  0  0  0
  152.5195  140.3387  159.1793 H   0  0  0  0  0  0  0  0  0  0  0  0
  152.9129  141.8758  161.1017 H   0  0  0  0  0  0  0  0  0  0  0  0
  153.8474  142.3633  159.7168 H   0  0  0  0  0  0  0  0  0  0  0  0
  151.2361  143.6322  160.6881 H   0  0  0  0  0  0  0  0  0  0  0  0
  152.8268  144.3662  160.7265 H   0  0  0  0  0  0  0  0  0  0  0  0
  151.4505  145.1784  158.7851 H   0  0  0  0  0  0  0  0  0  0  0  0
  152.9345  144.4264  158.2722 H   0  0  0  0  0  0  0  0  0  0  0  0
  150.1999  144.1830  156.4565 H   0  0  0  0  0  0  0  0  0  0  0  0
  149.7550  141.3891  153.6335 H   0  0  0  0  0  0  0  0  0  0  0  0
  147.6829  142.7343  153.2292 H   0  0  0  0  0  0  0  0  0  0  0  0
  145.6184  142.2061  154.5585 H   0  0  0  0  0  0  0  0  0  0  0  0
  145.7229  140.3502  156.2425 H   0  0  0  0  0  0  0  0  0  0  0  0
  1  2  2  0  0  0  0
  2  3  1  0  0  0  0
  2 11  1  0  0  0  0
  3  4  1  0  0  0  0
  4 20  1  0  0  0  0
  4  9  1  0  0  0  0
  4  5  1  0  0  0  0
  5  6  1  0  0  0  0
  5 22  1  0  0  0  0
  5 23  1  0  0  0  0
  6  7  1  0  0  0  0
  6 24  1  0  0  0  0
  6 25  1  0  0  0  0
  7  8  1  0  0  0  0
  7 26  1  0  0  0  0
  7 27  1  0  0  0  0
  8  9  1  0  0  0  0
  8 28  1  0  0  0  0
  8 29  1  0  0  0  0
  9 21  1  0  0  0  0
  9 10  1  0  0  0  0
 10 30  1  0  0  0  0
 11 12  1  0  0  0  0
 11 13  1  0  0  0  0
 11 14  1  0  0  0  0
 14 19  1  0  0  0  0
 14 15  2  0  0  0  0
 15 16  1  0  0  0  0
 15 31  1  0  0  0  0
 16 17  2  0  0  0  0
 16 32  1  0  0  0  0
 17 18  1  0  0  0  0
 17 33  1  0  0  0  0
 18 19  2  0  0  0  0
 18 34  1  0  0  0  0
M  CHG  1   3  -1
M  END
> <s_m_source_file>
AV-unprocessed.smi

> <i_m_source_file_index>
2768

> <i_lp_mmshare_version>
43012

> <i_f3d_flags>
0

> <s_epik_input>
bjFbY0hdW2NIXVtjSF1bY0hdYzFDKEYpKEYpQyg9TylbTkhdW0NAQEhdMltDSDJdW0NIMl1bQ0gyXVtDSDJdW0NASF0yW09IXQ==

> <s_epik_cmdline>
J2VwaWtfcHl0aG9uJywgJy1waCcsICc3LjAnLCAnLXRuJywgJzgnLCAnLW1hJywgJzIwMCcsICctbWV0YWxfYmluZGluZycsICctaW1hZScsICc8aW5maWxlLm1hZT4nLCAnLW9tYWUnLCAnPG91dGZpbGUubWFlPic=

> <r_lp_tautomer_probability>
1

> <r_epik_Ionization_Penalty>
5.70553

> <r_epik_Ionization_Penalty_Charging>
5.70553

> <r_epik_Ionization_Penalty_Neutral>
5.5493e-06

> <r_epik_State_Penalty>
5.70549

> <r_epik_Charging_Adjusted_Penalty>
11.411

> <i_epik_Tot_Q>
-1

> <i_epik_Tot_abs_Q>
1

> <r_epik_Metal_State_Penalty>
1.6859

> <b_epik_Metal_Only>
1

> <s_lp_Force_Field>
OPLS_2005

> <r_lp_Energy>
26.6713

> <b_lp_Chiralities_Consistent>
1

> <s_lp_Variant>
AV-unprocessed.smi:2768-5

> <Gold.Version>
5.8.1

> <Gold.Id.Protein>
6NUR|6NUR_protein|mol2

> <Gold.PLP.Fitness>
44.8629

> <Gold.PLP.PLP>
-38.2312

> <Gold.PLP.part.hbond>
-2.5569

> <Gold.PLP.part.metal>
0.0000

> <Gold.PLP.part.buried>
-4.2227

> <Gold.PLP.part.nonpolar>
-31.6565

> <Gold.PLP.part.repulsive>
0.0280

> <Gold.PLP.ligand.clash>
0.0000

> <Gold.PLP.ligand.torsion>
0.0371

> <Gold.PLP.Chemscore.Hbond>
2.2252

> <Gold.PLP.Chemscore.CHOScore>
0.0000

> <Gold.PLP.Chemscore.Metal>
0.0000

> <Gold.Chemscore.Hbonds>
donor molecule, donor type, donor heavy atom, donor atom, acceptor molecule, acceptor atom, score
      L1  H    10    30       P1  8028  1.00
      P1  H  7989  7998       L1     1  0.61
      P1  H  7997  8010       L1     1  0.55

> <Gold.PLP.Chemscore.Internal.Correction>
0.0301

> <Gold.Rescore>
     Score         DG    S(hbond)    S(metal)    S(lipo)     H(rot)  DE(clash)    DE(int)     intcor
     17.28     -17.55       1.77        0.00      95.19       1.95       0.20       0.07       ----

> <Gold.Chemscore.Fitness>
17.2824

> <Gold.Chemscore.DG>
-17.5487

> <Gold.Chemscore.ZeroCoef>
-5.4800

> <Gold.Chemscore.Hbond>
1.7738

> <Gold.Chemscore.Metal>
0.0000

> <Gold.Chemscore.Lipo>
95.1876

> <Gold.Chemscore.Internal_Hbond>
0.0000

> <Gold.Chemscore.DEClash>
0.1955

> <Gold.Chemscore.DEInternal>
0.0708

> <Gold.Chemscore.Rot>
1.9503

> <Gold.Chemscore.Internal.Correction>
   9.000000E+99

> <Gold.Chemscore.Hbonds>
donor molecule, donor type, donor heavy atom, donor atom, acceptor molecule, acceptor atom, score
      L1  H    10    30       P1  8028  0.98
      P1  H  7989  7998       L1     1  0.15
      P1  H  7997  8010       L1     1  0.56

> <Gold.Chemscore.Hbond.Weighted>
-5.9246

> <Gold.Chemscore.Metal.Weighted>
-0.0000

> <Gold.Chemscore.Lipo.Weighted>
-11.1369

> <Gold.Chemscore.Internal_Hbond.Weighted>
0.0000

> <Gold.Chemscore.DEClash.Weighted>
0.1955

> <Gold.Chemscore.DEInternal.Weighted>
0.0708

> <Gold.Chemscore.Rot.Weighted>
4.9928

> <Gold.Chemscore.Internal.Correction.Weighted>
   9.000000E+99

> <Gold.Protein.RotatedTorsions>
[ 6907 6896 6895 6894 ] final   98.49 input  -60.11 | X-H torsion
[ 7974 7965 7964 7962 ] final -142.72 input  175.53 | X-H torsion
[ 8008 7997 7996 7995 ] final   95.83 input   59.86 | X-H torsion
[ 10167 10162 10161 10158 ] final  -14.70 input  -65.29 | X-H torsion
[ 10718 10713 10712 10709 ] final   61.03 input   66.30 | X-H torsion
[ 10763 10752 10751 10750 ] final  -64.28 input  -60.55 | X-H torsion
[ 11005 11000 10999 10996 ] final  120.26 input  -57.11 | X-H torsion

> <Gold.Protein.ActiveResidues>
 VAL166  LYS551  ARG553  GLY616  TRP617  ASP618  TYR619  PRO620  LYS621  CYS622 
 ASP623  PHE694  ASN695  SER759  ASP760  ASP761  ALA762  ILE779  LEU786  VAL792 
 PHE793  MET794  SER795  GLU796  ALA797  LYS798  CYS799  TRP800  GLU811  SER814 

> <Gold.Protein.RotatedAtoms>
  152.5408  134.0573  159.8136 H   0  0  0  0  0  0  0  0  0  0  0  0  # atno 6907 bound_to 6896
  151.0706  133.5462  159.2634 H   0  0  0  0  0  0  0  0  0  0  0  0  # atno 6908 bound_to 6896
  151.2326  135.0568  159.9047 H   0  0  0  0  0  0  0  0  0  0  0  0  # atno 6909 bound_to 6896
  144.8422  140.5923  143.5445 H   0  0  0  0  0  0  0  0  0  0  0  0  # atno 7974 bound_to 7965
  156.0731  140.3281  155.7600 H   0  0  0  0  0  0  0  0  0  0  0  0  # atno 8008 bound_to 7997
  155.5274  140.0590  157.2913 H   0  0  0  0  0  0  0  0  0  0  0  0  # atno 8009 bound_to 7997
  154.4541  140.1933  156.0450 H   0  0  0  0  0  0  0  0  0  0  0  0  # atno 8010 bound_to 7997
  140.7206  143.5294  150.9537 H   0  0  0  0  0  0  0  0  0  0  0  0  # atno 10167 bound_to 10162
  157.5797  130.8972  149.9409 H   0  0  0  0  0  0  0  0  0  0  0  0  # atno 10718 bound_to 10713
  154.3278  135.6183  153.5537 H   0  0  0  0  0  0  0  0  0  0  0  0  # atno 10763 bound_to 10752
  152.9814  135.5739  154.4997 H   0  0  0  0  0  0  0  0  0  0  0  0  # atno 10764 bound_to 10752
  154.4677  135.2858  155.1643 H   0  0  0  0  0  0  0  0  0  0  0  0  # atno 10765 bound_to 10752
  139.9178  134.9633  156.7779 H   0  0  0  0  0  0  0  0  0  0  0  0  # atno 11005 bound_to 11000
  145.4670  139.1507  143.3835 LP  0  0  0  0  0  0  0  0  0  0  0  0  # atno 17320 bound_to 7965
  146.2713  140.4802  142.8813 LP  0  0  0  0  0  0  0  0  0  0  0  0  # atno 17321 bound_to 7965
  139.9014  143.6831  152.3130 LP  0  0  0  0  0  0  0  0  0  0  0  0  # atno 17342 bound_to 10162
  139.7182  144.7608  151.0999 LP  0  0  0  0  0  0  0  0  0  0  0  0  # atno 17343 bound_to 10162
  156.0843  130.3670  150.0519 LP  0  0  0  0  0  0  0  0  0  0  0  0  # atno 17370 bound_to 10713
  156.8660  130.9508  151.3613 LP  0  0  0  0  0  0  0  0  0  0  0  0  # atno 17371 bound_to 10713
  140.6567  133.9682  155.7783 LP  0  0  0  0  0  0  0  0  0  0  0  0  # atno 17394 bound_to 11000
  141.0671  134.0261  157.3579 LP  0  0  0  0  0  0  0  0  0  0  0  0  # atno 17395 bound_to 11000

$$$$
