AV-unprocessed.smi:72|AV-procd|sdf|714|dock10
  -GOLD-   2262017 43D 1   1.00000     0.00000
 Structure written by MMmdl.
 28 29  0  0  0  0  0  0  0  0  2 V2000
  151.2221  134.6042  156.9602 N   0  0  0  0  0  0  0  0  0  0  0  0
  151.1873  135.8411  156.7191 C   0  0  0  0  0  0  0  0  0  0  0  0
  149.9171  136.5266  156.6202 N   0  0  0  0  0  0  0  0  0  0  0  0
  149.9354  137.7979  156.3616 C   0  0  0  0  0  0  0  0  0  0  0  0
  151.1821  138.5266  156.1714 N   0  0  0  0  0  0  0  0  0  0  0  0
  151.1787  140.0144  155.8749 C   0  0  1  0  0  0  0  0  0  0  0  0
  150.3522  140.2566  154.7742 O   0  0  0  0  0  0  0  0  0  0  0  0
  149.5812  141.4316  155.0014 C   0  0  1  0  0  0  0  0  0  0  0  0
  148.3190  141.4477  154.1208 C   0  0  0  0  0  0  0  0  0  0  0  0
  147.6106  142.6549  154.3063 O   0  0  0  0  0  0  0  0  0  0  0  0
  149.3316  141.4043  156.5158 C   0  0  1  0  0  0  0  0  0  0  0  0
  148.2341  140.5648  156.8366 O   0  0  0  0  0  0  0  0  0  0  0  0
  150.6548  140.8670  157.0510 C   0  0  1  0  0  0  0  0  0  0  0  0
  150.5248  140.1992  158.2947 O   0  0  0  0  0  0  0  0  0  0  0  0
  152.4153  137.8319  156.2926 C   0  0  0  0  0  0  0  0  0  0  0  0
  153.4599  138.4699  156.1613 O   0  0  0  0  0  0  0  0  0  0  0  0
  152.3888  136.4958  156.5596 N   0  5  0  0  0  0  0  0  0  0  0  0
  152.1973  140.2770  155.5865 H   0  0  0  0  0  0  0  0  0  0  0  0
  150.2057  142.2991  154.7783 H   0  0  0  0  0  0  0  0  0  0  0  0
  149.1176  142.4000  156.9054 H   0  0  0  0  0  0  0  0  0  0  0  0
  151.3488  141.6989  157.1779 H   0  0  0  0  0  0  0  0  0  0  0  0
  150.2991  134.2074  157.0619 H   0  0  0  0  0  0  0  0  0  0  0  0
  149.0282  138.3966  156.2743 H   0  0  0  0  0  0  0  0  0  0  0  0
  148.5676  141.3120  153.0677 H   0  0  0  0  0  0  0  0  0  0  0  0
  147.6521  140.6335  154.4059 H   0  0  0  0  0  0  0  0  0  0  0  0
  148.1974  143.2924  154.6834 H   0  0  0  0  0  0  0  0  0  0  0  0
  148.5736  139.7333  157.1311 H   0  0  0  0  0  0  0  0  0  0  0  0
  149.6531  140.3550  158.6254 H   0  0  0  0  0  0  0  0  0  0  0  0
  1  2  2  0  0  0  0
  1 22  1  0  0  0  0
  2 17  1  0  0  0  0
  2  3  1  0  0  0  0
  3  4  2  0  0  0  0
  4  5  1  0  0  0  0
  4 23  1  0  0  0  0
  5  6  1  0  0  0  0
  5 15  1  0  0  0  0
  6 18  1  0  0  0  0
  6 13  1  0  0  0  0
  6  7  1  0  0  0  0
  7  8  1  0  0  0  0
  8 19  1  0  0  0  0
  8  9  1  0  0  0  0
  8 11  1  0  0  0  0
  9 10  1  0  0  0  0
  9 24  1  0  0  0  0
  9 25  1  0  0  0  0
 10 26  1  0  0  0  0
 11 20  1  0  0  0  0
 11 12  1  0  0  0  0
 11 13  1  0  0  0  0
 12 27  1  0  0  0  0
 13 21  1  0  0  0  0
 13 14  1  0  0  0  0
 14 28  1  0  0  0  0
 15 16  2  0  0  0  0
 15 17  1  0  0  0  0
M  CHG  1  17  -1
M  END
> <s_m_source_file>
AV-unprocessed.smi

> <i_m_source_file_index>
72

> <i_lp_mmshare_version>
43012

> <i_f3d_flags>
0

> <s_epik_input>
W05IMl1jMW5bY0hdbihjKD1PKW4xKVtDQEBIXTJPW0NASF0oW0NIMl1bT0hdKVtDQEBIXShbT0hdKVtDQEhdMltPSF0=

> <s_epik_cmdline>
J2VwaWtfcHl0aG9uJywgJy1waCcsICc3LjAnLCAnLXRuJywgJzgnLCAnLW1hJywgJzIwMCcsICctbWV0YWxfYmluZGluZycsICctaW1hZScsICc8aW5maWxlLm1hZT4nLCAnLW9tYWUnLCAnPG91dGZpbGUubWFlPic=

> <r_lp_tautomer_probability>
7.17554e-07

> <r_epik_Ionization_Penalty>
12.8705

> <r_epik_Ionization_Penalty_Charging>
5.64144

> <r_epik_Ionization_Penalty_Neutral>
7.22905

> <r_epik_State_Penalty>
3.30104

> <r_epik_Charging_Adjusted_Penalty>
8.94249

> <i_epik_Tot_Q>
-1

> <i_epik_Tot_abs_Q>
1

> <r_epik_Metal_State_Penalty>
0.529074

> <b_epik_Metal_Only>
1

> <s_epik_Chemistry_Notes>
This compound contains an acetal/aminal-like group ( X-CH(R)-Y where X, Y are N, S, or O) that may be acid/base labile, releasing an aldehyde.

> <s_lp_Force_Field>
OPLS_2005

> <r_lp_Energy>
43.693

> <b_lp_Chiralities_Consistent>
1

> <s_lp_Variant>
AV-unprocessed.smi:72-52

> <Gold.Version>
5.8.1

> <Gold.Id.Protein>
6NUR|6NUR_protein|mol2

> <Gold.PLP.Fitness>
36.4601

> <Gold.PLP.PLP>
-22.7138

> <Gold.PLP.part.hbond>
-4.8297

> <Gold.PLP.part.metal>
0.0000

> <Gold.PLP.part.buried>
-4.4611

> <Gold.PLP.part.nonpolar>
-14.3697

> <Gold.PLP.part.repulsive>
0.0865

> <Gold.PLP.ligand.clash>
0.0000

> <Gold.PLP.ligand.torsion>
0.1127

> <Gold.PLP.Chemscore.Hbond>
4.6560

> <Gold.PLP.Chemscore.CHOScore>
0.0000

> <Gold.PLP.Chemscore.Metal>
0.0000

> <Gold.Chemscore.Hbonds>
donor molecule, donor type, donor heavy atom, donor atom, acceptor molecule, acceptor atom, score
      L1  H    10    26       P1  8028  1.00
      P1  H  7989  7998       L1     7  1.00
      P1  H  7997  8009       L1    16  0.75
      P1  H 10752 10764       L1    17  2.00

> <Gold.PLP.Chemscore.Internal.Correction>
0.0037

> <Gold.Rescore>
     Score         DG    S(hbond)    S(metal)    S(lipo)     H(rot)  DE(clash)    DE(int)     intcor
      7.04      -7.21       2.77        0.00      23.96       4.04       0.04       0.13       ----

> <Gold.Chemscore.Fitness>
7.0371

> <Gold.Chemscore.DG>
-7.2068

> <Gold.Chemscore.ZeroCoef>
-5.4800

> <Gold.Chemscore.Hbond>
2.7744

> <Gold.Chemscore.Metal>
0.0000

> <Gold.Chemscore.Lipo>
23.9592

> <Gold.Chemscore.Internal_Hbond>
0.0000

> <Gold.Chemscore.DEClash>
0.0376

> <Gold.Chemscore.DEInternal>
0.1321

> <Gold.Chemscore.Rot>
4.0403

> <Gold.Chemscore.Internal.Correction>
   9.000000E+99

> <Gold.Chemscore.Hbonds>
donor molecule, donor type, donor heavy atom, donor atom, acceptor molecule, acceptor atom, score
      L1  H    10    26       P1  8028  0.97
      P1  H  7989  7998       L1     7  0.09
      P1  H  7997  8009       L1    16  0.76
      P1  H 10752 10764       L1    17  0.46

> <Gold.Chemscore.Hbond.Weighted>
-9.2666

> <Gold.Chemscore.Metal.Weighted>
-0.0000

> <Gold.Chemscore.Lipo.Weighted>
-2.8032

> <Gold.Chemscore.Internal_Hbond.Weighted>
0.0000

> <Gold.Chemscore.DEClash.Weighted>
0.0376

> <Gold.Chemscore.DEInternal.Weighted>
0.1321

> <Gold.Chemscore.Rot.Weighted>
10.3431

> <Gold.Chemscore.Internal.Correction.Weighted>
   9.000000E+99

> <Gold.Protein.RotatedTorsions>
[ 6907 6896 6895 6894 ] final -145.36 input  -60.11 | X-H torsion
[ 7974 7965 7964 7962 ] final -176.15 input  175.53 | X-H torsion
[ 8008 7997 7996 7995 ] final -179.65 input   59.86 | X-H torsion
[ 10167 10162 10161 10158 ] final   47.70 input  -65.29 | X-H torsion
[ 10718 10713 10712 10709 ] final  -44.89 input   66.30 | X-H torsion
[ 10763 10752 10751 10750 ] final   -6.86 input  -60.55 | X-H torsion
[ 11005 11000 10999 10996 ] final   30.98 input  -57.11 | X-H torsion

> <Gold.Protein.ActiveResidues>
 VAL166  LYS551  ARG553  GLY616  TRP617  ASP618  TYR619  PRO620  LYS621  CYS622 
 ASP623  PHE694  ASN695  SER759  ASP760  ASP761  ALA762  ILE779  LEU786  VAL792 
 PHE793  MET794  SER795  GLU796  ALA797  LYS798  CYS799  TRP800  GLU811  SER814 

> <Gold.Protein.RotatedAtoms>
  151.1267  133.5066  159.2600 H   0  0  0  0  0  0  0  0  0  0  0  0  # atno 6907 bound_to 6896
  151.1802  135.0357  159.8799 H   0  0  0  0  0  0  0  0  0  0  0  0  # atno 6908 bound_to 6896
  152.5458  134.1120  159.8416 H   0  0  0  0  0  0  0  0  0  0  0  0  # atno 6909 bound_to 6896
  144.7127  140.1213  143.6405 H   0  0  0  0  0  0  0  0  0  0  0  0  # atno 7974 bound_to 7965
  156.0330  140.1286  157.0238 H   0  0  0  0  0  0  0  0  0  0  0  0  # atno 8008 bound_to 7997
  154.4358  140.1045  156.6197 H   0  0  0  0  0  0  0  0  0  0  0  0  # atno 8009 bound_to 7997
  155.5779  140.3467  155.4534 H   0  0  0  0  0  0  0  0  0  0  0  0  # atno 8010 bound_to 7997
  140.3009  144.2935  150.6219 H   0  0  0  0  0  0  0  0  0  0  0  0  # atno 10167 bound_to 10162
  156.2340  130.4174  149.8840 H   0  0  0  0  0  0  0  0  0  0  0  0  # atno 10718 bound_to 10713
  153.4183  135.7009  153.6311 H   0  0  0  0  0  0  0  0  0  0  0  0  # atno 10763 bound_to 10752
  153.4777  135.3700  155.2425 H   0  0  0  0  0  0  0  0  0  0  0  0  # atno 10764 bound_to 10752
  154.8721  135.4058  154.3547 H   0  0  0  0  0  0  0  0  0  0  0  0  # atno 10765 bound_to 10752
  140.2887  134.2890  155.7781 H   0  0  0  0  0  0  0  0  0  0  0  0  # atno 11005 bound_to 11000
  145.9369  139.2643  143.1292 LP  0  0  0  0  0  0  0  0  0  0  0  0  # atno 17320 bound_to 7965
  145.9465  140.8941  143.0281 LP  0  0  0  0  0  0  0  0  0  0  0  0  # atno 17321 bound_to 7965
  140.5652  143.2187  151.7696 LP  0  0  0  0  0  0  0  0  0  0  0  0  # atno 17342 bound_to 10162
  139.4915  144.4294  151.9890 LP  0  0  0  0  0  0  0  0  0  0  0  0  # atno 17343 bound_to 10162
  156.6445  130.8718  151.3520 LP  0  0  0  0  0  0  0  0  0  0  0  0  # atno 17370 bound_to 10713
  157.7146  130.9481  150.1208 LP  0  0  0  0  0  0  0  0  0  0  0  0  # atno 17371 bound_to 10713
  141.2150  133.7571  156.9591 LP  0  0  0  0  0  0  0  0  0  0  0  0  # atno 17394 bound_to 11000
  140.1216  134.9413  157.2211 LP  0  0  0  0  0  0  0  0  0  0  0  0  # atno 17395 bound_to 11000

$$$$
