AV-unprocessed.smi:861|AV-procd|sdf|3972|dock10
  -GOLD-   22720 1443D 1   1.00000     0.00000
 Structure written by MMmdl.
 45 46  0  0  0  0  0  0  0  0  3 V2000
  147.9608  142.0959  154.1539 C   0  0  0  0  0  0  0  0  0  0  0  0
  146.4373  142.0224  153.9522 C   0  0  0  0  0  0  0  0  0  0  0  0
  145.8441  143.4376  153.8663 C   0  0  0  0  0  0  0  0  0  0  0  0
  145.7319  141.2012  155.0520 C   0  0  0  0  0  0  0  0  0  0  0  0
  146.0674  139.6964  155.0239 C   0  0  0  0  0  0  0  0  0  0  0  0
  145.6952  139.0503  153.7390 N   0  3  1  0  0  0  0  0  0  0  0  0
  146.8357  138.8876  152.8035 C   0  0  0  0  0  0  0  0  0  0  0  0
  146.3684  138.2356  151.4929 C   0  0  0  0  0  0  0  0  0  0  0  0
  145.7477  136.9886  151.7771 O   0  0  0  0  0  0  0  0  0  0  0  0
  144.5893  137.1306  152.5908 C   0  0  1  0  0  0  0  0  0  0  0  0
  143.9702  135.7284  152.7430 C   0  0  0  0  0  0  0  0  0  0  0  0
  143.6267  135.1134  151.4674 N   0  0  0  0  0  0  0  0  0  0  0  0
  144.4260  134.1206  150.8823 C   0  0  0  0  0  0  0  0  0  0  0  0
  145.6205  133.6156  151.4481 C   0  0  0  0  0  0  0  0  0  0  0  0
  146.3203  132.6181  150.7479 C   0  0  0  0  0  0  0  0  0  0  0  0
  145.7841  132.1830  149.5232 C   0  0  0  0  0  0  0  0  0  0  0  0
  144.6404  132.6773  148.9994 N   0  0  0  0  0  0  0  0  0  0  0  0
  143.9940  133.6304  149.6932 N   0  3  0  0  0  0  0  0  0  0  0  0
  145.0068  137.7515  153.9416 C   0  0  0  0  0  0  0  0  0  0  0  0
  148.2123  142.5405  155.1175 H   0  0  0  0  0  0  0  0  0  0  0  0
  148.4277  142.7046  153.3788 H   0  0  0  0  0  0  0  0  0  0  0  0
  148.4256  141.1117  154.1075 H   0  0  0  0  0  0  0  0  0  0  0  0
  146.2489  141.5371  152.9936 H   0  0  0  0  0  0  0  0  0  0  0  0
  145.9894  143.9857  154.7979 H   0  0  0  0  0  0  0  0  0  0  0  0
  144.7735  143.4057  153.6619 H   0  0  0  0  0  0  0  0  0  0  0  0
  146.3107  144.0127  153.0656 H   0  0  0  0  0  0  0  0  0  0  0  0
  145.9753  141.6161  156.0311 H   0  0  0  0  0  0  0  0  0  0  0  0
  144.6570  141.3295  154.9291 H   0  0  0  0  0  0  0  0  0  0  0  0
  147.1265  139.5320  155.2275 H   0  0  0  0  0  0  0  0  0  0  0  0
  145.5188  139.2027  155.8260 H   0  0  0  0  0  0  0  0  0  0  0  0
  147.2896  139.8511  152.5762 H   0  0  0  0  0  0  0  0  0  0  0  0
  147.6068  138.2724  153.2696 H   0  0  0  0  0  0  0  0  0  0  0  0
  145.6780  138.8873  150.9549 H   0  0  0  0  0  0  0  0  0  0  0  0
  147.2211  138.0637  150.8358 H   0  0  0  0  0  0  0  0  0  0  0  0
  143.8822  137.7884  152.0824 H   0  0  0  0  0  0  0  0  0  0  0  0
  144.6460  135.0724  153.2922 H   0  0  0  0  0  0  0  0  0  0  0  0
  143.0636  135.7915  153.3453 H   0  0  0  0  0  0  0  0  0  0  0  0
  142.7568  135.3759  151.0260 H   0  0  0  0  0  0  0  0  0  0  0  0
  146.0051  133.9723  152.3916 H   0  0  0  0  0  0  0  0  0  0  0  0
  147.2372  132.1982  151.1352 H   0  0  0  0  0  0  0  0  0  0  0  0
  146.2842  131.4182  148.9471 H   0  0  0  0  0  0  0  0  0  0  0  0
  145.6686  137.0718  154.4814 H   0  0  0  0  0  0  0  0  0  0  0  0
  144.1251  137.9027  154.5657 H   0  0  0  0  0  0  0  0  0  0  0  0
  145.0272  139.6612  153.2906 H   0  0  0  0  0  0  0  0  0  0  0  0
  143.1280  134.0045  149.3044 H   0  0  0  0  0  0  0  0  0  0  0  0
  1  2  1  0  0  0  0
  1 20  1  0  0  0  0
  1 21  1  0  0  0  0
  1 22  1  0  0  0  0
  2  3  1  0  0  0  0
  2  4  1  0  0  0  0
  2 23  1  0  0  0  0
  3 24  1  0  0  0  0
  3 25  1  0  0  0  0
  3 26  1  0  0  0  0
  4  5  1  0  0  0  0
  4 27  1  0  0  0  0
  4 28  1  0  0  0  0
  5  6  1  0  0  0  0
  5 29  1  0  0  0  0
  5 30  1  0  0  0  0
  6 19  1  0  0  0  0
  6  7  1  0  0  0  0
  6 44  1  0  0  0  0
  7  8  1  0  0  0  0
  7 31  1  0  0  0  0
  7 32  1  0  0  0  0
  8  9  1  0  0  0  0
  8 33  1  0  0  0  0
  8 34  1  0  0  0  0
  9 10  1  0  0  0  0
 10 11  1  0  0  0  0
 10 19  1  0  0  0  0
 10 35  1  0  0  0  0
 11 12  1  0  0  0  0
 11 36  1  0  0  0  0
 11 37  1  0  0  0  0
 12 13  1  0  0  0  0
 12 38  1  0  0  0  0
 13 18  1  0  0  0  0
 13 14  2  0  0  0  0
 14 15  1  0  0  0  0
 14 39  1  0  0  0  0
 15 16  2  0  0  0  0
 15 40  1  0  0  0  0
 16 17  1  0  0  0  0
 16 41  1  0  0  0  0
 17 18  2  0  0  0  0
 18 45  1  0  0  0  0
 19 42  1  0  0  0  0
 19 43  1  0  0  0  0
M  CHG  1   6   1
M  CHG  1  18   1
M  END
> <s_m_source_file>
AV-unprocessed.smi

> <i_m_source_file_index>
861

> <i_lp_mmshare_version>
43012

> <i_f3d_flags>
0

> <s_epik_input>
W0NIM11bQ0hdKFtDSDNdKVtDSDJdW0NIMl1OMVtDSDJdW0NIMl1PW0NASF0oW0NIMl0xKVtDSDJdW05IXWMyW2NIXVtjSF1bY0hdbm4y

> <s_epik_cmdline>
J2VwaWtfcHl0aG9uJywgJy1waCcsICc3LjAnLCAnLXRuJywgJzgnLCAnLW1hJywgJzIwMCcsICctbWV0YWxfYmluZGluZycsICctaW1hZScsICc8aW5maWxlLm1hZT4nLCAnLW9tYWUnLCAnPG91dGZpbGUubWFlPic=

> <r_lp_tautomer_probability>
0.966961

> <r_epik_Ionization_Penalty>
2.478

> <r_epik_Ionization_Penalty_Charging>
2.47799

> <r_epik_Ionization_Penalty_Neutral>
3.15286e-06

> <r_epik_State_Penalty>
2.10794

> <r_epik_Charging_Adjusted_Penalty>
4.58594

> <i_epik_Tot_Q>
2

> <i_epik_Tot_abs_Q>
2

> <r_epik_Metal_State_Penalty>
2.11378

> <b_epik_Metal_Only>
0

> <s_lp_Force_Field>
OPLS_2005

> <r_lp_Energy>
34.6119

> <b_lp_Chiralities_Consistent>
1

> <s_lp_Variant>
AV-unprocessed.smi:861-7

> <Gold.Version>
5.8.1

> <Gold.Id.Protein>
6NUR|6NUR_protein|mol2

> <Gold.PLP.Fitness>
45.8577

> <Gold.PLP.PLP>
-35.3450

> <Gold.PLP.part.hbond>
-2.4137

> <Gold.PLP.part.metal>
0.0000

> <Gold.PLP.part.buried>
-3.1056

> <Gold.PLP.part.nonpolar>
-30.3118

> <Gold.PLP.part.repulsive>
0.8365

> <Gold.PLP.ligand.clash>
0.0000

> <Gold.PLP.ligand.torsion>
0.7608

> <Gold.PLP.Chemscore.Hbond>
4.0000

> <Gold.PLP.Chemscore.CHOScore>
0.0000

> <Gold.PLP.Chemscore.Metal>
0.0000

> <Gold.Chemscore.Hbonds>
donor molecule, donor type, donor heavy atom, donor atom, acceptor molecule, acceptor atom, score
      L1  H     6    44       P1 10175  2.00
      L1  H    18    45       P1 10186  1.29

> <Gold.PLP.Chemscore.Internal.Correction>
0.0343

> <Gold.Rescore>
     Score         DG    S(hbond)    S(metal)    S(lipo)     H(rot)  DE(clash)    DE(int)     intcor
     15.78     -16.70       1.98        0.00      78.22       1.78       0.15       0.77       ----

> <Gold.Chemscore.Fitness>
15.7779

> <Gold.Chemscore.DG>
-16.6980

> <Gold.Chemscore.ZeroCoef>
-5.4800

> <Gold.Chemscore.Hbond>
1.9796

> <Gold.Chemscore.Metal>
0.0000

> <Gold.Chemscore.Lipo>
78.2244

> <Gold.Chemscore.Internal_Hbond>
0.0000

> <Gold.Chemscore.DEClash>
0.1508

> <Gold.Chemscore.DEInternal>
0.7693

> <Gold.Chemscore.Rot>
1.7759

> <Gold.Chemscore.Internal.Correction>
   9.000000E+99

> <Gold.Chemscore.Hbonds>
donor molecule, donor type, donor heavy atom, donor atom, acceptor molecule, acceptor atom, score
      L1  H     6    44       P1 10175  1.00
      L1  H    18    45       P1 10186  0.60

> <Gold.Chemscore.Hbond.Weighted>
-6.6119

> <Gold.Chemscore.Metal.Weighted>
-0.0000

> <Gold.Chemscore.Lipo.Weighted>
-9.1523

> <Gold.Chemscore.Internal_Hbond.Weighted>
0.0000

> <Gold.Chemscore.DEClash.Weighted>
0.1508

> <Gold.Chemscore.DEInternal.Weighted>
0.7693

> <Gold.Chemscore.Rot.Weighted>
4.5462

> <Gold.Chemscore.Internal.Correction.Weighted>
   9.000000E+99

> <Gold.Protein.RotatedTorsions>
[ 6907 6896 6895 6894 ] final   53.12 input  -60.11 | X-H torsion
[ 7974 7965 7964 7962 ] final -107.01 input  175.53 | X-H torsion
[ 8008 7997 7996 7995 ] final  115.94 input   59.86 | X-H torsion
[ 10167 10162 10161 10158 ] final  -73.48 input  -65.29 | X-H torsion
[ 10718 10713 10712 10709 ] final    1.51 input   66.30 | X-H torsion
[ 10763 10752 10751 10750 ] final  -68.16 input  -60.55 | X-H torsion
[ 11005 11000 10999 10996 ] final   46.10 input  -57.11 | X-H torsion

> <Gold.Protein.ActiveResidues>
 VAL166  LYS551  ARG553  GLY616  TRP617  ASP618  TYR619  PRO620  LYS621  CYS622 
 ASP623  PHE694  ASN695  SER759  ASP760  ASP761  ALA762  ILE779  LEU786  VAL792 
 PHE793  MET794  SER795  GLU796  ALA797  LYS798  CYS799  TRP800  GLU811  SER814 

> <Gold.Protein.RotatedAtoms>
  152.3304  134.7266  160.0290 H   0  0  0  0  0  0  0  0  0  0  0  0  # atno 6907 bound_to 6896
  151.7685  133.3334  159.3446 H   0  0  0  0  0  0  0  0  0  0  0  0  # atno 6908 bound_to 6896
  150.7420  134.5972  159.6062 H   0  0  0  0  0  0  0  0  0  0  0  0  # atno 6909 bound_to 6896
  145.2107  140.9095  143.3316 H   0  0  0  0  0  0  0  0  0  0  0  0  # atno 7974 bound_to 7965
  156.2411  140.2928  156.0447 H   0  0  0  0  0  0  0  0  0  0  0  0  # atno 8008 bound_to 7997
  155.1948  140.0408  157.2924 H   0  0  0  0  0  0  0  0  0  0  0  0  # atno 8009 bound_to 7997
  154.6170  140.2466  155.7604 H   0  0  0  0  0  0  0  0  0  0  0  0  # atno 8010 bound_to 7997
  140.5107  143.2345  151.7599 H   0  0  0  0  0  0  0  0  0  0  0  0  # atno 10167 bound_to 10162
  156.8493  130.5548  149.5671 H   0  0  0  0  0  0  0  0  0  0  0  0  # atno 10718 bound_to 10713
  154.3850  135.6065  153.5812 H   0  0  0  0  0  0  0  0  0  0  0  0  # atno 10763 bound_to 10752
  152.9788  135.5870  154.4365 H   0  0  0  0  0  0  0  0  0  0  0  0  # atno 10764 bound_to 10752
  154.4140  135.2844  155.1996 H   0  0  0  0  0  0  0  0  0  0  0  0  # atno 10765 bound_to 10752
  140.1400  134.4596  155.8457 H   0  0  0  0  0  0  0  0  0  0  0  0  # atno 11005 bound_to 11000
  144.9859  139.3737  143.6239 LP  0  0  0  0  0  0  0  0  0  0  0  0  # atno 17320 bound_to 7965
  146.3398  139.9020  142.8793 LP  0  0  0  0  0  0  0  0  0  0  0  0  # atno 17321 bound_to 7965
  139.4895  144.4395  151.9781 LP  0  0  0  0  0  0  0  0  0  0  0  0  # atno 17342 bound_to 10162
  140.3487  144.3115  150.5953 LP  0  0  0  0  0  0  0  0  0  0  0  0  # atno 17343 bound_to 10162
  156.0837  130.5841  150.9610 LP  0  0  0  0  0  0  0  0  0  0  0  0  # atno 17370 bound_to 10713
  157.6312  131.0921  150.8437 LP  0  0  0  0  0  0  0  0  0  0  0  0  # atno 17371 bound_to 10713
  141.2184  133.6829  156.7228 LP  0  0  0  0  0  0  0  0  0  0  0  0  # atno 17394 bound_to 11000
  140.2735  134.8374  157.3868 LP  0  0  0  0  0  0  0  0  0  0  0  0  # atno 17395 bound_to 11000

$$$$
