AV-unprocessed.smi:2013|AV-procd|sdf|8157|dock4
  -GOLD-   2272010403D 1   1.00000     0.00000
 Structure written by MMmdl.
 51 52  0  0  0  0  0  0  0  0  2 V2000
  143.4067  135.2276  153.3853 C   0  0  0  0  0  0  0  0  0  0  0  0
  143.7873  136.2987  152.3454 C   0  0  0  0  0  0  0  0  0  0  0  0
  144.9605  135.7719  151.4945 C   0  0  0  0  0  0  0  0  0  0  0  0
  144.1086  137.6814  152.9840 C   0  0  2  0  0  0  0  0  0  0  0  0
  145.3103  137.6215  153.9697 C   0  0  0  0  0  0  0  0  0  0  0  0
  146.2740  138.6974  153.7624 N   0  0  0  0  0  0  0  0  0  0  0  0
  146.6518  139.5887  154.6900 C   0  0  0  0  0  0  0  0  0  0  0  0
  146.2117  139.5958  155.8402 O   0  0  0  0  0  0  0  0  0  0  0  0
  147.6586  140.6513  154.2305 C   0  0  0  0  0  0  0  0  0  0  0  0
  149.0350  140.3539  154.6470 N   0  0  0  0  0  0  0  0  0  0  0  0
  149.7215  141.2582  155.4375 C   0  0  0  0  0  0  0  0  0  0  0  0
  150.9848  141.0592  155.8716 C   0  0  0  0  0  0  0  0  0  0  0  0
  151.7135  139.8478  155.5176 C   0  0  0  0  0  0  0  0  0  0  0  0
  152.8648  139.6155  155.8897 O   0  0  0  0  0  0  0  0  0  0  0  0
  150.9929  138.9425  154.7058 N   0  0  0  0  0  0  0  0  0  0  0  0
  151.6837  137.7264  154.3302 C   0  0  0  0  0  0  0  0  0  0  0  0
  149.6665  139.1512  154.2603 C   0  0  0  0  0  0  0  0  0  0  0  0
  149.0649  138.3306  153.5636 O   0  0  0  0  0  0  0  0  0  0  0  0
  142.8635  138.2639  153.5781 N   0  3  0  0  0  0  0  0  0  0  0  0
  141.5787  137.8249  152.9777 C   0  0  0  0  0  0  0  0  0  0  0  0
  140.4242  138.6762  153.5304 C   0  0  0  0  0  0  0  0  0  0  0  0
  140.4023  138.5853  154.9504 O   0  0  0  0  0  0  0  0  0  0  0  0
  141.5975  139.0862  155.5379 C   0  0  0  0  0  0  0  0  0  0  0  0
  142.7976  138.2514  155.0606 C   0  0  0  0  0  0  0  0  0  0  0  0
  144.1789  135.1208  154.1476 H   0  0  0  0  0  0  0  0  0  0  0  0
  143.2724  134.2537  152.9137 H   0  0  0  0  0  0  0  0  0  0  0  0
  142.4663  135.4592  153.8847 H   0  0  0  0  0  0  0  0  0  0  0  0
  142.9299  136.4142  151.6815 H   0  0  0  0  0  0  0  0  0  0  0  0
  145.8669  135.6678  152.0917 H   0  0  0  0  0  0  0  0  0  0  0  0
  145.1867  136.4304  150.6559 H   0  0  0  0  0  0  0  0  0  0  0  0
  144.7304  134.7936  151.0713 H   0  0  0  0  0  0  0  0  0  0  0  0
  144.4064  138.3322  152.1601 H   0  0  0  0  0  0  0  0  0  0  0  0
  144.9457  137.6124  154.9982 H   0  0  0  0  0  0  0  0  0  0  0  0
  145.8659  136.6942  153.8364 H   0  0  0  0  0  0  0  0  0  0  0  0
  146.6919  138.7661  152.8458 H   0  0  0  0  0  0  0  0  0  0  0  0
  147.6113  140.7668  153.1460 H   0  0  0  0  0  0  0  0  0  0  0  0
  147.3455  141.6120  154.6414 H   0  0  0  0  0  0  0  0  0  0  0  0
  149.2224  142.1710  155.7287 H   0  0  0  0  0  0  0  0  0  0  0  0
  151.4626  141.8054  156.4893 H   0  0  0  0  0  0  0  0  0  0  0  0
  151.0897  137.1279  153.6405 H   0  0  0  0  0  0  0  0  0  0  0  0
  151.8714  137.1675  155.2484 H   0  0  0  0  0  0  0  0  0  0  0  0
  152.6165  138.0174  153.8436 H   0  0  0  0  0  0  0  0  0  0  0  0
  141.6175  137.9183  151.8924 H   0  0  0  0  0  0  0  0  0  0  0  0
  141.3893  136.7758  153.2047 H   0  0  0  0  0  0  0  0  0  0  0  0
  140.5246  139.7181  153.2215 H   0  0  0  0  0  0  0  0  0  0  0  0
  139.4723  138.3179  153.1382 H   0  0  0  0  0  0  0  0  0  0  0  0
  141.7284  140.1391  155.2827 H   0  0  0  0  0  0  0  0  0  0  0  0
  141.5087  139.0308  156.6230 H   0  0  0  0  0  0  0  0  0  0  0  0
  142.6998  137.2332  155.4349 H   0  0  0  0  0  0  0  0  0  0  0  0
  143.7163  138.6627  155.4800 H   0  0  0  0  0  0  0  0  0  0  0  0
  142.9318  139.2460  153.3515 H   0  0  0  0  0  0  0  0  0  0  0  0
  1  2  1  0  0  0  0
  1 25  1  0  0  0  0
  1 26  1  0  0  0  0
  1 27  1  0  0  0  0
  2  3  1  0  0  0  0
  2  4  1  0  0  0  0
  2 28  1  0  0  0  0
  3 29  1  0  0  0  0
  3 30  1  0  0  0  0
  3 31  1  0  0  0  0
  4  5  1  0  0  0  0
  4 19  1  0  0  0  0
  4 32  1  0  0  0  0
  5  6  1  0  0  0  0
  5 33  1  0  0  0  0
  5 34  1  0  0  0  0
  6  7  1  0  0  0  0
  6 35  1  0  0  0  0
  7  8  2  0  0  0  0
  7  9  1  0  0  0  0
  9 10  1  0  0  0  0
  9 36  1  0  0  0  0
  9 37  1  0  0  0  0
 10 17  1  0  0  0  0
 10 11  1  0  0  0  0
 11 12  2  0  0  0  0
 11 38  1  0  0  0  0
 12 13  1  0  0  0  0
 12 39  1  0  0  0  0
 13 14  2  0  0  0  0
 13 15  1  0  0  0  0
 15 16  1  0  0  0  0
 15 17  1  0  0  0  0
 16 40  1  0  0  0  0
 16 41  1  0  0  0  0
 16 42  1  0  0  0  0
 17 18  2  0  0  0  0
 19 24  1  0  0  0  0
 19 20  1  0  0  0  0
 19 51  1  0  0  0  0
 20 21  1  0  0  0  0
 20 43  1  0  0  0  0
 20 44  1  0  0  0  0
 21 22  1  0  0  0  0
 21 45  1  0  0  0  0
 21 46  1  0  0  0  0
 22 23  1  0  0  0  0
 23 24  1  0  0  0  0
 23 47  1  0  0  0  0
 23 48  1  0  0  0  0
 24 49  1  0  0  0  0
 24 50  1  0  0  0  0
M  CHG  1  19   1
M  END
> <s_m_source_file>
AV-unprocessed.smi

> <i_m_source_file_index>
2013

> <i_lp_mmshare_version>
43012

> <i_f3d_flags>
0

> <s_epik_input>
W0NIMl0xW0NIMl1PW0NIMl1bQ0gyXU4xW0NASF0oW0NIXShbQ0gzXSlbQ0gzXSlbQ0gyXVtOSF1DKD1PKVtDSDJdbjJbY0hdW2NIXWMoPU8pbihbQ0gzXSljMj1P

> <s_epik_cmdline>
J2VwaWtfcHl0aG9uJywgJy1waCcsICc3LjAnLCAnLXRuJywgJzgnLCAnLW1hJywgJzIwMCcsICctbWV0YWxfYmluZGluZycsICctaW1hZScsICc8aW5maWxlLm1hZT4nLCAnLW9tYWUnLCAnPG91dGZpbGUubWFlPic=

> <r_lp_tautomer_probability>
1

> <r_epik_Ionization_Penalty>
0.370738

> <r_epik_Ionization_Penalty_Charging>
0.370738

> <r_epik_Ionization_Penalty_Neutral>
8.1827e-08

> <r_epik_State_Penalty>
0.368162

> <r_epik_Charging_Adjusted_Penalty>
0.7389

> <i_epik_Tot_Q>
1

> <i_epik_Tot_abs_Q>
1

> <r_epik_Metal_State_Penalty>
0.368194

> <b_epik_Metal_Only>
0

> <s_lp_Force_Field>
OPLS_2005

> <r_lp_Energy>
40.4187

> <b_lp_Chiralities_Consistent>
1

> <s_lp_Variant>
AV-unprocessed.smi:2013-1

> <Gold.Version>
5.8.1

> <Gold.Id.Protein>
6NUR|6NUR_protein|mol2

> <Gold.PLP.Fitness>
41.8206

> <Gold.PLP.PLP>
-33.3148

> <Gold.PLP.part.hbond>
-2.0000

> <Gold.PLP.part.metal>
0.0000

> <Gold.PLP.part.buried>
-2.0985

> <Gold.PLP.part.nonpolar>
-31.8475

> <Gold.PLP.part.repulsive>
2.9166

> <Gold.PLP.ligand.clash>
0.0000

> <Gold.PLP.ligand.torsion>
1.9337

> <Gold.PLP.Chemscore.Hbond>
3.0000

> <Gold.PLP.Chemscore.CHOScore>
1.0000

> <Gold.PLP.Chemscore.Metal>
0.0000

> <Gold.Chemscore.Hbonds>
donor molecule, donor type, donor heavy atom, donor atom, acceptor molecule, acceptor atom, score
      L1  H    19    51       P1 10175  2.00
      P1  H  7997  8009       L1    14  1.00
      L1  C    11    38       P1  8028  0.90

> <Gold.PLP.Chemscore.Internal.Correction>
0.3733

> <Gold.Rescore>
     Score         DG    S(hbond)    S(metal)    S(lipo)     H(rot)  DE(clash)    DE(int)     intcor
      7.45     -13.18       1.96        0.00      59.71       2.28       1.63       4.10       ----

> <Gold.Chemscore.Fitness>
7.4458

> <Gold.Chemscore.DG>
-13.1840

> <Gold.Chemscore.ZeroCoef>
-5.4800

> <Gold.Chemscore.Hbond>
1.9637

> <Gold.Chemscore.Metal>
0.0000

> <Gold.Chemscore.Lipo>
59.7080

> <Gold.Chemscore.Internal_Hbond>
0.0000

> <Gold.Chemscore.DEClash>
1.6333

> <Gold.Chemscore.DEInternal>
4.1049

> <Gold.Chemscore.Rot>
2.2814

> <Gold.Chemscore.Internal.Correction>
   9.000000E+99

> <Gold.Chemscore.Hbonds>
donor molecule, donor type, donor heavy atom, donor atom, acceptor molecule, acceptor atom, score
      L1  H    19    51       P1 10175  0.94
      P1  H  7997  8009       L1    14  0.99

> <Gold.Chemscore.Hbond.Weighted>
-6.5586

> <Gold.Chemscore.Metal.Weighted>
-0.0000

> <Gold.Chemscore.Lipo.Weighted>
-6.9858

> <Gold.Chemscore.Internal_Hbond.Weighted>
0.0000

> <Gold.Chemscore.DEClash.Weighted>
1.6333

> <Gold.Chemscore.DEInternal.Weighted>
4.1049

> <Gold.Chemscore.Rot.Weighted>
5.8404

> <Gold.Chemscore.Internal.Correction.Weighted>
   9.000000E+99

> <Gold.Protein.RotatedTorsions>
[ 6907 6896 6895 6894 ] final -125.88 input  -60.11 | X-H torsion
[ 7974 7965 7964 7962 ] final   55.95 input  175.53 | X-H torsion
[ 8008 7997 7996 7995 ] final -146.36 input   59.86 | X-H torsion
[ 10167 10162 10161 10158 ] final  104.90 input  -65.29 | X-H torsion
[ 10718 10713 10712 10709 ] final  -13.93 input   66.30 | X-H torsion
[ 10763 10752 10751 10750 ] final -138.30 input  -60.55 | X-H torsion
[ 11005 11000 10999 10996 ] final   86.31 input  -57.11 | X-H torsion

> <Gold.Protein.ActiveResidues>
 VAL166  LYS551  ARG553  GLY616  TRP617  ASP618  TYR619  PRO620  LYS621  CYS622 
 ASP623  PHE694  ASN695  SER759  ASP760  ASP761  ALA762  ILE779  LEU786  VAL792 
 PHE793  MET794  SER795  GLU796  ALA797  LYS798  CYS799  TRP800  GLU811  SER814 

> <Gold.Protein.RotatedAtoms>
  150.8912  133.7240  159.2903 H   0  0  0  0  0  0  0  0  0  0  0  0  # atno 6907 bound_to 6896
  151.4790  135.1049  159.9782 H   0  0  0  0  0  0  0  0  0  0  0  0  # atno 6908 bound_to 6896
  152.4821  133.8234  159.7120 H   0  0  0  0  0  0  0  0  0  0  0  0  # atno 6909 bound_to 6896
  145.9450  139.3921  143.0341 H   0  0  0  0  0  0  0  0  0  0  0  0  # atno 7974 bound_to 7965
  155.5582  140.0623  157.2835 H   0  0  0  0  0  0  0  0  0  0  0  0  # atno 8008 bound_to 7997
  154.4399  140.1890  156.0800 H   0  0  0  0  0  0  0  0  0  0  0  0  # atno 8009 bound_to 7997
  156.0466  140.3289  155.7308 H   0  0  0  0  0  0  0  0  0  0  0  0  # atno 8010 bound_to 7997
  139.7138  144.7072  151.0984 H   0  0  0  0  0  0  0  0  0  0  0  0  # atno 10167 bound_to 10162
  156.6232  130.4881  149.6157 H   0  0  0  0  0  0  0  0  0  0  0  0  # atno 10718 bound_to 10713
  154.8640  135.3616  154.5363 H   0  0  0  0  0  0  0  0  0  0  0  0  # atno 10763 bound_to 10752
  153.5987  135.7013  153.5398 H   0  0  0  0  0  0  0  0  0  0  0  0  # atno 10764 bound_to 10752
  153.3310  135.4124  155.1457 H   0  0  0  0  0  0  0  0  0  0  0  0  # atno 10765 bound_to 10752
  139.8948  134.8347  156.2703 H   0  0  0  0  0  0  0  0  0  0  0  0  # atno 11005 bound_to 11000
  145.8249  140.9660  143.0879 LP  0  0  0  0  0  0  0  0  0  0  0  0  # atno 17320 bound_to 7965
  144.6785  140.0088  143.7484 LP  0  0  0  0  0  0  0  0  0  0  0  0  # atno 17321 bound_to 7965
  140.7739  143.5257  150.9483 LP  0  0  0  0  0  0  0  0  0  0  0  0  # atno 17342 bound_to 10162
  139.8943  143.6915  152.3141 LP  0  0  0  0  0  0  0  0  0  0  0  0  # atno 17343 bound_to 10162
  156.2295  130.6786  151.1449 LP  0  0  0  0  0  0  0  0  0  0  0  0  # atno 17370 bound_to 10713
  157.7221  131.0674  150.6089 LP  0  0  0  0  0  0  0  0  0  0  0  0  # atno 17371 bound_to 10713
  141.0105  133.7098  156.1104 LP  0  0  0  0  0  0  0  0  0  0  0  0  # atno 17394 bound_to 11000
  140.7374  134.4188  157.5559 LP  0  0  0  0  0  0  0  0  0  0  0  0  # atno 17395 bound_to 11000

$$$$
