AV-unprocessed.smi:2245|AV-procd|sdf|9078|dock1
  -GOLD-   2272012283D 1   1.00000     0.00000
 Structure written by MMmdl.
 45 46  0  0  0  0  0  0  0  0  2 V2000
  152.0314  145.7074  159.9277 C   0  0  0  0  0  0  0  0  0  0  0  0
  151.9991  144.3264  159.3075 C   0  0  0  0  0  0  0  0  0  0  0  0
  152.7004  143.2558  159.8945 C   0  0  0  0  0  0  0  0  0  0  0  0
  152.6285  141.9936  159.2733 C   0  0  0  0  0  0  0  0  0  0  0  0
  153.3575  140.7982  159.8500 C   0  0  0  0  0  0  0  0  0  0  0  0
  151.9195  141.7664  158.1470 N   0  0  0  0  0  0  0  0  0  0  0  0
  151.2402  142.7901  157.5725 C   0  0  0  0  0  0  0  0  0  0  0  0
  150.4647  142.6553  156.3903 N   0  0  0  0  0  0  0  0  0  0  0  0
  150.2657  141.5509  155.6494 C   0  0  0  0  0  0  0  0  0  0  0  0
  150.7585  140.4442  155.8703 O   0  0  0  0  0  0  0  0  0  0  0  0
  149.4416  141.7976  154.6206 N   0  0  0  0  0  0  0  0  0  0  0  0
  149.0144  140.8120  153.6325 C   0  0  0  0  0  0  0  0  0  0  0  0
  147.8535  139.9345  154.1425 C   0  0  2  0  0  0  0  0  0  0  0  0
  148.3017  138.6868  154.9015 C   0  0  0  0  0  0  0  0  0  0  0  0
  147.1193  137.7155  154.7809 C   0  0  0  0  0  0  0  0  0  0  0  0
  146.2430  138.2357  153.7034 N   0  3  2  0  0  0  0  0  0  0  0  0
  145.7101  137.2188  152.7650 C   0  0  0  0  0  0  0  0  0  0  0  0
  144.3858  136.6034  153.2500 C   0  0  0  0  0  0  0  0  0  0  0  0
  144.5621  136.0994  154.4704 F   0  0  0  0  0  0  0  0  0  0  0  0
  143.4192  137.5192  153.3060 F   0  0  0  0  0  0  0  0  0  0  0  0
  144.0126  135.6203  152.4309 F   0  0  0  0  0  0  0  0  0  0  0  0
  146.9648  139.3441  153.0480 C   0  0  0  0  0  0  0  0  0  0  0  0
  151.2596  144.0877  158.1313 C   0  0  0  0  0  0  0  0  0  0  0  0
  152.8653  145.8065  160.6233 H   0  0  0  0  0  0  0  0  0  0  0  0
  151.1058  145.8968  160.4718 H   0  0  0  0  0  0  0  0  0  0  0  0
  152.1404  146.4707  159.1568 H   0  0  0  0  0  0  0  0  0  0  0  0
  153.2771  143.3983  160.7970 H   0  0  0  0  0  0  0  0  0  0  0  0
  153.9326  141.0735  160.7344 H   0  0  0  0  0  0  0  0  0  0  0  0
  154.0451  140.3812  159.1135 H   0  0  0  0  0  0  0  0  0  0  0  0
  152.6462  140.0221  160.1345 H   0  0  0  0  0  0  0  0  0  0  0  0
  149.9995  143.4954  156.0804 H   0  0  0  0  0  0  0  0  0  0  0  0
  149.0896  142.7373  154.5086 H   0  0  0  0  0  0  0  0  0  0  0  0
  148.7118  141.3497  152.7334 H   0  0  0  0  0  0  0  0  0  0  0  0
  149.8627  140.1876  153.3470 H   0  0  0  0  0  0  0  0  0  0  0  0
  147.2233  140.5230  154.8116 H   0  0  0  0  0  0  0  0  0  0  0  0
  149.1787  138.2506  154.4208 H   0  0  0  0  0  0  0  0  0  0  0  0
  148.5644  138.9000  155.9381 H   0  0  0  0  0  0  0  0  0  0  0  0
  147.4792  136.7075  154.5700 H   0  0  0  0  0  0  0  0  0  0  0  0
  146.5473  137.6756  155.7084 H   0  0  0  0  0  0  0  0  0  0  0  0
  145.5294  137.7036  151.8043 H   0  0  0  0  0  0  0  0  0  0  0  0
  146.4571  136.4444  152.5845 H   0  0  0  0  0  0  0  0  0  0  0  0
  146.2737  140.0755  152.6277 H   0  0  0  0  0  0  0  0  0  0  0  0
  147.5815  138.9538  152.2361 H   0  0  0  0  0  0  0  0  0  0  0  0
  150.7128  144.8948  157.6650 H   0  0  0  0  0  0  0  0  0  0  0  0
  145.4499  138.6597  154.1638 H   0  0  0  0  0  0  0  0  0  0  0  0
  1  2  1  0  0  0  0
  1 24  1  0  0  0  0
  1 25  1  0  0  0  0
  1 26  1  0  0  0  0
  2 23  1  0  0  0  0
  2  3  2  0  0  0  0
  3  4  1  0  0  0  0
  3 27  1  0  0  0  0
  4  5  1  0  0  0  0
  4  6  2  0  0  0  0
  5 28  1  0  0  0  0
  5 29  1  0  0  0  0
  5 30  1  0  0  0  0
  6  7  1  0  0  0  0
  7  8  1  0  0  0  0
  7 23  2  0  0  0  0
  8  9  1  0  0  0  0
  8 31  1  0  0  0  0
  9 10  2  0  0  0  0
  9 11  1  0  0  0  0
 11 12  1  0  0  0  0
 11 32  1  0  0  0  0
 12 13  1  0  0  0  0
 12 33  1  0  0  0  0
 12 34  1  0  0  0  0
 13 22  1  0  0  0  0
 13 14  1  0  0  0  0
 13 35  1  0  0  0  0
 14 15  1  0  0  0  0
 14 36  1  0  0  0  0
 14 37  1  0  0  0  0
 15 16  1  0  0  0  0
 15 38  1  0  0  0  0
 15 39  1  0  0  0  0
 16 17  1  0  0  0  0
 16 22  1  0  0  0  0
 16 45  1  0  0  0  0
 17 18  1  0  0  0  0
 17 40  1  0  0  0  0
 17 41  1  0  0  0  0
 18 19  1  0  0  0  0
 18 20  1  0  0  0  0
 18 21  1  0  0  0  0
 22 42  1  0  0  0  0
 22 43  1  0  0  0  0
 23 44  1  0  0  0  0
M  CHG  1  16   1
M  END
> <s_m_source_file>
AV-unprocessed.smi

> <i_m_source_file_index>
2245

> <i_lp_mmshare_version>
43012

> <i_f3d_flags>
0

> <s_epik_input>
W0NIM11jMVtjSF1jKFtDSDNdKW5jKFtjSF0xKVtOSF1DKD1PKVtOSF1bQ0gyXVtDQEBIXTJbQ0gyXVtDSDJdTihbQ0gyXTIpW0NIMl1DKEYpKEYpRg==

> <s_epik_cmdline>
J2VwaWtfcHl0aG9uJywgJy1waCcsICc3LjAnLCAnLXRuJywgJzgnLCAnLW1hJywgJzIwMCcsICctbWV0YWxfYmluZGluZycsICctaW1hZScsICc8aW5maWxlLm1hZT4nLCAnLW9tYWUnLCAnPG91dGZpbGUubWFlPic=

> <r_epik_Ionization_Penalty>
0.628315

> <r_epik_Ionization_Penalty_Charging>
0.628113

> <r_epik_Ionization_Penalty_Neutral>
0.000202271

> <r_epik_State_Penalty>
0.644725

> <r_epik_Charging_Adjusted_Penalty>
1.27284

> <i_epik_Tot_Q>
1

> <i_epik_Tot_abs_Q>
1

> <r_epik_Metal_State_Penalty>
0.644752

> <b_epik_Metal_Only>
0

> <s_lp_Force_Field>
OPLS_2005

> <r_lp_Energy>
28.9213

> <b_lp_Chiralities_Consistent>
1

> <s_lp_Variant>
AV-unprocessed.smi:2245-3

> <Gold.Version>
5.8.1

> <Gold.Id.Protein>
6NUR|6NUR_protein|mol2

> <Gold.PLP.Fitness>
45.3117

> <Gold.PLP.PLP>
-40.9312

> <Gold.PLP.part.hbond>
-2.0000

> <Gold.PLP.part.metal>
0.0000

> <Gold.PLP.part.buried>
-1.8161

> <Gold.PLP.part.nonpolar>
-37.5109

> <Gold.PLP.part.repulsive>
0.9284

> <Gold.PLP.ligand.clash>
0.0000

> <Gold.PLP.ligand.torsion>
0.8723

> <Gold.PLP.Chemscore.Hbond>
1.8640

> <Gold.PLP.Chemscore.CHOScore>
0.0000

> <Gold.PLP.Chemscore.Metal>
0.0000

> <Gold.Chemscore.Hbonds>
donor molecule, donor type, donor heavy atom, donor atom, acceptor molecule, acceptor atom, score
      L1  H     8    31       P1  8028  1.00
      L1  H    11    32       P1  8028  0.32

> <Gold.PLP.Chemscore.Internal.Correction>
0.5330

> <Gold.Rescore>
     Score         DG    S(hbond)    S(metal)    S(lipo)     H(rot)  DE(clash)    DE(int)     intcor
     15.37     -18.89       1.90        0.00      95.59       1.61       0.15       3.37       ----

> <Gold.Chemscore.Fitness>
15.3650

> <Gold.Chemscore.DG>
-18.8934

> <Gold.Chemscore.ZeroCoef>
-5.4800

> <Gold.Chemscore.Hbond>
1.9049

> <Gold.Chemscore.Metal>
0.0000

> <Gold.Chemscore.Lipo>
95.5858

> <Gold.Chemscore.Internal_Hbond>
0.0000

> <Gold.Chemscore.DEClash>
0.1544

> <Gold.Chemscore.DEInternal>
3.3740

> <Gold.Chemscore.Rot>
1.6143

> <Gold.Chemscore.Internal.Correction>
   9.000000E+99

> <Gold.Chemscore.Hbonds>
donor molecule, donor type, donor heavy atom, donor atom, acceptor molecule, acceptor atom, score
      L1  H     8    31       P1  8028  1.00
      L1  H    11    32       P1  8028  0.31

> <Gold.Chemscore.Hbond.Weighted>
-6.3623

> <Gold.Chemscore.Metal.Weighted>
-0.0000

> <Gold.Chemscore.Lipo.Weighted>
-11.1835

> <Gold.Chemscore.Internal_Hbond.Weighted>
0.0000

> <Gold.Chemscore.DEClash.Weighted>
0.1544

> <Gold.Chemscore.DEInternal.Weighted>
3.3740

> <Gold.Chemscore.Rot.Weighted>
4.1325

> <Gold.Chemscore.Internal.Correction.Weighted>
   9.000000E+99

> <Gold.Protein.RotatedTorsions>
[ 6907 6896 6895 6894 ] final -154.85 input  -60.11 | X-H torsion
[ 7974 7965 7964 7962 ] final  156.13 input  175.53 | X-H torsion
[ 8008 7997 7996 7995 ] final -165.47 input   59.86 | X-H torsion
[ 10167 10162 10161 10158 ] final -137.33 input  -65.29 | X-H torsion
[ 10718 10713 10712 10709 ] final -164.93 input   66.30 | X-H torsion
[ 10763 10752 10751 10750 ] final -149.78 input  -60.55 | X-H torsion
[ 11005 11000 10999 10996 ] final -144.04 input  -57.11 | X-H torsion

> <Gold.Protein.ActiveResidues>
 VAL166  LYS551  ARG553  GLY616  TRP617  ASP618  TYR619  PRO620  LYS621  CYS622 
 ASP623  PHE694  ASN695  SER759  ASP760  ASP761  ALA762  ILE779  LEU786  VAL792 
 PHE793  MET794  SER795  GLU796  ALA797  LYS798  CYS799  TRP800  GLU811  SER814 

> <Gold.Protein.RotatedAtoms>
  151.2636  133.4289  159.2617 H   0  0  0  0  0  0  0  0  0  0  0  0  # atno 6907 bound_to 6896
  151.0508  134.9672  159.8220 H   0  0  0  0  0  0  0  0  0  0  0  0  # atno 6908 bound_to 6896
  152.5382  134.2591  159.8981 H   0  0  0  0  0  0  0  0  0  0  0  0  # atno 6909 bound_to 6896
  144.7982  139.7162  143.6193 H   0  0  0  0  0  0  0  0  0  0  0  0  # atno 7974 bound_to 7965
  155.8503  140.0962  157.1679 H   0  0  0  0  0  0  0  0  0  0  0  0  # atno 8008 bound_to 7997
  154.3985  140.1384  156.3898 H   0  0  0  0  0  0  0  0  0  0  0  0  # atno 8009 bound_to 7997
  155.7969  140.3454  155.5383 H   0  0  0  0  0  0  0  0  0  0  0  0  # atno 8010 bound_to 7997
  139.8588  143.7104  152.2652 H   0  0  0  0  0  0  0  0  0  0  0  0  # atno 10167 bound_to 10162
  156.6461  130.8988  151.3005 H   0  0  0  0  0  0  0  0  0  0  0  0  # atno 10718 bound_to 10713
  154.8157  135.3300  154.7181 H   0  0  0  0  0  0  0  0  0  0  0  0  # atno 10763 bound_to 10752
  153.7822  135.6917  153.4891 H   0  0  0  0  0  0  0  0  0  0  0  0  # atno 10764 bound_to 10752
  153.1972  135.4529  155.0170 H   0  0  0  0  0  0  0  0  0  0  0  0  # atno 10765 bound_to 10752
  140.8064  134.2796  157.4958 H   0  0  0  0  0  0  0  0  0  0  0  0  # atno 11005 bound_to 11000
  146.2256  139.5716  142.9589 LP  0  0  0  0  0  0  0  0  0  0  0  0  # atno 17320 bound_to 7965
  145.5620  141.0403  143.2221 LP  0  0  0  0  0  0  0  0  0  0  0  0  # atno 17321 bound_to 7965
  139.7394  144.7563  151.0676 LP  0  0  0  0  0  0  0  0  0  0  0  0  # atno 17342 bound_to 10162
  140.7778  143.4991  150.9794 LP  0  0  0  0  0  0  0  0  0  0  0  0  # atno 17343 bound_to 10162
  157.7156  130.9493  150.1243 LP  0  0  0  0  0  0  0  0  0  0  0  0  # atno 17370 bound_to 10713
  156.2121  130.3667  149.8657 LP  0  0  0  0  0  0  0  0  0  0  0  0  # atno 17371 bound_to 10713
  139.8717  134.9458  156.3921 LP  0  0  0  0  0  0  0  0  0  0  0  0  # atno 17394 bound_to 11000
  140.9242  133.7623  155.9944 LP  0  0  0  0  0  0  0  0  0  0  0  0  # atno 17395 bound_to 11000

$$$$
