AV-unprocessed.smi:102|AV-procd|sdf|973|dock7
  -GOLD-   2262017523D 1   1.00000     0.00000
 Structure written by MMmdl.
 43 44  0  0  0  0  0  0  0  0  2 V2000
  146.7822  142.6868  154.1519 C   0  0  0  0  0  0  0  0  0  0  0  0
  147.6241  141.4547  154.4579 C   0  0  0  0  0  0  0  0  0  0  0  0
  148.7444  141.3069  153.9694 O   0  0  0  0  0  0  0  0  0  0  0  0
  147.0029  140.5996  155.2841 O   0  0  0  0  0  0  0  0  0  0  0  0
  147.6400  139.3886  155.6601 C   0  0  0  0  0  0  0  0  0  0  0  0
  148.6460  139.6580  156.7933 C   0  0  2  0  0  0  0  0  0  0  0  0
  149.9149  139.8953  156.1809 O   0  0  0  0  0  0  0  0  0  0  0  0
  150.8379  138.8959  156.5127 C   0  0  1  0  0  0  0  0  0  0  0  0
  151.8401  139.4383  157.5121 N   0  0  0  0  0  0  0  0  0  0  0  0
  151.5492  140.5377  158.3043 C   0  0  0  0  0  0  0  0  0  0  0  0
  152.4357  141.0051  159.2062 C   0  0  0  0  0  0  0  0  0  0  0  0
  152.1218  142.0713  159.9624 F   0  0  0  0  0  0  0  0  0  0  0  0
  153.7306  140.3449  159.3568 C   0  0  0  0  0  0  0  0  0  0  0  0
  154.5349  140.7758  160.1817 O   0  0  0  0  0  0  0  0  0  0  0  0
  153.9914  139.2648  158.5653 N   0  5  0  0  0  0  0  0  0  0  0  0
  153.0953  138.7852  157.6537 C   0  0  0  0  0  0  0  0  0  0  0  0
  153.3183  137.8045  156.9443 O   0  0  0  0  0  0  0  0  0  0  0  0
  150.0513  137.7427  157.1453 C   0  0  2  0  0  0  0  0  0  0  0  0
  149.6296  136.8443  156.1239 O   0  0  0  0  0  0  0  0  0  0  0  0
  150.5266  136.1276  155.4259 C   0  0  0  0  0  0  0  0  0  0  0  0
  149.8894  134.9484  154.7024 C   0  0  0  0  0  0  0  0  0  0  0  0
  151.7350  136.3469  155.3497 O   0  0  0  0  0  0  0  0  0  0  0  0
  148.8791  138.4854  157.7604 C   0  0  2  0  0  0  0  0  0  0  0  0
  147.7642  137.6262  157.9744 O   0  0  0  0  0  0  0  0  0  0  0  0
  147.5305  137.1088  159.1925 C   0  0  0  0  0  0  0  0  0  0  0  0
  146.3440  136.1547  159.1988 C   0  0  0  0  0  0  0  0  0  0  0  0
  148.1609  137.3568  160.2202 O   0  0  0  0  0  0  0  0  0  0  0  0
  145.8148  142.6331  154.6525 H   0  0  0  0  0  0  0  0  0  0  0  0
  146.6094  142.7675  153.0787 H   0  0  0  0  0  0  0  0  0  0  0  0
  147.2957  143.5874  154.4886 H   0  0  0  0  0  0  0  0  0  0  0  0
  146.9152  138.6321  155.9622 H   0  0  0  0  0  0  0  0  0  0  0  0
  148.1632  139.0002  154.7855 H   0  0  0  0  0  0  0  0  0  0  0  0
  148.3457  140.5526  157.3399 H   0  0  0  0  0  0  0  0  0  0  0  0
  151.4216  138.6213  155.6322 H   0  0  0  0  0  0  0  0  0  0  0  0
  150.5982  141.0398  158.2155 H   0  0  0  0  0  0  0  0  0  0  0  0
  150.6409  137.2345  157.9097 H   0  0  0  0  0  0  0  0  0  0  0  0
  148.8265  135.1246  154.5352 H   0  0  0  0  0  0  0  0  0  0  0  0
  150.0011  134.0397  155.2940 H   0  0  0  0  0  0  0  0  0  0  0  0
  150.3689  134.7927  153.7358 H   0  0  0  0  0  0  0  0  0  0  0  0
  149.2250  138.8892  158.7133 H   0  0  0  0  0  0  0  0  0  0  0  0
  146.3382  135.5451  158.2950 H   0  0  0  0  0  0  0  0  0  0  0  0
  145.4109  136.7160  159.2447 H   0  0  0  0  0  0  0  0  0  0  0  0
  146.3919  135.4909  160.0623 H   0  0  0  0  0  0  0  0  0  0  0  0
  1  2  1  0  0  0  0
  1 28  1  0  0  0  0
  1 29  1  0  0  0  0
  1 30  1  0  0  0  0
  2  3  2  0  0  0  0
  2  4  1  0  0  0  0
  4  5  1  0  0  0  0
  5  6  1  0  0  0  0
  5 31  1  0  0  0  0
  5 32  1  0  0  0  0
  6 23  1  0  0  0  0
  6  7  1  0  0  0  0
  6 33  1  0  0  0  0
  7  8  1  0  0  0  0
  8  9  1  0  0  0  0
  8 18  1  0  0  0  0
  8 34  1  0  0  0  0
  9 16  1  0  0  0  0
  9 10  1  0  0  0  0
 10 11  2  0  0  0  0
 10 35  1  0  0  0  0
 11 12  1  0  0  0  0
 11 13  1  0  0  0  0
 13 14  2  0  0  0  0
 13 15  1  0  0  0  0
 15 16  1  0  0  0  0
 16 17  2  0  0  0  0
 18 19  1  0  0  0  0
 18 23  1  0  0  0  0
 18 36  1  0  0  0  0
 19 20  1  0  0  0  0
 20 21  1  0  0  0  0
 20 22  2  0  0  0  0
 21 37  1  0  0  0  0
 21 38  1  0  0  0  0
 21 39  1  0  0  0  0
 23 24  1  0  0  0  0
 23 40  1  0  0  0  0
 24 25  1  0  0  0  0
 25 26  1  0  0  0  0
 25 27  2  0  0  0  0
 26 41  1  0  0  0  0
 26 42  1  0  0  0  0
 26 43  1  0  0  0  0
M  CHG  1  15  -1
M  END
> <s_m_source_file>
AV-unprocessed.smi

> <i_m_source_file_index>
102

> <i_lp_mmshare_version>
43012

> <i_f3d_flags>
0

> <s_epik_input>
W0NIM11DKD1PKU9bQ0gyXVtDQEBIXTFPW0NASF0oW0NAQEhdKE9DKD1PKVtDSDNdKVtDQEhdMU9DKD1PKVtDSDNdKW4yW2NIXWMoRiljKD1PKVtuSF1jMj1P

> <s_epik_cmdline>
J2VwaWtfcHl0aG9uJywgJy1waCcsICc3LjAnLCAnLXRuJywgJzgnLCAnLW1hJywgJzIwMCcsICctbWV0YWxfYmluZGluZycsICctaW1hZScsICc8aW5maWxlLm1hZT4nLCAnLW9tYWUnLCAnPG91dGZpbGUubWFlPic=

> <r_epik_Ionization_Penalty>
1.40304

> <r_epik_Ionization_Penalty_Charging>
1.43915e-08

> <r_epik_Ionization_Penalty_Neutral>
1.40304

> <r_epik_State_Penalty>
1.48536

> <r_epik_Charging_Adjusted_Penalty>
1.48536

> <i_epik_Tot_Q>
-1

> <i_epik_Tot_abs_Q>
1

> <r_epik_Metal_State_Penalty>
0.00663881

> <b_epik_Metal_Only>
0

> <s_epik_Chemistry_Notes>
This compound has an ester and may undergo hydrolysis at high or low pH. This compound contains an acetal/aminal-like group ( X-CH(R)-Y where X, Y are N, S, or O) that may be acid/base labile, releasing an aldehyde.

> <s_lp_Force_Field>
OPLS_2005

> <r_lp_Energy>
27.0853

> <b_lp_Chiralities_Consistent>
1

> <s_lp_Variant>
AV-unprocessed.smi:102-29

> <Gold.Version>
5.8.1

> <Gold.Id.Protein>
6NUR|6NUR_protein|mol2

> <Gold.PLP.Fitness>
37.1278

> <Gold.PLP.PLP>
-27.9676

> <Gold.PLP.part.hbond>
-4.9142

> <Gold.PLP.part.metal>
0.0000

> <Gold.PLP.part.buried>
-3.3053

> <Gold.PLP.part.nonpolar>
-19.9764

> <Gold.PLP.part.repulsive>
0.3330

> <Gold.PLP.ligand.clash>
0.0000

> <Gold.PLP.ligand.torsion>
1.9249

> <Gold.PLP.Chemscore.Hbond>
4.3033

> <Gold.PLP.Chemscore.CHOScore>
0.0000

> <Gold.PLP.Chemscore.Metal>
0.0000

> <Gold.Chemscore.Hbonds>
donor molecule, donor type, donor heavy atom, donor atom, acceptor molecule, acceptor atom, score
      P1  H  6931  6943       L1    27  0.51
      P1  H  6934  6947       L1    27  0.60
      P1  H  7997  8009       L1    15  1.60
      P1  H  8011  8017       L1     3  0.37
      P1  H 10752 10764       L1    22  1.00

> <Gold.PLP.Chemscore.Internal.Correction>
0.1000

> <Gold.Rescore>
     Score         DG    S(hbond)    S(metal)    S(lipo)     H(rot)  DE(clash)    DE(int)     intcor
      1.89      -7.51       2.55        0.00      32.09       4.00       0.02       5.60       ----

> <Gold.Chemscore.Fitness>
1.8947

> <Gold.Chemscore.DG>
-7.5148

> <Gold.Chemscore.ZeroCoef>
-5.4800

> <Gold.Chemscore.Hbond>
2.5472

> <Gold.Chemscore.Metal>
0.0000

> <Gold.Chemscore.Lipo>
32.0922

> <Gold.Chemscore.Internal_Hbond>
0.0000

> <Gold.Chemscore.DEClash>
0.0186

> <Gold.Chemscore.DEInternal>
5.6016

> <Gold.Chemscore.Rot>
3.9951

> <Gold.Chemscore.Internal.Correction>
   9.000000E+99

> <Gold.Chemscore.Hbonds>
donor molecule, donor type, donor heavy atom, donor atom, acceptor molecule, acceptor atom, score
      P1  H  6931  6943       L1    27  0.50
      P1  H  6934  6947       L1    27  0.20
      P1  H  7997  8009       L1    15  0.03
      P1  H  8011  8017       L1     3  0.36
      P1  H 10752 10764       L1    22  0.99

> <Gold.Chemscore.Hbond.Weighted>
-8.5075

> <Gold.Chemscore.Metal.Weighted>
-0.0000

> <Gold.Chemscore.Lipo.Weighted>
-3.7548

> <Gold.Chemscore.Internal_Hbond.Weighted>
0.0000

> <Gold.Chemscore.DEClash.Weighted>
0.0186

> <Gold.Chemscore.DEInternal.Weighted>
5.6016

> <Gold.Chemscore.Rot.Weighted>
10.2274

> <Gold.Chemscore.Internal.Correction.Weighted>
   9.000000E+99

> <Gold.Protein.RotatedTorsions>
[ 6907 6896 6895 6894 ] final  176.30 input  -60.11 | X-H torsion
[ 7974 7965 7964 7962 ] final  -38.73 input  175.53 | X-H torsion
[ 8008 7997 7996 7995 ] final  117.10 input   59.86 | X-H torsion
[ 10167 10162 10161 10158 ] final  -86.64 input  -65.29 | X-H torsion
[ 10718 10713 10712 10709 ] final   43.07 input   66.30 | X-H torsion
[ 10763 10752 10751 10750 ] final  -58.81 input  -60.55 | X-H torsion
[ 11005 11000 10999 10996 ] final  108.60 input  -57.11 | X-H torsion

> <Gold.Protein.ActiveResidues>
 VAL166  LYS551  ARG553  GLY616  TRP617  ASP618  TYR619  PRO620  LYS621  CYS622 
 ASP623  PHE694  ASN695  SER759  ASP760  ASP761  ALA762  ILE779  LEU786  VAL792 
 PHE793  MET794  SER795  GLU796  ALA797  LYS798  CYS799  TRP800  GLU811  SER814 

> <Gold.Protein.RotatedAtoms>
  151.7223  133.3315  159.3318 H   0  0  0  0  0  0  0  0  0  0  0  0  # atno 6907 bound_to 6896
  150.7647  134.6437  159.6260 H   0  0  0  0  0  0  0  0  0  0  0  0  # atno 6908 bound_to 6896
  152.3644  134.6828  160.0248 H   0  0  0  0  0  0  0  0  0  0  0  0  # atno 6909 bound_to 6896
  146.0461  140.6545  142.9064 H   0  0  0  0  0  0  0  0  0  0  0  0  # atno 7974 bound_to 7965
  156.2476  140.2903  156.0626 H   0  0  0  0  0  0  0  0  0  0  0  0  # atno 8008 bound_to 7997
  155.1759  140.0403  157.2890 H   0  0  0  0  0  0  0  0  0  0  0  0  # atno 8009 bound_to 7997
  154.6293  140.2495  155.7460 H   0  0  0  0  0  0  0  0  0  0  0  0  # atno 8010 bound_to 7997
  140.3922  143.2700  151.9250 H   0  0  0  0  0  0  0  0  0  0  0  0  # atno 10167 bound_to 10162
  157.4118  130.7919  149.7437 H   0  0  0  0  0  0  0  0  0  0  0  0  # atno 10718 bound_to 10713
  154.2439  135.6338  153.5216 H   0  0  0  0  0  0  0  0  0  0  0  0  # atno 10763 bound_to 10752
  152.9925  135.5548  154.5881 H   0  0  0  0  0  0  0  0  0  0  0  0  # atno 10764 bound_to 10752
  154.5393  135.2893  155.1085 H   0  0  0  0  0  0  0  0  0  0  0  0  # atno 10765 bound_to 10752
  139.8847  134.9435  156.5998 H   0  0  0  0  0  0  0  0  0  0  0  0  # atno 11005 bound_to 11000
  144.7098  140.3996  143.7089 LP  0  0  0  0  0  0  0  0  0  0  0  0  # atno 17320 bound_to 7965
  145.6804  139.1617  143.2704 LP  0  0  0  0  0  0  0  0  0  0  0  0  # atno 17321 bound_to 7965
  139.4788  144.5717  151.8078 LP  0  0  0  0  0  0  0  0  0  0  0  0  # atno 17342 bound_to 10162
  140.4828  144.1424  150.5935 LP  0  0  0  0  0  0  0  0  0  0  0  0  # atno 17343 bound_to 10162
  155.9853  130.3984  150.3269 LP  0  0  0  0  0  0  0  0  0  0  0  0  # atno 17370 bound_to 10713
  157.1408  131.0296  151.2929 LP  0  0  0  0  0  0  0  0  0  0  0  0  # atno 17371 bound_to 10713
  140.7892  133.8596  155.8632 LP  0  0  0  0  0  0  0  0  0  0  0  0  # atno 17394 bound_to 11000
  140.9692  134.1554  157.4591 LP  0  0  0  0  0  0  0  0  0  0  0  0  # atno 17395 bound_to 11000

$$$$
