AV-unprocessed.smi:1980|AV-procd|sdf|8018|dock4
  -GOLD-   2272010213D 1   1.00000     0.00000
 Structure written by MMmdl.
 44 45  0  0  0  0  0  0  0  0  1 V2000
  148.1678  135.6859  156.3504 C   0  0  0  0  0  0  0  0  0  0  0  0
  149.4883  135.0980  155.8324 C   0  0  1  0  0  0  0  0  0  0  0  0
  149.1758  134.2495  154.7301 O   0  0  0  0  0  0  0  0  0  0  0  0
  148.1475  133.2913  154.9617 C   0  0  0  0  0  0  0  0  0  0  0  0
  148.0346  132.3636  153.7464 C   0  0  0  0  0  0  0  0  0  0  0  0
  146.8497  131.7542  153.7683 F   0  0  0  0  0  0  0  0  0  0  0  0
  148.1328  133.0669  152.6184 F   0  0  0  0  0  0  0  0  0  0  0  0
  148.9925  131.4378  153.7829 F   0  0  0  0  0  0  0  0  0  0  0  0
  150.4582  136.2075  155.3968 C   0  0  0  0  0  0  0  0  0  0  0  0
  151.5735  136.2941  155.9109 O   0  0  0  0  0  0  0  0  0  0  0  0
  150.0070  137.0645  154.4679 N   0  0  0  0  0  0  0  0  0  0  0  0
  150.7470  138.2191  153.9702 C   0  0  0  0  0  0  0  0  0  0  0  0
  151.0377  139.2654  155.0356 C   0  0  0  0  0  0  0  0  0  0  0  0
  150.2593  140.4346  155.1594 C   0  0  0  0  0  0  0  0  0  0  0  0
  150.5794  141.3658  156.1653 C   0  0  0  0  0  0  0  0  0  0  0  0
  151.6772  141.1088  157.0209 C   0  0  0  0  0  0  0  0  0  0  0  0
  152.0176  142.0296  158.0357 N   0  0  0  0  0  0  0  0  0  0  0  0
  151.2490  143.2704  158.1213 C   0  0  0  0  0  0  0  0  0  0  0  0
  151.9350  144.2608  159.0772 C   0  0  0  0  0  0  0  0  0  0  0  0
  152.1273  143.6457  160.3468 O   0  0  0  0  0  0  0  0  0  0  0  0
  152.9709  142.5023  160.2576 C   0  0  0  0  0  0  0  0  0  0  0  0
  152.3267  141.4487  159.3400 C   0  0  0  0  0  0  0  0  0  0  0  0
  152.4235  139.9832  156.8968 N   0  0  0  0  0  0  0  0  0  0  0  0
  152.1121  139.0936  155.9310 C   0  0  0  0  0  0  0  0  0  0  0  0
  148.3356  136.3533  157.1963 H   0  0  0  0  0  0  0  0  0  0  0  0
  147.4976  134.8936  156.6850 H   0  0  0  0  0  0  0  0  0  0  0  0
  147.6476  136.2501  155.5751 H   0  0  0  0  0  0  0  0  0  0  0  0
  149.9372  134.5029  156.6301 H   0  0  0  0  0  0  0  0  0  0  0  0
  148.3611  132.6961  155.8501 H   0  0  0  0  0  0  0  0  0  0  0  0
  147.1961  133.7983  155.1289 H   0  0  0  0  0  0  0  0  0  0  0  0
  149.0795  136.9192  154.0962 H   0  0  0  0  0  0  0  0  0  0  0  0
  151.6772  137.8898  153.5037 H   0  0  0  0  0  0  0  0  0  0  0  0
  150.1571  138.6883  153.1826 H   0  0  0  0  0  0  0  0  0  0  0  0
  149.4257  140.6197  154.4981 H   0  0  0  0  0  0  0  0  0  0  0  0
  149.9743  142.2532  156.2770 H   0  0  0  0  0  0  0  0  0  0  0  0
  151.1564  143.7264  157.1347 H   0  0  0  0  0  0  0  0  0  0  0  0
  150.2414  143.0478  158.4753 H   0  0  0  0  0  0  0  0  0  0  0  0
  152.8924  144.5934  158.6725 H   0  0  0  0  0  0  0  0  0  0  0  0
  151.3171  145.1497  159.2033 H   0  0  0  0  0  0  0  0  0  0  0  0
  153.9553  142.7917  159.8859 H   0  0  0  0  0  0  0  0  0  0  0  0
  153.1170  142.0906  161.2563 H   0  0  0  0  0  0  0  0  0  0  0  0
  151.4031  141.0795  159.7875 H   0  0  0  0  0  0  0  0  0  0  0  0
  152.9996  140.5967  159.2540 H   0  0  0  0  0  0  0  0  0  0  0  0
  152.7399  138.2164  155.8758 H   0  0  0  0  0  0  0  0  0  0  0  0
  1  2  1  0  0  0  0
  1 25  1  0  0  0  0
  1 26  1  0  0  0  0
  1 27  1  0  0  0  0
  2  3  1  0  0  0  0
  2  9  1  0  0  0  0
  2 28  1  0  0  0  0
  3  4  1  0  0  0  0
  4  5  1  0  0  0  0
  4 29  1  0  0  0  0
  4 30  1  0  0  0  0
  5  6  1  0  0  0  0
  5  7  1  0  0  0  0
  5  8  1  0  0  0  0
  9 10  2  0  0  0  0
  9 11  1  0  0  0  0
 11 12  1  0  0  0  0
 11 31  1  0  0  0  0
 12 13  1  0  0  0  0
 12 32  1  0  0  0  0
 12 33  1  0  0  0  0
 13 24  1  0  0  0  0
 13 14  2  0  0  0  0
 14 15  1  0  0  0  0
 14 34  1  0  0  0  0
 15 16  2  0  0  0  0
 15 35  1  0  0  0  0
 16 17  1  0  0  0  0
 16 23  1  0  0  0  0
 17 22  1  0  0  0  0
 17 18  1  0  0  0  0
 18 19  1  0  0  0  0
 18 36  1  0  0  0  0
 18 37  1  0  0  0  0
 19 20  1  0  0  0  0
 19 38  1  0  0  0  0
 19 39  1  0  0  0  0
 20 21  1  0  0  0  0
 21 22  1  0  0  0  0
 21 40  1  0  0  0  0
 21 41  1  0  0  0  0
 22 42  1  0  0  0  0
 22 43  1  0  0  0  0
 23 24  2  0  0  0  0
 24 44  1  0  0  0  0
M  END
> <s_m_source_file>
AV-unprocessed.smi

> <i_m_source_file_index>
1980

> <i_lp_mmshare_version>
43012

> <i_f3d_flags>
0

> <s_epik_input>
RkMoRikoRilbQ0gyXU9bQ0BASF0oW0NIM10pQyg9TylbTkhdW0NIMl1jMVtjSF1bY0hdYyhuW2NIXTEpTjJbQ0gyXVtDSDJdT1tDSDJdW0NIMl0y

> <s_epik_cmdline>
J2VwaWtfcHl0aG9uJywgJy1waCcsICc3LjAnLCAnLXRuJywgJzgnLCAnLW1hJywgJzIwMCcsICctbWV0YWxfYmluZGluZycsICctaW1hZScsICc8aW5maWxlLm1hZT4nLCAnLW9tYWUnLCAnPG91dGZpbGUubWFlPic=

> <r_lp_tautomer_probability>
1

> <r_epik_Ionization_Penalty>
0.00436425

> <r_epik_Ionization_Penalty_Charging>
0

> <r_epik_Ionization_Penalty_Neutral>
0.00436425

> <r_epik_State_Penalty>
0.00314317

> <r_epik_Charging_Adjusted_Penalty>
0.00314317

> <i_epik_Tot_Q>
0

> <i_epik_Tot_abs_Q>
0

> <r_epik_Metal_State_Penalty>
-0

> <b_epik_Metal_Only>
0

> <s_lp_Force_Field>
OPLS_2005

> <r_lp_Energy>
18.0454

> <b_lp_Chiralities_Consistent>
1

> <s_lp_Variant>
AV-unprocessed.smi:1980-2

> <Gold.Version>
5.8.1

> <Gold.Id.Protein>
6NUR|6NUR_protein|mol2

> <Gold.PLP.Fitness>
49.1378

> <Gold.PLP.PLP>
-43.9787

> <Gold.PLP.part.hbond>
-3.0667

> <Gold.PLP.part.metal>
0.0000

> <Gold.PLP.part.buried>
-4.0195

> <Gold.PLP.part.nonpolar>
-36.8213

> <Gold.PLP.part.repulsive>
0.2676

> <Gold.PLP.ligand.clash>
0.0000

> <Gold.PLP.ligand.torsion>
0.8201

> <Gold.PLP.Chemscore.Hbond>
2.1087

> <Gold.PLP.Chemscore.CHOScore>
0.0000

> <Gold.PLP.Chemscore.Metal>
0.0000

> <Gold.Chemscore.Hbonds>
donor molecule, donor type, donor heavy atom, donor atom, acceptor molecule, acceptor atom, score
      L1  H    11    31       P1  7948  0.08
      P1  H  7997  8008       L1    23  1.00
      P1  H 10752 10765       L1    10  1.00

> <Gold.PLP.Chemscore.Internal.Correction>
0.4733

> <Gold.Rescore>
     Score         DG    S(hbond)    S(metal)    S(lipo)     H(rot)  DE(clash)    DE(int)     intcor
     13.54     -15.70       1.75        0.00      91.95       2.49       0.03       2.13       ----

> <Gold.Chemscore.Fitness>
13.5372

> <Gold.Chemscore.DG>
-15.6976

> <Gold.Chemscore.ZeroCoef>
-5.4800

> <Gold.Chemscore.Hbond>
1.7466

> <Gold.Chemscore.Metal>
0.0000

> <Gold.Chemscore.Lipo>
91.9503

> <Gold.Chemscore.Internal_Hbond>
0.0000

> <Gold.Chemscore.DEClash>
0.0282

> <Gold.Chemscore.DEInternal>
2.1322

> <Gold.Chemscore.Rot>
2.4899

> <Gold.Chemscore.Internal.Correction>
   9.000000E+99

> <Gold.Chemscore.Hbonds>
donor molecule, donor type, donor heavy atom, donor atom, acceptor molecule, acceptor atom, score
      L1  H    11    31       P1  7948  0.08
      P1  H  7997  8008       L1    23  0.25
      P1  H 10752 10765       L1    10  0.87

> <Gold.Chemscore.Hbond.Weighted>
-5.8335

> <Gold.Chemscore.Metal.Weighted>
-0.0000

> <Gold.Chemscore.Lipo.Weighted>
-10.7582

> <Gold.Chemscore.Internal_Hbond.Weighted>
0.0000

> <Gold.Chemscore.DEClash.Weighted>
0.0282

> <Gold.Chemscore.DEInternal.Weighted>
2.1322

> <Gold.Chemscore.Rot.Weighted>
6.3741

> <Gold.Chemscore.Internal.Correction.Weighted>
   9.000000E+99

> <Gold.Protein.RotatedTorsions>
[ 6907 6896 6895 6894 ] final   43.97 input  -60.11 | X-H torsion
[ 7974 7965 7964 7962 ] final -124.82 input  175.53 | X-H torsion
[ 8008 7997 7996 7995 ] final  -60.82 input   59.86 | X-H torsion
[ 10167 10162 10161 10158 ] final  -76.00 input  -65.29 | X-H torsion
[ 10718 10713 10712 10709 ] final  -35.08 input   66.30 | X-H torsion
[ 10763 10752 10751 10750 ] final -167.23 input  -60.55 | X-H torsion
[ 11005 11000 10999 10996 ] final  149.46 input  -57.11 | X-H torsion

> <Gold.Protein.ActiveResidues>
 VAL166  LYS551  ARG553  GLY616  TRP617  ASP618  TYR619  PRO620  LYS621  CYS622 
 ASP623  PHE694  ASN695  SER759  ASP760  ASP761  ALA762  ILE779  LEU786  VAL792 
 PHE793  MET794  SER795  GLU796  ALA797  LYS798  CYS799  TRP800  GLU811  SER814 

> <Gold.Protein.RotatedAtoms>
  152.2268  134.8360  160.0478 H   0  0  0  0  0  0  0  0  0  0  0  0  # atno 6907 bound_to 6896
  151.9124  133.3559  159.3876 H   0  0  0  0  0  0  0  0  0  0  0  0  # atno 6908 bound_to 6896
  150.7014  134.4644  159.5440 H   0  0  0  0  0  0  0  0  0  0  0  0  # atno 6909 bound_to 6896
  145.0040  140.7846  143.4479 H   0  0  0  0  0  0  0  0  0  0  0  0  # atno 7974 bound_to 7965
  154.4417  140.1031  156.6334 H   0  0  0  0  0  0  0  0  0  0  0  0  # atno 8008 bound_to 7997
  155.5580  140.3487  155.4466 H   0  0  0  0  0  0  0  0  0  0  0  0  # atno 8009 bound_to 7997
  156.0481  140.1297  157.0070 H   0  0  0  0  0  0  0  0  0  0  0  0  # atno 8010 bound_to 7997
  140.4895  143.2383  151.7930 H   0  0  0  0  0  0  0  0  0  0  0  0  # atno 10167 bound_to 10162
  156.3429  130.4296  149.7772 H   0  0  0  0  0  0  0  0  0  0  0  0  # atno 10718 bound_to 10713
  154.6753  135.2946  154.9687 H   0  0  0  0  0  0  0  0  0  0  0  0  # atno 10763 bound_to 10752
  154.0700  135.6619  153.4827 H   0  0  0  0  0  0  0  0  0  0  0  0  # atno 10764 bound_to 10752
  153.0512  135.5172  154.7769 H   0  0  0  0  0  0  0  0  0  0  0  0  # atno 10765 bound_to 10752
  140.1046  134.8962  157.1847 H   0  0  0  0  0  0  0  0  0  0  0  0  # atno 11005 bound_to 11000
  145.2114  139.2203  143.5141 LP  0  0  0  0  0  0  0  0  0  0  0  0  # atno 17320 bound_to 7965
  146.3457  140.1952  142.8589 LP  0  0  0  0  0  0  0  0  0  0  0  0  # atno 17321 bound_to 7965
  139.4848  144.4668  151.9474 LP  0  0  0  0  0  0  0  0  0  0  0  0  # atno 17342 bound_to 10162
  140.3755  144.2802  150.5914 LP  0  0  0  0  0  0  0  0  0  0  0  0  # atno 17343 bound_to 10162
  156.5001  130.8125  151.3129 LP  0  0  0  0  0  0  0  0  0  0  0  0  # atno 17370 bound_to 10713
  157.7449  130.9947  150.2718 LP  0  0  0  0  0  0  0  0  0  0  0  0  # atno 17371 bound_to 10713
  140.3173  134.2956  155.7253 LP  0  0  0  0  0  0  0  0  0  0  0  0  # atno 17394 bound_to 11000
  141.2115  133.7687  156.9861 LP  0  0  0  0  0  0  0  0  0  0  0  0  # atno 17395 bound_to 11000

$$$$
