AV-unprocessed.smi:1605|AV-procd|sdf|6453|dock7
  -GOLD-   22720 7103D 1   1.00000     0.00000
 Structure written by MMmdl.
 51 53  0  0  0  0  0  0  0  0  2 V2000
  145.3621  134.0031  153.4467 C   0  0  0  0  0  0  0  0  0  0  0  0
  145.2670  135.1589  154.2649 O   0  0  0  0  0  0  0  0  0  0  0  0
  144.3083  136.1141  153.8246 C   0  0  2  0  0  0  0  0  0  0  0  0
  144.6794  136.5329  152.3938 C   0  0  0  0  0  0  0  0  0  0  0  0
  145.9930  137.3342  152.3575 C   0  0  0  0  0  0  0  0  0  0  0  0
  145.9240  138.5225  153.2464 N   0  3  2  0  0  0  0  0  0  0  0  0
  147.1240  139.3907  153.1253 C   0  0  0  0  0  0  0  0  0  0  0  0
  147.1386  140.5209  154.1731 C   0  0  2  0  0  0  0  0  0  0  0  0
  146.0709  141.4095  153.9030 O   0  0  0  0  0  0  0  0  0  0  0  0
  148.4658  141.3033  154.1622 C   0  0  0  0  0  0  0  0  0  0  0  0
  149.5386  140.5726  154.8125 N   0  0  0  0  0  0  0  0  0  0  0  0
  150.0700  139.3933  154.4361 C   0  0  0  0  0  0  0  0  0  0  0  0
  151.0580  138.9060  155.1811 N   0  0  0  0  0  0  0  0  0  0  0  0
  151.1793  139.8803  156.1572 C   0  0  0  0  0  0  0  0  0  0  0  0
  152.0551  139.9699  157.2611 C   0  0  0  0  0  0  0  0  0  0  0  0
  151.9995  141.0730  158.1429 C   0  0  0  0  0  0  0  0  0  0  0  0
  152.9610  141.1293  159.3169 C   0  0  0  0  0  0  0  0  0  0  0  0
  151.0556  142.1091  157.9265 C   0  0  0  0  0  0  0  0  0  0  0  0
  150.9754  143.3021  158.8626 C   0  0  0  0  0  0  0  0  0  0  0  0
  150.1750  142.0367  156.8269 C   0  0  0  0  0  0  0  0  0  0  0  0
  150.2407  140.9342  155.9568 C   0  0  0  0  0  0  0  0  0  0  0  0
  145.6152  138.1364  154.6493 C   0  0  0  0  0  0  0  0  0  0  0  0
  144.2901  137.3594  154.7314 C   0  0  0  0  0  0  0  0  0  0  0  0
  146.1405  133.3475  153.8370 H   0  0  0  0  0  0  0  0  0  0  0  0
  145.6300  134.2643  152.4223 H   0  0  0  0  0  0  0  0  0  0  0  0
  144.4314  133.4367  153.4321 H   0  0  0  0  0  0  0  0  0  0  0  0
  143.3189  135.6538  153.8034 H   0  0  0  0  0  0  0  0  0  0  0  0
  144.7607  135.6519  151.7560 H   0  0  0  0  0  0  0  0  0  0  0  0
  143.8760  137.1401  151.9745 H   0  0  0  0  0  0  0  0  0  0  0  0
  146.8314  136.7027  152.6557 H   0  0  0  0  0  0  0  0  0  0  0  0
  146.1858  137.6522  151.3322 H   0  0  0  0  0  0  0  0  0  0  0  0
  148.0206  138.7751  153.2117 H   0  0  0  0  0  0  0  0  0  0  0  0
  147.1616  139.8403  152.1317 H   0  0  0  0  0  0  0  0  0  0  0  0
  146.9899  140.1107  155.1712 H   0  0  0  0  0  0  0  0  0  0  0  0
  145.3914  140.9378  153.4454 H   0  0  0  0  0  0  0  0  0  0  0  0
  148.7735  141.5097  153.1362 H   0  0  0  0  0  0  0  0  0  0  0  0
  148.3490  142.2703  154.6538 H   0  0  0  0  0  0  0  0  0  0  0  0
  149.7153  138.8648  153.5632 H   0  0  0  0  0  0  0  0  0  0  0  0
  152.7735  139.1805  157.4259 H   0  0  0  0  0  0  0  0  0  0  0  0
  153.5864  142.0203  159.2562 H   0  0  0  0  0  0  0  0  0  0  0  0
  153.6186  140.2598  159.3351 H   0  0  0  0  0  0  0  0  0  0  0  0
  152.4137  141.1537  160.2594 H   0  0  0  0  0  0  0  0  0  0  0  0
  150.1841  143.9902  158.5635 H   0  0  0  0  0  0  0  0  0  0  0  0
  151.9165  143.8524  158.8613 H   0  0  0  0  0  0  0  0  0  0  0  0
  150.7662  142.9753  159.8814 H   0  0  0  0  0  0  0  0  0  0  0  0
  149.4528  142.8198  156.6498 H   0  0  0  0  0  0  0  0  0  0  0  0
  146.4301  137.5321  155.0512 H   0  0  0  0  0  0  0  0  0  0  0  0
  145.5418  139.0206  155.2810 H   0  0  0  0  0  0  0  0  0  0  0  0
  143.4745  138.0145  154.4227 H   0  0  0  0  0  0  0  0  0  0  0  0
  144.0779  137.0889  155.7652 H   0  0  0  0  0  0  0  0  0  0  0  0
  145.1461  139.0753  152.9145 H   0  0  0  0  0  0  0  0  0  0  0  0
  1  2  1  0  0  0  0
  1 24  1  0  0  0  0
  1 25  1  0  0  0  0
  1 26  1  0  0  0  0
  2  3  1  0  0  0  0
  3 23  1  0  0  0  0
  3  4  1  0  0  0  0
  3 27  1  0  0  0  0
  4  5  1  0  0  0  0
  4 28  1  0  0  0  0
  4 29  1  0  0  0  0
  5  6  1  0  0  0  0
  5 30  1  0  0  0  0
  5 31  1  0  0  0  0
  6  7  1  0  0  0  0
  6 22  1  0  0  0  0
  6 51  1  0  0  0  0
  7  8  1  0  0  0  0
  7 32  1  0  0  0  0
  7 33  1  0  0  0  0
  8  9  1  0  0  0  0
  8 10  1  0  0  0  0
  8 34  1  0  0  0  0
  9 35  1  0  0  0  0
 10 11  1  0  0  0  0
 10 36  1  0  0  0  0
 10 37  1  0  0  0  0
 11 21  1  0  0  0  0
 11 12  1  0  0  0  0
 12 13  2  0  0  0  0
 12 38  1  0  0  0  0
 13 14  1  0  0  0  0
 14 21  2  0  0  0  0
 14 15  1  0  0  0  0
 15 16  2  0  0  0  0
 15 39  1  0  0  0  0
 16 17  1  0  0  0  0
 16 18  1  0  0  0  0
 17 40  1  0  0  0  0
 17 41  1  0  0  0  0
 17 42  1  0  0  0  0
 18 19  1  0  0  0  0
 18 20  2  0  0  0  0
 19 43  1  0  0  0  0
 19 44  1  0  0  0  0
 19 45  1  0  0  0  0
 20 21  1  0  0  0  0
 20 46  1  0  0  0  0
 22 23  1  0  0  0  0
 22 47  1  0  0  0  0
 22 48  1  0  0  0  0
 23 49  1  0  0  0  0
 23 50  1  0  0  0  0
M  CHG  1   6   1
M  END
> <s_m_source_file>
AV-unprocessed.smi

> <i_m_source_file_index>
1605

> <i_lp_mmshare_version>
43012

> <i_f3d_flags>
0

> <s_epik_input>
W0NIM11PW0NIXTFbQ0gyXVtDSDJdTihbQ0gyXVtDSDJdMSlbQ0gyXVtDQEhdKFtPSF0pW0NIMl1uKFtjSF1uMiljKGMyMylbY0hdYyhbQ0gzXSljKFtjSF0zKVtDSDNd

> <s_epik_cmdline>
J2VwaWtfcHl0aG9uJywgJy1waCcsICc3LjAnLCAnLXRuJywgJzgnLCAnLW1hJywgJzIwMCcsICctbWV0YWxfYmluZGluZycsICctaW1hZScsICc8aW5maWxlLm1hZT4nLCAnLW9tYWUnLCAnPG91dGZpbGUubWFlPic=

> <r_epik_Ionization_Penalty>
0.110943

> <r_epik_Ionization_Penalty_Charging>
0.0229283

> <r_epik_Ionization_Penalty_Neutral>
0.0880146

> <r_epik_State_Penalty>
0.0947554

> <r_epik_Charging_Adjusted_Penalty>
0.117684

> <i_epik_Tot_Q>
1

> <i_epik_Tot_abs_Q>
1

> <r_epik_Metal_State_Penalty>
0.0192456

> <b_epik_Metal_Only>
0

> <s_lp_Force_Field>
OPLS_2005

> <r_lp_Energy>
23.6879

> <b_lp_Chiralities_Consistent>
1

> <s_lp_Variant>
AV-unprocessed.smi:1605-3

> <Gold.Version>
5.8.1

> <Gold.Id.Protein>
6NUR|6NUR_protein|mol2

> <Gold.PLP.Fitness>
47.6886

> <Gold.PLP.PLP>
-36.6012

> <Gold.PLP.part.hbond>
-2.0000

> <Gold.PLP.part.metal>
0.0000

> <Gold.PLP.part.buried>
-1.9579

> <Gold.PLP.part.nonpolar>
-32.3629

> <Gold.PLP.part.repulsive>
0.1329

> <Gold.PLP.ligand.clash>
0.0000

> <Gold.PLP.ligand.torsion>
0.2441

> <Gold.PLP.Chemscore.Hbond>
2.9750

> <Gold.PLP.Chemscore.CHOScore>
0.8535

> <Gold.PLP.Chemscore.Metal>
0.0000

> <Gold.Chemscore.Hbonds>
donor molecule, donor type, donor heavy atom, donor atom, acceptor molecule, acceptor atom, score
      L1  H     6    51       P1 10175  1.82
      L1  H     9    35       P1 10175  1.00
      L1  C    12    38       P1  7957  0.55

> <Gold.PLP.Chemscore.Internal.Correction>
0.0901

> <Gold.Rescore>
     Score         DG    S(hbond)    S(metal)    S(lipo)     H(rot)  DE(clash)    DE(int)     intcor
     15.90     -16.34       1.53        0.00      97.52       2.22       0.09       0.35       ----

> <Gold.Chemscore.Fitness>
15.9000

> <Gold.Chemscore.DG>
-16.3414

> <Gold.Chemscore.ZeroCoef>
-5.4800

> <Gold.Chemscore.Hbond>
1.5349

> <Gold.Chemscore.Metal>
0.0000

> <Gold.Chemscore.Lipo>
97.5221

> <Gold.Chemscore.Internal_Hbond>
0.0000

> <Gold.Chemscore.DEClash>
0.0865

> <Gold.Chemscore.DEInternal>
0.3548

> <Gold.Chemscore.Rot>
2.2169

> <Gold.Chemscore.Internal.Correction>
   9.000000E+99

> <Gold.Chemscore.Hbonds>
donor molecule, donor type, donor heavy atom, donor atom, acceptor molecule, acceptor atom, score
      L1  H     6    51       P1 10175  0.87
      L1  H     9    35       P1 10175  0.67

> <Gold.Chemscore.Hbond.Weighted>
-5.1266

> <Gold.Chemscore.Metal.Weighted>
-0.0000

> <Gold.Chemscore.Lipo.Weighted>
-11.4101

> <Gold.Chemscore.Internal_Hbond.Weighted>
0.0000

> <Gold.Chemscore.DEClash.Weighted>
0.0865

> <Gold.Chemscore.DEInternal.Weighted>
0.3548

> <Gold.Chemscore.Rot.Weighted>
5.6753

> <Gold.Chemscore.Internal.Correction.Weighted>
   9.000000E+99

> <Gold.Protein.RotatedTorsions>
[ 6907 6896 6895 6894 ] final   82.23 input  -60.11 | X-H torsion
[ 7974 7965 7964 7962 ] final  145.06 input  175.53 | X-H torsion
[ 8008 7997 7996 7995 ] final  146.45 input   59.86 | X-H torsion
[ 10167 10162 10161 10158 ] final  104.45 input  -65.29 | X-H torsion
[ 10718 10713 10712 10709 ] final   -6.91 input   66.30 | X-H torsion
[ 10763 10752 10751 10750 ] final -176.88 input  -60.55 | X-H torsion
[ 11005 11000 10999 10996 ] final   38.19 input  -57.11 | X-H torsion

> <Gold.Protein.ActiveResidues>
 VAL166  LYS551  ARG553  GLY616  TRP617  ASP618  TYR619  PRO620  LYS621  CYS622 
 ASP623  PHE694  ASN695  SER759  ASP760  ASP761  ALA762  ILE779  LEU786  VAL792 
 PHE793  MET794  SER795  GLU796  ALA797  LYS798  CYS799  TRP800  GLU811  SER814 

> <Gold.Protein.RotatedAtoms>
  152.5293  134.3082  159.9103 H   0  0  0  0  0  0  0  0  0  0  0  0  # atno 6907 bound_to 6896
  151.3032  133.4107  159.2649 H   0  0  0  0  0  0  0  0  0  0  0  0  # atno 6908 bound_to 6896
  151.0102  134.9407  159.8060 H   0  0  0  0  0  0  0  0  0  0  0  0  # atno 6909 bound_to 6896
  144.8784  139.5737  143.5854 H   0  0  0  0  0  0  0  0  0  0  0  0  # atno 7974 bound_to 7965
  156.2855  140.2182  156.5379 H   0  0  0  0  0  0  0  0  0  0  0  0  # atno 8008 bound_to 7997
  154.7394  140.0489  157.0820 H   0  0  0  0  0  0  0  0  0  0  0  0  # atno 8009 bound_to 7997
  155.0250  140.3128  155.4782 H   0  0  0  0  0  0  0  0  0  0  0  0  # atno 8010 bound_to 7997
  139.7176  144.7065  151.0924 H   0  0  0  0  0  0  0  0  0  0  0  0  # atno 10167 bound_to 10162
  156.7249  130.5162  149.5859 H   0  0  0  0  0  0  0  0  0  0  0  0  # atno 10718 bound_to 10713
  154.5669  135.2824  155.0865 H   0  0  0  0  0  0  0  0  0  0  0  0  # atno 10763 bound_to 10752
  154.2252  135.6384  153.5161 H   0  0  0  0  0  0  0  0  0  0  0  0  # atno 10764 bound_to 10752
  153.0046  135.5524  154.6281 H   0  0  0  0  0  0  0  0  0  0  0  0  # atno 10765 bound_to 10752
  140.2151  134.3708  155.8031 H   0  0  0  0  0  0  0  0  0  0  0  0  # atno 11005 bound_to 11000
  146.2978  139.7332  142.9114 LP  0  0  0  0  0  0  0  0  0  0  0  0  # atno 17320 bound_to 7965
  145.4000  141.0384  143.3076 LP  0  0  0  0  0  0  0  0  0  0  0  0  # atno 17321 bound_to 7965
  140.7747  143.5209  150.9538 LP  0  0  0  0  0  0  0  0  0  0  0  0  # atno 17342 bound_to 10162
  139.8895  143.6971  152.3147 LP  0  0  0  0  0  0  0  0  0  0  0  0  # atno 17343 bound_to 10162
  156.1569  130.6348  151.0668 LP  0  0  0  0  0  0  0  0  0  0  0  0  # atno 17370 bound_to 10713
  157.6883  131.0818  150.7181 LP  0  0  0  0  0  0  0  0  0  0  0  0  # atno 17371 bound_to 10713
  141.2225  133.7163  156.8482 LP  0  0  0  0  0  0  0  0  0  0  0  0  # atno 17394 bound_to 11000
  140.1909  134.8966  157.3059 LP  0  0  0  0  0  0  0  0  0  0  0  0  # atno 17395 bound_to 11000

$$$$
