AV-unprocessed.smi:187|AV-procd|sdf|1471|dock1
  -GOLD-   2262019283D 1   1.00000     0.00000
 Structure written by MMmdl.
 53 56  0  0  0  0  0  0  0  0  1 V2000
  153.8271  139.4875  159.3616 C   0  0  0  0  0  0  0  0  0  0  0  0
  152.9411  140.6573  159.8397 C   0  0  1  0  0  0  0  0  0  0  0  0
  153.8148  141.6836  160.5917 C   0  0  0  0  0  0  0  0  0  0  0  0
  153.0046  142.9098  161.0314 C   0  0  0  0  0  0  0  0  0  0  0  0
  152.3226  143.5510  159.8098 C   0  0  2  0  0  0  0  0  0  0  0  0
  151.4858  144.7698  160.2191 C   0  0  0  0  0  0  0  0  0  0  0  0
  150.5755  144.5879  161.1789 N   0  0  0  0  0  0  0  0  0  0  0  0
  151.6560  145.8613  159.6786 O   0  0  0  0  0  0  0  0  0  0  0  0
  151.4485  142.5001  159.0998 C   0  0  0  0  0  0  0  0  0  0  0  0
  152.2210  141.3118  158.7348 N   0  0  0  0  0  0  0  0  0  0  0  0
  151.4820  140.5191  157.9221 C   0  0  0  0  0  0  0  0  0  0  0  0
  151.3566  139.1913  158.1875 N   0  0  0  0  0  0  0  0  0  0  0  0
  150.6035  138.4202  157.3971 C   0  0  0  0  0  0  0  0  0  0  0  0
  149.9006  138.7668  156.3165 N   0  0  0  0  0  0  0  0  0  0  0  0
  150.0187  140.1003  156.0542 C   0  0  0  0  0  0  0  0  0  0  0  0
  150.7768  141.0410  156.8055 C   0  0  0  0  0  0  0  0  0  0  0  0
  150.6447  142.3095  156.2553 N   0  0  0  0  0  0  0  0  0  0  0  0
  149.8474  142.1296  155.2372 C   0  0  0  0  0  0  0  0  0  0  0  0
  149.4454  140.8290  155.0269 N   0  0  0  0  0  0  0  0  0  0  0  0
  148.5468  140.3553  154.0155 C   0  0  0  0  0  0  0  0  0  0  0  0
  147.0381  140.5752  154.1377 C   0  0  0  0  0  0  0  0  0  0  0  0
  146.7919  139.2478  153.3839 C   0  0  0  0  0  0  0  0  0  0  0  0
  145.6675  138.3500  153.9300 C   0  0  0  0  0  0  0  0  0  0  0  0
  145.6670  138.2998  155.3416 O   0  0  0  0  0  0  0  0  0  0  0  0
  146.6674  139.3424  151.8482 C   0  0  0  0  0  0  0  0  0  0  0  0
  146.3855  138.0914  151.2554 O   0  0  0  0  0  0  0  0  0  0  0  0
  148.2077  138.8686  153.8752 C   0  0  0  0  0  0  0  0  0  0  0  0
  154.3824  139.0556  160.1946 H   0  0  0  0  0  0  0  0  0  0  0  0
  154.5526  139.8203  158.6185 H   0  0  0  0  0  0  0  0  0  0  0  0
  153.2453  138.6800  158.9182 H   0  0  0  0  0  0  0  0  0  0  0  0
  152.2013  140.2683  160.5412 H   0  0  0  0  0  0  0  0  0  0  0  0
  154.2724  141.2164  161.4645 H   0  0  0  0  0  0  0  0  0  0  0  0
  154.6359  142.0083  159.9508 H   0  0  0  0  0  0  0  0  0  0  0  0
  152.2609  142.6077  161.7705 H   0  0  0  0  0  0  0  0  0  0  0  0
  153.6610  143.6291  161.5230 H   0  0  0  0  0  0  0  0  0  0  0  0
  153.0974  143.8791  159.1142 H   0  0  0  0  0  0  0  0  0  0  0  0
  150.0005  145.3606  161.4815 H   0  0  0  0  0  0  0  0  0  0  0  0
  150.4656  143.6760  161.5983 H   0  0  0  0  0  0  0  0  0  0  0  0
  150.6216  142.1979  159.7451 H   0  0  0  0  0  0  0  0  0  0  0  0
  151.0049  142.9432  158.2064 H   0  0  0  0  0  0  0  0  0  0  0  0
  150.5567  137.3765  157.6704 H   0  0  0  0  0  0  0  0  0  0  0  0
  149.5339  142.9480  154.6056 H   0  0  0  0  0  0  0  0  0  0  0  0
  148.9190  140.7579  153.0719 H   0  0  0  0  0  0  0  0  0  0  0  0
  146.6952  140.5444  155.1738 H   0  0  0  0  0  0  0  0  0  0  0  0
  146.6711  141.4699  153.6343 H   0  0  0  0  0  0  0  0  0  0  0  0
  144.6890  138.6884  153.5884 H   0  0  0  0  0  0  0  0  0  0  0  0
  145.7795  137.3271  153.5698 H   0  0  0  0  0  0  0  0  0  0  0  0
  146.1092  139.0672  155.6705 H   0  0  0  0  0  0  0  0  0  0  0  0
  145.8692  140.0260  151.5592 H   0  0  0  0  0  0  0  0  0  0  0  0
  147.5794  139.7416  151.4037 H   0  0  0  0  0  0  0  0  0  0  0  0
  145.4741  138.0739  151.0071 H   0  0  0  0  0  0  0  0  0  0  0  0
  148.8190  138.3327  153.1483 H   0  0  0  0  0  0  0  0  0  0  0  0
  148.2037  138.3505  154.8362 H   0  0  0  0  0  0  0  0  0  0  0  0
  1  2  1  0  0  0  0
  1 28  1  0  0  0  0
  1 29  1  0  0  0  0
  1 30  1  0  0  0  0
  2 10  1  0  0  0  0
  2  3  1  0  0  0  0
  2 31  1  0  0  0  0
  3  4  1  0  0  0  0
  3 32  1  0  0  0  0
  3 33  1  0  0  0  0
  4  5  1  0  0  0  0
  4 34  1  0  0  0  0
  4 35  1  0  0  0  0
  5  6  1  0  0  0  0
  5  9  1  0  0  0  0
  5 36  1  0  0  0  0
  6  7  1  0  0  0  0
  6  8  2  0  0  0  0
  7 37  1  0  0  0  0
  7 38  1  0  0  0  0
  9 10  1  0  0  0  0
  9 39  1  0  0  0  0
  9 40  1  0  0  0  0
 10 11  1  0  0  0  0
 11 16  1  0  0  0  0
 11 12  2  0  0  0  0
 12 13  1  0  0  0  0
 13 14  2  0  0  0  0
 13 41  1  0  0  0  0
 14 15  1  0  0  0  0
 15 19  1  0  0  0  0
 15 16  2  0  0  0  0
 16 17  1  0  0  0  0
 17 18  2  0  0  0  0
 18 19  1  0  0  0  0
 18 42  1  0  0  0  0
 19 20  1  0  0  0  0
 20 27  1  0  0  0  0
 20 21  1  0  0  0  0
 20 43  1  0  0  0  0
 21 22  1  0  0  0  0
 21 44  1  0  0  0  0
 21 45  1  0  0  0  0
 22 23  1  0  0  0  0
 22 25  1  0  0  0  0
 22 27  1  0  0  0  0
 23 24  1  0  0  0  0
 23 46  1  0  0  0  0
 23 47  1  0  0  0  0
 24 48  1  0  0  0  0
 25 26  1  0  0  0  0
 25 49  1  0  0  0  0
 25 50  1  0  0  0  0
 26 51  1  0  0  0  0
 27 52  1  0  0  0  0
 27 53  1  0  0  0  0
M  END
> <s_m_source_file>
AV-unprocessed.smi

> <i_m_source_file_index>
187

> <i_lp_mmshare_version>
43012

> <i_f3d_flags>
0

> <s_epik_input>
W0NIM11bQ0BASF0xW0NIMl1bQ0gyXVtDQEBIXShDKD1PKVtOSDJdKVtDSDJdTjFjKG5bY0hdbjIpYyhjMjMpbltjSF1uM1tDSF0oW0NIMl00KVtDSDJdQzQoW0NIMl1bT0hdKVtDSDJdW09IXQ==

> <s_epik_cmdline>
J2VwaWtfcHl0aG9uJywgJy1waCcsICc3LjAnLCAnLXRuJywgJzgnLCAnLW1hJywgJzIwMCcsICctbWV0YWxfYmluZGluZycsICctaW1hZScsICc8aW5maWxlLm1hZT4nLCAnLW9tYWUnLCAnPG91dGZpbGUubWFlPic=

> <r_lp_tautomer_probability>
1

> <r_epik_Ionization_Penalty>
0.0017711

> <r_epik_Ionization_Penalty_Charging>
0

> <r_epik_Ionization_Penalty_Neutral>
0.0017711

> <r_epik_State_Penalty>
0.00107211

> <r_epik_Charging_Adjusted_Penalty>
0.00107211

> <i_epik_Tot_Q>
0

> <i_epik_Tot_abs_Q>
0

> <r_epik_Metal_State_Penalty>
-0

> <b_epik_Metal_Only>
0

> <s_lp_Force_Field>
OPLS_2005

> <r_lp_Energy>
43.5948

> <b_lp_Chiralities_Consistent>
1

> <s_lp_Variant>
AV-unprocessed.smi:187-4

> <Gold.Version>
5.8.1

> <Gold.Id.Protein>
6NUR|6NUR_protein|mol2

> <Gold.PLP.Fitness>
51.7716

> <Gold.PLP.PLP>
-45.3782

> <Gold.PLP.part.hbond>
-4.9372

> <Gold.PLP.part.metal>
0.0000

> <Gold.PLP.part.buried>
-0.5759

> <Gold.PLP.part.nonpolar>
-40.8755

> <Gold.PLP.part.repulsive>
0.8101

> <Gold.PLP.ligand.clash>
0.0000

> <Gold.PLP.ligand.torsion>
0.8092

> <Gold.PLP.Chemscore.Hbond>
1.7063

> <Gold.PLP.Chemscore.CHOScore>
0.7187

> <Gold.PLP.Chemscore.Metal>
0.0000

> <Gold.Chemscore.Hbonds>
donor molecule, donor type, donor heavy atom, donor atom, acceptor molecule, acceptor atom, score
      L1  H    26    51       P1 10171  0.93
      P1  H  7954  7966       L1    26  0.46
      L1  C    18    42       P1  8028  0.73

> <Gold.PLP.Chemscore.Internal.Correction>
0.7371

> <Gold.Rescore>
     Score         DG    S(hbond)    S(metal)    S(lipo)     H(rot)  DE(clash)    DE(int)     intcor
      4.16      -9.32       0.92        0.00      93.79       3.99       0.85       4.31       ----

> <Gold.Chemscore.Fitness>
4.1597

> <Gold.Chemscore.DG>
-9.3153

> <Gold.Chemscore.ZeroCoef>
-5.4800

> <Gold.Chemscore.Hbond>
0.9211

> <Gold.Chemscore.Metal>
0.0000

> <Gold.Chemscore.Lipo>
93.7910

> <Gold.Chemscore.Internal_Hbond>
0.0000

> <Gold.Chemscore.DEClash>
0.8486

> <Gold.Chemscore.DEInternal>
4.3070

> <Gold.Chemscore.Rot>
3.9902

> <Gold.Chemscore.Internal.Correction>
   9.000000E+99

> <Gold.Chemscore.Hbonds>
donor molecule, donor type, donor heavy atom, donor atom, acceptor molecule, acceptor atom, score
      L1  H    26    51       P1 10171  0.86
      P1  H  7954  7966       L1    26  0.14

> <Gold.Chemscore.Hbond.Weighted>
-3.0766

> <Gold.Chemscore.Metal.Weighted>
-0.0000

> <Gold.Chemscore.Lipo.Weighted>
-10.9735

> <Gold.Chemscore.Internal_Hbond.Weighted>
0.0000

> <Gold.Chemscore.DEClash.Weighted>
0.8486

> <Gold.Chemscore.DEInternal.Weighted>
4.3070

> <Gold.Chemscore.Rot.Weighted>
10.2148

> <Gold.Chemscore.Internal.Correction.Weighted>
   9.000000E+99

> <Gold.Protein.RotatedTorsions>
[ 6907 6896 6895 6894 ] final   59.20 input  -60.11 | X-H torsion
[ 7974 7965 7964 7962 ] final  -44.49 input  175.53 | X-H torsion
[ 8008 7997 7996 7995 ] final   33.32 input   59.86 | X-H torsion
[ 10167 10162 10161 10158 ] final  -33.13 input  -65.29 | X-H torsion
[ 10718 10713 10712 10709 ] final -147.17 input   66.30 | X-H torsion
[ 10763 10752 10751 10750 ] final  -11.69 input  -60.55 | X-H torsion
[ 11005 11000 10999 10996 ] final -101.70 input  -57.11 | X-H torsion

> <Gold.Protein.ActiveResidues>
 VAL166  LYS551  ARG553  GLY616  TRP617  ASP618  TYR619  PRO620  LYS621  CYS622 
 ASP623  PHE694  ASN695  SER759  ASP760  ASP761  ALA762  ILE779  LEU786  VAL792 
 PHE793  MET794  SER795  GLU796  ALA797  LYS798  CYS799  TRP800  GLU811  SER814 

> <Gold.Protein.RotatedAtoms>
  152.3893  134.6467  160.0113 H   0  0  0  0  0  0  0  0  0  0  0  0  # atno 6907 bound_to 6896
  151.6706  133.3308  159.3203 H   0  0  0  0  0  0  0  0  0  0  0  0  # atno 6908 bound_to 6896
  150.7812  134.6803  159.6485 H   0  0  0  0  0  0  0  0  0  0  0  0  # atno 6909 bound_to 6896
  145.9915  140.7175  142.9314 H   0  0  0  0  0  0  0  0  0  0  0  0  # atno 7974 bound_to 7965
  155.1367  140.3262  155.4461 H   0  0  0  0  0  0  0  0  0  0  0  0  # atno 8008 bound_to 7997
  156.2617  140.2001  156.6433 H   0  0  0  0  0  0  0  0  0  0  0  0  # atno 8009 bound_to 7997
  154.6572  140.0551  157.0009 H   0  0  0  0  0  0  0  0  0  0  0  0  # atno 8010 bound_to 7997
  140.7210  143.3643  151.1901 H   0  0  0  0  0  0  0  0  0  0  0  0  # atno 10167 bound_to 10162
  156.4042  130.7949  151.2162 H   0  0  0  0  0  0  0  0  0  0  0  0  # atno 10718 bound_to 10713
  153.4875  135.7017  153.5903 H   0  0  0  0  0  0  0  0  0  0  0  0  # atno 10763 bound_to 10752
  153.4090  135.3853  155.2038 H   0  0  0  0  0  0  0  0  0  0  0  0  # atno 10764 bound_to 10752
  154.8718  135.3900  154.4331 H   0  0  0  0  0  0  0  0  0  0  0  0  # atno 10765 bound_to 10752
  141.1220  133.8499  157.1266 H   0  0  0  0  0  0  0  0  0  0  0  0  # atno 11005 bound_to 11000
  144.6890  140.3079  143.7253 LP  0  0  0  0  0  0  0  0  0  0  0  0  # atno 17320 bound_to 7965
  145.7622  139.1828  143.2260 LP  0  0  0  0  0  0  0  0  0  0  0  0  # atno 17321 bound_to 7965
  139.7201  143.9236  152.2982 LP  0  0  0  0  0  0  0  0  0  0  0  0  # atno 17342 bound_to 10162
  139.8990  144.6922  150.8686 LP  0  0  0  0  0  0  0  0  0  0  0  0  # atno 17343 bound_to 10162
  157.7505  131.0277  150.4019 LP  0  0  0  0  0  0  0  0  0  0  0  0  # atno 17370 bound_to 10713
  156.4304  130.3971  149.6764 LP  0  0  0  0  0  0  0  0  0  0  0  0  # atno 17371 bound_to 10713
  140.0185  134.9956  157.0543 LP  0  0  0  0  0  0  0  0  0  0  0  0  # atno 17394 bound_to 11000
  140.4479  134.1612  155.7179 LP  0  0  0  0  0  0  0  0  0  0  0  0  # atno 17395 bound_to 11000

$$$$
