AV-unprocessed.smi:1702|AV-procd|sdf|6846|dock6
  -GOLD-   22720 8 23D 1   1.00000     0.00000
 Structure written by MMmdl.
 44 46  0  0  0  0  0  0  0  0  2 V2000
  143.0847  143.0040  156.5263 C   0  0  0  0  0  0  0  0  0  0  0  0
  144.4603  142.5766  155.9963 C   0  0  2  0  0  0  0  0  0  0  0  0
  144.7912  143.2573  154.6579 C   0  0  0  0  0  0  0  0  0  0  0  0
  146.1564  142.7976  154.1194 C   0  0  0  0  0  0  0  0  0  0  0  0
  146.2074  141.3199  153.9735 N   0  3  1  0  0  0  0  0  0  0  0  0
  147.4658  140.8638  153.3295 C   0  0  0  0  0  0  0  0  0  0  0  0
  148.5440  140.4308  154.3494 C   0  0  1  0  0  0  0  0  0  0  0  0
  149.7386  140.1250  153.6584 O   0  0  0  0  0  0  0  0  0  0  0  0
  148.8781  141.5244  155.3831 C   0  0  0  0  0  0  0  0  0  0  0  0
  149.7142  141.0336  156.4635 N   0  0  0  0  0  0  0  0  0  0  0  0
  149.9150  139.7473  156.8090 C   0  0  0  0  0  0  0  0  0  0  0  0
  150.7186  139.5126  157.8423 N   0  0  0  0  0  0  0  0  0  0  0  0
  151.0894  140.7954  158.2064 C   0  0  0  0  0  0  0  0  0  0  0  0
  151.9373  141.2457  159.2432 C   0  0  0  0  0  0  0  0  0  0  0  0
  152.1667  142.6246  159.4312 C   0  0  0  0  0  0  0  0  0  0  0  0
  152.9802  143.0392  160.4311 F   0  0  0  0  0  0  0  0  0  0  0  0
  151.5526  143.5726  158.5858 C   0  0  0  0  0  0  0  0  0  0  0  0
  151.7751  144.8947  158.7748 F   0  0  0  0  0  0  0  0  0  0  0  0
  150.7050  143.1477  157.5449 C   0  0  0  0  0  0  0  0  0  0  0  0
  150.4789  141.7710  157.3617 C   0  0  0  0  0  0  0  0  0  0  0  0
  145.9273  140.6373  155.2650 C   0  0  0  0  0  0  0  0  0  0  0  0
  144.5565  141.0514  155.8253 C   0  0  0  0  0  0  0  0  0  0  0  0
  142.2889  142.7284  155.8337 H   0  0  0  0  0  0  0  0  0  0  0  0
  143.0388  144.0835  156.6735 H   0  0  0  0  0  0  0  0  0  0  0  0
  142.8695  142.5318  157.4853 H   0  0  0  0  0  0  0  0  0  0  0  0
  145.2081  142.8847  156.7288 H   0  0  0  0  0  0  0  0  0  0  0  0
  144.0157  143.0305  153.9245 H   0  0  0  0  0  0  0  0  0  0  0  0
  144.7920  144.3411  154.7803 H   0  0  0  0  0  0  0  0  0  0  0  0
  146.3341  143.2705  153.1528 H   0  0  0  0  0  0  0  0  0  0  0  0
  146.9556  143.1268  154.7857 H   0  0  0  0  0  0  0  0  0  0  0  0
  147.2605  140.0189  152.6702 H   0  0  0  0  0  0  0  0  0  0  0  0
  147.8310  141.6649  152.6860 H   0  0  0  0  0  0  0  0  0  0  0  0
  148.2300  139.5378  154.8886 H   0  0  0  0  0  0  0  0  0  0  0  0
  149.5368  139.9624  152.7496 H   0  0  0  0  0  0  0  0  0  0  0  0
  149.4004  142.3527  154.9016 H   0  0  0  0  0  0  0  0  0  0  0  0
  147.9647  141.9409  155.8098 H   0  0  0  0  0  0  0  0  0  0  0  0
  149.4399  138.9375  156.2744 H   0  0  0  0  0  0  0  0  0  0  0  0
  152.4123  140.5291  159.8968 H   0  0  0  0  0  0  0  0  0  0  0  0
  150.2344  143.8726  156.8977 H   0  0  0  0  0  0  0  0  0  0  0  0
  145.9417  139.5559  155.1370 H   0  0  0  0  0  0  0  0  0  0  0  0
  146.7124  140.8783  155.9836 H   0  0  0  0  0  0  0  0  0  0  0  0
  144.3884  140.5576  156.7831 H   0  0  0  0  0  0  0  0  0  0  0  0
  143.7691  140.7020  155.1557 H   0  0  0  0  0  0  0  0  0  0  0  0
  145.4588  141.0775  153.3404 H   0  0  0  0  0  0  0  0  0  0  0  0
  1  2  1  0  0  0  0
  1 23  1  0  0  0  0
  1 24  1  0  0  0  0
  1 25  1  0  0  0  0
  2 22  1  0  0  0  0
  2  3  1  0  0  0  0
  2 26  1  0  0  0  0
  3  4  1  0  0  0  0
  3 27  1  0  0  0  0
  3 28  1  0  0  0  0
  4  5  1  0  0  0  0
  4 29  1  0  0  0  0
  4 30  1  0  0  0  0
  5  6  1  0  0  0  0
  5 21  1  0  0  0  0
  5 44  1  0  0  0  0
  6  7  1  0  0  0  0
  6 31  1  0  0  0  0
  6 32  1  0  0  0  0
  7  8  1  0  0  0  0
  7  9  1  0  0  0  0
  7 33  1  0  0  0  0
  8 34  1  0  0  0  0
  9 10  1  0  0  0  0
  9 35  1  0  0  0  0
  9 36  1  0  0  0  0
 10 20  1  0  0  0  0
 10 11  1  0  0  0  0
 11 12  2  0  0  0  0
 11 37  1  0  0  0  0
 12 13  1  0  0  0  0
 13 20  2  0  0  0  0
 13 14  1  0  0  0  0
 14 15  2  0  0  0  0
 14 38  1  0  0  0  0
 15 16  1  0  0  0  0
 15 17  1  0  0  0  0
 17 18  1  0  0  0  0
 17 19  2  0  0  0  0
 19 20  1  0  0  0  0
 19 39  1  0  0  0  0
 21 22  1  0  0  0  0
 21 40  1  0  0  0  0
 21 41  1  0  0  0  0
 22 42  1  0  0  0  0
 22 43  1  0  0  0  0
M  CHG  1   5   1
M  END
> <s_m_source_file>
AV-unprocessed.smi

> <i_m_source_file_index>
1702

> <i_lp_mmshare_version>
43012

> <i_f3d_flags>
0

> <s_epik_input>
W0NIM11bQ0hdMVtDSDJdW0NIMl1OKFtDSDJdW0NIMl0xKVtDSDJdW0NASF0oW09IXSlbQ0gyXW4oW2NIXW4yKWMoYzIzKVtjSF1jKEYpYyhGKVtjSF0z

> <s_epik_cmdline>
J2VwaWtfcHl0aG9uJywgJy1waCcsICc3LjAnLCAnLXRuJywgJzgnLCAnLW1hJywgJzIwMCcsICctbWV0YWxfYmluZGluZycsICctaW1hZScsICc8aW5maWxlLm1hZT4nLCAnLW9tYWUnLCAnPG91dGZpbGUubWFlPic=

> <r_epik_Ionization_Penalty>
0.0135195

> <r_epik_Ionization_Penalty_Charging>
0.00181365

> <r_epik_Ionization_Penalty_Neutral>
0.0117059

> <r_epik_State_Penalty>
0.00902283

> <r_epik_Charging_Adjusted_Penalty>
0.0108365

> <i_epik_Tot_Q>
1

> <i_epik_Tot_abs_Q>
1

> <r_epik_Metal_State_Penalty>
9.09181e-06

> <b_epik_Metal_Only>
0

> <s_lp_Force_Field>
OPLS_2005

> <r_lp_Energy>
23.1307

> <b_lp_Chiralities_Consistent>
1

> <s_lp_Variant>
AV-unprocessed.smi:1702-2

> <Gold.Version>
5.8.1

> <Gold.Id.Protein>
6NUR|6NUR_protein|mol2

> <Gold.PLP.Fitness>
53.2082

> <Gold.PLP.PLP>
-45.0507

> <Gold.PLP.part.hbond>
-2.3289

> <Gold.PLP.part.metal>
0.0000

> <Gold.PLP.part.buried>
-3.5904

> <Gold.PLP.part.nonpolar>
-39.7591

> <Gold.PLP.part.repulsive>
0.0356

> <Gold.PLP.ligand.clash>
0.0000

> <Gold.PLP.ligand.torsion>
0.7244

> <Gold.PLP.Chemscore.Hbond>
3.1861

> <Gold.PLP.Chemscore.CHOScore>
0.0000

> <Gold.PLP.Chemscore.Metal>
0.0000

> <Gold.Chemscore.Hbonds>
donor molecule, donor type, donor heavy atom, donor atom, acceptor molecule, acceptor atom, score
      L1  H     5    44       P1 10175  1.89
      L1  H     8    34       P1  7957  1.00
      P1  H  7989  7998       L1     8  0.64

> <Gold.PLP.Chemscore.Internal.Correction>
0.0480

> <Gold.Rescore>
     Score         DG    S(hbond)    S(metal)    S(lipo)     H(rot)  DE(clash)    DE(int)     intcor
     15.58     -17.55       2.21        0.00      89.68       2.26       1.41       0.56       ----

> <Gold.Chemscore.Fitness>
15.5788

> <Gold.Chemscore.DG>
-17.5492

> <Gold.Chemscore.ZeroCoef>
-5.4800

> <Gold.Chemscore.Hbond>
2.2057

> <Gold.Chemscore.Metal>
0.0000

> <Gold.Chemscore.Lipo>
89.6796

> <Gold.Chemscore.Internal_Hbond>
0.0000

> <Gold.Chemscore.DEClash>
1.4095

> <Gold.Chemscore.DEInternal>
0.5609

> <Gold.Chemscore.Rot>
2.2619

> <Gold.Chemscore.Internal.Correction>
   9.000000E+99

> <Gold.Chemscore.Hbonds>
donor molecule, donor type, donor heavy atom, donor atom, acceptor molecule, acceptor atom, score
      L1  H     5    44       P1 10175  0.40
      L1  H     8    34       P1  7957  0.98
      P1  H  7989  7998       L1     8  0.13

> <Gold.Chemscore.Hbond.Weighted>
-7.3671

> <Gold.Chemscore.Metal.Weighted>
-0.0000

> <Gold.Chemscore.Lipo.Weighted>
-10.4925

> <Gold.Chemscore.Internal_Hbond.Weighted>
0.0000

> <Gold.Chemscore.DEClash.Weighted>
1.4095

> <Gold.Chemscore.DEInternal.Weighted>
0.5609

> <Gold.Chemscore.Rot.Weighted>
5.7904

> <Gold.Chemscore.Internal.Correction.Weighted>
   9.000000E+99

> <Gold.Protein.RotatedTorsions>
[ 6907 6896 6895 6894 ] final -175.91 input  -60.11 | X-H torsion
[ 7974 7965 7964 7962 ] final  174.51 input  175.53 | X-H torsion
[ 8008 7997 7996 7995 ] final   -3.60 input   59.86 | X-H torsion
[ 10167 10162 10161 10158 ] final   58.66 input  -65.29 | X-H torsion
[ 10718 10713 10712 10709 ] final  135.44 input   66.30 | X-H torsion
[ 10763 10752 10751 10750 ] final -109.24 input  -60.55 | X-H torsion
[ 11005 11000 10999 10996 ] final  -23.91 input  -57.11 | X-H torsion

> <Gold.Protein.ActiveResidues>
 VAL166  LYS551  ARG553  GLY616  TRP617  ASP618  TYR619  PRO620  LYS621  CYS622 
 ASP623  PHE694  ASN695  SER759  ASP760  ASP761  ALA762  ILE779  LEU786  VAL792 
 PHE793  MET794  SER795  GLU796  ALA797  LYS798  CYS799  TRP800  GLU811  SER814 

> <Gold.Protein.RotatedAtoms>
  151.5962  133.3361  159.3037 H   0  0  0  0  0  0  0  0  0  0  0  0  # atno 6907 bound_to 6896
  150.8233  134.7454  159.6802 H   0  0  0  0  0  0  0  0  0  0  0  0  # atno 6908 bound_to 6896
  152.4324  134.5757  159.9985 H   0  0  0  0  0  0  0  0  0  0  0  0  # atno 6909 bound_to 6896
  144.7220  139.9808  143.6438 H   0  0  0  0  0  0  0  0  0  0  0  0  # atno 7974 bound_to 7965
  154.6232  140.2505  155.7524 H   0  0  0  0  0  0  0  0  0  0  0  0  # atno 8008 bound_to 7997
  156.2438  140.2922  156.0468 H   0  0  0  0  0  0  0  0  0  0  0  0  # atno 8009 bound_to 7997
  155.1864  140.0390  157.2882 H   0  0  0  0  0  0  0  0  0  0  0  0  # atno 8010 bound_to 7997
  140.1848  144.4145  150.6598 H   0  0  0  0  0  0  0  0  0  0  0  0  # atno 10167 bound_to 10162
  157.4570  131.1070  150.9966 H   0  0  0  0  0  0  0  0  0  0  0  0  # atno 10718 bound_to 10713
  154.8182  135.4608  154.0702 H   0  0  0  0  0  0  0  0  0  0  0  0  # atno 10763 bound_to 10752
  153.2078  135.6877  153.8158 H   0  0  0  0  0  0  0  0  0  0  0  0  # atno 10764 bound_to 10752
  153.7620  135.3282  155.3315 H   0  0  0  0  0  0  0  0  0  0  0  0  # atno 10765 bound_to 10752
  140.8796  133.7663  156.0285 H   0  0  0  0  0  0  0  0  0  0  0  0  # atno 11005 bound_to 11000
  146.0489  139.3492  143.0651 LP  0  0  0  0  0  0  0  0  0  0  0  0  # atno 17320 bound_to 7965
  145.8240  140.9665  143.0884 LP  0  0  0  0  0  0  0  0  0  0  0  0  # atno 17321 bound_to 7965
  140.6495  143.2221  151.6109 LP  0  0  0  0  0  0  0  0  0  0  0  0  # atno 17342 bound_to 10162
  139.5281  144.2999  152.1082 LP  0  0  0  0  0  0  0  0  0  0  0  0  # atno 17343 bound_to 10162
  157.0776  130.5890  149.5414 LP  0  0  0  0  0  0  0  0  0  0  0  0  # atno 17370 bound_to 10713
  156.0011  130.5091  150.7667 LP  0  0  0  0  0  0  0  0  0  0  0  0  # atno 17371 bound_to 10713
  140.8477  134.2991  157.5288 LP  0  0  0  0  0  0  0  0  0  0  0  0  # atno 17394 bound_to 11000
  139.8718  134.9451  156.3900 LP  0  0  0  0  0  0  0  0  0  0  0  0  # atno 17395 bound_to 11000

$$$$
