AV-unprocessed.smi:1473|AV-procd|sdf|5966|dock6
  -GOLD-   22720 6 53D 1   1.00000     0.00000
 Structure written by MMmdl.
 34 35  0  0  0  0  0  0  0  0  1 V2000
  146.0475  145.4775  161.0867 N   0  0  0  0  0  0  0  0  0  0  0  0
  146.3282  144.1016  160.0960 S   0  0  0  0  0  0  0  0  0  0  0  0
  146.6661  142.9569  160.9553 O   0  0  0  0  0  0  0  0  0  0  0  0
  145.2634  144.0176  159.0854 O   0  0  0  0  0  0  0  0  0  0  0  0
  147.7666  144.6326  159.3160 N   0  0  0  0  0  0  0  0  0  0  0  0
  149.0031  144.7709  160.0798 C   0  0  0  0  0  0  0  0  0  0  0  0
  150.1432  143.9869  159.4645 C   0  0  0  0  0  0  0  0  0  0  0  0
  151.4687  144.2027  159.8880 C   0  0  0  0  0  0  0  0  0  0  0  0
  152.4935  143.4600  159.2733 C   0  0  0  0  0  0  0  0  0  0  0  0
  152.2674  142.5522  158.3007 N   0  0  0  0  0  0  0  0  0  0  0  0
  150.9937  142.3330  157.8882 C   0  0  0  0  0  0  0  0  0  0  0  0
  150.7747  141.3789  156.8704 N   0  0  0  0  0  0  0  0  0  0  0  0
  150.0631  141.8084  155.6678 C   0  0  0  0  0  0  0  0  0  0  0  0
  149.6611  140.5903  154.8190 C   0  0  0  0  0  0  0  0  0  0  0  0
  150.8146  139.8099  154.5246 O   0  0  0  0  0  0  0  0  0  0  0  0
  151.4300  139.3094  155.7070 C   0  0  0  0  0  0  0  0  0  0  0  0
  151.8923  140.4803  156.5915 C   0  0  0  0  0  0  0  0  0  0  0  0
  149.9025  143.0406  158.4477 C   0  0  0  0  0  0  0  0  0  0  0  0
  145.5131  145.2497  161.9247 H   0  0  0  0  0  0  0  0  0  0  0  0
  145.6668  146.2632  160.5597 H   0  0  0  0  0  0  0  0  0  0  0  0
  147.6269  145.3278  158.5832 H   0  0  0  0  0  0  0  0  0  0  0  0
  149.2861  145.8234  160.1172 H   0  0  0  0  0  0  0  0  0  0  0  0
  148.8262  144.4536  161.1081 H   0  0  0  0  0  0  0  0  0  0  0  0
  151.6965  144.9217  160.6613 H   0  0  0  0  0  0  0  0  0  0  0  0
  153.5227  143.5995  159.5689 H   0  0  0  0  0  0  0  0  0  0  0  0
  149.1685  142.3711  155.9377 H   0  0  0  0  0  0  0  0  0  0  0  0
  150.7046  142.4723  155.0868 H   0  0  0  0  0  0  0  0  0  0  0  0
  148.9192  139.9816  155.3384 H   0  0  0  0  0  0  0  0  0  0  0  0
  149.2055  140.9180  153.8844 H   0  0  0  0  0  0  0  0  0  0  0  0
  150.7337  138.6662  156.2477 H   0  0  0  0  0  0  0  0  0  0  0  0
  152.2830  138.6903  155.4288 H   0  0  0  0  0  0  0  0  0  0  0  0
  152.6776  141.0428  156.0848 H   0  0  0  0  0  0  0  0  0  0  0  0
  152.3289  140.0806  157.5055 H   0  0  0  0  0  0  0  0  0  0  0  0
  148.8941  142.8795  158.0967 H   0  0  0  0  0  0  0  0  0  0  0  0
  1  2  1  0  0  0  0
  1 19  1  0  0  0  0
  1 20  1  0  0  0  0
  2  3  2  0  0  0  0
  2  4  2  0  0  0  0
  2  5  1  0  0  0  0
  5  6  1  0  0  0  0
  5 21  1  0  0  0  0
  6  7  1  0  0  0  0
  6 22  1  0  0  0  0
  6 23  1  0  0  0  0
  7 18  1  0  0  0  0
  7  8  2  0  0  0  0
  8  9  1  0  0  0  0
  8 24  1  0  0  0  0
  9 10  2  0  0  0  0
  9 25  1  0  0  0  0
 10 11  1  0  0  0  0
 11 12  1  0  0  0  0
 11 18  2  0  0  0  0
 12 17  1  0  0  0  0
 12 13  1  0  0  0  0
 13 14  1  0  0  0  0
 13 26  1  0  0  0  0
 13 27  1  0  0  0  0
 14 15  1  0  0  0  0
 14 28  1  0  0  0  0
 14 29  1  0  0  0  0
 15 16  1  0  0  0  0
 16 17  1  0  0  0  0
 16 30  1  0  0  0  0
 16 31  1  0  0  0  0
 17 32  1  0  0  0  0
 17 33  1  0  0  0  0
 18 34  1  0  0  0  0
M  END
> <s_m_source_file>
AV-unprocessed.smi

> <i_m_source_file_index>
1473

> <i_lp_mmshare_version>
43012

> <i_f3d_flags>
0

> <s_epik_input>
W05IMl1TKD1PKSg9TylbTkhdW0NIMl1jMVtjSF1bY0hdbmMoW2NIXTEpTjJbQ0gyXVtDSDJdT1tDSDJdW0NIMl0y

> <s_epik_cmdline>
J2VwaWtfcHl0aG9uJywgJy1waCcsICc3LjAnLCAnLXRuJywgJzgnLCAnLW1hJywgJzIwMCcsICctbWV0YWxfYmluZGluZycsICctaW1hZScsICc8aW5maWxlLm1hZT4nLCAnLW9tYWUnLCAnPG91dGZpbGUubWFlPic=

> <r_lp_tautomer_probability>
1

> <r_epik_Ionization_Penalty>
0.222057

> <r_epik_Ionization_Penalty_Charging>
0

> <r_epik_Ionization_Penalty_Neutral>
0.222057

> <r_epik_State_Penalty>
0.236233

> <r_epik_Charging_Adjusted_Penalty>
0.236233

> <i_epik_Tot_Q>
0

> <i_epik_Tot_abs_Q>
0

> <r_epik_Metal_State_Penalty>
0.788435

> <b_epik_Metal_Only>
0

> <s_lp_Force_Field>
OPLS_2005

> <r_lp_Energy>
17.6675

> <b_lp_Chiralities_Consistent>
1

> <s_lp_Variant>
AV-unprocessed.smi:1473-1

> <Gold.Version>
5.8.1

> <Gold.Id.Protein>
6NUR|6NUR_protein|mol2

> <Gold.PLP.Fitness>
41.8856

> <Gold.PLP.PLP>
-31.1670

> <Gold.PLP.part.hbond>
-4.9218

> <Gold.PLP.part.metal>
0.0000

> <Gold.PLP.part.buried>
-4.3988

> <Gold.PLP.part.nonpolar>
-21.8263

> <Gold.PLP.part.repulsive>
0.3475

> <Gold.PLP.ligand.clash>
0.0000

> <Gold.PLP.ligand.torsion>
0.8639

> <Gold.PLP.Chemscore.Hbond>
3.7049

> <Gold.PLP.Chemscore.CHOScore>
0.0000

> <Gold.PLP.Chemscore.Metal>
0.0000

> <Gold.Chemscore.Hbonds>
donor molecule, donor type, donor heavy atom, donor atom, acceptor molecule, acceptor atom, score
      L1  H     5    21       P1  8029  0.83
      P1  H  6933  6944       L1     3  0.93
      P1  H  6934  6946       L1     3  0.68
      P1  H  7989  7998       L1    15  1.00

> <Gold.PLP.Chemscore.Internal.Correction>
1.3318

> <Gold.Rescore>
     Score         DG    S(hbond)    S(metal)    S(lipo)     H(rot)  DE(clash)    DE(int)     intcor
     17.37     -19.22       3.13        0.00      69.72       1.90       1.08       0.77       ----

> <Gold.Chemscore.Fitness>
17.3733

> <Gold.Chemscore.DG>
-19.2214

> <Gold.Chemscore.ZeroCoef>
-5.4800

> <Gold.Chemscore.Hbond>
3.1277

> <Gold.Chemscore.Metal>
0.0000

> <Gold.Chemscore.Lipo>
69.7194

> <Gold.Chemscore.Internal_Hbond>
0.0000

> <Gold.Chemscore.DEClash>
1.0756

> <Gold.Chemscore.DEInternal>
0.7726

> <Gold.Chemscore.Rot>
1.8993

> <Gold.Chemscore.Internal.Correction>
   9.000000E+99

> <Gold.Chemscore.Hbonds>
donor molecule, donor type, donor heavy atom, donor atom, acceptor molecule, acceptor atom, score
      L1  H     5    21       P1  8029  0.81
      P1  H  6933  6944       L1     3  0.89
      P1  H  6934  6946       L1     3  0.65
      P1  H  7989  7998       L1    15  0.25

> <Gold.Chemscore.Hbond.Weighted>
-10.4464

> <Gold.Chemscore.Metal.Weighted>
-0.0000

> <Gold.Chemscore.Lipo.Weighted>
-8.1572

> <Gold.Chemscore.Internal_Hbond.Weighted>
0.0000

> <Gold.Chemscore.DEClash.Weighted>
1.0756

> <Gold.Chemscore.DEInternal.Weighted>
0.7726

> <Gold.Chemscore.Rot.Weighted>
4.8622

> <Gold.Chemscore.Internal.Correction.Weighted>
   9.000000E+99

> <Gold.Protein.RotatedTorsions>
[ 6907 6896 6895 6894 ] final -122.39 input  -60.11 | X-H torsion
[ 7974 7965 7964 7962 ] final   13.13 input  175.53 | X-H torsion
[ 8008 7997 7996 7995 ] final   87.11 input   59.86 | X-H torsion
[ 10167 10162 10161 10158 ] final -154.80 input  -65.29 | X-H torsion
[ 10718 10713 10712 10709 ] final  -11.16 input   66.30 | X-H torsion
[ 10763 10752 10751 10750 ] final -137.95 input  -60.55 | X-H torsion
[ 11005 11000 10999 10996 ] final   36.22 input  -57.11 | X-H torsion

> <Gold.Protein.ActiveResidues>
 VAL166  LYS551  ARG553  GLY616  TRP617  ASP618  TYR619  PRO620  LYS621  CYS622 
 ASP623  PHE694  ASN695  SER759  ASP760  ASP761  ALA762  ILE779  LEU786  VAL792 
 PHE793  MET794  SER795  GLU796  ALA797  LYS798  CYS799  TRP800  GLU811  SER814 

> <Gold.Protein.RotatedAtoms>
  150.8572  133.7698  159.3004 H   0  0  0  0  0  0  0  0  0  0  0  0  # atno 6907 bound_to 6896
  151.5351  135.1067  159.9922 H   0  0  0  0  0  0  0  0  0  0  0  0  # atno 6908 bound_to 6896
  152.4599  133.7756  159.6878 H   0  0  0  0  0  0  0  0  0  0  0  0  # atno 6909 bound_to 6896
  146.2336  139.9234  142.8507 H   0  0  0  0  0  0  0  0  0  0  0  0  # atno 7974 bound_to 7965
  155.9712  140.3385  155.6578 H   0  0  0  0  0  0  0  0  0  0  0  0  # atno 8008 bound_to 7997
  155.6671  140.0722  157.2551 H   0  0  0  0  0  0  0  0  0  0  0  0  # atno 8009 bound_to 7997
  154.4167  140.1698  156.1827 H   0  0  0  0  0  0  0  0  0  0  0  0  # atno 8010 bound_to 7997
  139.6984  143.9304  152.2417 H   0  0  0  0  0  0  0  0  0  0  0  0  # atno 10167 bound_to 10162
  156.6630  130.4987  149.6024 H   0  0  0  0  0  0  0  0  0  0  0  0  # atno 10718 bound_to 10713
  154.8649  135.3627  154.5306 H   0  0  0  0  0  0  0  0  0  0  0  0  # atno 10763 bound_to 10752
  153.5932  135.7015  153.5419 H   0  0  0  0  0  0  0  0  0  0  0  0  # atno 10764 bound_to 10752
  153.3355  135.4112  155.1492 H   0  0  0  0  0  0  0  0  0  0  0  0  # atno 10765 bound_to 10752
  140.2347  134.3485  155.7949 H   0  0  0  0  0  0  0  0  0  0  0  0  # atno 11005 bound_to 11000
  145.2115  140.9897  143.4098 LP  0  0  0  0  0  0  0  0  0  0  0  0  # atno 17320 bound_to 7965
  144.9687  139.3902  143.6319 LP  0  0  0  0  0  0  0  0  0  0  0  0  # atno 17321 bound_to 7965
  139.9140  144.6840  150.8532 LP  0  0  0  0  0  0  0  0  0  0  0  0  # atno 17342 bound_to 10162
  140.7703  143.3423  151.2183 LP  0  0  0  0  0  0  0  0  0  0  0  0  # atno 17343 bound_to 10162
  156.1996  130.6611  151.1153 LP  0  0  0  0  0  0  0  0  0  0  0  0  # atno 17370 bound_to 10713
  157.7103  131.0737  150.6524 LP  0  0  0  0  0  0  0  0  0  0  0  0  # atno 17371 bound_to 10713
  141.2215  133.7265  156.8789 LP  0  0  0  0  0  0  0  0  0  0  0  0  # atno 17394 bound_to 11000
  140.1714  134.9097  157.2838 LP  0  0  0  0  0  0  0  0  0  0  0  0  # atno 17395 bound_to 11000

$$$$
