AV-unprocessed.smi:1056|AV-procd|sdf|4639|dock5
  -GOLD-   22720 3143D 1   1.00000     0.00000
 Structure written by MMmdl.
 44 46  0  0  0  0  0  0  0  0  1 V2000
  153.7222  142.4801  163.5170 C   0  0  0  0  0  0  0  0  0  0  0  0
  153.1999  142.4352  162.0916 C   0  0  0  0  0  0  0  0  0  0  0  0
  152.2475  143.3939  161.6781 C   0  0  0  0  0  0  0  0  0  0  0  0
  151.7378  143.3870  160.3611 C   0  0  0  0  0  0  0  0  0  0  0  0
  150.8148  144.2191  159.7507 N   0  0  0  0  0  0  0  0  0  0  0  0
  150.7592  143.7038  158.5261 C   0  0  0  0  0  0  0  0  0  0  0  0
  151.5374  142.6350  158.2703 N   0  0  0  0  0  0  0  0  0  0  0  0
  151.6408  141.9118  157.0153 C   0  0  0  0  0  0  0  0  0  0  0  0
  150.2657  141.6376  156.3760 C   0  0  1  0  0  0  0  0  0  0  0  0
  150.0903  142.4930  155.2630 O   0  0  0  0  0  0  0  0  0  0  0  0
  150.1449  140.1756  155.8982 C   0  0  0  0  0  0  0  0  0  0  0  0
  150.9761  139.8061  154.7388 N   0  0  0  0  0  0  0  0  0  0  0  0
  150.5264  138.5920  154.0481 C   0  0  0  0  0  0  0  0  0  0  0  0
  150.6828  137.3113  154.8928 C   0  0  0  0  0  0  0  0  0  0  0  0
  151.9455  137.2823  155.6301 N   0  0  0  0  0  0  0  0  0  0  0  0
  152.7566  138.3399  155.8066 C   0  0  0  0  0  0  0  0  0  0  0  0
  153.7776  138.2683  156.4862 O   0  0  0  0  0  0  0  0  0  0  0  0
  152.3944  139.6636  155.1030 C   0  0  0  0  0  0  0  0  0  0  0  0
  152.2093  142.3857  159.4624 C   0  0  0  0  0  0  0  0  0  0  0  0
  153.1571  141.4272  159.8620 C   0  0  0  0  0  0  0  0  0  0  0  0
  153.6566  141.4488  161.1809 C   0  0  0  0  0  0  0  0  0  0  0  0
  154.6812  140.4102  161.6020 C   0  0  0  0  0  0  0  0  0  0  0  0
  153.2909  143.3130  164.0732 H   0  0  0  0  0  0  0  0  0  0  0  0
  154.8059  142.5992  163.5246 H   0  0  0  0  0  0  0  0  0  0  0  0
  153.4704  141.5596  164.0443 H   0  0  0  0  0  0  0  0  0  0  0  0
  151.8993  144.1455  162.3712 H   0  0  0  0  0  0  0  0  0  0  0  0
  150.1161  144.1281  157.7690 H   0  0  0  0  0  0  0  0  0  0  0  0
  152.2756  142.4803  156.3345 H   0  0  0  0  0  0  0  0  0  0  0  0
  152.1583  140.9713  157.2088 H   0  0  0  0  0  0  0  0  0  0  0  0
  149.4995  141.8685  157.1145 H   0  0  0  0  0  0  0  0  0  0  0  0
  149.3535  143.0593  155.4357 H   0  0  0  0  0  0  0  0  0  0  0  0
  150.4054  139.5343  156.7418 H   0  0  0  0  0  0  0  0  0  0  0  0
  149.0970  139.9566  155.6909 H   0  0  0  0  0  0  0  0  0  0  0  0
  149.5019  138.6904  153.6931 H   0  0  0  0  0  0  0  0  0  0  0  0
  151.1205  138.4755  153.1403 H   0  0  0  0  0  0  0  0  0  0  0  0
  149.8681  137.2352  155.6135 H   0  0  0  0  0  0  0  0  0  0  0  0
  150.6172  136.4286  154.2564 H   0  0  0  0  0  0  0  0  0  0  0  0
  152.2004  136.4110  156.0724 H   0  0  0  0  0  0  0  0  0  0  0  0
  152.9964  139.7119  154.1948 H   0  0  0  0  0  0  0  0  0  0  0  0
  152.7214  140.5055  155.7149 H   0  0  0  0  0  0  0  0  0  0  0  0
  153.4988  140.6840  159.1567 H   0  0  0  0  0  0  0  0  0  0  0  0
  154.8997  139.7155  160.7903 H   0  0  0  0  0  0  0  0  0  0  0  0
  154.3129  139.8302  162.4483 H   0  0  0  0  0  0  0  0  0  0  0  0
  155.6154  140.8920  161.8912 H   0  0  0  0  0  0  0  0  0  0  0  0
  1  2  1  0  0  0  0
  1 23  1  0  0  0  0
  1 24  1  0  0  0  0
  1 25  1  0  0  0  0
  2 21  1  0  0  0  0
  2  3  2  0  0  0  0
  3  4  1  0  0  0  0
  3 26  1  0  0  0  0
  4 19  2  0  0  0  0
  4  5  1  0  0  0  0
  5  6  2  0  0  0  0
  6  7  1  0  0  0  0
  6 27  1  0  0  0  0
  7  8  1  0  0  0  0
  7 19  1  0  0  0  0
  8  9  1  0  0  0  0
  8 28  1  0  0  0  0
  8 29  1  0  0  0  0
  9 10  1  0  0  0  0
  9 11  1  0  0  0  0
  9 30  1  0  0  0  0
 10 31  1  0  0  0  0
 11 12  1  0  0  0  0
 11 32  1  0  0  0  0
 11 33  1  0  0  0  0
 12 18  1  0  0  0  0
 12 13  1  0  0  0  0
 13 14  1  0  0  0  0
 13 34  1  0  0  0  0
 13 35  1  0  0  0  0
 14 15  1  0  0  0  0
 14 36  1  0  0  0  0
 14 37  1  0  0  0  0
 15 16  1  0  0  0  0
 15 38  1  0  0  0  0
 16 17  2  0  0  0  0
 16 18  1  0  0  0  0
 18 39  1  0  0  0  0
 18 40  1  0  0  0  0
 19 20  1  0  0  0  0
 20 21  2  0  0  0  0
 20 41  1  0  0  0  0
 21 22  1  0  0  0  0
 22 42  1  0  0  0  0
 22 43  1  0  0  0  0
 22 44  1  0  0  0  0
M  END
> <s_m_source_file>
AV-unprocessed.smi

> <i_m_source_file_index>
1056

> <i_lp_mmshare_version>
43012

> <i_f3d_flags>
0

> <s_epik_input>
W0NIM11jKFtjSF0xKWMoW0NIM10pW2NIXWMoYzEyKW4oW2NIXW4yKVtDSDJdW0NASF0oW09IXSlbQ0gyXU4zW0NIMl1bQ0gyXVtOSF1DKD1PKVtDSDJdMw==

> <s_epik_cmdline>
J2VwaWtfcHl0aG9uJywgJy1waCcsICc3LjAnLCAnLXRuJywgJzgnLCAnLW1hJywgJzIwMCcsICctbWV0YWxfYmluZGluZycsICctaW1hZScsICc8aW5maWxlLm1hZT4nLCAnLW9tYWUnLCAnPG91dGZpbGUubWFlPic=

> <r_epik_Ionization_Penalty>
1.40166

> <r_epik_Ionization_Penalty_Charging>
0

> <r_epik_Ionization_Penalty_Neutral>
1.40166

> <r_epik_State_Penalty>
1.44226

> <r_epik_Charging_Adjusted_Penalty>
1.44226

> <i_epik_Tot_Q>
0

> <i_epik_Tot_abs_Q>
0

> <r_epik_Metal_State_Penalty>
1.50267

> <b_epik_Metal_Only>
0

> <s_lp_Force_Field>
OPLS_2005

> <r_lp_Energy>
31.4444

> <b_lp_Chiralities_Consistent>
1

> <s_lp_Variant>
AV-unprocessed.smi:1056-10

> <Gold.Version>
5.8.1

> <Gold.Id.Protein>
6NUR|6NUR_protein|mol2

> <Gold.PLP.Fitness>
55.2093

> <Gold.PLP.PLP>
-48.1291

> <Gold.PLP.part.hbond>
-4.3269

> <Gold.PLP.part.metal>
0.0000

> <Gold.PLP.part.buried>
-1.2445

> <Gold.PLP.part.nonpolar>
-41.9263

> <Gold.PLP.part.repulsive>
0.2839

> <Gold.PLP.ligand.clash>
0.0000

> <Gold.PLP.ligand.torsion>
1.0366

> <Gold.PLP.Chemscore.Hbond>
2.0300

> <Gold.PLP.Chemscore.CHOScore>
1.0079

> <Gold.PLP.Chemscore.Metal>
0.0000

> <Gold.Chemscore.Hbonds>
donor molecule, donor type, donor heavy atom, donor atom, acceptor molecule, acceptor atom, score
      L1  H    10    31       P1  8028  0.88
      P1  H  7989  7998       L1    12  0.15
      P1  H  7997  8008       L1    17  0.64
      L1  C     6    27       P1  8028  1.00
      L1  C     6    27       P1  8029  0.02

> <Gold.PLP.Chemscore.Internal.Correction>
0.0397

> <Gold.Rescore>
     Score         DG    S(hbond)    S(metal)    S(lipo)     H(rot)  DE(clash)    DE(int)     intcor
     15.40     -17.53       0.97        0.00     125.96       2.31       1.04       1.09       ----

> <Gold.Chemscore.Fitness>
15.4011

> <Gold.Chemscore.DG>
-17.5292

> <Gold.Chemscore.ZeroCoef>
-5.4800

> <Gold.Chemscore.Hbond>
0.9694

> <Gold.Chemscore.Metal>
0.0000

> <Gold.Chemscore.Lipo>
125.9570

> <Gold.Chemscore.Internal_Hbond>
0.0000

> <Gold.Chemscore.DEClash>
1.0365

> <Gold.Chemscore.DEInternal>
1.0915

> <Gold.Chemscore.Rot>
2.3147

> <Gold.Chemscore.Internal.Correction>
   9.000000E+99

> <Gold.Chemscore.Hbonds>
donor molecule, donor type, donor heavy atom, donor atom, acceptor molecule, acceptor atom, score
      L1  H    10    31       P1  8028  0.87
      P1  H  7997  8008       L1    17  0.25

> <Gold.Chemscore.Hbond.Weighted>
-3.2378

> <Gold.Chemscore.Metal.Weighted>
-0.0000

> <Gold.Chemscore.Lipo.Weighted>
-14.7370

> <Gold.Chemscore.Internal_Hbond.Weighted>
0.0000

> <Gold.Chemscore.DEClash.Weighted>
1.0365

> <Gold.Chemscore.DEInternal.Weighted>
1.0915

> <Gold.Chemscore.Rot.Weighted>
5.9256

> <Gold.Chemscore.Internal.Correction.Weighted>
   9.000000E+99

> <Gold.Protein.RotatedTorsions>
[ 6907 6896 6895 6894 ] final  -18.40 input  -60.11 | X-H torsion
[ 7974 7965 7964 7962 ] final  159.52 input  175.53 | X-H torsion
[ 8008 7997 7996 7995 ] final  -52.93 input   59.86 | X-H torsion
[ 10167 10162 10161 10158 ] final   61.96 input  -65.29 | X-H torsion
[ 10718 10713 10712 10709 ] final -148.73 input   66.30 | X-H torsion
[ 10763 10752 10751 10750 ] final  -43.55 input  -60.55 | X-H torsion
[ 11005 11000 10999 10996 ] final   96.93 input  -57.11 | X-H torsion

> <Gold.Protein.ActiveResidues>
 VAL166  LYS551  ARG553  GLY616  TRP617  ASP618  TYR619  PRO620  LYS621  CYS622 
 ASP623  PHE694  ASN695  SER759  ASP760  ASP761  ALA762  ILE779  LEU786  VAL792 
 PHE793  MET794  SER795  GLU796  ALA797  LYS798  CYS799  TRP800  GLU811  SER814 

> <Gold.Protein.RotatedAtoms>
  151.2788  135.0707  159.9161 H   0  0  0  0  0  0  0  0  0  0  0  0  # atno 6907 bound_to 6896
  152.5338  134.0053  159.7924 H   0  0  0  0  0  0  0  0  0  0  0  0  # atno 6908 bound_to 6896
  151.0303  133.5746  159.2692 H   0  0  0  0  0  0  0  0  0  0  0  0  # atno 6909 bound_to 6896
  144.7786  139.7628  143.6269 H   0  0  0  0  0  0  0  0  0  0  0  0  # atno 7974 bound_to 7965
  154.4119  140.1212  156.5071 H   0  0  0  0  0  0  0  0  0  0  0  0  # atno 8008 bound_to 7997
  155.6836  140.3496  155.4846 H   0  0  0  0  0  0  0  0  0  0  0  0  # atno 8009 bound_to 7997
  155.9530  140.1108  157.0951 H   0  0  0  0  0  0  0  0  0  0  0  0  # atno 8010 bound_to 7997
  140.1491  144.4479  150.6769 H   0  0  0  0  0  0  0  0  0  0  0  0  # atno 10167 bound_to 10162
  156.4240  130.8043  151.2267 H   0  0  0  0  0  0  0  0  0  0  0  0  # atno 10718 bound_to 10713
  153.9974  135.6698  153.4757 H   0  0  0  0  0  0  0  0  0  0  0  0  # atno 10763 bound_to 10752
  153.0678  135.4991  154.8234 H   0  0  0  0  0  0  0  0  0  0  0  0  # atno 10764 bound_to 10752
  154.7073  135.3090  154.9213 H   0  0  0  0  0  0  0  0  0  0  0  0  # atno 10765 bound_to 10752
  139.8778  134.8975  156.4232 H   0  0  0  0  0  0  0  0  0  0  0  0  # atno 11005 bound_to 11000
  146.1981  139.5259  142.9761 LP  0  0  0  0  0  0  0  0  0  0  0  0  # atno 17320 bound_to 7965
  145.6115  141.0339  143.1964 LP  0  0  0  0  0  0  0  0  0  0  0  0  # atno 17321 bound_to 7965
  140.6713  143.2287  151.5617 LP  0  0  0  0  0  0  0  0  0  0  0  0  # atno 17342 bound_to 10162
  139.5434  144.2585  152.1396 LP  0  0  0  0  0  0  0  0  0  0  0  0  # atno 17343 bound_to 10162
  157.7508  131.0219  150.3770 LP  0  0  0  0  0  0  0  0  0  0  0  0  # atno 17370 bound_to 10713
  156.4093  130.3931  149.6903 LP  0  0  0  0  0  0  0  0  0  0  0  0  # atno 17371 bound_to 10713
  140.9119  133.7706  155.9802 LP  0  0  0  0  0  0  0  0  0  0  0  0  # atno 17394 bound_to 11000
  140.8537  134.2924  157.5264 LP  0  0  0  0  0  0  0  0  0  0  0  0  # atno 17395 bound_to 11000

$$$$
