AV-unprocessed.smi:999|AV-procd|sdf|4353|dock3
  -GOLD-   22720 2253D 1   1.00000     0.00000
 Structure written by MMmdl.
 37 38  0  0  0  0  0  0  0  0  2 V2000
  148.2739  139.0451  156.6216 C   0  0  0  0  0  0  0  0  0  0  0  0
  148.8336  139.8778  155.4499 C   0  0  2  0  0  0  0  0  0  0  0  0
  150.1770  140.5436  155.7859 C   0  0  0  0  0  0  0  0  0  0  0  0
  151.1758  140.3292  155.0975 O   0  0  0  0  0  0  0  0  0  0  0  0
  150.1815  141.3548  156.8552 N   0  0  0  0  0  0  0  0  0  0  0  0
  151.3364  142.0888  157.3611 C   0  0  2  0  0  0  0  0  0  0  0  0
  151.6613  141.6030  158.7865 C   0  0  0  0  0  0  0  0  0  0  0  0
  152.8154  142.4095  159.4109 C   0  0  0  0  0  0  0  0  0  0  0  0
  152.5346  143.9321  159.4146 C   0  0  2  0  0  0  0  0  0  0  0  0
  151.4362  144.3319  160.4280 C   0  0  0  0  0  0  0  0  0  0  0  0
  150.9668  145.4894  160.3566 O   0  0  0  0  0  0  0  0  0  0  0  0
  151.0967  143.4856  161.2847 O   0  5  0  0  0  0  0  0  0  0  0  0
  152.2187  144.4011  157.9729 C   0  0  0  0  0  0  0  0  0  0  0  0
  151.0624  143.6072  157.3361 C   0  0  0  0  0  0  0  0  0  0  0  0
  147.8836  140.8743  154.9683 N   0  0  0  0  0  0  0  0  0  0  0  0
  147.5151  141.1316  153.6631 C   0  0  0  0  0  0  0  0  0  0  0  0
  146.6347  142.1750  153.6817 C   0  0  0  0  0  0  0  0  0  0  0  0
  146.5347  142.5073  155.0610 C   0  0  0  0  0  0  0  0  0  0  0  0
  147.2894  141.7363  155.8260 N   0  0  0  0  0  0  0  0  0  0  0  0
  148.9850  138.2788  156.9318 H   0  0  0  0  0  0  0  0  0  0  0  0
  147.3538  138.5372  156.3320 H   0  0  0  0  0  0  0  0  0  0  0  0
  148.0513  139.6596  157.4947 H   0  0  0  0  0  0  0  0  0  0  0  0
  149.0122  139.1847  154.6258 H   0  0  0  0  0  0  0  0  0  0  0  0
  149.3153  141.4765  157.3594 H   0  0  0  0  0  0  0  0  0  0  0  0
  152.2012  141.8778  156.7292 H   0  0  0  0  0  0  0  0  0  0  0  0
  150.7745  141.6817  159.4169 H   0  0  0  0  0  0  0  0  0  0  0  0
  151.9264  140.5455  158.7661 H   0  0  0  0  0  0  0  0  0  0  0  0
  153.0232  142.0448  160.4174 H   0  0  0  0  0  0  0  0  0  0  0  0
  153.7264  142.2208  158.8422 H   0  0  0  0  0  0  0  0  0  0  0  0
  153.4398  144.4424  159.7453 H   0  0  0  0  0  0  0  0  0  0  0  0
  151.9985  145.4689  157.9456 H   0  0  0  0  0  0  0  0  0  0  0  0
  153.1113  144.2752  157.3588 H   0  0  0  0  0  0  0  0  0  0  0  0
  150.9152  143.9439  156.3094 H   0  0  0  0  0  0  0  0  0  0  0  0
  150.1324  143.8247  157.8631 H   0  0  0  0  0  0  0  0  0  0  0  0
  147.9067  140.5558  152.8373 H   0  0  0  0  0  0  0  0  0  0  0  0
  146.1421  142.6353  152.8382 H   0  0  0  0  0  0  0  0  0  0  0  0
  145.9449  143.2837  155.5254 H   0  0  0  0  0  0  0  0  0  0  0  0
  1  2  1  0  0  0  0
  1 20  1  0  0  0  0
  1 21  1  0  0  0  0
  1 22  1  0  0  0  0
  2  3  1  0  0  0  0
  2 15  1  0  0  0  0
  2 23  1  0  0  0  0
  3  4  2  0  0  0  0
  3  5  1  0  0  0  0
  5  6  1  0  0  0  0
  5 24  1  0  0  0  0
  6 14  1  0  0  0  0
  6  7  1  0  0  0  0
  6 25  1  0  0  0  0
  7  8  1  0  0  0  0
  7 26  1  0  0  0  0
  7 27  1  0  0  0  0
  8  9  1  0  0  0  0
  8 28  1  0  0  0  0
  8 29  1  0  0  0  0
  9 10  1  0  0  0  0
  9 13  1  0  0  0  0
  9 30  1  0  0  0  0
 10 11  2  0  0  0  0
 10 12  1  0  0  0  0
 13 14  1  0  0  0  0
 13 31  1  0  0  0  0
 13 32  1  0  0  0  0
 14 33  1  0  0  0  0
 14 34  1  0  0  0  0
 15 19  1  0  0  0  0
 15 16  1  0  0  0  0
 16 17  2  0  0  0  0
 16 35  1  0  0  0  0
 17 18  1  0  0  0  0
 17 36  1  0  0  0  0
 18 19  2  0  0  0  0
 18 37  1  0  0  0  0
M  CHG  1  12  -1
M  END
> <s_m_source_file>
AV-unprocessed.smi

> <i_m_source_file_index>
999

> <i_lp_mmshare_version>
43012

> <i_f3d_flags>
0

> <s_epik_input>
bjFbY0hdW2NIXVtjSF1uMVtDQEhdKFtDSDNdKUMoPU8pW05IXVtDQEBIXTJbQ0gyXVtDSDJdW0NAQEhdKEMoPU8pW09IXSlbQ0gyXVtDSDJdMg==

> <s_epik_cmdline>
J2VwaWtfcHl0aG9uJywgJy1waCcsICc3LjAnLCAnLXRuJywgJzgnLCAnLW1hJywgJzIwMCcsICctbWV0YWxfYmluZGluZycsICctaW1hZScsICc8aW5maWxlLm1hZT4nLCAnLW9tYWUnLCAnPG91dGZpbGUubWFlPic=

> <r_lp_tautomer_probability>
1

> <r_epik_Ionization_Penalty>
0.00221712

> <r_epik_Ionization_Penalty_Charging>
0.00217268

> <r_epik_Ionization_Penalty_Neutral>
4.44343e-05

> <r_epik_State_Penalty>
0.0014925

> <r_epik_Charging_Adjusted_Penalty>
0.00366518

> <i_epik_Tot_Q>
-1

> <i_epik_Tot_abs_Q>
1

> <r_epik_Metal_State_Penalty>
-0

> <b_epik_Metal_Only>
0

> <s_lp_Force_Field>
OPLS_2005

> <r_lp_Energy>
7.42219

> <b_lp_Chiralities_Consistent>
1

> <s_lp_Variant>
AV-unprocessed.smi:999-3

> <Gold.Version>
5.8.1

> <Gold.Id.Protein>
6NUR|6NUR_protein|mol2

> <Gold.PLP.Fitness>
43.0127

> <Gold.PLP.PLP>
-37.4913

> <Gold.PLP.part.hbond>
-2.0988

> <Gold.PLP.part.metal>
0.0000

> <Gold.PLP.part.buried>
-4.7511

> <Gold.PLP.part.nonpolar>
-32.0158

> <Gold.PLP.part.repulsive>
0.7449

> <Gold.PLP.ligand.clash>
0.0000

> <Gold.PLP.ligand.torsion>
0.7868

> <Gold.PLP.Chemscore.Hbond>
1.3182

> <Gold.PLP.Chemscore.CHOScore>
1.0000

> <Gold.PLP.Chemscore.Metal>
0.0000

> <Gold.Chemscore.Hbonds>
donor molecule, donor type, donor heavy atom, donor atom, acceptor molecule, acceptor atom, score
      P1  H  6933  6945       L1    12  0.27
      P1  H  7989  7998       L1     4  1.00
      L1  C    16    35       P1  7957  1.00

> <Gold.PLP.Chemscore.Internal.Correction>
0.1404

> <Gold.Rescore>
     Score         DG    S(hbond)    S(metal)    S(lipo)     H(rot)  DE(clash)    DE(int)     intcor
     13.84     -14.69       1.23        0.00      86.93       1.98       0.07       0.77       ----

> <Gold.Chemscore.Fitness>
13.8390

> <Gold.Chemscore.DG>
-14.6868

> <Gold.Chemscore.ZeroCoef>
-5.4800

> <Gold.Chemscore.Hbond>
1.2268

> <Gold.Chemscore.Metal>
0.0000

> <Gold.Chemscore.Lipo>
86.9336

> <Gold.Chemscore.Internal_Hbond>
0.0000

> <Gold.Chemscore.DEClash>
0.0741

> <Gold.Chemscore.DEInternal>
0.7737

> <Gold.Chemscore.Rot>
1.9774

> <Gold.Chemscore.Internal.Correction>
   9.000000E+99

> <Gold.Chemscore.Hbonds>
donor molecule, donor type, donor heavy atom, donor atom, acceptor molecule, acceptor atom, score
      P1  H  6933  6945       L1    12  0.13
      P1  H  7989  7998       L1     4  0.97

> <Gold.Chemscore.Hbond.Weighted>
-4.0976

> <Gold.Chemscore.Metal.Weighted>
-0.0000

> <Gold.Chemscore.Lipo.Weighted>
-10.1712

> <Gold.Chemscore.Internal_Hbond.Weighted>
0.0000

> <Gold.Chemscore.DEClash.Weighted>
0.0741

> <Gold.Chemscore.DEInternal.Weighted>
0.7737

> <Gold.Chemscore.Rot.Weighted>
5.0620

> <Gold.Chemscore.Internal.Correction.Weighted>
   9.000000E+99

> <Gold.Protein.RotatedTorsions>
[ 6907 6896 6895 6894 ] final -102.43 input  -60.11 | X-H torsion
[ 7974 7965 7964 7962 ] final  -55.84 input  175.53 | X-H torsion
[ 8008 7997 7996 7995 ] final   25.64 input   59.86 | X-H torsion
[ 10167 10162 10161 10158 ] final -140.64 input  -65.29 | X-H torsion
[ 10718 10713 10712 10709 ] final -147.18 input   66.30 | X-H torsion
[ 10763 10752 10751 10750 ] final   96.70 input  -60.55 | X-H torsion
[ 11005 11000 10999 10996 ] final -155.02 input  -57.11 | X-H torsion

> <Gold.Protein.ActiveResidues>
 VAL166  LYS551  ARG553  GLY616  TRP617  ASP618  TYR619  PRO620  LYS621  CYS622 
 ASP623  PHE694  ASN695  SER759  ASP760  ASP761  ALA762  ILE779  LEU786  VAL792 
 PHE793  MET794  SER795  GLU796  ALA797  LYS798  CYS799  TRP800  GLU811  SER814 

> <Gold.Protein.RotatedAtoms>
  150.7196  134.0582  159.3821 H   0  0  0  0  0  0  0  0  0  0  0  0  # atno 6907 bound_to 6896
  151.8561  135.0538  160.0473 H   0  0  0  0  0  0  0  0  0  0  0  0  # atno 6908 bound_to 6896
  152.2753  133.5384  159.5501 H   0  0  0  0  0  0  0  0  0  0  0  0  # atno 6909 bound_to 6896
  145.8695  140.8226  142.9895 H   0  0  0  0  0  0  0  0  0  0  0  0  # atno 7974 bound_to 7965
  155.0149  140.3141  155.4815 H   0  0  0  0  0  0  0  0  0  0  0  0  # atno 8008 bound_to 7997
  156.2902  140.2208  156.5207 H   0  0  0  0  0  0  0  0  0  0  0  0  # atno 8009 bound_to 7997
  154.7502  140.0467  157.0875 H   0  0  0  0  0  0  0  0  0  0  0  0  # atno 8010 bound_to 7997
  139.8262  143.7508  152.2666 H   0  0  0  0  0  0  0  0  0  0  0  0  # atno 10167 bound_to 10162
  156.4043  130.7949  151.2162 H   0  0  0  0  0  0  0  0  0  0  0  0  # atno 10718 bound_to 10713
  153.2681  135.4209  155.0961 H   0  0  0  0  0  0  0  0  0  0  0  0  # atno 10763 bound_to 10752
  154.8446  135.3465  154.6283 H   0  0  0  0  0  0  0  0  0  0  0  0  # atno 10764 bound_to 10752
  153.6703  135.7044  153.5206 H   0  0  0  0  0  0  0  0  0  0  0  0  # atno 10765 bound_to 10752
  140.6910  134.4041  157.5219 H   0  0  0  0  0  0  0  0  0  0  0  0  # atno 11005 bound_to 11000
  144.6726  140.1217  143.7449 LP  0  0  0  0  0  0  0  0  0  0  0  0  # atno 17320 bound_to 7965
  145.9153  139.2512  143.1413 LP  0  0  0  0  0  0  0  0  0  0  0  0  # atno 17321 bound_to 7965
  139.7701  144.7479  151.0236 LP  0  0  0  0  0  0  0  0  0  0  0  0  # atno 17342 bound_to 10162
  140.7810  143.4654  151.0219 LP  0  0  0  0  0  0  0  0  0  0  0  0  # atno 17343 bound_to 10162
  157.7505  131.0277  150.4017 LP  0  0  0  0  0  0  0  0  0  0  0  0  # atno 17370 bound_to 10713
  156.4303  130.3970  149.6765 LP  0  0  0  0  0  0  0  0  0  0  0  0  # atno 17371 bound_to 10713
  139.8923  134.8757  156.2276 LP  0  0  0  0  0  0  0  0  0  0  0  0  # atno 17394 bound_to 11000
  141.0241  133.7025  156.1318 LP  0  0  0  0  0  0  0  0  0  0  0  0  # atno 17395 bound_to 11000

$$$$
