AV-unprocessed.smi:3335|AV-procd|sdf|12851|dock6
  -GOLD-   2272019243D 1   1.00000     0.00000
 Structure written by MMmdl.
 46 47  0  0  0  0  0  0  0  0  1 V2000
  152.4672  144.6850  158.5141 C   0  0  0  0  0  0  0  0  0  0  0  0
  151.9497  143.2829  158.3751 C   0  0  0  0  0  0  0  0  0  0  0  0
  151.1038  142.7569  157.3585 C   0  0  0  0  0  0  0  0  0  0  0  0
  150.7970  141.4850  157.5526 N   0  0  0  0  0  0  0  0  0  0  0  0
  151.4565  141.1430  158.6824 N   0  0  0  0  0  0  0  0  0  0  0  0
  151.3137  139.8064  159.2545 C   0  0  2  0  0  0  0  0  0  0  0  0
  152.6934  139.1377  159.4186 C   0  0  0  0  0  0  0  0  0  0  0  0
  150.3103  138.9358  158.4445 C   0  0  1  0  0  0  0  0  0  0  0  0
  150.8514  138.5279  157.0636 C   0  0  0  0  0  0  0  0  0  0  0  0
  150.0454  137.6911  159.1658 N   0  0  0  0  0  0  0  0  0  0  0  0
  148.6427  137.2453  159.0854 C   0  0  1  0  0  0  0  0  0  0  0  0
  148.0736  137.5195  157.6817 C   0  0  0  0  0  0  0  0  0  0  0  0
  148.5281  135.7460  159.4275 C   0  0  0  0  0  0  0  0  0  0  0  0
  149.1102  134.9224  158.7189 O   0  0  0  0  0  0  0  0  0  0  0  0
  147.8072  135.3674  160.5064 N   0  0  0  0  0  0  0  0  0  0  0  0
  147.6986  133.9775  160.9470 C   0  0  0  0  0  0  0  0  0  0  0  0
  147.0249  134.0263  162.3183 C   0  0  0  0  0  0  0  0  0  0  0  0
  146.2149  135.3135  162.2849 C   0  0  0  0  0  0  0  0  0  0  0  0
  147.0309  136.2419  161.3863 C   0  0  0  0  0  0  0  0  0  0  0  0
  152.1604  142.2127  159.1964 C   0  0  0  0  0  0  0  0  0  0  0  0
  151.9488  145.3763  157.8494 H   0  0  0  0  0  0  0  0  0  0  0  0
  153.5299  144.7466  158.2798 H   0  0  0  0  0  0  0  0  0  0  0  0
  152.3371  145.0610  159.5293 H   0  0  0  0  0  0  0  0  0  0  0  0
  150.6877  143.2659  156.5017 H   0  0  0  0  0  0  0  0  0  0  0  0
  150.9074  139.9429  160.2581 H   0  0  0  0  0  0  0  0  0  0  0  0
  152.6312  138.2332  160.0230 H   0  0  0  0  0  0  0  0  0  0  0  0
  153.3944  139.8062  159.9195 H   0  0  0  0  0  0  0  0  0  0  0  0
  153.1248  138.8641  158.4552 H   0  0  0  0  0  0  0  0  0  0  0  0
  149.3879  139.4964  158.2827 H   0  0  0  0  0  0  0  0  0  0  0  0
  150.9927  139.3934  156.4168 H   0  0  0  0  0  0  0  0  0  0  0  0
  150.1562  137.8619  156.5512 H   0  0  0  0  0  0  0  0  0  0  0  0
  151.8083  138.0108  157.1445 H   0  0  0  0  0  0  0  0  0  0  0  0
  150.3363  137.8121  160.1254 H   0  0  0  0  0  0  0  0  0  0  0  0
  148.0633  137.8048  159.8181 H   0  0  0  0  0  0  0  0  0  0  0  0
  147.0428  137.1763  157.5925 H   0  0  0  0  0  0  0  0  0  0  0  0
  148.6569  137.0147  156.9106 H   0  0  0  0  0  0  0  0  0  0  0  0
  148.0787  138.5853  157.4528 H   0  0  0  0  0  0  0  0  0  0  0  0
  147.0812  133.4268  160.2358 H   0  0  0  0  0  0  0  0  0  0  0  0
  148.6719  133.4874  161.0032 H   0  0  0  0  0  0  0  0  0  0  0  0
  146.4144  133.1460  162.5221 H   0  0  0  0  0  0  0  0  0  0  0  0
  147.7845  134.0945  163.0982 H   0  0  0  0  0  0  0  0  0  0  0  0
  145.2433  135.1213  161.8275 H   0  0  0  0  0  0  0  0  0  0  0  0
  146.0415  135.7308  163.2772 H   0  0  0  0  0  0  0  0  0  0  0  0
  147.7122  136.8403  161.9902 H   0  0  0  0  0  0  0  0  0  0  0  0
  146.3810  136.9196  160.8321 H   0  0  0  0  0  0  0  0  0  0  0  0
  152.7313  142.1303  160.1095 H   0  0  0  0  0  0  0  0  0  0  0  0
  1  2  1  0  0  0  0
  1 21  1  0  0  0  0
  1 22  1  0  0  0  0
  1 23  1  0  0  0  0
  2 20  2  0  0  0  0
  2  3  1  0  0  0  0
  3  4  2  0  0  0  0
  3 24  1  0  0  0  0
  4  5  1  0  0  0  0
  5  6  1  0  0  0  0
  5 20  1  0  0  0  0
  6  7  1  0  0  0  0
  6  8  1  0  0  0  0
  6 25  1  0  0  0  0
  7 26  1  0  0  0  0
  7 27  1  0  0  0  0
  7 28  1  0  0  0  0
  8  9  1  0  0  0  0
  8 10  1  0  0  0  0
  8 29  1  0  0  0  0
  9 30  1  0  0  0  0
  9 31  1  0  0  0  0
  9 32  1  0  0  0  0
 10 11  1  0  0  0  0
 10 33  1  0  0  0  0
 11 12  1  0  0  0  0
 11 13  1  0  0  0  0
 11 34  1  0  0  0  0
 12 35  1  0  0  0  0
 12 36  1  0  0  0  0
 12 37  1  0  0  0  0
 13 14  2  0  0  0  0
 13 15  1  0  0  0  0
 15 19  1  0  0  0  0
 15 16  1  0  0  0  0
 16 17  1  0  0  0  0
 16 38  1  0  0  0  0
 16 39  1  0  0  0  0
 17 18  1  0  0  0  0
 17 40  1  0  0  0  0
 17 41  1  0  0  0  0
 18 19  1  0  0  0  0
 18 42  1  0  0  0  0
 18 43  1  0  0  0  0
 19 44  1  0  0  0  0
 19 45  1  0  0  0  0
 20 46  1  0  0  0  0
M  END
> <s_m_source_file>
AV-unprocessed.smi

> <i_m_source_file_index>
3335

> <i_lp_mmshare_version>
43012

> <i_f3d_flags>
0

> <s_epik_input>
W0NIM11jMVtjSF1ubihbY0hdMSlbQ0BIXShbQ0gzXSlbQ0BIXShbQ0gzXSlbTkhdW0NASF0oW0NIM10pQyg9TylOMltDSDJdW0NIMl1bQ0gyXVtDSDJdMg==

> <s_epik_cmdline>
J2VwaWtfcHl0aG9uJywgJy1waCcsICc3LjAnLCAnLXRuJywgJzgnLCAnLW1hJywgJzIwMCcsICctbWV0YWxfYmluZGluZycsICctaW1hZScsICc8aW5maWxlLm1hZT4nLCAnLW9tYWUnLCAnPG91dGZpbGUubWFlPic=

> <r_lp_tautomer_probability>
1

> <r_epik_Ionization_Penalty>
0.918803

> <r_epik_Ionization_Penalty_Charging>
0

> <r_epik_Ionization_Penalty_Neutral>
0.918803

> <r_epik_State_Penalty>
0.958258

> <r_epik_Charging_Adjusted_Penalty>
0.958258

> <i_epik_Tot_Q>
0

> <i_epik_Tot_abs_Q>
0

> <r_epik_Metal_State_Penalty>
0.956786

> <b_epik_Metal_Only>
0

> <s_lp_Force_Field>
OPLS_2005

> <r_lp_Energy>
36.8756

> <b_lp_Chiralities_Consistent>
1

> <s_lp_Variant>
AV-unprocessed.smi:3335-15

> <Gold.Version>
5.8.1

> <Gold.Id.Protein>
6NUR|6NUR_protein|mol2

> <Gold.PLP.Fitness>
44.1253

> <Gold.PLP.PLP>
-39.6027

> <Gold.PLP.part.hbond>
-1.3008

> <Gold.PLP.part.metal>
0.0000

> <Gold.PLP.part.buried>
-5.6906

> <Gold.PLP.part.nonpolar>
-32.9098

> <Gold.PLP.part.repulsive>
0.0433

> <Gold.PLP.ligand.clash>
0.0000

> <Gold.PLP.ligand.torsion>
0.8066

> <Gold.PLP.Chemscore.Hbond>
1.0000

> <Gold.PLP.Chemscore.CHOScore>
1.0000

> <Gold.PLP.Chemscore.Metal>
0.0000

> <Gold.Chemscore.Hbonds>
donor molecule, donor type, donor heavy atom, donor atom, acceptor molecule, acceptor atom, score
      P1  H  6896  6908       L1    14  1.00
      L1  C     3    24       P1  8028  1.00

> <Gold.PLP.Chemscore.Internal.Correction>
0.1357

> <Gold.Rescore>
     Score         DG    S(hbond)    S(metal)    S(lipo)     H(rot)  DE(clash)    DE(int)     intcor
     15.83     -16.80       0.99        0.00     103.78       1.62       0.00       0.96       ----

> <Gold.Chemscore.Fitness>
15.8309

> <Gold.Chemscore.DG>
-16.7960

> <Gold.Chemscore.ZeroCoef>
-5.4800

> <Gold.Chemscore.Hbond>
0.9945

> <Gold.Chemscore.Metal>
0.0000

> <Gold.Chemscore.Lipo>
103.7824

> <Gold.Chemscore.Internal_Hbond>
0.0000

> <Gold.Chemscore.DEClash>
0.0030

> <Gold.Chemscore.DEInternal>
0.9621

> <Gold.Chemscore.Rot>
1.6204

> <Gold.Chemscore.Internal.Correction>
   9.000000E+99

> <Gold.Chemscore.Hbonds>
donor molecule, donor type, donor heavy atom, donor atom, acceptor molecule, acceptor atom, score
      P1  H  6896  6908       L1    14  0.92

> <Gold.Chemscore.Hbond.Weighted>
-3.3217

> <Gold.Chemscore.Metal.Weighted>
-0.0000

> <Gold.Chemscore.Lipo.Weighted>
-12.1425

> <Gold.Chemscore.Internal_Hbond.Weighted>
0.0000

> <Gold.Chemscore.DEClash.Weighted>
0.0030

> <Gold.Chemscore.DEInternal.Weighted>
0.9621

> <Gold.Chemscore.Rot.Weighted>
4.1482

> <Gold.Chemscore.Internal.Correction.Weighted>
   9.000000E+99

> <Gold.Protein.RotatedTorsions>
[ 6907 6896 6895 6894 ] final  145.18 input  -60.11 | X-H torsion
[ 7974 7965 7964 7962 ] final  172.83 input  175.53 | X-H torsion
[ 8008 7997 7996 7995 ] final -153.69 input   59.86 | X-H torsion
[ 10167 10162 10161 10158 ] final  -10.32 input  -65.29 | X-H torsion
[ 10718 10713 10712 10709 ] final   71.69 input   66.30 | X-H torsion
[ 10763 10752 10751 10750 ] final   13.49 input  -60.55 | X-H torsion
[ 11005 11000 10999 10996 ] final   26.96 input  -57.11 | X-H torsion

> <Gold.Protein.ActiveResidues>
 VAL166  LYS551  ARG553  GLY616  TRP617  ASP618  TYR619  PRO620  LYS621  CYS622 
 ASP623  PHE694  ASN695  SER759  ASP760  ASP761  ALA762  ILE779  LEU786  VAL792 
 PHE793  MET794  SER795  GLU796  ALA797  LYS798  CYS799  TRP800  GLU811  SER814 

> <Gold.Protein.RotatedAtoms>
  152.1841  133.4728  159.4973 H   0  0  0  0  0  0  0  0  0  0  0  0  # atno 6907 bound_to 6896
  150.6939  134.1795  159.4252 H   0  0  0  0  0  0  0  0  0  0  0  0  # atno 6908 bound_to 6896
  151.9708  135.0077  160.0603 H   0  0  0  0  0  0  0  0  0  0  0  0  # atno 6909 bound_to 6896
  144.7258  139.9557  143.6433 H   0  0  0  0  0  0  0  0  0  0  0  0  # atno 7974 bound_to 7965
  155.6748  140.0737  157.2506 H   0  0  0  0  0  0  0  0  0  0  0  0  # atno 8008 bound_to 7997
  154.4116  140.1692  156.1970 H   0  0  0  0  0  0  0  0  0  0  0  0  # atno 8009 bound_to 7997
  155.9585  140.3371  155.6473 H   0  0  0  0  0  0  0  0  0  0  0  0  # atno 8010 bound_to 7997
  140.7110  143.5761  150.9041 H   0  0  0  0  0  0  0  0  0  0  0  0  # atno 10167 bound_to 10162
  157.6464  130.9541  150.0825 H   0  0  0  0  0  0  0  0  0  0  0  0  # atno 10718 bound_to 10713
  153.1716  135.6813  153.8600 H   0  0  0  0  0  0  0  0  0  0  0  0  # atno 10763 bound_to 10752
  153.7962  135.3162  155.3386 H   0  0  0  0  0  0  0  0  0  0  0  0  # atno 10764 bound_to 10752
  154.8002  135.4783  154.0349 H   0  0  0  0  0  0  0  0  0  0  0  0  # atno 10765 bound_to 10752
  140.3314  134.2433  155.7702 H   0  0  0  0  0  0  0  0  0  0  0  0  # atno 11005 bound_to 11000
  146.0676  139.3666  143.0543 LP  0  0  0  0  0  0  0  0  0  0  0  0  # atno 17320 bound_to 7965
  145.8010  140.9771  143.0999 LP  0  0  0  0  0  0  0  0  0  0  0  0  # atno 17321 bound_to 7965
  139.9487  143.6297  152.3035 LP  0  0  0  0  0  0  0  0  0  0  0  0  # atno 17342 bound_to 10162
  139.6808  144.7655  151.1612 LP  0  0  0  0  0  0  0  0  0  0  0  0  # atno 17343 bound_to 10162
  156.1797  130.3649  149.9052 LP  0  0  0  0  0  0  0  0  0  0  0  0  # atno 17370 bound_to 10713
  156.7007  130.8932  151.3599 LP  0  0  0  0  0  0  0  0  0  0  0  0  # atno 17371 bound_to 10713
  141.2062  133.7839  157.0189 LP  0  0  0  0  0  0  0  0  0  0  0  0  # atno 17394 bound_to 11000
  140.0857  134.9622  157.1696 LP  0  0  0  0  0  0  0  0  0  0  0  0  # atno 17395 bound_to 11000

$$$$
