AV-unprocessed.smi:532|AV-procd|sdf|2848|dock7
  -GOLD-   2262023343D 1   1.00000     0.00000
 Structure written by MMmdl.
 49 51  0  0  0  0  0  0  0  0  1 V2000
  158.4829  140.2642  161.3742 C   0  0  0  0  0  0  0  0  0  0  0  0
  157.0851  140.4844  161.4436 O   0  0  0  0  0  0  0  0  0  0  0  0
  156.3910  139.3900  162.0171 C   0  0  0  0  0  0  0  0  0  0  0  0
  154.8810  139.6652  161.9293 C   0  0  0  0  0  0  0  0  0  0  0  0
  154.3593  139.4862  160.5775 N   0  0  0  0  0  0  0  0  0  0  0  0
  153.7478  140.3863  159.7513 C   0  0  0  0  0  0  0  0  0  0  0  0
  153.5316  141.7320  160.0839 N   0  0  0  0  0  0  0  0  0  0  0  0
  153.0902  142.7332  159.1097 C   0  0  0  0  0  0  0  0  0  0  0  0
  151.8527  143.5099  159.6013 C   0  0  2  0  0  0  0  0  0  0  0  0
  151.3681  144.5163  158.5489 C   0  0  0  0  0  0  0  0  0  0  0  0
  152.1632  144.1997  160.9399 C   0  0  0  0  0  0  0  0  0  0  0  0
  152.7238  143.1833  161.9473 C   0  0  2  0  0  0  0  0  0  0  0  0
  153.1271  143.8556  163.2662 C   0  0  0  0  0  0  0  0  0  0  0  0
  153.9110  142.4284  161.3157 C   0  0  0  0  0  0  0  0  0  0  0  0
  153.3358  139.8650  158.5904 N   0  0  0  0  0  0  0  0  0  0  0  0
  153.7245  138.5388  158.6710 C   0  0  0  0  0  0  0  0  0  0  0  0
  154.3324  138.2892  159.8569 C   0  0  0  0  0  0  0  0  0  0  0  0
  154.8197  136.9508  160.2219 C   0  0  0  0  0  0  0  0  0  0  0  0
  155.3546  136.6921  161.2977 O   0  0  0  0  0  0  0  0  0  0  0  0
  154.6171  136.0270  159.2514 N   0  0  0  0  0  0  0  0  0  0  0  0
  154.0214  136.2160  158.0348 C   0  0  0  0  0  0  0  0  0  0  0  0
  153.9132  135.2742  157.2498 O   0  0  0  0  0  0  0  0  0  0  0  0
  153.5623  137.4739  157.7394 N   0  0  0  0  0  0  0  0  0  0  0  0
  152.9122  137.7335  156.4534 C   0  0  0  0  0  0  0  0  0  0  0  0
  154.9404  135.0914  159.4497 H   0  0  0  0  0  0  0  0  0  0  0  0
  158.9689  141.1316  160.9275 H   0  0  0  0  0  0  0  0  0  0  0  0
  158.7148  139.3944  160.7581 H   0  0  0  0  0  0  0  0  0  0  0  0
  158.9085  140.1135  162.3672 H   0  0  0  0  0  0  0  0  0  0  0  0
  156.6519  138.4697  161.4945 H   0  0  0  0  0  0  0  0  0  0  0  0
  156.6976  139.2599  163.0552 H   0  0  0  0  0  0  0  0  0  0  0  0
  154.3405  139.0002  162.6026 H   0  0  0  0  0  0  0  0  0  0  0  0
  154.6478  140.6657  162.2833 H   0  0  0  0  0  0  0  0  0  0  0  0
  153.9125  143.4190  158.9002 H   0  0  0  0  0  0  0  0  0  0  0  0
  152.8498  142.2471  158.1637 H   0  0  0  0  0  0  0  0  0  0  0  0
  151.0477  142.7917  159.7662 H   0  0  0  0  0  0  0  0  0  0  0  0
  152.1324  145.2640  158.3346 H   0  0  0  0  0  0  0  0  0  0  0  0
  150.4751  145.0408  158.8898 H   0  0  0  0  0  0  0  0  0  0  0  0
  151.1200  144.0159  157.6127 H   0  0  0  0  0  0  0  0  0  0  0  0
  152.8895  144.9983  160.7817 H   0  0  0  0  0  0  0  0  0  0  0  0
  151.2638  144.6697  161.3395 H   0  0  0  0  0  0  0  0  0  0  0  0
  151.9348  142.4653  162.1731 H   0  0  0  0  0  0  0  0  0  0  0  0
  153.9204  144.5877  163.1118 H   0  0  0  0  0  0  0  0  0  0  0  0
  153.4878  143.1197  163.9855 H   0  0  0  0  0  0  0  0  0  0  0  0
  152.2802  144.3717  163.7192 H   0  0  0  0  0  0  0  0  0  0  0  0
  154.3417  141.7371  162.0328 H   0  0  0  0  0  0  0  0  0  0  0  0
  154.7114  143.1324  161.0831 H   0  0  0  0  0  0  0  0  0  0  0  0
  152.0887  137.0376  156.2874 H   0  0  0  0  0  0  0  0  0  0  0  0
  153.6266  137.6165  155.6376 H   0  0  0  0  0  0  0  0  0  0  0  0
  152.5006  138.7404  156.3879 H   0  0  0  0  0  0  0  0  0  0  0  0
  1  2  1  0  0  0  0
  1 26  1  0  0  0  0
  1 27  1  0  0  0  0
  1 28  1  0  0  0  0
  2  3  1  0  0  0  0
  3  4  1  0  0  0  0
  3 29  1  0  0  0  0
  3 30  1  0  0  0  0
  4  5  1  0  0  0  0
  4 31  1  0  0  0  0
  4 32  1  0  0  0  0
  5 17  1  0  0  0  0
  5  6  1  0  0  0  0
  6  7  1  0  0  0  0
  6 15  2  0  0  0  0
  7 14  1  0  0  0  0
  7  8  1  0  0  0  0
  8  9  1  0  0  0  0
  8 33  1  0  0  0  0
  8 34  1  0  0  0  0
  9 10  1  0  0  0  0
  9 11  1  0  0  0  0
  9 35  1  0  0  0  0
 10 36  1  0  0  0  0
 10 37  1  0  0  0  0
 10 38  1  0  0  0  0
 11 12  1  0  0  0  0
 11 39  1  0  0  0  0
 11 40  1  0  0  0  0
 12 13  1  0  0  0  0
 12 14  1  0  0  0  0
 12 41  1  0  0  0  0
 13 42  1  0  0  0  0
 13 43  1  0  0  0  0
 13 44  1  0  0  0  0
 14 45  1  0  0  0  0
 14 46  1  0  0  0  0
 15 16  1  0  0  0  0
 16 23  1  0  0  0  0
 16 17  2  0  0  0  0
 17 18  1  0  0  0  0
 18 19  2  0  0  0  0
 18 20  1  0  0  0  0
 20 25  1  0  0  0  0
 20 21  1  0  0  0  0
 21 22  2  0  0  0  0
 21 23  1  0  0  0  0
 23 24  1  0  0  0  0
 24 47  1  0  0  0  0
 24 48  1  0  0  0  0
 24 49  1  0  0  0  0
M  END
> <s_m_source_file>
AV-unprocessed.smi

> <i_m_source_file_index>
532

> <i_lp_mmshare_version>
43012

> <i_f3d_flags>
0

> <s_epik_input>
W0NIM11uMWMoPU8pW25IXWMoPU8pYyhjMTIpbihbQ0gyXVtDSDJdT1tDSDNdKWMobjIpTjNbQ0gyXVtDQEBIXShbQ0gzXSlbQ0gyXVtDQEBIXShbQ0gzXSlbQ0gyXTM=

> <s_epik_cmdline>
J2VwaWtfcHl0aG9uJywgJy1waCcsICc3LjAnLCAnLXRuJywgJzgnLCAnLW1hJywgJzIwMCcsICctbWV0YWxfYmluZGluZycsICctaW1hZScsICc8aW5maWxlLm1hZT4nLCAnLW9tYWUnLCAnPG91dGZpbGUubWFlPic=

> <r_lp_tautomer_probability>
1

> <r_epik_Ionization_Penalty>
0.000642525

> <r_epik_Ionization_Penalty_Charging>
0.000121571

> <r_epik_Ionization_Penalty_Neutral>
0.000520954

> <r_epik_State_Penalty>
-0

> <r_epik_Charging_Adjusted_Penalty>
0.000121571

> <i_epik_Tot_Q>
0

> <i_epik_Tot_abs_Q>
0

> <r_epik_Metal_State_Penalty>
0.0931709

> <b_epik_Metal_Only>
0

> <s_lp_Force_Field>
OPLS_2005

> <r_lp_Energy>
38.055

> <b_lp_Chiralities_Consistent>
1

> <s_lp_Variant>
AV-unprocessed.smi:532-1

> <Gold.Version>
5.8.1

> <Gold.Id.Protein>
6NUR|6NUR_protein|mol2

> <Gold.PLP.Fitness>
47.2067

> <Gold.PLP.PLP>
-43.1252

> <Gold.PLP.part.hbond>
-3.0000

> <Gold.PLP.part.metal>
0.0000

> <Gold.PLP.part.buried>
-2.9422

> <Gold.PLP.part.nonpolar>
-36.6908

> <Gold.PLP.part.repulsive>
0.0906

> <Gold.PLP.ligand.clash>
0.2621

> <Gold.PLP.ligand.torsion>
0.1020

> <Gold.PLP.Chemscore.Hbond>
1.5000

> <Gold.PLP.Chemscore.CHOScore>
0.0000

> <Gold.PLP.Chemscore.Metal>
0.0000

> <Gold.Chemscore.Hbonds>
donor molecule, donor type, donor heavy atom, donor atom, acceptor molecule, acceptor atom, score
      P1  H  7997  8009       L1    15  0.25
      P1  H 10752 10764       L1    22  1.00

> <Gold.PLP.Chemscore.Internal.Correction>
0.0477

> <Gold.Rescore>
     Score         DG    S(hbond)    S(metal)    S(lipo)     H(rot)  DE(clash)    DE(int)     intcor
     15.94     -18.71       1.28        0.00     107.90       1.43       0.27       2.50       ----

> <Gold.Chemscore.Fitness>
15.9439

> <Gold.Chemscore.DG>
-18.7058

> <Gold.Chemscore.ZeroCoef>
-5.4800

> <Gold.Chemscore.Hbond>
1.2778

> <Gold.Chemscore.Metal>
0.0000

> <Gold.Chemscore.Lipo>
107.9048

> <Gold.Chemscore.Internal_Hbond>
0.0000

> <Gold.Chemscore.DEClash>
0.2667

> <Gold.Chemscore.DEInternal>
2.4952

> <Gold.Chemscore.Rot>
1.4324

> <Gold.Chemscore.Internal.Correction>
   9.000000E+99

> <Gold.Chemscore.Hbonds>
donor molecule, donor type, donor heavy atom, donor atom, acceptor molecule, acceptor atom, score
      P1  H 10752 10764       L1    22  1.00

> <Gold.Chemscore.Hbond.Weighted>
-4.2678

> <Gold.Chemscore.Metal.Weighted>
-0.0000

> <Gold.Chemscore.Lipo.Weighted>
-12.6249

> <Gold.Chemscore.Internal_Hbond.Weighted>
0.0000

> <Gold.Chemscore.DEClash.Weighted>
0.2667

> <Gold.Chemscore.DEInternal.Weighted>
2.4952

> <Gold.Chemscore.Rot.Weighted>
3.6669

> <Gold.Chemscore.Internal.Correction.Weighted>
   9.000000E+99

> <Gold.Protein.RotatedTorsions>
[ 6907 6896 6895 6894 ] final   89.93 input  -60.11 | X-H torsion
[ 7974 7965 7964 7962 ] final -142.14 input  175.53 | X-H torsion
[ 8008 7997 7996 7995 ] final  139.05 input   59.86 | X-H torsion
[ 10167 10162 10161 10158 ] final   78.99 input  -65.29 | X-H torsion
[ 10718 10713 10712 10709 ] final   10.66 input   66.30 | X-H torsion
[ 10763 10752 10751 10750 ] final   26.14 input  -60.55 | X-H torsion
[ 11005 11000 10999 10996 ] final   46.69 input  -57.11 | X-H torsion

> <Gold.Protein.ActiveResidues>
 VAL166  LYS551  ARG553  GLY616  TRP617  ASP618  TYR619  PRO620  LYS621  CYS622 
 ASP623  PHE694  ASN695  SER759  ASP760  ASP761  ALA762  ILE779  LEU786  VAL792 
 PHE793  MET794  SER795  GLU796  ALA797  LYS798  CYS799  TRP800  GLU811  SER814 

> <Gold.Protein.RotatedAtoms>
  152.5440  134.1891  159.8666 H   0  0  0  0  0  0  0  0  0  0  0  0  # atno 6907 bound_to 6896
  151.1887  133.4673  159.2602 H   0  0  0  0  0  0  0  0  0  0  0  0  # atno 6908 bound_to 6896
  151.1104  135.0035  159.8547 H   0  0  0  0  0  0  0  0  0  0  0  0  # atno 6909 bound_to 6896
  144.8466  140.5994  143.5418 H   0  0  0  0  0  0  0  0  0  0  0  0  # atno 7974 bound_to 7965
  156.2993  140.2377  156.4174 H   0  0  0  0  0  0  0  0  0  0  0  0  # atno 8008 bound_to 7997
  154.8386  140.0429  157.1546 H   0  0  0  0  0  0  0  0  0  0  0  0  # atno 8009 bound_to 7997
  154.9127  140.2992  155.5261 H   0  0  0  0  0  0  0  0  0  0  0  0  # atno 8010 bound_to 7997
  139.9651  144.5934  150.8036 H   0  0  0  0  0  0  0  0  0  0  0  0  # atno 10167 bound_to 10162
  156.9842  130.6017  149.5679 H   0  0  0  0  0  0  0  0  0  0  0  0  # atno 10718 bound_to 10713
  153.0643  135.6567  154.0391 H   0  0  0  0  0  0  0  0  0  0  0  0  # atno 10763 bound_to 10752
  154.0052  135.2933  155.3400 H   0  0  0  0  0  0  0  0  0  0  0  0  # atno 10764 bound_to 10752
  154.6994  135.5251  153.8573 H   0  0  0  0  0  0  0  0  0  0  0  0  # atno 10765 bound_to 10752
  140.1346  134.4661  155.8495 H   0  0  0  0  0  0  0  0  0  0  0  0  # atno 11005 bound_to 11000
  145.4585  139.1515  143.3879 LP  0  0  0  0  0  0  0  0  0  0  0  0  # atno 17320 bound_to 7965
  146.2749  140.4714  142.8799 LP  0  0  0  0  0  0  0  0  0  0  0  0  # atno 17321 bound_to 7965
  140.7540  143.3020  151.3057 LP  0  0  0  0  0  0  0  0  0  0  0  0  # atno 17342 bound_to 10162
  139.6524  144.0338  152.2636 LP  0  0  0  0  0  0  0  0  0  0  0  0  # atno 17343 bound_to 10162
  156.0232  130.5327  150.8335 LP  0  0  0  0  0  0  0  0  0  0  0  0  # atno 17370 bound_to 10713
  157.5505  131.0943  150.9703 LP  0  0  0  0  0  0  0  0  0  0  0  0  # atno 17371 bound_to 10713
  141.2176  133.6809  156.7133 LP  0  0  0  0  0  0  0  0  0  0  0  0  # atno 17394 bound_to 11000
  140.2799  134.8325  157.3923 LP  0  0  0  0  0  0  0  0  0  0  0  0  # atno 17395 bound_to 11000

$$$$
