AV-unprocessed.smi:3141|AV-procd|sdf|11966|dock3
  -GOLD-   2272017363D 1   1.00000     0.00000
 Structure written by MMmdl.
 35 37  0  0  0  0  0  0  0  0  1 V2000
  151.3173  141.2565  156.4994 O   0  0  0  0  0  0  0  0  0  0  0  0
  150.5720  142.2341  156.4284 C   0  0  0  0  0  0  0  0  0  0  0  0
  150.6548  143.3053  157.2283 N   0  0  0  0  0  0  0  0  0  0  0  0
  151.6092  143.4835  158.2739 C   0  0  0  0  0  0  0  0  0  0  0  0
  151.4111  144.6504  159.2175 C   0  0  0  0  0  0  0  0  0  0  0  0
  152.5148  144.6938  158.1972 C   0  0  0  0  0  0  0  0  0  0  0  0
  149.5738  142.3532  155.5422 N   0  0  0  0  0  0  0  0  0  0  0  0
  149.2146  141.3441  154.5494 C   0  0  2  0  0  0  0  0  0  0  0  0
  147.9187  141.7439  153.8184 C   0  0  0  0  0  0  0  0  0  0  0  0
  146.8441  140.7582  154.2815 C   0  0  0  0  0  0  0  0  0  0  0  0
  147.6155  139.4769  154.5799 C   0  0  0  0  0  0  0  0  0  0  0  0
  148.9204  139.9763  155.2114 C   0  0  1  0  0  0  0  0  0  0  0  0
  150.0171  139.0277  155.0942 N   0  0  0  0  0  0  0  0  0  0  0  0
  150.4330  138.3797  153.9381 C   0  0  0  0  0  0  0  0  0  0  0  0
  151.4910  137.5746  154.2943 C   0  0  0  0  0  0  0  0  0  0  0  0
  151.7441  137.7086  155.6571 N   0  0  0  0  0  0  0  0  0  0  0  0
  150.8319  138.5823  156.0626 C   0  0  0  0  0  0  0  0  0  0  0  0
  149.9934  144.0546  157.0866 H   0  0  0  0  0  0  0  0  0  0  0  0
  152.0486  142.5864  158.7079 H   0  0  0  0  0  0  0  0  0  0  0  0
  150.5513  145.2975  159.0549 H   0  0  0  0  0  0  0  0  0  0  0  0
  151.6950  144.5073  160.2582 H   0  0  0  0  0  0  0  0  0  0  0  0
  153.5356  144.5796  158.5567 H   0  0  0  0  0  0  0  0  0  0  0  0
  152.3915  145.3710  157.3541 H   0  0  0  0  0  0  0  0  0  0  0  0
  149.0155  143.1941  155.5608 H   0  0  0  0  0  0  0  0  0  0  0  0
  150.0141  141.2685  153.8097 H   0  0  0  0  0  0  0  0  0  0  0  0
  147.6237  142.7798  153.9918 H   0  0  0  0  0  0  0  0  0  0  0  0
  148.0663  141.6313  152.7434 H   0  0  0  0  0  0  0  0  0  0  0  0
  146.3760  141.1261  155.1954 H   0  0  0  0  0  0  0  0  0  0  0  0
  146.0589  140.6135  153.5391 H   0  0  0  0  0  0  0  0  0  0  0  0
  147.0659  138.8004  155.2352 H   0  0  0  0  0  0  0  0  0  0  0  0
  147.8103  138.9495  153.6452 H   0  0  0  0  0  0  0  0  0  0  0  0
  148.7243  140.1285  156.2747 H   0  0  0  0  0  0  0  0  0  0  0  0
  149.9526  138.5373  152.9838 H   0  0  0  0  0  0  0  0  0  0  0  0
  152.0837  136.9135  153.6795 H   0  0  0  0  0  0  0  0  0  0  0  0
  150.7534  138.9048  157.0905 H   0  0  0  0  0  0  0  0  0  0  0  0
  1  2  2  0  0  0  0
  2  3  1  0  0  0  0
  2  7  1  0  0  0  0
  3  4  1  0  0  0  0
  3 18  1  0  0  0  0
  4  6  1  0  0  0  0
  4  5  1  0  0  0  0
  4 19  1  0  0  0  0
  5  6  1  0  0  0  0
  5 20  1  0  0  0  0
  5 21  1  0  0  0  0
  6 22  1  0  0  0  0
  6 23  1  0  0  0  0
  7  8  1  0  0  0  0
  7 24  1  0  0  0  0
  8 12  1  0  0  0  0
  8  9  1  0  0  0  0
  8 25  1  0  0  0  0
  9 10  1  0  0  0  0
  9 26  1  0  0  0  0
  9 27  1  0  0  0  0
 10 11  1  0  0  0  0
 10 28  1  0  0  0  0
 10 29  1  0  0  0  0
 11 12  1  0  0  0  0
 11 30  1  0  0  0  0
 11 31  1  0  0  0  0
 12 13  1  0  0  0  0
 12 32  1  0  0  0  0
 13 17  1  0  0  0  0
 13 14  1  0  0  0  0
 14 15  2  0  0  0  0
 14 33  1  0  0  0  0
 15 16  1  0  0  0  0
 15 34  1  0  0  0  0
 16 17  2  0  0  0  0
 17 35  1  0  0  0  0
M  END
> <s_m_source_file>
AV-unprocessed.smi

> <i_m_source_file_index>
3141

> <i_lp_mmshare_version>
43012

> <i_f3d_flags>
0

> <s_epik_input>
W0NIMl0xW0NIMl1bQ0hdMVtOSF1DKD1PKVtOSF1bQ0BASF0yW0NIMl1bQ0gyXVtDSDJdW0NASF0ybjNbY0hdW2NIXW5bY0hdMw==

> <s_epik_cmdline>
J2VwaWtfcHl0aG9uJywgJy1waCcsICc3LjAnLCAnLXRuJywgJzgnLCAnLW1hJywgJzIwMCcsICctbWV0YWxfYmluZGluZycsICctaW1hZScsICc8aW5maWxlLm1hZT4nLCAnLW9tYWUnLCAnPG91dGZpbGUubWFlPic=

> <r_lp_tautomer_probability>
1

> <r_epik_Ionization_Penalty>
0.728419

> <r_epik_Ionization_Penalty_Charging>
0.728357

> <r_epik_Ionization_Penalty_Neutral>
6.27871e-05

> <r_epik_State_Penalty>
0.753408

> <r_epik_Charging_Adjusted_Penalty>
1.48176

> <i_epik_Tot_Q>
0

> <i_epik_Tot_abs_Q>
0

> <r_epik_Metal_State_Penalty>
0.332413

> <b_epik_Metal_Only>
0

> <s_lp_Force_Field>
OPLS_2005

> <r_lp_Energy>
34.1677

> <b_lp_Chiralities_Consistent>
1

> <s_lp_Variant>
AV-unprocessed.smi:3141-5

> <Gold.Version>
5.8.1

> <Gold.Id.Protein>
6NUR|6NUR_protein|mol2

> <Gold.PLP.Fitness>
46.1879

> <Gold.PLP.PLP>
-33.7896

> <Gold.PLP.part.hbond>
-1.8570

> <Gold.PLP.part.metal>
0.0000

> <Gold.PLP.part.buried>
-3.3349

> <Gold.PLP.part.nonpolar>
-29.5696

> <Gold.PLP.part.repulsive>
0.2469

> <Gold.PLP.ligand.clash>
0.0000

> <Gold.PLP.ligand.torsion>
0.2802

> <Gold.PLP.Chemscore.Hbond>
1.8320

> <Gold.PLP.Chemscore.CHOScore>
2.4738

> <Gold.PLP.Chemscore.Metal>
0.0000

> <Gold.Chemscore.Hbonds>
donor molecule, donor type, donor heavy atom, donor atom, acceptor molecule, acceptor atom, score
      L1  H     3    18       P1  8028  0.78
      L1  H     7    24       P1  8028  0.99
      L1  C    14    33       P1  7948  0.39
      L1  C    14    33       P1  7957  1.00
      L1  C    15    34       P1  7949  0.81

> <Gold.PLP.Chemscore.Internal.Correction>
0.0414

> <Gold.Rescore>
     Score         DG    S(hbond)    S(metal)    S(lipo)     H(rot)  DE(clash)    DE(int)     intcor
     13.87     -17.17       1.70        0.00      85.83       1.57       0.20       3.10       ----

> <Gold.Chemscore.Fitness>
13.8658

> <Gold.Chemscore.DG>
-17.1680

> <Gold.Chemscore.ZeroCoef>
-5.4800

> <Gold.Chemscore.Hbond>
1.6966

> <Gold.Chemscore.Metal>
0.0000

> <Gold.Chemscore.Lipo>
85.8301

> <Gold.Chemscore.Internal_Hbond>
0.0000

> <Gold.Chemscore.DEClash>
0.2014

> <Gold.Chemscore.DEInternal>
3.1008

> <Gold.Chemscore.Rot>
1.5705

> <Gold.Chemscore.Internal.Correction>
   9.000000E+99

> <Gold.Chemscore.Hbonds>
donor molecule, donor type, donor heavy atom, donor atom, acceptor molecule, acceptor atom, score
      L1  H     3    18       P1  8028  0.68
      L1  H     7    24       P1  8028  0.90

> <Gold.Chemscore.Hbond.Weighted>
-5.6665

> <Gold.Chemscore.Metal.Weighted>
-0.0000

> <Gold.Chemscore.Lipo.Weighted>
-10.0421

> <Gold.Chemscore.Internal_Hbond.Weighted>
0.0000

> <Gold.Chemscore.DEClash.Weighted>
0.2014

> <Gold.Chemscore.DEInternal.Weighted>
3.1008

> <Gold.Chemscore.Rot.Weighted>
4.0206

> <Gold.Chemscore.Internal.Correction.Weighted>
   9.000000E+99

> <Gold.Protein.RotatedTorsions>
[ 6907 6896 6895 6894 ] final -164.73 input  -60.11 | X-H torsion
[ 7974 7965 7964 7962 ] final -114.66 input  175.53 | X-H torsion
[ 8008 7997 7996 7995 ] final   13.68 input   59.86 | X-H torsion
[ 10167 10162 10161 10158 ] final  171.68 input  -65.29 | X-H torsion
[ 10718 10713 10712 10709 ] final -117.54 input   66.30 | X-H torsion
[ 10763 10752 10751 10750 ] final  103.62 input  -60.55 | X-H torsion
[ 11005 11000 10999 10996 ] final  -50.77 input  -57.11 | X-H torsion

> <Gold.Protein.ActiveResidues>
 VAL166  LYS551  ARG553  GLY616  TRP617  ASP618  TYR619  PRO620  LYS621  CYS622 
 ASP623  PHE694  ASN695  SER759  ASP760  ASP761  ALA762  ILE779  LEU786  VAL792 
 PHE793  MET794  SER795  GLU796  ALA797  LYS798  CYS799  TRP800  GLU811  SER814 

> <Gold.Protein.RotatedAtoms>
  151.4164  133.3711  159.2750 H   0  0  0  0  0  0  0  0  0  0  0  0  # atno 6907 bound_to 6896
  150.9325  134.8741  159.7571 H   0  0  0  0  0  0  0  0  0  0  0  0  # atno 6908 bound_to 6896
  152.5035  134.4110  159.9500 H   0  0  0  0  0  0  0  0  0  0  0  0  # atno 6909 bound_to 6896
  145.1176  140.8649  143.3833 H   0  0  0  0  0  0  0  0  0  0  0  0  # atno 7974 bound_to 7965
  154.8378  140.2910  155.5679 H   0  0  0  0  0  0  0  0  0  0  0  0  # atno 8008 bound_to 7997
  156.3010  140.2519  156.3247 H   0  0  0  0  0  0  0  0  0  0  0  0  # atno 8009 bound_to 7997
  154.9159  140.0387  157.1961 H   0  0  0  0  0  0  0  0  0  0  0  0  # atno 8010 bound_to 7997
  139.5054  144.3458  151.9972 H   0  0  0  0  0  0  0  0  0  0  0  0  # atno 10167 bound_to 10162
  156.1041  130.6196  150.9177 H   0  0  0  0  0  0  0  0  0  0  0  0  # atno 10718 bound_to 10713
  153.3551  135.3970  155.1676 H   0  0  0  0  0  0  0  0  0  0  0  0  # atno 10763 bound_to 10752
  154.8669  135.3666  154.5171 H   0  0  0  0  0  0  0  0  0  0  0  0  # atno 10764 bound_to 10752
  153.5626  135.7080  153.5600 H   0  0  0  0  0  0  0  0  0  0  0  0  # atno 10765 bound_to 10752
  141.0834  133.6648  156.3780 H   0  0  0  0  0  0  0  0  0  0  0  0  # atno 11005 bound_to 11000
  145.0777  139.2983  143.5800 LP  0  0  0  0  0  0  0  0  0  0  0  0  # atno 17320 bound_to 7965
  146.3523  140.0272  142.8653 LP  0  0  0  0  0  0  0  0  0  0  0  0  # atno 17321 bound_to 7965
  140.2896  144.3769  150.6093 LP  0  0  0  0  0  0  0  0  0  0  0  0  # atno 17342 bound_to 10162
  140.5957  143.2167  151.7169 LP  0  0  0  0  0  0  0  0  0  0  0  0  # atno 17343 bound_to 10162
  157.6216  131.0929  150.8612 LP  0  0  0  0  0  0  0  0  0  0  0  0  # atno 17370 bound_to 10713
  156.8734  130.5154  149.5295 LP  0  0  0  0  0  0  0  0  0  0  0  0  # atno 17371 bound_to 10713
  140.5416  134.6114  157.5381 LP  0  0  0  0  0  0  0  0  0  0  0  0  # atno 17394 bound_to 11000
  139.9650  134.7388  156.0157 LP  0  0  0  0  0  0  0  0  0  0  0  0  # atno 17395 bound_to 11000

$$$$
