AV-unprocessed.smi:2260|AV-procd|sdf|9134|dock4
  -GOLD-   2272012343D 1   1.00000     0.00000
 Structure written by MMmdl.
 42 43  0  0  0  0  0  0  0  0  1 V2000
  148.9462  140.7287  154.4761 C   0  0  0  0  0  0  0  0  0  0  0  0
  150.1000  139.7464  154.5815 C   0  0  0  0  0  0  0  0  0  0  0  0
  150.2927  138.6827  153.7944 C   0  0  0  0  0  0  0  0  0  0  0  0
  151.7475  137.8006  154.1939 S   0  0  0  0  0  0  0  0  0  0  0  0
  152.1066  138.9708  155.5144 C   0  0  0  0  0  0  0  0  0  0  0  0
  153.1026  138.8843  156.2310 O   0  0  0  0  0  0  0  0  0  0  0  0
  151.0931  139.9268  155.5527 N   0  0  0  0  0  0  0  0  0  0  0  0
  151.0949  141.0157  156.5325 C   0  0  0  0  0  0  0  0  0  0  0  0
  150.8734  140.4780  157.9541 C   0  0  0  0  0  0  0  0  0  0  0  0
  151.8728  141.0492  158.8437 N   0  0  0  0  0  0  0  0  0  0  0  0
  151.3935  142.2341  159.5510 C   0  0  2  0  0  0  0  0  0  0  0  0
  150.5796  143.1378  158.5941 C   0  0  0  0  0  0  0  0  0  0  0  0
  150.0831  144.4049  159.3032 C   0  0  0  0  0  0  0  0  0  0  0  0
  151.2447  145.1772  159.9389 C   0  0  0  0  0  0  0  0  0  0  0  0
  152.0506  144.2774  160.8908 C   0  0  0  0  0  0  0  0  0  0  0  0
  152.5879  142.9874  160.2183 C   0  0  0  0  0  0  0  0  0  0  0  0
  153.2055  142.1062  161.3258 C   0  0  0  0  0  0  0  0  0  0  0  0
  153.7034  143.3504  159.2071 C   0  0  0  0  0  0  0  0  0  0  0  0
  148.4864  140.6672  153.4892 H   0  0  0  0  0  0  0  0  0  0  0  0
  149.2733  141.7585  154.6185 H   0  0  0  0  0  0  0  0  0  0  0  0
  148.1835  140.4968  155.2197 H   0  0  0  0  0  0  0  0  0  0  0  0
  149.6575  138.3647  152.9810 H   0  0  0  0  0  0  0  0  0  0  0  0
  152.0253  141.5808  156.4747 H   0  0  0  0  0  0  0  0  0  0  0  0
  150.3101  141.7320  156.2830 H   0  0  0  0  0  0  0  0  0  0  0  0
  149.8705  140.7336  158.2956 H   0  0  0  0  0  0  0  0  0  0  0  0
  150.9548  139.3908  157.9609 H   0  0  0  0  0  0  0  0  0  0  0  0
  152.7213  141.2625  158.3388 H   0  0  0  0  0  0  0  0  0  0  0  0
  150.7299  141.9063  160.3531 H   0  0  0  0  0  0  0  0  0  0  0  0
  151.1800  143.4148  157.7272 H   0  0  0  0  0  0  0  0  0  0  0  0
  149.7146  142.6034  158.2022 H   0  0  0  0  0  0  0  0  0  0  0  0
  149.5531  145.0446  158.5968 H   0  0  0  0  0  0  0  0  0  0  0  0
  149.3619  144.1314  160.0744 H   0  0  0  0  0  0  0  0  0  0  0  0
  151.8921  145.5808  159.1603 H   0  0  0  0  0  0  0  0  0  0  0  0
  150.8575  146.0374  160.4857 H   0  0  0  0  0  0  0  0  0  0  0  0
  152.8738  144.8498  161.3203 H   0  0  0  0  0  0  0  0  0  0  0  0
  151.4082  144.0073  161.7305 H   0  0  0  0  0  0  0  0  0  0  0  0
  153.9953  142.6361  161.8594 H   0  0  0  0  0  0  0  0  0  0  0  0
  153.6469  141.1951  160.9203 H   0  0  0  0  0  0  0  0  0  0  0  0
  152.4582  141.8066  162.0613 H   0  0  0  0  0  0  0  0  0  0  0  0
  154.4941  143.9277  159.6875 H   0  0  0  0  0  0  0  0  0  0  0  0
  153.3340  143.9448  158.3726 H   0  0  0  0  0  0  0  0  0  0  0  0
  154.1730  142.4612  158.7859 H   0  0  0  0  0  0  0  0  0  0  0  0
  1  2  1  0  0  0  0
  1 19  1  0  0  0  0
  1 20  1  0  0  0  0
  1 21  1  0  0  0  0
  2  7  1  0  0  0  0
  2  3  2  0  0  0  0
  3  4  1  0  0  0  0
  3 22  1  0  0  0  0
  4  5  1  0  0  0  0
  5  6  2  0  0  0  0
  5  7  1  0  0  0  0
  7  8  1  0  0  0  0
  8  9  1  0  0  0  0
  8 23  1  0  0  0  0
  8 24  1  0  0  0  0
  9 10  1  0  0  0  0
  9 25  1  0  0  0  0
  9 26  1  0  0  0  0
 10 11  1  0  0  0  0
 10 27  1  0  0  0  0
 11 16  1  0  0  0  0
 11 12  1  0  0  0  0
 11 28  1  0  0  0  0
 12 13  1  0  0  0  0
 12 29  1  0  0  0  0
 12 30  1  0  0  0  0
 13 14  1  0  0  0  0
 13 31  1  0  0  0  0
 13 32  1  0  0  0  0
 14 15  1  0  0  0  0
 14 33  1  0  0  0  0
 14 34  1  0  0  0  0
 15 16  1  0  0  0  0
 15 35  1  0  0  0  0
 15 36  1  0  0  0  0
 16 17  1  0  0  0  0
 16 18  1  0  0  0  0
 17 37  1  0  0  0  0
 17 38  1  0  0  0  0
 17 39  1  0  0  0  0
 18 40  1  0  0  0  0
 18 41  1  0  0  0  0
 18 42  1  0  0  0  0
M  END
> <s_m_source_file>
AV-unprocessed.smi

> <i_m_source_file_index>
2260

> <i_lp_mmshare_version>
43012

> <i_f3d_flags>
0

> <s_epik_input>
W0NIM11jMVtjSF1zYyg9TyluMVtDSDJdW0NIMl1bTkhdW0NAQEhdKEMyKFtDSDNdKVtDSDNdKVtDSDJdW0NIMl1bQ0gyXVtDSDJdMg==

> <s_epik_cmdline>
J2VwaWtfcHl0aG9uJywgJy1waCcsICc3LjAnLCAnLXRuJywgJzgnLCAnLW1hJywgJzIwMCcsICctbWV0YWxfYmluZGluZycsICctaW1hZScsICc8aW5maWxlLm1hZT4nLCAnLW9tYWUnLCAnPG91dGZpbGUubWFlPic=

> <r_epik_Ionization_Penalty>
2.34504

> <r_epik_Ionization_Penalty_Charging>
4.7617e-06

> <r_epik_Ionization_Penalty_Neutral>
2.34504

> <r_epik_State_Penalty>
2.49894

> <r_epik_Charging_Adjusted_Penalty>
2.49895

> <i_epik_Tot_Q>
0

> <i_epik_Tot_abs_Q>
0

> <r_epik_Metal_State_Penalty>
2.49894

> <b_epik_Metal_Only>
0

> <s_lp_Force_Field>
OPLS_2005

> <r_lp_Energy>
25.4326

> <b_lp_Chiralities_Consistent>
1

> <s_lp_Variant>
AV-unprocessed.smi:2260-3

> <Gold.Version>
5.8.1

> <Gold.Id.Protein>
6NUR|6NUR_protein|mol2

> <Gold.PLP.Fitness>
48.5594

> <Gold.PLP.PLP>
-42.1398

> <Gold.PLP.part.hbond>
-1.0000

> <Gold.PLP.part.metal>
0.0000

> <Gold.PLP.part.buried>
-3.1583

> <Gold.PLP.part.nonpolar>
-37.4194

> <Gold.PLP.part.repulsive>
0.0000

> <Gold.PLP.ligand.clash>
0.0000

> <Gold.PLP.ligand.torsion>
0.7648

> <Gold.PLP.Chemscore.Hbond>
1.0000

> <Gold.PLP.Chemscore.CHOScore>
1.6416

> <Gold.PLP.Chemscore.Metal>
0.0000

> <Gold.Chemscore.Hbonds>
donor molecule, donor type, donor heavy atom, donor atom, acceptor molecule, acceptor atom, score
      P1  H  7997  8009       L1     6  1.00
      L1  C     3    22       P1  7948  1.00
      L1  C     3    22       P1  7957  0.64

> <Gold.PLP.Chemscore.Internal.Correction>
0.0244

> <Gold.Rescore>
     Score         DG    S(hbond)    S(metal)    S(lipo)     H(rot)  DE(clash)    DE(int)     intcor
     18.61     -19.51       0.97        0.00     123.55       1.43       0.02       0.88       ----

> <Gold.Chemscore.Fitness>
18.6074

> <Gold.Chemscore.DG>
-19.5128

> <Gold.Chemscore.ZeroCoef>
-5.4800

> <Gold.Chemscore.Hbond>
0.9684

> <Gold.Chemscore.Metal>
0.0000

> <Gold.Chemscore.Lipo>
123.5499

> <Gold.Chemscore.Internal_Hbond>
0.0000

> <Gold.Chemscore.DEClash>
0.0217

> <Gold.Chemscore.DEInternal>
0.8838

> <Gold.Chemscore.Rot>
1.4285

> <Gold.Chemscore.Internal.Correction>
   9.000000E+99

> <Gold.Chemscore.Hbonds>
donor molecule, donor type, donor heavy atom, donor atom, acceptor molecule, acceptor atom, score
      P1  H  7997  8009       L1     6  0.98

> <Gold.Chemscore.Hbond.Weighted>
-3.2344

> <Gold.Chemscore.Metal.Weighted>
-0.0000

> <Gold.Chemscore.Lipo.Weighted>
-14.4553

> <Gold.Chemscore.Internal_Hbond.Weighted>
0.0000

> <Gold.Chemscore.DEClash.Weighted>
0.0217

> <Gold.Chemscore.DEInternal.Weighted>
0.8838

> <Gold.Chemscore.Rot.Weighted>
3.6569

> <Gold.Chemscore.Internal.Correction.Weighted>
   9.000000E+99

> <Gold.Protein.RotatedTorsions>
[ 6907 6896 6895 6894 ] final -106.16 input  -60.11 | X-H torsion
[ 7974 7965 7964 7962 ] final  -70.20 input  175.53 | X-H torsion
[ 8008 7997 7996 7995 ] final -160.59 input   59.86 | X-H torsion
[ 10167 10162 10161 10158 ] final  172.11 input  -65.29 | X-H torsion
[ 10718 10713 10712 10709 ] final  -20.47 input   66.30 | X-H torsion
[ 10763 10752 10751 10750 ] final   99.77 input  -60.55 | X-H torsion
[ 11005 11000 10999 10996 ] final -136.96 input  -57.11 | X-H torsion

> <Gold.Protein.ActiveResidues>
 VAL166  LYS551  ARG553  GLY616  TRP617  ASP618  TYR619  PRO620  LYS621  CYS622 
 ASP623  PHE694  ASN695  SER759  ASP760  ASP761  ALA762  ILE779  LEU786  VAL792 
 PHE793  MET794  SER795  GLU796  ALA797  LYS798  CYS799  TRP800  GLU811  SER814 

> <Gold.Protein.RotatedAtoms>
  150.7374  134.0018  159.3640 H   0  0  0  0  0  0  0  0  0  0  0  0  # atno 6907 bound_to 6896
  151.7973  135.0717  160.0405 H   0  0  0  0  0  0  0  0  0  0  0  0  # atno 6908 bound_to 6896
  152.3166  133.5772  159.5752 H   0  0  0  0  0  0  0  0  0  0  0  0  # atno 6909 bound_to 6896
  145.6940  140.9142  143.0766 H   0  0  0  0  0  0  0  0  0  0  0  0  # atno 7974 bound_to 7965
  155.7796  140.0863  157.2066 H   0  0  0  0  0  0  0  0  0  0  0  0  # atno 8008 bound_to 7997
  154.3991  140.1510  156.3095 H   0  0  0  0  0  0  0  0  0  0  0  0  # atno 8009 bound_to 7997
  155.8666  140.3427  155.5795 H   0  0  0  0  0  0  0  0  0  0  0  0  # atno 8010 bound_to 7997
  139.5067  144.3410  152.0018 H   0  0  0  0  0  0  0  0  0  0  0  0  # atno 10167 bound_to 10162
  156.5315  130.4656  149.6545 H   0  0  0  0  0  0  0  0  0  0  0  0  # atno 10718 bound_to 10713
  153.3056  135.4102  155.1291 H   0  0  0  0  0  0  0  0  0  0  0  0  # atno 10763 bound_to 10752
  154.8562  135.3552  154.5792 H   0  0  0  0  0  0  0  0  0  0  0  0  # atno 10764 bound_to 10752
  153.6219  135.7064  153.5366 H   0  0  0  0  0  0  0  0  0  0  0  0  # atno 10765 bound_to 10752
  140.8756  134.1996  157.4624 H   0  0  0  0  0  0  0  0  0  0  0  0  # atno 11005 bound_to 11000
  144.6988  139.8860  143.7450 LP  0  0  0  0  0  0  0  0  0  0  0  0  # atno 17320 bound_to 7965
  146.0856  139.3845  143.0437 LP  0  0  0  0  0  0  0  0  0  0  0  0  # atno 17321 bound_to 7965
  140.2848  144.3819  150.6107 LP  0  0  0  0  0  0  0  0  0  0  0  0  # atno 17342 bound_to 10162
  140.5991  143.2167  151.7107 LP  0  0  0  0  0  0  0  0  0  0  0  0  # atno 17343 bound_to 10162
  156.3056  130.7200  151.2082 LP  0  0  0  0  0  0  0  0  0  0  0  0  # atno 17370 bound_to 10713
  157.7421  131.0495  150.5050 LP  0  0  0  0  0  0  0  0  0  0  0  0  # atno 17371 bound_to 10713
  139.8715  134.9794  156.5036 LP  0  0  0  0  0  0  0  0  0  0  0  0  # atno 17394 bound_to 11000
  140.8522  133.8123  155.9180 LP  0  0  0  0  0  0  0  0  0  0  0  0  # atno 17395 bound_to 11000

$$$$
