AV-unprocessed.smi:864|AV-procd|sdf|3989|dock7
  -GOLD-   22720 1463D 1   1.00000     0.00000
 Structure written by MMmdl.
 45 47  0  0  0  0  0  0  0  0  2 V2000
  143.8520  132.3272  149.5403 C   0  0  0  0  0  0  0  0  0  0  0  0
  144.1245  133.5780  150.3482 C   0  0  0  0  0  0  0  0  0  0  0  0
  143.5377  133.8023  151.6119 C   0  0  0  0  0  0  0  0  0  0  0  0
  143.8229  134.9996  152.3000 C   0  0  0  0  0  0  0  0  0  0  0  0
  144.6877  135.9493  151.7115 C   0  0  0  0  0  0  0  0  0  0  0  0
  144.9638  137.2775  152.3972 C   0  0  0  0  0  0  0  0  0  0  0  0
  145.8828  138.2149  151.5852 C   0  0  0  0  0  0  0  0  0  0  0  0
  147.2541  138.2254  152.0922 N   0  0  0  0  0  0  0  0  0  0  0  0
  147.6264  138.6728  153.3006 C   0  0  0  0  0  0  0  0  0  0  0  0
  146.8631  139.2101  154.1039 O   0  0  0  0  0  0  0  0  0  0  0  0
  148.9152  138.4119  153.5557 N   0  0  0  0  0  0  0  0  0  0  0  0
  149.5677  138.6518  154.8403 C   0  0  1  0  0  0  0  0  0  0  0  0
  151.0772  138.3572  154.7995 C   0  0  0  0  0  0  0  0  0  0  0  0
  151.6994  139.5797  155.4485 C   0  0  0  0  0  0  0  0  0  0  0  0
  152.8945  139.6415  155.7337 O   0  0  0  0  0  0  0  0  0  0  0  0
  150.7875  140.5346  155.6628 N   0  0  0  0  0  0  0  0  0  0  0  0
  151.0333  141.7552  156.3732 C   0  0  0  0  0  0  0  0  0  0  0  0
  151.5157  141.7411  157.8111 C   0  0  0  0  0  0  0  0  0  0  0  0
  150.0924  142.1303  157.4952 C   0  0  0  0  0  0  0  0  0  0  0  0
  149.4495  140.1303  155.2522 C   0  0  0  0  0  0  0  0  0  0  0  0
  145.2575  135.6628  150.4525 C   0  0  0  0  0  0  0  0  0  0  0  0
  144.9564  134.5057  149.8238 N   0  3  0  0  0  0  0  0  0  0  0  0
  143.1961  131.6447  150.0817 H   0  0  0  0  0  0  0  0  0  0  0  0
  144.7832  131.8036  149.3223 H   0  0  0  0  0  0  0  0  0  0  0  0
  143.3706  132.5836  148.5961 H   0  0  0  0  0  0  0  0  0  0  0  0
  142.8688  133.0732  152.0456 H   0  0  0  0  0  0  0  0  0  0  0  0
  143.3660  135.1926  153.2595 H   0  0  0  0  0  0  0  0  0  0  0  0
  144.0156  137.7795  152.5946 H   0  0  0  0  0  0  0  0  0  0  0  0
  145.4101  137.0819  153.3729 H   0  0  0  0  0  0  0  0  0  0  0  0
  145.9047  137.8934  150.5438 H   0  0  0  0  0  0  0  0  0  0  0  0
  145.4734  139.2266  151.5793 H   0  0  0  0  0  0  0  0  0  0  0  0
  147.9586  137.8057  151.5028 H   0  0  0  0  0  0  0  0  0  0  0  0
  149.4683  137.9705  152.8355 H   0  0  0  0  0  0  0  0  0  0  0  0
  149.0986  138.0308  155.6061 H   0  0  0  0  0  0  0  0  0  0  0  0
  151.3312  137.4479  155.3453 H   0  0  0  0  0  0  0  0  0  0  0  0
  151.4579  138.2670  153.7813 H   0  0  0  0  0  0  0  0  0  0  0  0
  151.4080  142.5807  155.7696 H   0  0  0  0  0  0  0  0  0  0  0  0
  151.6639  140.7901  158.3180 H   0  0  0  0  0  0  0  0  0  0  0  0
  152.1935  142.5353  158.1176 H   0  0  0  0  0  0  0  0  0  0  0  0
  149.8230  143.1800  157.5925 H   0  0  0  0  0  0  0  0  0  0  0  0
  149.3094  141.4221  157.7593 H   0  0  0  0  0  0  0  0  0  0  0  0
  149.1288  140.7604  154.4206 H   0  0  0  0  0  0  0  0  0  0  0  0
  148.7343  140.2541  156.0666 H   0  0  0  0  0  0  0  0  0  0  0  0
  145.9192  136.3311  149.9208 H   0  0  0  0  0  0  0  0  0  0  0  0
  145.3690  134.3280  148.9076 H   0  0  0  0  0  0  0  0  0  0  0  0
  1  2  1  0  0  0  0
  1 23  1  0  0  0  0
  1 24  1  0  0  0  0
  1 25  1  0  0  0  0
  2 22  1  0  0  0  0
  2  3  2  0  0  0  0
  3  4  1  0  0  0  0
  3 26  1  0  0  0  0
  4  5  2  0  0  0  0
  4 27  1  0  0  0  0
  5  6  1  0  0  0  0
  5 21  1  0  0  0  0
  6  7  1  0  0  0  0
  6 28  1  0  0  0  0
  6 29  1  0  0  0  0
  7  8  1  0  0  0  0
  7 30  1  0  0  0  0
  7 31  1  0  0  0  0
  8  9  1  0  0  0  0
  8 32  1  0  0  0  0
  9 10  2  0  0  0  0
  9 11  1  0  0  0  0
 11 12  1  0  0  0  0
 11 33  1  0  0  0  0
 12 20  1  0  0  0  0
 12 13  1  0  0  0  0
 12 34  1  0  0  0  0
 13 14  1  0  0  0  0
 13 35  1  0  0  0  0
 13 36  1  0  0  0  0
 14 15  2  0  0  0  0
 14 16  1  0  0  0  0
 16 17  1  0  0  0  0
 16 20  1  0  0  0  0
 17 19  1  0  0  0  0
 17 18  1  0  0  0  0
 17 37  1  0  0  0  0
 18 19  1  0  0  0  0
 18 38  1  0  0  0  0
 18 39  1  0  0  0  0
 19 40  1  0  0  0  0
 19 41  1  0  0  0  0
 20 42  1  0  0  0  0
 20 43  1  0  0  0  0
 21 22  2  0  0  0  0
 21 44  1  0  0  0  0
 22 45  1  0  0  0  0
M  CHG  1  22   1
M  END
> <s_m_source_file>
AV-unprocessed.smi

> <i_m_source_file_index>
864

> <i_lp_mmshare_version>
43012

> <i_f3d_flags>
0

> <s_epik_input>
W0NIM11jMVtjSF1bY0hdYyhbY0hdbjEpW0NIMl1bQ0gyXVtOSF1DKD1PKVtOSF1bQ0BASF0yW0NIMl1DKD1PKU4oW0NIMl0yKVtDSF0zW0NIMl1bQ0gyXTM=

> <s_epik_cmdline>
J2VwaWtfcHl0aG9uJywgJy1waCcsICc3LjAnLCAnLXRuJywgJzgnLCAnLW1hJywgJzIwMCcsICctbWV0YWxfYmluZGluZycsICctaW1hZScsICc8aW5maWxlLm1hZT4nLCAnLW9tYWUnLCAnPG91dGZpbGUubWFlPic=

> <r_epik_Ionization_Penalty>
1.42657

> <r_epik_Ionization_Penalty_Charging>
1.42653

> <r_epik_Ionization_Penalty_Neutral>
4.57062e-05

> <r_epik_State_Penalty>
1.51075

> <r_epik_Charging_Adjusted_Penalty>
2.93728

> <i_epik_Tot_Q>
1

> <i_epik_Tot_abs_Q>
1

> <r_epik_Metal_State_Penalty>
1.56242

> <b_epik_Metal_Only>
0

> <s_lp_Force_Field>
OPLS_2005

> <r_lp_Energy>
39.135

> <b_lp_Chiralities_Consistent>
1

> <s_lp_Variant>
AV-unprocessed.smi:864-4

> <Gold.Version>
5.8.1

> <Gold.Id.Protein>
6NUR|6NUR_protein|mol2

> <Gold.PLP.Fitness>
50.6517

> <Gold.PLP.PLP>
-42.1683

> <Gold.PLP.part.hbond>
-5.8849

> <Gold.PLP.part.metal>
0.0000

> <Gold.PLP.part.buried>
1.5140

> <Gold.PLP.part.nonpolar>
-37.7243

> <Gold.PLP.part.repulsive>
0.3640

> <Gold.PLP.ligand.clash>
0.0000

> <Gold.PLP.ligand.torsion>
0.5019

> <Gold.PLP.Chemscore.Hbond>
3.1040

> <Gold.PLP.Chemscore.CHOScore>
0.0000

> <Gold.PLP.Chemscore.Metal>
0.0000

> <Gold.Chemscore.Hbonds>
donor molecule, donor type, donor heavy atom, donor atom, acceptor molecule, acceptor atom, score
      L1  H     8    32       P1  7948  0.58
      L1  H    11    33       P1  7948  0.53
      L1  H    22    45       P1  7921  1.00
      P1  H  7997  8010       L1    15  1.00

> <Gold.PLP.Chemscore.Internal.Correction>
0.1751

> <Gold.Rescore>
     Score         DG    S(hbond)    S(metal)    S(lipo)     H(rot)  DE(clash)    DE(int)     intcor
     19.39     -22.56       3.22        0.00      94.40       1.84       1.57       1.60       ----

> <Gold.Chemscore.Fitness>
19.3935

> <Gold.Chemscore.DG>
-22.5603

> <Gold.Chemscore.ZeroCoef>
-5.4800

> <Gold.Chemscore.Hbond>
3.2157

> <Gold.Chemscore.Metal>
0.0000

> <Gold.Chemscore.Lipo>
94.4039

> <Gold.Chemscore.Internal_Hbond>
0.0000

> <Gold.Chemscore.DEClash>
1.5700

> <Gold.Chemscore.DEInternal>
1.5968

> <Gold.Chemscore.Rot>
1.8381

> <Gold.Chemscore.Internal.Correction>
   9.000000E+99

> <Gold.Chemscore.Hbonds>
donor molecule, donor type, donor heavy atom, donor atom, acceptor molecule, acceptor atom, score
      L1  H     8    32       P1  7948  0.58
      L1  H    11    33       P1  7948  0.42
      L1  H    22    45       P1  7921  0.90
      P1  H  7997  8010       L1    15  0.94

> <Gold.Chemscore.Hbond.Weighted>
-10.7405

> <Gold.Chemscore.Metal.Weighted>
-0.0000

> <Gold.Chemscore.Lipo.Weighted>
-11.0453

> <Gold.Chemscore.Internal_Hbond.Weighted>
0.0000

> <Gold.Chemscore.DEClash.Weighted>
1.5700

> <Gold.Chemscore.DEInternal.Weighted>
1.5968

> <Gold.Chemscore.Rot.Weighted>
4.7054

> <Gold.Chemscore.Internal.Correction.Weighted>
   9.000000E+99

> <Gold.Protein.RotatedTorsions>
[ 6907 6896 6895 6894 ] final   86.25 input  -60.11 | X-H torsion
[ 7974 7965 7964 7962 ] final  -47.53 input  175.53 | X-H torsion
[ 8008 7997 7996 7995 ] final  108.75 input   59.86 | X-H torsion
[ 10167 10162 10161 10158 ] final -155.62 input  -65.29 | X-H torsion
[ 10718 10713 10712 10709 ] final -142.24 input   66.30 | X-H torsion
[ 10763 10752 10751 10750 ] final   59.87 input  -60.55 | X-H torsion
[ 11005 11000 10999 10996 ] final  167.78 input  -57.11 | X-H torsion

> <Gold.Protein.ActiveResidues>
 VAL166  LYS551  ARG553  GLY616  TRP617  ASP618  TYR619  PRO620  LYS621  CYS622 
 ASP623  PHE694  ASN695  SER759  ASP760  ASP761  ALA762  ILE779  LEU786  VAL792 
 PHE793  MET794  SER795  GLU796  ALA797  LYS798  CYS799  TRP800  GLU811  SER814 

> <Gold.Protein.RotatedAtoms>
  152.5391  134.2460  159.8880 H   0  0  0  0  0  0  0  0  0  0  0  0  # atno 6907 bound_to 6896
  151.2426  133.4385  159.2615 H   0  0  0  0  0  0  0  0  0  0  0  0  # atno 6908 bound_to 6896
  151.0613  134.9752  159.8318 H   0  0  0  0  0  0  0  0  0  0  0  0  # atno 6909 bound_to 6896
  145.9606  140.7482  142.9459 H   0  0  0  0  0  0  0  0  0  0  0  0  # atno 7974 bound_to 7965
  156.1927  140.3070  155.9364 H   0  0  0  0  0  0  0  0  0  0  0  0  # atno 8008 bound_to 7997
  155.3138  140.0452  157.3053 H   0  0  0  0  0  0  0  0  0  0  0  0  # atno 8009 bound_to 7997
  154.5471  140.2280  155.8554 H   0  0  0  0  0  0  0  0  0  0  0  0  # atno 8010 bound_to 7997
  139.6916  143.9411  152.2387 H   0  0  0  0  0  0  0  0  0  0  0  0  # atno 10167 bound_to 10162
  156.3436  130.7650  151.1791 H   0  0  0  0  0  0  0  0  0  0  0  0  # atno 10718 bound_to 10713
  152.9905  135.5556  154.5782 H   0  0  0  0  0  0  0  0  0  0  0  0  # atno 10763 bound_to 10752
  154.5169  135.2805  155.1298 H   0  0  0  0  0  0  0  0  0  0  0  0  # atno 10764 bound_to 10752
  154.2667  135.6371  153.5347 H   0  0  0  0  0  0  0  0  0  0  0  0  # atno 10765 bound_to 10752
  140.2803  134.7755  157.3753 H   0  0  0  0  0  0  0  0  0  0  0  0  # atno 11005 bound_to 11000
  144.6814  140.2585  143.7322 LP  0  0  0  0  0  0  0  0  0  0  0  0  # atno 17320 bound_to 7965
  145.8045  139.1977  143.2029 LP  0  0  0  0  0  0  0  0  0  0  0  0  # atno 17321 bound_to 7965
  139.9229  144.6789  150.8443 LP  0  0  0  0  0  0  0  0  0  0  0  0  # atno 17342 bound_to 10162
  140.7684  143.3362  151.2303 LP  0  0  0  0  0  0  0  0  0  0  0  0  # atno 17343 bound_to 10162
  157.7450  131.0447  150.4809 LP  0  0  0  0  0  0  0  0  0  0  0  0  # atno 17370 bound_to 10713
  156.4993  130.4113  149.6362 LP  0  0  0  0  0  0  0  0  0  0  0  0  # atno 17371 bound_to 10713
  140.1289  134.5121  155.8121 LP  0  0  0  0  0  0  0  0  0  0  0  0  # atno 17394 bound_to 11000
  141.2164  133.6783  156.7003 LP  0  0  0  0  0  0  0  0  0  0  0  0  # atno 17395 bound_to 11000

$$$$
