AV-unprocessed.smi:2563|AV-procd|sdf|10060|dock5
  -GOLD-   2272014 93D 1   1.00000     0.00000
 Structure written by MMmdl.
 34 35  0  0  0  0  0  0  0  0  1 V2000
  152.3742  139.2113  155.1138 C   0  0  0  0  0  0  0  0  0  0  0  0
  151.5394  139.5413  156.3580 C   0  0  0  0  0  0  0  0  0  0  0  0
  151.1157  140.9414  156.3830 N   0  0  0  0  0  0  0  0  0  0  0  0
  150.2360  141.4255  155.3205 C   0  0  0  0  0  0  0  0  0  0  0  0
  149.0829  140.4508  155.0226 C   0  0  2  0  0  0  0  0  0  0  0  0
  149.5426  139.2927  154.1145 C   0  0  0  0  0  0  0  0  0  0  0  0
  148.4160  138.4185  153.7909 N   0  0  0  0  0  0  0  0  0  0  0  0
  147.3162  139.1713  153.1912 C   0  0  0  0  0  0  0  0  0  0  0  0
  146.9129  140.3425  154.1034 C   0  0  0  0  0  0  0  0  0  0  0  0
  148.0494  141.1638  154.3470 O   0  0  0  0  0  0  0  0  0  0  0  0
  151.4837  141.7857  157.4590 C   0  0  0  0  0  0  0  0  0  0  0  0
  151.2891  143.1883  157.4097 C   0  0  0  0  0  0  0  0  0  0  0  0
  151.6822  143.9531  158.5210 C   0  0  0  0  0  0  0  0  0  0  0  0
  152.2445  143.2680  159.6109 C   0  0  0  0  0  0  0  0  0  0  0  0
  152.4125  141.9286  159.6160 N   0  0  0  0  0  0  0  0  0  0  0  0
  152.0376  141.2049  158.5559 N   0  0  0  0  0  0  0  0  0  0  0  0
  152.6919  138.1686  155.1283 H   0  0  0  0  0  0  0  0  0  0  0  0
  153.2703  139.8301  155.0618 H   0  0  0  0  0  0  0  0  0  0  0  0
  151.8030  139.3704  154.1987 H   0  0  0  0  0  0  0  0  0  0  0  0
  150.6813  138.8726  156.4301 H   0  0  0  0  0  0  0  0  0  0  0  0
  152.1365  139.3431  157.2485 H   0  0  0  0  0  0  0  0  0  0  0  0
  149.8258  142.3948  155.6066 H   0  0  0  0  0  0  0  0  0  0  0  0
  150.8192  141.6187  154.4203 H   0  0  0  0  0  0  0  0  0  0  0  0
  148.6976  140.0433  155.9592 H   0  0  0  0  0  0  0  0  0  0  0  0
  149.9774  139.6922  153.1971 H   0  0  0  0  0  0  0  0  0  0  0  0
  150.3270  138.7185  154.6084 H   0  0  0  0  0  0  0  0  0  0  0  0
  148.7207  137.6927  153.1502 H   0  0  0  0  0  0  0  0  0  0  0  0
  147.6179  139.5544  152.2157 H   0  0  0  0  0  0  0  0  0  0  0  0
  146.4616  138.5164  153.0206 H   0  0  0  0  0  0  0  0  0  0  0  0
  146.1402  140.9430  153.6232 H   0  0  0  0  0  0  0  0  0  0  0  0
  146.4963  139.9822  155.0453 H   0  0  0  0  0  0  0  0  0  0  0  0
  150.8614  143.6874  156.5540 H   0  0  0  0  0  0  0  0  0  0  0  0
  151.5589  145.0257  158.5358 H   0  0  0  0  0  0  0  0  0  0  0  0
  152.5667  143.8018  160.4927 H   0  0  0  0  0  0  0  0  0  0  0  0
  1  2  1  0  0  0  0
  1 17  1  0  0  0  0
  1 18  1  0  0  0  0
  1 19  1  0  0  0  0
  2  3  1  0  0  0  0
  2 20  1  0  0  0  0
  2 21  1  0  0  0  0
  3  4  1  0  0  0  0
  3 11  1  0  0  0  0
  4  5  1  0  0  0  0
  4 22  1  0  0  0  0
  4 23  1  0  0  0  0
  5 10  1  0  0  0  0
  5  6  1  0  0  0  0
  5 24  1  0  0  0  0
  6  7  1  0  0  0  0
  6 25  1  0  0  0  0
  6 26  1  0  0  0  0
  7  8  1  0  0  0  0
  7 27  1  0  0  0  0
  8  9  1  0  0  0  0
  8 28  1  0  0  0  0
  8 29  1  0  0  0  0
  9 10  1  0  0  0  0
  9 30  1  0  0  0  0
  9 31  1  0  0  0  0
 11 16  1  0  0  0  0
 11 12  2  0  0  0  0
 12 13  1  0  0  0  0
 12 32  1  0  0  0  0
 13 14  2  0  0  0  0
 13 33  1  0  0  0  0
 14 15  1  0  0  0  0
 14 34  1  0  0  0  0
 15 16  2  0  0  0  0
M  END
> <s_m_source_file>
AV-unprocessed.smi

> <i_m_source_file_index>
2563

> <i_lp_mmshare_version>
43012

> <i_f3d_flags>
0

> <s_epik_input>
bjFuW2NIXVtjSF1bY0hdYzFOKFtDSDJdW0NIM10pW0NIMl1bQ0BASF0yW0NIMl1bTkhdW0NIMl1bQ0gyXU8y

> <s_epik_cmdline>
J2VwaWtfcHl0aG9uJywgJy1waCcsICc3LjAnLCAnLXRuJywgJzgnLCAnLW1hJywgJzIwMCcsICctbWV0YWxfYmluZGluZycsICctaW1hZScsICc8aW5maWxlLm1hZT4nLCAnLW9tYWUnLCAnPG91dGZpbGUubWFlPic=

> <r_lp_tautomer_probability>
1

> <r_epik_Ionization_Penalty>
2.34719

> <r_epik_Ionization_Penalty_Charging>
0

> <r_epik_Ionization_Penalty_Neutral>
2.34719

> <r_epik_State_Penalty>
2.60452

> <r_epik_Charging_Adjusted_Penalty>
2.60452

> <i_epik_Tot_Q>
0

> <i_epik_Tot_abs_Q>
0

> <r_epik_Metal_State_Penalty>
2.56937

> <b_epik_Metal_Only>
0

> <s_lp_Force_Field>
OPLS_2005

> <r_lp_Energy>
25.5001

> <b_lp_Chiralities_Consistent>
1

> <s_lp_Variant>
AV-unprocessed.smi:2563-5

> <Gold.Version>
5.8.1

> <Gold.Id.Protein>
6NUR|6NUR_protein|mol2

> <Gold.PLP.Fitness>
33.2545

> <Gold.PLP.PLP>
-31.0631

> <Gold.PLP.part.hbond>
-1.0598

> <Gold.PLP.part.metal>
0.0000

> <Gold.PLP.part.buried>
-1.4634

> <Gold.PLP.part.nonpolar>
-27.8626

> <Gold.PLP.part.repulsive>
0.1346

> <Gold.PLP.ligand.clash>
0.0000

> <Gold.PLP.ligand.torsion>
0.4231

> <Gold.PLP.Chemscore.Hbond>
1.0000

> <Gold.PLP.Chemscore.CHOScore>
0.0000

> <Gold.PLP.Chemscore.Metal>
0.0000

> <Gold.Chemscore.Hbonds>
donor molecule, donor type, donor heavy atom, donor atom, acceptor molecule, acceptor atom, score
      L1  H     7    27       P1  7948  1.00

> <Gold.PLP.Chemscore.Internal.Correction>
0.0377

> <Gold.Rescore>
     Score         DG    S(hbond)    S(metal)    S(lipo)     H(rot)  DE(clash)    DE(int)     intcor
     14.17     -14.92       0.99        0.00      82.35       1.36       0.21       0.55       ----

> <Gold.Chemscore.Fitness>
14.1663

> <Gold.Chemscore.DG>
-14.9231

> <Gold.Chemscore.ZeroCoef>
-5.4800

> <Gold.Chemscore.Hbond>
0.9862

> <Gold.Chemscore.Metal>
0.0000

> <Gold.Chemscore.Lipo>
82.3533

> <Gold.Chemscore.Internal_Hbond>
0.0000

> <Gold.Chemscore.DEClash>
0.2108

> <Gold.Chemscore.DEInternal>
0.5459

> <Gold.Chemscore.Rot>
1.3618

> <Gold.Chemscore.Internal.Correction>
   9.000000E+99

> <Gold.Chemscore.Hbonds>
donor molecule, donor type, donor heavy atom, donor atom, acceptor molecule, acceptor atom, score
      L1  H     7    27       P1  7948  0.99

> <Gold.Chemscore.Hbond.Weighted>
-3.2939

> <Gold.Chemscore.Metal.Weighted>
-0.0000

> <Gold.Chemscore.Lipo.Weighted>
-9.6353

> <Gold.Chemscore.Internal_Hbond.Weighted>
0.0000

> <Gold.Chemscore.DEClash.Weighted>
0.2108

> <Gold.Chemscore.DEInternal.Weighted>
0.5459

> <Gold.Chemscore.Rot.Weighted>
3.4861

> <Gold.Chemscore.Internal.Correction.Weighted>
   9.000000E+99

> <Gold.Protein.RotatedTorsions>
[ 6907 6896 6895 6894 ] final  -31.03 input  -60.11 | X-H torsion
[ 7974 7965 7964 7962 ] final   11.24 input  175.53 | X-H torsion
[ 8008 7997 7996 7995 ] final  124.85 input   59.86 | X-H torsion
[ 10167 10162 10161 10158 ] final   -5.45 input  -65.29 | X-H torsion
[ 10718 10713 10712 10709 ] final    1.20 input   66.30 | X-H torsion
[ 10763 10752 10751 10750 ] final -168.61 input  -60.55 | X-H torsion
[ 11005 11000 10999 10996 ] final    7.73 input  -57.11 | X-H torsion

> <Gold.Protein.ActiveResidues>
 VAL166  LYS551  ARG553  GLY616  TRP617  ASP618  TYR619  PRO620  LYS621  CYS622 
 ASP623  PHE694  ASN695  SER759  ASP760  ASP761  ALA762  ILE779  LEU786  VAL792 
 PHE793  MET794  SER795  GLU796  ALA797  LYS798  CYS799  TRP800  GLU811  SER814 

> <Gold.Protein.RotatedAtoms>
  151.0976  134.9953  159.8432 H   0  0  0  0  0  0  0  0  0  0  0  0  # atno 6907 bound_to 6896
  152.5434  134.1990  159.8714 H   0  0  0  0  0  0  0  0  0  0  0  0  # atno 6908 bound_to 6896
  151.2030  133.4555  159.2630 H   0  0  0  0  0  0  0  0  0  0  0  0  # atno 6909 bound_to 6896
  146.2374  139.9514  142.8470 H   0  0  0  0  0  0  0  0  0  0  0  0  # atno 7974 bound_to 7965
  156.2815  140.2730  156.1855 H   0  0  0  0  0  0  0  0  0  0  0  0  # atno 8008 bound_to 7997
  155.0512  140.0386  157.2562 H   0  0  0  0  0  0  0  0  0  0  0  0  # atno 8009 bound_to 7997
  154.7193  140.2684  155.6561 H   0  0  0  0  0  0  0  0  0  0  0  0  # atno 8010 bound_to 7997
  140.6963  143.6306  150.8526 H   0  0  0  0  0  0  0  0  0  0  0  0  # atno 10167 bound_to 10162
  156.8446  130.5533  149.5674 H   0  0  0  0  0  0  0  0  0  0  0  0  # atno 10718 bound_to 10713
  154.6611  135.2925  154.9866 H   0  0  0  0  0  0  0  0  0  0  0  0  # atno 10763 bound_to 10752
  154.0925  135.6588  153.4859 H   0  0  0  0  0  0  0  0  0  0  0  0  # atno 10764 bound_to 10752
  153.0430  135.5223  154.7562 H   0  0  0  0  0  0  0  0  0  0  0  0  # atno 10765 bound_to 10752
  140.5449  134.0338  155.7917 H   0  0  0  0  0  0  0  0  0  0  0  0  # atno 11005 bound_to 11000
  145.1858  140.9788  143.4240 LP  0  0  0  0  0  0  0  0  0  0  0  0  # atno 17320 bound_to 7965
  144.9901  139.3697  143.6219 LP  0  0  0  0  0  0  0  0  0  0  0  0  # atno 17321 bound_to 7965
  140.0025  143.5729  152.2870 LP  0  0  0  0  0  0  0  0  0  0  0  0  # atno 17342 bound_to 10162
  139.6424  144.7655  151.2313 LP  0  0  0  0  0  0  0  0  0  0  0  0  # atno 17343 bound_to 10162
  156.0861  130.5859  150.9651 LP  0  0  0  0  0  0  0  0  0  0  0  0  # atno 17370 bound_to 10713
  157.6337  131.0918  150.8391 LP  0  0  0  0  0  0  0  0  0  0  0  0  # atno 17371 bound_to 10713
  141.1205  133.9469  157.2738 LP  0  0  0  0  0  0  0  0  0  0  0  0  # atno 17394 bound_to 11000
  139.9485  135.0180  156.8923 LP  0  0  0  0  0  0  0  0  0  0  0  0  # atno 17395 bound_to 11000

$$$$
