AV-unprocessed.smi:2529|AV-procd|sdf|9960|dock1
  -GOLD-   2272014 03D 1   1.00000     0.00000
 Structure written by MMmdl.
 44 46  0  0  0  0  0  0  0  0  1 V2000
  147.6975  134.8869  156.7372 C   0  0  0  0  0  0  0  0  0  0  0  0
  148.7312  136.0016  156.5222 C   0  0  2  0  0  0  0  0  0  0  0  0
  148.5445  136.6886  155.1583 C   0  0  0  0  0  0  0  0  0  0  0  0
  149.5718  137.8140  154.9400 C   0  0  0  0  0  0  0  0  0  0  0  0
  151.0384  137.3392  155.1004 C   0  0  1  0  0  0  0  0  0  0  0  0
  151.3401  136.4113  154.0728 O   0  0  0  0  0  0  0  0  0  0  0  0
  152.0960  138.4792  155.0116 C   0  0  0  0  0  0  0  0  0  0  0  0
  151.8558  139.6252  155.9110 N   0  0  0  0  0  0  0  0  0  0  0  0
  152.6701  139.6918  157.0582 C   0  0  0  0  0  0  0  0  0  0  0  0
  152.5465  140.6396  157.9315 N   0  0  0  0  0  0  0  0  0  0  0  0
  151.5779  141.6323  157.7479 C   0  0  0  0  0  0  0  0  0  0  0  0
  151.4990  142.7388  158.7905 C   0  0  0  0  0  0  0  0  0  0  0  0
  150.7053  143.9911  158.3840 C   0  0  0  0  0  0  0  0  0  0  0  0
  151.7647  144.8213  159.1172 C   0  0  0  0  0  0  0  0  0  0  0  0
  152.7317  143.6514  158.9052 C   0  0  0  0  0  0  0  0  0  0  0  0
  150.7676  141.6113  156.6632 C   0  0  0  0  0  0  0  0  0  0  0  0
  150.8785  140.5479  155.6643 C   0  0  0  0  0  0  0  0  0  0  0  0
  150.1486  140.4949  154.6745 O   0  0  0  0  0  0  0  0  0  0  0  0
  151.2076  136.5865  156.4425 C   0  0  0  0  0  0  0  0  0  0  0  0
  150.1689  135.4699  156.6521 C   0  0  0  0  0  0  0  0  0  0  0  0
  147.7982  134.1019  155.9870 H   0  0  0  0  0  0  0  0  0  0  0  0
  146.6813  135.2771  156.6757 H   0  0  0  0  0  0  0  0  0  0  0  0
  147.8142  134.4269  157.7188 H   0  0  0  0  0  0  0  0  0  0  0  0
  148.5755  136.7495  157.3012 H   0  0  0  0  0  0  0  0  0  0  0  0
  148.6316  135.9519  154.3585 H   0  0  0  0  0  0  0  0  0  0  0  0
  147.5372  137.1000  155.0848 H   0  0  0  0  0  0  0  0  0  0  0  0
  149.4136  138.2478  153.9521 H   0  0  0  0  0  0  0  0  0  0  0  0
  149.3712  138.6082  155.6598 H   0  0  0  0  0  0  0  0  0  0  0  0
  150.8750  136.6659  153.2907 H   0  0  0  0  0  0  0  0  0  0  0  0
  153.0805  138.0621  155.2294 H   0  0  0  0  0  0  0  0  0  0  0  0
  152.1909  138.8232  153.9793 H   0  0  0  0  0  0  0  0  0  0  0  0
  153.4064  138.8922  157.1555 H   0  0  0  0  0  0  0  0  0  0  0  0
  151.1853  142.3561  159.7634 H   0  0  0  0  0  0  0  0  0  0  0  0
  150.7031  144.1755  157.3080 H   0  0  0  0  0  0  0  0  0  0  0  0
  149.7023  144.0535  158.8067 H   0  0  0  0  0  0  0  0  0  0  0  0
  152.0498  145.7470  158.6163 H   0  0  0  0  0  0  0  0  0  0  0  0
  151.5218  144.9859  160.1683 H   0  0  0  0  0  0  0  0  0  0  0  0
  153.3824  143.4355  159.7528 H   0  0  0  0  0  0  0  0  0  0  0  0
  153.2966  143.7445  157.9755 H   0  0  0  0  0  0  0  0  0  0  0  0
  150.0270  142.3854  156.5251 H   0  0  0  0  0  0  0  0  0  0  0  0
  152.2127  136.1693  156.5193 H   0  0  0  0  0  0  0  0  0  0  0  0
  151.1148  137.2963  157.2659 H   0  0  0  0  0  0  0  0  0  0  0  0
  150.3114  135.0241  157.6370 H   0  0  0  0  0  0  0  0  0  0  0  0
  150.3350  134.6702  155.9293 H   0  0  0  0  0  0  0  0  0  0  0  0
  1  2  1  0  0  0  0
  1 21  1  0  0  0  0
  1 22  1  0  0  0  0
  1 23  1  0  0  0  0
  2 20  1  0  0  0  0
  2  3  1  0  0  0  0
  2 24  1  0  0  0  0
  3  4  1  0  0  0  0
  3 25  1  0  0  0  0
  3 26  1  0  0  0  0
  4  5  1  0  0  0  0
  4 27  1  0  0  0  0
  4 28  1  0  0  0  0
  5  6  1  0  0  0  0
  5  7  1  0  0  0  0
  5 19  1  0  0  0  0
  6 29  1  0  0  0  0
  7  8  1  0  0  0  0
  7 30  1  0  0  0  0
  7 31  1  0  0  0  0
  8 17  1  0  0  0  0
  8  9  1  0  0  0  0
  9 10  2  0  0  0  0
  9 32  1  0  0  0  0
 10 11  1  0  0  0  0
 11 12  1  0  0  0  0
 11 16  2  0  0  0  0
 12 15  1  0  0  0  0
 12 13  1  0  0  0  0
 12 33  1  0  0  0  0
 13 14  1  0  0  0  0
 13 34  1  0  0  0  0
 13 35  1  0  0  0  0
 14 15  1  0  0  0  0
 14 36  1  0  0  0  0
 14 37  1  0  0  0  0
 15 38  1  0  0  0  0
 15 39  1  0  0  0  0
 16 17  1  0  0  0  0
 16 40  1  0  0  0  0
 17 18  2  0  0  0  0
 19 20  1  0  0  0  0
 19 41  1  0  0  0  0
 19 42  1  0  0  0  0
 20 43  1  0  0  0  0
 20 44  1  0  0  0  0
M  END
> <s_m_source_file>
AV-unprocessed.smi

> <i_m_source_file_index>
2529

> <i_lp_mmshare_version>
43012

> <i_f3d_flags>
0

> <s_epik_input>
W0NIMl0xW0NIMl1bQ0BIXShbQ0gzXSlbQ0gyXVtDSDJdW0NAQF0xKFtPSF0pW0NIMl1uMltjSF1uYyhbY0hdYzI9TylbQ0hdM1tDSDJdW0NIMl1bQ0gyXTM=

> <s_epik_cmdline>
J2VwaWtfcHl0aG9uJywgJy1waCcsICc3LjAnLCAnLXRuJywgJzgnLCAnLW1hJywgJzIwMCcsICctbWV0YWxfYmluZGluZycsICctaW1hZScsICc8aW5maWxlLm1hZT4nLCAnLW9tYWUnLCAnPG91dGZpbGUubWFlPic=

> <r_lp_tautomer_probability>
1

> <r_epik_Ionization_Penalty>
9.15498e-05

> <r_epik_Ionization_Penalty_Charging>
1.67865e-07

> <r_epik_Ionization_Penalty_Neutral>
9.13819e-05

> <r_epik_State_Penalty>
-0

> <r_epik_Charging_Adjusted_Penalty>
1.67865e-07

> <i_epik_Tot_Q>
0

> <i_epik_Tot_abs_Q>
0

> <r_epik_Metal_State_Penalty>
-0

> <b_epik_Metal_Only>
0

> <s_lp_Force_Field>
OPLS_2005

> <r_lp_Energy>
32.8679

> <b_lp_Chiralities_Consistent>
1

> <s_lp_Variant>
AV-unprocessed.smi:2529-1

> <Gold.Version>
5.8.1

> <Gold.Id.Protein>
6NUR|6NUR_protein|mol2

> <Gold.PLP.Fitness>
42.2873

> <Gold.PLP.PLP>
-34.5401

> <Gold.PLP.part.hbond>
-3.2192

> <Gold.PLP.part.metal>
0.0000

> <Gold.PLP.part.buried>
-1.9834

> <Gold.PLP.part.nonpolar>
-29.5438

> <Gold.PLP.part.repulsive>
0.1019

> <Gold.PLP.ligand.clash>
0.0000

> <Gold.PLP.ligand.torsion>
0.4621

> <Gold.PLP.Chemscore.Hbond>
2.7360

> <Gold.PLP.Chemscore.CHOScore>
0.0000

> <Gold.PLP.Chemscore.Metal>
0.0000

> <Gold.Chemscore.Hbonds>
donor molecule, donor type, donor heavy atom, donor atom, acceptor molecule, acceptor atom, score
      L1  H     6    29       P1  7949  0.42
      P1  H  7989  7998       L1    18  0.56
      P1  H 10752 10765       L1     6  1.00

> <Gold.PLP.Chemscore.Internal.Correction>
0.4635

> <Gold.Rescore>
     Score         DG    S(hbond)    S(metal)    S(lipo)     H(rot)  DE(clash)    DE(int)     intcor
     15.24     -18.39       2.14        0.00      88.74       1.80       1.26       1.89       ----

> <Gold.Chemscore.Fitness>
15.2413

> <Gold.Chemscore.DG>
-18.3946

> <Gold.Chemscore.ZeroCoef>
-5.4800

> <Gold.Chemscore.Hbond>
2.1353

> <Gold.Chemscore.Metal>
0.0000

> <Gold.Chemscore.Lipo>
88.7381

> <Gold.Chemscore.Internal_Hbond>
0.0000

> <Gold.Chemscore.DEClash>
1.2587

> <Gold.Chemscore.DEInternal>
1.8946

> <Gold.Chemscore.Rot>
1.7968

> <Gold.Chemscore.Internal.Correction>
   9.000000E+99

> <Gold.Chemscore.Hbonds>
donor molecule, donor type, donor heavy atom, donor atom, acceptor molecule, acceptor atom, score
      L1  H     6    29       P1  7949  0.06
      P1  H  7989  7998       L1    18  0.04
      P1  H 10752 10765       L1     6  0.93

> <Gold.Chemscore.Hbond.Weighted>
-7.1320

> <Gold.Chemscore.Metal.Weighted>
-0.0000

> <Gold.Chemscore.Lipo.Weighted>
-10.3824

> <Gold.Chemscore.Internal_Hbond.Weighted>
0.0000

> <Gold.Chemscore.DEClash.Weighted>
1.2587

> <Gold.Chemscore.DEInternal.Weighted>
1.8946

> <Gold.Chemscore.Rot.Weighted>
4.5997

> <Gold.Chemscore.Internal.Correction.Weighted>
   9.000000E+99

> <Gold.Protein.RotatedTorsions>
[ 6907 6896 6895 6894 ] final -117.23 input  -60.11 | X-H torsion
[ 7974 7965 7964 7962 ] final   68.10 input  175.53 | X-H torsion
[ 8008 7997 7996 7995 ] final  147.31 input   59.86 | X-H torsion
[ 10167 10162 10161 10158 ] final  116.40 input  -65.29 | X-H torsion
[ 10718 10713 10712 10709 ] final   94.31 input   66.30 | X-H torsion
[ 10763 10752 10751 10750 ] final  152.92 input  -60.55 | X-H torsion
[ 11005 11000 10999 10996 ] final  -28.28 input  -57.11 | X-H torsion

> <Gold.Protein.ActiveResidues>
 VAL166  LYS551  ARG553  GLY616  TRP617  ASP618  TYR619  PRO620  LYS621  CYS622 
 ASP623  PHE694  ASN695  SER759  ASP760  ASP761  ALA762  ILE779  LEU786  VAL792 
 PHE793  MET794  SER795  GLU796  ALA797  LYS798  CYS799  TRP800  GLU811  SER814 

> <Gold.Protein.RotatedAtoms>
  150.8120  133.8405  159.3177 H   0  0  0  0  0  0  0  0  0  0  0  0  # atno 6907 bound_to 6896
  151.6188  135.1032  160.0106 H   0  0  0  0  0  0  0  0  0  0  0  0  # atno 6908 bound_to 6896
  152.4212  133.7079  159.6518 H   0  0  0  0  0  0  0  0  0  0  0  0  # atno 6909 bound_to 6896
  145.8066  139.3010  143.1123 H   0  0  0  0  0  0  0  0  0  0  0  0  # atno 7974 bound_to 7965
  156.2829  140.2159  156.5517 H   0  0  0  0  0  0  0  0  0  0  0  0  # atno 8008 bound_to 7997
  154.7286  140.0497  157.0728 H   0  0  0  0  0  0  0  0  0  0  0  0  # atno 8009 bound_to 7997
  155.0383  140.3143  155.4736 H   0  0  0  0  0  0  0  0  0  0  0  0  # atno 8010 bound_to 7997
  139.6249  144.7107  151.2554 H   0  0  0  0  0  0  0  0  0  0  0  0  # atno 10167 bound_to 10162
  157.6949  131.0508  150.4167 H   0  0  0  0  0  0  0  0  0  0  0  0  # atno 10718 bound_to 10713
  154.1278  135.2828  155.3193 H   0  0  0  0  0  0  0  0  0  0  0  0  # atno 10763 bound_to 10752
  154.6377  135.5413  153.7757 H   0  0  0  0  0  0  0  0  0  0  0  0  # atno 10764 bound_to 10752
  153.0291  135.6478  154.1429 H   0  0  0  0  0  0  0  0  0  0  0  0  # atno 10765 bound_to 10752
  140.9194  133.7409  156.0780 H   0  0  0  0  0  0  0  0  0  0  0  0  # atno 11005 bound_to 11000
  145.9821  140.8673  143.0109 LP  0  0  0  0  0  0  0  0  0  0  0  0  # atno 17320 bound_to 7965
  144.6762  140.2095  143.7378 LP  0  0  0  0  0  0  0  0  0  0  0  0  # atno 17321 bound_to 7965
  140.7405  143.6586  150.8185 LP  0  0  0  0  0  0  0  0  0  0  0  0  # atno 17342 bound_to 10162
  140.0202  143.5550  152.2803 LP  0  0  0  0  0  0  0  0  0  0  0  0  # atno 17343 bound_to 10162
  156.4546  130.4019  149.6614 LP  0  0  0  0  0  0  0  0  0  0  0  0  # atno 17370 bound_to 10713
  156.3751  130.7550  151.2538 LP  0  0  0  0  0  0  0  0  0  0  0  0  # atno 17371 bound_to 10713
  140.8007  134.3511  157.5440 LP  0  0  0  0  0  0  0  0  0  0  0  0  # atno 17394 bound_to 11000
  139.8772  134.9196  156.3231 LP  0  0  0  0  0  0  0  0  0  0  0  0  # atno 17395 bound_to 11000

$$$$
