AV-unprocessed.smi:3024|AV-procd|sdf|11503|dock9
  -GOLD-   2272016443D 1   1.00000     0.00000
 Structure written by MMmdl.
 31 32  0  0  0  0  0  0  0  0  1 V2000
  145.5883  138.4480  153.6265 O   0  0  0  0  0  0  0  0  0  0  0  0
  146.5230  137.8039  153.1510 C   0  0  0  0  0  0  0  0  0  0  0  0
  146.3687  136.6354  152.5127 N   0  0  0  0  0  0  0  0  0  0  0  0
  145.0955  135.9544  152.3051 C   0  0  0  0  0  0  0  0  0  0  0  0
  145.2267  134.8126  151.2839 C   0  0  2  0  0  0  0  0  0  0  0  0
  143.9365  134.0217  151.0759 C   0  0  0  0  0  0  0  0  0  0  0  0
  144.4220  132.6602  150.6018 C   0  0  0  0  0  0  0  0  0  0  0  0
  145.9178  132.6601  150.9311 C   0  0  0  0  0  0  0  0  0  0  0  0
  146.1181  133.8086  151.7424 O   0  0  0  0  0  0  0  0  0  0  0  0
  147.8147  138.1748  153.1772 N   0  0  0  0  0  0  0  0  0  0  0  0
  148.3874  139.3368  153.7611 C   0  0  0  0  0  0  0  0  0  0  0  0
  147.6345  140.5290  153.7382 C   0  0  0  0  0  0  0  0  0  0  0  0
  148.1848  141.6993  154.2942 C   0  0  0  0  0  0  0  0  0  0  0  0
  149.4788  141.6339  154.8458 C   0  0  0  0  0  0  0  0  0  0  0  0
  150.2200  140.5060  154.8618 N   0  0  0  0  0  0  0  0  0  0  0  0
  149.6850  139.3861  154.3286 C   0  0  0  0  0  0  0  0  0  0  0  0
  147.1923  136.1787  152.1495 H   0  0  0  0  0  0  0  0  0  0  0  0
  144.6900  135.5867  153.2492 H   0  0  0  0  0  0  0  0  0  0  0  0
  144.3859  136.6937  151.9331 H   0  0  0  0  0  0  0  0  0  0  0  0
  145.5822  135.1960  150.3253 H   0  0  0  0  0  0  0  0  0  0  0  0
  143.4070  133.9082  152.0228 H   0  0  0  0  0  0  0  0  0  0  0  0
  143.2596  134.5014  150.3685 H   0  0  0  0  0  0  0  0  0  0  0  0
  143.8955  131.8584  151.1208 H   0  0  0  0  0  0  0  0  0  0  0  0
  144.2632  132.5280  149.5310 H   0  0  0  0  0  0  0  0  0  0  0  0
  146.2340  131.7540  151.4486 H   0  0  0  0  0  0  0  0  0  0  0  0
  146.5105  132.7571  150.0206 H   0  0  0  0  0  0  0  0  0  0  0  0
  148.4565  137.5834  152.6704 H   0  0  0  0  0  0  0  0  0  0  0  0
  146.6454  140.5482  153.3044 H   0  0  0  0  0  0  0  0  0  0  0  0
  147.6294  142.6255  154.2967 H   0  0  0  0  0  0  0  0  0  0  0  0
  149.9330  142.5124  155.2798 H   0  0  0  0  0  0  0  0  0  0  0  0
  150.3345  138.5249  154.3464 H   0  0  0  0  0  0  0  0  0  0  0  0
  1  2  2  0  0  0  0
  2  3  1  0  0  0  0
  2 10  1  0  0  0  0
  3  4  1  0  0  0  0
  3 17  1  0  0  0  0
  4  5  1  0  0  0  0
  4 18  1  0  0  0  0
  4 19  1  0  0  0  0
  5  9  1  0  0  0  0
  5  6  1  0  0  0  0
  5 20  1  0  0  0  0
  6  7  1  0  0  0  0
  6 21  1  0  0  0  0
  6 22  1  0  0  0  0
  7  8  1  0  0  0  0
  7 23  1  0  0  0  0
  7 24  1  0  0  0  0
  8  9  1  0  0  0  0
  8 25  1  0  0  0  0
  8 26  1  0  0  0  0
 10 11  1  0  0  0  0
 10 27  1  0  0  0  0
 11 16  1  0  0  0  0
 11 12  2  0  0  0  0
 12 13  1  0  0  0  0
 12 28  1  0  0  0  0
 13 14  2  0  0  0  0
 13 29  1  0  0  0  0
 14 15  1  0  0  0  0
 14 30  1  0  0  0  0
 15 16  2  0  0  0  0
 16 31  1  0  0  0  0
M  END
> <s_m_source_file>
AV-unprocessed.smi

> <i_m_source_file_index>
3024

> <i_lp_mmshare_version>
43012

> <i_f3d_flags>
0

> <s_epik_input>
W2NIXTFuW2NIXVtjSF1bY0hdYzFbTkhdQyg9TylbTkhdW0NIMl1bQ0BASF0yW0NIMl1bQ0gyXVtDSDJdTzI=

> <s_epik_cmdline>
J2VwaWtfcHl0aG9uJywgJy1waCcsICc3LjAnLCAnLXRuJywgJzgnLCAnLW1hJywgJzIwMCcsICctbWV0YWxfYmluZGluZycsICctaW1hZScsICc8aW5maWxlLm1hZT4nLCAnLW9tYWUnLCAnPG91dGZpbGUubWFlPic=

> <r_epik_Ionization_Penalty>
0.00471982

> <r_epik_Ionization_Penalty_Charging>
0

> <r_epik_Ionization_Penalty_Neutral>
0.00471982

> <r_epik_State_Penalty>
0.00339234

> <r_epik_Charging_Adjusted_Penalty>
0.00339234

> <i_epik_Tot_Q>
0

> <i_epik_Tot_abs_Q>
0

> <r_epik_Metal_State_Penalty>
-0

> <b_epik_Metal_Only>
0

> <s_lp_Force_Field>
OPLS_2005

> <r_lp_Energy>
19.771

> <b_lp_Chiralities_Consistent>
1

> <s_lp_Variant>
AV-unprocessed.smi:3024-1

> <Gold.Version>
5.8.1

> <Gold.Id.Protein>
6NUR|6NUR_protein|mol2

> <Gold.PLP.Fitness>
38.2908

> <Gold.PLP.PLP>
-27.1540

> <Gold.PLP.part.hbond>
-3.1664

> <Gold.PLP.part.metal>
0.0000

> <Gold.PLP.part.buried>
-1.3264

> <Gold.PLP.part.nonpolar>
-23.2058

> <Gold.PLP.part.repulsive>
0.7543

> <Gold.PLP.ligand.clash>
0.0000

> <Gold.PLP.ligand.torsion>
0.3004

> <Gold.PLP.Chemscore.Hbond>
2.9360

> <Gold.PLP.Chemscore.CHOScore>
0.9739

> <Gold.PLP.Chemscore.Metal>
0.0000

> <Gold.Chemscore.Hbonds>
donor molecule, donor type, donor heavy atom, donor atom, acceptor molecule, acceptor atom, score
      L1  H     3    17       P1  7948  0.99
      L1  H    10    27       P1  7948  1.00
      P1  H  7989  7998       L1    15  0.96
      L1  C    14    30       P1  8028  0.95

> <Gold.PLP.Chemscore.Internal.Correction>
0.0080

> <Gold.Rescore>
     Score         DG    S(hbond)    S(metal)    S(lipo)     H(rot)  DE(clash)    DE(int)     intcor
     15.08     -16.71       2.16        0.00      61.53       1.24       0.13       1.50       ----

> <Gold.Chemscore.Fitness>
15.0760

> <Gold.Chemscore.DG>
-16.7121

> <Gold.Chemscore.ZeroCoef>
-5.4800

> <Gold.Chemscore.Hbond>
2.1572

> <Gold.Chemscore.Metal>
0.0000

> <Gold.Chemscore.Lipo>
61.5297

> <Gold.Chemscore.Internal_Hbond>
0.0000

> <Gold.Chemscore.DEClash>
0.1326

> <Gold.Chemscore.DEInternal>
1.5036

> <Gold.Chemscore.Rot>
1.2390

> <Gold.Chemscore.Internal.Correction>
   9.000000E+99

> <Gold.Chemscore.Hbonds>
donor molecule, donor type, donor heavy atom, donor atom, acceptor molecule, acceptor atom, score
      L1  H     3    17       P1  7948  0.93
      L1  H    10    27       P1  7948  0.99
      P1  H  7989  7998       L1    15  0.08

> <Gold.Chemscore.Hbond.Weighted>
-7.2049

> <Gold.Chemscore.Metal.Weighted>
-0.0000

> <Gold.Chemscore.Lipo.Weighted>
-7.1990

> <Gold.Chemscore.Internal_Hbond.Weighted>
0.0000

> <Gold.Chemscore.DEClash.Weighted>
0.1326

> <Gold.Chemscore.DEInternal.Weighted>
1.5036

> <Gold.Chemscore.Rot.Weighted>
3.1718

> <Gold.Chemscore.Internal.Correction.Weighted>
   9.000000E+99

> <Gold.Protein.RotatedTorsions>
[ 6907 6896 6895 6894 ] final  -85.97 input  -60.11 | X-H torsion
[ 7974 7965 7964 7962 ] final    6.36 input  175.53 | X-H torsion
[ 8008 7997 7996 7995 ] final -116.07 input   59.86 | X-H torsion
[ 10167 10162 10161 10158 ] final   53.62 input  -65.29 | X-H torsion
[ 10718 10713 10712 10709 ] final   34.45 input   66.30 | X-H torsion
[ 10763 10752 10751 10750 ] final  -13.37 input  -60.55 | X-H torsion
[ 11005 11000 10999 10996 ] final  175.96 input  -57.11 | X-H torsion

> <Gold.Protein.ActiveResidues>
 VAL166  LYS551  ARG553  GLY616  TRP617  ASP618  TYR619  PRO620  LYS621  CYS622 
 ASP623  PHE694  ASN695  SER759  ASP760  ASP761  ALA762  ILE779  LEU786  VAL792 
 PHE793  MET794  SER795  GLU796  ALA797  LYS798  CYS799  TRP800  GLU811  SER814 

> <Gold.Protein.RotatedAtoms>
  150.6868  134.3122  159.4751 H   0  0  0  0  0  0  0  0  0  0  0  0  # atno 6907 bound_to 6896
  152.1007  134.9341  160.0579 H   0  0  0  0  0  0  0  0  0  0  0  0  # atno 6908 bound_to 6896
  152.0621  133.4032  159.4459 H   0  0  0  0  0  0  0  0  0  0  0  0  # atno 6909 bound_to 6896
  146.2435  140.0245  142.8395 H   0  0  0  0  0  0  0  0  0  0  0  0  # atno 7974 bound_to 7965
  155.0621  140.0393  157.2580 H   0  0  0  0  0  0  0  0  0  0  0  0  # atno 8008 bound_to 7997
  154.7051  140.2681  155.6658 H   0  0  0  0  0  0  0  0  0  0  0  0  # atno 8009 bound_to 7997
  156.2772  140.2733  156.1674 H   0  0  0  0  0  0  0  0  0  0  0  0  # atno 8010 bound_to 7997
  140.2389  144.3606  150.6387 H   0  0  0  0  0  0  0  0  0  0  0  0  # atno 10167 bound_to 10162
  157.3105  130.7397  149.6722 H   0  0  0  0  0  0  0  0  0  0  0  0  # atno 10718 bound_to 10713
  153.5124  135.7016  153.5774 H   0  0  0  0  0  0  0  0  0  0  0  0  # atno 10763 bound_to 10752
  153.3859  135.3908  155.1889 H   0  0  0  0  0  0  0  0  0  0  0  0  # atno 10764 bound_to 10752
  154.8702  135.3846  154.4605 H   0  0  0  0  0  0  0  0  0  0  0  0  # atno 10765 bound_to 10752
  140.3679  134.7056  157.4373 H   0  0  0  0  0  0  0  0  0  0  0  0  # atno 11005 bound_to 11000
  145.1211  140.9463  143.4600 LP  0  0  0  0  0  0  0  0  0  0  0  0  # atno 17320 bound_to 7965
  145.0480  139.3205  143.5943 LP  0  0  0  0  0  0  0  0  0  0  0  0  # atno 17321 bound_to 7965
  140.6129  143.2170  151.6850 LP  0  0  0  0  0  0  0  0  0  0  0  0  # atno 17342 bound_to 10162
  139.5084  144.3612  152.0560 LP  0  0  0  0  0  0  0  0  0  0  0  0  # atno 17343 bound_to 10162
  155.9677  130.4253  150.4646 LP  0  0  0  0  0  0  0  0  0  0  0  0  # atno 17370 bound_to 10713
  157.2644  131.0573  151.2300 LP  0  0  0  0  0  0  0  0  0  0  0  0  # atno 17371 bound_to 10713
  140.0575  134.6043  155.8788 LP  0  0  0  0  0  0  0  0  0  0  0  0  # atno 17394 bound_to 11000
  141.1964  133.6591  156.5689 LP  0  0  0  0  0  0  0  0  0  0  0  0  # atno 17395 bound_to 11000

$$$$
