AV-unprocessed.smi:2152|AV-procd|sdf|8764|dock4
  -GOLD-   2272011543D 1   1.00000     0.00000
 Structure written by MMmdl.
 41 42  0  0  0  0  0  0  0  0  1 V2000
  150.7706  139.3896  154.9330 C   0  0  0  0  0  0  0  0  0  0  0  0
  149.3410  139.9330  155.0993 C   0  0  2  0  0  0  0  0  0  0  0  0
  149.0408  141.0567  154.0856 C   0  0  0  0  0  0  0  0  0  0  0  0
  147.5920  141.5559  154.2075 C   0  0  0  0  0  0  0  0  0  0  0  0
  147.2769  142.0152  155.6387 C   0  0  0  0  0  0  0  0  0  0  0  0
  147.5730  140.9018  156.6589 C   0  0  0  0  0  0  0  0  0  0  0  0
  149.0197  140.3793  156.5498 C   0  0  2  0  0  0  0  0  0  0  0  0
  149.9513  141.4025  157.0287 N   0  0  0  0  0  0  0  0  0  0  0  0
  150.5990  141.3979  158.2039 C   0  0  0  0  0  0  0  0  0  0  0  0
  150.5014  140.4890  159.0294 O   0  0  0  0  0  0  0  0  0  0  0  0
  151.5170  142.6000  158.4637 C   0  0  0  0  0  0  0  0  0  0  0  0
  152.1434  142.5731  159.7916 N   0  0  0  0  0  0  0  0  0  0  0  0
  151.8871  143.5920  160.6910 C   0  0  0  0  0  0  0  0  0  0  0  0
  152.4351  143.6522  161.9245 C   0  0  0  0  0  0  0  0  0  0  0  0
  153.3503  142.6167  162.3893 C   0  0  0  0  0  0  0  0  0  0  0  0
  153.8819  142.6423  163.4997 O   0  0  0  0  0  0  0  0  0  0  0  0
  153.5861  141.5803  161.4537 N   0  0  0  0  0  0  0  0  0  0  0  0
  154.4920  140.5077  161.8087 C   0  0  0  0  0  0  0  0  0  0  0  0
  153.0195  141.5299  160.1607 C   0  0  0  0  0  0  0  0  0  0  0  0
  153.2779  140.6164  159.3727 O   0  0  0  0  0  0  0  0  0  0  0  0
  151.5194  140.1685  155.0790 H   0  0  0  0  0  0  0  0  0  0  0  0
  150.9173  138.9776  153.9344 H   0  0  0  0  0  0  0  0  0  0  0  0
  150.9730  138.5934  155.6499 H   0  0  0  0  0  0  0  0  0  0  0  0
  148.6681  139.1058  154.8677 H   0  0  0  0  0  0  0  0  0  0  0  0
  149.7286  141.8896  154.2375 H   0  0  0  0  0  0  0  0  0  0  0  0
  149.2151  140.6981  153.0705 H   0  0  0  0  0  0  0  0  0  0  0  0
  147.4213  142.3750  153.5083 H   0  0  0  0  0  0  0  0  0  0  0  0
  146.9056  140.7577  153.9216 H   0  0  0  0  0  0  0  0  0  0  0  0
  147.8658  142.9019  155.8764 H   0  0  0  0  0  0  0  0  0  0  0  0
  146.2308  142.3143  155.7097 H   0  0  0  0  0  0  0  0  0  0  0  0
  147.3764  141.2596  157.6704 H   0  0  0  0  0  0  0  0  0  0  0  0
  146.8814  140.0749  156.4923 H   0  0  0  0  0  0  0  0  0  0  0  0
  149.0908  139.5025  157.1961 H   0  0  0  0  0  0  0  0  0  0  0  0
  150.1050  142.1890  156.4146 H   0  0  0  0  0  0  0  0  0  0  0  0
  152.2858  142.6127  157.6899 H   0  0  0  0  0  0  0  0  0  0  0  0
  150.9548  143.5268  158.3350 H   0  0  0  0  0  0  0  0  0  0  0  0
  151.2189  144.3867  160.3924 H   0  0  0  0  0  0  0  0  0  0  0  0
  152.1951  144.4800  162.5756 H   0  0  0  0  0  0  0  0  0  0  0  0
  154.0149  139.5623  161.5437 H   0  0  0  0  0  0  0  0  0  0  0  0
  154.6959  140.5061  162.8793 H   0  0  0  0  0  0  0  0  0  0  0  0
  155.4091  140.6653  161.2390 H   0  0  0  0  0  0  0  0  0  0  0  0
  1  2  1  0  0  0  0
  1 21  1  0  0  0  0
  1 22  1  0  0  0  0
  1 23  1  0  0  0  0
  2  7  1  0  0  0  0
  2  3  1  0  0  0  0
  2 24  1  0  0  0  0
  3  4  1  0  0  0  0
  3 25  1  0  0  0  0
  3 26  1  0  0  0  0
  4  5  1  0  0  0  0
  4 27  1  0  0  0  0
  4 28  1  0  0  0  0
  5  6  1  0  0  0  0
  5 29  1  0  0  0  0
  5 30  1  0  0  0  0
  6  7  1  0  0  0  0
  6 31  1  0  0  0  0
  6 32  1  0  0  0  0
  7  8  1  0  0  0  0
  7 33  1  0  0  0  0
  8  9  1  0  0  0  0
  8 34  1  0  0  0  0
  9 10  2  0  0  0  0
  9 11  1  0  0  0  0
 11 12  1  0  0  0  0
 11 35  1  0  0  0  0
 11 36  1  0  0  0  0
 12 19  1  0  0  0  0
 12 13  1  0  0  0  0
 13 14  2  0  0  0  0
 13 37  1  0  0  0  0
 14 15  1  0  0  0  0
 14 38  1  0  0  0  0
 15 16  2  0  0  0  0
 15 17  1  0  0  0  0
 17 18  1  0  0  0  0
 17 19  1  0  0  0  0
 18 39  1  0  0  0  0
 18 40  1  0  0  0  0
 18 41  1  0  0  0  0
 19 20  2  0  0  0  0
M  END
> <s_m_source_file>
AV-unprocessed.smi

> <i_m_source_file_index>
2152

> <i_lp_mmshare_version>
43012

> <i_f3d_flags>
0

> <s_epik_input>
W0NIM11bQ0BASF0xW0NIMl1bQ0gyXVtDSDJdW0NIMl1bQ0BIXTFbTkhdQyg9TylbQ0gyXW4yW2NIXVtjSF1jKD1PKW4oW0NIM10pYzI9Tw==

> <s_epik_cmdline>
J2VwaWtfcHl0aG9uJywgJy1waCcsICc3LjAnLCAnLXRuJywgJzgnLCAnLW1hJywgJzIwMCcsICctbWV0YWxfYmluZGluZycsICctaW1hZScsICc8aW5maWxlLm1hZT4nLCAnLW9tYWUnLCAnPG91dGZpbGUubWFlPic=

> <r_lp_tautomer_probability>
1

> <r_epik_Ionization_Penalty>
3.20555e-08

> <r_epik_Ionization_Penalty_Charging>
1.30086e-08

> <r_epik_Ionization_Penalty_Neutral>
1.90469e-08

> <r_epik_State_Penalty>
-0

> <r_epik_Charging_Adjusted_Penalty>
1.30086e-08

> <i_epik_Tot_Q>
0

> <i_epik_Tot_abs_Q>
0

> <r_epik_Metal_State_Penalty>
-0

> <b_epik_Metal_Only>
0

> <s_lp_Force_Field>
OPLS_2005

> <r_lp_Energy>
17.3754

> <b_lp_Chiralities_Consistent>
1

> <s_lp_Variant>
AV-unprocessed.smi:2152-3

> <Gold.Version>
5.8.1

> <Gold.Id.Protein>
6NUR|6NUR_protein|mol2

> <Gold.PLP.Fitness>
41.4241

> <Gold.PLP.PLP>
-41.7607

> <Gold.PLP.part.hbond>
-0.9979

> <Gold.PLP.part.metal>
0.0000

> <Gold.PLP.part.buried>
-1.9121

> <Gold.PLP.part.nonpolar>
-37.1757

> <Gold.PLP.part.repulsive>
0.0751

> <Gold.PLP.ligand.clash>
0.0000

> <Gold.PLP.ligand.torsion>
0.1735

> <Gold.PLP.Chemscore.Hbond>
0.0000

> <Gold.PLP.Chemscore.CHOScore>
0.0000

> <Gold.PLP.Chemscore.Metal>
0.0000

> <Gold.PLP.Chemscore.Internal.Correction>
0.0102

> <Gold.Rescore>
     Score         DG    S(hbond)    S(metal)    S(lipo)     H(rot)  DE(clash)    DE(int)     intcor
      9.92     -10.50       0.00        0.00      76.26       1.52       0.29       0.29       ----

> <Gold.Chemscore.Fitness>
9.9206

> <Gold.Chemscore.DG>
-10.5006

> <Gold.Chemscore.ZeroCoef>
-5.4800

> <Gold.Chemscore.Hbond>
0.0000

> <Gold.Chemscore.Metal>
0.0000

> <Gold.Chemscore.Lipo>
76.2607

> <Gold.Chemscore.Internal_Hbond>
0.0000

> <Gold.Chemscore.DEClash>
0.2944

> <Gold.Chemscore.DEInternal>
0.2856

> <Gold.Chemscore.Rot>
1.5242

> <Gold.Chemscore.Internal.Correction>
   9.000000E+99

> <Gold.Chemscore.Hbond.Weighted>
-0.0000

> <Gold.Chemscore.Metal.Weighted>
-0.0000

> <Gold.Chemscore.Lipo.Weighted>
-8.9225

> <Gold.Chemscore.Internal_Hbond.Weighted>
0.0000

> <Gold.Chemscore.DEClash.Weighted>
0.2944

> <Gold.Chemscore.DEInternal.Weighted>
0.2856

> <Gold.Chemscore.Rot.Weighted>
3.9019

> <Gold.Chemscore.Internal.Correction.Weighted>
   9.000000E+99

> <Gold.Protein.RotatedTorsions>
[ 6907 6896 6895 6894 ] final   91.41 input  -60.11 | X-H torsion
[ 7974 7965 7964 7962 ] final  -59.47 input  175.53 | X-H torsion
[ 8008 7997 7996 7995 ] final  -76.97 input   59.86 | X-H torsion
[ 10167 10162 10161 10158 ] final   42.33 input  -65.29 | X-H torsion
[ 10718 10713 10712 10709 ] final -155.61 input   66.30 | X-H torsion
[ 10763 10752 10751 10750 ] final  165.17 input  -60.55 | X-H torsion
[ 11005 11000 10999 10996 ] final  -51.59 input  -57.11 | X-H torsion

> <Gold.Protein.ActiveResidues>
 VAL166  LYS551  ARG553  GLY616  TRP617  ASP618  TYR619  PRO620  LYS621  CYS622 
 ASP623  PHE694  ASN695  SER759  ASP760  ASP761  ALA762  ILE779  LEU786  VAL792 
 PHE793  MET794  SER795  GLU796  ALA797  LYS798  CYS799  TRP800  GLU811  SER814 

> <Gold.Protein.RotatedAtoms>
  152.5450  134.1661  159.8577 H   0  0  0  0  0  0  0  0  0  0  0  0  # atno 6907 bound_to 6896
  151.1675  133.4798  159.2601 H   0  0  0  0  0  0  0  0  0  0  0  0  # atno 6908 bound_to 6896
  151.1309  135.0141  159.8637 H   0  0  0  0  0  0  0  0  0  0  0  0  # atno 6909 bound_to 6896
  145.8270  140.8504  143.0103 H   0  0  0  0  0  0  0  0  0  0  0  0  # atno 7974 bound_to 7965
  154.5553  140.0718  156.8734 H   0  0  0  0  0  0  0  0  0  0  0  0  # atno 8008 bound_to 7997
  155.2914  140.3378  155.4234 H   0  0  0  0  0  0  0  0  0  0  0  0  # atno 8009 bound_to 7997
  156.1997  140.1717  156.7911 H   0  0  0  0  0  0  0  0  0  0  0  0  # atno 8010 bound_to 7997
  140.3555  144.2296  150.6142 H   0  0  0  0  0  0  0  0  0  0  0  0  # atno 10167 bound_to 10162
  156.5152  130.8453  151.2661 H   0  0  0  0  0  0  0  0  0  0  0  0  # atno 10718 bound_to 10713
  154.3200  135.2756  155.2524 H   0  0  0  0  0  0  0  0  0  0  0  0  # atno 10763 bound_to 10752
  154.4881  135.5840  153.6442 H   0  0  0  0  0  0  0  0  0  0  0  0  # atno 10764 bound_to 10752
  152.9878  135.6128  154.3384 H   0  0  0  0  0  0  0  0  0  0  0  0  # atno 10765 bound_to 10752
  141.0879  133.6638  156.3899 H   0  0  0  0  0  0  0  0  0  0  0  0  # atno 11005 bound_to 11000
  144.6743  140.0617  143.7476 LP  0  0  0  0  0  0  0  0  0  0  0  0  # atno 17320 bound_to 7965
  145.9612  139.2802  143.1154 LP  0  0  0  0  0  0  0  0  0  0  0  0  # atno 17321 bound_to 7965
  140.5178  143.2273  151.8436 LP  0  0  0  0  0  0  0  0  0  0  0  0  # atno 17342 bound_to 10162
  139.4820  144.4873  151.9230 LP  0  0  0  0  0  0  0  0  0  0  0  0  # atno 17343 bound_to 10162
  157.7445  130.9936  150.2677 LP  0  0  0  0  0  0  0  0  0  0  0  0  # atno 17370 bound_to 10713
  156.3202  130.3784  149.7582 LP  0  0  0  0  0  0  0  0  0  0  0  0  # atno 17371 bound_to 10713
  140.5321  134.6203  157.5353 LP  0  0  0  0  0  0  0  0  0  0  0  0  # atno 17394 bound_to 11000
  139.9700  134.7309  156.0061 LP  0  0  0  0  0  0  0  0  0  0  0  0  # atno 17395 bound_to 11000

$$$$
