AV-unprocessed.smi:2159|AV-procd|sdf|8791|dock2
  -GOLD-   2272011573D 1   1.00000     0.00000
 Structure written by MMmdl.
 47 49  0  0  0  0  0  0  0  0  1 V2000
  149.0088  139.8080  158.0171 O   0  0  0  0  0  0  0  0  0  0  0  0
  150.0793  139.2912  157.6970 C   0  0  0  0  0  0  0  0  0  0  0  0
  150.8302  139.7869  156.4605 C   0  0  0  0  0  0  0  0  0  0  0  0
  151.1744  141.2858  156.5625 C   0  0  0  0  0  0  0  0  0  0  0  0
  151.6693  141.6321  157.8962 N   0  0  0  0  0  0  0  0  0  0  0  0
  152.4918  140.8549  158.6258 C   0  0  0  0  0  0  0  0  0  0  0  0
  153.0268  139.8030  158.2775 O   0  0  0  0  0  0  0  0  0  0  0  0
  152.6105  141.4432  160.0238 C   0  0  1  0  0  0  0  0  0  0  0  0
  153.8978  141.3617  160.8458 C   0  0  0  0  0  0  0  0  0  0  0  0
  153.6069  142.0575  162.2020 C   0  0  0  0  0  0  0  0  0  0  0  0
  152.9783  143.4758  162.0642 C   0  0  0  0  0  0  0  0  0  0  0  0
  151.7934  143.5482  161.0645 C   0  0  0  0  0  0  0  0  0  0  0  0
  152.2690  142.8975  159.7649 C   0  0  2  0  0  0  0  0  0  0  0  0
  151.3822  142.7833  158.5337 C   0  0  0  0  0  0  0  0  0  0  0  0
  150.5976  143.6595  158.1714 O   0  0  0  0  0  0  0  0  0  0  0  0
  150.6371  138.2683  158.3646 N   0  0  0  0  0  0  0  0  0  0  0  0
  150.0254  137.5540  159.4829 C   0  0  0  0  0  0  0  0  0  0  0  0
  148.5974  137.0669  159.1614 C   0  0  0  0  0  0  0  0  0  0  0  0
  147.8268  136.5682  160.3735 C   0  0  0  0  0  0  0  0  0  0  0  0
  147.4581  135.2104  160.4792 C   0  0  0  0  0  0  0  0  0  0  0  0
  146.7896  134.7857  161.6437 C   0  0  0  0  0  0  0  0  0  0  0  0
  146.5159  135.7300  162.6520 C   0  0  0  0  0  0  0  0  0  0  0  0
  146.9234  137.0635  162.4498 C   0  0  0  0  0  0  0  0  0  0  0  0
  147.5661  137.4807  161.3380 N   0  0  0  0  0  0  0  0  0  0  0  0
  151.7397  139.1979  156.3370 H   0  0  0  0  0  0  0  0  0  0  0  0
  150.2184  139.6067  155.5750 H   0  0  0  0  0  0  0  0  0  0  0  0
  151.9260  141.5535  155.8173 H   0  0  0  0  0  0  0  0  0  0  0  0
  150.2971  141.8895  156.3223 H   0  0  0  0  0  0  0  0  0  0  0  0
  151.8132  140.9684  160.6004 H   0  0  0  0  0  0  0  0  0  0  0  0
  154.1923  140.3241  161.0055 H   0  0  0  0  0  0  0  0  0  0  0  0
  154.7221  141.8538  160.3278 H   0  0  0  0  0  0  0  0  0  0  0  0
  152.9227  141.4305  162.7749 H   0  0  0  0  0  0  0  0  0  0  0  0
  154.5223  142.1152  162.7916 H   0  0  0  0  0  0  0  0  0  0  0  0
  152.6578  143.8345  163.0427 H   0  0  0  0  0  0  0  0  0  0  0  0
  153.7555  144.1658  161.7332 H   0  0  0  0  0  0  0  0  0  0  0  0
  150.9200  143.0296  161.4618 H   0  0  0  0  0  0  0  0  0  0  0  0
  151.5017  144.5853  160.8951 H   0  0  0  0  0  0  0  0  0  0  0  0
  153.1571  143.4358  159.4258 H   0  0  0  0  0  0  0  0  0  0  0  0
  151.5192  137.9110  158.0269 H   0  0  0  0  0  0  0  0  0  0  0  0
  150.6555  136.7000  159.7319 H   0  0  0  0  0  0  0  0  0  0  0  0
  150.0058  138.1834  160.3742 H   0  0  0  0  0  0  0  0  0  0  0  0
  148.0344  137.8781  158.6968 H   0  0  0  0  0  0  0  0  0  0  0  0
  148.6413  136.2701  158.4181 H   0  0  0  0  0  0  0  0  0  0  0  0
  147.6945  134.5080  159.6936 H   0  0  0  0  0  0  0  0  0  0  0  0
  146.4968  133.7531  161.7631 H   0  0  0  0  0  0  0  0  0  0  0  0
  146.0075  135.4391  163.5591 H   0  0  0  0  0  0  0  0  0  0  0  0
  146.7330  137.8139  163.2029 H   0  0  0  0  0  0  0  0  0  0  0  0
  1  2  2  0  0  0  0
  2  3  1  0  0  0  0
  2 16  1  0  0  0  0
  3  4  1  0  0  0  0
  3 25  1  0  0  0  0
  3 26  1  0  0  0  0
  4  5  1  0  0  0  0
  4 27  1  0  0  0  0
  4 28  1  0  0  0  0
  5 14  1  0  0  0  0
  5  6  1  0  0  0  0
  6  7  2  0  0  0  0
  6  8  1  0  0  0  0
  8 13  1  0  0  0  0
  8  9  1  0  0  0  0
  8 29  1  0  0  0  0
  9 10  1  0  0  0  0
  9 30  1  0  0  0  0
  9 31  1  0  0  0  0
 10 11  1  0  0  0  0
 10 32  1  0  0  0  0
 10 33  1  0  0  0  0
 11 12  1  0  0  0  0
 11 34  1  0  0  0  0
 11 35  1  0  0  0  0
 12 13  1  0  0  0  0
 12 36  1  0  0  0  0
 12 37  1  0  0  0  0
 13 14  1  0  0  0  0
 13 38  1  0  0  0  0
 14 15  2  0  0  0  0
 16 17  1  0  0  0  0
 16 39  1  0  0  0  0
 17 18  1  0  0  0  0
 17 40  1  0  0  0  0
 17 41  1  0  0  0  0
 18 19  1  0  0  0  0
 18 42  1  0  0  0  0
 18 43  1  0  0  0  0
 19 24  1  0  0  0  0
 19 20  2  0  0  0  0
 20 21  1  0  0  0  0
 20 44  1  0  0  0  0
 21 22  2  0  0  0  0
 21 45  1  0  0  0  0
 22 23  1  0  0  0  0
 22 46  1  0  0  0  0
 23 24  2  0  0  0  0
 23 47  1  0  0  0  0
M  END
> <s_m_source_file>
AV-unprocessed.smi

> <i_m_source_file_index>
2159

> <i_lp_mmshare_version>
43012

> <i_f3d_flags>
0

> <s_epik_input>
bjFbY0hdW2NIXVtjSF1bY0hdYzFbQ0gyXVtDSDJdW05IXUMoPU8pW0NIMl1bQ0gyXU4oQzI9TylDKD1PKVtDQEhdKFtDQEBIXTIzKVtDSDJdW0NIMl1bQ0gyXVtDSDJdMw==

> <s_epik_cmdline>
J2VwaWtfcHl0aG9uJywgJy1waCcsICc3LjAnLCAnLXRuJywgJzgnLCAnLW1hJywgJzIwMCcsICctbWV0YWxfYmluZGluZycsICctaW1hZScsICc8aW5maWxlLm1hZT4nLCAnLW9tYWUnLCAnPG91dGZpbGUubWFlPic=

> <r_lp_tautomer_probability>
1

> <r_epik_Ionization_Penalty>
0.026624

> <r_epik_Ionization_Penalty_Charging>
0

> <r_epik_Ionization_Penalty_Neutral>
0.026624

> <r_epik_State_Penalty>
0.0217444

> <r_epik_Charging_Adjusted_Penalty>
0.0217444

> <i_epik_Tot_Q>
0

> <i_epik_Tot_abs_Q>
0

> <r_epik_Metal_State_Penalty>
0.0208054

> <b_epik_Metal_Only>
0

> <s_lp_Force_Field>
OPLS_2005

> <r_lp_Energy>
31.6251

> <b_lp_Chiralities_Consistent>
1

> <s_lp_Variant>
AV-unprocessed.smi:2159-1

> <Gold.Version>
5.8.1

> <Gold.Id.Protein>
6NUR|6NUR_protein|mol2

> <Gold.PLP.Fitness>
58.5840

> <Gold.PLP.PLP>
-51.2032

> <Gold.PLP.part.hbond>
-3.1015

> <Gold.PLP.part.metal>
0.0000

> <Gold.PLP.part.buried>
-4.2055

> <Gold.PLP.part.nonpolar>
-43.4045

> <Gold.PLP.part.repulsive>
0.2708

> <Gold.PLP.ligand.clash>
0.0000

> <Gold.PLP.ligand.torsion>
0.4698

> <Gold.PLP.Chemscore.Hbond>
2.7200

> <Gold.PLP.Chemscore.CHOScore>
0.0000

> <Gold.PLP.Chemscore.Metal>
0.0000

> <Gold.Chemscore.Hbonds>
donor molecule, donor type, donor heavy atom, donor atom, acceptor molecule, acceptor atom, score
      P1  H  6931  6943       L1    24  0.78
      P1  H  6934  6947       L1    24  0.83
      P1  H  7997  8010       L1     7  0.98

> <Gold.PLP.Chemscore.Internal.Correction>
0.1604

> <Gold.Rescore>
     Score         DG    S(hbond)    S(metal)    S(lipo)     H(rot)  DE(clash)    DE(int)     intcor
     18.24     -21.80       2.03        0.00     124.72       1.97       1.88       1.68       ----

> <Gold.Chemscore.Fitness>
18.2426

> <Gold.Chemscore.DG>
-21.8020

> <Gold.Chemscore.ZeroCoef>
-5.4800

> <Gold.Chemscore.Hbond>
2.0281

> <Gold.Chemscore.Metal>
0.0000

> <Gold.Chemscore.Lipo>
124.7224

> <Gold.Chemscore.Internal_Hbond>
0.0000

> <Gold.Chemscore.DEClash>
1.8821

> <Gold.Chemscore.DEInternal>
1.6772

> <Gold.Chemscore.Rot>
1.9704

> <Gold.Chemscore.Internal.Correction>
   9.000000E+99

> <Gold.Chemscore.Hbonds>
donor molecule, donor type, donor heavy atom, donor atom, acceptor molecule, acceptor atom, score
      P1  H  6931  6943       L1    24  0.35
      P1  H  6934  6947       L1    24  0.65
      P1  H  7997  8010       L1     7  0.81

> <Gold.Chemscore.Hbond.Weighted>
-6.7737

> <Gold.Chemscore.Metal.Weighted>
-0.0000

> <Gold.Chemscore.Lipo.Weighted>
-14.5925

> <Gold.Chemscore.Internal_Hbond.Weighted>
0.0000

> <Gold.Chemscore.DEClash.Weighted>
1.8821

> <Gold.Chemscore.DEInternal.Weighted>
1.6772

> <Gold.Chemscore.Rot.Weighted>
5.0443

> <Gold.Chemscore.Internal.Correction.Weighted>
   9.000000E+99

> <Gold.Protein.RotatedTorsions>
[ 6907 6896 6895 6894 ] final  -58.35 input  -60.11 | X-H torsion
[ 7974 7965 7964 7962 ] final   30.95 input  175.53 | X-H torsion
[ 8008 7997 7996 7995 ] final   24.82 input   59.86 | X-H torsion
[ 10167 10162 10161 10158 ] final  102.27 input  -65.29 | X-H torsion
[ 10718 10713 10712 10709 ] final -101.37 input   66.30 | X-H torsion
[ 10763 10752 10751 10750 ] final  -77.34 input  -60.55 | X-H torsion
[ 11005 11000 10999 10996 ] final    0.60 input  -57.11 | X-H torsion

> <Gold.Protein.ActiveResidues>
 VAL166  LYS551  ARG553  GLY616  TRP617  ASP618  TYR619  PRO620  LYS621  CYS622 
 ASP623  PHE694  ASN695  SER759  ASP760  ASP761  ALA762  ILE779  LEU786  VAL792 
 PHE793  MET794  SER795  GLU796  ALA797  LYS798  CYS799  TRP800  GLU811  SER814 

> <Gold.Protein.RotatedAtoms>
  150.8013  134.7109  159.6603 H   0  0  0  0  0  0  0  0  0  0  0  0  # atno 6907 bound_to 6896
  152.4130  134.6087  160.0029 H   0  0  0  0  0  0  0  0  0  0  0  0  # atno 6908 bound_to 6896
  151.6324  133.3294  159.3148 H   0  0  0  0  0  0  0  0  0  0  0  0  # atno 6909 bound_to 6896
  146.1580  139.6721  142.9053 H   0  0  0  0  0  0  0  0  0  0  0  0  # atno 7974 bound_to 7965
  155.0022  140.3126  155.4863 H   0  0  0  0  0  0  0  0  0  0  0  0  # atno 8008 bound_to 7997
  156.2923  140.2230  156.5073 H   0  0  0  0  0  0  0  0  0  0  0  0  # atno 8009 bound_to 7997
  154.7608  140.0459  157.0960 H   0  0  0  0  0  0  0  0  0  0  0  0  # atno 8010 bound_to 7997
  139.7365  144.7022  151.0641 H   0  0  0  0  0  0  0  0  0  0  0  0  # atno 10167 bound_to 10162
  156.0192  130.5370  150.6954 H   0  0  0  0  0  0  0  0  0  0  0  0  # atno 10718 bound_to 10713
  154.5117  135.5767  153.6610 H   0  0  0  0  0  0  0  0  0  0  0  0  # atno 10763 bound_to 10752
  152.9898  135.6160  154.2870 H   0  0  0  0  0  0  0  0  0  0  0  0  # atno 10764 bound_to 10752
  154.2785  135.2851  155.2687 H   0  0  0  0  0  0  0  0  0  0  0  0  # atno 10765 bound_to 10752
  140.6248  133.9629  155.8243 H   0  0  0  0  0  0  0  0  0  0  0  0  # atno 11005 bound_to 11000
  145.4659  141.0434  143.2725 LP  0  0  0  0  0  0  0  0  0  0  0  0  # atno 17320 bound_to 7965
  144.7989  139.6179  143.7080 LP  0  0  0  0  0  0  0  0  0  0  0  0  # atno 17321 bound_to 7965
  140.7779  143.4978  150.9810 LP  0  0  0  0  0  0  0  0  0  0  0  0  # atno 17342 bound_to 10162
  139.8666  143.7246  152.3169 LP  0  0  0  0  0  0  0  0  0  0  0  0  # atno 17343 bound_to 10162
  157.4626  131.0885  151.0729 LP  0  0  0  0  0  0  0  0  0  0  0  0  # atno 17370 bound_to 10713
  157.1213  130.6063  149.5506 LP  0  0  0  0  0  0  0  0  0  0  0  0  # atno 17371 bound_to 10713
  141.0717  134.0195  157.3516 LP  0  0  0  0  0  0  0  0  0  0  0  0  # atno 17394 bound_to 11000
  139.9139  135.0194  156.7803 LP  0  0  0  0  0  0  0  0  0  0  0  0  # atno 17395 bound_to 11000

$$$$
