AV-unprocessed.smi:532|AV-procd|sdf|2850|dock6
  -GOLD-   2262023343D 1   1.00000     0.00000
 Structure written by MMmdl.
 49 51  0  0  0  0  0  0  0  0  1 V2000
  153.8208  137.8071  159.1467 C   0  0  0  0  0  0  0  0  0  0  0  0
  153.6881  138.5322  157.9369 O   0  0  0  0  0  0  0  0  0  0  0  0
  152.3375  138.8370  157.6349 C   0  0  0  0  0  0  0  0  0  0  0  0
  152.2826  139.5857  156.2981 C   0  0  0  0  0  0  0  0  0  0  0  0
  150.9722  140.1796  156.0729 N   0  0  0  0  0  0  0  0  0  0  0  0
  150.3924  141.2074  156.7432 C   0  0  0  0  0  0  0  0  0  0  0  0
  151.0406  141.8364  157.8020 N   0  0  0  0  0  0  0  0  0  0  0  0
  151.2096  141.2035  159.1108 C   0  0  0  0  0  0  0  0  0  0  0  0
  152.5036  141.6224  159.8451 C   0  0  1  0  0  0  0  0  0  0  0  0
  153.7670  140.9588  159.2727 C   0  0  0  0  0  0  0  0  0  0  0  0
  152.6180  143.1550  159.9125 C   0  0  0  0  0  0  0  0  0  0  0  0
  152.4090  143.7899  158.5284 C   0  0  2  0  0  0  0  0  0  0  0  0
  152.4479  145.3222  158.6034 C   0  0  0  0  0  0  0  0  0  0  0  0
  151.0837  143.2911  157.9254 C   0  0  0  0  0  0  0  0  0  0  0  0
  149.1801  141.5541  156.3016 N   0  0  0  0  0  0  0  0  0  0  0  0
  148.9637  140.6556  155.2668 C   0  0  0  0  0  0  0  0  0  0  0  0
  150.0232  139.8212  155.1171 C   0  0  0  0  0  0  0  0  0  0  0  0
  150.0579  138.7652  154.0991 C   0  0  0  0  0  0  0  0  0  0  0  0
  151.0030  137.9926  153.9569 O   0  0  0  0  0  0  0  0  0  0  0  0
  148.9384  138.7292  153.3359 N   0  0  0  0  0  0  0  0  0  0  0  0
  147.8384  139.5381  153.4310 C   0  0  0  0  0  0  0  0  0  0  0  0
  146.8943  139.3756  152.6587 O   0  0  0  0  0  0  0  0  0  0  0  0
  147.8435  140.5088  154.4027 N   0  0  0  0  0  0  0  0  0  0  0  0
  146.7161  141.4238  154.5909 C   0  0  0  0  0  0  0  0  0  0  0  0
  148.9113  138.0224  152.6156 H   0  0  0  0  0  0  0  0  0  0  0  0
  154.8737  137.5972  159.3351 H   0  0  0  0  0  0  0  0  0  0  0  0
  153.2913  136.8549  159.0957 H   0  0  0  0  0  0  0  0  0  0  0  0
  153.4354  138.3774  159.9930 H   0  0  0  0  0  0  0  0  0  0  0  0
  151.7491  137.9200  157.5784 H   0  0  0  0  0  0  0  0  0  0  0  0
  151.9073  139.4506  158.4271 H   0  0  0  0  0  0  0  0  0  0  0  0
  153.0387  140.3691  156.2641 H   0  0  0  0  0  0  0  0  0  0  0  0
  152.5203  138.9155  155.4725 H   0  0  0  0  0  0  0  0  0  0  0  0
  150.3446  141.4641  159.7220 H   0  0  0  0  0  0  0  0  0  0  0  0
  151.1813  140.1193  158.9954 H   0  0  0  0  0  0  0  0  0  0  0  0
  152.4181  141.2613  160.8704 H   0  0  0  0  0  0  0  0  0  0  0  0
  153.9554  141.2562  158.2430 H   0  0  0  0  0  0  0  0  0  0  0  0
  153.6829  139.8724  159.2972 H   0  0  0  0  0  0  0  0  0  0  0  0
  154.6475  141.2287  159.8561 H   0  0  0  0  0  0  0  0  0  0  0  0
  151.8610  143.5370  160.5991 H   0  0  0  0  0  0  0  0  0  0  0  0
  153.5830  143.4480  160.3280 H   0  0  0  0  0  0  0  0  0  0  0  0
  153.2217  143.4752  157.8725 H   0  0  0  0  0  0  0  0  0  0  0  0
  151.6482  145.7091  159.2359 H   0  0  0  0  0  0  0  0  0  0  0  0
  152.3349  145.7657  157.6137 H   0  0  0  0  0  0  0  0  0  0  0  0
  153.3958  145.6710  159.0139 H   0  0  0  0  0  0  0  0  0  0  0  0
  150.9420  143.7316  156.9376 H   0  0  0  0  0  0  0  0  0  0  0  0
  150.2410  143.6202  158.5349 H   0  0  0  0  0  0  0  0  0  0  0  0
  145.8926  141.2649  153.8941 H   0  0  0  0  0  0  0  0  0  0  0  0
  147.0507  142.4549  154.4713 H   0  0  0  0  0  0  0  0  0  0  0  0
  146.3158  141.3163  155.5994 H   0  0  0  0  0  0  0  0  0  0  0  0
  1  2  1  0  0  0  0
  1 26  1  0  0  0  0
  1 27  1  0  0  0  0
  1 28  1  0  0  0  0
  2  3  1  0  0  0  0
  3  4  1  0  0  0  0
  3 29  1  0  0  0  0
  3 30  1  0  0  0  0
  4  5  1  0  0  0  0
  4 31  1  0  0  0  0
  4 32  1  0  0  0  0
  5 17  1  0  0  0  0
  5  6  1  0  0  0  0
  6  7  1  0  0  0  0
  6 15  2  0  0  0  0
  7 14  1  0  0  0  0
  7  8  1  0  0  0  0
  8  9  1  0  0  0  0
  8 33  1  0  0  0  0
  8 34  1  0  0  0  0
  9 10  1  0  0  0  0
  9 11  1  0  0  0  0
  9 35  1  0  0  0  0
 10 36  1  0  0  0  0
 10 37  1  0  0  0  0
 10 38  1  0  0  0  0
 11 12  1  0  0  0  0
 11 39  1  0  0  0  0
 11 40  1  0  0  0  0
 12 13  1  0  0  0  0
 12 14  1  0  0  0  0
 12 41  1  0  0  0  0
 13 42  1  0  0  0  0
 13 43  1  0  0  0  0
 13 44  1  0  0  0  0
 14 45  1  0  0  0  0
 14 46  1  0  0  0  0
 15 16  1  0  0  0  0
 16 23  1  0  0  0  0
 16 17  2  0  0  0  0
 17 18  1  0  0  0  0
 18 19  2  0  0  0  0
 18 20  1  0  0  0  0
 20 25  1  0  0  0  0
 20 21  1  0  0  0  0
 21 22  2  0  0  0  0
 21 23  1  0  0  0  0
 23 24  1  0  0  0  0
 24 47  1  0  0  0  0
 24 48  1  0  0  0  0
 24 49  1  0  0  0  0
M  END
> <s_m_source_file>
AV-unprocessed.smi

> <i_m_source_file_index>
532

> <i_lp_mmshare_version>
43012

> <i_f3d_flags>
0

> <s_epik_input>
W0NIM11uMWMoPU8pW25IXWMoPU8pYyhjMTIpbihbQ0gyXVtDSDJdT1tDSDNdKWMobjIpTjNbQ0gyXVtDQEBIXShbQ0gzXSlbQ0gyXVtDQEBIXShbQ0gzXSlbQ0gyXTM=

> <s_epik_cmdline>
J2VwaWtfcHl0aG9uJywgJy1waCcsICc3LjAnLCAnLXRuJywgJzgnLCAnLW1hJywgJzIwMCcsICctbWV0YWxfYmluZGluZycsICctaW1hZScsICc8aW5maWxlLm1hZT4nLCAnLW9tYWUnLCAnPG91dGZpbGUubWFlPic=

> <r_lp_tautomer_probability>
1

> <r_epik_Ionization_Penalty>
0.000642525

> <r_epik_Ionization_Penalty_Charging>
0.000121571

> <r_epik_Ionization_Penalty_Neutral>
0.000520954

> <r_epik_State_Penalty>
-0

> <r_epik_Charging_Adjusted_Penalty>
0.000121571

> <i_epik_Tot_Q>
0

> <i_epik_Tot_abs_Q>
0

> <r_epik_Metal_State_Penalty>
0.0931709

> <b_epik_Metal_Only>
0

> <s_lp_Force_Field>
OPLS_2005

> <r_lp_Energy>
43.7667

> <b_lp_Chiralities_Consistent>
1

> <s_lp_Variant>
AV-unprocessed.smi:532-3

> <Gold.Version>
5.8.1

> <Gold.Id.Protein>
6NUR|6NUR_protein|mol2

> <Gold.PLP.Fitness>
47.5739

> <Gold.PLP.PLP>
-43.0060

> <Gold.PLP.part.hbond>
-3.0000

> <Gold.PLP.part.metal>
0.0000

> <Gold.PLP.part.buried>
-3.3383

> <Gold.PLP.part.nonpolar>
-37.2020

> <Gold.PLP.part.repulsive>
0.7248

> <Gold.PLP.ligand.clash>
0.0000

> <Gold.PLP.ligand.torsion>
1.1680

> <Gold.PLP.Chemscore.Hbond>
2.0000

> <Gold.PLP.Chemscore.CHOScore>
0.0000

> <Gold.PLP.Chemscore.Metal>
0.0000

> <Gold.Chemscore.Hbonds>
donor molecule, donor type, donor heavy atom, donor atom, acceptor molecule, acceptor atom, score
      L1  H    20    25       P1  7948  1.00
      P1  H  7997  8010       L1     2  1.00

> <Gold.PLP.Chemscore.Internal.Correction>
0.9038

> <Gold.Rescore>
     Score         DG    S(hbond)    S(metal)    S(lipo)     H(rot)  DE(clash)    DE(int)     intcor
     15.59     -19.50       1.77        0.00     100.53       1.43       1.19       2.73       ----

> <Gold.Chemscore.Fitness>
15.5876

> <Gold.Chemscore.DG>
-19.5001

> <Gold.Chemscore.ZeroCoef>
-5.4800

> <Gold.Chemscore.Hbond>
1.7740

> <Gold.Chemscore.Metal>
0.0000

> <Gold.Chemscore.Lipo>
100.5288

> <Gold.Chemscore.Internal_Hbond>
0.0000

> <Gold.Chemscore.DEClash>
1.1858

> <Gold.Chemscore.DEInternal>
2.7268

> <Gold.Chemscore.Rot>
1.4324

> <Gold.Chemscore.Internal.Correction>
   9.000000E+99

> <Gold.Chemscore.Hbonds>
donor molecule, donor type, donor heavy atom, donor atom, acceptor molecule, acceptor atom, score
      L1  H    20    25       P1  7948  0.99
      P1  H  7997  8010       L1     2  0.29

> <Gold.Chemscore.Hbond.Weighted>
-5.9251

> <Gold.Chemscore.Metal.Weighted>
-0.0000

> <Gold.Chemscore.Lipo.Weighted>
-11.7619

> <Gold.Chemscore.Internal_Hbond.Weighted>
0.0000

> <Gold.Chemscore.DEClash.Weighted>
1.1858

> <Gold.Chemscore.DEInternal.Weighted>
2.7268

> <Gold.Chemscore.Rot.Weighted>
3.6669

> <Gold.Chemscore.Internal.Correction.Weighted>
   9.000000E+99

> <Gold.Protein.RotatedTorsions>
[ 6907 6896 6895 6894 ] final  -16.10 input  -60.11 | X-H torsion
[ 7974 7965 7964 7962 ] final   64.76 input  175.53 | X-H torsion
[ 8008 7997 7996 7995 ] final   33.16 input   59.86 | X-H torsion
[ 10167 10162 10161 10158 ] final  -62.93 input  -65.29 | X-H torsion
[ 10718 10713 10712 10709 ] final  128.51 input   66.30 | X-H torsion
[ 10763 10752 10751 10750 ] final  103.76 input  -60.55 | X-H torsion
[ 11005 11000 10999 10996 ] final  -92.95 input  -57.11 | X-H torsion

> <Gold.Protein.ActiveResidues>
 VAL166  LYS551  ARG553  GLY616  TRP617  ASP618  TYR619  PRO620  LYS621  CYS622 
 ASP623  PHE694  ASN695  SER759  ASP760  ASP761  ALA762  ILE779  LEU786  VAL792 
 PHE793  MET794  SER795  GLU796  ALA797  LYS798  CYS799  TRP800  GLU811  SER814 

> <Gold.Protein.RotatedAtoms>
  151.3138  135.0801  159.9281 H   0  0  0  0  0  0  0  0  0  0  0  0  # atno 6907 bound_to 6896
  152.5272  133.9708  159.7771 H   0  0  0  0  0  0  0  0  0  0  0  0  # atno 6908 bound_to 6896
  151.0017  133.5998  159.2724 H   0  0  0  0  0  0  0  0  0  0  0  0  # atno 6909 bound_to 6896
  145.8464  139.3227  143.0901 H   0  0  0  0  0  0  0  0  0  0  0  0  # atno 7974 bound_to 7965
  155.1341  140.3260  155.4467 H   0  0  0  0  0  0  0  0  0  0  0  0  # atno 8008 bound_to 7997
  156.2625  140.2005  156.6408 H   0  0  0  0  0  0  0  0  0  0  0  0  # atno 8009 bound_to 7997
  154.6591  140.0549  157.0028 H   0  0  0  0  0  0  0  0  0  0  0  0  # atno 8010 bound_to 7997
  140.5905  143.2341  151.6149 H   0  0  0  0  0  0  0  0  0  0  0  0  # atno 10167 bound_to 10162
  157.5238  131.1098  150.9114 H   0  0  0  0  0  0  0  0  0  0  0  0  # atno 10718 bound_to 10713
  153.3570  135.3966  155.1689 H   0  0  0  0  0  0  0  0  0  0  0  0  # atno 10763 bound_to 10752
  154.8672  135.3670  154.5148 H   0  0  0  0  0  0  0  0  0  0  0  0  # atno 10764 bound_to 10752
  153.5605  135.7081  153.5610 H   0  0  0  0  0  0  0  0  0  0  0  0  # atno 10765 bound_to 10752
  141.1509  133.7855  157.0092 H   0  0  0  0  0  0  0  0  0  0  0  0  # atno 11005 bound_to 11000
  145.9407  140.8982  143.0309 LP  0  0  0  0  0  0  0  0  0  0  0  0  # atno 17320 bound_to 7965
  144.6731  140.1544  143.7427 LP  0  0  0  0  0  0  0  0  0  0  0  0  # atno 17321 bound_to 7965
  139.5224  144.3162  152.0950 LP  0  0  0  0  0  0  0  0  0  0  0  0  # atno 17342 bound_to 10162
  140.2326  144.4353  150.6293 LP  0  0  0  0  0  0  0  0  0  0  0  0  # atno 17343 bound_to 10162
  156.9716  130.5493  149.5291 LP  0  0  0  0  0  0  0  0  0  0  0  0  # atno 17370 bound_to 10713
  156.0372  130.5458  150.8682 LP  0  0  0  0  0  0  0  0  0  0  0  0  # atno 17371 bound_to 10713
  140.0889  134.9604  157.1744 LP  0  0  0  0  0  0  0  0  0  0  0  0  # atno 17394 bound_to 11000
  140.3473  134.2637  155.7203 LP  0  0  0  0  0  0  0  0  0  0  0  0  # atno 17395 bound_to 11000

$$$$
