AV-unprocessed.smi:387|AV-procd|sdf|2474|dock3
  -GOLD-   2262022413D 1   1.00000     0.00000
 Structure written by MMmdl.
 39 40  0  0  0  0  0  0  0  0  1 V2000
  152.4194  143.1600  161.5763 C   0  0  0  0  0  0  0  0  0  0  0  0
  153.0143  142.3326  160.4229 C   0  0  0  0  0  0  0  0  0  0  0  0
  153.6170  143.2930  159.3759 C   0  0  0  0  0  0  0  0  0  0  0  0
  154.1009  141.3936  160.9882 C   0  0  0  0  0  0  0  0  0  0  0  0
  151.9107  141.5594  159.8407 N   0  0  0  0  0  0  0  0  0  0  0  0
  151.9628  140.6180  158.8822 C   0  0  0  0  0  0  0  0  0  0  0  0
  153.0050  140.2552  158.3347 O   0  0  0  0  0  0  0  0  0  0  0  0
  150.6109  140.0011  158.4914 C   0  0  0  0  0  0  0  0  0  0  0  0
  150.4235  139.8607  157.0306 N   0  0  0  0  0  0  0  0  0  0  0  0
  151.1609  138.8625  156.3441 C   0  0  0  0  0  0  0  0  0  0  0  0
  151.9217  138.1055  156.9500 O   0  0  0  0  0  0  0  0  0  0  0  0
  150.9626  138.8173  154.8974 C   0  0  0  0  0  0  0  0  0  0  0  0
  151.7119  137.8490  154.1676 C   0  0  0  0  0  0  0  0  0  0  0  0
  152.3400  137.0671  153.5900 N   0  0  0  0  0  0  0  0  0  0  0  0
  150.1095  139.6646  154.2860 C   0  0  0  0  0  0  0  0  0  0  0  0
  149.3726  140.6017  154.9769 N   0  0  0  0  0  0  0  0  0  0  0  0
  148.5941  141.5948  154.2920 C   0  0  0  0  0  0  0  0  0  0  0  0
  147.1515  141.8439  154.6871 C   0  0  0  0  0  0  0  0  0  0  0  0
  147.4678  141.1476  153.3859 C   0  0  0  0  0  0  0  0  0  0  0  0
  149.5518  140.7593  156.3686 C   0  0  0  0  0  0  0  0  0  0  0  0
  148.9778  141.6582  156.9887 O   0  0  0  0  0  0  0  0  0  0  0  0
  153.1822  143.7687  162.0631 H   0  0  0  0  0  0  0  0  0  0  0  0
  151.9768  142.5182  162.3392 H   0  0  0  0  0  0  0  0  0  0  0  0
  151.6392  143.8350  161.2217 H   0  0  0  0  0  0  0  0  0  0  0  0
  152.8529  143.9408  158.9447 H   0  0  0  0  0  0  0  0  0  0  0  0
  154.0969  142.7587  158.5561 H   0  0  0  0  0  0  0  0  0  0  0  0
  154.3752  143.9357  159.8243 H   0  0  0  0  0  0  0  0  0  0  0  0
  154.8765  141.9586  161.5063 H   0  0  0  0  0  0  0  0  0  0  0  0
  154.5957  140.8185  160.2056 H   0  0  0  0  0  0  0  0  0  0  0  0
  153.6805  140.6847  161.7026 H   0  0  0  0  0  0  0  0  0  0  0  0
  150.9955  141.7687  160.2122 H   0  0  0  0  0  0  0  0  0  0  0  0
  150.5130  139.0362  158.9917 H   0  0  0  0  0  0  0  0  0  0  0  0
  149.8157  140.6065  158.9297 H   0  0  0  0  0  0  0  0  0  0  0  0
  149.9939  139.6056  153.2132 H   0  0  0  0  0  0  0  0  0  0  0  0
  149.1501  142.4693  153.9584 H   0  0  0  0  0  0  0  0  0  0  0  0
  146.7224  141.2374  155.4826 H   0  0  0  0  0  0  0  0  0  0  0  0
  146.7881  142.8680  154.6353 H   0  0  0  0  0  0  0  0  0  0  0  0
  147.3124  141.7073  152.4658 H   0  0  0  0  0  0  0  0  0  0  0  0
  147.2489  140.0831  153.3257 H   0  0  0  0  0  0  0  0  0  0  0  0
  1  2  1  0  0  0  0
  1 22  1  0  0  0  0
  1 23  1  0  0  0  0
  1 24  1  0  0  0  0
  2  3  1  0  0  0  0
  2  4  1  0  0  0  0
  2  5  1  0  0  0  0
  3 25  1  0  0  0  0
  3 26  1  0  0  0  0
  3 27  1  0  0  0  0
  4 28  1  0  0  0  0
  4 29  1  0  0  0  0
  4 30  1  0  0  0  0
  5  6  1  0  0  0  0
  5 31  1  0  0  0  0
  6  7  2  0  0  0  0
  6  8  1  0  0  0  0
  8  9  1  0  0  0  0
  8 32  1  0  0  0  0
  8 33  1  0  0  0  0
  9 20  1  0  0  0  0
  9 10  1  0  0  0  0
 10 11  2  0  0  0  0
 10 12  1  0  0  0  0
 12 13  1  0  0  0  0
 12 15  2  0  0  0  0
 13 14  3  0  0  0  0
 15 16  1  0  0  0  0
 15 34  1  0  0  0  0
 16 17  1  0  0  0  0
 16 20  1  0  0  0  0
 17 19  1  0  0  0  0
 17 18  1  0  0  0  0
 17 35  1  0  0  0  0
 18 19  1  0  0  0  0
 18 36  1  0  0  0  0
 18 37  1  0  0  0  0
 19 38  1  0  0  0  0
 19 39  1  0  0  0  0
 20 21  2  0  0  0  0
M  END
> <s_m_source_file>
AV-unprocessed.smi

> <i_m_source_file_index>
387

> <i_lp_mmshare_version>
43012

> <i_f3d_flags>
0

> <s_epik_input>
W0NIM11DKFtDSDNdKShbQ0gzXSlbTkhdQyg9TylbQ0gyXW4xYyg9TyljKEMjTilbY0hdbihjMT1PKVtDSF0yW0NIMl1bQ0gyXTI=

> <s_epik_cmdline>
J2VwaWtfcHl0aG9uJywgJy1waCcsICc3LjAnLCAnLXRuJywgJzgnLCAnLW1hJywgJzIwMCcsICctbWV0YWxfYmluZGluZycsICctaW1hZScsICc8aW5maWxlLm1hZT4nLCAnLW9tYWUnLCAnPG91dGZpbGUubWFlPic=

> <r_lp_tautomer_probability>
1

> <r_epik_Ionization_Penalty>
2.47136e-08

> <r_epik_Ionization_Penalty_Charging>
8.30431e-11

> <r_epik_Ionization_Penalty_Neutral>
2.46306e-08

> <r_epik_State_Penalty>
-0

> <r_epik_Charging_Adjusted_Penalty>
8.30431e-11

> <i_epik_Tot_Q>
0

> <i_epik_Tot_abs_Q>
0

> <r_epik_Metal_State_Penalty>
-0

> <b_epik_Metal_Only>
0

> <s_lp_Force_Field>
OPLS_2005

> <r_lp_Energy>
29.2267

> <b_lp_Chiralities_Consistent>
1

> <s_lp_Variant>
AV-unprocessed.smi:387-1

> <Gold.Version>
5.8.1

> <Gold.Id.Protein>
6NUR|6NUR_protein|mol2

> <Gold.PLP.Fitness>
45.1228

> <Gold.PLP.PLP>
-37.0469

> <Gold.PLP.part.hbond>
-1.9322

> <Gold.PLP.part.metal>
0.0000

> <Gold.PLP.part.buried>
-3.5758

> <Gold.PLP.part.nonpolar>
-33.8811

> <Gold.PLP.part.repulsive>
3.7750

> <Gold.PLP.ligand.clash>
0.0000

> <Gold.PLP.ligand.torsion>
0.5215

> <Gold.PLP.Chemscore.Hbond>
1.9680

> <Gold.PLP.Chemscore.CHOScore>
1.0000

> <Gold.PLP.Chemscore.Metal>
0.0000

> <Gold.Chemscore.Hbonds>
donor molecule, donor type, donor heavy atom, donor atom, acceptor molecule, acceptor atom, score
      P1  H  7997  8010       L1     7  0.87
      P1  H 10752 10763       L1    14  0.96
      L1  C    15    34       P1  7957  1.00

> <Gold.PLP.Chemscore.Internal.Correction>
0.2148

> <Gold.Rescore>
     Score         DG    S(hbond)    S(metal)    S(lipo)     H(rot)  DE(clash)    DE(int)     intcor
     13.86     -17.37       1.85        0.00      87.69       1.78       1.70       1.82       ----

> <Gold.Chemscore.Fitness>
13.8584

> <Gold.Chemscore.DG>
-17.3738

> <Gold.Chemscore.ZeroCoef>
-5.4800

> <Gold.Chemscore.Hbond>
1.8503

> <Gold.Chemscore.Metal>
0.0000

> <Gold.Chemscore.Lipo>
87.6907

> <Gold.Chemscore.Internal_Hbond>
0.0000

> <Gold.Chemscore.DEClash>
1.6982

> <Gold.Chemscore.DEInternal>
1.8172

> <Gold.Chemscore.Rot>
1.7757

> <Gold.Chemscore.Internal.Correction>
   9.000000E+99

> <Gold.Chemscore.Hbonds>
donor molecule, donor type, donor heavy atom, donor atom, acceptor molecule, acceptor atom, score
      P1  H  7997  8010       L1     7  0.81
      P1  H 10752 10763       L1    14  0.90

> <Gold.Chemscore.Hbond.Weighted>
-6.1799

> <Gold.Chemscore.Metal.Weighted>
-0.0000

> <Gold.Chemscore.Lipo.Weighted>
-10.2598

> <Gold.Chemscore.Internal_Hbond.Weighted>
0.0000

> <Gold.Chemscore.DEClash.Weighted>
1.6982

> <Gold.Chemscore.DEInternal.Weighted>
1.8172

> <Gold.Chemscore.Rot.Weighted>
4.5459

> <Gold.Chemscore.Internal.Correction.Weighted>
   9.000000E+99

> <Gold.Protein.RotatedTorsions>
[ 6907 6896 6895 6894 ] final  -98.39 input  -60.11 | X-H torsion
[ 7974 7965 7964 7962 ] final  126.74 input  175.53 | X-H torsion
[ 8008 7997 7996 7995 ] final   34.66 input   59.86 | X-H torsion
[ 10167 10162 10161 10158 ] final  -15.30 input  -65.29 | X-H torsion
[ 10718 10713 10712 10709 ] final  158.42 input   66.30 | X-H torsion
[ 10763 10752 10751 10750 ] final    7.66 input  -60.55 | X-H torsion
[ 11005 11000 10999 10996 ] final   81.78 input  -57.11 | X-H torsion

> <Gold.Protein.ActiveResidues>
 VAL166  LYS551  ARG553  GLY616  TRP617  ASP618  TYR619  PRO620  LYS621  CYS622 
 ASP623  PHE694  ASN695  SER759  ASP760  ASP761  ALA762  ILE779  LEU786  VAL792 
 PHE793  MET794  SER795  GLU796  ALA797  LYS798  CYS799  TRP800  GLU811  SER814 

> <Gold.Protein.RotatedAtoms>
  150.7045  134.1202  159.4031 H   0  0  0  0  0  0  0  0  0  0  0  0  # atno 6907 bound_to 6896
  151.9188  135.0305  160.0530 H   0  0  0  0  0  0  0  0  0  0  0  0  # atno 6908 bound_to 6896
  152.2273  133.4995  159.5233 H   0  0  0  0  0  0  0  0  0  0  0  0  # atno 6909 bound_to 6896
  145.0583  139.3826  143.5019 H   0  0  0  0  0  0  0  0  0  0  0  0  # atno 7974 bound_to 7965
  155.1585  140.3281  155.4416 H   0  0  0  0  0  0  0  0  0  0  0  0  # atno 8008 bound_to 7997
  156.2550  140.1964  156.6644 H   0  0  0  0  0  0  0  0  0  0  0  0  # atno 8009 bound_to 7997
  154.6422  140.0569  156.9845 H   0  0  0  0  0  0  0  0  0  0  0  0  # atno 8010 bound_to 7997
  140.7216  143.5233  150.9608 H   0  0  0  0  0  0  0  0  0  0  0  0  # atno 10167 bound_to 10162
  157.1781  131.0626  151.2147 H   0  0  0  0  0  0  0  0  0  0  0  0  # atno 10718 bound_to 10713
  153.2337  135.6895  153.7860 H   0  0  0  0  0  0  0  0  0  0  0  0  # atno 10763 bound_to 10752
  153.7015  135.3296  155.3226 H   0  0  0  0  0  0  0  0  0  0  0  0  # atno 10764 bound_to 10752
  154.8325  135.4569  154.1233 H   0  0  0  0  0  0  0  0  0  0  0  0  # atno 10765 bound_to 10752
  139.9086  134.8022  156.2087 H   0  0  0  0  0  0  0  0  0  0  0  0  # atno 11005 bound_to 11000
  146.3523  140.0269  142.8654 LP  0  0  0  0  0  0  0  0  0  0  0  0  # atno 17320 bound_to 7965
  145.1440  140.9587  143.4472 LP  0  0  0  0  0  0  0  0  0  0  0  0  # atno 17321 bound_to 7965
  139.8950  143.6905  152.3140 LP  0  0  0  0  0  0  0  0  0  0  0  0  # atno 17342 bound_to 10162
  139.7235  144.7598  151.0917 LP  0  0  0  0  0  0  0  0  0  0  0  0  # atno 17343 bound_to 10162
  157.3979  130.7317  149.6745 LP  0  0  0  0  0  0  0  0  0  0  0  0  # atno 17370 bound_to 10713
  155.9728  130.4128  150.4053 LP  0  0  0  0  0  0  0  0  0  0  0  0  # atno 17371 bound_to 10713
  141.0479  133.6904  156.1717 LP  0  0  0  0  0  0  0  0  0  0  0  0  # atno 17394 bound_to 11000
  140.6856  134.4721  157.5589 LP  0  0  0  0  0  0  0  0  0  0  0  0  # atno 17395 bound_to 11000

$$$$
