AV-unprocessed.smi:1213|AV-procd|sdf|5088|dock4
  -GOLD-   22720 4143D 1   1.00000     0.00000
 Structure written by MMmdl.
 36 37  0  0  0  0  0  0  0  0  3 V2000
  145.1572  136.9819  151.6904 N   0  5  0  0  0  0  0  0  0  0  0  0
  145.7717  137.8885  152.4737 C   0  0  0  0  0  0  0  0  0  0  0  0
  145.6184  138.0730  153.6793 O   0  0  0  0  0  0  0  0  0  0  0  0
  146.7858  138.7385  151.7013 C   0  0  0  0  0  0  0  0  0  0  0  0
  147.4501  139.6996  152.6164 N   0  3  2  0  0  0  0  0  0  0  0  0
  148.2037  139.0187  153.6997 C   0  0  0  0  0  0  0  0  0  0  0  0
  148.9996  140.0288  154.5435 C   0  0  0  0  0  0  0  0  0  0  0  0
  148.0789  141.1121  155.1278 C   0  0  1  0  0  0  0  0  0  0  0  0
  148.8706  142.1024  155.8518 N   0  0  0  0  0  0  0  0  0  0  0  0
  149.7404  141.8236  156.8339 C   0  0  0  0  0  0  0  0  0  0  0  0
  149.9734  140.6805  157.2279 O   0  0  0  0  0  0  0  0  0  0  0  0
  150.3038  142.9438  157.3193 N   0  0  0  0  0  0  0  0  0  0  0  0
  151.2581  143.0633  158.3637 C   0  0  0  0  0  0  0  0  0  0  0  0
  151.5757  142.0782  159.2119 N   0  0  0  0  0  0  0  0  0  0  0  0
  152.5441  142.4750  160.1376 C   0  0  0  0  0  0  0  0  0  0  0  0
  152.9549  143.7751  159.9790 C   0  0  0  0  0  0  0  0  0  0  0  0
  152.1395  144.5565  158.6509 S   0  0  0  0  0  0  0  0  0  0  0  0
  147.2804  141.7757  153.9911 C   0  0  0  0  0  0  0  0  0  0  0  0
  146.5225  140.7285  153.1593 C   0  0  0  0  0  0  0  0  0  0  0  0
  144.5489  137.3164  150.9331 H   0  0  0  0  0  0  0  0  0  0  0  0
  147.5285  138.1366  151.1729 H   0  0  0  0  0  0  0  0  0  0  0  0
  146.2254  139.2779  150.9363 H   0  0  0  0  0  0  0  0  0  0  0  0
  147.5101  138.4616  154.3317 H   0  0  0  0  0  0  0  0  0  0  0  0
  148.8939  138.2926  153.2684 H   0  0  0  0  0  0  0  0  0  0  0  0
  149.5204  139.5068  155.3471 H   0  0  0  0  0  0  0  0  0  0  0  0
  149.7699  140.4895  153.9229 H   0  0  0  0  0  0  0  0  0  0  0  0
  147.3837  140.6326  155.8200 H   0  0  0  0  0  0  0  0  0  0  0  0
  148.7408  143.0691  155.5916 H   0  0  0  0  0  0  0  0  0  0  0  0
  150.0117  143.8140  156.8995 H   0  0  0  0  0  0  0  0  0  0  0  0
  152.8843  141.7659  160.8776 H   0  0  0  0  0  0  0  0  0  0  0  0
  153.6850  144.3178  160.5609 H   0  0  0  0  0  0  0  0  0  0  0  0
  146.5729  142.4991  154.3983 H   0  0  0  0  0  0  0  0  0  0  0  0
  147.9540  142.3351  153.3401 H   0  0  0  0  0  0  0  0  0  0  0  0
  145.9999  141.2336  152.3467 H   0  0  0  0  0  0  0  0  0  0  0  0
  145.7589  140.2455  153.7711 H   0  0  0  0  0  0  0  0  0  0  0  0
  148.1339  140.1859  152.0541 H   0  0  0  0  0  0  0  0  0  0  0  0
  1  2  1  0  0  0  0
  1 20  1  0  0  0  0
  2  3  2  0  0  0  0
  2  4  1  0  0  0  0
  4  5  1  0  0  0  0
  4 21  1  0  0  0  0
  4 22  1  0  0  0  0
  5 19  1  0  0  0  0
  5  6  1  0  0  0  0
  5 36  1  0  0  0  0
  6  7  1  0  0  0  0
  6 23  1  0  0  0  0
  6 24  1  0  0  0  0
  7  8  1  0  0  0  0
  7 25  1  0  0  0  0
  7 26  1  0  0  0  0
  8  9  1  0  0  0  0
  8 18  1  0  0  0  0
  8 27  1  0  0  0  0
  9 10  1  0  0  0  0
  9 28  1  0  0  0  0
 10 11  2  0  0  0  0
 10 12  1  0  0  0  0
 12 13  1  0  0  0  0
 12 29  1  0  0  0  0
 13 17  1  0  0  0  0
 13 14  2  0  0  0  0
 14 15  1  0  0  0  0
 15 16  2  0  0  0  0
 15 30  1  0  0  0  0
 16 17  1  0  0  0  0
 16 31  1  0  0  0  0
 18 19  1  0  0  0  0
 18 32  1  0  0  0  0
 18 33  1  0  0  0  0
 19 34  1  0  0  0  0
 19 35  1  0  0  0  0
M  CHG  1   1  -1
M  CHG  1   5   1
M  END
> <s_m_source_file>
AV-unprocessed.smi

> <i_m_source_file_index>
1213

> <i_lp_mmshare_version>
43012

> <i_f3d_flags>
0

> <s_epik_input>
W05IMl1DKD1PKVtDSDJdTjFbQ0gyXVtDSDJdW0NIXShbQ0gyXVtDSDJdMSlbTkhdQyg9TylbTkhdYzJuW2NIXVtjSF1zMg==

> <s_epik_cmdline>
J2VwaWtfcHl0aG9uJywgJy1waCcsICc3LjAnLCAnLXRuJywgJzgnLCAnLW1hJywgJzIwMCcsICctbWV0YWxfYmluZGluZycsICctaW1hZScsICc8aW5maWxlLm1hZT4nLCAnLW9tYWUnLCAnPG91dGZpbGUubWFlPic=

> <r_lp_tautomer_probability>
0.999

> <r_epik_Ionization_Penalty>
5.73166

> <r_epik_Ionization_Penalty_Charging>
5.73152

> <r_epik_Ionization_Penalty_Neutral>
0.000139308

> <r_epik_State_Penalty>
6.57436

> <r_epik_Charging_Adjusted_Penalty>
12.3059

> <i_epik_Tot_Q>
0

> <i_epik_Tot_abs_Q>
2

> <r_epik_Metal_State_Penalty>
2.57084

> <b_epik_Metal_Only>
1

> <s_lp_Force_Field>
OPLS_2005

> <r_lp_Energy>
5.64095

> <b_lp_Chiralities_Consistent>
1

> <s_lp_Variant>
AV-unprocessed.smi:1213-5

> <Gold.Version>
5.8.1

> <Gold.Id.Protein>
6NUR|6NUR_protein|mol2

> <Gold.PLP.Fitness>
47.0184

> <Gold.PLP.PLP>
-35.2191

> <Gold.PLP.part.hbond>
-4.0000

> <Gold.PLP.part.metal>
0.0000

> <Gold.PLP.part.buried>
-1.2872

> <Gold.PLP.part.nonpolar>
-31.3094

> <Gold.PLP.part.repulsive>
0.3872

> <Gold.PLP.ligand.clash>
0.0000

> <Gold.PLP.ligand.torsion>
0.0778

> <Gold.PLP.Chemscore.Hbond>
3.9760

> <Gold.PLP.Chemscore.CHOScore>
0.0000

> <Gold.PLP.Chemscore.Metal>
0.0000

> <Gold.Chemscore.Hbonds>
donor molecule, donor type, donor heavy atom, donor atom, acceptor molecule, acceptor atom, score
      L1  H     1    20       P1 10171  1.00
      L1  H     5    36       P1  7957  0.91
      L1  H     9    28       P1  8028  1.00
      L1  H    12    29       P1  8028  0.99

> <Gold.PLP.Chemscore.Internal.Correction>
0.0268

> <Gold.Rescore>
     Score         DG    S(hbond)    S(metal)    S(lipo)     H(rot)  DE(clash)    DE(int)     intcor
     16.68     -22.75       3.88        0.00      81.38       2.04       0.70       5.36       ----

> <Gold.Chemscore.Fitness>
16.6844

> <Gold.Chemscore.DG>
-22.7453

> <Gold.Chemscore.ZeroCoef>
-5.4800

> <Gold.Chemscore.Hbond>
3.8782

> <Gold.Chemscore.Metal>
0.0000

> <Gold.Chemscore.Lipo>
81.3825

> <Gold.Chemscore.Internal_Hbond>
0.0000

> <Gold.Chemscore.DEClash>
0.6962

> <Gold.Chemscore.DEInternal>
5.3647

> <Gold.Chemscore.Rot>
2.0350

> <Gold.Chemscore.Internal.Correction>
   9.000000E+99

> <Gold.Chemscore.Hbonds>
donor molecule, donor type, donor heavy atom, donor atom, acceptor molecule, acceptor atom, score
      L1  H     1    20       P1 10171  0.98
      L1  H     5    36       P1  7957  0.90
      L1  H     9    28       P1  8028  0.99
      L1  H    12    29       P1  8028  0.93

> <Gold.Chemscore.Hbond.Weighted>
-12.9532

> <Gold.Chemscore.Metal.Weighted>
-0.0000

> <Gold.Chemscore.Lipo.Weighted>
-9.5218

> <Gold.Chemscore.Internal_Hbond.Weighted>
0.0000

> <Gold.Chemscore.DEClash.Weighted>
0.6962

> <Gold.Chemscore.DEInternal.Weighted>
5.3647

> <Gold.Chemscore.Rot.Weighted>
5.2096

> <Gold.Chemscore.Internal.Correction.Weighted>
   9.000000E+99

> <Gold.Protein.RotatedTorsions>
[ 6907 6896 6895 6894 ] final   15.91 input  -60.11 | X-H torsion
[ 7974 7965 7964 7962 ] final  145.44 input  175.53 | X-H torsion
[ 8008 7997 7996 7995 ] final  -94.82 input   59.86 | X-H torsion
[ 10167 10162 10161 10158 ] final   79.37 input  -65.29 | X-H torsion
[ 10718 10713 10712 10709 ] final  -73.13 input   66.30 | X-H torsion
[ 10763 10752 10751 10750 ] final -152.35 input  -60.55 | X-H torsion
[ 11005 11000 10999 10996 ] final   50.75 input  -57.11 | X-H torsion

> <Gold.Protein.ActiveResidues>
 VAL166  LYS551  ARG553  GLY616  TRP617  ASP618  TYR619  PRO620  LYS621  CYS622 
 ASP623  PHE694  ASN695  SER759  ASP760  ASP761  ALA762  ILE779  LEU786  VAL792 
 PHE793  MET794  SER795  GLU796  ALA797  LYS798  CYS799  TRP800  GLU811  SER814 

> <Gold.Protein.RotatedAtoms>
  151.8256  135.0638  160.0430 H   0  0  0  0  0  0  0  0  0  0  0  0  # atno 6907 bound_to 6896
  152.2919  133.5565  159.5571 H   0  0  0  0  0  0  0  0  0  0  0  0  # atno 6908 bound_to 6896
  150.7234  134.0333  159.3783 H   0  0  0  0  0  0  0  0  0  0  0  0  # atno 6909 bound_to 6896
  144.8753  139.5783  143.5868 H   0  0  0  0  0  0  0  0  0  0  0  0  # atno 7974 bound_to 7965
  154.7534  140.0485  157.0912 H   0  0  0  0  0  0  0  0  0  0  0  0  # atno 8008 bound_to 7997
  155.0029  140.3127  155.4841 H   0  0  0  0  0  0  0  0  0  0  0  0  # atno 8009 bound_to 7997
  156.2890  140.2198  156.5139 H   0  0  0  0  0  0  0  0  0  0  0  0  # atno 8010 bound_to 7997
  139.9611  144.5960  150.8071 H   0  0  0  0  0  0  0  0  0  0  0  0  # atno 10167 bound_to 10162
  156.0292  130.4387  150.2696 H   0  0  0  0  0  0  0  0  0  0  0  0  # atno 10718 bound_to 10713
  154.8000  135.3238  154.7574 H   0  0  0  0  0  0  0  0  0  0  0  0  # atno 10763 bound_to 10752
  153.8244  135.6885  153.4827 H   0  0  0  0  0  0  0  0  0  0  0  0  # atno 10764 bound_to 10752
  153.1711  135.4623  154.9847 H   0  0  0  0  0  0  0  0  0  0  0  0  # atno 10765 bound_to 10752
  140.0990  134.5106  155.8780 H   0  0  0  0  0  0  0  0  0  0  0  0  # atno 11005 bound_to 11000
  146.2958  139.7274  142.9128 LP  0  0  0  0  0  0  0  0  0  0  0  0  # atno 17320 bound_to 7965
  145.4055  141.0390  143.3046 LP  0  0  0  0  0  0  0  0  0  0  0  0  # atno 17321 bound_to 7965
  140.7553  143.3043  151.3001 LP  0  0  0  0  0  0  0  0  0  0  0  0  # atno 17342 bound_to 10162
  139.6553  144.0287  152.2655 LP  0  0  0  0  0  0  0  0  0  0  0  0  # atno 17343 bound_to 10162
  157.0799  131.0140  151.3160 LP  0  0  0  0  0  0  0  0  0  0  0  0  # atno 17370 bound_to 10713
  157.4935  130.7836  149.7532 LP  0  0  0  0  0  0  0  0  0  0  0  0  # atno 17371 bound_to 10713
  141.2100  133.6690  156.6481 LP  0  0  0  0  0  0  0  0  0  0  0  0  # atno 17394 bound_to 11000
  140.3246  134.7980  157.4279 LP  0  0  0  0  0  0  0  0  0  0  0  0  # atno 17395 bound_to 11000

$$$$
