AV-unprocessed.smi:1834|AV-procd|sdf|7469|dock3
  -GOLD-   22720 9163D 1   1.00000     0.00000
 Structure written by MMmdl.
 46 47  0  0  0  0  0  0  0  0  2 V2000
  143.7892  139.1579  155.9803 C   0  0  0  0  0  0  0  0  0  0  0  0
  143.8230  140.6911  156.0611 C   0  0  0  0  0  0  0  0  0  0  0  0
  144.7318  141.2965  155.0549 N   0  3  1  0  0  0  0  0  0  0  0  0
  144.6695  142.7802  155.0689 C   0  0  0  0  0  0  0  0  0  0  0  0
  145.5057  143.3770  153.9278 C   0  0  0  0  0  0  0  0  0  0  0  0
  146.9594  142.8954  154.0012 C   0  0  0  0  0  0  0  0  0  0  0  0
  147.0197  141.3544  154.0206 C   0  0  1  0  0  0  0  0  0  0  0  0
  148.4585  140.8084  154.1470 C   0  0  0  0  0  0  0  0  0  0  0  0
  148.9806  140.9028  155.5081 N   0  0  0  0  0  0  0  0  0  0  0  0
  150.2529  140.6795  155.8698 C   0  0  0  0  0  0  0  0  0  0  0  0
  151.1325  140.3408  155.0777 O   0  0  0  0  0  0  0  0  0  0  0  0
  150.4229  140.8693  157.1899 N   0  0  0  0  0  0  0  0  0  0  0  0
  151.5576  140.7387  157.9276 C   0  0  0  0  0  0  0  0  0  0  0  0
  152.0603  141.5726  158.8889 C   0  0  0  0  0  0  0  0  0  0  0  0
  153.2563  140.9074  159.2868 C   0  0  0  0  0  0  0  0  0  0  0  0
  154.2523  141.3382  160.3228 C   0  0  0  0  0  0  0  0  0  0  0  0
  153.4580  139.7746  158.6230 N   0  0  0  0  0  0  0  0  0  0  0  0
  152.4084  139.6659  157.7802 N   0  0  0  0  0  0  0  0  0  0  0  0
  152.3066  138.5256  156.8906 C   0  0  0  0  0  0  0  0  0  0  0  0
  146.1336  140.8092  155.1615 C   0  0  0  0  0  0  0  0  0  0  0  0
  143.0428  138.7558  156.6658 H   0  0  0  0  0  0  0  0  0  0  0  0
  144.7454  138.7099  156.2489 H   0  0  0  0  0  0  0  0  0  0  0  0
  143.5286  138.8217  154.9765 H   0  0  0  0  0  0  0  0  0  0  0  0
  142.8080  141.0520  155.8901 H   0  0  0  0  0  0  0  0  0  0  0  0
  144.1013  141.0186  157.0639 H   0  0  0  0  0  0  0  0  0  0  0  0
  143.6352  143.1094  154.9613 H   0  0  0  0  0  0  0  0  0  0  0  0
  145.0232  143.1529  156.0317 H   0  0  0  0  0  0  0  0  0  0  0  0
  145.0727  143.0930  152.9677 H   0  0  0  0  0  0  0  0  0  0  0  0
  145.4725  144.4661  153.9718 H   0  0  0  0  0  0  0  0  0  0  0  0
  147.5091  143.2943  153.1486 H   0  0  0  0  0  0  0  0  0  0  0  0
  147.4369  143.2976  154.8960 H   0  0  0  0  0  0  0  0  0  0  0  0
  146.6085  140.9901  153.0774 H   0  0  0  0  0  0  0  0  0  0  0  0
  148.5090  139.7818  153.7797 H   0  0  0  0  0  0  0  0  0  0  0  0
  149.1257  141.3871  153.5074 H   0  0  0  0  0  0  0  0  0  0  0  0
  148.3258  141.1755  156.2267 H   0  0  0  0  0  0  0  0  0  0  0  0
  149.6052  141.1549  157.7081 H   0  0  0  0  0  0  0  0  0  0  0  0
  151.6591  142.5037  159.2600 H   0  0  0  0  0  0  0  0  0  0  0  0
  153.9479  142.2709  160.7980 H   0  0  0  0  0  0  0  0  0  0  0  0
  155.2355  141.4974  159.8795 H   0  0  0  0  0  0  0  0  0  0  0  0
  154.3553  140.5860  161.1052 H   0  0  0  0  0  0  0  0  0  0  0  0
  151.3517  138.0230  157.0474 H   0  0  0  0  0  0  0  0  0  0  0  0
  153.1132  137.8159  157.0807 H   0  0  0  0  0  0  0  0  0  0  0  0
  152.3679  138.8626  155.8553 H   0  0  0  0  0  0  0  0  0  0  0  0
  146.5448  141.1003  156.1297 H   0  0  0  0  0  0  0  0  0  0  0  0
  146.1501  139.7202  155.1294 H   0  0  0  0  0  0  0  0  0  0  0  0
  144.3872  141.0096  154.1498 H   0  0  0  0  0  0  0  0  0  0  0  0
  1  2  1  0  0  0  0
  1 21  1  0  0  0  0
  1 22  1  0  0  0  0
  1 23  1  0  0  0  0
  2  3  1  0  0  0  0
  2 24  1  0  0  0  0
  2 25  1  0  0  0  0
  3 20  1  0  0  0  0
  3  4  1  0  0  0  0
  3 46  1  0  0  0  0
  4  5  1  0  0  0  0
  4 26  1  0  0  0  0
  4 27  1  0  0  0  0
  5  6  1  0  0  0  0
  5 28  1  0  0  0  0
  5 29  1  0  0  0  0
  6  7  1  0  0  0  0
  6 30  1  0  0  0  0
  6 31  1  0  0  0  0
  7  8  1  0  0  0  0
  7 20  1  0  0  0  0
  7 32  1  0  0  0  0
  8  9  1  0  0  0  0
  8 33  1  0  0  0  0
  8 34  1  0  0  0  0
  9 10  1  0  0  0  0
  9 35  1  0  0  0  0
 10 11  2  0  0  0  0
 10 12  1  0  0  0  0
 12 13  1  0  0  0  0
 12 36  1  0  0  0  0
 13 18  1  0  0  0  0
 13 14  2  0  0  0  0
 14 15  1  0  0  0  0
 14 37  1  0  0  0  0
 15 16  1  0  0  0  0
 15 17  2  0  0  0  0
 16 38  1  0  0  0  0
 16 39  1  0  0  0  0
 16 40  1  0  0  0  0
 17 18  1  0  0  0  0
 18 19  1  0  0  0  0
 19 41  1  0  0  0  0
 19 42  1  0  0  0  0
 19 43  1  0  0  0  0
 20 44  1  0  0  0  0
 20 45  1  0  0  0  0
M  CHG  1   3   1
M  END
> <s_m_source_file>
AV-unprocessed.smi

> <i_m_source_file_index>
1834

> <i_lp_mmshare_version>
43012

> <i_f3d_flags>
0

> <s_epik_input>
W0NIM11bQ0gyXU4xW0NIMl1bQ0gyXVtDSDJdW0NASF0oW0NIMl0xKVtDSDJdW05IXUMoPU8pW05IXWMyW2NIXWMoW0NIM10pbm4yW0NIM10=

> <s_epik_cmdline>
J2VwaWtfcHl0aG9uJywgJy1waCcsICc3LjAnLCAnLXRuJywgJzgnLCAnLW1hJywgJzIwMCcsICctbWV0YWxfYmluZGluZycsICctaW1hZScsICc8aW5maWxlLm1hZT4nLCAnLW9tYWUnLCAnPG91dGZpbGUubWFlPic=

> <r_lp_tautomer_probability>
1

> <r_epik_Ionization_Penalty>
0.000466842

> <r_epik_Ionization_Penalty_Charging>
0.000378984

> <r_epik_Ionization_Penalty_Neutral>
8.78572e-05

> <r_epik_State_Penalty>
0.000231434

> <r_epik_Charging_Adjusted_Penalty>
0.000610418

> <i_epik_Tot_Q>
1

> <i_epik_Tot_abs_Q>
1

> <r_epik_Metal_State_Penalty>
-0

> <b_epik_Metal_Only>
0

> <s_lp_Force_Field>
OPLS_2005

> <r_lp_Energy>
20.6354

> <b_lp_Chiralities_Consistent>
1

> <s_lp_Variant>
AV-unprocessed.smi:1834-1

> <Gold.Version>
5.8.1

> <Gold.Id.Protein>
6NUR|6NUR_protein|mol2

> <Gold.PLP.Fitness>
42.8582

> <Gold.PLP.PLP>
-31.9061

> <Gold.PLP.part.hbond>
-3.0000

> <Gold.PLP.part.metal>
0.0000

> <Gold.PLP.part.buried>
-2.9491

> <Gold.PLP.part.nonpolar>
-26.4142

> <Gold.PLP.part.repulsive>
0.1682

> <Gold.PLP.ligand.clash>
0.0000

> <Gold.PLP.ligand.torsion>
0.5414

> <Gold.PLP.Chemscore.Hbond>
4.0000

> <Gold.PLP.Chemscore.CHOScore>
0.0000

> <Gold.PLP.Chemscore.Metal>
0.0000

> <Gold.Chemscore.Hbonds>
donor molecule, donor type, donor heavy atom, donor atom, acceptor molecule, acceptor atom, score
      L1  H     3    46       P1 10175  2.00
      P1  H  7989  7998       L1    11  1.00
      P1  H  7997  8008       L1    17  0.85

> <Gold.PLP.Chemscore.Internal.Correction>
0.0348

> <Gold.Rescore>
     Score         DG    S(hbond)    S(metal)    S(lipo)     H(rot)  DE(clash)    DE(int)     intcor
     15.50     -17.43       2.34        0.00      66.67       1.43       0.19       1.74       ----

> <Gold.Chemscore.Fitness>
15.4971

> <Gold.Chemscore.DG>
-17.4269

> <Gold.Chemscore.ZeroCoef>
-5.4800

> <Gold.Chemscore.Hbond>
2.3367

> <Gold.Chemscore.Metal>
0.0000

> <Gold.Chemscore.Lipo>
66.6720

> <Gold.Chemscore.Internal_Hbond>
0.0000

> <Gold.Chemscore.DEClash>
0.1874

> <Gold.Chemscore.DEInternal>
1.7425

> <Gold.Chemscore.Rot>
1.4291

> <Gold.Chemscore.Internal.Correction>
   9.000000E+99

> <Gold.Chemscore.Hbonds>
donor molecule, donor type, donor heavy atom, donor atom, acceptor molecule, acceptor atom, score
      L1  H     3    46       P1 10175  0.88
      P1  H  7989  7998       L1    11  0.98
      P1  H  7997  8008       L1    17  0.10

> <Gold.Chemscore.Hbond.Weighted>
-7.8047

> <Gold.Chemscore.Metal.Weighted>
-0.0000

> <Gold.Chemscore.Lipo.Weighted>
-7.8006

> <Gold.Chemscore.Internal_Hbond.Weighted>
0.0000

> <Gold.Chemscore.DEClash.Weighted>
0.1874

> <Gold.Chemscore.DEInternal.Weighted>
1.7425

> <Gold.Chemscore.Rot.Weighted>
3.6584

> <Gold.Chemscore.Internal.Correction.Weighted>
   9.000000E+99

> <Gold.Protein.RotatedTorsions>
[ 6907 6896 6895 6894 ] final -127.64 input  -60.11 | X-H torsion
[ 7974 7965 7964 7962 ] final   33.83 input  175.53 | X-H torsion
[ 8008 7997 7996 7995 ] final -105.33 input   59.86 | X-H torsion
[ 10167 10162 10161 10158 ] final  169.55 input  -65.29 | X-H torsion
[ 10718 10713 10712 10709 ] final  153.90 input   66.30 | X-H torsion
[ 10763 10752 10751 10750 ] final -139.65 input  -60.55 | X-H torsion
[ 11005 11000 10999 10996 ] final -128.15 input  -57.11 | X-H torsion

> <Gold.Protein.ActiveResidues>
 VAL166  LYS551  ARG553  GLY616  TRP617  ASP618  TYR619  PRO620  LYS621  CYS622 
 ASP623  PHE694  ASN695  SER759  ASP760  ASP761  ALA762  ILE779  LEU786  VAL792 
 PHE793  MET794  SER795  GLU796  ALA797  LYS798  CYS799  TRP800  GLU811  SER814 

> <Gold.Protein.RotatedAtoms>
  150.9095  133.7016  159.2858 H   0  0  0  0  0  0  0  0  0  0  0  0  # atno 6907 bound_to 6896
  151.4507  135.1028  159.9706 H   0  0  0  0  0  0  0  0  0  0  0  0  # atno 6908 bound_to 6896
  152.4922  133.8481  159.7242 H   0  0  0  0  0  0  0  0  0  0  0  0  # atno 6909 bound_to 6896
  146.1394  139.6346  142.9173 H   0  0  0  0  0  0  0  0  0  0  0  0  # atno 7974 bound_to 7965
  154.8983  140.0413  157.1878 H   0  0  0  0  0  0  0  0  0  0  0  0  # atno 8008 bound_to 7997
  154.8470  140.2923  155.5602 H   0  0  0  0  0  0  0  0  0  0  0  0  # atno 8009 bound_to 7997
  156.2994  140.2472  156.3422 H   0  0  0  0  0  0  0  0  0  0  0  0  # atno 8010 bound_to 7997
  139.4995  144.3694  151.9741 H   0  0  0  0  0  0  0  0  0  0  0  0  # atno 10167 bound_to 10162
  157.2386  131.0754  151.1807 H   0  0  0  0  0  0  0  0  0  0  0  0  # atno 10718 bound_to 10713
  154.8603  135.3576  154.5581 H   0  0  0  0  0  0  0  0  0  0  0  0  # atno 10763 bound_to 10752
  153.6197  135.7006  153.5320 H   0  0  0  0  0  0  0  0  0  0  0  0  # atno 10764 bound_to 10752
  153.3139  135.4170  155.1320 H   0  0  0  0  0  0  0  0  0  0  0  0  # atno 10765 bound_to 10752
  140.9540  134.1026  157.4034 H   0  0  0  0  0  0  0  0  0  0  0  0  # atno 11005 bound_to 11000
  145.5081  141.0436  143.2503 LP  0  0  0  0  0  0  0  0  0  0  0  0  # atno 17320 bound_to 7965
  144.7775  139.6597  143.7168 LP  0  0  0  0  0  0  0  0  0  0  0  0  # atno 17321 bound_to 7965
  140.3130  144.3516  150.6029 LP  0  0  0  0  0  0  0  0  0  0  0  0  # atno 17342 bound_to 10162
  140.5784  143.2174  151.7474 LP  0  0  0  0  0  0  0  0  0  0  0  0  # atno 17343 bound_to 10162
  157.3402  130.7029  149.6377 LP  0  0  0  0  0  0  0  0  0  0  0  0  # atno 17370 bound_to 10713
  155.9671  130.4282  150.4777 LP  0  0  0  0  0  0  0  0  0  0  0  0  # atno 17371 bound_to 10713
  139.8856  135.0074  156.6447 LP  0  0  0  0  0  0  0  0  0  0  0  0  # atno 17394 bound_to 11000
  140.7562  133.8856  155.8384 LP  0  0  0  0  0  0  0  0  0  0  0  0  # atno 17395 bound_to 11000

$$$$
