AV-unprocessed.smi:99|AV-procd|sdf|896|dock1
  -GOLD-   2262017393D 1   1.00000     0.00000
 Structure written by MMmdl.
 52 55  0  0  0  0  0  0  0  0  2 V2000
  145.4484  138.1299  154.3662 O   0  0  0  0  0  0  0  0  0  0  0  0
  145.9800  137.0210  154.2850 C   0  0  0  0  0  0  0  0  0  0  0  0
  146.6672  136.4453  155.2901 O   0  0  0  0  0  0  0  0  0  0  0  0
  146.6497  137.0051  156.5935 C   0  0  0  0  0  0  0  0  0  0  0  0
  148.0663  137.4725  156.9510 C   0  0  1  0  0  0  0  0  0  0  0  0
  148.5257  138.4127  155.9856 O   0  0  0  0  0  0  0  0  0  0  0  0
  149.5079  139.2389  156.5490 C   0  0  2  0  0  0  0  0  0  0  0  0
  150.8483  138.9445  155.9023 N   0  0  0  0  0  0  0  0  0  0  0  0
  150.9844  137.9695  154.9273 C   0  0  0  0  0  0  0  0  0  0  0  0
  152.1792  137.7094  154.3577 C   0  0  0  0  0  0  0  0  0  0  0  0
  153.3541  138.4689  154.7760 C   0  0  0  0  0  0  0  0  0  0  0  0
  154.4380  138.2277  154.2483 O   0  0  0  0  0  0  0  0  0  0  0  0
  153.1949  139.4182  155.7428 N   0  5  0  0  0  0  0  0  0  0  0  0
  151.9882  139.6806  156.3239 C   0  0  0  0  0  0  0  0  0  0  0  0
  151.8340  140.5219  157.2098 O   0  0  0  0  0  0  0  0  0  0  0  0
  149.5029  138.9869  158.0769 C   0  0  2  0  0  0  0  0  0  0  0  0
  150.5841  138.1716  158.5053 O   0  0  0  0  0  0  0  0  0  0  0  0
  148.1689  138.2759  158.2465 C   0  0  2  0  0  0  0  0  0  0  0  0
  148.1235  137.4956  159.4387 O   0  0  0  0  0  0  0  0  0  0  0  0
  148.5022  136.1990  159.4462 C   0  0  0  0  0  0  0  0  0  0  0  0
  149.3590  135.7284  158.6955 O   0  0  0  0  0  0  0  0  0  0  0  0
  147.8044  135.4016  160.4946 C   0  0  0  0  0  0  0  0  0  0  0  0
  147.8133  133.9897  160.4111 C   0  0  0  0  0  0  0  0  0  0  0  0
  147.1853  133.2091  161.4007 C   0  0  0  0  0  0  0  0  0  0  0  0
  146.5379  133.8310  162.4840 C   0  0  0  0  0  0  0  0  0  0  0  0
  146.5188  135.2348  162.5762 C   0  0  0  0  0  0  0  0  0  0  0  0
  147.1481  136.0172  161.5885 C   0  0  0  0  0  0  0  0  0  0  0  0
  145.9089  136.1582  153.0703 C   0  0  0  0  0  0  0  0  0  0  0  0
  146.4312  134.8449  153.1205 C   0  0  0  0  0  0  0  0  0  0  0  0
  146.3994  134.0166  151.9817 C   0  0  0  0  0  0  0  0  0  0  0  0
  145.8450  134.4914  150.7790 C   0  0  0  0  0  0  0  0  0  0  0  0
  145.3181  135.7945  150.7174 C   0  0  0  0  0  0  0  0  0  0  0  0
  145.3470  136.6231  151.8556 C   0  0  0  0  0  0  0  0  0  0  0  0
  145.9587  137.8484  156.6041 H   0  0  0  0  0  0  0  0  0  0  0  0
  146.2999  136.2827  157.3327 H   0  0  0  0  0  0  0  0  0  0  0  0
  148.7553  136.6263  156.9680 H   0  0  0  0  0  0  0  0  0  0  0  0
  149.2659  140.2679  156.2776 H   0  0  0  0  0  0  0  0  0  0  0  0
  150.1292  137.3940  154.6079 H   0  0  0  0  0  0  0  0  0  0  0  0
  152.2677  136.9445  153.6002 H   0  0  0  0  0  0  0  0  0  0  0  0
  149.5352  139.9355  158.6132 H   0  0  0  0  0  0  0  0  0  0  0  0
  150.6293  137.4180  157.9360 H   0  0  0  0  0  0  0  0  0  0  0  0
  147.3893  139.0394  158.2438 H   0  0  0  0  0  0  0  0  0  0  0  0
  148.3110  133.4898  159.5927 H   0  0  0  0  0  0  0  0  0  0  0  0
  147.2036  132.1317  161.3294 H   0  0  0  0  0  0  0  0  0  0  0  0
  146.0568  133.2325  163.2434 H   0  0  0  0  0  0  0  0  0  0  0  0
  146.0212  135.7136  163.4064 H   0  0  0  0  0  0  0  0  0  0  0  0
  147.1172  137.0922  161.6902 H   0  0  0  0  0  0  0  0  0  0  0  0
  146.8682  134.4607  154.0310 H   0  0  0  0  0  0  0  0  0  0  0  0
  146.8040  133.0164  152.0310 H   0  0  0  0  0  0  0  0  0  0  0  0
  145.8243  133.8577  149.9050 H   0  0  0  0  0  0  0  0  0  0  0  0
  144.8955  136.1628  149.7944 H   0  0  0  0  0  0  0  0  0  0  0  0
  144.9409  137.6205  151.7707 H   0  0  0  0  0  0  0  0  0  0  0  0
  1  2  2  0  0  0  0
  2  3  1  0  0  0  0
  2 28  1  0  0  0  0
  3  4  1  0  0  0  0
  4  5  1  0  0  0  0
  4 34  1  0  0  0  0
  4 35  1  0  0  0  0
  5 18  1  0  0  0  0
  5  6  1  0  0  0  0
  5 36  1  0  0  0  0
  6  7  1  0  0  0  0
  7  8  1  0  0  0  0
  7 16  1  0  0  0  0
  7 37  1  0  0  0  0
  8 14  1  0  0  0  0
  8  9  1  0  0  0  0
  9 10  2  0  0  0  0
  9 38  1  0  0  0  0
 10 11  1  0  0  0  0
 10 39  1  0  0  0  0
 11 12  2  0  0  0  0
 11 13  1  0  0  0  0
 13 14  1  0  0  0  0
 14 15  2  0  0  0  0
 16 17  1  0  0  0  0
 16 18  1  0  0  0  0
 16 40  1  0  0  0  0
 17 41  1  0  0  0  0
 18 19  1  0  0  0  0
 18 42  1  0  0  0  0
 19 20  1  0  0  0  0
 20 21  2  0  0  0  0
 20 22  1  0  0  0  0
 22 27  1  0  0  0  0
 22 23  2  0  0  0  0
 23 24  1  0  0  0  0
 23 43  1  0  0  0  0
 24 25  2  0  0  0  0
 24 44  1  0  0  0  0
 25 26  1  0  0  0  0
 25 45  1  0  0  0  0
 26 27  2  0  0  0  0
 26 46  1  0  0  0  0
 27 47  1  0  0  0  0
 28 33  1  0  0  0  0
 28 29  2  0  0  0  0
 29 30  1  0  0  0  0
 29 48  1  0  0  0  0
 30 31  2  0  0  0  0
 30 49  1  0  0  0  0
 31 32  1  0  0  0  0
 31 50  1  0  0  0  0
 32 33  2  0  0  0  0
 32 51  1  0  0  0  0
 33 52  1  0  0  0  0
M  CHG  1  13  -1
M  END
> <s_m_source_file>
AV-unprocessed.smi

> <i_m_source_file_index>
99

> <i_lp_mmshare_version>
43012

> <i_f3d_flags>
0

> <s_epik_input>
W2NIXTFbY0hdW2NIXVtjSF1bY0hdYzFDKD1PKU9bQ0gyXVtDQEBIXTJPW0NAQEhdKG4zW2NIXVtjSF1jKD1PKVtuSF1jMz1PKVtDQEBIXShbT0hdKVtDQEhdMk9DKD1PKWM0W2NIXVtjSF1bY0hdW2NIXVtjSF00

> <s_epik_cmdline>
J2VwaWtfcHl0aG9uJywgJy1waCcsICc3LjAnLCAnLXRuJywgJzgnLCAnLW1hJywgJzIwMCcsICctbWV0YWxfYmluZGluZycsICctaW1hZScsICc8aW5maWxlLm1hZT4nLCAnLW9tYWUnLCAnPG91dGZpbGUubWFlPic=

> <r_lp_tautomer_probability>
1

> <r_epik_Ionization_Penalty>
2.89159

> <r_epik_Ionization_Penalty_Charging>
2.1077e-08

> <r_epik_Ionization_Penalty_Neutral>
2.89159

> <r_epik_State_Penalty>
2.88671

> <r_epik_Charging_Adjusted_Penalty>
2.88671

> <i_epik_Tot_Q>
-1

> <i_epik_Tot_abs_Q>
1

> <r_epik_Metal_State_Penalty>
0.0727308

> <b_epik_Metal_Only>
1

> <s_epik_Chemistry_Notes>
This compound has an ester and may undergo hydrolysis at high or low pH. This compound contains an acetal/aminal-like group ( X-CH(R)-Y where X, Y are N, S, or O) that may be acid/base labile, releasing an aldehyde.

> <s_lp_Force_Field>
OPLS_2005

> <r_lp_Energy>
52.3549

> <b_lp_Chiralities_Consistent>
1

> <s_lp_Variant>
AV-unprocessed.smi:99-32

> <Gold.Version>
5.8.1

> <Gold.Id.Protein>
6NUR|6NUR_protein|mol2

> <Gold.PLP.Fitness>
53.2442

> <Gold.PLP.PLP>
-46.4832

> <Gold.PLP.part.hbond>
-3.8734

> <Gold.PLP.part.metal>
0.0000

> <Gold.PLP.part.buried>
-2.9426

> <Gold.PLP.part.nonpolar>
-39.9455

> <Gold.PLP.part.repulsive>
0.1675

> <Gold.PLP.ligand.clash>
0.0000

> <Gold.PLP.ligand.torsion>
1.4527

> <Gold.PLP.Chemscore.Hbond>
3.0000

> <Gold.PLP.Chemscore.CHOScore>
0.0000

> <Gold.PLP.Chemscore.Metal>
0.0000

> <Gold.Chemscore.Hbonds>
donor molecule, donor type, donor heavy atom, donor atom, acceptor molecule, acceptor atom, score
      P1  H  6896  6908       L1    21  1.00
      P1  H  7997  8010       L1    13  1.50

> <Gold.PLP.Chemscore.Internal.Correction>
0.6664

> <Gold.Rescore>
     Score         DG    S(hbond)    S(metal)    S(lipo)     H(rot)  DE(clash)    DE(int)     intcor
      6.66     -14.39       1.82        0.00      92.74       3.13       1.80       5.93       ----

> <Gold.Chemscore.Fitness>
6.6639

> <Gold.Chemscore.DG>
-14.3920

> <Gold.Chemscore.ZeroCoef>
-5.4800

> <Gold.Chemscore.Hbond>
1.8220

> <Gold.Chemscore.Metal>
0.0000

> <Gold.Chemscore.Lipo>
92.7448

> <Gold.Chemscore.Internal_Hbond>
0.0000

> <Gold.Chemscore.DEClash>
1.7978

> <Gold.Chemscore.DEInternal>
5.9303

> <Gold.Chemscore.Rot>
3.1346

> <Gold.Chemscore.Internal.Correction>
   9.000000E+99

> <Gold.Chemscore.Hbonds>
donor molecule, donor type, donor heavy atom, donor atom, acceptor molecule, acceptor atom, score
      P1  H  6896  6908       L1    21  0.92
      P1  H  7997  8010       L1    13  0.69

> <Gold.Chemscore.Hbond.Weighted>
-6.0854

> <Gold.Chemscore.Metal.Weighted>
-0.0000

> <Gold.Chemscore.Lipo.Weighted>
-10.8511

> <Gold.Chemscore.Internal_Hbond.Weighted>
0.0000

> <Gold.Chemscore.DEClash.Weighted>
1.7978

> <Gold.Chemscore.DEInternal.Weighted>
5.9303

> <Gold.Chemscore.Rot.Weighted>
8.0246

> <Gold.Chemscore.Internal.Correction.Weighted>
   9.000000E+99

> <Gold.Protein.RotatedTorsions>
[ 6907 6896 6895 6894 ] final  162.35 input  -60.11 | X-H torsion
[ 7974 7965 7964 7962 ] final  151.89 input  175.53 | X-H torsion
[ 8008 7997 7996 7995 ] final   88.33 input   59.86 | X-H torsion
[ 10167 10162 10161 10158 ] final  -29.65 input  -65.29 | X-H torsion
[ 10718 10713 10712 10709 ] final   87.37 input   66.30 | X-H torsion
[ 10763 10752 10751 10750 ] final  -79.89 input  -60.55 | X-H torsion
[ 11005 11000 10999 10996 ] final   10.19 input  -57.11 | X-H torsion

> <Gold.Protein.ActiveResidues>
 VAL166  LYS551  ARG553  GLY616  TRP617  ASP618  TYR619  PRO620  LYS621  CYS622 
 ASP623  PHE694  ASN695  SER759  ASP760  ASP761  ALA762  ILE779  LEU786  VAL792 
 PHE793  MET794  SER795  GLU796  ALA797  LYS798  CYS799  TRP800  GLU811  SER814 

> <Gold.Protein.RotatedAtoms>
  151.9418  133.3640  159.3967 H   0  0  0  0  0  0  0  0  0  0  0  0  # atno 6907 bound_to 6896
  150.6997  134.4431  159.5310 H   0  0  0  0  0  0  0  0  0  0  0  0  # atno 6908 bound_to 6896
  152.2089  134.8519  160.0550 H   0  0  0  0  0  0  0  0  0  0  0  0  # atno 6909 bound_to 6896
  144.8260  139.6597  143.6079 H   0  0  0  0  0  0  0  0  0  0  0  0  # atno 7974 bound_to 7965
  155.9864  140.3373  155.6711 H   0  0  0  0  0  0  0  0  0  0  0  0  # atno 8008 bound_to 7997
  155.6480  140.0702  157.2614 H   0  0  0  0  0  0  0  0  0  0  0  0  # atno 8009 bound_to 7997
  154.4206  140.1731  156.1631 H   0  0  0  0  0  0  0  0  0  0  0  0  # atno 8010 bound_to 7997
  140.7258  143.3911  151.1428 H   0  0  0  0  0  0  0  0  0  0  0  0  # atno 10167 bound_to 10162
  157.6939  131.0253  150.3113 H   0  0  0  0  0  0  0  0  0  0  0  0  # atno 10718 bound_to 10713
  154.5444  135.5680  153.6867 H   0  0  0  0  0  0  0  0  0  0  0  0  # atno 10763 bound_to 10752
  152.9972  135.6235  154.2459 H   0  0  0  0  0  0  0  0  0  0  0  0  # atno 10764 bound_to 10752
  154.2391  135.2863  155.2840 H   0  0  0  0  0  0  0  0  0  0  0  0  # atno 10765 bound_to 10752
  140.5173  134.0593  155.7835 H   0  0  0  0  0  0  0  0  0  0  0  0  # atno 11005 bound_to 11000
  146.2565  139.6315  142.9391 LP  0  0  0  0  0  0  0  0  0  0  0  0  # atno 17320 bound_to 7965
  145.4999  141.0437  143.2546 LP  0  0  0  0  0  0  0  0  0  0  0  0  # atno 17321 bound_to 7965
  139.7516  143.8769  152.3078 LP  0  0  0  0  0  0  0  0  0  0  0  0  # atno 17342 bound_to 10162
  139.8625  144.7110  150.9083 LP  0  0  0  0  0  0  0  0  0  0  0  0  # atno 17343 bound_to 10162
  156.3614  130.3847  149.7248 LP  0  0  0  0  0  0  0  0  0  0  0  0  # atno 17370 bound_to 10713
  156.4693  130.7989  151.3007 LP  0  0  0  0  0  0  0  0  0  0  0  0  # atno 17371 bound_to 10713
  141.1353  133.9232  157.2447 LP  0  0  0  0  0  0  0  0  0  0  0  0  # atno 17394 bound_to 11000
  139.9625  135.0150  156.9300 LP  0  0  0  0  0  0  0  0  0  0  0  0  # atno 17395 bound_to 11000

$$$$
