AV-unprocessed.smi:2526|AV-procd|sdf|9936|dock1
  -GOLD-   2272013583D 1   1.00000     0.00000
 Structure written by MMmdl.
 29 30  0  0  0  0  0  0  0  0  2 V2000
  145.9319  130.0172  151.7159 C   0  0  0  0  0  0  0  0  0  0  0  0
  146.0272  131.4521  151.8787 N   0  0  0  0  0  0  0  0  0  0  0  0
  145.7897  132.4413  150.9499 C   0  0  0  0  0  0  0  0  0  0  0  0
  146.0156  133.6462  151.5593 C   0  0  0  0  0  0  0  0  0  0  0  0
  145.9126  135.0497  150.9959 C   0  0  2  0  0  0  0  0  0  0  0  0
  146.3645  136.0392  151.9777 N   0  0  0  0  0  0  0  0  0  0  0  0
  145.5855  136.7716  152.7958 C   0  0  0  0  0  0  0  0  0  0  0  0
  146.0700  137.4894  153.6667 O   0  0  0  0  0  0  0  0  0  0  0  0
  144.0597  136.7485  152.6017 C   0  0  0  0  0  0  0  0  0  0  0  0
  143.5498  135.6104  151.6988 C   0  0  0  0  0  0  0  0  0  0  0  0
  144.4855  135.3912  150.5024 C   0  0  2  0  0  0  0  0  0  0  0  0
  143.9521  134.3826  149.5677 N   0  3  0  0  0  0  0  0  0  0  0  0
  146.3781  133.2721  152.8861 C   0  0  0  0  0  0  0  0  0  0  0  0
  146.3918  131.9633  153.0713 N   0  0  0  0  0  0  0  0  0  0  0  0
  145.6505  129.7746  150.6909 H   0  0  0  0  0  0  0  0  0  0  0  0
  145.1772  129.6179  152.3942 H   0  0  0  0  0  0  0  0  0  0  0  0
  146.8944  129.5550  151.9374 H   0  0  0  0  0  0  0  0  0  0  0  0
  145.4882  132.2085  149.9388 H   0  0  0  0  0  0  0  0  0  0  0  0
  146.5882  135.1416  150.1445 H   0  0  0  0  0  0  0  0  0  0  0  0
  147.3635  136.1172  152.1055 H   0  0  0  0  0  0  0  0  0  0  0  0
  143.5685  136.7025  153.5740 H   0  0  0  0  0  0  0  0  0  0  0  0
  143.7803  137.7060  152.1610 H   0  0  0  0  0  0  0  0  0  0  0  0
  143.4561  134.6924  152.2807 H   0  0  0  0  0  0  0  0  0  0  0  0
  142.5454  135.8516  151.3493 H   0  0  0  0  0  0  0  0  0  0  0  0
  144.5331  136.3265  149.9425 H   0  0  0  0  0  0  0  0  0  0  0  0
  144.5032  134.3861  148.7211 H   0  0  0  0  0  0  0  0  0  0  0  0
  142.9917  134.6021  149.3447 H   0  0  0  0  0  0  0  0  0  0  0  0
  146.6379  133.9132  153.7156 H   0  0  0  0  0  0  0  0  0  0  0  0
  143.9977  133.4685  149.9950 H   0  0  0  0  0  0  0  0  0  0  0  0
  1  2  1  0  0  0  0
  1 15  1  0  0  0  0
  1 16  1  0  0  0  0
  1 17  1  0  0  0  0
  2 14  1  0  0  0  0
  2  3  1  0  0  0  0
  3  4  2  0  0  0  0
  3 18  1  0  0  0  0
  4  5  1  0  0  0  0
  4 13  1  0  0  0  0
  5 11  1  0  0  0  0
  5  6  1  0  0  0  0
  5 19  1  0  0  0  0
  6  7  1  0  0  0  0
  6 20  1  0  0  0  0
  7  8  2  0  0  0  0
  7  9  1  0  0  0  0
  9 10  1  0  0  0  0
  9 21  1  0  0  0  0
  9 22  1  0  0  0  0
 10 11  1  0  0  0  0
 10 23  1  0  0  0  0
 10 24  1  0  0  0  0
 11 12  1  0  0  0  0
 11 25  1  0  0  0  0
 12 26  1  0  0  0  0
 12 27  1  0  0  0  0
 12 29  1  0  0  0  0
 13 14  2  0  0  0  0
 13 28  1  0  0  0  0
M  CHG  1  12   1
M  END
> <s_m_source_file>
AV-unprocessed.smi

> <i_m_source_file_index>
2526

> <i_lp_mmshare_version>
43012

> <i_f3d_flags>
0

> <s_epik_input>
W0NIM11uMVtjSF1jKFtjSF1uMSlbQ0BASF0yW05IXUMoPU8pW0NIMl1bQ0gyXVtDQEhdMltOSDJd

> <s_epik_cmdline>
J2VwaWtfcHl0aG9uJywgJy1waCcsICc3LjAnLCAnLXRuJywgJzgnLCAnLW1hJywgJzIwMCcsICctbWV0YWxfYmluZGluZycsICctaW1hZScsICc8aW5maWxlLm1hZT4nLCAnLW9tYWUnLCAnPG91dGZpbGUubWFlPic=

> <r_lp_tautomer_probability>
1

> <r_epik_Ionization_Penalty>
0.00878543

> <r_epik_Ionization_Penalty_Charging>
0.00874185

> <r_epik_Ionization_Penalty_Neutral>
4.35793e-05

> <r_epik_State_Penalty>
0.00660351

> <r_epik_Charging_Adjusted_Penalty>
0.0153454

> <i_epik_Tot_Q>
1

> <i_epik_Tot_abs_Q>
1

> <r_epik_Metal_State_Penalty>
0.00660727

> <b_epik_Metal_Only>
0

> <s_lp_Force_Field>
OPLS_2005

> <r_lp_Energy>
11.1602

> <b_lp_Chiralities_Consistent>
1

> <s_lp_Variant>
AV-unprocessed.smi:2526-3

> <Gold.Version>
5.8.1

> <Gold.Id.Protein>
6NUR|6NUR_protein|mol2

> <Gold.PLP.Fitness>
36.6336

> <Gold.PLP.PLP>
-24.6717

> <Gold.PLP.part.hbond>
-3.0000

> <Gold.PLP.part.metal>
0.0000

> <Gold.PLP.part.buried>
-5.2074

> <Gold.PLP.part.nonpolar>
-17.7063

> <Gold.PLP.part.repulsive>
0.4234

> <Gold.PLP.ligand.clash>
0.0000

> <Gold.PLP.ligand.torsion>
0.0285

> <Gold.PLP.Chemscore.Hbond>
4.0000

> <Gold.PLP.Chemscore.CHOScore>
0.0000

> <Gold.PLP.Chemscore.Metal>
0.0000

> <Gold.Chemscore.Hbonds>
donor molecule, donor type, donor heavy atom, donor atom, acceptor molecule, acceptor atom, score
      L1  H     6    20       P1  7948  1.00
      L1  H    12    26       P1  7921  1.00
      L1  H    12    27       P1 10186  2.00

> <Gold.PLP.Chemscore.Internal.Correction>
0.0189

> <Gold.Rescore>
     Score         DG    S(hbond)    S(metal)    S(lipo)     H(rot)  DE(clash)    DE(int)     intcor
     17.59     -18.73       2.90        0.00      52.43       1.00       0.26       0.88       ----

> <Gold.Chemscore.Fitness>
17.5938

> <Gold.Chemscore.DG>
-18.7314

> <Gold.Chemscore.ZeroCoef>
-5.4800

> <Gold.Chemscore.Hbond>
2.8974

> <Gold.Chemscore.Metal>
0.0000

> <Gold.Chemscore.Lipo>
52.4293

> <Gold.Chemscore.Internal_Hbond>
0.0000

> <Gold.Chemscore.DEClash>
0.2614

> <Gold.Chemscore.DEInternal>
0.8762

> <Gold.Chemscore.Rot>
1.0000

> <Gold.Chemscore.Internal.Correction>
   9.000000E+99

> <Gold.Chemscore.Hbonds>
donor molecule, donor type, donor heavy atom, donor atom, acceptor molecule, acceptor atom, score
      L1  H     6    20       P1  7948  0.98
      L1  H    12    26       P1  7921  0.94
      L1  H    12    27       P1 10186  0.93

> <Gold.Chemscore.Hbond.Weighted>
-9.6772

> <Gold.Chemscore.Metal.Weighted>
-0.0000

> <Gold.Chemscore.Lipo.Weighted>
-6.1342

> <Gold.Chemscore.Internal_Hbond.Weighted>
0.0000

> <Gold.Chemscore.DEClash.Weighted>
0.2614

> <Gold.Chemscore.DEInternal.Weighted>
0.8762

> <Gold.Chemscore.Rot.Weighted>
2.5600

> <Gold.Chemscore.Internal.Correction.Weighted>
   9.000000E+99

> <Gold.Protein.RotatedTorsions>
[ 6907 6896 6895 6894 ] final  170.51 input  -60.11 | X-H torsion
[ 7974 7965 7964 7962 ] final  -43.13 input  175.53 | X-H torsion
[ 8008 7997 7996 7995 ] final  -91.18 input   59.86 | X-H torsion
[ 10167 10162 10161 10158 ] final   82.53 input  -65.29 | X-H torsion
[ 10718 10713 10712 10709 ] final  142.14 input   66.30 | X-H torsion
[ 10763 10752 10751 10750 ] final  110.84 input  -60.55 | X-H torsion
[ 11005 11000 10999 10996 ] final -133.09 input  -57.11 | X-H torsion

> <Gold.Protein.ActiveResidues>
 VAL166  LYS551  ARG553  GLY616  TRP617  ASP618  TYR619  PRO620  LYS621  CYS622 
 ASP623  PHE694  ASN695  SER759  ASP760  ASP761  ALA762  ILE779  LEU786  VAL792 
 PHE793  MET794  SER795  GLU796  ALA797  LYS798  CYS799  TRP800  GLU811  SER814 

> <Gold.Protein.RotatedAtoms>
  151.8149  133.3386  159.3566 H   0  0  0  0  0  0  0  0  0  0  0  0  # atno 6907 bound_to 6896
  150.7314  134.5629  159.5860 H   0  0  0  0  0  0  0  0  0  0  0  0  # atno 6908 bound_to 6896
  152.3048  134.7569  160.0401 H   0  0  0  0  0  0  0  0  0  0  0  0  # atno 6909 bound_to 6896
  146.0049  140.7032  142.9252 H   0  0  0  0  0  0  0  0  0  0  0  0  # atno 7974 bound_to 7965
  154.7075  140.0522  157.0518 H   0  0  0  0  0  0  0  0  0  0  0  0  # atno 8008 bound_to 7997
  155.0600  140.3188  155.4645 H   0  0  0  0  0  0  0  0  0  0  0  0  # atno 8009 bound_to 7997
  156.2779  140.2100  156.5726 H   0  0  0  0  0  0  0  0  0  0  0  0  # atno 8010 bound_to 7997
  139.9278  144.6171  150.8375 H   0  0  0  0  0  0  0  0  0  0  0  0  # atno 10167 bound_to 10162
  157.3840  131.0996  151.0711 H   0  0  0  0  0  0  0  0  0  0  0  0  # atno 10718 bound_to 10713
  153.4548  135.3735  155.2304 H   0  0  0  0  0  0  0  0  0  0  0  0  # atno 10763 bound_to 10752
  154.8757  135.3894  154.3995 H   0  0  0  0  0  0  0  0  0  0  0  0  # atno 10764 bound_to 10752
  153.4560  135.7086  153.6144 H   0  0  0  0  0  0  0  0  0  0  0  0  # atno 10765 bound_to 10752
  140.9112  134.1565  157.4388 H   0  0  0  0  0  0  0  0  0  0  0  0  # atno 11005 bound_to 11000
  144.6932  140.3297  143.7218 LP  0  0  0  0  0  0  0  0  0  0  0  0  # atno 17320 bound_to 7965
  145.7431  139.1770  143.2364 LP  0  0  0  0  0  0  0  0  0  0  0  0  # atno 17321 bound_to 7965
  140.7645  143.3251  151.2533 LP  0  0  0  0  0  0  0  0  0  0  0  0  # atno 17342 bound_to 10162
  139.6807  143.9859  152.2807 LP  0  0  0  0  0  0  0  0  0  0  0  0  # atno 17343 bound_to 10162
  157.1769  130.6292  149.5659 LP  0  0  0  0  0  0  0  0  0  0  0  0  # atno 17370 bound_to 10713
  155.9782  130.4766  150.6643 LP  0  0  0  0  0  0  0  0  0  0  0  0  # atno 17371 bound_to 10713
  139.8758  134.9936  156.5654 LP  0  0  0  0  0  0  0  0  0  0  0  0  # atno 17394 bound_to 11000
  140.8108  133.8431  155.8808 LP  0  0  0  0  0  0  0  0  0  0  0  0  # atno 17395 bound_to 11000

$$$$
