AV-unprocessed.smi:1718|AV-procd|sdf|6924|dock4
  -GOLD-   22720 8133D 1   1.00000     0.00000
 Structure written by MMmdl.
 40 41  0  0  0  0  0  0  0  0  1 V2000
  153.8818  138.6287  160.5736 C   0  0  0  0  0  0  0  0  0  0  0  0
  153.4112  138.9035  159.1375 C   0  0  2  0  0  0  0  0  0  0  0  0
  152.5998  140.0731  159.1699 O   0  0  0  0  0  0  0  0  0  0  0  0
  153.2905  141.2907  159.4313 C   0  0  0  0  0  0  0  0  0  0  0  0
  152.2964  142.3341  159.9585 C   0  0  1  0  0  0  0  0  0  0  0  0
  152.8611  143.7602  160.0486 C   0  0  0  0  0  0  0  0  0  0  0  0
  152.0553  144.5267  159.0178 C   0  0  0  0  0  0  0  0  0  0  0  0
  150.7463  143.7499  158.9904 C   0  0  0  0  0  0  0  0  0  0  0  0
  151.1676  142.3988  159.0905 O   0  0  0  0  0  0  0  0  0  0  0  0
  152.6102  137.7194  158.5717 C   0  0  0  0  0  0  0  0  0  0  0  0
  152.3372  136.7693  159.3049 O   0  0  0  0  0  0  0  0  0  0  0  0
  152.2631  137.8252  157.2735 N   0  0  0  0  0  0  0  0  0  0  0  0
  151.5142  136.9477  156.4709 C   0  0  0  0  0  0  0  0  0  0  0  0
  151.2033  135.6654  156.7965 C   0  0  0  0  0  0  0  0  0  0  0  0
  150.4157  134.8153  155.9192 C   0  0  0  0  0  0  0  0  0  0  0  0
  150.1486  133.3559  156.2548 C   0  0  0  0  0  0  0  0  0  0  0  0
  149.7737  132.6712  155.1733 F   0  0  0  0  0  0  0  0  0  0  0  0
  151.2362  132.7752  156.7617 F   0  0  0  0  0  0  0  0  0  0  0  0
  149.1736  133.2706  157.1586 F   0  0  0  0  0  0  0  0  0  0  0  0
  150.0113  135.3623  154.7581 C   0  0  0  0  0  0  0  0  0  0  0  0
  150.3054  136.6868  154.4267 N   0  0  0  0  0  0  0  0  0  0  0  0
  151.0299  137.5220  155.2046 C   0  0  0  0  0  0  0  0  0  0  0  0
  151.2467  138.6773  154.8409 O   0  0  0  0  0  0  0  0  0  0  0  0
  149.9510  137.0288  153.5450 H   0  0  0  0  0  0  0  0  0  0  0  0
  154.5007  137.7321  160.6234 H   0  0  0  0  0  0  0  0  0  0  0  0
  153.0406  138.4946  161.2549 H   0  0  0  0  0  0  0  0  0  0  0  0
  154.4775  139.4610  160.9491 H   0  0  0  0  0  0  0  0  0  0  0  0
  154.2923  139.0887  158.5197 H   0  0  0  0  0  0  0  0  0  0  0  0
  154.0820  141.1252  160.1634 H   0  0  0  0  0  0  0  0  0  0  0  0
  153.7604  141.6727  158.5245 H   0  0  0  0  0  0  0  0  0  0  0  0
  151.9442  142.0268  160.9441 H   0  0  0  0  0  0  0  0  0  0  0  0
  152.6777  144.1685  161.0431 H   0  0  0  0  0  0  0  0  0  0  0  0
  153.9339  143.8157  159.8605 H   0  0  0  0  0  0  0  0  0  0  0  0
  151.9239  145.5787  159.2723 H   0  0  0  0  0  0  0  0  0  0  0  0
  152.5428  144.4670  158.0438 H   0  0  0  0  0  0  0  0  0  0  0  0
  150.1253  144.0032  159.8509 H   0  0  0  0  0  0  0  0  0  0  0  0
  150.1692  143.9260  158.0826 H   0  0  0  0  0  0  0  0  0  0  0  0
  152.6108  138.6398  156.7879 H   0  0  0  0  0  0  0  0  0  0  0  0
  151.5164  135.2363  157.7337 H   0  0  0  0  0  0  0  0  0  0  0  0
  149.4467  134.8370  154.0020 H   0  0  0  0  0  0  0  0  0  0  0  0
  1  2  1  0  0  0  0
  1 25  1  0  0  0  0
  1 26  1  0  0  0  0
  1 27  1  0  0  0  0
  2  3  1  0  0  0  0
  2 10  1  0  0  0  0
  2 28  1  0  0  0  0
  3  4  1  0  0  0  0
  4  5  1  0  0  0  0
  4 29  1  0  0  0  0
  4 30  1  0  0  0  0
  5  9  1  0  0  0  0
  5  6  1  0  0  0  0
  5 31  1  0  0  0  0
  6  7  1  0  0  0  0
  6 32  1  0  0  0  0
  6 33  1  0  0  0  0
  7  8  1  0  0  0  0
  7 34  1  0  0  0  0
  7 35  1  0  0  0  0
  8  9  1  0  0  0  0
  8 36  1  0  0  0  0
  8 37  1  0  0  0  0
 10 11  2  0  0  0  0
 10 12  1  0  0  0  0
 12 13  1  0  0  0  0
 12 38  1  0  0  0  0
 13 22  1  0  0  0  0
 13 14  2  0  0  0  0
 14 15  1  0  0  0  0
 14 39  1  0  0  0  0
 15 16  1  0  0  0  0
 15 20  2  0  0  0  0
 16 17  1  0  0  0  0
 16 18  1  0  0  0  0
 16 19  1  0  0  0  0
 20 21  1  0  0  0  0
 20 40  1  0  0  0  0
 21 24  1  0  0  0  0
 21 22  1  0  0  0  0
 22 23  2  0  0  0  0
M  END
> <s_m_source_file>
AV-unprocessed.smi

> <i_m_source_file_index>
1718

> <i_lp_mmshare_version>
43012

> <i_f3d_flags>
0

> <s_epik_input>
TzFbQ0gyXVtDSDJdW0NIMl1bQ0BIXTFbQ0gyXU9bQ0BASF0oW0NIM10pQyg9TylbTkhdYzJbY0hdYyhDKEYpKEYpRilbY0hdW25IXWMyPU8=

> <s_epik_cmdline>
J2VwaWtfcHl0aG9uJywgJy1waCcsICc3LjAnLCAnLXRuJywgJzgnLCAnLW1hJywgJzIwMCcsICctbWV0YWxfYmluZGluZycsICctaW1hZScsICc8aW5maWxlLm1hZT4nLCAnLW9tYWUnLCAnPG91dGZpbGUubWFlPic=

> <r_lp_tautomer_probability>
0.999

> <r_epik_Ionization_Penalty>
0.00894336

> <r_epik_Ionization_Penalty_Charging>
0.00894326

> <r_epik_Ionization_Penalty_Neutral>
1.00145e-07

> <r_epik_State_Penalty>
0.00676626

> <r_epik_Charging_Adjusted_Penalty>
0.0157095

> <i_epik_Tot_Q>
0

> <i_epik_Tot_abs_Q>
0

> <r_epik_Metal_State_Penalty>
0.321145

> <b_epik_Metal_Only>
0

> <s_lp_Force_Field>
OPLS_2005

> <r_lp_Energy>
34.3894

> <b_lp_Chiralities_Consistent>
1

> <s_lp_Variant>
AV-unprocessed.smi:1718-3

> <Gold.Version>
5.8.1

> <Gold.Id.Protein>
6NUR|6NUR_protein|mol2

> <Gold.PLP.Fitness>
41.0169

> <Gold.PLP.PLP>
-36.9787

> <Gold.PLP.part.hbond>
-2.9235

> <Gold.PLP.part.metal>
0.0000

> <Gold.PLP.part.buried>
-5.6059

> <Gold.PLP.part.nonpolar>
-29.4550

> <Gold.PLP.part.repulsive>
0.2963

> <Gold.PLP.ligand.clash>
0.6047

> <Gold.PLP.ligand.torsion>
0.9992

> <Gold.PLP.Chemscore.Hbond>
1.7771

> <Gold.PLP.Chemscore.CHOScore>
0.3856

> <Gold.PLP.Chemscore.Metal>
0.0000

> <Gold.Chemscore.Hbonds>
donor molecule, donor type, donor heavy atom, donor atom, acceptor molecule, acceptor atom, score
      L1  H    21    24       P1  7948  0.67
      P1  H  6896  6907       L1    11  1.00
      L1  C    20    40       P1  7948  0.52

> <Gold.PLP.Chemscore.Internal.Correction>
0.1532

> <Gold.Rescore>
     Score         DG    S(hbond)    S(metal)    S(lipo)     H(rot)  DE(clash)    DE(int)     intcor
     14.49     -16.61       1.71        0.00      87.43       1.88       0.04       2.07       ----

> <Gold.Chemscore.Fitness>
14.4949

> <Gold.Chemscore.DG>
-16.6083

> <Gold.Chemscore.ZeroCoef>
-5.4800

> <Gold.Chemscore.Hbond>
1.7095

> <Gold.Chemscore.Metal>
0.0000

> <Gold.Chemscore.Lipo>
87.4259

> <Gold.Chemscore.Internal_Hbond>
0.0000

> <Gold.Chemscore.DEClash>
0.0402

> <Gold.Chemscore.DEInternal>
2.0732

> <Gold.Chemscore.Rot>
1.8790

> <Gold.Chemscore.Internal.Correction>
   9.000000E+99

> <Gold.Chemscore.Hbonds>
donor molecule, donor type, donor heavy atom, donor atom, acceptor molecule, acceptor atom, score
      L1  H    21    24       P1  7948  0.22
      P1  H  6896  6907       L1    11  0.97

> <Gold.Chemscore.Hbond.Weighted>
-5.7096

> <Gold.Chemscore.Metal.Weighted>
-0.0000

> <Gold.Chemscore.Lipo.Weighted>
-10.2288

> <Gold.Chemscore.Internal_Hbond.Weighted>
0.0000

> <Gold.Chemscore.DEClash.Weighted>
0.0402

> <Gold.Chemscore.DEInternal.Weighted>
2.0732

> <Gold.Chemscore.Rot.Weighted>
4.8102

> <Gold.Chemscore.Internal.Correction.Weighted>
   9.000000E+99

> <Gold.Protein.RotatedTorsions>
[ 6907 6896 6895 6894 ] final   10.85 input  -60.11 | X-H torsion
[ 7974 7965 7964 7962 ] final -108.07 input  175.53 | X-H torsion
[ 8008 7997 7996 7995 ] final   13.07 input   59.86 | X-H torsion
[ 10167 10162 10161 10158 ] final  156.41 input  -65.29 | X-H torsion
[ 10718 10713 10712 10709 ] final -151.33 input   66.30 | X-H torsion
[ 10763 10752 10751 10750 ] final  -77.07 input  -60.55 | X-H torsion
[ 11005 11000 10999 10996 ] final   44.44 input  -57.11 | X-H torsion

> <Gold.Protein.ActiveResidues>
 VAL166  LYS551  ARG553  GLY616  TRP617  ASP618  TYR619  PRO620  LYS621  CYS622 
 ASP623  PHE694  ASN695  SER759  ASP760  ASP761  ALA762  ILE779  LEU786  VAL792 
 PHE793  MET794  SER795  GLU796  ALA797  LYS798  CYS799  TRP800  GLU811  SER814 

> <Gold.Protein.RotatedAtoms>
  151.7448  135.0846  160.0321 H   0  0  0  0  0  0  0  0  0  0  0  0  # atno 6907 bound_to 6896
  152.3456  133.6113  159.5916 H   0  0  0  0  0  0  0  0  0  0  0  0  # atno 6908 bound_to 6896
  150.7506  133.9571  159.3545 H   0  0  0  0  0  0  0  0  0  0  0  0  # atno 6909 bound_to 6896
  145.1974  140.9041  143.3389 H   0  0  0  0  0  0  0  0  0  0  0  0  # atno 7974 bound_to 7965
  154.8294  140.2897  155.5732 H   0  0  0  0  0  0  0  0  0  0  0  0  # atno 8008 bound_to 7997
  156.3004  140.2535  156.3147 H   0  0  0  0  0  0  0  0  0  0  0  0  # atno 8009 bound_to 7997
  154.9248  140.0385  157.2006 H   0  0  0  0  0  0  0  0  0  0  0  0  # atno 8010 bound_to 7997
  139.4821  144.5011  151.8167 H   0  0  0  0  0  0  0  0  0  0  0  0  # atno 10167 bound_to 10162
  156.4579  130.8199  151.2430 H   0  0  0  0  0  0  0  0  0  0  0  0  # atno 10718 bound_to 10713
  154.5082  135.5776  153.6584 H   0  0  0  0  0  0  0  0  0  0  0  0  # atno 10763 bound_to 10752
  152.9892  135.6152  154.2914 H   0  0  0  0  0  0  0  0  0  0  0  0  # atno 10764 bound_to 10752
  154.2826  135.2850  155.2669 H   0  0  0  0  0  0  0  0  0  0  0  0  # atno 10765 bound_to 10752
  140.1552  134.4411  155.8354 H   0  0  0  0  0  0  0  0  0  0  0  0  # atno 11005 bound_to 11000
  144.9981  139.3625  143.6181 LP  0  0  0  0  0  0  0  0  0  0  0  0  # atno 17320 bound_to 7965
  146.3424  139.9192  142.8769 LP  0  0  0  0  0  0  0  0  0  0  0  0  # atno 17321 bound_to 7965
  140.4504  144.1863  150.5897 LP  0  0  0  0  0  0  0  0  0  0  0  0  # atno 17342 bound_to 10162
  140.4591  143.2456  151.9245 LP  0  0  0  0  0  0  0  0  0  0  0  0  # atno 17343 bound_to 10162
  157.7499  131.0117  150.3354 LP  0  0  0  0  0  0  0  0  0  0  0  0  # atno 17370 bound_to 10713
  156.3747  130.3870  149.7148 LP  0  0  0  0  0  0  0  0  0  0  0  0  # atno 17371 bound_to 10713
  141.2203  133.6889  156.7494 LP  0  0  0  0  0  0  0  0  0  0  0  0  # atno 17394 bound_to 11000
  140.2556  134.8506  157.3710 LP  0  0  0  0  0  0  0  0  0  0  0  0  # atno 17395 bound_to 11000

$$$$
