AV-unprocessed.smi:6|AV-procd|sdf|41|dock10
  -GOLD-   2262015153D 1   1.00000     0.00000
 Structure written by MMmdl.
 36 37  0  0  0  0  0  0  0  0  2 V2000
  153.0794  143.2102  163.0543 C   0  0  0  0  0  0  0  0  0  0  0  0
  152.6080  142.4740  161.7903 C   0  0  0  0  0  0  0  0  0  0  0  0
  153.6749  141.5328  161.2100 C   0  0  0  0  0  0  0  0  0  0  0  0
  152.0634  143.4342  160.7404 C   0  0  0  0  0  0  0  0  0  0  0  0
  152.1777  144.7410  161.0001 N   0  0  0  0  0  0  0  0  0  0  0  0
  151.6927  145.5923  160.0709 C   0  0  0  0  0  0  0  0  0  0  0  0
  151.0930  145.1320  158.8817 C   0  0  0  0  0  0  0  0  0  0  0  0
  151.0218  143.7341  158.7106 C   0  0  0  0  0  0  0  0  0  0  0  0
  150.4435  143.2131  157.5453 N   0  0  0  0  0  0  0  0  0  0  0  0
  149.6291  142.0070  157.6276 C   0  0  0  0  0  0  0  0  0  0  0  0
  149.9907  140.9730  156.5722 C   0  0  0  0  0  0  0  0  0  0  0  0
  151.1694  140.3160  156.5839 C   0  0  0  0  0  0  0  0  0  0  0  0
  151.4969  139.3415  155.6272 N   0  0  0  0  0  0  0  0  0  0  0  0
  152.8056  138.6897  155.7191 C   0  0  0  0  0  0  0  0  0  0  0  0
  150.6079  139.0172  154.6459 C   0  0  0  0  0  0  0  0  0  0  0  0
  150.9214  138.1575  153.8215 O   0  0  0  0  0  0  0  0  0  0  0  0
  149.4007  139.6598  154.6162 N   0  5  0  0  0  0  0  0  0  0  0  0
  149.0322  140.6145  155.5203 C   0  0  0  0  0  0  0  0  0  0  0  0
  147.9361  141.1723  155.4755 O   0  0  0  0  0  0  0  0  0  0  0  0
  151.5138  142.8904  159.6486 N   0  0  0  0  0  0  0  0  0  0  0  0
  152.2746  143.8086  163.4821 H   0  0  0  0  0  0  0  0  0  0  0  0
  153.9136  143.8788  162.8385 H   0  0  0  0  0  0  0  0  0  0  0  0
  153.4092  142.5056  163.8179 H   0  0  0  0  0  0  0  0  0  0  0  0
  151.7791  141.8364  162.1035 H   0  0  0  0  0  0  0  0  0  0  0  0
  153.2822  140.9730  160.3610 H   0  0  0  0  0  0  0  0  0  0  0  0
  154.0091  140.8111  161.9558 H   0  0  0  0  0  0  0  0  0  0  0  0
  154.5508  142.0855  160.8686 H   0  0  0  0  0  0  0  0  0  0  0  0
  151.7848  146.6485  160.2764 H   0  0  0  0  0  0  0  0  0  0  0  0
  150.7082  145.8181  158.1416 H   0  0  0  0  0  0  0  0  0  0  0  0
  150.2251  143.8636  156.8040 H   0  0  0  0  0  0  0  0  0  0  0  0
  149.7507  141.5552  158.6129 H   0  0  0  0  0  0  0  0  0  0  0  0
  148.5758  142.2717  157.5260 H   0  0  0  0  0  0  0  0  0  0  0  0
  151.9312  140.4985  157.3275 H   0  0  0  0  0  0  0  0  0  0  0  0
  153.3798  138.8563  154.8067 H   0  0  0  0  0  0  0  0  0  0  0  0
  152.6872  137.6137  155.8549 H   0  0  0  0  0  0  0  0  0  0  0  0
  153.4023  139.0612  156.5527 H   0  0  0  0  0  0  0  0  0  0  0  0
  1  2  1  0  0  0  0
  1 21  1  0  0  0  0
  1 22  1  0  0  0  0
  1 23  1  0  0  0  0
  2  3  1  0  0  0  0
  2  4  1  0  0  0  0
  2 24  1  0  0  0  0
  3 25  1  0  0  0  0
  3 26  1  0  0  0  0
  3 27  1  0  0  0  0
  4 20  1  0  0  0  0
  4  5  2  0  0  0  0
  5  6  1  0  0  0  0
  6  7  2  0  0  0  0
  6 28  1  0  0  0  0
  7  8  1  0  0  0  0
  7 29  1  0  0  0  0
  8  9  1  0  0  0  0
  8 20  2  0  0  0  0
  9 10  1  0  0  0  0
  9 30  1  0  0  0  0
 10 11  1  0  0  0  0
 10 31  1  0  0  0  0
 10 32  1  0  0  0  0
 11 18  1  0  0  0  0
 11 12  2  0  0  0  0
 12 13  1  0  0  0  0
 12 33  1  0  0  0  0
 13 14  1  0  0  0  0
 13 15  1  0  0  0  0
 14 34  1  0  0  0  0
 14 35  1  0  0  0  0
 14 36  1  0  0  0  0
 15 16  2  0  0  0  0
 15 17  1  0  0  0  0
 17 18  1  0  0  0  0
 18 19  2  0  0  0  0
M  CHG  1  17  -1
M  END
> <s_m_source_file>
AV-unprocessed.smi

> <i_m_source_file_index>
6

> <i_lp_mmshare_version>
43012

> <i_f3d_flags>
0

> <s_epik_input>
W0NIM11bQ0hdKFtDSDNdKWMxbltjSF1bY0hdYyhuMSlbTkhdW0NIMl1jMltjSF1uKFtDSDNdKWMoPU8pW25IXWMyPU8=

> <s_epik_cmdline>
J2VwaWtfcHl0aG9uJywgJy1waCcsICc3LjAnLCAnLXRuJywgJzgnLCAnLW1hJywgJzIwMCcsICctbWV0YWxfYmluZGluZycsICctaW1hZScsICc8aW5maWxlLm1hZT4nLCAnLW9tYWUnLCAnPG91dGZpbGUubWFlPic=

> <r_lp_tautomer_probability>
0.999537

> <r_epik_Ionization_Penalty>
4.10508

> <r_epik_Ionization_Penalty_Charging>
6.01221e-07

> <r_epik_Ionization_Penalty_Neutral>
4.10508

> <r_epik_State_Penalty>
4.24889

> <r_epik_Charging_Adjusted_Penalty>
4.24889

> <i_epik_Tot_Q>
-1

> <i_epik_Tot_abs_Q>
1

> <r_epik_Metal_State_Penalty>
1.04429

> <b_epik_Metal_Only>
1

> <s_lp_Force_Field>
OPLS_2005

> <r_lp_Energy>
13.2658

> <b_lp_Chiralities_Consistent>
1

> <s_lp_Variant>
AV-unprocessed.smi:6-3

> <Gold.Version>
5.8.1

> <Gold.Id.Protein>
6NUR|6NUR_protein|mol2

> <Gold.PLP.Fitness>
44.0964

> <Gold.PLP.PLP>
-41.8953

> <Gold.PLP.part.hbond>
-1.0000

> <Gold.PLP.part.metal>
0.0000

> <Gold.PLP.part.buried>
-4.6818

> <Gold.PLP.part.nonpolar>
-37.3923

> <Gold.PLP.part.repulsive>
0.6444

> <Gold.PLP.ligand.clash>
0.0000

> <Gold.PLP.ligand.torsion>
0.4366

> <Gold.PLP.Chemscore.Hbond>
1.0000

> <Gold.PLP.Chemscore.CHOScore>
0.0000

> <Gold.PLP.Chemscore.Metal>
0.0000

> <Gold.Chemscore.Hbonds>
donor molecule, donor type, donor heavy atom, donor atom, acceptor molecule, acceptor atom, score
      L1  H     9    30       P1  8028  0.99

> <Gold.PLP.Chemscore.Internal.Correction>
0.0742

> <Gold.Rescore>
     Score         DG    S(hbond)    S(metal)    S(lipo)     H(rot)  DE(clash)    DE(int)     intcor
     13.36     -13.86       0.97        0.00      79.23       1.62       0.06       0.43       ----

> <Gold.Chemscore.Fitness>
13.3620

> <Gold.Chemscore.DG>
-13.8568

> <Gold.Chemscore.ZeroCoef>
-5.4800

> <Gold.Chemscore.Hbond>
0.9740

> <Gold.Chemscore.Metal>
0.0000

> <Gold.Chemscore.Lipo>
79.2307

> <Gold.Chemscore.Internal_Hbond>
0.0000

> <Gold.Chemscore.DEClash>
0.0609

> <Gold.Chemscore.DEInternal>
0.4338

> <Gold.Chemscore.Rot>
1.6196

> <Gold.Chemscore.Internal.Correction>
   9.000000E+99

> <Gold.Chemscore.Hbonds>
donor molecule, donor type, donor heavy atom, donor atom, acceptor molecule, acceptor atom, score
      L1  H     9    30       P1  8028  0.93

> <Gold.Chemscore.Hbond.Weighted>
-3.2531

> <Gold.Chemscore.Metal.Weighted>
-0.0000

> <Gold.Chemscore.Lipo.Weighted>
-9.2700

> <Gold.Chemscore.Internal_Hbond.Weighted>
0.0000

> <Gold.Chemscore.DEClash.Weighted>
0.0609

> <Gold.Chemscore.DEInternal.Weighted>
0.4338

> <Gold.Chemscore.Rot.Weighted>
4.1463

> <Gold.Chemscore.Internal.Correction.Weighted>
   9.000000E+99

> <Gold.Protein.RotatedTorsions>
[ 6907 6896 6895 6894 ] final   72.20 input  -60.11 | X-H torsion
[ 7974 7965 7964 7962 ] final -139.99 input  175.53 | X-H torsion
[ 8008 7997 7996 7995 ] final  149.35 input   59.86 | X-H torsion
[ 10167 10162 10161 10158 ] final -144.43 input  -65.29 | X-H torsion
[ 10718 10713 10712 10709 ] final  152.57 input   66.30 | X-H torsion
[ 10763 10752 10751 10750 ] final  137.69 input  -60.55 | X-H torsion
[ 11005 11000 10999 10996 ] final -101.06 input  -57.11 | X-H torsion

> <Gold.Protein.ActiveResidues>
 VAL166  LYS551  ARG553  GLY616  TRP617  ASP618  TYR619  PRO620  LYS621  CYS622 
 ASP623  PHE694  ASN695  SER759  ASP760  ASP761  ALA762  ILE779  LEU786  VAL792 
 PHE793  MET794  SER795  GLU796  ALA797  LYS798  CYS799  TRP800  GLU811  SER814 

> <Gold.Protein.RotatedAtoms>
  152.4854  134.4606  159.9603 H   0  0  0  0  0  0  0  0  0  0  0  0  # atno 6907 bound_to 6896
  151.4603  133.3588  159.2816 H   0  0  0  0  0  0  0  0  0  0  0  0  # atno 6908 bound_to 6896
  150.8961  134.8394  159.7388 H   0  0  0  0  0  0  0  0  0  0  0  0  # atno 6909 bound_to 6896
  144.8633  140.6253  143.5314 H   0  0  0  0  0  0  0  0  0  0  0  0  # atno 7974 bound_to 7965
  156.2758  140.2104  156.5843 H   0  0  0  0  0  0  0  0  0  0  0  0  # atno 8008 bound_to 7997
  154.7033  140.0519  157.0503 H   0  0  0  0  0  0  0  0  0  0  0  0  # atno 8009 bound_to 7997
  155.0705  140.3176  155.4635 H   0  0  0  0  0  0  0  0  0  0  0  0  # atno 8010 bound_to 7997
  139.7900  143.7980  152.2649 H   0  0  0  0  0  0  0  0  0  0  0  0  # atno 10167 bound_to 10162
  157.2561  131.0788  151.1697 H   0  0  0  0  0  0  0  0  0  0  0  0  # atno 10718 bound_to 10713
  153.8772  135.3048  155.3444 H   0  0  0  0  0  0  0  0  0  0  0  0  # atno 10763 bound_to 10752
  154.7778  135.4852  153.9784 H   0  0  0  0  0  0  0  0  0  0  0  0  # atno 10764 bound_to 10752
  153.1372  135.6816  153.9181 H   0  0  0  0  0  0  0  0  0  0  0  0  # atno 10765 bound_to 10752
  141.1246  133.8448  157.1183 H   0  0  0  0  0  0  0  0  0  0  0  0  # atno 11005 bound_to 11000
  145.4270  139.1555  143.4043 LP  0  0  0  0  0  0  0  0  0  0  0  0  # atno 17320 bound_to 7965
  146.2877  140.4384  142.8751 LP  0  0  0  0  0  0  0  0  0  0  0  0  # atno 17321 bound_to 7965
  139.8068  144.7352  150.9750 LP  0  0  0  0  0  0  0  0  0  0  0  0  # atno 17342 bound_to 10162
  140.7820  143.4290  151.0724 LP  0  0  0  0  0  0  0  0  0  0  0  0  # atno 17343 bound_to 10162
  157.3226  130.6945  149.6278 LP  0  0  0  0  0  0  0  0  0  0  0  0  # atno 17370 bound_to 10713
  155.9665  130.4331  150.4991 LP  0  0  0  0  0  0  0  0  0  0  0  0  # atno 17371 bound_to 10713
  140.0233  134.9936  157.0635 LP  0  0  0  0  0  0  0  0  0  0  0  0  # atno 17394 bound_to 11000
  140.4405  134.1686  155.7173 LP  0  0  0  0  0  0  0  0  0  0  0  0  # atno 17395 bound_to 11000

$$$$
