AV-unprocessed.smi:2124|AV-procd|sdf|8658|dock8
  -GOLD-   2272011403D 1   1.00000     0.00000
 Structure written by MMmdl.
 47 49  0  0  0  0  0  0  0  0  1 V2000
  147.3127  135.1617  155.3694 C   0  0  0  0  0  0  0  0  0  0  0  0
  148.4531  136.1315  155.1484 C   0  0  0  0  0  0  0  0  0  0  0  0
  148.0437  137.3810  154.7132 N   0  0  0  0  0  0  0  0  0  0  0  0
  149.0145  138.3453  154.5086 C   0  0  0  0  0  0  0  0  0  0  0  0
  148.4782  139.6917  154.0543 C   0  0  0  0  0  0  0  0  0  0  0  0
  150.3289  138.0732  154.7109 C   0  0  0  0  0  0  0  0  0  0  0  0
  151.4290  139.1131  154.5081 C   0  0  0  0  0  0  0  0  0  0  0  0
  152.2291  139.4766  155.7602 C   0  0  0  0  0  0  0  0  0  0  0  0
  153.3814  139.0661  155.8946 O   0  0  0  0  0  0  0  0  0  0  0  0
  151.6063  140.2488  156.6645 N   0  0  0  0  0  0  0  0  0  0  0  0
  152.1798  140.7215  157.9225 C   0  0  2  0  0  0  0  0  0  0  0  0
  152.3111  139.5416  158.8998 C   0  0  0  0  0  0  0  0  0  0  0  0
  151.3006  141.8624  158.4868 C   0  0  2  0  0  0  0  0  0  0  0  0
  150.9472  142.9706  157.4682 C   0  0  0  0  0  0  0  0  0  0  0  0
  151.2900  144.2646  158.2291 C   0  0  2  0  0  0  0  0  0  0  0  0
  152.8204  144.4201  158.2903 C   0  0  0  0  0  0  0  0  0  0  0  0
  153.2284  143.3402  159.3087 C   0  0  0  0  0  0  0  0  0  0  0  0
  151.8806  142.6806  159.6681 C   0  0  1  0  0  0  0  0  0  0  0  0
  150.9536  143.8923  159.6687 C   0  0  0  0  0  0  0  0  0  0  0  0
  150.7078  136.7096  155.1514 C   0  0  0  0  0  0  0  0  0  0  0  0
  151.8835  136.3917  155.3259 O   0  0  0  0  0  0  0  0  0  0  0  0
  149.6824  135.7743  155.3650 N   0  0  0  0  0  0  0  0  0  0  0  0
  147.0774  137.6257  154.5521 H   0  0  0  0  0  0  0  0  0  0  0  0
  147.6819  134.1996  155.7269 H   0  0  0  0  0  0  0  0  0  0  0  0
  146.7697  134.9946  154.4387 H   0  0  0  0  0  0  0  0  0  0  0  0
  146.6177  135.5561  156.1113 H   0  0  0  0  0  0  0  0  0  0  0  0
  148.7312  140.4682  154.7761 H   0  0  0  0  0  0  0  0  0  0  0  0
  147.3931  139.6767  153.9462 H   0  0  0  0  0  0  0  0  0  0  0  0
  148.9042  139.9641  153.0894 H   0  0  0  0  0  0  0  0  0  0  0  0
  151.0180  140.0326  154.0901 H   0  0  0  0  0  0  0  0  0  0  0  0
  152.1107  138.7460  153.7401 H   0  0  0  0  0  0  0  0  0  0  0  0
  150.6593  140.5360  156.4641 H   0  0  0  0  0  0  0  0  0  0  0  0
  153.1762  141.1146  157.7184 H   0  0  0  0  0  0  0  0  0  0  0  0
  152.7900  139.8481  159.8297 H   0  0  0  0  0  0  0  0  0  0  0  0
  152.9180  138.7423  158.4733 H   0  0  0  0  0  0  0  0  0  0  0  0
  151.3358  139.1221  159.1490 H   0  0  0  0  0  0  0  0  0  0  0  0
  150.3656  141.4165  158.8320 H   0  0  0  0  0  0  0  0  0  0  0  0
  151.5133  142.8924  156.5391 H   0  0  0  0  0  0  0  0  0  0  0  0
  149.8873  142.9321  157.2140 H   0  0  0  0  0  0  0  0  0  0  0  0
  150.7763  145.1468  157.8464 H   0  0  0  0  0  0  0  0  0  0  0  0
  153.2913  144.2738  157.3175 H   0  0  0  0  0  0  0  0  0  0  0  0
  153.0980  145.4114  158.6506 H   0  0  0  0  0  0  0  0  0  0  0  0
  153.9647  142.6414  158.9141 H   0  0  0  0  0  0  0  0  0  0  0  0
  153.6691  143.8049  160.1918 H   0  0  0  0  0  0  0  0  0  0  0  0
  151.9013  142.1324  160.6105 H   0  0  0  0  0  0  0  0  0  0  0  0
  151.2400  144.6580  160.3921 H   0  0  0  0  0  0  0  0  0  0  0  0
  149.9025  143.6371  159.8161 H   0  0  0  0  0  0  0  0  0  0  0  0
  1 24  1  0  0  0  0
  1 25  1  0  0  0  0
  1 26  1  0  0  0  0
  1  2  1  0  0  0  0
  2  3  1  0  0  0  0
  2 22  2  0  0  0  0
  3  4  1  0  0  0  0
  3 23  1  0  0  0  0
  4  6  2  0  0  0  0
  4  5  1  0  0  0  0
  5 27  1  0  0  0  0
  5 28  1  0  0  0  0
  5 29  1  0  0  0  0
  6 20  1  0  0  0  0
  6  7  1  0  0  0  0
  7  8  1  0  0  0  0
  7 30  1  0  0  0  0
  7 31  1  0  0  0  0
  8  9  2  0  0  0  0
  8 10  1  0  0  0  0
 10 11  1  0  0  0  0
 10 32  1  0  0  0  0
 11 12  1  0  0  0  0
 11 13  1  0  0  0  0
 11 33  1  0  0  0  0
 12 34  1  0  0  0  0
 12 35  1  0  0  0  0
 12 36  1  0  0  0  0
 13 18  1  0  0  0  0
 13 14  1  0  0  0  0
 13 37  1  0  0  0  0
 14 15  1  0  0  0  0
 14 38  1  0  0  0  0
 14 39  1  0  0  0  0
 15 19  1  0  0  0  0
 15 16  1  0  0  0  0
 15 40  1  0  0  0  0
 16 17  1  0  0  0  0
 16 41  1  0  0  0  0
 16 42  1  0  0  0  0
 17 18  1  0  0  0  0
 17 43  1  0  0  0  0
 17 44  1  0  0  0  0
 18 19  1  0  0  0  0
 18 45  1  0  0  0  0
 19 46  1  0  0  0  0
 19 47  1  0  0  0  0
 20 21  2  0  0  0  0
 20 22  1  0  0  0  0
M  END
> <s_m_source_file>
AV-unprocessed.smi

> <i_m_source_file_index>
2124

> <i_lp_mmshare_version>
43012

> <i_f3d_flags>
0

> <s_epik_input>
W0NIM11jMW5jKFtDSDNdKWMoYyg9TylbbkhdMSlbQ0gyXUMoPU8pW05IXVtDQEhdKFtDSDNdKVtDQEhdKFtDSDJdW0NASF0yMylbQ0BIXShbQ0gyXTMpW0NIMl1bQ0gyXTI=

> <s_epik_cmdline>
J2VwaWtfcHl0aG9uJywgJy1waCcsICc3LjAnLCAnLXRuJywgJzgnLCAnLW1hJywgJzIwMCcsICctbWV0YWxfYmluZGluZycsICctaW1hZScsICc8aW5maWxlLm1hZT4nLCAnLW9tYWUnLCAnPG91dGZpbGUubWFlPic=

> <r_lp_tautomer_probability>
0.156392

> <r_epik_Ionization_Penalty>
0.0139374

> <r_epik_Ionization_Penalty_Charging>
0.0138122

> <r_epik_Ionization_Penalty_Neutral>
0.000125146

> <r_epik_State_Penalty>
1.15342

> <r_epik_Charging_Adjusted_Penalty>
1.16723

> <i_epik_Tot_Q>
0

> <i_epik_Tot_abs_Q>
0

> <r_epik_Metal_State_Penalty>
1.3173

> <b_epik_Metal_Only>
0

> <s_lp_Force_Field>
OPLS_2005

> <r_lp_Energy>
55.868

> <b_lp_Chiralities_Consistent>
1

> <s_lp_Variant>
AV-unprocessed.smi:2124-9

> <Gold.Version>
5.8.1

> <Gold.Id.Protein>
6NUR|6NUR_protein|mol2

> <Gold.PLP.Fitness>
45.8962

> <Gold.PLP.PLP>
-40.7294

> <Gold.PLP.part.hbond>
-1.8611

> <Gold.PLP.part.metal>
0.0000

> <Gold.PLP.part.buried>
-3.8224

> <Gold.PLP.part.nonpolar>
-35.3817

> <Gold.PLP.part.repulsive>
0.2938

> <Gold.PLP.ligand.clash>
0.0000

> <Gold.PLP.ligand.torsion>
0.4274

> <Gold.PLP.Chemscore.Hbond>
2.0000

> <Gold.PLP.Chemscore.CHOScore>
0.0000

> <Gold.PLP.Chemscore.Metal>
0.0000

> <Gold.Chemscore.Hbonds>
donor molecule, donor type, donor heavy atom, donor atom, acceptor molecule, acceptor atom, score
      P1  H  7997  8009       L1     9  0.89
      P1  H 10752 10763       L1    21  0.89

> <Gold.PLP.Chemscore.Internal.Correction>
0.0216

> <Gold.Rescore>
     Score         DG    S(hbond)    S(metal)    S(lipo)     H(rot)  DE(clash)    DE(int)     intcor
     20.48     -20.99       1.97        0.00     112.47       1.65       0.19       0.32       ----

> <Gold.Chemscore.Fitness>
20.4800

> <Gold.Chemscore.DG>
-20.9927

> <Gold.Chemscore.ZeroCoef>
-5.4800

> <Gold.Chemscore.Hbond>
1.9719

> <Gold.Chemscore.Metal>
0.0000

> <Gold.Chemscore.Lipo>
112.4709

> <Gold.Chemscore.Internal_Hbond>
0.0000

> <Gold.Chemscore.DEClash>
0.1898

> <Gold.Chemscore.DEInternal>
0.3229

> <Gold.Chemscore.Rot>
1.6534

> <Gold.Chemscore.Internal.Correction>
   9.000000E+99

> <Gold.Chemscore.Hbonds>
donor molecule, donor type, donor heavy atom, donor atom, acceptor molecule, acceptor atom, score
      P1  H  7997  8009       L1     9  0.73
      P1  H 10752 10763       L1    21  0.87

> <Gold.Chemscore.Hbond.Weighted>
-6.5862

> <Gold.Chemscore.Metal.Weighted>
-0.0000

> <Gold.Chemscore.Lipo.Weighted>
-13.1591

> <Gold.Chemscore.Internal_Hbond.Weighted>
0.0000

> <Gold.Chemscore.DEClash.Weighted>
0.1898

> <Gold.Chemscore.DEInternal.Weighted>
0.3229

> <Gold.Chemscore.Rot.Weighted>
4.2326

> <Gold.Chemscore.Internal.Correction.Weighted>
   9.000000E+99

> <Gold.Protein.RotatedTorsions>
[ 6907 6896 6895 6894 ] final  178.37 input  -60.11 | X-H torsion
[ 7974 7965 7964 7962 ] final   81.82 input  175.53 | X-H torsion
[ 8008 7997 7996 7995 ] final -146.15 input   59.86 | X-H torsion
[ 10167 10162 10161 10158 ] final  -40.65 input  -65.29 | X-H torsion
[ 10718 10713 10712 10709 ] final   26.79 input   66.30 | X-H torsion
[ 10763 10752 10751 10750 ] final   72.51 input  -60.55 | X-H torsion
[ 11005 11000 10999 10996 ] final  -21.99 input  -57.11 | X-H torsion

> <Gold.Protein.ActiveResidues>
 VAL166  LYS551  ARG553  GLY616  TRP617  ASP618  TYR619  PRO620  LYS621  CYS622 
 ASP623  PHE694  ASN695  SER759  ASP760  ASP761  ALA762  ILE779  LEU786  VAL792 
 PHE793  MET794  SER795  GLU796  ALA797  LYS798  CYS799  TRP800  GLU811  SER814 

> <Gold.Protein.RotatedAtoms>
  151.6889  133.3311  159.3237 H   0  0  0  0  0  0  0  0  0  0  0  0  # atno 6907 bound_to 6896
  150.7788  134.6716  159.6404 H   0  0  0  0  0  0  0  0  0  0  0  0  # atno 6908 bound_to 6896
  152.3839  134.6551  160.0185 H   0  0  0  0  0  0  0  0  0  0  0  0  # atno 6909 bound_to 6896
  145.6331  139.2409  143.2073 H   0  0  0  0  0  0  0  0  0  0  0  0  # atno 7974 bound_to 7965
  155.5548  140.0620  157.2842 H   0  0  0  0  0  0  0  0  0  0  0  0  # atno 8008 bound_to 7997
  154.4409  140.1896  156.0767 H   0  0  0  0  0  0  0  0  0  0  0  0  # atno 8009 bound_to 7997
  156.0490  140.3286  155.7333 H   0  0  0  0  0  0  0  0  0  0  0  0  # atno 8010 bound_to 7997
  140.7027  143.3140  151.2955 H   0  0  0  0  0  0  0  0  0  0  0  0  # atno 10167 bound_to 10162
  157.2116  130.6937  149.6231 H   0  0  0  0  0  0  0  0  0  0  0  0  # atno 10718 bound_to 10713
  153.0463  135.5097  154.7755 H   0  0  0  0  0  0  0  0  0  0  0  0  # atno 10763 bound_to 10752
  154.6652  135.2944  154.9817 H   0  0  0  0  0  0  0  0  0  0  0  0  # atno 10764 bound_to 10752
  154.0654  135.6685  153.4870 H   0  0  0  0  0  0  0  0  0  0  0  0  # atno 10765 bound_to 10752
  140.8614  133.7785  156.0079 H   0  0  0  0  0  0  0  0  0  0  0  0  # atno 11005 bound_to 11000
  146.1340  140.7147  142.9398 LP  0  0  0  0  0  0  0  0  0  0  0  0  # atno 17320 bound_to 7965
  144.7186  140.4295  143.7025 LP  0  0  0  0  0  0  0  0  0  0  0  0  # atno 17321 bound_to 7965
  139.6573  144.0253  152.2668 LP  0  0  0  0  0  0  0  0  0  0  0  0  # atno 17342 bound_to 10162
  139.9809  144.6429  150.7902 LP  0  0  0  0  0  0  0  0  0  0  0  0  # atno 17343 bound_to 10162
  155.9690  130.4549  150.5868 LP  0  0  0  0  0  0  0  0  0  0  0  0  # atno 17370 bound_to 10713
  157.3666  131.0759  151.1592 LP  0  0  0  0  0  0  0  0  0  0  0  0  # atno 17371 bound_to 10713
  140.8678  134.2763  157.5205 LP  0  0  0  0  0  0  0  0  0  0  0  0  # atno 17394 bound_to 11000
  139.8707  134.9552  156.4198 LP  0  0  0  0  0  0  0  0  0  0  0  0  # atno 17395 bound_to 11000

$$$$
