AV-unprocessed.smi:59|AV-procd|sdf|587|dock3
  -GOLD-   2262016483D 1   1.00000     0.00000
 Structure written by MMmdl.
 29 30  0  0  0  0  0  0  0  0  2 V2000
  147.8711  141.9982  156.6391 C   0  0  0  0  0  0  0  0  0  0  0  0
  148.9747  141.2187  156.0876 N   0  0  0  0  0  0  0  0  0  0  0  0
  149.2064  140.9841  154.7883 C   0  0  0  0  0  0  0  0  0  0  0  0
  148.5430  141.4028  153.8393 O   0  0  0  0  0  0  0  0  0  0  0  0
  150.4473  140.1228  154.6258 C   0  0  2  0  0  0  0  0  0  0  0  0
  150.2844  139.1397  153.6207 O   0  0  0  0  0  0  0  0  0  0  0  0
  150.6109  139.5215  156.0359 C   0  0  1  0  0  0  0  0  0  0  0  0
  152.0539  139.1097  156.3937 C   0  0  0  0  0  0  0  0  0  0  0  0
  152.2727  138.5939  157.5124 O   0  0  0  0  0  0  0  0  0  0  0  0
  152.9270  139.3326  155.5263 O   0  5  0  0  0  0  0  0  0  0  0  0
  149.9223  140.5477  156.9771 C   0  0  1  0  0  0  0  0  0  0  0  0
  150.8635  141.5332  157.6440 C   0  0  0  0  0  0  0  0  0  0  0  0
  151.8450  141.2553  158.6388 C   0  0  0  0  0  0  0  0  0  0  0  0
  152.5095  142.3321  159.0257 N   0  0  0  0  0  0  0  0  0  0  0  0
  151.9849  143.3316  158.2887 N   0  0  0  0  0  0  0  0  0  0  0  0
  152.4915  144.6775  158.4490 C   0  0  0  0  0  0  0  0  0  0  0  0
  150.9905  142.8811  157.4486 C   0  0  0  0  0  0  0  0  0  0  0  0
  151.2749  140.7823  154.3600 H   0  0  0  0  0  0  0  0  0  0  0  0
  150.0159  138.6063  156.0689 H   0  0  0  0  0  0  0  0  0  0  0  0
  149.3545  140.0030  157.7328 H   0  0  0  0  0  0  0  0  0  0  0  0
  147.2979  142.5105  155.8653 H   0  0  0  0  0  0  0  0  0  0  0  0
  148.2476  142.7539  157.3288 H   0  0  0  0  0  0  0  0  0  0  0  0
  147.1904  141.3468  157.1873 H   0  0  0  0  0  0  0  0  0  0  0  0
  150.0759  139.5767  152.8093 H   0  0  0  0  0  0  0  0  0  0  0  0
  152.0912  140.3047  159.0880 H   0  0  0  0  0  0  0  0  0  0  0  0
  151.9320  145.3660  157.8150 H   0  0  0  0  0  0  0  0  0  0  0  0
  153.5440  144.7105  158.1659 H   0  0  0  0  0  0  0  0  0  0  0  0
  152.3893  144.9901  159.4887 H   0  0  0  0  0  0  0  0  0  0  0  0
  150.4607  143.5478  156.7844 H   0  0  0  0  0  0  0  0  0  0  0  0
  1  2  1  0  0  0  0
  1 21  1  0  0  0  0
  1 22  1  0  0  0  0
  1 23  1  0  0  0  0
  2 11  1  0  0  0  0
  2  3  1  0  0  0  0
  3  4  2  0  0  0  0
  3  5  1  0  0  0  0
  5 18  1  0  0  0  0
  5  6  1  0  0  0  0
  5  7  1  0  0  0  0
  6 24  1  0  0  0  0
  7 19  1  0  0  0  0
  7  8  1  0  0  0  0
  7 11  1  0  0  0  0
  8  9  2  0  0  0  0
  8 10  1  0  0  0  0
 11 20  1  0  0  0  0
 11 12  1  0  0  0  0
 12 17  2  0  0  0  0
 12 13  1  0  0  0  0
 13 14  2  0  0  0  0
 13 25  1  0  0  0  0
 14 15  1  0  0  0  0
 15 16  1  0  0  0  0
 15 17  1  0  0  0  0
 16 26  1  0  0  0  0
 16 27  1  0  0  0  0
 16 28  1  0  0  0  0
 17 29  1  0  0  0  0
M  CHG  1  10  -1
M  END
> <s_m_source_file>
AV-unprocessed.smi

> <i_m_source_file_index>
59

> <i_lp_mmshare_version>
43012

> <i_f3d_flags>
0

> <s_epik_input>
W0NIM11OMUMoPU8pW0NASF0oW09IXSlbQ0BIXShDKD1PKVtPSF0pW0NASF0xYzJbY0hdbm4oW0NIM10pW2NIXTI=

> <s_epik_cmdline>
J2VwaWtfcHl0aG9uJywgJy1waCcsICc3LjAnLCAnLXRuJywgJzgnLCAnLW1hJywgJzIwMCcsICctbWV0YWxfYmluZGluZycsICctaW1hZScsICc8aW5maWxlLm1hZT4nLCAnLW9tYWUnLCAnPG91dGZpbGUubWFlPic=

> <r_lp_tautomer_probability>
1

> <r_epik_Ionization_Penalty>
0.00173515

> <r_epik_Ionization_Penalty_Charging>
0.00120567

> <r_epik_Ionization_Penalty_Neutral>
0.000529476

> <r_epik_State_Penalty>
-0

> <r_epik_Charging_Adjusted_Penalty>
0.00120567

> <i_epik_Tot_Q>
-1

> <i_epik_Tot_abs_Q>
1

> <r_epik_Metal_State_Penalty>
-0

> <b_epik_Metal_Only>
0

> <s_lp_Force_Field>
OPLS_2005

> <r_lp_Energy>
8.21593

> <b_lp_Chiralities_Consistent>
1

> <s_lp_Variant>
AV-unprocessed.smi:59-3

> <Gold.Version>
5.8.1

> <Gold.Id.Protein>
6NUR|6NUR_protein|mol2

> <Gold.PLP.Fitness>
42.1194

> <Gold.PLP.PLP>
-28.6842

> <Gold.PLP.part.hbond>
-3.9586

> <Gold.PLP.part.metal>
0.0000

> <Gold.PLP.part.buried>
0.4162

> <Gold.PLP.part.nonpolar>
-25.5544

> <Gold.PLP.part.repulsive>
0.1660

> <Gold.PLP.ligand.clash>
0.0000

> <Gold.PLP.ligand.torsion>
0.0990

> <Gold.PLP.Chemscore.Hbond>
3.5382

> <Gold.PLP.Chemscore.CHOScore>
1.0000

> <Gold.PLP.Chemscore.Metal>
0.0000

> <Gold.Chemscore.Hbonds>
donor molecule, donor type, donor heavy atom, donor atom, acceptor molecule, acceptor atom, score
      L1  H     6    24       P1  7957  1.00
      P1  H  7997  8008       L1    10  2.00
      P1  H  8011  8017       L1     4  0.41
      L1  C    17    29       P1  8028  1.00

> <Gold.PLP.Chemscore.Internal.Correction>
0.0187

> <Gold.Rescore>
     Score         DG    S(hbond)    S(metal)    S(lipo)     H(rot)  DE(clash)    DE(int)     intcor
     13.02     -13.65       2.02        0.00      57.19       2.06       0.29       0.34       ----

> <Gold.Chemscore.Fitness>
13.0241

> <Gold.Chemscore.DG>
-13.6483

> <Gold.Chemscore.ZeroCoef>
-5.4800

> <Gold.Chemscore.Hbond>
2.0240

> <Gold.Chemscore.Metal>
0.0000

> <Gold.Chemscore.Lipo>
57.1950

> <Gold.Chemscore.Internal_Hbond>
0.0000

> <Gold.Chemscore.DEClash>
0.2867

> <Gold.Chemscore.DEInternal>
0.3375

> <Gold.Chemscore.Rot>
2.0639

> <Gold.Chemscore.Internal.Correction>
   9.000000E+99

> <Gold.Chemscore.Hbonds>
donor molecule, donor type, donor heavy atom, donor atom, acceptor molecule, acceptor atom, score
      L1  H     6    24       P1  7957  0.98
      P1  H  7997  8008       L1    10  0.99
      P1  H  8011  8017       L1     4  0.35

> <Gold.Chemscore.Hbond.Weighted>
-6.7602

> <Gold.Chemscore.Metal.Weighted>
-0.0000

> <Gold.Chemscore.Lipo.Weighted>
-6.6918

> <Gold.Chemscore.Internal_Hbond.Weighted>
0.0000

> <Gold.Chemscore.DEClash.Weighted>
0.2867

> <Gold.Chemscore.DEInternal.Weighted>
0.3375

> <Gold.Chemscore.Rot.Weighted>
5.2837

> <Gold.Chemscore.Internal.Correction.Weighted>
   9.000000E+99

> <Gold.Protein.RotatedTorsions>
[ 6907 6896 6895 6894 ] final  -95.71 input  -60.11 | X-H torsion
[ 7974 7965 7964 7962 ] final  131.83 input  175.53 | X-H torsion
[ 8008 7997 7996 7995 ] final  -14.88 input   59.86 | X-H torsion
[ 10167 10162 10161 10158 ] final   65.25 input  -65.29 | X-H torsion
[ 10718 10713 10712 10709 ] final  -79.16 input   66.30 | X-H torsion
[ 10763 10752 10751 10750 ] final  -77.01 input  -60.55 | X-H torsion
[ 11005 11000 10999 10996 ] final  -24.19 input  -57.11 | X-H torsion

> <Gold.Protein.ActiveResidues>
 VAL166  LYS551  ARG553  GLY616  TRP617  ASP618  TYR619  PRO620  LYS621  CYS622 
 ASP623  PHE694  ASN695  SER759  ASP760  ASP761  ALA762  ILE779  LEU786  VAL792 
 PHE793  MET794  SER795  GLU796  ALA797  LYS798  CYS799  TRP800  GLU811  SER814 

> <Gold.Protein.RotatedAtoms>
  150.6970  134.1616  159.4177 H   0  0  0  0  0  0  0  0  0  0  0  0  # atno 6907 bound_to 6896
  151.9596  135.0127  160.0556 H   0  0  0  0  0  0  0  0  0  0  0  0  # atno 6908 bound_to 6896
  152.1939  133.4757  159.5059 H   0  0  0  0  0  0  0  0  0  0  0  0  # atno 6909 bound_to 6896
  145.0032  139.4292  143.5282 H   0  0  0  0  0  0  0  0  0  0  0  0  # atno 7974 bound_to 7965
  154.5174  140.2211  155.9039 H   0  0  0  0  0  0  0  0  0  0  0  0  # atno 8008 bound_to 7997
  156.1623  140.3139  155.8794 H   0  0  0  0  0  0  0  0  0  0  0  0  # atno 8009 bound_to 7997
  155.3726  140.0467  157.3036 H   0  0  0  0  0  0  0  0  0  0  0  0  # atno 8010 bound_to 7997
  140.1133  144.4798  150.6964 H   0  0  0  0  0  0  0  0  0  0  0  0  # atno 10167 bound_to 10162
  156.0099  130.4538  150.3605 H   0  0  0  0  0  0  0  0  0  0  0  0  # atno 10718 bound_to 10713
  154.5073  135.5778  153.6577 H   0  0  0  0  0  0  0  0  0  0  0  0  # atno 10763 bound_to 10752
  152.9890  135.6150  154.2925 H   0  0  0  0  0  0  0  0  0  0  0  0  # atno 10764 bound_to 10752
  154.2837  135.2850  155.2665 H   0  0  0  0  0  0  0  0  0  0  0  0  # atno 10765 bound_to 10752
  140.8822  133.7646  156.0316 H   0  0  0  0  0  0  0  0  0  0  0  0  # atno 11005 bound_to 11000
  146.3456  139.9432  142.8738 LP  0  0  0  0  0  0  0  0  0  0  0  0  # atno 17320 bound_to 7965
  145.2125  140.9901  143.4092 LP  0  0  0  0  0  0  0  0  0  0  0  0  # atno 17321 bound_to 7965
  140.6913  143.2378  151.5123 LP  0  0  0  0  0  0  0  0  0  0  0  0  # atno 17342 bound_to 10162
  139.5607  144.2163  152.1687 LP  0  0  0  0  0  0  0  0  0  0  0  0  # atno 17343 bound_to 10162
  157.1694  131.0365  151.2803 LP  0  0  0  0  0  0  0  0  0  0  0  0  # atno 17370 bound_to 10713
  157.4242  130.7454  149.6937 LP  0  0  0  0  0  0  0  0  0  0  0  0  # atno 17371 bound_to 10713
  140.8447  134.3024  157.5299 LP  0  0  0  0  0  0  0  0  0  0  0  0  # atno 17394 bound_to 11000
  139.8721  134.9435  156.3856 LP  0  0  0  0  0  0  0  0  0  0  0  0  # atno 17395 bound_to 11000

$$$$
