AV-unprocessed.smi:2194|AV-procd|sdf|8903|dock6
  -GOLD-   2272012113D 1   1.00000     0.00000
 Structure written by MMmdl.
 45 47  0  0  0  0  0  0  0  0  1 V2000
  146.7890  132.3711  161.8594 C   0  0  0  0  0  0  0  0  0  0  0  0
  147.2240  133.7555  161.4251 C   0  0  0  0  0  0  0  0  0  0  0  0
  147.3784  134.7830  162.3765 C   0  0  0  0  0  0  0  0  0  0  0  0
  147.7843  136.0682  161.9683 C   0  0  0  0  0  0  0  0  0  0  0  0
  148.0432  136.3473  160.6106 C   0  0  0  0  0  0  0  0  0  0  0  0
  148.4358  137.6316  160.2998 O   0  0  0  0  0  0  0  0  0  0  0  0
  148.5782  137.9784  158.9287 C   0  0  0  0  0  0  0  0  0  0  0  0
  150.0640  137.9082  158.5463 C   0  0  1  0  0  0  0  0  0  0  0  0
  150.4849  136.5619  158.6442 O   0  0  0  0  0  0  0  0  0  0  0  0
  150.3322  138.4543  157.1290 C   0  0  0  0  0  0  0  0  0  0  0  0
  150.4977  139.9001  157.1085 N   0  0  0  0  0  0  0  0  0  0  0  0
  149.8095  140.7644  156.3357 C   0  0  0  0  0  0  0  0  0  0  0  0
  150.1235  142.0509  156.4906 N   0  0  0  0  0  0  0  0  0  0  0  0
  151.1156  141.9938  157.4636 C   0  0  0  0  0  0  0  0  0  0  0  0
  151.3560  140.7155  157.8462 C   0  0  0  0  0  0  0  0  0  0  0  0
  152.3488  140.3619  158.8669 C   0  0  0  0  0  0  0  0  0  0  0  0
  152.5402  139.1918  159.2009 O   0  0  0  0  0  0  0  0  0  0  0  0
  153.0120  141.4375  159.3952 N   0  0  0  0  0  0  0  0  0  0  0  0
  154.0197  141.1432  160.4321 C   0  0  0  0  0  0  0  0  0  0  0  0
  152.7828  142.7605  159.0559 C   0  0  0  0  0  0  0  0  0  0  0  0
  153.3855  143.6819  159.6132 O   0  0  0  0  0  0  0  0  0  0  0  0
  151.8571  143.0347  158.0798 N   0  0  0  0  0  0  0  0  0  0  0  0
  151.6031  144.4219  157.6802 C   0  0  0  0  0  0  0  0  0  0  0  0
  147.8890  135.3076  159.6588 C   0  0  0  0  0  0  0  0  0  0  0  0
  147.4824  134.0220  160.0661 C   0  0  0  0  0  0  0  0  0  0  0  0
  146.2088  132.4152  162.7817 H   0  0  0  0  0  0  0  0  0  0  0  0
  147.6608  131.7395  162.0313 H   0  0  0  0  0  0  0  0  0  0  0  0
  146.1700  131.9017  161.0940 H   0  0  0  0  0  0  0  0  0  0  0  0
  147.1865  134.5900  163.4219 H   0  0  0  0  0  0  0  0  0  0  0  0
  147.8988  136.8487  162.7063 H   0  0  0  0  0  0  0  0  0  0  0  0
  148.0096  137.2741  158.3189 H   0  0  0  0  0  0  0  0  0  0  0  0
  148.1900  138.9807  158.7391 H   0  0  0  0  0  0  0  0  0  0  0  0
  150.6445  138.4810  159.2708 H   0  0  0  0  0  0  0  0  0  0  0  0
  150.5881  136.2152  157.7711 H   0  0  0  0  0  0  0  0  0  0  0  0
  151.2059  137.9799  156.6843 H   0  0  0  0  0  0  0  0  0  0  0  0
  149.4957  138.2047  156.4752 H   0  0  0  0  0  0  0  0  0  0  0  0
  149.0500  140.4396  155.6397 H   0  0  0  0  0  0  0  0  0  0  0  0
  154.7637  141.9297  160.5624 H   0  0  0  0  0  0  0  0  0  0  0  0
  154.5932  140.2430  160.2038 H   0  0  0  0  0  0  0  0  0  0  0  0
  153.5284  140.9914  161.3940 H   0  0  0  0  0  0  0  0  0  0  0  0
  152.5313  144.9194  157.3951 H   0  0  0  0  0  0  0  0  0  0  0  0
  151.1564  144.9788  158.5049 H   0  0  0  0  0  0  0  0  0  0  0  0
  150.9268  144.4981  156.8289 H   0  0  0  0  0  0  0  0  0  0  0  0
  148.0777  135.4697  158.6085 H   0  0  0  0  0  0  0  0  0  0  0  0
  147.3700  133.2396  159.3297 H   0  0  0  0  0  0  0  0  0  0  0  0
  1  2  1  0  0  0  0
  1 26  1  0  0  0  0
  1 27  1  0  0  0  0
  1 28  1  0  0  0  0
  2 25  1  0  0  0  0
  2  3  2  0  0  0  0
  3  4  1  0  0  0  0
  3 29  1  0  0  0  0
  4  5  2  0  0  0  0
  4 30  1  0  0  0  0
  5  6  1  0  0  0  0
  5 24  1  0  0  0  0
  6  7  1  0  0  0  0
  7  8  1  0  0  0  0
  7 31  1  0  0  0  0
  7 32  1  0  0  0  0
  8  9  1  0  0  0  0
  8 10  1  0  0  0  0
  8 33  1  0  0  0  0
  9 34  1  0  0  0  0
 10 11  1  0  0  0  0
 10 35  1  0  0  0  0
 10 36  1  0  0  0  0
 11 15  1  0  0  0  0
 11 12  1  0  0  0  0
 12 13  2  0  0  0  0
 12 37  1  0  0  0  0
 13 14  1  0  0  0  0
 14 22  1  0  0  0  0
 14 15  2  0  0  0  0
 15 16  1  0  0  0  0
 16 17  2  0  0  0  0
 16 18  1  0  0  0  0
 18 19  1  0  0  0  0
 18 20  1  0  0  0  0
 19 38  1  0  0  0  0
 19 39  1  0  0  0  0
 19 40  1  0  0  0  0
 20 21  2  0  0  0  0
 20 22  1  0  0  0  0
 22 23  1  0  0  0  0
 23 41  1  0  0  0  0
 23 42  1  0  0  0  0
 23 43  1  0  0  0  0
 24 25  2  0  0  0  0
 24 44  1  0  0  0  0
 25 45  1  0  0  0  0
M  END
> <s_m_source_file>
AV-unprocessed.smi

> <i_m_source_file_index>
2194

> <i_lp_mmshare_version>
43012

> <i_f3d_flags>
0

> <s_epik_input>
W0NIM11jMVtjSF1bY0hdYyhbY0hdW2NIXTEpT1tDSDJdW0NASF0oW09IXSlbQ0gyXW4oW2NIXW4yKWMoYzIzKWMoPU8pbihbQ0gzXSljKD1PKW4zW0NIM10=

> <s_epik_cmdline>
J2VwaWtfcHl0aG9uJywgJy1waCcsICc3LjAnLCAnLXRuJywgJzgnLCAnLW1hJywgJzIwMCcsICctbWV0YWxfYmluZGluZycsICctaW1hZScsICc8aW5maWxlLm1hZT4nLCAnLW9tYWUnLCAnPG91dGZpbGUubWFlPic=

> <r_lp_tautomer_probability>
1

> <r_epik_Ionization_Penalty>
1.06124e-06

> <r_epik_Ionization_Penalty_Charging>
3.25921e-09

> <r_epik_Ionization_Penalty_Neutral>
1.05798e-06

> <r_epik_State_Penalty>
-0

> <r_epik_Charging_Adjusted_Penalty>
3.25921e-09

> <i_epik_Tot_Q>
0

> <i_epik_Tot_abs_Q>
0

> <r_epik_Metal_State_Penalty>
-0

> <b_epik_Metal_Only>
0

> <s_lp_Force_Field>
OPLS_2005

> <r_lp_Energy>
38.6758

> <b_lp_Chiralities_Consistent>
1

> <s_lp_Variant>
AV-unprocessed.smi:2194-2

> <Gold.Version>
5.8.1

> <Gold.Id.Protein>
6NUR|6NUR_protein|mol2

> <Gold.PLP.Fitness>
51.5054

> <Gold.PLP.PLP>
-47.6662

> <Gold.PLP.part.hbond>
-3.0000

> <Gold.PLP.part.metal>
0.0000

> <Gold.PLP.part.buried>
-4.8600

> <Gold.PLP.part.nonpolar>
-40.1703

> <Gold.PLP.part.repulsive>
0.0908

> <Gold.PLP.ligand.clash>
0.0000

> <Gold.PLP.ligand.torsion>
0.6579

> <Gold.PLP.Chemscore.Hbond>
1.7124

> <Gold.PLP.Chemscore.CHOScore>
0.0000

> <Gold.PLP.Chemscore.Metal>
0.0000

> <Gold.Chemscore.Hbonds>
donor molecule, donor type, donor heavy atom, donor atom, acceptor molecule, acceptor atom, score
      P1  H  6896  6907       L1     9  0.99
      P1  H  6931  6943       L1     6  0.45
      P1  H  6934  6947       L1     6  0.42

> <Gold.PLP.Chemscore.Internal.Correction>
0.0179

> <Gold.Rescore>
     Score         DG    S(hbond)    S(metal)    S(lipo)     H(rot)  DE(clash)    DE(int)     intcor
     10.73     -12.60       1.26        0.00      83.80       2.69       0.61       1.26       ----

> <Gold.Chemscore.Fitness>
10.7298

> <Gold.Chemscore.DG>
-12.6042

> <Gold.Chemscore.ZeroCoef>
-5.4800

> <Gold.Chemscore.Hbond>
1.2580

> <Gold.Chemscore.Metal>
0.0000

> <Gold.Chemscore.Lipo>
83.8042

> <Gold.Chemscore.Internal_Hbond>
0.0000

> <Gold.Chemscore.DEClash>
0.6120

> <Gold.Chemscore.DEInternal>
1.2625

> <Gold.Chemscore.Rot>
2.6885

> <Gold.Chemscore.Internal.Correction>
   9.000000E+99

> <Gold.Chemscore.Hbonds>
donor molecule, donor type, donor heavy atom, donor atom, acceptor molecule, acceptor atom, score
      P1  H  6896  6907       L1     9  0.41
      P1  H  6931  6943       L1     6  0.21
      P1  H  6934  6947       L1     6  0.11

> <Gold.Chemscore.Hbond.Weighted>
-4.2016

> <Gold.Chemscore.Metal.Weighted>
-0.0000

> <Gold.Chemscore.Lipo.Weighted>
-9.8051

> <Gold.Chemscore.Internal_Hbond.Weighted>
0.0000

> <Gold.Chemscore.DEClash.Weighted>
0.6120

> <Gold.Chemscore.DEInternal.Weighted>
1.2625

> <Gold.Chemscore.Rot.Weighted>
6.8825

> <Gold.Chemscore.Internal.Correction.Weighted>
   9.000000E+99

> <Gold.Protein.RotatedTorsions>
[ 6907 6896 6895 6894 ] final  -27.55 input  -60.11 | X-H torsion
[ 7974 7965 7964 7962 ] final  -34.43 input  175.53 | X-H torsion
[ 8008 7997 7996 7995 ] final   -1.27 input   59.86 | X-H torsion
[ 10167 10162 10161 10158 ] final   75.09 input  -65.29 | X-H torsion
[ 10718 10713 10712 10709 ] final  -83.17 input   66.30 | X-H torsion
[ 10763 10752 10751 10750 ] final -135.96 input  -60.55 | X-H torsion
[ 11005 11000 10999 10996 ] final -128.66 input  -57.11 | X-H torsion

> <Gold.Protein.ActiveResidues>
 VAL166  LYS551  ARG553  GLY616  TRP617  ASP618  TYR619  PRO620  LYS621  CYS622 
 ASP623  PHE694  ASN695  SER759  ASP760  ASP761  ALA762  ILE779  LEU786  VAL792 
 PHE793  MET794  SER795  GLU796  ALA797  LYS798  CYS799  TRP800  GLU811  SER814 

> <Gold.Protein.RotatedAtoms>
  151.1454  135.0200  159.8644 H   0  0  0  0  0  0  0  0  0  0  0  0  # atno 6907 bound_to 6896
  152.5453  134.1451  159.8505 H   0  0  0  0  0  0  0  0  0  0  0  0  # atno 6908 bound_to 6896
  151.1530  133.4849  159.2628 H   0  0  0  0  0  0  0  0  0  0  0  0  # atno 6909 bound_to 6896
  146.0830  140.6038  142.8900 H   0  0  0  0  0  0  0  0  0  0  0  0  # atno 7974 bound_to 7965
  154.6487  140.2563  155.7239 H   0  0  0  0  0  0  0  0  0  0  0  0  # atno 8008 bound_to 7997
  156.2564  140.2872  156.0832 H   0  0  0  0  0  0  0  0  0  0  0  0  # atno 8009 bound_to 7997
  155.1484  140.0381  157.2805 H   0  0  0  0  0  0  0  0  0  0  0  0  # atno 8010 bound_to 7997
  140.0067  144.5645  150.7692 H   0  0  0  0  0  0  0  0  0  0  0  0  # atno 10167 bound_to 10162
  156.0022  130.4657  150.4216 H   0  0  0  0  0  0  0  0  0  0  0  0  # atno 10718 bound_to 10713
  154.8693  135.3687  154.4982 H   0  0  0  0  0  0  0  0  0  0  0  0  # atno 10763 bound_to 10752
  153.5625  135.7022  153.5546 H   0  0  0  0  0  0  0  0  0  0  0  0  # atno 10764 bound_to 10752
  153.3615  135.4045  155.1685 H   0  0  0  0  0  0  0  0  0  0  0  0  # atno 10765 bound_to 10752
  140.9497  134.1082  157.4073 H   0  0  0  0  0  0  0  0  0  0  0  0  # atno 11005 bound_to 11000
  144.7306  140.4659  143.6941 LP  0  0  0  0  0  0  0  0  0  0  0  0  # atno 17320 bound_to 7965
  145.6183  139.1521  143.3037 LP  0  0  0  0  0  0  0  0  0  0  0  0  # atno 17321 bound_to 7965
  140.7398  143.2795  151.3640 LP  0  0  0  0  0  0  0  0  0  0  0  0  # atno 17342 bound_to 10162
  139.6234  144.0863  152.2412 LP  0  0  0  0  0  0  0  0  0  0  0  0  # atno 17343 bound_to 10162
  157.2271  131.0496  151.2513 LP  0  0  0  0  0  0  0  0  0  0  0  0  # atno 17370 bound_to 10713
  157.3746  130.7199  149.6588 LP  0  0  0  0  0  0  0  0  0  0  0  0  # atno 17371 bound_to 10713
  139.8844  135.0062  156.6365 LP  0  0  0  0  0  0  0  0  0  0  0  0  # atno 17394 bound_to 11000
  140.7619  133.8810  155.8425 LP  0  0  0  0  0  0  0  0  0  0  0  0  # atno 17395 bound_to 11000

$$$$
