AV-unprocessed.smi:21|AV-procd|sdf|160|dock8
  -GOLD-   2262015393D 1   1.00000     0.00000
 Structure written by MMmdl.
 61 64  0  0  0  0  0  0  0  0  1 V2000
  155.1609  140.6790  161.1545 C   0  0  0  0  0  0  0  0  0  0  0  0
  154.5959  141.2492  159.9844 O   0  0  0  0  0  0  0  0  0  0  0  0
  153.3161  141.8261  160.2024 C   0  0  2  0  0  0  0  0  0  0  0  0
  152.2366  141.1810  159.3174 C   0  0  0  0  0  0  0  0  0  0  0  0
  151.5122  142.3740  158.6789 C   0  0  2  0  0  0  0  0  0  0  0  0
  150.7704  142.0262  157.3676 C   0  0  0  0  0  0  0  0  0  0  0  0
  150.8760  140.6151  156.9936 N   0  0  0  0  0  0  0  0  0  0  0  0
  151.7607  140.2704  155.8849 C   0  0  0  0  0  0  0  0  0  0  0  0
  149.8048  139.8124  157.2324 C   0  0  0  0  0  0  0  0  0  0  0  0
  148.5959  140.1472  156.7059 N   0  0  0  0  0  0  0  0  0  0  0  0
  147.5146  139.4061  156.9627 C   0  0  0  0  0  0  0  0  0  0  0  0
  147.4170  138.3051  157.7083 N   0  0  0  0  0  0  0  0  0  0  0  0
  148.6279  137.9488  158.2229 C   0  0  0  0  0  0  0  0  0  0  0  0
  149.8629  138.6311  158.0283 C   0  0  0  0  0  0  0  0  0  0  0  0
  150.8819  137.9478  158.6827 N   0  0  0  0  0  0  0  0  0  0  0  0
  150.2825  136.9363  159.2477 C   0  0  0  0  0  0  0  0  0  0  0  0
  148.9223  136.8779  159.0485 N   0  0  0  0  0  0  0  0  0  0  0  0
  148.0111  135.8741  159.5682 C   0  0  0  0  0  0  0  0  0  0  0  0
  148.5155  135.1361  160.8404 C   0  0  1  0  0  0  0  0  0  0  0  0
  148.9143  136.1830  161.9091 C   0  0  0  0  0  0  0  0  0  0  0  0
  147.8867  137.1316  162.1109 O   0  0  0  0  0  0  0  0  0  0  0  0
  147.4862  134.1104  161.4055 C   0  0  2  0  0  0  0  0  0  0  0  0
  146.1326  134.6973  161.7795 C   0  0  0  0  0  0  0  0  0  0  0  0
  145.5497  133.6250  162.6879 C   0  0  0  0  0  0  0  0  0  0  0  0
  146.6583  133.1496  163.4328 O   0  0  0  0  0  0  0  0  0  0  0  0
  147.8664  133.4383  162.7368 C   0  0  0  0  0  0  0  0  0  0  0  0
  152.5591  143.3715  158.5269 N   0  0  0  0  0  0  0  0  0  0  0  0
  152.0653  144.7173  158.2666 C   0  0  0  0  0  0  0  0  0  0  0  0
  153.3164  143.2962  159.7638 C   0  0  0  0  0  0  0  0  0  0  0  0
  153.0474  141.7724  161.2591 H   0  0  0  0  0  0  0  0  0  0  0  0
  150.7866  142.7488  159.4031 H   0  0  0  0  0  0  0  0  0  0  0  0
  156.1397  140.2608  160.9206 H   0  0  0  0  0  0  0  0  0  0  0  0
  154.5395  139.8753  161.5509 H   0  0  0  0  0  0  0  0  0  0  0  0
  155.2966  141.4305  161.9332 H   0  0  0  0  0  0  0  0  0  0  0  0
  152.7010  140.5692  158.5420 H   0  0  0  0  0  0  0  0  0  0  0  0
  151.5662  140.5417  159.8915 H   0  0  0  0  0  0  0  0  0  0  0  0
  149.7083  142.2426  157.4788 H   0  0  0  0  0  0  0  0  0  0  0  0
  151.1134  142.6828  156.5713 H   0  0  0  0  0  0  0  0  0  0  0  0
  152.0550  139.2215  155.9357 H   0  0  0  0  0  0  0  0  0  0  0  0
  152.6687  140.8728  155.9192 H   0  0  0  0  0  0  0  0  0  0  0  0
  151.2723  140.4485  154.9263 H   0  0  0  0  0  0  0  0  0  0  0  0
  146.5950  139.7488  156.5119 H   0  0  0  0  0  0  0  0  0  0  0  0
  150.8176  136.2124  159.8448 H   0  0  0  0  0  0  0  0  0  0  0  0
  147.0680  136.3832  159.7680 H   0  0  0  0  0  0  0  0  0  0  0  0
  147.8032  135.1511  158.7784 H   0  0  0  0  0  0  0  0  0  0  0  0
  149.4211  134.5840  160.5859 H   0  0  0  0  0  0  0  0  0  0  0  0
  149.1512  135.6988  162.8571 H   0  0  0  0  0  0  0  0  0  0  0  0
  149.7959  136.7468  161.6080 H   0  0  0  0  0  0  0  0  0  0  0  0
  147.3330  136.8310  162.8155 H   0  0  0  0  0  0  0  0  0  0  0  0
  147.3157  133.3313  160.6606 H   0  0  0  0  0  0  0  0  0  0  0  0
  146.2582  135.6280  162.3345 H   0  0  0  0  0  0  0  0  0  0  0  0
  145.4927  134.8926  160.9187 H   0  0  0  0  0  0  0  0  0  0  0  0
  144.7618  134.0040  163.3393 H   0  0  0  0  0  0  0  0  0  0  0  0
  145.1420  132.8037  162.0973 H   0  0  0  0  0  0  0  0  0  0  0  0
  148.4297  132.5183  162.5889 H   0  0  0  0  0  0  0  0  0  0  0  0
  148.4623  134.1045  163.3611 H   0  0  0  0  0  0  0  0  0  0  0  0
  152.8926  145.4268  158.2257 H   0  0  0  0  0  0  0  0  0  0  0  0
  151.3768  145.0446  159.0468 H   0  0  0  0  0  0  0  0  0  0  0  0
  151.5451  144.7667  157.3104 H   0  0  0  0  0  0  0  0  0  0  0  0
  152.8248  143.8904  160.5361 H   0  0  0  0  0  0  0  0  0  0  0  0
  154.3228  143.6964  159.6379 H   0  0  0  0  0  0  0  0  0  0  0  0
  1  2  1  0  0  0  0
  1 32  1  0  0  0  0
  1 33  1  0  0  0  0
  1 34  1  0  0  0  0
  2  3  1  0  0  0  0
  3 30  1  0  0  0  0
  3 29  1  0  0  0  0
  3  4  1  0  0  0  0
  4  5  1  0  0  0  0
  4 35  1  0  0  0  0
  4 36  1  0  0  0  0
  5 31  1  0  0  0  0
  5  6  1  0  0  0  0
  5 27  1  0  0  0  0
  6  7  1  0  0  0  0
  6 37  1  0  0  0  0
  6 38  1  0  0  0  0
  7  8  1  0  0  0  0
  7  9  1  0  0  0  0
  8 39  1  0  0  0  0
  8 40  1  0  0  0  0
  8 41  1  0  0  0  0
  9 14  1  0  0  0  0
  9 10  2  0  0  0  0
 10 11  1  0  0  0  0
 11 12  2  0  0  0  0
 11 42  1  0  0  0  0
 12 13  1  0  0  0  0
 13 17  1  0  0  0  0
 13 14  2  0  0  0  0
 14 15  1  0  0  0  0
 15 16  2  0  0  0  0
 16 17  1  0  0  0  0
 16 43  1  0  0  0  0
 17 18  1  0  0  0  0
 18 19  1  0  0  0  0
 18 44  1  0  0  0  0
 18 45  1  0  0  0  0
 19 20  1  0  0  0  0
 19 22  1  0  0  0  0
 19 46  1  0  0  0  0
 20 21  1  0  0  0  0
 20 47  1  0  0  0  0
 20 48  1  0  0  0  0
 21 49  1  0  0  0  0
 22 26  1  0  0  0  0
 22 23  1  0  0  0  0
 22 50  1  0  0  0  0
 23 24  1  0  0  0  0
 23 51  1  0  0  0  0
 23 52  1  0  0  0  0
 24 25  1  0  0  0  0
 24 53  1  0  0  0  0
 24 54  1  0  0  0  0
 25 26  1  0  0  0  0
 26 55  1  0  0  0  0
 26 56  1  0  0  0  0
 27 28  1  0  0  0  0
 27 29  1  0  0  0  0
 28 57  1  0  0  0  0
 28 58  1  0  0  0  0
 28 59  1  0  0  0  0
 29 60  1  0  0  0  0
 29 61  1  0  0  0  0
M  END
> <s_m_source_file>
AV-unprocessed.smi

> <i_m_source_file_index>
21

> <i_lp_mmshare_version>
43012

> <i_f3d_flags>
0

> <s_epik_input>
W0NIM11PW0NASF0xW0NIMl1bQ0BIXShOKFtDSDNdKVtDSDJdMSlbQ0gyXU4oW0NIM10pYyhuW2NIXW4yKWMoYzIzKW5bY0hdbjNbQ0gyXVtDQEhdKFtDSDJdW09IXSlbQ0BASF00W0NIMl1bQ0gyXU9bQ0gyXTQ=

> <s_epik_cmdline>
J2VwaWtfcHl0aG9uJywgJy1waCcsICc3LjAnLCAnLXRuJywgJzgnLCAnLW1hJywgJzIwMCcsICctbWV0YWxfYmluZGluZycsICctaW1hZScsICc8aW5maWxlLm1hZT4nLCAnLW9tYWUnLCAnPG91dGZpbGUubWFlPic=

> <r_lp_tautomer_probability>
1

> <r_epik_Ionization_Penalty>
2.17574

> <r_epik_Ionization_Penalty_Charging>
0

> <r_epik_Ionization_Penalty_Neutral>
2.17574

> <r_epik_State_Penalty>
2.31336

> <r_epik_Charging_Adjusted_Penalty>
2.31336

> <i_epik_Tot_Q>
0

> <i_epik_Tot_abs_Q>
0

> <r_epik_Metal_State_Penalty>
2.31025

> <b_epik_Metal_Only>
0

> <s_lp_Force_Field>
OPLS_2005

> <r_lp_Energy>
69.8382

> <b_lp_Chiralities_Consistent>
1

> <s_lp_Variant>
AV-unprocessed.smi:21-40

> <Gold.Version>
5.8.1

> <Gold.Id.Protein>
6NUR|6NUR_protein|mol2

> <Gold.PLP.Fitness>
46.8004

> <Gold.PLP.PLP>
-50.3450

> <Gold.PLP.part.hbond>
-3.0000

> <Gold.PLP.part.metal>
0.0000

> <Gold.PLP.part.buried>
-6.3533

> <Gold.PLP.part.nonpolar>
-40.9131

> <Gold.PLP.part.repulsive>
0.0977

> <Gold.PLP.ligand.clash>
0.0000

> <Gold.PLP.ligand.torsion>
3.4100

> <Gold.PLP.Chemscore.Hbond>
0.8320

> <Gold.PLP.Chemscore.CHOScore>
0.0000

> <Gold.PLP.Chemscore.Metal>
0.0000

> <Gold.Chemscore.Hbonds>
donor molecule, donor type, donor heavy atom, donor atom, acceptor molecule, acceptor atom, score
      P1  H  6931  6943       L1    21  0.30
      P1  H  6934  6947       L1    21  0.15

> <Gold.PLP.Chemscore.Internal.Correction>
0.7794

> <Gold.Rescore>
     Score         DG    S(hbond)    S(metal)    S(lipo)     H(rot)  DE(clash)    DE(int)     intcor
     11.07     -14.59       0.93        0.00     117.17       3.00       0.01       3.52       ----

> <Gold.Chemscore.Fitness>
11.0697

> <Gold.Chemscore.DG>
-14.5945

> <Gold.Chemscore.ZeroCoef>
-5.4800

> <Gold.Chemscore.Hbond>
0.9261

> <Gold.Chemscore.Metal>
0.0000

> <Gold.Chemscore.Lipo>
117.1729

> <Gold.Chemscore.Internal_Hbond>
0.0000

> <Gold.Chemscore.DEClash>
0.0088

> <Gold.Chemscore.DEInternal>
3.5161

> <Gold.Chemscore.Rot>
3.0031

> <Gold.Chemscore.Internal.Correction>
   9.000000E+99

> <Gold.Chemscore.Hbonds>
donor molecule, donor type, donor heavy atom, donor atom, acceptor molecule, acceptor atom, score
      P1  H  6934  6947       L1    21  0.14

> <Gold.Chemscore.Hbond.Weighted>
-3.0933

> <Gold.Chemscore.Metal.Weighted>
-0.0000

> <Gold.Chemscore.Lipo.Weighted>
-13.7092

> <Gold.Chemscore.Internal_Hbond.Weighted>
0.0000

> <Gold.Chemscore.DEClash.Weighted>
0.0088

> <Gold.Chemscore.DEInternal.Weighted>
3.5161

> <Gold.Chemscore.Rot.Weighted>
7.6880

> <Gold.Chemscore.Internal.Correction.Weighted>
   9.000000E+99

> <Gold.Protein.RotatedTorsions>
[ 6907 6896 6895 6894 ] final   28.11 input  -60.11 | X-H torsion
[ 7974 7965 7964 7962 ] final  119.41 input  175.53 | X-H torsion
[ 8008 7997 7996 7995 ] final  178.53 input   59.86 | X-H torsion
[ 10167 10162 10161 10158 ] final   22.54 input  -65.29 | X-H torsion
[ 10718 10713 10712 10709 ] final -109.26 input   66.30 | X-H torsion
[ 10763 10752 10751 10750 ] final   -0.96 input  -60.55 | X-H torsion
[ 11005 11000 10999 10996 ] final  -33.31 input  -57.11 | X-H torsion

> <Gold.Protein.ActiveResidues>
 VAL166  LYS551  ARG553  GLY616  TRP617  ASP618  TYR619  PRO620  LYS621  CYS622 
 ASP623  PHE694  ASN695  SER759  ASP760  ASP761  ALA762  ILE779  LEU786  VAL792 
 PHE793  MET794  SER795  GLU796  ALA797  LYS798  CYS799  TRP800  GLU811  SER814 

> <Gold.Protein.RotatedAtoms>
  152.0122  134.9870  160.0568 H   0  0  0  0  0  0  0  0  0  0  0  0  # atno 6907 bound_to 6896
  152.1418  133.4463  159.4778 H   0  0  0  0  0  0  0  0  0  0  0  0  # atno 6908 bound_to 6896
  150.6866  134.2215  159.4441 H   0  0  0  0  0  0  0  0  0  0  0  0  # atno 6909 bound_to 6896
  145.1435  139.3253  143.4604 H   0  0  0  0  0  0  0  0  0  0  0  0  # atno 7974 bound_to 7965
  156.0536  140.1331  157.0022 H   0  0  0  0  0  0  0  0  0  0  0  0  # atno 8008 bound_to 7997
  154.4447  140.1006  156.6484 H   0  0  0  0  0  0  0  0  0  0  0  0  # atno 8009 bound_to 7997
  155.5485  140.3462  155.4465 H   0  0  0  0  0  0  0  0  0  0  0  0  # atno 8010 bound_to 7997
  140.5340  143.9792  150.6481 H   0  0  0  0  0  0  0  0  0  0  0  0  # atno 10167 bound_to 10162
  156.0528  130.5755  150.8075 H   0  0  0  0  0  0  0  0  0  0  0  0  # atno 10718 bound_to 10713
  153.3387  135.6979  153.6886 H   0  0  0  0  0  0  0  0  0  0  0  0  # atno 10763 bound_to 10752
  153.5659  135.3525  155.2819 H   0  0  0  0  0  0  0  0  0  0  0  0  # atno 10764 bound_to 10752
  154.8632  135.4260  154.2594 H   0  0  0  0  0  0  0  0  0  0  0  0  # atno 10765 bound_to 10752
  140.9624  133.7157  156.1390 H   0  0  0  0  0  0  0  0  0  0  0  0  # atno 11005 bound_to 11000
  146.3502  140.1481  142.8593 LP  0  0  0  0  0  0  0  0  0  0  0  0  # atno 17320 bound_to 7965
  145.0507  140.9015  143.4997 LP  0  0  0  0  0  0  0  0  0  0  0  0  # atno 17321 bound_to 7965
  140.3175  143.3158  152.0817 LP  0  0  0  0  0  0  0  0  0  0  0  0  # atno 17342 bound_to 10162
  139.4964  144.6596  151.6495 LP  0  0  0  0  0  0  0  0  0  0  0  0  # atno 17343 bound_to 10162
  157.5470  131.0942  150.9749 LP  0  0  0  0  0  0  0  0  0  0  0  0  # atno 17370 bound_to 10713
  157.0018  130.5603  149.5312 LP  0  0  0  0  0  0  0  0  0  0  0  0  # atno 17371 bound_to 10713
  140.7448  134.4110  157.5550 LP  0  0  0  0  0  0  0  0  0  0  0  0  # atno 17394 bound_to 11000
  139.8882  134.8861  156.2484 LP  0  0  0  0  0  0  0  0  0  0  0  0  # atno 17395 bound_to 11000

$$$$
