AV-unprocessed.smi:2229|AV-procd|sdf|9033|dock3
  -GOLD-   2272012243D 1   1.00000     0.00000
 Structure written by MMmdl.
 43 44  0  0  0  0  0  0  0  0  2 V2000
  152.6762  144.2910  158.4111 C   0  0  0  0  0  0  0  0  0  0  0  0
  151.7158  143.6386  159.4199 C   0  0  0  0  0  0  0  0  0  0  0  0
  151.9772  144.1813  160.8335 C   0  0  0  0  0  0  0  0  0  0  0  0
  151.7971  142.0981  159.4041 C   0  0  0  0  0  0  0  0  0  0  0  0
  151.8270  141.4853  157.9922 C   0  0  0  0  0  0  0  0  0  0  0  0
  150.6481  141.9392  157.1040 C   0  0  2  0  0  0  0  0  0  0  0  0
  149.2846  141.9246  157.8003 C   0  0  0  0  0  0  0  0  0  0  0  0
  148.2825  142.0274  156.6531 C   0  0  0  0  0  0  0  0  0  0  0  0
  148.9163  141.2561  155.4895 C   0  0  0  0  0  0  0  0  0  0  0  0
  150.4213  141.1265  155.8093 C   0  0  2  0  0  0  0  0  0  0  0  0
  150.7998  139.7230  155.9688 N   0  0  0  0  0  0  0  0  0  0  0  0
  151.9281  139.1641  155.5075 C   0  0  0  0  0  0  0  0  0  0  0  0
  152.7936  139.7943  154.8990 O   0  0  0  0  0  0  0  0  0  0  0  0
  152.1045  137.6704  155.8097 C   0  0  0  0  0  0  0  0  0  0  0  0
  152.4218  137.3960  157.2131 N   0  0  0  0  0  0  0  0  0  0  0  0
  152.1746  138.2898  158.2245 C   0  0  0  0  0  0  0  0  0  0  0  0
  152.5260  137.8017  159.3597 N   0  0  0  0  0  0  0  0  0  0  0  0
  153.0431  136.4932  159.0954 N   0  5  0  0  0  0  0  0  0  0  0  0
  152.9525  136.3014  157.7606 C   0  0  0  0  0  0  0  0  0  0  0  0
  153.2795  135.3116  157.1065 O   0  0  0  0  0  0  0  0  0  0  0  0
  153.7109  144.0110  158.6114 H   0  0  0  0  0  0  0  0  0  0  0  0
  152.6128  145.3785  158.4583 H   0  0  0  0  0  0  0  0  0  0  0  0
  152.4435  144.0029  157.3863 H   0  0  0  0  0  0  0  0  0  0  0  0
  150.6994  143.9261  159.1477 H   0  0  0  0  0  0  0  0  0  0  0  0
  152.9829  143.9324  161.1740 H   0  0  0  0  0  0  0  0  0  0  0  0
  151.2705  143.7665  161.5527 H   0  0  0  0  0  0  0  0  0  0  0  0
  151.8752  145.2664  160.8641 H   0  0  0  0  0  0  0  0  0  0  0  0
  152.6723  141.7737  159.9684 H   0  0  0  0  0  0  0  0  0  0  0  0
  150.9318  141.6968  159.9330 H   0  0  0  0  0  0  0  0  0  0  0  0
  152.7614  141.7683  157.5058 H   0  0  0  0  0  0  0  0  0  0  0  0
  151.8334  140.3979  158.0650 H   0  0  0  0  0  0  0  0  0  0  0  0
  150.8402  142.9683  156.7954 H   0  0  0  0  0  0  0  0  0  0  0  0
  149.1434  140.9818  158.3306 H   0  0  0  0  0  0  0  0  0  0  0  0
  149.1697  142.7349  158.5207 H   0  0  0  0  0  0  0  0  0  0  0  0
  147.2994  141.6410  156.9237 H   0  0  0  0  0  0  0  0  0  0  0  0
  148.1586  143.0740  156.3720 H   0  0  0  0  0  0  0  0  0  0  0  0
  148.4449  140.2767  155.3905 H   0  0  0  0  0  0  0  0  0  0  0  0
  148.7555  141.7793  154.5464 H   0  0  0  0  0  0  0  0  0  0  0  0
  151.0197  141.5646  155.0081 H   0  0  0  0  0  0  0  0  0  0  0  0
  150.1473  139.1301  156.4605 H   0  0  0  0  0  0  0  0  0  0  0  0
  151.1946  137.1472  155.5113 H   0  0  0  0  0  0  0  0  0  0  0  0
  152.9058  137.2666  155.1885 H   0  0  0  0  0  0  0  0  0  0  0  0
  151.7350  139.2638  158.0032 H   0  0  0  0  0  0  0  0  0  0  0  0
  1  2  1  0  0  0  0
  1 21  1  0  0  0  0
  1 22  1  0  0  0  0
  1 23  1  0  0  0  0
  2  3  1  0  0  0  0
  2  4  1  0  0  0  0
  2 24  1  0  0  0  0
  3 25  1  0  0  0  0
  3 26  1  0  0  0  0
  3 27  1  0  0  0  0
  4  5  1  0  0  0  0
  4 28  1  0  0  0  0
  4 29  1  0  0  0  0
  5  6  1  0  0  0  0
  5 30  1  0  0  0  0
  5 31  1  0  0  0  0
  6 10  1  0  0  0  0
  6  7  1  0  0  0  0
  6 32  1  0  0  0  0
  7  8  1  0  0  0  0
  7 33  1  0  0  0  0
  7 34  1  0  0  0  0
  8  9  1  0  0  0  0
  8 35  1  0  0  0  0
  8 36  1  0  0  0  0
  9 10  1  0  0  0  0
  9 37  1  0  0  0  0
  9 38  1  0  0  0  0
 10 11  1  0  0  0  0
 10 39  1  0  0  0  0
 11 12  1  0  0  0  0
 11 40  1  0  0  0  0
 12 13  2  0  0  0  0
 12 14  1  0  0  0  0
 14 15  1  0  0  0  0
 14 41  1  0  0  0  0
 14 42  1  0  0  0  0
 15 19  1  0  0  0  0
 15 16  1  0  0  0  0
 16 17  2  0  0  0  0
 16 43  1  0  0  0  0
 17 18  1  0  0  0  0
 18 19  1  0  0  0  0
 19 20  2  0  0  0  0
M  CHG  1  18  -1
M  END
> <s_m_source_file>
AV-unprocessed.smi

> <i_m_source_file_index>
2229

> <i_lp_mmshare_version>
43012

> <i_f3d_flags>
0

> <s_epik_input>
W0NIM11bQ0hdKFtDSDNdKVtDSDJdW0NIMl1bQ0BASF0xW0NIMl1bQ0gyXVtDSDJdW0NASF0xW05IXUMoPU8pW0NIMl1uMltjSF1uW25IXWMyPU8=

> <s_epik_cmdline>
J2VwaWtfcHl0aG9uJywgJy1waCcsICc3LjAnLCAnLXRuJywgJzgnLCAnLW1hJywgJzIwMCcsICctbWV0YWxfYmluZGluZycsICctaW1hZScsICc8aW5maWxlLm1hZT4nLCAnLW9tYWUnLCAnPG91dGZpbGUubWFlPic=

> <r_lp_tautomer_probability>
1

> <r_epik_Ionization_Penalty>
13.6733

> <r_epik_Ionization_Penalty_Charging>
13.6725

> <r_epik_Ionization_Penalty_Neutral>
0.000837689

> <r_epik_State_Penalty>
5.67062

> <r_epik_Charging_Adjusted_Penalty>
19.3431

> <i_epik_Tot_Q>
-1

> <i_epik_Tot_abs_Q>
1

> <r_epik_Metal_State_Penalty>
1.61781

> <b_epik_Metal_Only>
1

> <s_lp_Force_Field>
OPLS_2005

> <r_lp_Energy>
26.4382

> <b_lp_Chiralities_Consistent>
1

> <s_lp_Variant>
AV-unprocessed.smi:2229-7

> <Gold.Version>
5.8.1

> <Gold.Id.Protein>
6NUR|6NUR_protein|mol2

> <Gold.PLP.Fitness>
45.8737

> <Gold.PLP.PLP>
-34.4014

> <Gold.PLP.part.hbond>
-4.0000

> <Gold.PLP.part.metal>
0.0000

> <Gold.PLP.part.buried>
-3.9198

> <Gold.PLP.part.nonpolar>
-28.3592

> <Gold.PLP.part.repulsive>
0.1057

> <Gold.PLP.ligand.clash>
0.0000

> <Gold.PLP.ligand.torsion>
0.8801

> <Gold.PLP.Chemscore.Hbond>
4.3938

> <Gold.PLP.Chemscore.CHOScore>
0.0000

> <Gold.PLP.Chemscore.Metal>
0.0000

> <Gold.Chemscore.Hbonds>
donor molecule, donor type, donor heavy atom, donor atom, acceptor molecule, acceptor atom, score
      P1  H  6896  6907       L1    18  1.86
      P1  H  7989  7998       L1    13  0.41
      P1  H  7997  8010       L1    13  1.00
      P1  H 10752 10763       L1    20  1.00

> <Gold.PLP.Chemscore.Internal.Correction>
0.0511

> <Gold.Rescore>
     Score         DG    S(hbond)    S(metal)    S(lipo)     H(rot)  DE(clash)    DE(int)     intcor
     16.85     -18.42       2.88        0.00      85.15       2.59       0.01       1.56       ----

> <Gold.Chemscore.Fitness>
16.8478

> <Gold.Chemscore.DG>
-18.4199

> <Gold.Chemscore.ZeroCoef>
-5.4800

> <Gold.Chemscore.Hbond>
2.8797

> <Gold.Chemscore.Metal>
0.0000

> <Gold.Chemscore.Lipo>
85.1480

> <Gold.Chemscore.Internal_Hbond>
0.0000

> <Gold.Chemscore.DEClash>
0.0106

> <Gold.Chemscore.DEInternal>
1.5615

> <Gold.Chemscore.Rot>
2.5939

> <Gold.Chemscore.Internal.Correction>
   9.000000E+99

> <Gold.Chemscore.Hbonds>
donor molecule, donor type, donor heavy atom, donor atom, acceptor molecule, acceptor atom, score
      P1  H  6896  6907       L1    18  0.58
      P1  H  7989  7998       L1    13  0.16
      P1  H  7997  8010       L1    13  0.95
      P1  H 10752 10763       L1    20  1.00

> <Gold.Chemscore.Hbond.Weighted>
-9.6181

> <Gold.Chemscore.Metal.Weighted>
-0.0000

> <Gold.Chemscore.Lipo.Weighted>
-9.9623

> <Gold.Chemscore.Internal_Hbond.Weighted>
0.0000

> <Gold.Chemscore.DEClash.Weighted>
0.0106

> <Gold.Chemscore.DEInternal.Weighted>
1.5615

> <Gold.Chemscore.Rot.Weighted>
6.6405

> <Gold.Chemscore.Internal.Correction.Weighted>
   9.000000E+99

> <Gold.Protein.RotatedTorsions>
[ 6907 6896 6895 6894 ] final   35.94 input  -60.11 | X-H torsion
[ 7974 7965 7964 7962 ] final  -28.73 input  175.53 | X-H torsion
[ 8008 7997 7996 7995 ] final  109.55 input   59.86 | X-H torsion
[ 10167 10162 10161 10158 ] final   47.26 input  -65.29 | X-H torsion
[ 10718 10713 10712 10709 ] final   22.60 input   66.30 | X-H torsion
[ 10763 10752 10751 10750 ] final  124.54 input  -60.55 | X-H torsion
[ 11005 11000 10999 10996 ] final  170.45 input  -57.11 | X-H torsion

> <Gold.Protein.ActiveResidues>
 VAL166  LYS551  ARG553  GLY616  TRP617  ASP618  TYR619  PRO620  LYS621  CYS622 
 ASP623  PHE694  ASN695  SER759  ASP760  ASP761  ALA762  ILE779  LEU786  VAL792 
 PHE793  MET794  SER795  GLU796  ALA797  LYS798  CYS799  TRP800  GLU811  SER814 

> <Gold.Protein.RotatedAtoms>
  152.1230  134.9192  160.0562 H   0  0  0  0  0  0  0  0  0  0  0  0  # atno 6907 bound_to 6896
  152.0325  133.3938  159.4311 H   0  0  0  0  0  0  0  0  0  0  0  0  # atno 6908 bound_to 6896
  150.6850  134.3425  159.4918 H   0  0  0  0  0  0  0  0  0  0  0  0  # atno 6909 bound_to 6896
  146.1267  140.5321  142.8711 H   0  0  0  0  0  0  0  0  0  0  0  0  # atno 7974 bound_to 7965
  156.1988  140.3055  155.9482 H   0  0  0  0  0  0  0  0  0  0  0  0  # atno 8008 bound_to 7997
  155.3004  140.0446  157.3046 H   0  0  0  0  0  0  0  0  0  0  0  0  # atno 8009 bound_to 7997
  154.5543  140.2301  155.8443 H   0  0  0  0  0  0  0  0  0  0  0  0  # atno 8010 bound_to 7997
  140.3054  144.2884  150.6210 H   0  0  0  0  0  0  0  0  0  0  0  0  # atno 10167 bound_to 10162
  157.1546  130.6690  149.6023 H   0  0  0  0  0  0  0  0  0  0  0  0  # atno 10718 bound_to 10713
  153.6631  135.3343  155.3132 H   0  0  0  0  0  0  0  0  0  0  0  0  # atno 10763 bound_to 10752
  154.8510  135.4368  154.1784 H   0  0  0  0  0  0  0  0  0  0  0  0  # atno 10764 bound_to 10752
  153.2755  135.7004  153.7513 H   0  0  0  0  0  0  0  0  0  0  0  0  # atno 10765 bound_to 10752
  140.3085  134.7536  157.3973 H   0  0  0  0  0  0  0  0  0  0  0  0  # atno 11005 bound_to 11000
  144.7649  140.5508  143.6710 LP  0  0  0  0  0  0  0  0  0  0  0  0  # atno 17320 bound_to 7965
  145.5350  139.1475  143.3479 LP  0  0  0  0  0  0  0  0  0  0  0  0  # atno 17321 bound_to 7965
  140.5615  143.2191  151.7758 LP  0  0  0  0  0  0  0  0  0  0  0  0  # atno 17342 bound_to 10162
  139.4905  144.4342  151.9837 LP  0  0  0  0  0  0  0  0  0  0  0  0  # atno 17343 bound_to 10162
  155.9764  130.4733  150.6528 LP  0  0  0  0  0  0  0  0  0  0  0  0  # atno 17370 bound_to 10713
  157.4189  131.0834  151.1150 LP  0  0  0  0  0  0  0  0  0  0  0  0  # atno 17371 bound_to 10713
  140.1045  134.5427  155.8322 LP  0  0  0  0  0  0  0  0  0  0  0  0  # atno 17394 bound_to 11000
  141.2113  133.6705  156.6573 LP  0  0  0  0  0  0  0  0  0  0  0  0  # atno 17395 bound_to 11000

$$$$
