AV-unprocessed.smi:1971|AV-procd|sdf|7962|dock8
  -GOLD-   2272010133D 1   1.00000     0.00000
 Structure written by MMmdl.
 44 45  0  0  0  0  0  0  0  0  2 V2000
  146.6279  128.4897  152.2343 C   0  0  0  0  0  0  0  0  0  0  0  0
  145.7513  129.6946  151.8639 C   0  0  0  0  0  0  0  0  0  0  0  0
  146.5355  130.9425  151.6874 N   0  3  0  0  0  0  0  0  0  0  0  0
  147.0069  131.4941  152.9815 C   0  0  0  0  0  0  0  0  0  0  0  0
  147.8378  132.7742  152.7547 C   0  0  0  0  0  0  0  0  0  0  0  0
  147.0521  133.8197  152.0833 N   0  0  0  0  0  0  0  0  0  0  0  0
  145.9164  134.3700  152.8571 C   0  0  2  0  0  0  0  0  0  0  0  0
  145.0115  135.2304  151.9437 C   0  0  0  0  0  0  0  0  0  0  0  0
  146.3900  135.2046  154.0797 C   0  0  0  0  0  0  0  0  0  0  0  0
  147.4222  136.1760  153.7292 N   0  0  0  0  0  0  0  0  0  0  0  0
  147.8082  137.1933  154.5137 C   0  0  0  0  0  0  0  0  0  0  0  0
  147.3265  137.4090  155.6269 O   0  0  0  0  0  0  0  0  0  0  0  0
  148.7690  137.9280  153.9264 N   0  0  0  0  0  0  0  0  0  0  0  0
  149.4062  139.0955  154.4235 C   0  0  0  0  0  0  0  0  0  0  0  0
  150.5792  139.0985  155.0678 N   0  0  0  0  0  0  0  0  0  0  0  0
  150.9648  140.3864  155.4481 C   0  0  0  0  0  0  0  0  0  0  0  0
  150.0667  141.3586  155.0839 C   0  0  0  0  0  0  0  0  0  0  0  0
  148.6931  140.6916  154.2424 S   0  0  0  0  0  0  0  0  0  0  0  0
  146.6867  133.2614  150.7726 C   0  0  0  0  0  0  0  0  0  0  0  0
  145.8251  131.9845  150.9018 C   0  0  0  0  0  0  0  0  0  0  0  0
  146.0088  127.6146  152.4333 H   0  0  0  0  0  0  0  0  0  0  0  0
  147.2153  128.6885  153.1314 H   0  0  0  0  0  0  0  0  0  0  0  0
  147.3146  128.2215  151.4320 H   0  0  0  0  0  0  0  0  0  0  0  0
  145.1739  129.4858  150.9620 H   0  0  0  0  0  0  0  0  0  0  0  0
  145.0275  129.8407  152.6668 H   0  0  0  0  0  0  0  0  0  0  0  0
  146.1617  131.6833  153.6448 H   0  0  0  0  0  0  0  0  0  0  0  0
  147.6303  130.7513  153.4802 H   0  0  0  0  0  0  0  0  0  0  0  0
  148.2642  133.1327  153.6891 H   0  0  0  0  0  0  0  0  0  0  0  0
  148.7030  132.5351  152.1345 H   0  0  0  0  0  0  0  0  0  0  0  0
  145.3135  133.5476  153.2375 H   0  0  0  0  0  0  0  0  0  0  0  0
  144.2168  135.7194  152.5063 H   0  0  0  0  0  0  0  0  0  0  0  0
  144.5052  134.6385  151.1829 H   0  0  0  0  0  0  0  0  0  0  0  0
  145.5827  136.0122  151.4418 H   0  0  0  0  0  0  0  0  0  0  0  0
  145.5772  135.7706  154.5323 H   0  0  0  0  0  0  0  0  0  0  0  0
  146.7826  134.5473  154.8562 H   0  0  0  0  0  0  0  0  0  0  0  0
  147.8666  136.0668  152.8292 H   0  0  0  0  0  0  0  0  0  0  0  0
  149.0733  137.6242  153.0133 H   0  0  0  0  0  0  0  0  0  0  0  0
  151.8967  140.5212  155.9772 H   0  0  0  0  0  0  0  0  0  0  0  0
  150.1302  142.4221  155.2596 H   0  0  0  0  0  0  0  0  0  0  0  0
  146.1821  134.0004  150.1533 H   0  0  0  0  0  0  0  0  0  0  0  0
  147.6022  133.0219  150.2293 H   0  0  0  0  0  0  0  0  0  0  0  0
  145.6162  131.6081  149.9010 H   0  0  0  0  0  0  0  0  0  0  0  0
  144.8570  132.2045  151.3525 H   0  0  0  0  0  0  0  0  0  0  0  0
  147.3661  130.6979  151.1675 H   0  0  0  0  0  0  0  0  0  0  0  0
  1  2  1  0  0  0  0
  1 21  1  0  0  0  0
  1 22  1  0  0  0  0
  1 23  1  0  0  0  0
  2  3  1  0  0  0  0
  2 24  1  0  0  0  0
  2 25  1  0  0  0  0
  3 20  1  0  0  0  0
  3  4  1  0  0  0  0
  3 44  1  0  0  0  0
  4  5  1  0  0  0  0
  4 26  1  0  0  0  0
  4 27  1  0  0  0  0
  5  6  1  0  0  0  0
  5 28  1  0  0  0  0
  5 29  1  0  0  0  0
  6  7  1  0  0  0  0
  6 19  1  0  0  0  0
  7  8  1  0  0  0  0
  7  9  1  0  0  0  0
  7 30  1  0  0  0  0
  8 31  1  0  0  0  0
  8 32  1  0  0  0  0
  8 33  1  0  0  0  0
  9 10  1  0  0  0  0
  9 34  1  0  0  0  0
  9 35  1  0  0  0  0
 10 11  1  0  0  0  0
 10 36  1  0  0  0  0
 11 12  2  0  0  0  0
 11 13  1  0  0  0  0
 13 14  1  0  0  0  0
 13 37  1  0  0  0  0
 14 18  1  0  0  0  0
 14 15  2  0  0  0  0
 15 16  1  0  0  0  0
 16 17  2  0  0  0  0
 16 38  1  0  0  0  0
 17 18  1  0  0  0  0
 17 39  1  0  0  0  0
 19 20  1  0  0  0  0
 19 40  1  0  0  0  0
 19 41  1  0  0  0  0
 20 42  1  0  0  0  0
 20 43  1  0  0  0  0
M  CHG  1   3   1
M  END
> <s_m_source_file>
AV-unprocessed.smi

> <i_m_source_file_index>
1971

> <i_lp_mmshare_version>
43012

> <i_f3d_flags>
0

> <s_epik_input>
W0NIM11bQ0gyXU4xW0NIMl1bQ0gyXU4oW0NIMl1bQ0gyXTEpW0NASF0oW0NIM10pW0NIMl1bTkhdQyg9TylbTkhdYzJuW2NIXVtjSF1zMg==

> <s_epik_cmdline>
J2VwaWtfcHl0aG9uJywgJy1waCcsICc3LjAnLCAnLXRuJywgJzgnLCAnLW1hJywgJzIwMCcsICctbWV0YWxfYmluZGluZycsICctaW1hZScsICc8aW5maWxlLm1hZT4nLCAnLW9tYWUnLCAnPG91dGZpbGUubWFlPic=

> <r_lp_tautomer_probability>
0.999

> <r_epik_Ionization_Penalty>
0.0459519

> <r_epik_Ionization_Penalty_Charging>
0.0451959

> <r_epik_Ionization_Penalty_Neutral>
0.000756076

> <r_epik_State_Penalty>
0.165541

> <r_epik_Charging_Adjusted_Penalty>
0.210737

> <i_epik_Tot_Q>
1

> <i_epik_Tot_abs_Q>
1

> <r_epik_Metal_State_Penalty>
0.198809

> <b_epik_Metal_Only>
0

> <s_lp_Force_Field>
OPLS_2005

> <r_lp_Energy>
18.3118

> <b_lp_Chiralities_Consistent>
1

> <s_lp_Variant>
AV-unprocessed.smi:1971-1

> <Gold.Version>
5.8.1

> <Gold.Id.Protein>
6NUR|6NUR_protein|mol2

> <Gold.PLP.Fitness>
42.6829

> <Gold.PLP.PLP>
-33.3357

> <Gold.PLP.part.hbond>
-2.8928

> <Gold.PLP.part.metal>
0.0000

> <Gold.PLP.part.buried>
-4.3098

> <Gold.PLP.part.nonpolar>
-27.0266

> <Gold.PLP.part.repulsive>
0.9072

> <Gold.PLP.ligand.clash>
0.0000

> <Gold.PLP.ligand.torsion>
1.1910

> <Gold.PLP.Chemscore.Hbond>
2.8960

> <Gold.PLP.Chemscore.CHOScore>
1.0000

> <Gold.PLP.Chemscore.Metal>
0.0000

> <Gold.Chemscore.Hbonds>
donor molecule, donor type, donor heavy atom, donor atom, acceptor molecule, acceptor atom, score
      L1  H     3    44       P1 10747  1.00
      L1  H    10    36       P1  7948  0.83
      L1  H    13    37       P1  7948  0.86
      L1  C    17    39       P1  8028  0.73

> <Gold.PLP.Chemscore.Internal.Correction>
0.0412

> <Gold.Rescore>
     Score         DG    S(hbond)    S(metal)    S(lipo)     H(rot)  DE(clash)    DE(int)     intcor
     18.54     -19.62       2.91        0.00      77.10       1.79       0.00       1.08       ----

> <Gold.Chemscore.Fitness>
18.5392

> <Gold.Chemscore.DG>
-19.6248

> <Gold.Chemscore.ZeroCoef>
-5.4800

> <Gold.Chemscore.Hbond>
2.9090

> <Gold.Chemscore.Metal>
0.0000

> <Gold.Chemscore.Lipo>
77.1002

> <Gold.Chemscore.Internal_Hbond>
0.0000

> <Gold.Chemscore.DEClash>
0.0048

> <Gold.Chemscore.DEInternal>
1.0808

> <Gold.Chemscore.Rot>
1.7937

> <Gold.Chemscore.Internal.Correction>
   9.000000E+99

> <Gold.Chemscore.Hbonds>
donor molecule, donor type, donor heavy atom, donor atom, acceptor molecule, acceptor atom, score
      L1  H     3    44       P1 10747  1.00
      L1  H    10    36       P1  7948  0.79
      L1  H    13    37       P1  7948  0.85

> <Gold.Chemscore.Hbond.Weighted>
-9.7161

> <Gold.Chemscore.Metal.Weighted>
-0.0000

> <Gold.Chemscore.Lipo.Weighted>
-9.0207

> <Gold.Chemscore.Internal_Hbond.Weighted>
0.0000

> <Gold.Chemscore.DEClash.Weighted>
0.0048

> <Gold.Chemscore.DEInternal.Weighted>
1.0808

> <Gold.Chemscore.Rot.Weighted>
4.5919

> <Gold.Chemscore.Internal.Correction.Weighted>
   9.000000E+99

> <Gold.Protein.RotatedTorsions>
[ 6907 6896 6895 6894 ] final  172.77 input  -60.11 | X-H torsion
[ 7974 7965 7964 7962 ] final  -98.88 input  175.53 | X-H torsion
[ 8008 7997 7996 7995 ] final -178.68 input   59.86 | X-H torsion
[ 10167 10162 10161 10158 ] final  115.59 input  -65.29 | X-H torsion
[ 10718 10713 10712 10709 ] final  143.14 input   66.30 | X-H torsion
[ 10763 10752 10751 10750 ] final   41.45 input  -60.55 | X-H torsion
[ 11005 11000 10999 10996 ] final  154.83 input  -57.11 | X-H torsion

> <Gold.Protein.ActiveResidues>
 VAL166  LYS551  ARG553  GLY616  TRP617  ASP618  TYR619  PRO620  LYS621  CYS622 
 ASP623  PHE694  ASN695  SER759  ASP760  ASP761  ALA762  ILE779  LEU786  VAL792 
 PHE793  MET794  SER795  GLU796  ALA797  LYS798  CYS799  TRP800  GLU811  SER814 

> <Gold.Protein.RotatedAtoms>
  151.7789  133.3348  159.3465 H   0  0  0  0  0  0  0  0  0  0  0  0  # atno 6907 bound_to 6896
  150.7433  134.5949  159.6016 H   0  0  0  0  0  0  0  0  0  0  0  0  # atno 6908 bound_to 6896
  152.3290  134.7286  160.0346 H   0  0  0  0  0  0  0  0  0  0  0  0  # atno 6909 bound_to 6896
  145.3148  140.9408  143.2749 H   0  0  0  0  0  0  0  0  0  0  0  0  # atno 7974 bound_to 7965
  156.0216  140.1262  157.0351 H   0  0  0  0  0  0  0  0  0  0  0  0  # atno 8008 bound_to 7997
  154.4314  140.1067  156.6042 H   0  0  0  0  0  0  0  0  0  0  0  0  # atno 8009 bound_to 7997
  155.5936  140.3469  155.4575 H   0  0  0  0  0  0  0  0  0  0  0  0  # atno 8010 bound_to 7997
  139.6307  144.7114  151.2439 H   0  0  0  0  0  0  0  0  0  0  0  0  # atno 10167 bound_to 10162
  157.3724  131.0981  151.0816 H   0  0  0  0  0  0  0  0  0  0  0  0  # atno 10718 bound_to 10713
  152.9908  135.6161  154.2789 H   0  0  0  0  0  0  0  0  0  0  0  0  # atno 10763 bound_to 10752
  154.2519  135.2785  155.2815 H   0  0  0  0  0  0  0  0  0  0  0  0  # atno 10764 bound_to 10752
  154.5280  135.5796  153.6793 H   0  0  0  0  0  0  0  0  0  0  0  0  # atno 10765 bound_to 10752
  140.1526  134.8664  157.2473 H   0  0  0  0  0  0  0  0  0  0  0  0  # atno 11005 bound_to 11000
  144.8987  139.4678  143.6643 LP  0  0  0  0  0  0  0  0  0  0  0  0  # atno 17320 bound_to 7965
  146.3104  139.7727  142.9024 LP  0  0  0  0  0  0  0  0  0  0  0  0  # atno 17321 bound_to 7965
  140.7437  143.6486  150.8269 LP  0  0  0  0  0  0  0  0  0  0  0  0  # atno 17342 bound_to 10162
  140.0111  143.5642  152.2838 LP  0  0  0  0  0  0  0  0  0  0  0  0  # atno 17343 bound_to 10162
  157.1915  130.6354  149.5706 LP  0  0  0  0  0  0  0  0  0  0  0  0  # atno 17370 bound_to 10713
  155.9758  130.4720  150.6486 LP  0  0  0  0  0  0  0  0  0  0  0  0  # atno 17371 bound_to 10713
  140.2587  134.3597  155.7415 LP  0  0  0  0  0  0  0  0  0  0  0  0  # atno 17394 bound_to 11000
  141.2200  133.7357  156.9046 LP  0  0  0  0  0  0  0  0  0  0  0  0  # atno 17395 bound_to 11000

$$$$
