AV-unprocessed.smi:438|AV-procd|sdf|2578|dock7
  -GOLD-   2262022563D 1   1.00000     0.00000
 Structure written by MMmdl.
 48 49  0  0  0  0  0  0  0  0  1 V2000
  147.5561  136.6771  163.0775 C   0  0  0  0  0  0  0  0  0  0  0  0
  148.0084  136.1973  161.7106 C   0  0  0  0  0  0  0  0  0  0  0  0
  148.5279  137.1435  160.8983 N   0  0  0  0  0  0  0  0  0  0  0  0
  148.9198  136.7414  159.6902 C   0  0  0  0  0  0  0  0  0  0  0  0
  149.5160  138.0256  158.6099 S   0  0  0  0  0  0  0  0  0  0  0  0
  151.3160  137.7321  158.6577 C   0  0  0  0  0  0  0  0  0  0  0  0
  152.1697  139.0013  158.5755 C   0  0  0  0  0  0  0  0  0  0  0  0
  153.3564  138.9182  158.2604 O   0  0  0  0  0  0  0  0  0  0  0  0
  151.5559  140.1667  158.8355 N   0  0  0  0  0  0  0  0  0  0  0  0
  152.1520  141.4901  158.6729 C   0  0  1  0  0  0  0  0  0  0  0  0
  151.1094  142.4475  158.0565 C   0  0  0  0  0  0  0  0  0  0  0  0
  151.6584  143.8736  157.9165 C   0  0  0  0  0  0  0  0  0  0  0  0
  152.1517  144.4048  159.2690 C   0  0  0  0  0  0  0  0  0  0  0  0
  153.2005  143.4643  159.8819 C   0  0  0  0  0  0  0  0  0  0  0  0
  152.6665  142.0250  160.0323 C   0  0  2  0  0  0  0  0  0  0  0  0
  153.7378  141.1131  160.6568 C   0  0  0  0  0  0  0  0  0  0  0  0
  148.8771  135.5036  159.1946 N   0  0  0  0  0  0  0  0  0  0  0  0
  148.3582  134.5471  159.9936 C   0  0  0  0  0  0  0  0  0  0  0  0
  148.2993  133.2731  159.5085 O   0  0  0  0  0  0  0  0  0  0  0  0
  147.8869  134.8462  161.2966 C   0  0  0  0  0  0  0  0  0  0  0  0
  147.2916  133.7690  162.1941 C   0  0  0  0  0  0  0  0  0  0  0  0
  145.8696  134.1190  162.6516 C   0  0  0  0  0  0  0  0  0  0  0  0
  145.2937  133.0116  163.3089 O   0  0  0  0  0  0  0  0  0  0  0  0
  147.9848  136.0561  163.8643 H   0  0  0  0  0  0  0  0  0  0  0  0
  146.4694  136.6332  163.1519 H   0  0  0  0  0  0  0  0  0  0  0  0
  147.8646  137.7074  163.2599 H   0  0  0  0  0  0  0  0  0  0  0  0
  151.5596  137.2023  159.5785 H   0  0  0  0  0  0  0  0  0  0  0  0
  151.5799  137.0680  157.8340 H   0  0  0  0  0  0  0  0  0  0  0  0
  150.5804  140.1374  159.0960 H   0  0  0  0  0  0  0  0  0  0  0  0
  153.0038  141.4172  157.9939 H   0  0  0  0  0  0  0  0  0  0  0  0
  150.7901  142.0826  157.0794 H   0  0  0  0  0  0  0  0  0  0  0  0
  150.2168  142.4699  158.6826 H   0  0  0  0  0  0  0  0  0  0  0  0
  152.4774  143.8822  157.1960 H   0  0  0  0  0  0  0  0  0  0  0  0
  150.8859  144.5311  157.5167 H   0  0  0  0  0  0  0  0  0  0  0  0
  152.5737  145.4024  159.1450 H   0  0  0  0  0  0  0  0  0  0  0  0
  151.3077  144.5079  159.9524 H   0  0  0  0  0  0  0  0  0  0  0  0
  154.0934  143.4615  159.2553 H   0  0  0  0  0  0  0  0  0  0  0  0
  153.5088  143.8509  160.8540 H   0  0  0  0  0  0  0  0  0  0  0  0
  151.8227  142.0582  160.7239 H   0  0  0  0  0  0  0  0  0  0  0  0
  154.6012  141.0103  159.9988 H   0  0  0  0  0  0  0  0  0  0  0  0
  153.3500  140.1139  160.8563 H   0  0  0  0  0  0  0  0  0  0  0  0
  154.0905  141.5172  161.6059 H   0  0  0  0  0  0  0  0  0  0  0  0
  147.9223  132.6663  160.1269 H   0  0  0  0  0  0  0  0  0  0  0  0
  147.2926  132.8102  161.6760 H   0  0  0  0  0  0  0  0  0  0  0  0
  147.9368  133.6280  163.0621 H   0  0  0  0  0  0  0  0  0  0  0  0
  145.8817  134.9701  163.3333 H   0  0  0  0  0  0  0  0  0  0  0  0
  145.2445  134.3907  161.8005 H   0  0  0  0  0  0  0  0  0  0  0  0
  144.7768  133.3282  164.0339 H   0  0  0  0  0  0  0  0  0  0  0  0
  1  2  1  0  0  0  0
  1 24  1  0  0  0  0
  1 25  1  0  0  0  0
  1 26  1  0  0  0  0
  2 20  1  0  0  0  0
  2  3  2  0  0  0  0
  3  4  1  0  0  0  0
  4  5  1  0  0  0  0
  4 17  2  0  0  0  0
  5  6  1  0  0  0  0
  6  7  1  0  0  0  0
  6 27  1  0  0  0  0
  6 28  1  0  0  0  0
  7  8  2  0  0  0  0
  7  9  1  0  0  0  0
  9 10  1  0  0  0  0
  9 29  1  0  0  0  0
 10 15  1  0  0  0  0
 10 11  1  0  0  0  0
 10 30  1  0  0  0  0
 11 12  1  0  0  0  0
 11 31  1  0  0  0  0
 11 32  1  0  0  0  0
 12 13  1  0  0  0  0
 12 33  1  0  0  0  0
 12 34  1  0  0  0  0
 13 14  1  0  0  0  0
 13 35  1  0  0  0  0
 13 36  1  0  0  0  0
 14 15  1  0  0  0  0
 14 37  1  0  0  0  0
 14 38  1  0  0  0  0
 15 16  1  0  0  0  0
 15 39  1  0  0  0  0
 16 40  1  0  0  0  0
 16 41  1  0  0  0  0
 16 42  1  0  0  0  0
 17 18  1  0  0  0  0
 18 19  1  0  0  0  0
 18 20  2  0  0  0  0
 19 43  1  0  0  0  0
 20 21  1  0  0  0  0
 21 22  1  0  0  0  0
 21 44  1  0  0  0  0
 21 45  1  0  0  0  0
 22 23  1  0  0  0  0
 22 46  1  0  0  0  0
 22 47  1  0  0  0  0
 23 48  1  0  0  0  0
M  END
> <s_m_source_file>
AV-unprocessed.smi

> <i_m_source_file_index>
438

> <i_lp_mmshare_version>
43012

> <i_f3d_flags>
0

> <s_epik_input>
W09IXVtDSDJdW0NIMl1jMWMoW09IXSluYyhuYzFbQ0gzXSlTW0NIMl1DKD1PKVtOSF1bQ0BASF0yW0NIMl1bQ0gyXVtDSDJdW0NIMl1bQ0BIXTJbQ0gzXQ==

> <s_epik_cmdline>
J2VwaWtfcHl0aG9uJywgJy1waCcsICc3LjAnLCAnLXRuJywgJzgnLCAnLW1hJywgJzIwMCcsICctbWV0YWxfYmluZGluZycsICctaW1hZScsICc8aW5maWxlLm1hZT4nLCAnLW9tYWUnLCAnPG91dGZpbGUubWFlPic=

> <r_lp_tautomer_probability>
0.0660145

> <r_epik_Ionization_Penalty>
2.91405

> <r_epik_Ionization_Penalty_Charging>
0

> <r_epik_Ionization_Penalty_Neutral>
2.91405

> <r_epik_State_Penalty>
2.44767

> <r_epik_Charging_Adjusted_Penalty>
2.44767

> <i_epik_Tot_Q>
0

> <i_epik_Tot_abs_Q>
0

> <r_epik_Metal_State_Penalty>
3.04288

> <b_epik_Metal_Only>
0

> <s_lp_Force_Field>
OPLS_2005

> <r_lp_Energy>
-0.453605

> <b_lp_Chiralities_Consistent>
1

> <s_lp_Variant>
AV-unprocessed.smi:438-16

> <Gold.Version>
5.8.1

> <Gold.Id.Protein>
6NUR|6NUR_protein|mol2

> <Gold.PLP.Fitness>
56.6530

> <Gold.PLP.PLP>
-51.3905

> <Gold.PLP.part.hbond>
-5.1523

> <Gold.PLP.part.metal>
0.0000

> <Gold.PLP.part.buried>
-4.8771

> <Gold.PLP.part.nonpolar>
-41.7811

> <Gold.PLP.part.repulsive>
0.1540

> <Gold.PLP.ligand.clash>
0.0000

> <Gold.PLP.ligand.torsion>
0.9885

> <Gold.PLP.Chemscore.Hbond>
2.4045

> <Gold.PLP.Chemscore.CHOScore>
0.0000

> <Gold.PLP.Chemscore.Metal>
0.0000

> <Gold.Chemscore.Hbonds>
donor molecule, donor type, donor heavy atom, donor atom, acceptor molecule, acceptor atom, score
      P1  H  6896  6908       L1    17  0.35
      P1  H  6931  6943       L1     3  0.93
      P1  H  6934  6947       L1     3  0.17
      P1  H  7997  8009       L1     8  0.88

> <Gold.PLP.Chemscore.Internal.Correction>
0.0260

> <Gold.Rescore>
     Score         DG    S(hbond)    S(metal)    S(lipo)     H(rot)  DE(clash)    DE(int)     intcor
     15.44     -16.34       1.60        0.00     122.32       3.44       0.08       0.82       ----

> <Gold.Chemscore.Fitness>
15.4417

> <Gold.Chemscore.DG>
-16.3396

> <Gold.Chemscore.ZeroCoef>
-5.4800

> <Gold.Chemscore.Hbond>
1.6002

> <Gold.Chemscore.Metal>
0.0000

> <Gold.Chemscore.Lipo>
122.3153

> <Gold.Chemscore.Internal_Hbond>
0.0000

> <Gold.Chemscore.DEClash>
0.0817

> <Gold.Chemscore.DEInternal>
0.8162

> <Gold.Chemscore.Rot>
3.4359

> <Gold.Chemscore.Internal.Correction>
   9.000000E+99

> <Gold.Chemscore.Hbonds>
donor molecule, donor type, donor heavy atom, donor atom, acceptor molecule, acceptor atom, score
      P1  H  6931  6943       L1     3  0.40
      P1  H  6934  6947       L1     3  0.12
      P1  H  7997  8009       L1     8  0.86

> <Gold.Chemscore.Hbond.Weighted>
-5.3447

> <Gold.Chemscore.Metal.Weighted>
-0.0000

> <Gold.Chemscore.Lipo.Weighted>
-14.3109

> <Gold.Chemscore.Internal_Hbond.Weighted>
0.0000

> <Gold.Chemscore.DEClash.Weighted>
0.0817

> <Gold.Chemscore.DEInternal.Weighted>
0.8162

> <Gold.Chemscore.Rot.Weighted>
8.7960

> <Gold.Chemscore.Internal.Correction.Weighted>
   9.000000E+99

> <Gold.Protein.RotatedTorsions>
[ 6907 6896 6895 6894 ] final -174.42 input  -60.11 | X-H torsion
[ 7974 7965 7964 7962 ] final   88.26 input  175.53 | X-H torsion
[ 8008 7997 7996 7995 ] final  143.90 input   59.86 | X-H torsion
[ 10167 10162 10161 10158 ] final  -26.35 input  -65.29 | X-H torsion
[ 10718 10713 10712 10709 ] final   73.84 input   66.30 | X-H torsion
[ 10763 10752 10751 10750 ] final  113.45 input  -60.55 | X-H torsion
[ 11005 11000 10999 10996 ] final -112.60 input  -57.11 | X-H torsion

> <Gold.Protein.ActiveResidues>
 VAL166  LYS551  ARG553  GLY616  TRP617  ASP618  TYR619  PRO620  LYS621  CYS622 
 ASP623  PHE694  ASN695  SER759  ASP760  ASP761  ALA762  ILE779  LEU786  VAL792 
 PHE793  MET794  SER795  GLU796  ALA797  LYS798  CYS799  TRP800  GLU811  SER814 

> <Gold.Protein.RotatedAtoms>
  151.5721  133.3388  159.2991 H   0  0  0  0  0  0  0  0  0  0  0  0  # atno 6907 bound_to 6896
  150.8361  134.7638  159.6905 H   0  0  0  0  0  0  0  0  0  0  0  0  # atno 6908 bound_to 6896
  152.4437  134.5544  159.9928 H   0  0  0  0  0  0  0  0  0  0  0  0  # atno 6909 bound_to 6896
  145.5481  139.2293  143.2528 H   0  0  0  0  0  0  0  0  0  0  0  0  # atno 7974 bound_to 7965
  156.2920  140.2250  156.4967 H   0  0  0  0  0  0  0  0  0  0  0  0  # atno 8008 bound_to 7997
  154.7725  140.0465  157.1084 H   0  0  0  0  0  0  0  0  0  0  0  0  # atno 8009 bound_to 7997
  154.9857  140.3084  155.4931 H   0  0  0  0  0  0  0  0  0  0  0  0  # atno 8010 bound_to 7997
  140.7283  143.4186  151.0988 H   0  0  0  0  0  0  0  0  0  0  0  0  # atno 10167 bound_to 10162
  157.6566  130.9648  150.1126 H   0  0  0  0  0  0  0  0  0  0  0  0  # atno 10718 bound_to 10713
  153.4927  135.3655  155.2500 H   0  0  0  0  0  0  0  0  0  0  0  0  # atno 10763 bound_to 10752
  154.8751  135.3981  154.3570 H   0  0  0  0  0  0  0  0  0  0  0  0  # atno 10764 bound_to 10752
  153.4192  135.7080  153.6371 H   0  0  0  0  0  0  0  0  0  0  0  0  # atno 10765 bound_to 10752
  141.0665  133.9450  157.2567 H   0  0  0  0  0  0  0  0  0  0  0  0  # atno 11005 bound_to 11000
  146.1936  140.6303  142.9134 LP  0  0  0  0  0  0  0  0  0  0  0  0  # atno 17320 bound_to 7965
  144.7543  140.5269  143.6780 LP  0  0  0  0  0  0  0  0  0  0  0  0  # atno 17321 bound_to 7965
  139.7829  143.8329  152.3140 LP  0  0  0  0  0  0  0  0  0  0  0  0  # atno 17342 bound_to 10162
  139.8287  144.7263  150.9479 LP  0  0  0  0  0  0  0  0  0  0  0  0  # atno 17343 bound_to 10162
  156.2018  130.3661  149.8778 LP  0  0  0  0  0  0  0  0  0  0  0  0  # atno 17370 bound_to 10713
  156.6680  130.8808  151.3558 LP  0  0  0  0  0  0  0  0  0  0  0  0  # atno 17371 bound_to 10713
  139.9482  135.0180  156.8915 LP  0  0  0  0  0  0  0  0  0  0  0  0  # atno 17394 bound_to 11000
  140.5761  134.0396  155.7447 LP  0  0  0  0  0  0  0  0  0  0  0  0  # atno 17395 bound_to 11000

$$$$
