AV-unprocessed.smi:3290|AV-procd|sdf|12613|dock2
  -GOLD-   2272018543D 1   1.00000     0.00000
 Structure written by MMmdl.
 43 44  0  0  0  0  0  0  0  0  2 V2000
  152.4956  144.7624  158.1684 C   0  0  0  0  0  0  0  0  0  0  0  0
  151.4039  144.0704  159.0100 C   0  0  2  0  0  0  0  0  0  0  0  0
  151.6245  144.2951  160.5210 C   0  0  0  0  0  0  0  0  0  0  0  0
  152.8072  143.4776  161.0670 C   0  0  0  0  0  0  0  0  0  0  0  0
  152.6408  141.9833  160.7557 C   0  0  0  0  0  0  0  0  0  0  0  0
  152.4268  141.7405  159.2529 C   0  0  0  0  0  0  0  0  0  0  0  0
  151.2319  142.5569  158.7098 C   0  0  2  0  0  0  0  0  0  0  0  0
  150.9567  142.2735  157.2191 C   0  0  0  0  0  0  0  0  0  0  0  0
  149.5105  142.2798  156.9222 N   0  3  0  0  0  0  0  0  0  0  0  0
  149.0715  141.1819  156.0372 C   0  0  0  0  0  0  0  0  0  0  0  0
  150.0396  140.9872  154.8570 C   0  0  2  0  0  0  0  0  0  0  0  0
  149.3422  141.2340  153.6516 O   0  0  0  0  0  0  0  0  0  0  0  0
  150.6565  139.5976  154.8724 C   0  0  0  0  0  0  0  0  0  0  0  0
  151.9829  139.4077  155.3139 C   0  0  0  0  0  0  0  0  0  0  0  0
  152.5129  138.1017  155.3133 C   0  0  0  0  0  0  0  0  0  0  0  0
  151.8138  137.0181  154.9138 N   0  0  0  0  0  0  0  0  0  0  0  0
  150.5443  137.2045  154.4940 C   0  0  0  0  0  0  0  0  0  0  0  0
  149.9205  138.4675  154.4544 C   0  0  0  0  0  0  0  0  0  0  0  0
  153.4753  144.3060  158.3065 H   0  0  0  0  0  0  0  0  0  0  0  0
  152.5853  145.8145  158.4408 H   0  0  0  0  0  0  0  0  0  0  0  0
  152.2620  144.7304  157.1044 H   0  0  0  0  0  0  0  0  0  0  0  0
  150.4643  144.5621  158.7536 H   0  0  0  0  0  0  0  0  0  0  0  0
  151.7783  145.3548  160.7280 H   0  0  0  0  0  0  0  0  0  0  0  0
  150.7199  144.0129  161.0616 H   0  0  0  0  0  0  0  0  0  0  0  0
  153.7416  143.8415  160.6385 H   0  0  0  0  0  0  0  0  0  0  0  0
  152.8899  143.6234  162.1444 H   0  0  0  0  0  0  0  0  0  0  0  0
  153.5164  141.4325  161.1008 H   0  0  0  0  0  0  0  0  0  0  0  0
  151.7900  141.5890  161.3126 H   0  0  0  0  0  0  0  0  0  0  0  0
  153.3362  141.9926  158.7067 H   0  0  0  0  0  0  0  0  0  0  0  0
  152.2625  140.6753  159.0884 H   0  0  0  0  0  0  0  0  0  0  0  0
  150.3461  142.2352  159.2605 H   0  0  0  0  0  0  0  0  0  0  0  0
  151.4364  143.0354  156.6031 H   0  0  0  0  0  0  0  0  0  0  0  0
  151.3788  141.3110  156.9272 H   0  0  0  0  0  0  0  0  0  0  0  0
  149.0037  142.2046  157.7931 H   0  0  0  0  0  0  0  0  0  0  0  0
  149.0193  140.2642  156.6247 H   0  0  0  0  0  0  0  0  0  0  0  0
  148.0630  141.3868  155.6737 H   0  0  0  0  0  0  0  0  0  0  0  0
  150.8428  141.7227  154.9251 H   0  0  0  0  0  0  0  0  0  0  0  0
  149.3247  140.4347  153.1466 H   0  0  0  0  0  0  0  0  0  0  0  0
  152.5864  140.2399  155.6453 H   0  0  0  0  0  0  0  0  0  0  0  0
  153.5256  137.9235  155.6433 H   0  0  0  0  0  0  0  0  0  0  0  0
  150.0090  136.3205  154.1806 H   0  0  0  0  0  0  0  0  0  0  0  0
  148.9008  138.5612  154.1104 H   0  0  0  0  0  0  0  0  0  0  0  0
  149.2736  143.1594  156.4864 H   0  0  0  0  0  0  0  0  0  0  0  0
  1  2  1  0  0  0  0
  1 19  1  0  0  0  0
  1 20  1  0  0  0  0
  1 21  1  0  0  0  0
  2  7  1  0  0  0  0
  2  3  1  0  0  0  0
  2 22  1  0  0  0  0
  3  4  1  0  0  0  0
  3 23  1  0  0  0  0
  3 24  1  0  0  0  0
  4  5  1  0  0  0  0
  4 25  1  0  0  0  0
  4 26  1  0  0  0  0
  5  6  1  0  0  0  0
  5 27  1  0  0  0  0
  5 28  1  0  0  0  0
  6  7  1  0  0  0  0
  6 29  1  0  0  0  0
  6 30  1  0  0  0  0
  7  8  1  0  0  0  0
  7 31  1  0  0  0  0
  8  9  1  0  0  0  0
  8 32  1  0  0  0  0
  8 33  1  0  0  0  0
  9 10  1  0  0  0  0
  9 34  1  0  0  0  0
  9 43  1  0  0  0  0
 10 11  1  0  0  0  0
 10 35  1  0  0  0  0
 10 36  1  0  0  0  0
 11 12  1  0  0  0  0
 11 13  1  0  0  0  0
 11 37  1  0  0  0  0
 12 38  1  0  0  0  0
 13 18  1  0  0  0  0
 13 14  2  0  0  0  0
 14 15  1  0  0  0  0
 14 39  1  0  0  0  0
 15 16  2  0  0  0  0
 15 40  1  0  0  0  0
 16 17  1  0  0  0  0
 17 18  2  0  0  0  0
 17 41  1  0  0  0  0
 18 42  1  0  0  0  0
M  CHG  1   9   1
M  END
> <s_m_source_file>
AV-unprocessed.smi

> <i_m_source_file_index>
3290

> <i_lp_mmshare_version>
43012

> <i_f3d_flags>
0

> <s_epik_input>
W0NIM11bQ0BASF0xW0NIMl1bQ0gyXVtDSDJdW0NIMl1bQ0BIXTFbQ0gyXVtOSF1bQ0gyXVtDQEhdKFtPSF0pYzJbY0hdW2NIXW5bY0hdW2NIXTI=

> <s_epik_cmdline>
J2VwaWtfcHl0aG9uJywgJy1waCcsICc3LjAnLCAnLXRuJywgJzgnLCAnLW1hJywgJzIwMCcsICctbWV0YWxfYmluZGluZycsICctaW1hZScsICc8aW5maWxlLm1hZT4nLCAnLW9tYWUnLCAnPG91dGZpbGUubWFlPic=

> <r_lp_tautomer_probability>
1

> <r_epik_Ionization_Penalty>
0.00420552

> <r_epik_Ionization_Penalty_Charging>
0.00207255

> <r_epik_Ionization_Penalty_Neutral>
0.00213297

> <r_epik_State_Penalty>
-0

> <r_epik_Charging_Adjusted_Penalty>
0.00207255

> <i_epik_Tot_Q>
1

> <i_epik_Tot_abs_Q>
1

> <r_epik_Metal_State_Penalty>
-0

> <b_epik_Metal_Only>
0

> <s_lp_Force_Field>
OPLS_2005

> <r_lp_Energy>
18.6683

> <b_lp_Chiralities_Consistent>
1

> <s_lp_Variant>
AV-unprocessed.smi:3290-3

> <Gold.Version>
5.8.1

> <Gold.Id.Protein>
6NUR|6NUR_protein|mol2

> <Gold.PLP.Fitness>
58.0163

> <Gold.PLP.PLP>
-45.7046

> <Gold.PLP.part.hbond>
-5.0000

> <Gold.PLP.part.metal>
0.0000

> <Gold.PLP.part.buried>
-0.9174

> <Gold.PLP.part.nonpolar>
-39.1167

> <Gold.PLP.part.repulsive>
0.1194

> <Gold.PLP.ligand.clash>
0.0000

> <Gold.PLP.ligand.torsion>
1.9566

> <Gold.PLP.Chemscore.Hbond>
4.6000

> <Gold.PLP.Chemscore.CHOScore>
0.7875

> <Gold.PLP.Chemscore.Metal>
0.0000

> <Gold.Chemscore.Hbonds>
donor molecule, donor type, donor heavy atom, donor atom, acceptor molecule, acceptor atom, score
      L1  H     9    43       P1  8028  2.00
      L1  H    12    38       P1  7957  0.62
      P1  H  8011  8017       L1    12  0.93
      P1  H 10752 10765       L1    16  1.00
      L1  C    17    41       P1  7948  0.79

> <Gold.PLP.Chemscore.Internal.Correction>
0.0624

> <Gold.Rescore>
     Score         DG    S(hbond)    S(metal)    S(lipo)     H(rot)  DE(clash)    DE(int)     intcor
     23.18     -26.39       3.07        0.00     135.83       2.05       1.49       1.72       ----

> <Gold.Chemscore.Fitness>
23.1782

> <Gold.Chemscore.DG>
-26.3870

> <Gold.Chemscore.ZeroCoef>
-5.4800

> <Gold.Chemscore.Hbond>
3.0726

> <Gold.Chemscore.Metal>
0.0000

> <Gold.Chemscore.Lipo>
135.8296

> <Gold.Chemscore.Internal_Hbond>
0.0000

> <Gold.Chemscore.DEClash>
1.4854

> <Gold.Chemscore.DEInternal>
1.7235

> <Gold.Chemscore.Rot>
2.0498

> <Gold.Chemscore.Internal.Correction>
   9.000000E+99

> <Gold.Chemscore.Hbonds>
donor molecule, donor type, donor heavy atom, donor atom, acceptor molecule, acceptor atom, score
      L1  H     9    43       P1  8028  1.00
      L1  H    12    38       P1  7957  0.58
      P1  H  8011  8017       L1    12  0.23
      P1  H 10752 10765       L1    16  0.73

> <Gold.Chemscore.Hbond.Weighted>
-10.2625

> <Gold.Chemscore.Metal.Weighted>
-0.0000

> <Gold.Chemscore.Lipo.Weighted>
-15.8921

> <Gold.Chemscore.Internal_Hbond.Weighted>
0.0000

> <Gold.Chemscore.DEClash.Weighted>
1.4854

> <Gold.Chemscore.DEInternal.Weighted>
1.7235

> <Gold.Chemscore.Rot.Weighted>
5.2475

> <Gold.Chemscore.Internal.Correction.Weighted>
   9.000000E+99

> <Gold.Protein.RotatedTorsions>
[ 6907 6896 6895 6894 ] final  -52.35 input  -60.11 | X-H torsion
[ 7974 7965 7964 7962 ] final -155.37 input  175.53 | X-H torsion
[ 8008 7997 7996 7995 ] final -147.25 input   59.86 | X-H torsion
[ 10167 10162 10161 10158 ] final -178.71 input  -65.29 | X-H torsion
[ 10718 10713 10712 10709 ] final   14.28 input   66.30 | X-H torsion
[ 10763 10752 10751 10750 ] final  179.35 input  -60.55 | X-H torsion
[ 11005 11000 10999 10996 ] final  169.81 input  -57.11 | X-H torsion

> <Gold.Protein.ActiveResidues>
 VAL166  LYS551  ARG553  GLY616  TRP617  ASP618  TYR619  PRO620  LYS621  CYS622 
 ASP623  PHE694  ASN695  SER759  ASP760  ASP761  ALA762  ILE779  LEU786  VAL792 
 PHE793  MET794  SER795  GLU796  ALA797  LYS798  CYS799  TRP800  GLU811  SER814 

> <Gold.Protein.RotatedAtoms>
  150.8526  134.7856  159.7020 H   0  0  0  0  0  0  0  0  0  0  0  0  # atno 6907 bound_to 6896
  152.4587  134.5231  159.9798 H   0  0  0  0  0  0  0  0  0  0  0  0  # atno 6908 bound_to 6896
  151.5349  133.3404  159.2960 H   0  0  0  0  0  0  0  0  0  0  0  0  # atno 6909 bound_to 6896
  144.7643  140.4259  143.5953 H   0  0  0  0  0  0  0  0  0  0  0  0  # atno 7974 bound_to 7965
  155.5725  140.0635  157.2803 H   0  0  0  0  0  0  0  0  0  0  0  0  # atno 8008 bound_to 7997
  154.4356  140.1866  156.0940 H   0  0  0  0  0  0  0  0  0  0  0  0  # atno 8009 bound_to 7997
  156.0365  140.3300  155.7201 H   0  0  0  0  0  0  0  0  0  0  0  0  # atno 8010 bound_to 7997
  139.5420  144.2338  152.0913 H   0  0  0  0  0  0  0  0  0  0  0  0  # atno 10167 bound_to 10162
  157.0369  130.6215  149.5744 H   0  0  0  0  0  0  0  0  0  0  0  0  # atno 10718 bound_to 10713
  154.5196  135.2793  155.1274 H   0  0  0  0  0  0  0  0  0  0  0  0  # atno 10763 bound_to 10752
  154.2837  135.6280  153.5361 H   0  0  0  0  0  0  0  0  0  0  0  0  # atno 10764 bound_to 10752
  152.9934  135.5657  154.5681 H   0  0  0  0  0  0  0  0  0  0  0  0  # atno 10765 bound_to 10752
  140.3017  134.7590  157.3921 H   0  0  0  0  0  0  0  0  0  0  0  0  # atno 11005 bound_to 11000
  145.6519  139.1566  143.2857 LP  0  0  0  0  0  0  0  0  0  0  0  0  # atno 17320 bound_to 7965
  146.1737  140.6607  142.9221 LP  0  0  0  0  0  0  0  0  0  0  0  0  # atno 17321 bound_to 7965
  140.1818  144.4837  150.6524 LP  0  0  0  0  0  0  0  0  0  0  0  0  # atno 17342 bound_to 10162
  140.6653  143.2266  151.5757 LP  0  0  0  0  0  0  0  0  0  0  0  0  # atno 17343 bound_to 10162
  156.0051  130.5136  150.7801 LP  0  0  0  0  0  0  0  0  0  0  0  0  # atno 17370 bound_to 10713
  157.5135  131.0927  151.0169 LP  0  0  0  0  0  0  0  0  0  0  0  0  # atno 17371 bound_to 10713
  140.1103  134.5354  155.8272 LP  0  0  0  0  0  0  0  0  0  0  0  0  # atno 17394 bound_to 11000
  141.2126  133.6722  156.6677 LP  0  0  0  0  0  0  0  0  0  0  0  0  # atno 17395 bound_to 11000

$$$$
