AV-unprocessed.smi:3299|AV-procd|sdf|12648|dock1
  -GOLD-   2272018583D 1   1.00000     0.00000
 Structure written by MMmdl.
 34 35  0  0  0  0  0  0  0  0  1 V2000
  153.4279  141.5561  160.5774 C   0  0  0  0  0  0  0  0  0  0  0  0
  152.6821  142.5331  159.7241 C   0  0  0  0  0  0  0  0  0  0  0  0
  152.8275  143.8989  159.7102 C   0  0  0  0  0  0  0  0  0  0  0  0
  151.7548  144.6585  158.5647 S   0  0  0  0  0  0  0  0  0  0  0  0
  151.1427  143.0671  158.1416 C   0  0  0  0  0  0  0  0  0  0  0  0
  150.1243  142.8878  157.1690 N   0  0  0  0  0  0  0  0  0  0  0  0
  149.5630  141.7376  156.7566 C   0  0  0  0  0  0  0  0  0  0  0  0
  149.8838  140.6122  157.1394 O   0  0  0  0  0  0  0  0  0  0  0  0
  148.5945  141.9668  155.8579 N   0  0  0  0  0  0  0  0  0  0  0  0
  147.7709  140.9430  155.2186 C   0  0  2  0  0  0  0  0  0  0  0  0
  148.6561  140.0590  154.3181 C   0  0  0  0  0  0  0  0  0  0  0  0
  147.9438  138.8028  153.7895 C   0  0  0  0  0  0  0  0  0  0  0  0
  147.6612  138.9568  152.4156 O   0  0  0  0  0  0  0  0  0  0  0  0
  146.6115  141.5253  154.4266 C   0  0  0  0  0  0  0  0  0  0  0  0
  146.6840  142.9096  153.8259 C   0  0  0  0  0  0  0  0  0  0  0  0
  145.7643  142.6397  154.9943 C   0  0  0  0  0  0  0  0  0  0  0  0
  151.7184  142.0703  158.8237 N   0  0  0  0  0  0  0  0  0  0  0  0
  154.1476  142.0591  161.2236 H   0  0  0  0  0  0  0  0  0  0  0  0
  153.9774  140.8395  159.9665 H   0  0  0  0  0  0  0  0  0  0  0  0
  152.7476  140.9933  161.2171 H   0  0  0  0  0  0  0  0  0  0  0  0
  153.4979  144.5027  160.3042 H   0  0  0  0  0  0  0  0  0  0  0  0
  149.7713  143.7356  156.7500 H   0  0  0  0  0  0  0  0  0  0  0  0
  148.4013  142.9244  155.6036 H   0  0  0  0  0  0  0  0  0  0  0  0
  147.3518  140.2994  155.9948 H   0  0  0  0  0  0  0  0  0  0  0  0
  148.9987  140.6491  153.4668 H   0  0  0  0  0  0  0  0  0  0  0  0
  149.5553  139.7675  154.8631 H   0  0  0  0  0  0  0  0  0  0  0  0
  148.5607  137.9138  153.9209 H   0  0  0  0  0  0  0  0  0  0  0  0
  147.0099  138.6361  154.3271 H   0  0  0  0  0  0  0  0  0  0  0  0
  148.4756  139.0869  151.9538 H   0  0  0  0  0  0  0  0  0  0  0  0
  146.0712  140.7831  153.8418 H   0  0  0  0  0  0  0  0  0  0  0  0
  147.5751  143.5035  154.0182 H   0  0  0  0  0  0  0  0  0  0  0  0
  146.2294  143.0548  152.8480 H   0  0  0  0  0  0  0  0  0  0  0  0
  144.6949  142.6071  154.7963 H   0  0  0  0  0  0  0  0  0  0  0  0
  146.0481  143.0523  155.9606 H   0  0  0  0  0  0  0  0  0  0  0  0
  1  2  1  0  0  0  0
  1 18  1  0  0  0  0
  1 19  1  0  0  0  0
  1 20  1  0  0  0  0
  2 17  1  0  0  0  0
  2  3  2  0  0  0  0
  3  4  1  0  0  0  0
  3 21  1  0  0  0  0
  4  5  1  0  0  0  0
  5  6  1  0  0  0  0
  5 17  2  0  0  0  0
  6  7  1  0  0  0  0
  6 22  1  0  0  0  0
  7  8  2  0  0  0  0
  7  9  1  0  0  0  0
  9 10  1  0  0  0  0
  9 23  1  0  0  0  0
 10 11  1  0  0  0  0
 10 14  1  0  0  0  0
 10 24  1  0  0  0  0
 11 12  1  0  0  0  0
 11 25  1  0  0  0  0
 11 26  1  0  0  0  0
 12 13  1  0  0  0  0
 12 27  1  0  0  0  0
 12 28  1  0  0  0  0
 13 29  1  0  0  0  0
 14 16  1  0  0  0  0
 14 15  1  0  0  0  0
 14 30  1  0  0  0  0
 15 16  1  0  0  0  0
 15 31  1  0  0  0  0
 15 32  1  0  0  0  0
 16 33  1  0  0  0  0
 16 34  1  0  0  0  0
M  END
> <s_m_source_file>
AV-unprocessed.smi

> <i_m_source_file_index>
3299

> <i_lp_mmshare_version>
43012

> <i_f3d_flags>
0

> <s_epik_input>
W0NIM11jMVtjSF1zYyhuMSlbTkhdQyg9TylbTkhdW0NASF0oW0NIMl1bQ0gyXVtPSF0pW0NIXTJbQ0gyXVtDSDJdMg==

> <s_epik_cmdline>
J2VwaWtfcHl0aG9uJywgJy1waCcsICc3LjAnLCAnLXRuJywgJzgnLCAnLW1hJywgJzIwMCcsICctbWV0YWxfYmluZGluZycsICctaW1hZScsICc8aW5maWxlLm1hZT4nLCAnLW9tYWUnLCAnPG91dGZpbGUubWFlPic=

> <r_lp_tautomer_probability>
0.999

> <r_epik_Ionization_Penalty>
0.000568872

> <r_epik_Ionization_Penalty_Charging>
0

> <r_epik_Ionization_Penalty_Neutral>
0.000568872

> <r_epik_State_Penalty>
0.000177984

> <r_epik_Charging_Adjusted_Penalty>
0.000177984

> <i_epik_Tot_Q>
0

> <i_epik_Tot_abs_Q>
0

> <r_epik_Metal_State_Penalty>
-0

> <b_epik_Metal_Only>
0

> <s_lp_Force_Field>
OPLS_2005

> <r_lp_Energy>
12.8181

> <b_lp_Chiralities_Consistent>
1

> <s_lp_Variant>
AV-unprocessed.smi:3299-1

> <Gold.Version>
5.8.1

> <Gold.Id.Protein>
6NUR|6NUR_protein|mol2

> <Gold.PLP.Fitness>
45.6061

> <Gold.PLP.PLP>
-37.3864

> <Gold.PLP.part.hbond>
-3.8703

> <Gold.PLP.part.metal>
0.0000

> <Gold.PLP.part.buried>
-5.4654

> <Gold.PLP.part.nonpolar>
-28.6441

> <Gold.PLP.part.repulsive>
0.1113

> <Gold.PLP.ligand.clash>
0.0000

> <Gold.PLP.ligand.torsion>
0.9842

> <Gold.PLP.Chemscore.Hbond>
3.0000

> <Gold.PLP.Chemscore.CHOScore>
0.0000

> <Gold.PLP.Chemscore.Metal>
0.0000

> <Gold.Chemscore.Hbonds>
donor molecule, donor type, donor heavy atom, donor atom, acceptor molecule, acceptor atom, score
      L1  H     6    22       P1  8028  1.00
      L1  H     9    23       P1  8028  1.00
      L1  H    13    29       P1  7957  1.00

> <Gold.PLP.Chemscore.Internal.Correction>
1.1881

> <Gold.Rescore>
     Score         DG    S(hbond)    S(metal)    S(lipo)     H(rot)  DE(clash)    DE(int)     intcor
     16.53     -18.77       2.96        0.00      81.50       2.39       0.00       2.23       ----

> <Gold.Chemscore.Fitness>
16.5325

> <Gold.Chemscore.DG>
-18.7679

> <Gold.Chemscore.ZeroCoef>
-5.4800

> <Gold.Chemscore.Hbond>
2.9566

> <Gold.Chemscore.Metal>
0.0000

> <Gold.Chemscore.Lipo>
81.5004

> <Gold.Chemscore.Internal_Hbond>
0.0000

> <Gold.Chemscore.DEClash>
0.0048

> <Gold.Chemscore.DEInternal>
2.2305

> <Gold.Chemscore.Rot>
2.3917

> <Gold.Chemscore.Internal.Correction>
   9.000000E+99

> <Gold.Chemscore.Hbonds>
donor molecule, donor type, donor heavy atom, donor atom, acceptor molecule, acceptor atom, score
      L1  H     6    22       P1  8028  0.99
      L1  H     9    23       P1  8028  0.93
      L1  H    13    29       P1  7957  0.95

> <Gold.Chemscore.Hbond.Weighted>
-9.8751

> <Gold.Chemscore.Metal.Weighted>
-0.0000

> <Gold.Chemscore.Lipo.Weighted>
-9.5355

> <Gold.Chemscore.Internal_Hbond.Weighted>
0.0000

> <Gold.Chemscore.DEClash.Weighted>
0.0048

> <Gold.Chemscore.DEInternal.Weighted>
2.2305

> <Gold.Chemscore.Rot.Weighted>
6.1228

> <Gold.Chemscore.Internal.Correction.Weighted>
   9.000000E+99

> <Gold.Protein.RotatedTorsions>
[ 6907 6896 6895 6894 ] final   32.08 input  -60.11 | X-H torsion
[ 7974 7965 7964 7962 ] final   67.41 input  175.53 | X-H torsion
[ 8008 7997 7996 7995 ] final -170.60 input   59.86 | X-H torsion
[ 10167 10162 10161 10158 ] final  -56.69 input  -65.29 | X-H torsion
[ 10718 10713 10712 10709 ] final    5.99 input   66.30 | X-H torsion
[ 10763 10752 10751 10750 ] final   74.61 input  -60.55 | X-H torsion
[ 11005 11000 10999 10996 ] final   21.80 input  -57.11 | X-H torsion

> <Gold.Protein.ActiveResidues>
 VAL166  LYS551  ARG553  GLY616  TRP617  ASP618  TYR619  PRO620  LYS621  CYS622 
 ASP623  PHE694  ASN695  SER759  ASP760  ASP761  ALA762  ILE779  LEU786  VAL792 
 PHE793  MET794  SER795  GLU796  ALA797  LYS798  CYS799  TRP800  GLU811  SER814 

> <Gold.Protein.RotatedAtoms>
  152.0694  134.9543  160.0574 H   0  0  0  0  0  0  0  0  0  0  0  0  # atno 6907 bound_to 6896
  152.0875  133.4179  159.4537 H   0  0  0  0  0  0  0  0  0  0  0  0  # atno 6908 bound_to 6896
  150.6836  134.2830  159.4678 H   0  0  0  0  0  0  0  0  0  0  0  0  # atno 6909 bound_to 6896
  145.8150  139.3053  143.1077 H   0  0  0  0  0  0  0  0  0  0  0  0  # atno 7974 bound_to 7965
  155.9205  140.1073  157.1210 H   0  0  0  0  0  0  0  0  0  0  0  0  # atno 8008 bound_to 7997
  154.4053  140.1257  156.4739 H   0  0  0  0  0  0  0  0  0  0  0  0  # atno 8009 bound_to 7997
  155.7201  140.3470  155.5014 H   0  0  0  0  0  0  0  0  0  0  0  0  # atno 8010 bound_to 7997
  140.6302  143.2456  151.5260 H   0  0  0  0  0  0  0  0  0  0  0  0  # atno 10167 bound_to 10162
  156.9155  130.5772  149.5647 H   0  0  0  0  0  0  0  0  0  0  0  0  # atno 10718 bound_to 10713
  153.0598  135.5019  154.8067 H   0  0  0  0  0  0  0  0  0  0  0  0  # atno 10763 bound_to 10752
  154.6865  135.2977  154.9542 H   0  0  0  0  0  0  0  0  0  0  0  0  # atno 10764 bound_to 10752
  154.0311  135.6729  153.4833 H   0  0  0  0  0  0  0  0  0  0  0  0  # atno 10765 bound_to 10752
  140.3875  134.1854  155.7663 H   0  0  0  0  0  0  0  0  0  0  0  0  # atno 11005 bound_to 11000
  145.9736  140.8740  143.0150 LP  0  0  0  0  0  0  0  0  0  0  0  0  # atno 17320 bound_to 7965
  144.6753  140.1981  143.7390 LP  0  0  0  0  0  0  0  0  0  0  0  0  # atno 17321 bound_to 7965
  139.5517  144.2378  152.1542 LP  0  0  0  0  0  0  0  0  0  0  0  0  # atno 17342 bound_to 10162
  140.1620  144.5017  150.6627 LP  0  0  0  0  0  0  0  0  0  0  0  0  # atno 17343 bound_to 10162
  156.0515  130.5584  150.9000 LP  0  0  0  0  0  0  0  0  0  0  0  0  # atno 17370 bound_to 10713
  157.5940  131.0943  150.9071 LP  0  0  0  0  0  0  0  0  0  0  0  0  # atno 17371 bound_to 10713
  141.1902  133.8222  157.0927 LP  0  0  0  0  0  0  0  0  0  0  0  0  # atno 17394 bound_to 11000
  140.0431  134.9844  157.0999 LP  0  0  0  0  0  0  0  0  0  0  0  0  # atno 17395 bound_to 11000

$$$$
