AV-unprocessed.smi:1434|AV-procd|sdf|5851|dock5
  -GOLD-   22720 5523D 1   1.00000     0.00000
 Structure written by MMmdl.
 45 46  0  0  0  0  0  0  0  0  2 V2000
  149.9122  133.9848  154.1475 C   0  0  0  0  0  0  0  0  0  0  0  0
  150.2580  135.5887  154.9747 S   0  0  0  0  0  0  0  0  0  0  0  0
  150.0983  135.4087  156.4257 O   0  0  0  0  0  0  0  0  0  0  0  0
  151.5040  136.1507  154.4323 O   0  0  0  0  0  0  0  0  0  0  0  0
  148.9609  136.5806  154.4200 N   0  0  0  0  0  0  0  0  0  0  0  0
  148.8972  137.9687  154.8797 C   0  0  2  0  0  0  0  0  0  0  0  0
  147.4992  138.5612  154.6022 C   0  0  0  0  0  0  0  0  0  0  0  0
  147.4553  140.0745  154.8876 C   0  0  0  0  0  0  0  0  0  0  0  0
  148.6222  140.8020  154.1949 C   0  0  0  0  0  0  0  0  0  0  0  0
  149.8885  140.1923  154.6368 N   0  0  0  0  0  0  0  0  0  0  0  0
  150.7594  140.7171  155.5353 C   0  0  0  0  0  0  0  0  0  0  0  0
  151.8878  140.2620  155.7278 O   0  0  0  0  0  0  0  0  0  0  0  0
  150.3108  141.8039  156.1868 N   0  0  0  0  0  0  0  0  0  0  0  0
  151.0623  142.5498  157.1895 C   0  0  0  0  0  0  0  0  0  0  0  0
  151.6056  141.6246  158.2912 C   0  0  0  0  0  0  0  0  0  0  0  0
  151.9648  142.3843  159.5534 C   0  0  0  0  0  0  0  0  0  0  0  0
  151.6999  143.7635  159.6986 C   0  0  0  0  0  0  0  0  0  0  0  0
  152.0536  144.4105  160.9009 C   0  0  0  0  0  0  0  0  0  0  0  0
  152.6624  143.6657  161.9322 C   0  0  0  0  0  0  0  0  0  0  0  0
  152.9021  142.2906  161.7347 C   0  0  0  0  0  0  0  0  0  0  0  0
  152.5492  141.7068  160.5681 N   0  3  0  0  0  0  0  0  0  0  0  0
  149.9923  138.7996  154.1831 C   0  0  0  0  0  0  0  0  0  0  0  0
  150.6834  133.2643  154.4190 H   0  0  0  0  0  0  0  0  0  0  0  0
  149.9107  134.1231  153.0666 H   0  0  0  0  0  0  0  0  0  0  0  0
  148.9398  133.6118  154.4687 H   0  0  0  0  0  0  0  0  0  0  0  0
  148.8681  136.5272  153.4059 H   0  0  0  0  0  0  0  0  0  0  0  0
  149.0865  137.9876  155.9545 H   0  0  0  0  0  0  0  0  0  0  0  0
  147.2371  138.3941  153.5564 H   0  0  0  0  0  0  0  0  0  0  0  0
  146.7410  138.0485  155.1945 H   0  0  0  0  0  0  0  0  0  0  0  0
  146.5030  140.4884  154.5550 H   0  0  0  0  0  0  0  0  0  0  0  0
  147.5082  140.2441  155.9637 H   0  0  0  0  0  0  0  0  0  0  0  0
  148.5339  140.6979  153.1124 H   0  0  0  0  0  0  0  0  0  0  0  0
  148.5553  141.8729  154.3859 H   0  0  0  0  0  0  0  0  0  0  0  0
  149.3814  142.1336  155.9702 H   0  0  0  0  0  0  0  0  0  0  0  0
  151.8780  143.0959  156.7124 H   0  0  0  0  0  0  0  0  0  0  0  0
  150.3993  143.2990  157.6226 H   0  0  0  0  0  0  0  0  0  0  0  0
  150.8678  140.8587  158.5350 H   0  0  0  0  0  0  0  0  0  0  0  0
  152.4912  141.0946  157.9376 H   0  0  0  0  0  0  0  0  0  0  0  0
  151.2303  144.3202  158.9004 H   0  0  0  0  0  0  0  0  0  0  0  0
  151.8592  145.4652  161.0303 H   0  0  0  0  0  0  0  0  0  0  0  0
  152.9406  144.1424  162.8610 H   0  0  0  0  0  0  0  0  0  0  0  0
  153.3616  141.6447  162.4687 H   0  0  0  0  0  0  0  0  0  0  0  0
  150.9760  138.3693  154.3787 H   0  0  0  0  0  0  0  0  0  0  0  0
  149.8664  138.7639  153.0998 H   0  0  0  0  0  0  0  0  0  0  0  0
  152.7317  140.7102  160.4476 H   0  0  0  0  0  0  0  0  0  0  0  0
  1  2  1  0  0  0  0
  1 23  1  0  0  0  0
  1 24  1  0  0  0  0
  1 25  1  0  0  0  0
  2  3  2  0  0  0  0
  2  4  2  0  0  0  0
  2  5  1  0  0  0  0
  5  6  1  0  0  0  0
  5 26  1  0  0  0  0
  6 22  1  0  0  0  0
  6  7  1  0  0  0  0
  6 27  1  0  0  0  0
  7  8  1  0  0  0  0
  7 28  1  0  0  0  0
  7 29  1  0  0  0  0
  8  9  1  0  0  0  0
  8 30  1  0  0  0  0
  8 31  1  0  0  0  0
  9 10  1  0  0  0  0
  9 32  1  0  0  0  0
  9 33  1  0  0  0  0
 10 11  1  0  0  0  0
 10 22  1  0  0  0  0
 11 12  2  0  0  0  0
 11 13  1  0  0  0  0
 13 14  1  0  0  0  0
 13 34  1  0  0  0  0
 14 15  1  0  0  0  0
 14 35  1  0  0  0  0
 14 36  1  0  0  0  0
 15 16  1  0  0  0  0
 15 37  1  0  0  0  0
 15 38  1  0  0  0  0
 16 21  1  0  0  0  0
 16 17  2  0  0  0  0
 17 18  1  0  0  0  0
 17 39  1  0  0  0  0
 18 19  2  0  0  0  0
 18 40  1  0  0  0  0
 19 20  1  0  0  0  0
 19 41  1  0  0  0  0
 20 21  2  0  0  0  0
 20 42  1  0  0  0  0
 21 45  1  0  0  0  0
 22 43  1  0  0  0  0
 22 44  1  0  0  0  0
M  CHG  1  21   1
M  END
> <s_m_source_file>
AV-unprocessed.smi

> <i_m_source_file_index>
1434

> <i_lp_mmshare_version>
43012

> <i_f3d_flags>
0

> <s_epik_input>
W0NIM11TKD1PKSg9TylbTkhdW0NAQEhdMVtDSDJdW0NIMl1bQ0gyXU4oW0NIMl0xKUMoPU8pW05IXVtDSDJdW0NIMl1jMltjSF1bY0hdW2NIXVtjSF1uMg==

> <s_epik_cmdline>
J2VwaWtfcHl0aG9uJywgJy1waCcsICc3LjAnLCAnLXRuJywgJzgnLCAnLW1hJywgJzIwMCcsICctbWV0YWxfYmluZGluZycsICctaW1hZScsICc8aW5maWxlLm1hZT4nLCAnLW9tYWUnLCAnPG91dGZpbGUubWFlPic=

> <r_epik_Ionization_Penalty>
1.55113

> <r_epik_Ionization_Penalty_Charging>
1.55107

> <r_epik_Ionization_Penalty_Neutral>
6.01346e-05

> <r_epik_State_Penalty>
1.64529

> <r_epik_Charging_Adjusted_Penalty>
3.19637

> <i_epik_Tot_Q>
1

> <i_epik_Tot_abs_Q>
1

> <r_epik_Metal_State_Penalty>
1.69621

> <b_epik_Metal_Only>
0

> <s_lp_Force_Field>
OPLS_2005

> <r_lp_Energy>
27.1225

> <b_lp_Chiralities_Consistent>
1

> <s_lp_Variant>
AV-unprocessed.smi:1434-3

> <Gold.Version>
5.8.1

> <Gold.Id.Protein>
6NUR|6NUR_protein|mol2

> <Gold.PLP.Fitness>
48.8679

> <Gold.PLP.PLP>
-43.5096

> <Gold.PLP.part.hbond>
-3.0136

> <Gold.PLP.part.metal>
0.0000

> <Gold.PLP.part.buried>
-4.8577

> <Gold.PLP.part.nonpolar>
-35.4194

> <Gold.PLP.part.repulsive>
0.4015

> <Gold.PLP.ligand.clash>
0.0000

> <Gold.PLP.ligand.torsion>
0.4025

> <Gold.PLP.Chemscore.Hbond>
2.0000

> <Gold.PLP.Chemscore.CHOScore>
0.0000

> <Gold.PLP.Chemscore.Metal>
0.0000

> <Gold.Chemscore.Hbonds>
donor molecule, donor type, donor heavy atom, donor atom, acceptor molecule, acceptor atom, score
      L1  H     5    26       P1  7948  1.00
      P1  H 10752 10764       L1     4  0.96

> <Gold.PLP.Chemscore.Internal.Correction>
0.1635

> <Gold.Rescore>
     Score         DG    S(hbond)    S(metal)    S(lipo)     H(rot)  DE(clash)    DE(int)     intcor
     16.84     -18.79       2.00        0.00     103.36       2.13       0.11       1.84       ----

> <Gold.Chemscore.Fitness>
16.8420

> <Gold.Chemscore.DG>
-18.7914

> <Gold.Chemscore.ZeroCoef>
-5.4800

> <Gold.Chemscore.Hbond>
1.9993

> <Gold.Chemscore.Metal>
0.0000

> <Gold.Chemscore.Lipo>
103.3619

> <Gold.Chemscore.Internal_Hbond>
0.0000

> <Gold.Chemscore.DEClash>
0.1108

> <Gold.Chemscore.DEInternal>
1.8386

> <Gold.Chemscore.Rot>
2.1326

> <Gold.Chemscore.Internal.Correction>
   9.000000E+99

> <Gold.Chemscore.Hbonds>
donor molecule, donor type, donor heavy atom, donor atom, acceptor molecule, acceptor atom, score
      L1  H     5    26       P1  7948  0.96
      P1  H 10752 10764       L1     4  0.91

> <Gold.Chemscore.Hbond.Weighted>
-6.6776

> <Gold.Chemscore.Metal.Weighted>
-0.0000

> <Gold.Chemscore.Lipo.Weighted>
-12.0933

> <Gold.Chemscore.Internal_Hbond.Weighted>
0.0000

> <Gold.Chemscore.DEClash.Weighted>
0.1108

> <Gold.Chemscore.DEInternal.Weighted>
1.8386

> <Gold.Chemscore.Rot.Weighted>
5.4595

> <Gold.Chemscore.Internal.Correction.Weighted>
   9.000000E+99

> <Gold.Protein.RotatedTorsions>
[ 6907 6896 6895 6894 ] final   83.39 input  -60.11 | X-H torsion
[ 7974 7965 7964 7962 ] final   10.17 input  175.53 | X-H torsion
[ 8008 7997 7996 7995 ] final   67.98 input   59.86 | X-H torsion
[ 10167 10162 10161 10158 ] final -129.86 input  -65.29 | X-H torsion
[ 10718 10713 10712 10709 ] final -179.90 input   66.30 | X-H torsion
[ 10763 10752 10751 10750 ] final  -65.45 input  -60.55 | X-H torsion
[ 11005 11000 10999 10996 ] final  -46.73 input  -57.11 | X-H torsion

> <Gold.Protein.ActiveResidues>
 VAL166  LYS551  ARG553  GLY616  TRP617  ASP618  TYR619  PRO620  LYS621  CYS622 
 ASP623  PHE694  ASN695  SER759  ASP760  ASP761  ALA762  ILE779  LEU786  VAL792 
 PHE793  MET794  SER795  GLU796  ALA797  LYS798  CYS799  TRP800  GLU811  SER814 

> <Gold.Protein.RotatedAtoms>
  152.5326  134.2903  159.9040 H   0  0  0  0  0  0  0  0  0  0  0  0  # atno 6907 bound_to 6896
  151.2855  133.4183  159.2637 H   0  0  0  0  0  0  0  0  0  0  0  0  # atno 6908 bound_to 6896
  151.0246  134.9510  159.8135 H   0  0  0  0  0  0  0  0  0  0  0  0  # atno 6909 bound_to 6896
  146.2392  139.9675  142.8451 H   0  0  0  0  0  0  0  0  0  0  0  0  # atno 7974 bound_to 7965
  155.7013  140.3495  155.4934 H   0  0  0  0  0  0  0  0  0  0  0  0  # atno 8008 bound_to 7997
  155.9438  140.1106  157.1056 H   0  0  0  0  0  0  0  0  0  0  0  0  # atno 8009 bound_to 7997
  154.4108  140.1207  156.4948 H   0  0  0  0  0  0  0  0  0  0  0  0  # atno 8010 bound_to 7997
  139.9354  143.6224  152.2518 H   0  0  0  0  0  0  0  0  0  0  0  0  # atno 10167 bound_to 10162
  156.8659  130.9767  151.3078 H   0  0  0  0  0  0  0  0  0  0  0  0  # atno 10718 bound_to 10713
  154.3453  135.6148  153.5616 H   0  0  0  0  0  0  0  0  0  0  0  0  # atno 10763 bound_to 10752
  152.9801  135.5779  154.4806 H   0  0  0  0  0  0  0  0  0  0  0  0  # atno 10764 bound_to 10752
  154.4518  135.2853  155.1753 H   0  0  0  0  0  0  0  0  0  0  0  0  # atno 10765 bound_to 10752
  141.0597  133.6713  156.3197 H   0  0  0  0  0  0  0  0  0  0  0  0  # atno 11005 bound_to 11000
  145.1713  140.9722  143.4320 LP  0  0  0  0  0  0  0  0  0  0  0  0  # atno 17320 bound_to 7965
  145.0026  139.3584  143.6160 LP  0  0  0  0  0  0  0  0  0  0  0  0  # atno 17321 bound_to 7965
  139.6748  144.7659  151.1716 LP  0  0  0  0  0  0  0  0  0  0  0  0  # atno 17342 bound_to 10162
  140.7626  143.5811  150.8893 LP  0  0  0  0  0  0  0  0  0  0  0  0  # atno 17343 bound_to 10162
  157.6223  130.8665  149.9130 LP  0  0  0  0  0  0  0  0  0  0  0  0  # atno 17370 bound_to 10713
  156.0752  130.3680  150.0693 LP  0  0  0  0  0  0  0  0  0  0  0  0  # atno 17371 bound_to 10713
  140.5893  134.5667  157.5496 LP  0  0  0  0  0  0  0  0  0  0  0  0  # atno 17394 bound_to 11000
  139.9421  134.7767  156.0651 LP  0  0  0  0  0  0  0  0  0  0  0  0  # atno 17395 bound_to 11000

$$$$
