AV-unprocessed.smi:1771|AV-procd|sdf|7157|dock3
  -GOLD-   22720 8393D 1   1.00000     0.00000
 Structure written by MMmdl.
 31 32  0  0  0  0  0  0  0  0  1 V2000
  144.9892  137.9850  152.3019 O   0  0  0  0  0  0  0  0  0  0  0  0
  146.1164  137.5212  152.1274 C   0  0  0  0  0  0  0  0  0  0  0  0
  147.2437  138.2047  152.3697 N   0  0  0  0  0  0  0  0  0  0  0  0
  147.3003  139.5720  152.8767 C   0  0  0  0  0  0  0  0  0  0  0  0
  148.1270  139.6780  154.1734 C   0  0  2  0  0  0  0  0  0  0  0  0
  148.4971  141.1339  154.5168 C   0  0  0  0  0  0  0  0  0  0  0  0
  149.5312  141.1202  155.6465 C   0  0  0  0  0  0  0  0  0  0  0  0
  150.5629  139.6373  155.3481 S   0  0  0  0  0  0  0  0  0  0  0  0
  151.7980  140.0317  154.6540 O   0  0  0  0  0  0  0  0  0  0  0  0
  150.6088  138.8289  156.5759 O   0  0  0  0  0  0  0  0  0  0  0  0
  149.4273  138.8557  154.1392 C   0  0  0  0  0  0  0  0  0  0  0  0
  146.3822  136.2831  151.6796 N   0  0  0  0  0  0  0  0  0  0  0  0
  145.4477  135.2766  151.3264 C   0  0  0  0  0  0  0  0  0  0  0  0
  145.6561  133.8814  151.5015 C   0  0  0  0  0  0  0  0  0  0  0  0
  144.6124  133.1800  151.0825 N   0  0  0  0  0  0  0  0  0  0  0  0
  143.7394  134.1142  150.6424 N   0  0  0  0  0  0  0  0  0  0  0  0
  144.2051  135.4041  150.7716 C   0  0  0  0  0  0  0  0  0  0  0  0
  142.8396  133.8588  150.2614 H   0  0  0  0  0  0  0  0  0  0  0  0
  148.1263  137.7459  152.1974 H   0  0  0  0  0  0  0  0  0  0  0  0
  147.7395  140.2000  152.1011 H   0  0  0  0  0  0  0  0  0  0  0  0
  146.2888  139.9484  153.0397 H   0  0  0  0  0  0  0  0  0  0  0  0
  147.5256  139.3021  155.0027 H   0  0  0  0  0  0  0  0  0  0  0  0
  148.9399  141.6090  153.6404 H   0  0  0  0  0  0  0  0  0  0  0  0
  147.6193  141.7207  154.7887 H   0  0  0  0  0  0  0  0  0  0  0  0
  150.1521  142.0155  155.6718 H   0  0  0  0  0  0  0  0  0  0  0  0
  149.0440  141.0032  156.6149 H   0  0  0  0  0  0  0  0  0  0  0  0
  149.2718  137.8073  154.3952 H   0  0  0  0  0  0  0  0  0  0  0  0
  149.9005  138.9067  153.1582 H   0  0  0  0  0  0  0  0  0  0  0  0
  147.3553  136.0322  151.5827 H   0  0  0  0  0  0  0  0  0  0  0  0
  146.5120  133.3649  151.9105 H   0  0  0  0  0  0  0  0  0  0  0  0
  143.6241  136.2614  150.4654 H   0  0  0  0  0  0  0  0  0  0  0  0
  1  2  2  0  0  0  0
  2  3  1  0  0  0  0
  2 12  1  0  0  0  0
  3  4  1  0  0  0  0
  3 19  1  0  0  0  0
  4  5  1  0  0  0  0
  4 20  1  0  0  0  0
  4 21  1  0  0  0  0
  5 11  1  0  0  0  0
  5  6  1  0  0  0  0
  5 22  1  0  0  0  0
  6  7  1  0  0  0  0
  6 23  1  0  0  0  0
  6 24  1  0  0  0  0
  7  8  1  0  0  0  0
  7 25  1  0  0  0  0
  7 26  1  0  0  0  0
  8  9  2  0  0  0  0
  8 10  2  0  0  0  0
  8 11  1  0  0  0  0
 11 27  1  0  0  0  0
 11 28  1  0  0  0  0
 12 13  1  0  0  0  0
 12 29  1  0  0  0  0
 13 17  2  0  0  0  0
 13 14  1  0  0  0  0
 14 15  2  0  0  0  0
 14 30  1  0  0  0  0
 15 16  1  0  0  0  0
 16 18  1  0  0  0  0
 16 17  1  0  0  0  0
 17 31  1  0  0  0  0
M  END
> <s_m_source_file>
AV-unprocessed.smi

> <i_m_source_file_index>
1771

> <i_lp_mmshare_version>
43012

> <i_f3d_flags>
0

> <s_epik_input>
W2NIXTFbbkhdbltjSF1jMVtOSF1DKD1PKVtOSF1bQ0gyXVtDQEBIXShbQ0gyXTIpW0NIMl1bQ0gyXVMyKD1PKT1P

> <s_epik_cmdline>
J2VwaWtfcHl0aG9uJywgJy1waCcsICc3LjAnLCAnLXRuJywgJzgnLCAnLW1hJywgJzIwMCcsICctbWV0YWxfYmluZGluZycsICctaW1hZScsICc8aW5maWxlLm1hZT4nLCAnLW9tYWUnLCAnPG91dGZpbGUubWFlPic=

> <r_lp_tautomer_probability>
1

> <r_epik_Ionization_Penalty>
4.89708e-05

> <r_epik_Ionization_Penalty_Charging>
0

> <r_epik_Ionization_Penalty_Neutral>
4.89708e-05

> <r_epik_State_Penalty>
-0

> <r_epik_Charging_Adjusted_Penalty>
0

> <i_epik_Tot_Q>
0

> <i_epik_Tot_abs_Q>
0

> <r_epik_Metal_State_Penalty>
-0

> <b_epik_Metal_Only>
0

> <s_lp_Force_Field>
OPLS_2005

> <r_lp_Energy>
6.8857

> <b_lp_Chiralities_Consistent>
1

> <s_lp_Variant>
AV-unprocessed.smi:1771-1

> <Gold.Version>
5.8.1

> <Gold.Id.Protein>
6NUR|6NUR_protein|mol2

> <Gold.PLP.Fitness>
38.2337

> <Gold.PLP.PLP>
-24.0578

> <Gold.PLP.part.hbond>
-3.8615

> <Gold.PLP.part.metal>
0.0000

> <Gold.PLP.part.buried>
-4.1456

> <Gold.PLP.part.nonpolar>
-19.6057

> <Gold.PLP.part.repulsive>
3.2195

> <Gold.PLP.ligand.clash>
0.0000

> <Gold.PLP.ligand.torsion>
0.3558

> <Gold.PLP.Chemscore.Hbond>
3.9600

> <Gold.PLP.Chemscore.CHOScore>
1.0000

> <Gold.PLP.Chemscore.Metal>
0.0000

> <Gold.Chemscore.Hbonds>
donor molecule, donor type, donor heavy atom, donor atom, acceptor molecule, acceptor atom, score
      L1  H     3    19       P1  7948  0.96
      L1  H    12    29       P1  7948  1.00
      L1  H    16    18       P1 10186  0.95
      P1  H  7989  7998       L1     9  0.71
      L1  C    17    31       P1 10171  1.00

> <Gold.PLP.Chemscore.Internal.Correction>
0.0075

> <Gold.Rescore>
     Score         DG    S(hbond)    S(metal)    S(lipo)     H(rot)  DE(clash)    DE(int)     intcor
     19.06     -19.54       3.78        0.00      42.74       1.39       0.13       0.35       ----

> <Gold.Chemscore.Fitness>
19.0624

> <Gold.Chemscore.DG>
-19.5438

> <Gold.Chemscore.ZeroCoef>
-5.4800

> <Gold.Chemscore.Hbond>
3.7795

> <Gold.Chemscore.Metal>
0.0000

> <Gold.Chemscore.Lipo>
42.7411

> <Gold.Chemscore.Internal_Hbond>
0.0000

> <Gold.Chemscore.DEClash>
0.1306

> <Gold.Chemscore.DEInternal>
0.3508

> <Gold.Chemscore.Rot>
1.3908

> <Gold.Chemscore.Internal.Correction>
   9.000000E+99

> <Gold.Chemscore.Hbonds>
donor molecule, donor type, donor heavy atom, donor atom, acceptor molecule, acceptor atom, score
      L1  H     3    19       P1  7948  0.92
      L1  H    12    29       P1  7948  0.96
      L1  H    16    18       P1 10186  0.84
      P1  H  7989  7998       L1     9  0.65

> <Gold.Chemscore.Hbond.Weighted>
-12.6235

> <Gold.Chemscore.Metal.Weighted>
-0.0000

> <Gold.Chemscore.Lipo.Weighted>
-5.0007

> <Gold.Chemscore.Internal_Hbond.Weighted>
0.0000

> <Gold.Chemscore.DEClash.Weighted>
0.1306

> <Gold.Chemscore.DEInternal.Weighted>
0.3508

> <Gold.Chemscore.Rot.Weighted>
3.5603

> <Gold.Chemscore.Internal.Correction.Weighted>
   9.000000E+99

> <Gold.Protein.RotatedTorsions>
[ 6907 6896 6895 6894 ] final   43.85 input  -60.11 | X-H torsion
[ 7974 7965 7964 7962 ] final  -10.85 input  175.53 | X-H torsion
[ 8008 7997 7996 7995 ] final -160.79 input   59.86 | X-H torsion
[ 10167 10162 10161 10158 ] final  -28.32 input  -65.29 | X-H torsion
[ 10718 10713 10712 10709 ] final  123.12 input   66.30 | X-H torsion
[ 10763 10752 10751 10750 ] final  -37.18 input  -60.55 | X-H torsion
[ 11005 11000 10999 10996 ] final  -33.12 input  -57.11 | X-H torsion

> <Gold.Protein.ActiveResidues>
 VAL166  LYS551  ARG553  GLY616  TRP617  ASP618  TYR619  PRO620  LYS621  CYS622 
 ASP623  PHE694  ASN695  SER759  ASP760  ASP761  ALA762  ILE779  LEU786  VAL792 
 PHE793  MET794  SER795  GLU796  ALA797  LYS798  CYS799  TRP800  GLU811  SER814 

> <Gold.Protein.RotatedAtoms>
  152.2253  134.8373  160.0480 H   0  0  0  0  0  0  0  0  0  0  0  0  # atno 6907 bound_to 6896
  151.9142  133.3564  159.3882 H   0  0  0  0  0  0  0  0  0  0  0  0  # atno 6908 bound_to 6896
  150.7011  134.4626  159.5432 H   0  0  0  0  0  0  0  0  0  0  0  0  # atno 6909 bound_to 6896
  146.2207  140.2824  142.8363 H   0  0  0  0  0  0  0  0  0  0  0  0  # atno 7974 bound_to 7965
  155.7826  140.0867  157.2051 H   0  0  0  0  0  0  0  0  0  0  0  0  # atno 8008 bound_to 7997
  154.3989  140.1505  156.3127 H   0  0  0  0  0  0  0  0  0  0  0  0  # atno 8009 bound_to 7997
  155.8638  140.3429  155.5777 H   0  0  0  0  0  0  0  0  0  0  0  0  # atno 8010 bound_to 7997
  140.7271  143.4020  151.1249 H   0  0  0  0  0  0  0  0  0  0  0  0  # atno 10167 bound_to 10162
  157.5689  131.1084  150.8403 H   0  0  0  0  0  0  0  0  0  0  0  0  # atno 10718 bound_to 10713
  153.8920  135.6811  153.4760 H   0  0  0  0  0  0  0  0  0  0  0  0  # atno 10763 bound_to 10752
  153.1176  135.4754  154.9139 H   0  0  0  0  0  0  0  0  0  0  0  0  # atno 10764 bound_to 10752
  154.7618  135.3213  154.8317 H   0  0  0  0  0  0  0  0  0  0  0  0  # atno 10765 bound_to 10752
  140.9608  133.7165  156.1367 H   0  0  0  0  0  0  0  0  0  0  0  0  # atno 11005 bound_to 11000
  144.9187  140.7843  143.5762 LP  0  0  0  0  0  0  0  0  0  0  0  0  # atno 17320 bound_to 7965
  145.2759  139.1936  143.4816 LP  0  0  0  0  0  0  0  0  0  0  0  0  # atno 17321 bound_to 7965
  139.7641  143.8592  152.3107 LP  0  0  0  0  0  0  0  0  0  0  0  0  # atno 17342 bound_to 10162
  139.8488  144.7175  150.9240 LP  0  0  0  0  0  0  0  0  0  0  0  0  # atno 17343 bound_to 10162
  156.8880  130.5203  149.5287 LP  0  0  0  0  0  0  0  0  0  0  0  0  # atno 17370 bound_to 10713
  156.0736  130.5763  150.9430 LP  0  0  0  0  0  0  0  0  0  0  0  0  # atno 17371 bound_to 10713
  140.7470  134.4087  157.5547 LP  0  0  0  0  0  0  0  0  0  0  0  0  # atno 17394 bound_to 11000
  139.8877  134.8874  156.2511 LP  0  0  0  0  0  0  0  0  0  0  0  0  # atno 17395 bound_to 11000

$$$$
