AV-unprocessed.smi:39|AV-procd|sdf|351|dock8
  -GOLD-   2262016193D 1   1.00000     0.00000
 Structure written by MMmdl.
 32 33  0  0  0  0  0  0  0  0  3 V2000
  147.4840  139.5178  153.2105 C   0  0  0  0  0  0  0  0  0  0  0  0
  148.5326  140.0554  154.1701 C   0  0  0  0  0  0  0  0  0  0  0  0
  149.4483  139.2532  154.7708 C   0  0  0  0  0  0  0  0  0  0  0  0
  150.4175  139.7143  155.6520 N   0  0  0  0  0  0  0  0  0  0  0  0
  151.4092  138.7734  156.3001 C   0  0  1  0  0  0  0  0  0  0  0  0
  151.2163  138.7559  157.8193 C   0  0  0  0  0  0  0  0  0  0  0  0
  150.4295  137.4740  158.0230 C   0  0  2  0  0  0  0  0  0  0  0  0
  150.6047  136.9058  159.3613 N   0  0  0  0  0  0  0  0  0  0  0  0
  149.6180  136.9414  160.1084 N   0  3  0  0  0  0  0  0  0  0  0  0
  148.6537  137.0396  160.7046 N   0  5  0  0  0  0  0  0  0  0  0  0
  151.0174  136.5830  156.9257 C   0  0  1  0  0  0  0  0  0  0  0  0
  150.0982  135.4201  156.5203 C   0  0  0  0  0  0  0  0  0  0  0  0
  150.0893  134.4342  157.5303 O   0  0  0  0  0  0  0  0  0  0  0  0
  151.1814  137.4780  155.8285 O   0  0  0  0  0  0  0  0  0  0  0  0
  150.4566  141.0861  155.9782 C   0  0  0  0  0  0  0  0  0  0  0  0
  151.2627  141.5625  156.7763 O   0  0  0  0  0  0  0  0  0  0  0  0
  149.5209  141.9111  155.3567 N   0  0  0  0  0  0  0  0  0  0  0  0
  148.5419  141.4935  154.4521 C   0  0  0  0  0  0  0  0  0  0  0  0
  147.7724  142.3203  153.9651 O   0  0  0  0  0  0  0  0  0  0  0  0
  152.4055  139.0923  155.9893 H   0  0  0  0  0  0  0  0  0  0  0  0
  149.3745  137.6575  157.8088 H   0  0  0  0  0  0  0  0  0  0  0  0
  151.9988  136.2195  157.2381 H   0  0  0  0  0  0  0  0  0  0  0  0
  149.5507  142.8947  155.5825 H   0  0  0  0  0  0  0  0  0  0  0  0
  147.5655  138.4377  153.0855 H   0  0  0  0  0  0  0  0  0  0  0  0
  147.5961  139.9773  152.2278 H   0  0  0  0  0  0  0  0  0  0  0  0
  146.4815  139.7366  153.5795 H   0  0  0  0  0  0  0  0  0  0  0  0
  149.4111  138.1972  154.5489 H   0  0  0  0  0  0  0  0  0  0  0  0
  152.1983  138.6926  158.2904 H   0  0  0  0  0  0  0  0  0  0  0  0
  150.7079  139.6495  158.1836 H   0  0  0  0  0  0  0  0  0  0  0  0
  149.0737  135.7744  156.4027 H   0  0  0  0  0  0  0  0  0  0  0  0
  150.4019  134.9864  155.5672 H   0  0  0  0  0  0  0  0  0  0  0  0
  149.6938  133.6498  157.1817 H   0  0  0  0  0  0  0  0  0  0  0  0
  1  2  1  0  0  0  0
  1 24  1  0  0  0  0
  1 25  1  0  0  0  0
  1 26  1  0  0  0  0
  2 18  1  0  0  0  0
  2  3  2  0  0  0  0
  3  4  1  0  0  0  0
  3 27  1  0  0  0  0
  4  5  1  0  0  0  0
  4 15  1  0  0  0  0
  5 20  1  0  0  0  0
  5 14  1  0  0  0  0
  5  6  1  0  0  0  0
  6  7  1  0  0  0  0
  6 28  1  0  0  0  0
  6 29  1  0  0  0  0
  7 21  1  0  0  0  0
  7  8  1  0  0  0  0
  7 11  1  0  0  0  0
  8  9  2  0  0  0  0
  9 10  2  0  0  0  0
 11 22  1  0  0  0  0
 11 12  1  0  0  0  0
 11 14  1  0  0  0  0
 12 13  1  0  0  0  0
 12 30  1  0  0  0  0
 12 31  1  0  0  0  0
 13 32  1  0  0  0  0
 15 16  2  0  0  0  0
 15 17  1  0  0  0  0
 17 23  1  0  0  0  0
 17 18  1  0  0  0  0
 18 19  2  0  0  0  0
M  CHG  1   9   1
M  CHG  1  10  -1
M  END
> <s_m_source_file>
AV-unprocessed.smi

> <i_m_source_file_index>
39

> <i_lp_mmshare_version>
43012

> <i_f3d_flags>
0

> <s_epik_input>
Tz1jMVtuSF1jKD1PKW4oW2NIXWMxW0NIM10pW0NASF0yW0NIMl1bQ0BIXShOPVtOK109W04tXSlbQ0BIXShPMilbQ0gyXVtPSF0=

> <s_epik_cmdline>
J2VwaWtfcHl0aG9uJywgJy1waCcsICc3LjAnLCAnLXRuJywgJzgnLCAnLW1hJywgJzIwMCcsICctbWV0YWxfYmluZGluZycsICctaW1hZScsICc8aW5maWxlLm1hZT4nLCAnLW9tYWUnLCAnPG91dGZpbGUubWFlPic=

> <r_lp_tautomer_probability>
0.999537

> <r_epik_Ionization_Penalty>
0.00127512

> <r_epik_Ionization_Penalty_Charging>
0.00127507

> <r_epik_Ionization_Penalty_Neutral>
5.43433e-08

> <r_epik_State_Penalty>
0.000844892

> <r_epik_Charging_Adjusted_Penalty>
0.00211996

> <i_epik_Tot_Q>
0

> <i_epik_Tot_abs_Q>
2

> <r_epik_Metal_State_Penalty>
0.680636

> <b_epik_Metal_Only>
0

> <s_epik_Chemistry_Notes>
This compound contains an acetal/aminal-like group ( X-CH(R)-Y where X, Y are N, S, or O) that may be acid/base labile, releasing an aldehyde.

> <s_lp_Force_Field>
OPLS_2005

> <r_lp_Energy>
24.0553

> <b_lp_Chiralities_Consistent>
1

> <s_lp_Variant>
AV-unprocessed.smi:39-1

> <Gold.Version>
5.8.1

> <Gold.Id.Protein>
6NUR|6NUR_protein|mol2

> <Gold.PLP.Fitness>
34.6478

> <Gold.PLP.PLP>
-24.3237

> <Gold.PLP.part.hbond>
-6.3151

> <Gold.PLP.part.metal>
0.0000

> <Gold.PLP.part.buried>
-2.5540

> <Gold.PLP.part.nonpolar>
-16.8584

> <Gold.PLP.part.repulsive>
0.5835

> <Gold.PLP.ligand.clash>
0.0000

> <Gold.PLP.ligand.torsion>
0.2060

> <Gold.PLP.Chemscore.Hbond>
3.5680

> <Gold.PLP.Chemscore.CHOScore>
0.0000

> <Gold.PLP.Chemscore.Metal>
0.0000

> <Gold.Chemscore.Hbonds>
donor molecule, donor type, donor heavy atom, donor atom, acceptor molecule, acceptor atom, score
      L1  H    17    23       P1  8028  1.00
      P1  H  6896  6907       L1     8  0.99
      P1  H  6896  6909       L1    13  0.69
      P1  H  6931  6943       L1    10  0.85

> <Gold.PLP.Chemscore.Internal.Correction>
0.0321

> <Gold.Rescore>
     Score         DG    S(hbond)    S(metal)    S(lipo)     H(rot)  DE(clash)    DE(int)     intcor
      8.51      -9.02       2.16        0.00      28.73       2.75       0.16       0.35       ----

> <Gold.Chemscore.Fitness>
8.5122

> <Gold.Chemscore.DG>
-9.0195

> <Gold.Chemscore.ZeroCoef>
-5.4800

> <Gold.Chemscore.Hbond>
2.1630

> <Gold.Chemscore.Metal>
0.0000

> <Gold.Chemscore.Lipo>
28.7272

> <Gold.Chemscore.Internal_Hbond>
0.0000

> <Gold.Chemscore.DEClash>
0.1559

> <Gold.Chemscore.DEInternal>
0.3515

> <Gold.Chemscore.Rot>
2.7524

> <Gold.Chemscore.Internal.Correction>
   9.000000E+99

> <Gold.Chemscore.Hbonds>
donor molecule, donor type, donor heavy atom, donor atom, acceptor molecule, acceptor atom, score
      L1  H    17    23       P1  8028  0.98
      P1  H  6896  6907       L1     8  0.26
      P1  H  6896  6909       L1    13  0.20
      P1  H  6931  6943       L1    10  0.34
      P1  H  6934  6947       L1    10  0.02

> <Gold.Chemscore.Hbond.Weighted>
-7.2246

> <Gold.Chemscore.Metal.Weighted>
-0.0000

> <Gold.Chemscore.Lipo.Weighted>
-3.3611

> <Gold.Chemscore.Internal_Hbond.Weighted>
0.0000

> <Gold.Chemscore.DEClash.Weighted>
0.1559

> <Gold.Chemscore.DEInternal.Weighted>
0.3515

> <Gold.Chemscore.Rot.Weighted>
7.0461

> <Gold.Chemscore.Internal.Correction.Weighted>
   9.000000E+99

> <Gold.Protein.RotatedTorsions>
[ 6907 6896 6895 6894 ] final   -4.47 input  -60.11 | X-H torsion
[ 7974 7965 7964 7962 ] final -139.36 input  175.53 | X-H torsion
[ 8008 7997 7996 7995 ] final  -97.88 input   59.86 | X-H torsion
[ 10167 10162 10161 10158 ] final  106.51 input  -65.29 | X-H torsion
[ 10718 10713 10712 10709 ] final  -57.89 input   66.30 | X-H torsion
[ 10763 10752 10751 10750 ] final   33.27 input  -60.55 | X-H torsion
[ 11005 11000 10999 10996 ] final  163.09 input  -57.11 | X-H torsion

> <Gold.Protein.ActiveResidues>
 VAL166  LYS551  ARG553  GLY616  TRP617  ASP618  TYR619  PRO620  LYS621  CYS622 
 ASP623  PHE694  ASN695  SER759  ASP760  ASP761  ALA762  ILE779  LEU786  VAL792 
 PHE793  MET794  SER795  GLU796  ALA797  LYS798  CYS799  TRP800  GLU811  SER814 

> <Gold.Protein.RotatedAtoms>
  151.4972  135.1060  159.9819 H   0  0  0  0  0  0  0  0  0  0  0  0  # atno 6907 bound_to 6896
  152.4717  133.8040  159.6978 H   0  0  0  0  0  0  0  0  0  0  0  0  # atno 6908 bound_to 6896
  150.8729  133.7416  159.2981 H   0  0  0  0  0  0  0  0  0  0  0  0  # atno 6909 bound_to 6896
  144.8683  140.6327  143.5283 H   0  0  0  0  0  0  0  0  0  0  0  0  # atno 7974 bound_to 7965
  154.7937  140.0459  157.1220 H   0  0  0  0  0  0  0  0  0  0  0  0  # atno 8008 bound_to 7997
  154.9560  140.3071  155.5033 H   0  0  0  0  0  0  0  0  0  0  0  0  # atno 8009 bound_to 7997
  156.2953  140.2279  156.4642 H   0  0  0  0  0  0  0  0  0  0  0  0  # atno 8010 bound_to 7997
  139.7003  144.7095  151.1197 H   0  0  0  0  0  0  0  0  0  0  0  0  # atno 10167 bound_to 10162
  156.1176  130.4169  150.0502 H   0  0  0  0  0  0  0  0  0  0  0  0  # atno 10718 bound_to 10713
  153.0220  135.6391  154.1485 H   0  0  0  0  0  0  0  0  0  0  0  0  # atno 10763 bound_to 10752
  154.1219  135.2846  155.3208 H   0  0  0  0  0  0  0  0  0  0  0  0  # atno 10764 bound_to 10752
  154.6257  135.5509  153.7687 H   0  0  0  0  0  0  0  0  0  0  0  0  # atno 10765 bound_to 10752
  140.2323  134.8115  157.3329 H   0  0  0  0  0  0  0  0  0  0  0  0  # atno 11005 bound_to 11000
  145.4179  139.1569  143.4090 LP  0  0  0  0  0  0  0  0  0  0  0  0  # atno 17320 bound_to 7965
  146.2912  140.4287  142.8739 LP  0  0  0  0  0  0  0  0  0  0  0  0  # atno 17321 bound_to 7965
  140.7708  143.5433  150.9287 LP  0  0  0  0  0  0  0  0  0  0  0  0  # atno 17342 bound_to 10162
  139.9114  143.6715  152.3114 LP  0  0  0  0  0  0  0  0  0  0  0  0  # atno 17343 bound_to 10162
  156.8449  130.9439  151.3629 LP  0  0  0  0  0  0  0  0  0  0  0  0  # atno 17370 bound_to 10713
  157.6360  130.8767  149.9359 LP  0  0  0  0  0  0  0  0  0  0  0  0  # atno 17371 bound_to 10713
  140.1738  134.4575  155.7815 LP  0  0  0  0  0  0  0  0  0  0  0  0  # atno 17394 bound_to 11000
  141.2217  133.6953  156.7753 LP  0  0  0  0  0  0  0  0  0  0  0  0  # atno 17395 bound_to 11000

$$$$
