AV-unprocessed.smi:2061|AV-procd|sdf|8393|dock5
  -GOLD-   2272011 73D 1   1.00000     0.00000
 Structure written by MMmdl.
 45 46  0  0  0  0  0  0  0  0  3 V2000
  147.4677  135.5066  162.6858 C   0  0  0  0  0  0  0  0  0  0  0  0
  147.6579  135.7625  161.2295 C   0  0  0  0  0  0  0  0  0  0  0  0
  147.9903  134.9508  160.1819 C   0  0  0  0  0  0  0  0  0  0  0  0
  148.0004  135.8417  159.0759 C   0  0  0  0  0  0  0  0  0  0  0  0
  148.2944  135.3709  157.7692 N   0  0  0  0  0  0  0  0  0  0  0  0
  148.9503  134.2540  157.4079 C   0  0  0  0  0  0  0  0  0  0  0  0
  149.2886  133.4252  158.2611 O   0  0  0  0  0  0  0  0  0  0  0  0
  149.1716  134.1954  156.0658 N   0  5  0  0  0  0  0  0  0  0  0  0
  148.1804  134.5273  155.0377 C   0  0  0  0  0  0  0  0  0  0  0  0
  148.3789  133.6697  153.7581 C   0  0  1  0  0  0  0  0  0  0  0  0
  148.6932  132.1782  154.0377 C   0  0  0  0  0  0  0  0  0  0  0  0
  147.2748  133.8974  152.7687 N   0  3  1  0  0  0  0  0  0  0  0  0
  147.0545  132.7598  151.8446 C   0  0  0  0  0  0  0  0  0  0  0  0
  146.0828  133.1656  150.7219 C   0  0  1  0  0  0  0  0  0  0  0  0
  145.7596  131.9921  149.7906 C   0  0  0  0  0  0  0  0  0  0  0  0
  144.8580  133.6240  151.2892 O   0  0  0  0  0  0  0  0  0  0  0  0
  144.9888  134.7250  152.1885 C   0  0  2  0  0  0  0  0  0  0  0  0
  145.3159  136.0405  151.4608 C   0  0  0  0  0  0  0  0  0  0  0  0
  145.9749  134.3712  153.3180 C   0  0  0  0  0  0  0  0  0  0  0  0
  147.6933  137.0846  159.4174 N   0  0  0  0  0  0  0  0  0  0  0  0
  147.4756  137.0407  160.7993 O   0  0  0  0  0  0  0  0  0  0  0  0
  146.6612  134.7918  162.8493 H   0  0  0  0  0  0  0  0  0  0  0  0
  147.2175  136.4247  163.2180 H   0  0  0  0  0  0  0  0  0  0  0  0
  148.3769  135.0981  163.1272 H   0  0  0  0  0  0  0  0  0  0  0  0
  148.1939  133.8906  160.2051 H   0  0  0  0  0  0  0  0  0  0  0  0
  148.0094  135.9762  157.0134 H   0  0  0  0  0  0  0  0  0  0  0  0
  147.1574  134.3897  155.3909 H   0  0  0  0  0  0  0  0  0  0  0  0
  148.2421  135.5809  154.7651 H   0  0  0  0  0  0  0  0  0  0  0  0
  149.2929  134.0648  153.3123 H   0  0  0  0  0  0  0  0  0  0  0  0
  149.5802  132.0629  154.6633 H   0  0  0  0  0  0  0  0  0  0  0  0
  148.9005  131.6456  153.1091 H   0  0  0  0  0  0  0  0  0  0  0  0
  147.8757  131.6590  154.5406 H   0  0  0  0  0  0  0  0  0  0  0  0
  148.0027  132.4520  151.4017 H   0  0  0  0  0  0  0  0  0  0  0  0
  146.6658  131.9068  152.4033 H   0  0  0  0  0  0  0  0  0  0  0  0
  146.5306  133.9578  150.1215 H   0  0  0  0  0  0  0  0  0  0  0  0
  146.6622  131.6065  149.3163 H   0  0  0  0  0  0  0  0  0  0  0  0
  145.0757  132.3004  148.9993 H   0  0  0  0  0  0  0  0  0  0  0  0
  145.2904  131.1724  150.3356 H   0  0  0  0  0  0  0  0  0  0  0  0
  144.0067  134.8589  152.6431 H   0  0  0  0  0  0  0  0  0  0  0  0
  145.3109  136.8790  152.1575 H   0  0  0  0  0  0  0  0  0  0  0  0
  144.5765  136.2514  150.6881 H   0  0  0  0  0  0  0  0  0  0  0  0
  146.2958  136.0206  150.9862 H   0  0  0  0  0  0  0  0  0  0  0  0
  145.5321  133.5874  153.9335 H   0  0  0  0  0  0  0  0  0  0  0  0
  146.1200  135.2385  153.9625 H   0  0  0  0  0  0  0  0  0  0  0  0
  147.6160  134.6527  152.1896 H   0  0  0  0  0  0  0  0  0  0  0  0
  1  2  1  0  0  0  0
  1 22  1  0  0  0  0
  1 23  1  0  0  0  0
  1 24  1  0  0  0  0
  2 21  1  0  0  0  0
  2  3  2  0  0  0  0
  3  4  1  0  0  0  0
  3 25  1  0  0  0  0
  4  5  1  0  0  0  0
  4 20  2  0  0  0  0
  5  6  1  0  0  0  0
  5 26  1  0  0  0  0
  6  7  2  0  0  0  0
  6  8  1  0  0  0  0
  8  9  1  0  0  0  0
  9 10  1  0  0  0  0
  9 27  1  0  0  0  0
  9 28  1  0  0  0  0
 10 11  1  0  0  0  0
 10 12  1  0  0  0  0
 10 29  1  0  0  0  0
 11 30  1  0  0  0  0
 11 31  1  0  0  0  0
 11 32  1  0  0  0  0
 12 19  1  0  0  0  0
 12 13  1  0  0  0  0
 12 45  1  0  0  0  0
 13 14  1  0  0  0  0
 13 33  1  0  0  0  0
 13 34  1  0  0  0  0
 14 15  1  0  0  0  0
 14 16  1  0  0  0  0
 14 35  1  0  0  0  0
 15 36  1  0  0  0  0
 15 37  1  0  0  0  0
 15 38  1  0  0  0  0
 16 17  1  0  0  0  0
 17 18  1  0  0  0  0
 17 19  1  0  0  0  0
 17 39  1  0  0  0  0
 18 40  1  0  0  0  0
 18 41  1  0  0  0  0
 18 42  1  0  0  0  0
 19 43  1  0  0  0  0
 19 44  1  0  0  0  0
 20 21  1  0  0  0  0
M  CHG  1   8  -1
M  CHG  1  12   1
M  END
> <s_m_source_file>
AV-unprocessed.smi

> <i_m_source_file_index>
2061

> <i_lp_mmshare_version>
43012

> <i_f3d_flags>
0

> <s_epik_input>
W0NIM11jMVtjSF1jKG5vMSlbTkhdQyg9TylbTkhdW0NIMl1bQ0BIXShbQ0gzXSlOMltDSDJdW0NAQEhdKFtDSDNdKU9bQ0BASF0oW0NIM10pW0NIMl0y

> <s_epik_cmdline>
J2VwaWtfcHl0aG9uJywgJy1waCcsICc3LjAnLCAnLXRuJywgJzgnLCAnLW1hJywgJzIwMCcsICctbWV0YWxfYmluZGluZycsICctaW1hZScsICc8aW5maWxlLm1hZT4nLCAnLW9tYWUnLCAnPG91dGZpbGUubWFlPic=

> <r_epik_Ionization_Penalty>
6.8073

> <r_epik_Ionization_Penalty_Charging>
6.80729

> <r_epik_Ionization_Penalty_Neutral>
5.65391e-06

> <r_epik_State_Penalty>
7.47323

> <r_epik_Charging_Adjusted_Penalty>
14.2805

> <i_epik_Tot_Q>
0

> <i_epik_Tot_abs_Q>
2

> <r_epik_Metal_State_Penalty>
3.40035

> <b_epik_Metal_Only>
1

> <s_lp_Force_Field>
OPLS_2005

> <r_lp_Energy>
16.8806

> <b_lp_Chiralities_Consistent>
1

> <s_lp_Variant>
AV-unprocessed.smi:2061-34

> <Gold.Version>
5.8.1

> <Gold.Id.Protein>
6NUR|6NUR_protein|mol2

> <Gold.PLP.Fitness>
45.4396

> <Gold.PLP.PLP>
-34.5055

> <Gold.PLP.part.hbond>
-4.2908

> <Gold.PLP.part.metal>
0.0000

> <Gold.PLP.part.buried>
-3.1509

> <Gold.PLP.part.nonpolar>
-27.8856

> <Gold.PLP.part.repulsive>
0.1862

> <Gold.PLP.ligand.clash>
0.0000

> <Gold.PLP.ligand.torsion>
1.6785

> <Gold.PLP.Chemscore.Hbond>
4.6594

> <Gold.PLP.Chemscore.CHOScore>
0.0000

> <Gold.PLP.Chemscore.Metal>
0.0000

> <Gold.Chemscore.Hbonds>
donor molecule, donor type, donor heavy atom, donor atom, acceptor molecule, acceptor atom, score
      L1  H    12    45       P1  7948  1.89
      P1  H  6896  6908       L1     7  1.00
      P1  H  6931  6943       L1    21  0.38
      P1  H  6934  6947       L1    21  0.65

> <Gold.PLP.Chemscore.Internal.Correction>
0.3128

> <Gold.Rescore>
     Score         DG    S(hbond)    S(metal)    S(lipo)     H(rot)  DE(clash)    DE(int)     intcor
     16.27     -19.25       2.83        0.00      70.82       1.56       0.09       2.89       ----

> <Gold.Chemscore.Fitness>
16.2692

> <Gold.Chemscore.DG>
-19.2504

> <Gold.Chemscore.ZeroCoef>
-5.4800

> <Gold.Chemscore.Hbond>
2.8340

> <Gold.Chemscore.Metal>
0.0000

> <Gold.Chemscore.Lipo>
70.8185

> <Gold.Chemscore.Internal_Hbond>
0.0000

> <Gold.Chemscore.DEClash>
0.0935

> <Gold.Chemscore.DEInternal>
2.8877

> <Gold.Chemscore.Rot>
1.5550

> <Gold.Chemscore.Internal.Correction>
   9.000000E+99

> <Gold.Chemscore.Hbonds>
donor molecule, donor type, donor heavy atom, donor atom, acceptor molecule, acceptor atom, score
      L1  H    12    45       P1  7948  0.60
      P1  H  6896  6908       L1     7  0.94
      P1  H  6931  6943       L1    21  0.14
      P1  H  6934  6947       L1    21  0.05

> <Gold.Chemscore.Hbond.Weighted>
-9.4655

> <Gold.Chemscore.Metal.Weighted>
-0.0000

> <Gold.Chemscore.Lipo.Weighted>
-8.2858

> <Gold.Chemscore.Internal_Hbond.Weighted>
0.0000

> <Gold.Chemscore.DEClash.Weighted>
0.0935

> <Gold.Chemscore.DEInternal.Weighted>
2.8877

> <Gold.Chemscore.Rot.Weighted>
3.9809

> <Gold.Chemscore.Internal.Correction.Weighted>
   9.000000E+99

> <Gold.Protein.RotatedTorsions>
[ 6907 6896 6895 6894 ] final  106.73 input  -60.11 | X-H torsion
[ 7974 7965 7964 7962 ] final -149.67 input  175.53 | X-H torsion
[ 8008 7997 7996 7995 ] final   87.43 input   59.86 | X-H torsion
[ 10167 10162 10161 10158 ] final -124.63 input  -65.29 | X-H torsion
[ 10718 10713 10712 10709 ] final  -36.32 input   66.30 | X-H torsion
[ 10763 10752 10751 10750 ] final  115.65 input  -60.55 | X-H torsion
[ 11005 11000 10999 10996 ] final  161.91 input  -57.11 | X-H torsion

> <Gold.Protein.ActiveResidues>
 VAL166  LYS551  ARG553  GLY616  TRP617  ASP618  TYR619  PRO620  LYS621  CYS622 
 ASP623  PHE694  ASN695  SER759  ASP760  ASP761  ALA762  ILE779  LEU786  VAL792 
 PHE793  MET794  SER795  GLU796  ALA797  LYS798  CYS799  TRP800  GLU811  SER814 

> <Gold.Protein.RotatedAtoms>
  152.5182  133.9338  159.7593 H   0  0  0  0  0  0  0  0  0  0  0  0  # atno 6907 bound_to 6896
  150.9683  133.6363  159.2749 H   0  0  0  0  0  0  0  0  0  0  0  0  # atno 6908 bound_to 6896
  151.3584  135.0904  159.9479 H   0  0  0  0  0  0  0  0  0  0  0  0  # atno 6909 bound_to 6896
  144.7953  140.5033  143.5744 H   0  0  0  0  0  0  0  0  0  0  0  0  # atno 7974 bound_to 7965
  155.9753  140.3382  155.6613 H   0  0  0  0  0  0  0  0  0  0  0  0  # atno 8008 bound_to 7997
  155.6620  140.0717  157.2568 H   0  0  0  0  0  0  0  0  0  0  0  0  # atno 8009 bound_to 7997
  154.4177  140.1707  156.1775 H   0  0  0  0  0  0  0  0  0  0  0  0  # atno 8010 bound_to 7997
  139.9907  143.5644  152.2343 H   0  0  0  0  0  0  0  0  0  0  0  0  # atno 10167 bound_to 10162
  156.3282  130.4275  149.7897 H   0  0  0  0  0  0  0  0  0  0  0  0  # atno 10718 bound_to 10713
  153.5254  135.3589  155.2651 H   0  0  0  0  0  0  0  0  0  0  0  0  # atno 10763 bound_to 10752
  154.8731  135.4055  154.3212 H   0  0  0  0  0  0  0  0  0  0  0  0  # atno 10764 bound_to 10752
  153.3890  135.7071  153.6576 H   0  0  0  0  0  0  0  0  0  0  0  0  # atno 10765 bound_to 10752
  140.2205  134.8200  157.3215 H   0  0  0  0  0  0  0  0  0  0  0  0  # atno 11005 bound_to 11000
  145.5689  139.1482  143.3299 LP  0  0  0  0  0  0  0  0  0  0  0  0  # atno 17320 bound_to 7965
  146.2219  140.5823  142.9013 LP  0  0  0  0  0  0  0  0  0  0  0  0  # atno 17321 bound_to 7965
  139.6342  144.7648  151.2472 LP  0  0  0  0  0  0  0  0  0  0  0  0  # atno 17342 bound_to 10162
  140.7456  143.6427  150.8320 LP  0  0  0  0  0  0  0  0  0  0  0  0  # atno 17343 bound_to 10162
  156.5179  130.8201  151.3193 LP  0  0  0  0  0  0  0  0  0  0  0  0  # atno 17370 bound_to 10713
  157.7425  130.9892  150.2524 LP  0  0  0  0  0  0  0  0  0  0  0  0  # atno 17371 bound_to 10713
  140.1855  134.4437  155.7746 LP  0  0  0  0  0  0  0  0  0  0  0  0  # atno 17394 bound_to 11000
  141.2223  133.7003  156.7940 LP  0  0  0  0  0  0  0  0  0  0  0  0  # atno 17395 bound_to 11000

$$$$
