AV-unprocessed.smi:740|AV-procd|sdf|3549|dock3
  -GOLD-   22720 0543D 1   1.00000     0.00000
 Structure written by MMmdl.
 44 46  0  0  0  0  0  0  0  0  1 V2000
  151.5303  144.9192  159.2190 C   0  0  0  0  0  0  0  0  0  0  0  0
  152.0103  143.4861  159.3664 C   0  0  0  0  0  0  0  0  0  0  0  0
  153.0198  143.1936  160.3108 C   0  0  0  0  0  0  0  0  0  0  0  0
  153.4910  141.8738  160.4823 C   0  0  0  0  0  0  0  0  0  0  0  0
  154.4561  141.3688  161.3368 N   0  0  0  0  0  0  0  0  0  0  0  0
  154.4352  140.0753  161.0291 C   0  0  0  0  0  0  0  0  0  0  0  0
  153.5708  139.6821  160.0743 N   0  0  0  0  0  0  0  0  0  0  0  0
  153.3710  138.3299  159.5850 C   0  0  0  0  0  0  0  0  0  0  0  0
  153.3965  138.2536  158.0463 C   0  0  1  0  0  0  0  0  0  0  0  0
  154.7322  138.4131  157.6079 O   0  0  0  0  0  0  0  0  0  0  0  0
  152.8636  136.8996  157.5337 C   0  0  0  0  0  0  0  0  0  0  0  0
  151.4087  136.9194  157.3421 N   0  0  0  0  0  0  0  0  0  0  0  0
  150.5204  136.9684  158.3443 C   0  0  0  0  0  0  0  0  0  0  0  0
  150.7799  136.9932  159.5470 O   0  0  0  0  0  0  0  0  0  0  0  0
  149.0954  137.0006  157.8101 C   0  0  0  0  0  0  0  0  0  0  0  0
  149.2883  136.9564  156.2868 C   0  0  2  0  0  0  0  0  0  0  0  0
  148.6102  135.7528  155.6117 C   0  0  0  0  0  0  0  0  0  0  0  0
  150.8083  136.9070  156.1437 C   0  0  0  0  0  0  0  0  0  0  0  0
  151.3717  136.8639  155.0499 O   0  0  0  0  0  0  0  0  0  0  0  0
  152.9199  140.8453  159.6769 C   0  0  0  0  0  0  0  0  0  0  0  0
  151.9162  141.1240  158.7323 C   0  0  0  0  0  0  0  0  0  0  0  0
  151.4570  142.4485  158.5737 C   0  0  0  0  0  0  0  0  0  0  0  0
  150.3714  142.7391  157.5527 C   0  0  0  0  0  0  0  0  0  0  0  0
  152.0827  145.5937  159.8740 H   0  0  0  0  0  0  0  0  0  0  0  0
  150.4733  144.9949  159.4751 H   0  0  0  0  0  0  0  0  0  0  0  0
  151.6646  145.2654  158.1940 H   0  0  0  0  0  0  0  0  0  0  0  0
  153.4413  143.9829  160.9157 H   0  0  0  0  0  0  0  0  0  0  0  0
  155.0837  139.3703  161.5285 H   0  0  0  0  0  0  0  0  0  0  0  0
  154.1345  137.6818  160.0172 H   0  0  0  0  0  0  0  0  0  0  0  0
  152.4115  137.9738  159.9628 H   0  0  0  0  0  0  0  0  0  0  0  0
  152.7972  139.0714  157.6438 H   0  0  0  0  0  0  0  0  0  0  0  0
  155.0987  137.5584  157.4403 H   0  0  0  0  0  0  0  0  0  0  0  0
  153.3827  136.6007  156.6211 H   0  0  0  0  0  0  0  0  0  0  0  0
  153.0960  136.1192  158.2605 H   0  0  0  0  0  0  0  0  0  0  0  0
  148.5333  136.1451  158.1864 H   0  0  0  0  0  0  0  0  0  0  0  0
  148.5915  137.9142  158.1275 H   0  0  0  0  0  0  0  0  0  0  0  0
  148.9260  137.8824  155.8383 H   0  0  0  0  0  0  0  0  0  0  0  0
  148.7701  135.7632  154.5330 H   0  0  0  0  0  0  0  0  0  0  0  0
  147.5337  135.7680  155.7832 H   0  0  0  0  0  0  0  0  0  0  0  0
  148.9935  134.8071  155.9973 H   0  0  0  0  0  0  0  0  0  0  0  0
  151.5011  140.3239  158.1376 H   0  0  0  0  0  0  0  0  0  0  0  0
  150.0516  141.8304  157.0418 H   0  0  0  0  0  0  0  0  0  0  0  0
  150.7347  143.4369  156.7979 H   0  0  0  0  0  0  0  0  0  0  0  0
  149.4979  143.1757  158.0370 H   0  0  0  0  0  0  0  0  0  0  0  0
  1  2  1  0  0  0  0
  1 24  1  0  0  0  0
  1 25  1  0  0  0  0
  1 26  1  0  0  0  0
  2 22  1  0  0  0  0
  2  3  2  0  0  0  0
  3  4  1  0  0  0  0
  3 27  1  0  0  0  0
  4 20  2  0  0  0  0
  4  5  1  0  0  0  0
  5  6  2  0  0  0  0
  6  7  1  0  0  0  0
  6 28  1  0  0  0  0
  7  8  1  0  0  0  0
  7 20  1  0  0  0  0
  8  9  1  0  0  0  0
  8 29  1  0  0  0  0
  8 30  1  0  0  0  0
  9 10  1  0  0  0  0
  9 11  1  0  0  0  0
  9 31  1  0  0  0  0
 10 32  1  0  0  0  0
 11 12  1  0  0  0  0
 11 33  1  0  0  0  0
 11 34  1  0  0  0  0
 12 18  1  0  0  0  0
 12 13  1  0  0  0  0
 13 14  2  0  0  0  0
 13 15  1  0  0  0  0
 15 16  1  0  0  0  0
 15 35  1  0  0  0  0
 15 36  1  0  0  0  0
 16 17  1  0  0  0  0
 16 18  1  0  0  0  0
 16 37  1  0  0  0  0
 17 38  1  0  0  0  0
 17 39  1  0  0  0  0
 17 40  1  0  0  0  0
 18 19  2  0  0  0  0
 20 21  1  0  0  0  0
 21 22  2  0  0  0  0
 21 41  1  0  0  0  0
 22 23  1  0  0  0  0
 23 42  1  0  0  0  0
 23 43  1  0  0  0  0
 23 44  1  0  0  0  0
M  END
> <s_m_source_file>
AV-unprocessed.smi

> <i_m_source_file_index>
740

> <i_lp_mmshare_version>
43012

> <i_f3d_flags>
0

> <s_epik_input>
W0NIM11jKFtjSF0xKWMoW0NIM10pW2NIXWMoYzEyKW4oW2NIXW4yKVtDSDJdW0NASF0oW09IXSlbQ0gyXU4zQyg9TylbQ0gyXVtDQEBIXShbQ0gzXSlDMz1P

> <s_epik_cmdline>
J2VwaWtfcHl0aG9uJywgJy1waCcsICc3LjAnLCAnLXRuJywgJzgnLCAnLW1hJywgJzIwMCcsICctbWV0YWxfYmluZGluZycsICctaW1hZScsICc8aW5maWxlLm1hZT4nLCAnLW9tYWUnLCAnPG91dGZpbGUubWFlPic=

> <r_lp_tautomer_probability>
1

> <r_epik_Ionization_Penalty>
0.104021

> <r_epik_Ionization_Penalty_Charging>
0

> <r_epik_Ionization_Penalty_Neutral>
0.104021

> <r_epik_State_Penalty>
0.0939354

> <r_epik_Charging_Adjusted_Penalty>
0.0939354

> <i_epik_Tot_Q>
0

> <i_epik_Tot_abs_Q>
0

> <r_epik_Metal_State_Penalty>
0.000101783

> <b_epik_Metal_Only>
0

> <s_lp_Force_Field>
OPLS_2005

> <r_lp_Energy>
16.4677

> <b_lp_Chiralities_Consistent>
1

> <s_lp_Variant>
AV-unprocessed.smi:740-4

> <Gold.Version>
5.8.1

> <Gold.Id.Protein>
6NUR|6NUR_protein|mol2

> <Gold.PLP.Fitness>
46.3559

> <Gold.PLP.PLP>
-40.8790

> <Gold.PLP.part.hbond>
-3.9392

> <Gold.PLP.part.metal>
0.0000

> <Gold.PLP.part.buried>
-5.9486

> <Gold.PLP.part.nonpolar>
-32.2225

> <Gold.PLP.part.repulsive>
0.0970

> <Gold.PLP.ligand.clash>
0.0000

> <Gold.PLP.ligand.torsion>
0.6358

> <Gold.PLP.Chemscore.Hbond>
2.2406

> <Gold.PLP.Chemscore.CHOScore>
0.0000

> <Gold.PLP.Chemscore.Metal>
0.0000

> <Gold.Chemscore.Hbonds>
donor molecule, donor type, donor heavy atom, donor atom, acceptor molecule, acceptor atom, score
      P1  H  6896  6908       L1    14  1.00
      P1  H  7997  8008       L1    10  0.58
      P1  H 10752 10763       L1    19  0.61

> <Gold.PLP.Chemscore.Internal.Correction>
0.0269

> <Gold.Rescore>
     Score         DG    S(hbond)    S(metal)    S(lipo)     H(rot)  DE(clash)    DE(int)     intcor
     15.11     -16.89       1.83        0.00      95.82       2.31       0.01       1.76       ----

> <Gold.Chemscore.Fitness>
15.1138

> <Gold.Chemscore.DG>
-16.8865

> <Gold.Chemscore.ZeroCoef>
-5.4800

> <Gold.Chemscore.Hbond>
1.8325

> <Gold.Chemscore.Metal>
0.0000

> <Gold.Chemscore.Lipo>
95.8240

> <Gold.Chemscore.Internal_Hbond>
0.0000

> <Gold.Chemscore.DEClash>
0.0089

> <Gold.Chemscore.DEInternal>
1.7638

> <Gold.Chemscore.Rot>
2.3147

> <Gold.Chemscore.Internal.Correction>
   9.000000E+99

> <Gold.Chemscore.Hbonds>
donor molecule, donor type, donor heavy atom, donor atom, acceptor molecule, acceptor atom, score
      P1  H  6896  6908       L1    14  0.44
      P1  H  7997  8008       L1    10  0.17
      P1  H 10752 10763       L1    19  0.55

> <Gold.Chemscore.Hbond.Weighted>
-6.1206

> <Gold.Chemscore.Metal.Weighted>
-0.0000

> <Gold.Chemscore.Lipo.Weighted>
-11.2114

> <Gold.Chemscore.Internal_Hbond.Weighted>
0.0000

> <Gold.Chemscore.DEClash.Weighted>
0.0089

> <Gold.Chemscore.DEInternal.Weighted>
1.7638

> <Gold.Chemscore.Rot.Weighted>
5.9256

> <Gold.Chemscore.Internal.Correction.Weighted>
   9.000000E+99

> <Gold.Protein.RotatedTorsions>
[ 6907 6896 6895 6894 ] final -132.99 input  -60.11 | X-H torsion
[ 7974 7965 7964 7962 ] final   17.51 input  175.53 | X-H torsion
[ 8008 7997 7996 7995 ] final  -90.01 input   59.86 | X-H torsion
[ 10167 10162 10161 10158 ] final  -70.53 input  -65.29 | X-H torsion
[ 10718 10713 10712 10709 ] final -134.65 input   66.30 | X-H torsion
[ 10763 10752 10751 10750 ] final   82.07 input  -60.55 | X-H torsion
[ 11005 11000 10999 10996 ] final  115.13 input  -57.11 | X-H torsion

> <Gold.Protein.ActiveResidues>
 VAL166  LYS551  ARG553  GLY616  TRP617  ASP618  TYR619  PRO620  LYS621  CYS622 
 ASP623  PHE694  ASN695  SER759  ASP760  ASP761  ALA762  ILE779  LEU786  VAL792 
 PHE793  MET794  SER795  GLU796  ALA797  LYS798  CYS799  TRP800  GLU811  SER814 

> <Gold.Protein.RotatedAtoms>
  150.9688  133.6366  159.2741 H   0  0  0  0  0  0  0  0  0  0  0  0  # atno 6907 bound_to 6896
  151.3662  135.0912  159.9460 H   0  0  0  0  0  0  0  0  0  0  0  0  # atno 6908 bound_to 6896
  152.5175  133.9251  159.7608 H   0  0  0  0  0  0  0  0  0  0  0  0  # atno 6909 bound_to 6896
  146.2216  139.8592  142.8608 H   0  0  0  0  0  0  0  0  0  0  0  0  # atno 7974 bound_to 7965
  154.6935  140.0535  157.0387 H   0  0  0  0  0  0  0  0  0  0  0  0  # atno 8008 bound_to 7997
  155.0784  140.3207  155.4590 H   0  0  0  0  0  0  0  0  0  0  0  0  # atno 8009 bound_to 7997
  156.2736  140.2069  156.5912 H   0  0  0  0  0  0  0  0  0  0  0  0  # atno 8010 bound_to 7997
  140.5345  143.2319  151.7202 H   0  0  0  0  0  0  0  0  0  0  0  0  # atno 10167 bound_to 10162
  156.2577  130.7191  151.1114 H   0  0  0  0  0  0  0  0  0  0  0  0  # atno 10718 bound_to 10713
  153.1171  135.4742  154.9133 H   0  0  0  0  0  0  0  0  0  0  0  0  # atno 10763 bound_to 10752
  154.7539  135.3113  154.8509 H   0  0  0  0  0  0  0  0  0  0  0  0  # atno 10764 bound_to 10752
  153.9083  135.6868  153.4806 H   0  0  0  0  0  0  0  0  0  0  0  0  # atno 10765 bound_to 10752
  139.9001  134.9579  156.6998 H   0  0  0  0  0  0  0  0  0  0  0  0  # atno 11005 bound_to 11000
  145.2722  141.0112  143.3765 LP  0  0  0  0  0  0  0  0  0  0  0  0  # atno 17320 bound_to 7965
  144.9215  139.4406  143.6539 LP  0  0  0  0  0  0  0  0  0  0  0  0  # atno 17321 bound_to 7965
  139.4966  144.4063  152.0128 LP  0  0  0  0  0  0  0  0  0  0  0  0  # atno 17342 bound_to 10162
  140.3168  144.3474  150.6019 LP  0  0  0  0  0  0  0  0  0  0  0  0  # atno 17343 bound_to 10162
  157.7239  131.0663  150.6018 LP  0  0  0  0  0  0  0  0  0  0  0  0  # atno 17370 bound_to 10713
  156.6103  130.4378  149.5861 LP  0  0  0  0  0  0  0  0  0  0  0  0  # atno 17371 bound_to 10713
  140.7159  133.9182  155.8115 LP  0  0  0  0  0  0  0  0  0  0  0  0  # atno 17394 bound_to 11000
  141.0264  134.0817  157.4063 LP  0  0  0  0  0  0  0  0  0  0  0  0  # atno 17395 bound_to 11000

$$$$
