AV-unprocessed.smi:3322|AV-procd|sdf|12774|dock8
  -GOLD-   2272019113D 1   1.00000     0.00000
 Structure written by MMmdl.
 39 40  0  0  0  0  0  0  0  0  2 V2000
  148.7652  141.7057  154.3044 C   0  0  0  0  0  0  0  0  0  0  0  0
  149.5155  141.3445  155.5975 C   0  0  1  0  0  0  0  0  0  0  0  0
  149.0116  142.1939  156.7033 N   0  3  0  0  0  0  0  0  0  0  0  0
  149.8727  142.2389  157.9045 C   0  0  0  0  0  0  0  0  0  0  0  0
  151.1667  143.0148  157.6233 C   0  0  0  0  0  0  0  0  0  0  0  0
  151.5217  143.8812  158.7300 N   0  0  0  0  0  0  0  0  0  0  0  0
  151.5848  145.2585  158.7562 C   0  0  0  0  0  0  0  0  0  0  0  0
  151.9625  145.6231  160.0167 C   0  0  0  0  0  0  0  0  0  0  0  0
  152.1111  144.3824  160.6978 C   0  0  0  0  0  0  0  0  0  0  0  0
  151.8466  143.3415  159.9244 N   0  0  0  0  0  0  0  0  0  0  0  0
  149.3526  139.8401  155.9088 C   0  0  0  0  0  0  0  0  0  0  0  0
  148.2195  139.4204  156.1526 O   0  0  0  0  0  0  0  0  0  0  0  0
  150.4329  139.0191  155.9030 N   0  0  0  0  0  0  0  0  0  0  0  0
  151.8092  139.3758  155.5380 C   0  0  0  0  0  0  0  0  0  0  0  0
  152.2185  138.5544  154.3010 C   0  0  0  0  0  0  0  0  0  0  0  0
  152.0868  137.1634  154.5783 O   0  0  0  0  0  0  0  0  0  0  0  0
  150.7622  136.7937  154.9499 C   0  0  0  0  0  0  0  0  0  0  0  0
  150.3417  137.5850  156.2005 C   0  0  0  0  0  0  0  0  0  0  0  0
  149.1280  141.1339  153.4502 H   0  0  0  0  0  0  0  0  0  0  0  0
  148.8915  142.7615  154.0624 H   0  0  0  0  0  0  0  0  0  0  0  0
  147.6952  141.5143  154.3971 H   0  0  0  0  0  0  0  0  0  0  0  0
  150.5696  141.5936  155.4793 H   0  0  0  0  0  0  0  0  0  0  0  0
  148.9243  143.1385  156.3570 H   0  0  0  0  0  0  0  0  0  0  0  0
  149.3352  142.7105  158.7281 H   0  0  0  0  0  0  0  0  0  0  0  0
  150.1059  141.2194  158.2145 H   0  0  0  0  0  0  0  0  0  0  0  0
  151.9953  142.3291  157.4390 H   0  0  0  0  0  0  0  0  0  0  0  0
  151.0548  143.6265  156.7270 H   0  0  0  0  0  0  0  0  0  0  0  0
  151.3577  145.8585  157.8871 H   0  0  0  0  0  0  0  0  0  0  0  0
  152.1107  146.6238  160.3947 H   0  0  0  0  0  0  0  0  0  0  0  0
  152.4012  144.2087  161.7236 H   0  0  0  0  0  0  0  0  0  0  0  0
  151.9564  140.4309  155.3211 H   0  0  0  0  0  0  0  0  0  0  0  0
  152.4715  139.1478  156.3744 H   0  0  0  0  0  0  0  0  0  0  0  0
  151.6072  138.8201  153.4371 H   0  0  0  0  0  0  0  0  0  0  0  0
  153.2547  138.7634  154.0353 H   0  0  0  0  0  0  0  0  0  0  0  0
  150.0753  136.9776  154.1220 H   0  0  0  0  0  0  0  0  0  0  0  0
  150.7385  135.7232  155.1538 H   0  0  0  0  0  0  0  0  0  0  0  0
  151.0037  137.3473  157.0344 H   0  0  0  0  0  0  0  0  0  0  0  0
  149.3441  137.2728  156.5115 H   0  0  0  0  0  0  0  0  0  0  0  0
  148.0948  141.8610  156.9665 H   0  0  0  0  0  0  0  0  0  0  0  0
  1  2  1  0  0  0  0
  1 19  1  0  0  0  0
  1 20  1  0  0  0  0
  1 21  1  0  0  0  0
  2  3  1  0  0  0  0
  2 11  1  0  0  0  0
  2 22  1  0  0  0  0
  3  4  1  0  0  0  0
  3 23  1  0  0  0  0
  3 39  1  0  0  0  0
  4  5  1  0  0  0  0
  4 24  1  0  0  0  0
  4 25  1  0  0  0  0
  5  6  1  0  0  0  0
  5 26  1  0  0  0  0
  5 27  1  0  0  0  0
  6 10  1  0  0  0  0
  6  7  1  0  0  0  0
  7  8  2  0  0  0  0
  7 28  1  0  0  0  0
  8  9  1  0  0  0  0
  8 29  1  0  0  0  0
  9 10  2  0  0  0  0
  9 30  1  0  0  0  0
 11 12  2  0  0  0  0
 11 13  1  0  0  0  0
 13 18  1  0  0  0  0
 13 14  1  0  0  0  0
 14 15  1  0  0  0  0
 14 31  1  0  0  0  0
 14 32  1  0  0  0  0
 15 16  1  0  0  0  0
 15 33  1  0  0  0  0
 15 34  1  0  0  0  0
 16 17  1  0  0  0  0
 17 18  1  0  0  0  0
 17 35  1  0  0  0  0
 17 36  1  0  0  0  0
 18 37  1  0  0  0  0
 18 38  1  0  0  0  0
M  CHG  1   3   1
M  END
> <s_m_source_file>
AV-unprocessed.smi

> <i_m_source_file_index>
3322

> <i_lp_mmshare_version>
43012

> <i_f3d_flags>
0

> <s_epik_input>
W0NIMl0xW0NIMl1PW0NIMl1bQ0gyXU4xQyg9TylbQ0BIXShbQ0gzXSlbTkhdW0NIMl1bQ0gyXW4yW2NIXVtjSF1bY0hdbjI=

> <s_epik_cmdline>
J2VwaWtfcHl0aG9uJywgJy1waCcsICc3LjAnLCAnLXRuJywgJzgnLCAnLW1hJywgJzIwMCcsICctbWV0YWxfYmluZGluZycsICctaW1hZScsICc8aW5maWxlLm1hZT4nLCAnLW9tYWUnLCAnPG91dGZpbGUubWFlPic=

> <r_lp_tautomer_probability>
1

> <r_epik_Ionization_Penalty>
0.3254

> <r_epik_Ionization_Penalty_Charging>
0.325398

> <r_epik_Ionization_Penalty_Neutral>
2.29478e-06

> <r_epik_State_Penalty>
0.320187

> <r_epik_Charging_Adjusted_Penalty>
0.645585

> <i_epik_Tot_Q>
1

> <i_epik_Tot_abs_Q>
1

> <r_epik_Metal_State_Penalty>
0.320558

> <b_epik_Metal_Only>
0

> <s_lp_Force_Field>
OPLS_2005

> <r_lp_Energy>
25.7531

> <b_lp_Chiralities_Consistent>
1

> <s_lp_Variant>
AV-unprocessed.smi:3322-2

> <Gold.Version>
5.8.1

> <Gold.Id.Protein>
6NUR|6NUR_protein|mol2

> <Gold.PLP.Fitness>
44.9366

> <Gold.PLP.PLP>
-37.1976

> <Gold.PLP.part.hbond>
-2.0000

> <Gold.PLP.part.metal>
0.0000

> <Gold.PLP.part.buried>
-5.0143

> <Gold.PLP.part.nonpolar>
-30.4061

> <Gold.PLP.part.repulsive>
0.1441

> <Gold.PLP.ligand.clash>
0.0000

> <Gold.PLP.ligand.torsion>
0.4835

> <Gold.PLP.Chemscore.Hbond>
2.8960

> <Gold.PLP.Chemscore.CHOScore>
0.0000

> <Gold.PLP.Chemscore.Metal>
0.0000

> <Gold.Chemscore.Hbonds>
donor molecule, donor type, donor heavy atom, donor atom, acceptor molecule, acceptor atom, score
      L1  H     3    23       P1  8028  2.00
      P1  H 10752 10765       L1    16  0.91

> <Gold.PLP.Chemscore.Internal.Correction>
0.0180

> <Gold.Rescore>
     Score         DG    S(hbond)    S(metal)    S(lipo)     H(rot)  DE(clash)    DE(int)     intcor
     17.17     -17.85       1.96        0.00      91.57       1.91       0.18       0.50       ----

> <Gold.Chemscore.Fitness>
17.1701

> <Gold.Chemscore.DG>
-17.8450

> <Gold.Chemscore.ZeroCoef>
-5.4800

> <Gold.Chemscore.Hbond>
1.9579

> <Gold.Chemscore.Metal>
0.0000

> <Gold.Chemscore.Lipo>
91.5715

> <Gold.Chemscore.Internal_Hbond>
0.0000

> <Gold.Chemscore.DEClash>
0.1799

> <Gold.Chemscore.DEInternal>
0.4951

> <Gold.Chemscore.Rot>
1.9095

> <Gold.Chemscore.Internal.Correction>
   9.000000E+99

> <Gold.Chemscore.Hbonds>
donor molecule, donor type, donor heavy atom, donor atom, acceptor molecule, acceptor atom, score
      L1  H     3    23       P1  8028  0.99
      P1  H 10752 10765       L1    16  0.45

> <Gold.Chemscore.Hbond.Weighted>
-6.5395

> <Gold.Chemscore.Metal.Weighted>
-0.0000

> <Gold.Chemscore.Lipo.Weighted>
-10.7139

> <Gold.Chemscore.Internal_Hbond.Weighted>
0.0000

> <Gold.Chemscore.DEClash.Weighted>
0.1799

> <Gold.Chemscore.DEInternal.Weighted>
0.4951

> <Gold.Chemscore.Rot.Weighted>
4.8884

> <Gold.Chemscore.Internal.Correction.Weighted>
   9.000000E+99

> <Gold.Protein.RotatedTorsions>
[ 6907 6896 6895 6894 ] final   -3.04 input  -60.11 | X-H torsion
[ 7974 7965 7964 7962 ] final  132.95 input  175.53 | X-H torsion
[ 8008 7997 7996 7995 ] final -168.70 input   59.86 | X-H torsion
[ 10167 10162 10161 10158 ] final   62.78 input  -65.29 | X-H torsion
[ 10718 10713 10712 10709 ] final  -79.12 input   66.30 | X-H torsion
[ 10763 10752 10751 10750 ] final  167.51 input  -60.55 | X-H torsion
[ 11005 11000 10999 10996 ] final   36.33 input  -57.11 | X-H torsion

> <Gold.Protein.ActiveResidues>
 VAL166  LYS551  ARG553  GLY616  TRP617  ASP618  TYR619  PRO620  LYS621  CYS622 
 ASP623  PHE694  ASN695  SER759  ASP760  ASP761  ALA762  ILE779  LEU786  VAL792 
 PHE793  MET794  SER795  GLU796  ALA797  LYS798  CYS799  TRP800  GLU811  SER814 

> <Gold.Protein.RotatedAtoms>
  151.5203  135.1067  159.9876 H   0  0  0  0  0  0  0  0  0  0  0  0  # atno 6907 bound_to 6896
  152.4623  133.7845  159.6879 H   0  0  0  0  0  0  0  0  0  0  0  0  # atno 6908 bound_to 6896
  150.8591  133.7606  159.3023 H   0  0  0  0  0  0  0  0  0  0  0  0  # atno 6909 bound_to 6896
  144.9915  139.4402  143.5337 H   0  0  0  0  0  0  0  0  0  0  0  0  # atno 7974 bound_to 7965
  155.8949  140.1031  157.1392 H   0  0  0  0  0  0  0  0  0  0  0  0  # atno 8008 bound_to 7997
  154.4019  140.1303  156.4427 H   0  0  0  0  0  0  0  0  0  0  0  0  # atno 8009 bound_to 7997
  155.7490  140.3465  155.5143 H   0  0  0  0  0  0  0  0  0  0  0  0  # atno 8010 bound_to 7997
  140.1402  144.4561  150.6815 H   0  0  0  0  0  0  0  0  0  0  0  0  # atno 10167 bound_to 10162
  156.0100  130.4537  150.3601 H   0  0  0  0  0  0  0  0  0  0  0  0  # atno 10718 bound_to 10713
  154.3549  135.2753  155.2352 H   0  0  0  0  0  0  0  0  0  0  0  0  # atno 10763 bound_to 10752
  154.4565  135.5918  153.6230 H   0  0  0  0  0  0  0  0  0  0  0  0  # atno 10764 bound_to 10752
  152.9847  135.6054  154.3763 H   0  0  0  0  0  0  0  0  0  0  0  0  # atno 10765 bound_to 10752
  140.2336  134.3498  155.7954 H   0  0  0  0  0  0  0  0  0  0  0  0  # atno 11005 bound_to 11000
  146.3432  139.9250  142.8761 LP  0  0  0  0  0  0  0  0  0  0  0  0  # atno 17320 bound_to 7965
  145.2279  140.9961  143.4008 LP  0  0  0  0  0  0  0  0  0  0  0  0  # atno 17321 bound_to 7965
  140.6765  143.2307  151.5494 LP  0  0  0  0  0  0  0  0  0  0  0  0  # atno 17342 bound_to 10162
  139.5476  144.2480  152.1471 LP  0  0  0  0  0  0  0  0  0  0  0  0  # atno 17343 bound_to 10162
  157.1690  131.0364  151.2805 LP  0  0  0  0  0  0  0  0  0  0  0  0  # atno 17370 bound_to 10713
  157.4246  130.7456  149.6940 LP  0  0  0  0  0  0  0  0  0  0  0  0  # atno 17371 bound_to 10713
  141.2216  133.7259  156.8772 LP  0  0  0  0  0  0  0  0  0  0  0  0  # atno 17394 bound_to 11000
  140.1725  134.9090  157.2850 LP  0  0  0  0  0  0  0  0  0  0  0  0  # atno 17395 bound_to 11000

$$$$
