AV-unprocessed.smi:1570|AV-procd|sdf|6322|dock3
  -GOLD-   22720 6533D 1   1.00000     0.00000
 Structure written by MMmdl.
 52 54  0  0  0  0  0  0  0  0  2 V2000
  155.3582  140.7302  159.7459 C   0  0  0  0  0  0  0  0  0  0  0  0
  154.0138  140.9411  160.4538 C   0  0  0  0  0  0  0  0  0  0  0  0
  153.0099  141.4668  159.5323 N   0  0  0  0  0  0  0  0  0  0  0  0
  152.5790  140.8811  158.3906 C   0  0  0  0  0  0  0  0  0  0  0  0
  152.9549  139.7961  157.9471 O   0  0  0  0  0  0  0  0  0  0  0  0
  151.6911  141.7148  157.7986 N   0  0  0  0  0  0  0  0  0  0  0  0
  151.0116  141.5039  156.5208 C   0  0  0  0  0  0  0  0  0  0  0  0
  149.4806  141.4184  156.6865 C   0  0  2  0  0  0  0  0  0  0  0  0
  149.1854  140.2201  157.3749 O   0  0  0  0  0  0  0  0  0  0  0  0
  148.7211  141.4137  155.3416 C   0  0  0  0  0  0  0  0  0  0  0  0
  147.4531  142.1831  155.3976 N   0  3  1  0  0  0  0  0  0  0  0  0
  146.9835  142.6459  154.0693 C   0  0  0  0  0  0  0  0  0  0  0  0
  145.7170  143.5076  154.2171 C   0  0  1  0  0  0  0  0  0  0  0  0
  145.1511  143.9319  152.8574 C   0  0  0  0  0  0  0  0  0  0  0  0
  144.7118  142.7608  154.8974 O   0  0  0  0  0  0  0  0  0  0  0  0
  145.0886  142.2860  156.1898 C   0  0  2  0  0  0  0  0  0  0  0  0
  145.1730  143.4203  157.2263 C   0  0  0  0  0  0  0  0  0  0  0  0
  146.3748  141.4421  156.0933 C   0  0  0  0  0  0  0  0  0  0  0  0
  151.5605  142.8727  158.5787 C   0  0  0  0  0  0  0  0  0  0  0  0
  150.7844  144.0299  158.3927 C   0  0  0  0  0  0  0  0  0  0  0  0
  150.8880  145.0425  159.3749 C   0  0  0  0  0  0  0  0  0  0  0  0
  151.7447  144.8838  160.4951 C   0  0  0  0  0  0  0  0  0  0  0  0
  152.5156  143.7088  160.6574 C   0  0  0  0  0  0  0  0  0  0  0  0
  152.3915  142.7176  159.6683 C   0  0  0  0  0  0  0  0  0  0  0  0
  156.1032  140.3374  160.4377 H   0  0  0  0  0  0  0  0  0  0  0  0
  155.7426  141.6668  159.3408 H   0  0  0  0  0  0  0  0  0  0  0  0
  155.2641  140.0217  158.9223 H   0  0  0  0  0  0  0  0  0  0  0  0
  153.6685  139.9986  160.8812 H   0  0  0  0  0  0  0  0  0  0  0  0
  154.1356  141.6265  161.2928 H   0  0  0  0  0  0  0  0  0  0  0  0
  151.2744  142.2941  155.8153 H   0  0  0  0  0  0  0  0  0  0  0  0
  151.3925  140.5784  156.0864 H   0  0  0  0  0  0  0  0  0  0  0  0
  149.1519  142.2460  157.3137 H   0  0  0  0  0  0  0  0  0  0  0  0
  148.2566  140.1932  157.5503 H   0  0  0  0  0  0  0  0  0  0  0  0
  149.3353  141.8242  154.5400 H   0  0  0  0  0  0  0  0  0  0  0  0
  148.5157  140.3783  155.0642 H   0  0  0  0  0  0  0  0  0  0  0  0
  147.7578  143.2287  153.5722 H   0  0  0  0  0  0  0  0  0  0  0  0
  146.7798  141.7822  153.4340 H   0  0  0  0  0  0  0  0  0  0  0  0
  145.9516  144.4105  154.7812 H   0  0  0  0  0  0  0  0  0  0  0  0
  145.8759  144.5227  152.2970 H   0  0  0  0  0  0  0  0  0  0  0  0
  144.2534  144.5382  152.9806 H   0  0  0  0  0  0  0  0  0  0  0  0
  144.8860  143.0651  152.2513 H   0  0  0  0  0  0  0  0  0  0  0  0
  144.2836  141.6256  156.5136 H   0  0  0  0  0  0  0  0  0  0  0  0
  145.3292  143.0176  158.2272 H   0  0  0  0  0  0  0  0  0  0  0  0
  144.2485  143.9978  157.2458 H   0  0  0  0  0  0  0  0  0  0  0  0
  145.9934  144.1081  157.0234 H   0  0  0  0  0  0  0  0  0  0  0  0
  146.1691  140.5207  155.5462 H   0  0  0  0  0  0  0  0  0  0  0  0
  146.7022  141.1493  157.0917 H   0  0  0  0  0  0  0  0  0  0  0  0
  150.1362  144.1464  157.5369 H   0  0  0  0  0  0  0  0  0  0  0  0
  150.3089  145.9483  159.2707 H   0  0  0  0  0  0  0  0  0  0  0  0
  151.8096  145.6700  161.2328 H   0  0  0  0  0  0  0  0  0  0  0  0
  153.1714  143.5840  161.5063 H   0  0  0  0  0  0  0  0  0  0  0  0
  147.6415  143.0043  155.9552 H   0  0  0  0  0  0  0  0  0  0  0  0
  1  2  1  0  0  0  0
  1 25  1  0  0  0  0
  1 26  1  0  0  0  0
  1 27  1  0  0  0  0
  2  3  1  0  0  0  0
  2 28  1  0  0  0  0
  2 29  1  0  0  0  0
  3 24  1  0  0  0  0
  3  4  1  0  0  0  0
  4  5  2  0  0  0  0
  4  6  1  0  0  0  0
  6  7  1  0  0  0  0
  6 19  1  0  0  0  0
  7  8  1  0  0  0  0
  7 30  1  0  0  0  0
  7 31  1  0  0  0  0
  8  9  1  0  0  0  0
  8 10  1  0  0  0  0
  8 32  1  0  0  0  0
  9 33  1  0  0  0  0
 10 11  1  0  0  0  0
 10 34  1  0  0  0  0
 10 35  1  0  0  0  0
 11 18  1  0  0  0  0
 11 12  1  0  0  0  0
 11 52  1  0  0  0  0
 12 13  1  0  0  0  0
 12 36  1  0  0  0  0
 12 37  1  0  0  0  0
 13 14  1  0  0  0  0
 13 15  1  0  0  0  0
 13 38  1  0  0  0  0
 14 39  1  0  0  0  0
 14 40  1  0  0  0  0
 14 41  1  0  0  0  0
 15 16  1  0  0  0  0
 16 17  1  0  0  0  0
 16 18  1  0  0  0  0
 16 42  1  0  0  0  0
 17 43  1  0  0  0  0
 17 44  1  0  0  0  0
 17 45  1  0  0  0  0
 18 46  1  0  0  0  0
 18 47  1  0  0  0  0
 19 24  2  0  0  0  0
 19 20  1  0  0  0  0
 20 21  2  0  0  0  0
 20 48  1  0  0  0  0
 21 22  1  0  0  0  0
 21 49  1  0  0  0  0
 22 23  2  0  0  0  0
 22 50  1  0  0  0  0
 23 24  1  0  0  0  0
 23 51  1  0  0  0  0
M  CHG  1  11   1
M  END
> <s_m_source_file>
AV-unprocessed.smi

> <i_m_source_file_index>
1570

> <i_lp_mmshare_version>
43012

> <i_f3d_flags>
0

> <s_epik_input>
W2NIXTFbY0hdW2NIXVtjSF1jKGMxMiluKFtDSDJdW0NIM10pYyg9TyluMltDSDJdW0NASF0oW09IXSlbQ0gyXU4zW0NIMl1bQ0BASF0oW0NIM10pT1tDQEBIXShbQ0gzXSlbQ0gyXTM=

> <s_epik_cmdline>
J2VwaWtfcHl0aG9uJywgJy1waCcsICc3LjAnLCAnLXRuJywgJzgnLCAnLW1hJywgJzIwMCcsICctbWV0YWxfYmluZGluZycsICctaW1hZScsICc8aW5maWxlLm1hZT4nLCAnLW9tYWUnLCAnPG91dGZpbGUubWFlPic=

> <r_epik_Ionization_Penalty>
0.706332

> <r_epik_Ionization_Penalty_Charging>
0.706318

> <r_epik_Ionization_Penalty_Neutral>
1.42224e-05

> <r_epik_State_Penalty>
0.729493

> <r_epik_Charging_Adjusted_Penalty>
1.43581

> <i_epik_Tot_Q>
1

> <i_epik_Tot_abs_Q>
1

> <r_epik_Metal_State_Penalty>
0.729493

> <b_epik_Metal_Only>
0

> <s_lp_Force_Field>
OPLS_2005

> <r_lp_Energy>
53.4907

> <b_lp_Chiralities_Consistent>
1

> <s_lp_Variant>
AV-unprocessed.smi:1570-11

> <Gold.Version>
5.8.1

> <Gold.Id.Protein>
6NUR|6NUR_protein|mol2

> <Gold.PLP.Fitness>
55.0986

> <Gold.PLP.PLP>
-48.9397

> <Gold.PLP.part.hbond>
-2.0000

> <Gold.PLP.part.metal>
0.0000

> <Gold.PLP.part.buried>
-5.7570

> <Gold.PLP.part.nonpolar>
-41.9485

> <Gold.PLP.part.repulsive>
0.2710

> <Gold.PLP.ligand.clash>
0.0000

> <Gold.PLP.ligand.torsion>
0.7669

> <Gold.PLP.Chemscore.Hbond>
2.5360

> <Gold.PLP.Chemscore.CHOScore>
0.0000

> <Gold.PLP.Chemscore.Metal>
0.0000

> <Gold.Chemscore.Hbonds>
donor molecule, donor type, donor heavy atom, donor atom, acceptor molecule, acceptor atom, score
      L1  H    11    52       P1  8028  1.07
      P1  H  7997  8008       L1     5  1.00

> <Gold.PLP.Chemscore.Internal.Correction>
0.0846

> <Gold.Rescore>
     Score         DG    S(hbond)    S(metal)    S(lipo)     H(rot)  DE(clash)    DE(int)     intcor
     18.60     -19.61       1.13        0.00     135.00       2.13       0.28       0.73       ----

> <Gold.Chemscore.Fitness>
18.5960

> <Gold.Chemscore.DG>
-19.6087

> <Gold.Chemscore.ZeroCoef>
-5.4800

> <Gold.Chemscore.Hbond>
1.1340

> <Gold.Chemscore.Metal>
0.0000

> <Gold.Chemscore.Lipo>
134.9965

> <Gold.Chemscore.Internal_Hbond>
0.0000

> <Gold.Chemscore.DEClash>
0.2816

> <Gold.Chemscore.DEInternal>
0.7311

> <Gold.Chemscore.Rot>
2.1303

> <Gold.Chemscore.Internal.Correction>
   9.000000E+99

> <Gold.Chemscore.Hbonds>
donor molecule, donor type, donor heavy atom, donor atom, acceptor molecule, acceptor atom, score
      L1  H    11    52       P1  8028  0.14
      P1  H  7997  8008       L1     5  0.70

> <Gold.Chemscore.Hbond.Weighted>
-3.7877

> <Gold.Chemscore.Metal.Weighted>
-0.0000

> <Gold.Chemscore.Lipo.Weighted>
-15.7946

> <Gold.Chemscore.Internal_Hbond.Weighted>
0.0000

> <Gold.Chemscore.DEClash.Weighted>
0.2816

> <Gold.Chemscore.DEInternal.Weighted>
0.7311

> <Gold.Chemscore.Rot.Weighted>
5.4535

> <Gold.Chemscore.Internal.Correction.Weighted>
   9.000000E+99

> <Gold.Protein.RotatedTorsions>
[ 6907 6896 6895 6894 ] final   15.15 input  -60.11 | X-H torsion
[ 7974 7965 7964 7962 ] final  -32.94 input  175.53 | X-H torsion
[ 8008 7997 7996 7995 ] final  -73.40 input   59.86 | X-H torsion
[ 10167 10162 10161 10158 ] final  -70.90 input  -65.29 | X-H torsion
[ 10718 10713 10712 10709 ] final   28.93 input   66.30 | X-H torsion
[ 10763 10752 10751 10750 ] final -173.61 input  -60.55 | X-H torsion
[ 11005 11000 10999 10996 ] final  143.03 input  -57.11 | X-H torsion

> <Gold.Protein.ActiveResidues>
 VAL166  LYS551  ARG553  GLY616  TRP617  ASP618  TYR619  PRO620  LYS621  CYS622 
 ASP623  PHE694  ASN695  SER759  ASP760  ASP761  ALA762  ILE779  LEU786  VAL792 
 PHE793  MET794  SER795  GLU796  ALA797  LYS798  CYS799  TRP800  GLU811  SER814 

> <Gold.Protein.RotatedAtoms>
  151.8136  135.0673  160.0415 H   0  0  0  0  0  0  0  0  0  0  0  0  # atno 6907 bound_to 6896
  152.3002  133.5644  159.5622 H   0  0  0  0  0  0  0  0  0  0  0  0  # atno 6908 bound_to 6896
  150.7270  134.0218  159.3746 H   0  0  0  0  0  0  0  0  0  0  0  0  # atno 6909 bound_to 6896
  146.0950  140.5855  142.8847 H   0  0  0  0  0  0  0  0  0  0  0  0  # atno 7974 bound_to 7965
  154.5244  140.0780  156.8231 H   0  0  0  0  0  0  0  0  0  0  0  0  # atno 8008 bound_to 7997
  155.3507  140.3412  155.4221 H   0  0  0  0  0  0  0  0  0  0  0  0  # atno 8009 bound_to 7997
  156.1716  140.1621  156.8424 H   0  0  0  0  0  0  0  0  0  0  0  0  # atno 8010 bound_to 7997
  140.5316  143.2321  151.7252 H   0  0  0  0  0  0  0  0  0  0  0  0  # atno 10167 bound_to 10162
  157.2399  130.7064  149.6353 H   0  0  0  0  0  0  0  0  0  0  0  0  # atno 10718 bound_to 10713
  154.6058  135.2859  155.0486 H   0  0  0  0  0  0  0  0  0  0  0  0  # atno 10763 bound_to 10752
  154.1734  135.6469  153.5019 H   0  0  0  0  0  0  0  0  0  0  0  0  # atno 10764 bound_to 10752
  153.0175  135.5406  154.6794 H   0  0  0  0  0  0  0  0  0  0  0  0  # atno 10765 bound_to 10752
  140.0522  134.9249  157.1037 H   0  0  0  0  0  0  0  0  0  0  0  0  # atno 11005 bound_to 11000
  144.7388  140.4886  143.6884 LP  0  0  0  0  0  0  0  0  0  0  0  0  # atno 17320 bound_to 7965
  145.5965  139.1500  143.3153 LP  0  0  0  0  0  0  0  0  0  0  0  0  # atno 17321 bound_to 7965
  139.4956  144.4105  152.0085 LP  0  0  0  0  0  0  0  0  0  0  0  0  # atno 17342 bound_to 10162
  140.3208  144.3430  150.6010 LP  0  0  0  0  0  0  0  0  0  0  0  0  # atno 17343 bound_to 10162
  155.9670  130.4461  150.5529 LP  0  0  0  0  0  0  0  0  0  0  0  0  # atno 17370 bound_to 10713
  157.3389  131.0713  151.1803 LP  0  0  0  0  0  0  0  0  0  0  0  0  # atno 17371 bound_to 10713
  140.3900  134.2195  155.7166 LP  0  0  0  0  0  0  0  0  0  0  0  0  # atno 17394 bound_to 11000
  141.1935  133.8148  157.0794 LP  0  0  0  0  0  0  0  0  0  0  0  0  # atno 17395 bound_to 11000

$$$$
