AV-unprocessed.smi:40|AV-procd|sdf|371|dock8
  -GOLD-   2262016213D 1   1.00000     0.00000
 Structure written by MMmdl.
 47 48  0  0  0  0  0  0  0  0  1 V2000
  151.7333  145.1902  160.7832 C   0  0  0  0  0  0  0  0  0  0  0  0
  151.2438  143.9073  161.4641 C   0  0  0  0  0  0  0  0  0  0  0  0
  152.3456  142.8443  161.5812 C   0  0  0  0  0  0  0  0  0  0  0  0
  152.7721  142.2851  160.2175 C   0  0  0  0  0  0  0  0  0  0  0  0
  154.1764  141.6636  160.2566 C   0  0  0  0  0  0  0  0  0  0  0  0
  154.2267  140.5978  161.1952 O   0  0  0  0  0  0  0  0  0  0  0  0
  154.4678  139.3308  160.7960 C   0  0  0  0  0  0  0  0  0  0  0  0
  154.9259  139.0325  159.6933 O   0  0  0  0  0  0  0  0  0  0  0  0
  154.1501  138.3653  161.8360 N   0  0  0  0  0  0  0  0  0  0  0  0
  154.2532  137.0133  161.8232 C   0  0  0  0  0  0  0  0  0  0  0  0
  154.3401  136.3079  160.7070 N   0  0  0  0  0  0  0  0  0  0  0  0
  154.4648  134.9458  160.6682 C   0  0  0  0  0  0  0  0  0  0  0  0
  154.4804  134.3517  159.5913 O   0  0  0  0  0  0  0  0  0  0  0  0
  154.5619  134.2593  161.9034 N   0  0  0  0  0  0  0  0  0  0  0  0
  154.6628  132.7420  161.8844 C   0  0  2  0  0  0  0  0  0  0  0  0
  153.4700  132.1845  162.3647 O   0  0  0  0  0  0  0  0  0  0  0  0
  153.6355  131.6716  163.6839 C   0  0  2  0  0  0  0  0  0  0  0  0
  153.2976  132.7477  164.7351 C   0  0  0  0  0  0  0  0  0  0  0  0
  155.0888  131.1933  163.6772 C   0  0  2  0  0  0  0  0  0  0  0  0
  155.6498  131.1348  164.9744 O   0  0  0  0  0  0  0  0  0  0  0  0
  155.7974  132.2180  162.8003 C   0  0  1  0  0  0  0  0  0  0  0  0
  156.8179  131.5768  162.0615 O   0  0  0  0  0  0  0  0  0  0  0  0
  154.4381  134.9800  163.0851 C   0  0  0  0  0  0  0  0  0  0  0  0
  154.3041  136.3239  163.0939 C   0  0  0  0  0  0  0  0  0  0  0  0
  154.2136  136.9966  164.2544 F   0  0  0  0  0  0  0  0  0  0  0  0
  154.7855  132.4896  160.8295 H   0  0  0  0  0  0  0  0  0  0  0  0
  152.9587  130.8279  163.8240 H   0  0  0  0  0  0  0  0  0  0  0  0
  155.1296  130.2039  163.2177 H   0  0  0  0  0  0  0  0  0  0  0  0
  156.2026  133.0316  163.4046 H   0  0  0  0  0  0  0  0  0  0  0  0
  150.9305  145.9247  160.7147 H   0  0  0  0  0  0  0  0  0  0  0  0
  152.0874  144.9887  159.7720 H   0  0  0  0  0  0  0  0  0  0  0  0
  152.5524  145.6437  161.3423 H   0  0  0  0  0  0  0  0  0  0  0  0
  150.8636  144.1513  162.4567 H   0  0  0  0  0  0  0  0  0  0  0  0
  150.4017  143.5018  160.9019 H   0  0  0  0  0  0  0  0  0  0  0  0
  153.2137  143.2747  162.0822 H   0  0  0  0  0  0  0  0  0  0  0  0
  151.9964  142.0280  162.2147 H   0  0  0  0  0  0  0  0  0  0  0  0
  152.0543  141.5318  159.8910 H   0  0  0  0  0  0  0  0  0  0  0  0
  152.7434  143.0828  159.4744 H   0  0  0  0  0  0  0  0  0  0  0  0
  154.4821  141.3272  159.2649 H   0  0  0  0  0  0  0  0  0  0  0  0
  154.9007  142.4178  160.5651 H   0  0  0  0  0  0  0  0  0  0  0  0
  153.7872  138.7811  162.6818 H   0  0  0  0  0  0  0  0  0  0  0  0
  153.3675  132.3459  165.7462 H   0  0  0  0  0  0  0  0  0  0  0  0
  152.2782  133.1107  164.6041 H   0  0  0  0  0  0  0  0  0  0  0  0
  153.9699  133.6035  164.6748 H   0  0  0  0  0  0  0  0  0  0  0  0
  156.5331  131.4689  164.9316 H   0  0  0  0  0  0  0  0  0  0  0  0
  157.1864  130.8914  162.5991 H   0  0  0  0  0  0  0  0  0  0  0  0
  154.4492  134.4839  164.0433 H   0  0  0  0  0  0  0  0  0  0  0  0
  1  2  1  0  0  0  0
  1 30  1  0  0  0  0
  1 31  1  0  0  0  0
  1 32  1  0  0  0  0
  2  3  1  0  0  0  0
  2 33  1  0  0  0  0
  2 34  1  0  0  0  0
  3  4  1  0  0  0  0
  3 35  1  0  0  0  0
  3 36  1  0  0  0  0
  4  5  1  0  0  0  0
  4 37  1  0  0  0  0
  4 38  1  0  0  0  0
  5  6  1  0  0  0  0
  5 39  1  0  0  0  0
  5 40  1  0  0  0  0
  6  7  1  0  0  0  0
  7  8  2  0  0  0  0
  7  9  1  0  0  0  0
  9 10  1  0  0  0  0
  9 41  1  0  0  0  0
 10 24  1  0  0  0  0
 10 11  2  0  0  0  0
 11 12  1  0  0  0  0
 12 13  2  0  0  0  0
 12 14  1  0  0  0  0
 14 15  1  0  0  0  0
 14 23  1  0  0  0  0
 15 26  1  0  0  0  0
 15 21  1  0  0  0  0
 15 16  1  0  0  0  0
 16 17  1  0  0  0  0
 17 27  1  0  0  0  0
 17 18  1  0  0  0  0
 17 19  1  0  0  0  0
 18 42  1  0  0  0  0
 18 43  1  0  0  0  0
 18 44  1  0  0  0  0
 19 28  1  0  0  0  0
 19 20  1  0  0  0  0
 19 21  1  0  0  0  0
 20 45  1  0  0  0  0
 21 29  1  0  0  0  0
 21 22  1  0  0  0  0
 22 46  1  0  0  0  0
 23 24  2  0  0  0  0
 23 47  1  0  0  0  0
 24 25  1  0  0  0  0
M  END
> <s_m_source_file>
AV-unprocessed.smi

> <i_m_source_file_index>
40

> <i_lp_mmshare_version>
43012

> <i_f3d_flags>
0

> <s_epik_input>
W0NIM11bQ0gyXVtDSDJdW0NIMl1bQ0gyXU9DKD1PKVtOSF1jMW5jKD1PKW4oW2NIXWMxRilbQ0BASF0yT1tDQEhdKFtDSDNdKVtDQEBIXShbT0hdKVtDQEhdMltPSF0=

> <s_epik_cmdline>
J2VwaWtfcHl0aG9uJywgJy1waCcsICc3LjAnLCAnLXRuJywgJzgnLCAnLW1hJywgJzIwMCcsICctbWV0YWxfYmluZGluZycsICctaW1hZScsICc8aW5maWxlLm1hZT4nLCAnLW9tYWUnLCAnPG91dGZpbGUubWFlPic=

> <r_lp_tautomer_probability>
1

> <r_epik_Ionization_Penalty>
2.29506e-06

> <r_epik_Ionization_Penalty_Charging>
8.26867e-09

> <r_epik_Ionization_Penalty_Neutral>
2.2868e-06

> <r_epik_State_Penalty>
-0

> <r_epik_Charging_Adjusted_Penalty>
8.26867e-09

> <i_epik_Tot_Q>
0

> <i_epik_Tot_abs_Q>
0

> <r_epik_Metal_State_Penalty>
-0

> <b_epik_Metal_Only>
0

> <s_epik_Chemistry_Notes>
This compound has an ester and may undergo hydrolysis at high or low pH. This compound contains an acetal/aminal-like group ( X-CH(R)-Y where X, Y are N, S, or O) that may be acid/base labile, releasing an aldehyde.

> <s_lp_Force_Field>
OPLS_2005

> <r_lp_Energy>
32.726

> <b_lp_Chiralities_Consistent>
1

> <s_lp_Variant>
AV-unprocessed.smi:40-5

> <Gold.Version>
5.8.1

> <Gold.Id.Protein>
6NUR|6NUR_protein|mol2

> <Gold.PLP.Fitness>
45.1135

> <Gold.PLP.PLP>
-43.8317

> <Gold.PLP.part.hbond>
-1.0000

> <Gold.PLP.part.metal>
0.0000

> <Gold.PLP.part.buried>
-5.3648

> <Gold.PLP.part.nonpolar>
-37.9150

> <Gold.PLP.part.repulsive>
0.0029

> <Gold.PLP.ligand.clash>
0.0000

> <Gold.PLP.ligand.torsion>
0.9198

> <Gold.PLP.Chemscore.Hbond>
1.0000

> <Gold.PLP.Chemscore.CHOScore>
0.0000

> <Gold.PLP.Chemscore.Metal>
0.0000

> <Gold.Chemscore.Hbonds>
donor molecule, donor type, donor heavy atom, donor atom, acceptor molecule, acceptor atom, score
      P1  H  6896  6909       L1    13  0.25

> <Gold.PLP.Chemscore.Internal.Correction>
0.1215

> <Gold.Rescore>
     Score         DG    S(hbond)    S(metal)    S(lipo)     H(rot)  DE(clash)    DE(int)     intcor
      7.48     -10.67       0.82        0.00     101.74       3.70       0.05       3.15       ----

> <Gold.Chemscore.Fitness>
7.4761

> <Gold.Chemscore.DG>
-10.6731

> <Gold.Chemscore.ZeroCoef>
-5.4800

> <Gold.Chemscore.Hbond>
0.8235

> <Gold.Chemscore.Metal>
0.0000

> <Gold.Chemscore.Lipo>
101.7396

> <Gold.Chemscore.Internal_Hbond>
0.0000

> <Gold.Chemscore.DEClash>
0.0505

> <Gold.Chemscore.DEInternal>
3.1465

> <Gold.Chemscore.Rot>
3.6957

> <Gold.Chemscore.Internal.Correction>
   9.000000E+99

> <Gold.Chemscore.Hbond.Weighted>
-2.7505

> <Gold.Chemscore.Metal.Weighted>
-0.0000

> <Gold.Chemscore.Lipo.Weighted>
-11.9035

> <Gold.Chemscore.Internal_Hbond.Weighted>
0.0000

> <Gold.Chemscore.DEClash.Weighted>
0.0505

> <Gold.Chemscore.DEInternal.Weighted>
3.1465

> <Gold.Chemscore.Rot.Weighted>
9.4610

> <Gold.Chemscore.Internal.Correction.Weighted>
   9.000000E+99

> <Gold.Protein.RotatedTorsions>
[ 6907 6896 6895 6894 ] final -147.54 input  -60.11 | X-H torsion
[ 7974 7965 7964 7962 ] final   71.01 input  175.53 | X-H torsion
[ 8008 7997 7996 7995 ] final   -3.52 input   59.86 | X-H torsion
[ 10167 10162 10161 10158 ] final   -9.08 input  -65.29 | X-H torsion
[ 10718 10713 10712 10709 ] final  -40.94 input   66.30 | X-H torsion
[ 10763 10752 10751 10750 ] final -149.66 input  -60.55 | X-H torsion
[ 11005 11000 10999 10996 ] final  -34.11 input  -57.11 | X-H torsion

> <Gold.Protein.ActiveResidues>
 VAL166  LYS551  ARG553  GLY616  TRP617  ASP618  TYR619  PRO620  LYS621  CYS622 
 ASP623  PHE694  ASN695  SER759  ASP760  ASP761  ALA762  ILE779  LEU786  VAL792 
 PHE793  MET794  SER795  GLU796  ALA797  LYS798  CYS799  TRP800  GLU811  SER814 

> <Gold.Protein.RotatedAtoms>
  151.1572  133.4869  159.2594 H   0  0  0  0  0  0  0  0  0  0  0  0  # atno 6907 bound_to 6896
  151.1492  135.0218  159.8671 H   0  0  0  0  0  0  0  0  0  0  0  0  # atno 6908 bound_to 6896
  152.5463  134.1457  159.8551 H   0  0  0  0  0  0  0  0  0  0  0  0  # atno 6909 bound_to 6896
  145.7711  139.2843  143.1320 H   0  0  0  0  0  0  0  0  0  0  0  0  # atno 7974 bound_to 7965
  154.6240  140.2507  155.7514 H   0  0  0  0  0  0  0  0  0  0  0  0  # atno 8008 bound_to 7997
  156.2443  140.2920  156.0481 H   0  0  0  0  0  0  0  0  0  0  0  0  # atno 8009 bound_to 7997
  155.1851  140.0390  157.2880 H   0  0  0  0  0  0  0  0  0  0  0  0  # atno 8010 bound_to 7997
  140.7077  143.5897  150.8906 H   0  0  0  0  0  0  0  0  0  0  0  0  # atno 10167 bound_to 10162
  156.2758  130.4211  149.8389 H   0  0  0  0  0  0  0  0  0  0  0  0  # atno 10718 bound_to 10713
  154.8164  135.3303  154.7163 H   0  0  0  0  0  0  0  0  0  0  0  0  # atno 10763 bound_to 10752
  153.7803  135.6919  153.4894 H   0  0  0  0  0  0  0  0  0  0  0  0  # atno 10764 bound_to 10752
  153.1984  135.4525  155.0184 H   0  0  0  0  0  0  0  0  0  0  0  0  # atno 10765 bound_to 10752
  140.9689  133.7121  156.1492 H   0  0  0  0  0  0  0  0  0  0  0  0  # atno 11005 bound_to 11000
  146.0169  140.8384  142.9943 LP  0  0  0  0  0  0  0  0  0  0  0  0  # atno 17320 bound_to 7965
  144.6812  140.2571  143.7324 LP  0  0  0  0  0  0  0  0  0  0  0  0  # atno 17321 bound_to 7965
  139.9623  143.6150  152.2999 LP  0  0  0  0  0  0  0  0  0  0  0  0  # atno 17342 bound_to 10162
  139.6707  144.7661  151.1788 LP  0  0  0  0  0  0  0  0  0  0  0  0  # atno 17343 bound_to 10162
  156.5854  130.8483  151.3394 LP  0  0  0  0  0  0  0  0  0  0  0  0  # atno 17370 bound_to 10713
  157.7299  130.9677  150.1807 LP  0  0  0  0  0  0  0  0  0  0  0  0  # atno 17371 bound_to 10713
  140.7357  134.4205  157.5561 LP  0  0  0  0  0  0  0  0  0  0  0  0  # atno 17394 bound_to 11000
  139.8905  134.8803  156.2367 LP  0  0  0  0  0  0  0  0  0  0  0  0  # atno 17395 bound_to 11000

$$$$
