AV-unprocessed.smi:69|AV-procd|sdf|653|dock8
  -GOLD-   2262016553D 1   1.00000     0.00000
 Structure written by MMmdl.
 32 34  0  0  0  0  0  0  0  0  1 V2000
  153.7272  140.3453  160.7008 N   0  0  0  0  0  0  0  0  0  0  0  0
  153.0289  141.1958  159.9360 C   0  0  0  0  0  0  0  0  0  0  0  0
  153.3172  142.5158  160.0151 N   0  0  0  0  0  0  0  0  0  0  0  0
  152.6341  143.3840  159.2623 C   0  0  0  0  0  0  0  0  0  0  0  0
  151.6517  143.1411  158.3911 N   0  0  0  0  0  0  0  0  0  0  0  0
  151.3612  141.8096  158.3114 C   0  0  0  0  0  0  0  0  0  0  0  0
  152.0033  140.7775  159.0507 C   0  0  0  0  0  0  0  0  0  0  0  0
  151.4536  139.5464  158.7218 N   0  0  0  0  0  0  0  0  0  0  0  0
  150.5376  139.8388  157.8382 C   0  0  0  0  0  0  0  0  0  0  0  0
  150.4096  141.1769  157.5340 N   0  0  0  0  0  0  0  0  0  0  0  0
  149.4457  141.7957  156.5646 C   0  0  2  0  0  0  0  0  0  0  0  0
  148.1617  141.3001  156.8018 O   0  0  0  0  0  0  0  0  0  0  0  0
  147.6589  140.6283  155.6481 C   0  0  1  0  0  0  0  0  0  0  0  0
  146.1260  140.7382  155.5708 C   0  0  0  0  0  0  0  0  0  0  0  0
  145.6310  139.9095  154.5409 O   0  0  0  0  0  0  0  0  0  0  0  0
  148.4295  141.2619  154.4809 C   0  0  1  0  0  0  0  0  0  0  0  0
  147.8342  142.4797  154.0692 O   0  0  0  0  0  0  0  0  0  0  0  0
  149.7987  141.5226  155.0881 C   0  0  2  0  0  0  0  0  0  0  0  0
  150.6520  140.4082  154.8942 O   0  0  0  0  0  0  0  0  0  0  0  0
  149.4541  142.8593  156.8068 H   0  0  0  0  0  0  0  0  0  0  0  0
  147.9492  139.5782  155.7004 H   0  0  0  0  0  0  0  0  0  0  0  0
  148.4746  140.5998  153.6149 H   0  0  0  0  0  0  0  0  0  0  0  0
  150.2874  142.3983  154.6588 H   0  0  0  0  0  0  0  0  0  0  0  0
  153.5302  139.3557  160.6604 H   0  0  0  0  0  0  0  0  0  0  0  0
  154.4502  140.6955  161.3123 H   0  0  0  0  0  0  0  0  0  0  0  0
  152.9132  144.4212  159.3739 H   0  0  0  0  0  0  0  0  0  0  0  0
  149.9218  139.0782  157.3808 H   0  0  0  0  0  0  0  0  0  0  0  0
  145.6593  140.4782  156.5215 H   0  0  0  0  0  0  0  0  0  0  0  0
  145.8346  141.7616  155.3323 H   0  0  0  0  0  0  0  0  0  0  0  0
  144.9948  140.3977  154.0410 H   0  0  0  0  0  0  0  0  0  0  0  0
  148.2505  143.1894  154.5338 H   0  0  0  0  0  0  0  0  0  0  0  0
  150.9578  140.1154  155.7391 H   0  0  0  0  0  0  0  0  0  0  0  0
  1  2  1  0  0  0  0
  1 24  1  0  0  0  0
  1 25  1  0  0  0  0
  2  7  1  0  0  0  0
  2  3  2  0  0  0  0
  3  4  1  0  0  0  0
  4  5  2  0  0  0  0
  4 26  1  0  0  0  0
  5  6  1  0  0  0  0
  6 10  1  0  0  0  0
  6  7  2  0  0  0  0
  7  8  1  0  0  0  0
  8  9  2  0  0  0  0
  9 10  1  0  0  0  0
  9 27  1  0  0  0  0
 10 11  1  0  0  0  0
 11 20  1  0  0  0  0
 11 18  1  0  0  0  0
 11 12  1  0  0  0  0
 12 13  1  0  0  0  0
 13 21  1  0  0  0  0
 13 14  1  0  0  0  0
 13 16  1  0  0  0  0
 14 15  1  0  0  0  0
 14 28  1  0  0  0  0
 14 29  1  0  0  0  0
 15 30  1  0  0  0  0
 16 22  1  0  0  0  0
 16 17  1  0  0  0  0
 16 18  1  0  0  0  0
 17 31  1  0  0  0  0
 18 23  1  0  0  0  0
 18 19  1  0  0  0  0
 19 32  1  0  0  0  0
M  END
> <s_m_source_file>
AV-unprocessed.smi

> <i_m_source_file_index>
69

> <i_lp_mmshare_version>
43012

> <i_f3d_flags>
0

> <s_epik_input>
bjFbY0hdbmMoW05IMl0pYyhjMTIpbltjSF1uMltDQEBIXTNPW0NASF0oW0NIMl1bT0hdKVtDQEBIXShbT0hdKVtDQEhdM1tPSF0=

> <s_epik_cmdline>
J2VwaWtfcHl0aG9uJywgJy1waCcsICc3LjAnLCAnLXRuJywgJzgnLCAnLW1hJywgJzIwMCcsICctbWV0YWxfYmluZGluZycsICctaW1hZScsICc8aW5maWxlLm1hZT4nLCAnLW9tYWUnLCAnPG91dGZpbGUubWFlPic=

> <r_lp_tautomer_probability>
1

> <r_epik_Ionization_Penalty>
0.000428445

> <r_epik_Ionization_Penalty_Charging>
0

> <r_epik_Ionization_Penalty_Neutral>
0.000428445

> <r_epik_State_Penalty>
-0

> <r_epik_Charging_Adjusted_Penalty>
0

> <i_epik_Tot_Q>
0

> <i_epik_Tot_abs_Q>
0

> <r_epik_Metal_State_Penalty>
-0

> <b_epik_Metal_Only>
0

> <s_epik_Chemistry_Notes>
This compound contains an acetal/aminal-like group ( X-CH(R)-Y where X, Y are N, S, or O) that may be acid/base labile, releasing an aldehyde.

> <s_lp_Force_Field>
OPLS_2005

> <r_lp_Energy>
40.109

> <b_lp_Chiralities_Consistent>
1

> <s_lp_Variant>
AV-unprocessed.smi:69-11

> <Gold.Version>
5.8.1

> <Gold.Id.Protein>
6NUR|6NUR_protein|mol2

> <Gold.PLP.Fitness>
35.8821

> <Gold.PLP.PLP>
-27.5351

> <Gold.PLP.part.hbond>
-4.0462

> <Gold.PLP.part.metal>
0.0000

> <Gold.PLP.part.buried>
-4.3837

> <Gold.PLP.part.nonpolar>
-19.1624

> <Gold.PLP.part.repulsive>
0.1870

> <Gold.PLP.ligand.clash>
0.0000

> <Gold.PLP.ligand.torsion>
0.3024

> <Gold.PLP.Chemscore.Hbond>
2.9833

> <Gold.PLP.Chemscore.CHOScore>
0.0000

> <Gold.PLP.Chemscore.Metal>
0.0000

> <Gold.Chemscore.Hbonds>
donor molecule, donor type, donor heavy atom, donor atom, acceptor molecule, acceptor atom, score
      L1  H    15    30       P1 10175  0.97
      L1  H    17    31       P1  8028  1.00
      P1  H  7989  7998       L1    19  1.00

> <Gold.PLP.Chemscore.Internal.Correction>
0.0019

> <Gold.Rescore>
     Score         DG    S(hbond)    S(metal)    S(lipo)     H(rot)  DE(clash)    DE(int)     intcor
      5.80      -7.37       2.71        0.00      26.92       4.03       0.19       1.38       ----

> <Gold.Chemscore.Fitness>
5.8026

> <Gold.Chemscore.DG>
-7.3698

> <Gold.Chemscore.ZeroCoef>
-5.4800

> <Gold.Chemscore.Hbond>
2.7099

> <Gold.Chemscore.Metal>
0.0000

> <Gold.Chemscore.Lipo>
26.9215

> <Gold.Chemscore.Internal_Hbond>
0.0000

> <Gold.Chemscore.DEClash>
0.1865

> <Gold.Chemscore.DEInternal>
1.3807

> <Gold.Chemscore.Rot>
4.0277

> <Gold.Chemscore.Internal.Correction>
   9.000000E+99

> <Gold.Chemscore.Hbonds>
donor molecule, donor type, donor heavy atom, donor atom, acceptor molecule, acceptor atom, score
      L1  H    15    30       P1 10175  0.87
      L1  H    17    31       P1  8028  0.97
      P1  H  7989  7998       L1    19  0.39

> <Gold.Chemscore.Hbond.Weighted>
-9.0509

> <Gold.Chemscore.Metal.Weighted>
-0.0000

> <Gold.Chemscore.Lipo.Weighted>
-3.1498

> <Gold.Chemscore.Internal_Hbond.Weighted>
0.0000

> <Gold.Chemscore.DEClash.Weighted>
0.1865

> <Gold.Chemscore.DEInternal.Weighted>
1.3807

> <Gold.Chemscore.Rot.Weighted>
10.3110

> <Gold.Chemscore.Internal.Correction.Weighted>
   9.000000E+99

> <Gold.Protein.RotatedTorsions>
[ 6907 6896 6895 6894 ] final -158.20 input  -60.11 | X-H torsion
[ 7974 7965 7964 7962 ] final -149.37 input  175.53 | X-H torsion
[ 8008 7997 7996 7995 ] final  -85.59 input   59.86 | X-H torsion
[ 10167 10162 10161 10158 ] final  -99.35 input  -65.29 | X-H torsion
[ 10718 10713 10712 10709 ] final  -63.74 input   66.30 | X-H torsion
[ 10763 10752 10751 10750 ] final   60.84 input  -60.55 | X-H torsion
[ 11005 11000 10999 10996 ] final   45.28 input  -57.11 | X-H torsion

> <Gold.Protein.ActiveResidues>
 VAL166  LYS551  ARG553  GLY616  TRP617  ASP618  TYR619  PRO620  LYS621  CYS622 
 ASP623  PHE694  ASN695  SER759  ASP760  ASP761  ALA762  ILE779  LEU786  VAL792 
 PHE793  MET794  SER795  GLU796  ALA797  LYS798  CYS799  TRP800  GLU811  SER814 

> <Gold.Protein.RotatedAtoms>
  151.3145  133.4066  159.2649 H   0  0  0  0  0  0  0  0  0  0  0  0  # atno 6907 bound_to 6896
  151.0086  134.9379  159.8004 H   0  0  0  0  0  0  0  0  0  0  0  0  # atno 6908 bound_to 6896
  152.5294  134.3110  159.9166 H   0  0  0  0  0  0  0  0  0  0  0  0  # atno 6909 bound_to 6896
  144.7971  140.5073  143.5732 H   0  0  0  0  0  0  0  0  0  0  0  0  # atno 7974 bound_to 7965
  154.6424  140.0589  156.9861 H   0  0  0  0  0  0  0  0  0  0  0  0  # atno 8008 bound_to 7997
  155.1496  140.3273  155.4415 H   0  0  0  0  0  0  0  0  0  0  0  0  # atno 8009 bound_to 7997
  156.2537  140.1949  156.6609 H   0  0  0  0  0  0  0  0  0  0  0  0  # atno 8010 bound_to 7997
  140.2634  143.3392  152.0604 H   0  0  0  0  0  0  0  0  0  0  0  0  # atno 10167 bound_to 10162
  156.0772  130.4224  150.1320 H   0  0  0  0  0  0  0  0  0  0  0  0  # atno 10718 bound_to 10713
  152.9932  135.5522  154.5938 H   0  0  0  0  0  0  0  0  0  0  0  0  # atno 10763 bound_to 10752
  154.5294  135.2812  155.1196 H   0  0  0  0  0  0  0  0  0  0  0  0  # atno 10764 bound_to 10752
  154.2517  135.6397  153.5295 H   0  0  0  0  0  0  0  0  0  0  0  0  # atno 10765 bound_to 10752
  140.1475  134.4504  155.8405 H   0  0  0  0  0  0  0  0  0  0  0  0  # atno 11005 bound_to 11000
  145.5645  139.1480  143.3323 LP  0  0  0  0  0  0  0  0  0  0  0  0  # atno 17320 bound_to 7965
  146.2243  140.5780  142.9003 LP  0  0  0  0  0  0  0  0  0  0  0  0  # atno 17321 bound_to 7965
  139.5010  144.6704  151.6257 LP  0  0  0  0  0  0  0  0  0  0  0  0  # atno 17342 bound_to 10162
  140.5948  143.9716  150.6347 LP  0  0  0  0  0  0  0  0  0  0  0  0  # atno 17343 bound_to 10162
  156.9359  130.9729  151.3525 LP  0  0  0  0  0  0  0  0  0  0  0  0  # atno 17370 bound_to 10713
  157.5873  130.8419  149.8608 LP  0  0  0  0  0  0  0  0  0  0  0  0  # atno 17371 bound_to 10713
  141.2194  133.6858  156.7360 LP  0  0  0  0  0  0  0  0  0  0  0  0  # atno 17394 bound_to 11000
  140.2646  134.8440  157.3791 LP  0  0  0  0  0  0  0  0  0  0  0  0  # atno 17395 bound_to 11000

$$$$
