AV-unprocessed.smi:877|AV-procd|sdf|4027|dock6
  -GOLD-   22720 1513D 1   1.00000     0.00000
 Structure written by MMmdl.
 43 45  0  0  0  0  0  0  0  0  1 V2000
  154.3865  136.2723  163.1750 C   0  0  0  0  0  0  0  0  0  0  0  0
  155.0986  137.4935  163.0403 O   0  0  0  0  0  0  0  0  0  0  0  0
  154.6175  138.4300  162.1506 C   0  0  0  0  0  0  0  0  0  0  0  0
  153.8554  138.1158  160.9971 C   0  0  0  0  0  0  0  0  0  0  0  0
  153.4015  139.1381  160.1414 C   0  0  0  0  0  0  0  0  0  0  0  0
  153.7009  140.4865  160.4218 C   0  0  0  0  0  0  0  0  0  0  0  0
  153.2120  141.5898  159.4992 C   0  0  0  0  0  0  0  0  0  0  0  0
  152.5010  141.0686  158.2806 C   0  0  0  0  0  0  0  0  0  0  0  0
  152.9812  140.0438  157.5731 N   0  0  0  0  0  0  0  0  0  0  0  0
  152.0445  139.8959  156.5699 C   0  0  0  0  0  0  0  0  0  0  0  0
  151.9813  138.9734  155.5011 C   0  0  0  0  0  0  0  0  0  0  0  0
  150.9088  139.0134  154.5862 C   0  0  0  0  0  0  0  0  0  0  0  0
  149.8871  139.9747  154.7263 C   0  0  0  0  0  0  0  0  0  0  0  0
  149.9326  140.9043  155.7830 C   0  0  0  0  0  0  0  0  0  0  0  0
  151.0051  140.8598  156.6942 C   0  0  0  0  0  0  0  0  0  0  0  0
  151.3434  141.6086  157.8180 N   0  0  0  0  0  0  0  0  0  0  0  0
  150.5896  142.7358  158.3528 C   0  0  0  0  0  0  0  0  0  0  0  0
  151.1552  144.0995  157.9083 C   0  0  2  0  0  0  0  0  0  0  0  0
  151.3002  144.1051  156.5008 O   0  0  0  0  0  0  0  0  0  0  0  0
  152.5258  144.3814  158.5458 C   0  0  0  0  0  0  0  0  0  0  0  0
  152.4060  144.4470  159.9509 O   0  0  0  0  0  0  0  0  0  0  0  0
  154.4597  140.8044  161.5660 C   0  0  0  0  0  0  0  0  0  0  0  0
  154.9117  139.7819  162.4216 C   0  0  0  0  0  0  0  0  0  0  0  0
  154.8849  135.6452  163.9140 H   0  0  0  0  0  0  0  0  0  0  0  0
  154.3625  135.7189  162.2352 H   0  0  0  0  0  0  0  0  0  0  0  0
  153.3661  136.4423  163.5213 H   0  0  0  0  0  0  0  0  0  0  0  0
  153.6042  137.0964  160.7464 H   0  0  0  0  0  0  0  0  0  0  0  0
  152.8199  138.8806  159.2682 H   0  0  0  0  0  0  0  0  0  0  0  0
  152.5676  142.2455  160.0819 H   0  0  0  0  0  0  0  0  0  0  0  0
  154.0533  142.2005  159.1702 H   0  0  0  0  0  0  0  0  0  0  0  0
  152.7588  138.2327  155.3859 H   0  0  0  0  0  0  0  0  0  0  0  0
  150.8698  138.3027  153.7736 H   0  0  0  0  0  0  0  0  0  0  0  0
  149.0682  139.9986  154.0221 H   0  0  0  0  0  0  0  0  0  0  0  0
  149.1500  141.6404  155.8926 H   0  0  0  0  0  0  0  0  0  0  0  0
  149.5461  142.6335  158.0540 H   0  0  0  0  0  0  0  0  0  0  0  0
  150.5898  142.6681  159.4414 H   0  0  0  0  0  0  0  0  0  0  0  0
  150.4554  144.8872  158.1881 H   0  0  0  0  0  0  0  0  0  0  0  0
  150.5894  144.6047  156.1286 H   0  0  0  0  0  0  0  0  0  0  0  0
  153.2229  143.5757  158.3134 H   0  0  0  0  0  0  0  0  0  0  0  0
  152.9621  145.3049  158.1628 H   0  0  0  0  0  0  0  0  0  0  0  0
  151.5421  144.7695  160.1592 H   0  0  0  0  0  0  0  0  0  0  0  0
  154.6940  141.8336  161.7941 H   0  0  0  0  0  0  0  0  0  0  0  0
  155.4902  140.0382  163.2970 H   0  0  0  0  0  0  0  0  0  0  0  0
  1  2  1  0  0  0  0
  1 24  1  0  0  0  0
  1 25  1  0  0  0  0
  1 26  1  0  0  0  0
  2  3  1  0  0  0  0
  3 23  1  0  0  0  0
  3  4  2  0  0  0  0
  4  5  1  0  0  0  0
  4 27  1  0  0  0  0
  5  6  2  0  0  0  0
  5 28  1  0  0  0  0
  6  7  1  0  0  0  0
  6 22  1  0  0  0  0
  7  8  1  0  0  0  0
  7 29  1  0  0  0  0
  7 30  1  0  0  0  0
  8 16  1  0  0  0  0
  8  9  2  0  0  0  0
  9 10  1  0  0  0  0
 10 15  2  0  0  0  0
 10 11  1  0  0  0  0
 11 12  2  0  0  0  0
 11 31  1  0  0  0  0
 12 13  1  0  0  0  0
 12 32  1  0  0  0  0
 13 14  2  0  0  0  0
 13 33  1  0  0  0  0
 14 15  1  0  0  0  0
 14 34  1  0  0  0  0
 15 16  1  0  0  0  0
 16 17  1  0  0  0  0
 17 18  1  0  0  0  0
 17 35  1  0  0  0  0
 17 36  1  0  0  0  0
 18 19  1  0  0  0  0
 18 20  1  0  0  0  0
 18 37  1  0  0  0  0
 19 38  1  0  0  0  0
 20 21  1  0  0  0  0
 20 39  1  0  0  0  0
 20 40  1  0  0  0  0
 21 41  1  0  0  0  0
 22 23  2  0  0  0  0
 22 42  1  0  0  0  0
 23 43  1  0  0  0  0
M  END
> <s_m_source_file>
AV-unprocessed.smi

> <i_m_source_file_index>
877

> <i_lp_mmshare_version>
43012

> <i_f3d_flags>
0

> <s_epik_input>
W0NIM11PYzFbY0hdW2NIXWMoW2NIXVtjSF0xKVtDSDJdYyhuMiluKFtDSDJdW0NASF0oW09IXSlbQ0gyXVtPSF0pYyhjMjMpW2NIXVtjSF1bY0hdW2NIXTM=

> <s_epik_cmdline>
J2VwaWtfcHl0aG9uJywgJy1waCcsICc3LjAnLCAnLXRuJywgJzgnLCAnLW1hJywgJzIwMCcsICctbWV0YWxfYmluZGluZycsICctaW1hZScsICc8aW5maWxlLm1hZT4nLCAnLW9tYWUnLCAnPG91dGZpbGUubWFlPic=

> <r_lp_tautomer_probability>
1

> <r_epik_Ionization_Penalty>
0.0616669

> <r_epik_Ionization_Penalty_Charging>
0

> <r_epik_Ionization_Penalty_Neutral>
0.0616669

> <r_epik_State_Penalty>
0.0535415

> <r_epik_Charging_Adjusted_Penalty>
0.0535415

> <i_epik_Tot_Q>
0

> <i_epik_Tot_abs_Q>
0

> <r_epik_Metal_State_Penalty>
5.60326e-05

> <b_epik_Metal_Only>
0

> <s_lp_Force_Field>
OPLS_2005

> <r_lp_Energy>
20.6154

> <b_lp_Chiralities_Consistent>
1

> <s_lp_Variant>
AV-unprocessed.smi:877-1

> <Gold.Version>
5.8.1

> <Gold.Id.Protein>
6NUR|6NUR_protein|mol2

> <Gold.PLP.Fitness>
52.5096

> <Gold.PLP.PLP>
-48.3402

> <Gold.PLP.part.hbond>
-2.0000

> <Gold.PLP.part.metal>
0.0000

> <Gold.PLP.part.buried>
-2.3476

> <Gold.PLP.part.nonpolar>
-43.3599

> <Gold.PLP.part.repulsive>
0.0000

> <Gold.PLP.ligand.clash>
0.0000

> <Gold.PLP.ligand.torsion>
0.9370

> <Gold.PLP.Chemscore.Hbond>
2.0000

> <Gold.PLP.Chemscore.CHOScore>
0.0000

> <Gold.PLP.Chemscore.Metal>
0.0000

> <Gold.Chemscore.Hbonds>
donor molecule, donor type, donor heavy atom, donor atom, acceptor molecule, acceptor atom, score
      L1  H    19    38       P1  8028  1.00
      P1  H  7997  8008       L1     9  1.00

> <Gold.PLP.Chemscore.Internal.Correction>
0.0434

> <Gold.Rescore>
     Score         DG    S(hbond)    S(metal)    S(lipo)     H(rot)  DE(clash)    DE(int)     intcor
     16.89     -19.27       1.76        0.00     136.39       3.15       0.27       2.10       ----

> <Gold.Chemscore.Fitness>
16.8896

> <Gold.Chemscore.DG>
-19.2671

> <Gold.Chemscore.ZeroCoef>
-5.4800

> <Gold.Chemscore.Hbond>
1.7634

> <Gold.Chemscore.Metal>
0.0000

> <Gold.Chemscore.Lipo>
136.3937

> <Gold.Chemscore.Internal_Hbond>
0.0000

> <Gold.Chemscore.DEClash>
0.2738

> <Gold.Chemscore.DEInternal>
2.1037

> <Gold.Chemscore.Rot>
3.1488

> <Gold.Chemscore.Internal.Correction>
   9.000000E+99

> <Gold.Chemscore.Hbonds>
donor molecule, donor type, donor heavy atom, donor atom, acceptor molecule, acceptor atom, score
      L1  H    19    38       P1  8028  0.96
      P1  H  7997  8008       L1     9  0.59

> <Gold.Chemscore.Hbond.Weighted>
-5.8899

> <Gold.Chemscore.Metal.Weighted>
-0.0000

> <Gold.Chemscore.Lipo.Weighted>
-15.9581

> <Gold.Chemscore.Internal_Hbond.Weighted>
0.0000

> <Gold.Chemscore.DEClash.Weighted>
0.2738

> <Gold.Chemscore.DEInternal.Weighted>
2.1037

> <Gold.Chemscore.Rot.Weighted>
8.0608

> <Gold.Chemscore.Internal.Correction.Weighted>
   9.000000E+99

> <Gold.Protein.RotatedTorsions>
[ 6907 6896 6895 6894 ] final -157.64 input  -60.11 | X-H torsion
[ 7974 7965 7964 7962 ] final  -19.50 input  175.53 | X-H torsion
[ 8008 7997 7996 7995 ] final  -73.91 input   59.86 | X-H torsion
[ 10167 10162 10161 10158 ] final  -30.95 input  -65.29 | X-H torsion
[ 10718 10713 10712 10709 ] final  -30.82 input   66.30 | X-H torsion
[ 10763 10752 10751 10750 ] final  161.94 input  -60.55 | X-H torsion
[ 11005 11000 10999 10996 ] final  128.35 input  -57.11 | X-H torsion

> <Gold.Protein.ActiveResidues>
 VAL166  LYS551  ARG553  GLY616  TRP617  ASP618  TYR619  PRO620  LYS621  CYS622 
 ASP623  PHE694  ASN695  SER759  ASP760  ASP761  ALA762  ILE779  LEU786  VAL792 
 PHE793  MET794  SER795  GLU796  ALA797  LYS798  CYS799  TRP800  GLU811  SER814 

> <Gold.Protein.RotatedAtoms>
  151.3060  133.4101  159.2643 H   0  0  0  0  0  0  0  0  0  0  0  0  # atno 6907 bound_to 6896
  151.0154  134.9430  159.8041 H   0  0  0  0  0  0  0  0  0  0  0  0  # atno 6908 bound_to 6896
  152.5311  134.3024  159.9136 H   0  0  0  0  0  0  0  0  0  0  0  0  # atno 6909 bound_to 6896
  146.1838  140.4071  142.8484 H   0  0  0  0  0  0  0  0  0  0  0  0  # atno 7974 bound_to 7965
  154.5287  140.0770  156.8305 H   0  0  0  0  0  0  0  0  0  0  0  0  # atno 8008 bound_to 7997
  155.3421  140.3408  155.4221 H   0  0  0  0  0  0  0  0  0  0  0  0  # atno 8009 bound_to 7997
  156.1758  140.1635  156.8351 H   0  0  0  0  0  0  0  0  0  0  0  0  # atno 8010 bound_to 7997
  140.7243  143.3808  151.1604 H   0  0  0  0  0  0  0  0  0  0  0  0  # atno 10167 bound_to 10162
  156.3950  130.4380  149.7365 H   0  0  0  0  0  0  0  0  0  0  0  0  # atno 10718 bound_to 10713
  154.2707  135.2766  155.2739 H   0  0  0  0  0  0  0  0  0  0  0  0  # atno 10763 bound_to 10752
  154.5304  135.5731  153.6757 H   0  0  0  0  0  0  0  0  0  0  0  0  # atno 10764 bound_to 10752
  152.9945  135.6226  154.2861 H   0  0  0  0  0  0  0  0  0  0  0  0  # atno 10765 bound_to 10752
  139.9556  134.9613  156.8990 H   0  0  0  0  0  0  0  0  0  0  0  0  # atno 11005 bound_to 11000
  144.8360  140.6783  143.6260 LP  0  0  0  0  0  0  0  0  0  0  0  0  # atno 17320 bound_to 7965
  145.4000  139.1599  143.4183 LP  0  0  0  0  0  0  0  0  0  0  0  0  # atno 17321 bound_to 7965
  139.7397  143.8944  152.3046 LP  0  0  0  0  0  0  0  0  0  0  0  0  # atno 17342 bound_to 10162
  139.8761  144.7043  150.8932 LP  0  0  0  0  0  0  0  0  0  0  0  0  # atno 17343 bound_to 10162
  156.4404  130.7858  151.2879 LP  0  0  0  0  0  0  0  0  0  0  0  0  # atno 17370 bound_to 10713
  157.7501  131.0126  150.3393 LP  0  0  0  0  0  0  0  0  0  0  0  0  # atno 17371 bound_to 10713
  140.5617  134.0529  155.7401 LP  0  0  0  0  0  0  0  0  0  0  0  0  # atno 17394 bound_to 11000
  141.1227  133.9435  157.2698 LP  0  0  0  0  0  0  0  0  0  0  0  0  # atno 17395 bound_to 11000

$$$$
