AV-unprocessed.smi:287|AV-procd|sdf|2181|dock10
  -GOLD-   2262021553D 1   1.00000     0.00000
 Structure written by MMmdl.
 55 58  0  0  0  0  0  0  0  0  1 V2000
  147.0324  134.2613  162.5170 C   0  0  0  0  0  0  0  0  0  0  0  0
  145.7569  134.2292  161.7470 C   0  0  0  0  0  0  0  0  0  0  0  0
  145.4504  134.3428  160.4223 C   0  0  0  0  0  0  0  0  0  0  0  0
  144.0329  134.2334  160.3016 C   0  0  0  0  0  0  0  0  0  0  0  0
  143.2436  134.3086  159.0015 C   0  0  1  0  0  0  0  0  0  0  0  0
  143.6457  133.1477  158.0756 C   0  0  0  0  0  0  0  0  0  0  0  0
  141.8493  134.1644  159.1916 O   0  0  0  0  0  0  0  0  0  0  0  0
  143.4435  135.6592  158.2782 C   0  0  0  0  0  0  0  0  0  0  0  0
  143.1037  135.5997  156.8622 N   0  0  0  0  0  0  0  0  0  0  0  0
  144.0468  135.3510  155.9295 C   0  0  0  0  0  0  0  0  0  0  0  0
  145.3272  135.3997  156.3692 N   0  0  0  0  0  0  0  0  0  0  0  0
  146.3371  135.1670  155.5263 C   0  0  0  0  0  0  0  0  0  0  0  0
  146.2873  134.8691  154.2267 N   0  0  0  0  0  0  0  0  0  0  0  0
  145.0005  134.8169  153.7765 C   0  0  0  0  0  0  0  0  0  0  0  0
  143.8285  135.0462  154.5526 C   0  0  0  0  0  0  0  0  0  0  0  0
  142.7096  134.9112  153.7369 N   0  0  0  0  0  0  0  0  0  0  0  0
  143.1953  134.6215  152.5603 C   0  0  0  0  0  0  0  0  0  0  0  0
  144.5692  134.5299  152.4999 N   0  0  0  0  0  0  0  0  0  0  0  0
  145.4555  134.2278  151.3307 C   0  0  2  0  0  0  0  0  0  0  0  0
  144.6626  134.1752  150.1824 O   0  0  0  0  0  0  0  0  0  0  0  0
  144.3088  132.8227  149.9121 C   0  0  1  0  0  0  0  0  0  0  0  0
  143.8026  132.6517  148.4690 C   0  0  0  0  0  0  0  0  0  0  0  0
  143.4715  133.9099  147.9207 O   0  0  0  0  0  0  0  0  0  0  0  0
  145.6101  132.0868  150.2528 C   0  0  1  0  0  0  0  0  0  0  0  0
  146.5287  132.1742  149.1750 O   0  0  0  0  0  0  0  0  0  0  0  0
  146.0895  132.8330  151.4978 C   0  0  1  0  0  0  0  0  0  0  0  0
  147.5001  132.8673  151.6091 O   0  0  0  0  0  0  0  0  0  0  0  0
  143.5843  134.0530  161.5885 C   0  0  0  0  0  0  0  0  0  0  0  0
  142.2360  133.8681  162.2032 C   0  0  0  0  0  0  0  0  0  0  0  0
  144.6232  134.0494  162.4698 O   0  0  0  0  0  0  0  0  0  0  0  0
  146.1629  135.0573  151.2920 H   0  0  0  0  0  0  0  0  0  0  0  0
  143.5396  132.5018  150.6174 H   0  0  0  0  0  0  0  0  0  0  0  0
  145.4345  131.0311  150.4626 H   0  0  0  0  0  0  0  0  0  0  0  0
  145.6783  132.3498  152.3857 H   0  0  0  0  0  0  0  0  0  0  0  0
  147.8453  134.6559  161.9069 H   0  0  0  0  0  0  0  0  0  0  0  0
  147.3104  133.2595  162.8445 H   0  0  0  0  0  0  0  0  0  0  0  0
  146.9368  134.8927  163.4006 H   0  0  0  0  0  0  0  0  0  0  0  0
  146.1636  134.4926  159.6255 H   0  0  0  0  0  0  0  0  0  0  0  0
  144.7060  133.1897  157.8238 H   0  0  0  0  0  0  0  0  0  0  0  0
  143.0877  133.1708  157.1385 H   0  0  0  0  0  0  0  0  0  0  0  0
  143.4594  132.1819  158.5475 H   0  0  0  0  0  0  0  0  0  0  0  0
  141.4515  133.9727  158.3562 H   0  0  0  0  0  0  0  0  0  0  0  0
  142.7808  136.3948  158.7358 H   0  0  0  0  0  0  0  0  0  0  0  0
  144.4635  136.0232  158.4104 H   0  0  0  0  0  0  0  0  0  0  0  0
  142.1334  135.7692  156.6386 H   0  0  0  0  0  0  0  0  0  0  0  0
  147.3265  135.2290  155.9550 H   0  0  0  0  0  0  0  0  0  0  0  0
  142.5545  134.4654  151.7046 H   0  0  0  0  0  0  0  0  0  0  0  0
  144.5415  132.1502  147.8431 H   0  0  0  0  0  0  0  0  0  0  0  0
  142.8981  132.0428  148.4588 H   0  0  0  0  0  0  0  0  0  0  0  0
  144.2500  134.4456  147.9079 H   0  0  0  0  0  0  0  0  0  0  0  0
  147.3127  131.7040  149.4159 H   0  0  0  0  0  0  0  0  0  0  0  0
  147.8645  132.3139  150.9348 H   0  0  0  0  0  0  0  0  0  0  0  0
  141.7380  132.9927  161.7864 H   0  0  0  0  0  0  0  0  0  0  0  0
  141.6058  134.7383  162.0189 H   0  0  0  0  0  0  0  0  0  0  0  0
  142.3089  133.7296  163.2824 H   0  0  0  0  0  0  0  0  0  0  0  0
  1  2  1  0  0  0  0
  1 35  1  0  0  0  0
  1 36  1  0  0  0  0
  1 37  1  0  0  0  0
  2 30  1  0  0  0  0
  2  3  2  0  0  0  0
  3  4  1  0  0  0  0
  3 38  1  0  0  0  0
  4  5  1  0  0  0  0
  4 28  2  0  0  0  0
  5  6  1  0  0  0  0
  5  7  1  0  0  0  0
  5  8  1  0  0  0  0
  6 39  1  0  0  0  0
  6 40  1  0  0  0  0
  6 41  1  0  0  0  0
  7 42  1  0  0  0  0
  8  9  1  0  0  0  0
  8 43  1  0  0  0  0
  8 44  1  0  0  0  0
  9 10  1  0  0  0  0
  9 45  1  0  0  0  0
 10 15  1  0  0  0  0
 10 11  2  0  0  0  0
 11 12  1  0  0  0  0
 12 13  2  0  0  0  0
 12 46  1  0  0  0  0
 13 14  1  0  0  0  0
 14 18  1  0  0  0  0
 14 15  2  0  0  0  0
 15 16  1  0  0  0  0
 16 17  2  0  0  0  0
 17 18  1  0  0  0  0
 17 47  1  0  0  0  0
 18 19  1  0  0  0  0
 19 31  1  0  0  0  0
 19 26  1  0  0  0  0
 19 20  1  0  0  0  0
 20 21  1  0  0  0  0
 21 32  1  0  0  0  0
 21 22  1  0  0  0  0
 21 24  1  0  0  0  0
 22 23  1  0  0  0  0
 22 48  1  0  0  0  0
 22 49  1  0  0  0  0
 23 50  1  0  0  0  0
 24 33  1  0  0  0  0
 24 25  1  0  0  0  0
 24 26  1  0  0  0  0
 25 51  1  0  0  0  0
 26 34  1  0  0  0  0
 26 27  1  0  0  0  0
 27 52  1  0  0  0  0
 28 29  1  0  0  0  0
 28 30  1  0  0  0  0
 29 53  1  0  0  0  0
 29 54  1  0  0  0  0
 29 55  1  0  0  0  0
M  END
> <s_m_source_file>
AV-unprocessed.smi

> <i_m_source_file_index>
287

> <i_lp_mmshare_version>
43012

> <i_f3d_flags>
0

> <s_epik_input>
W0NIM11jMVtjSF1jKGMobzEpW0NIM10pW0NAQF0oW0NIM10pKFtPSF0pW0NIMl1bTkhdYyhuW2NIXW4yKWMoYzIzKW5bY0hdbjNbQ0BASF00T1tDQEhdKFtDSDJdW09IXSlbQ0BASF0oW09IXSlbQ0BIXTRbT0hd

> <s_epik_cmdline>
J2VwaWtfcHl0aG9uJywgJy1waCcsICc3LjAnLCAnLXRuJywgJzgnLCAnLW1hJywgJzIwMCcsICctbWV0YWxfYmluZGluZycsICctaW1hZScsICc8aW5maWxlLm1hZT4nLCAnLW9tYWUnLCAnPG91dGZpbGUubWFlPic=

> <r_lp_tautomer_probability>
1

> <r_epik_Ionization_Penalty>
0.000992612

> <r_epik_Ionization_Penalty_Charging>
0

> <r_epik_Ionization_Penalty_Neutral>
0.000992612

> <r_epik_State_Penalty>
-0

> <r_epik_Charging_Adjusted_Penalty>
0

> <i_epik_Tot_Q>
0

> <i_epik_Tot_abs_Q>
0

> <r_epik_Metal_State_Penalty>
-0

> <b_epik_Metal_Only>
0

> <s_epik_Chemistry_Notes>
This compound contains an acetal/aminal-like group ( X-CH(R)-Y where X, Y are N, S, or O) that may be acid/base labile, releasing an aldehyde.

> <s_lp_Force_Field>
OPLS_2005

> <r_lp_Energy>
45.0467

> <b_lp_Chiralities_Consistent>
1

> <s_lp_Variant>
AV-unprocessed.smi:287-5

> <Gold.Version>
5.8.1

> <Gold.Id.Protein>
6NUR|6NUR_protein|mol2

> <Gold.PLP.Fitness>
54.7439

> <Gold.PLP.PLP>
-41.6622

> <Gold.PLP.part.hbond>
-8.7153

> <Gold.PLP.part.metal>
0.0000

> <Gold.PLP.part.buried>
-7.3204

> <Gold.PLP.part.nonpolar>
-25.3444

> <Gold.PLP.part.repulsive>
1.3076

> <Gold.PLP.ligand.clash>
0.0000

> <Gold.PLP.ligand.torsion>
1.3014

> <Gold.PLP.Chemscore.Hbond>
4.9337

> <Gold.PLP.Chemscore.CHOScore>
0.2593

> <Gold.PLP.Chemscore.Metal>
0.0000

> <Gold.Chemscore.Hbonds>
donor molecule, donor type, donor heavy atom, donor atom, acceptor molecule, acceptor atom, score
      L1  H     7    42       P1 11000  1.00
      L1  H    23    50       P1  7921  1.00
      L1  H    25    51       P1 10747  1.00
      L1  H    27    52       P1 10747  1.00
      P1  H 10192 10197       L1    23  0.91
      L1  C    17    47       P1 10186  0.30

> <Gold.PLP.Chemscore.Internal.Correction>
0.1052

> <Gold.Rescore>
     Score         DG    S(hbond)    S(metal)    S(lipo)     H(rot)  DE(clash)    DE(int)     intcor
     13.74     -15.88       4.40        0.00      78.50       5.27       0.09       2.04       ----

> <Gold.Chemscore.Fitness>
13.7401

> <Gold.Chemscore.DG>
-15.8756

> <Gold.Chemscore.ZeroCoef>
-5.4800

> <Gold.Chemscore.Hbond>
4.3997

> <Gold.Chemscore.Metal>
0.0000

> <Gold.Chemscore.Lipo>
78.5013

> <Gold.Chemscore.Internal_Hbond>
0.0000

> <Gold.Chemscore.DEClash>
0.0918

> <Gold.Chemscore.DEInternal>
2.0436

> <Gold.Chemscore.Rot>
5.2672

> <Gold.Chemscore.Internal.Correction>
   9.000000E+99

> <Gold.Chemscore.Hbonds>
donor molecule, donor type, donor heavy atom, donor atom, acceptor molecule, acceptor atom, score
      L1  H     7    42       P1 11000  0.25
      L1  H    23    50       P1  7921  0.98
      L1  H    25    51       P1 10747  0.93
      L1  H    27    52       P1 10747  0.97
      P1  H 10192 10197       L1    23  0.35

> <Gold.Chemscore.Hbond.Weighted>
-14.6949

> <Gold.Chemscore.Metal.Weighted>
-0.0000

> <Gold.Chemscore.Lipo.Weighted>
-9.1847

> <Gold.Chemscore.Internal_Hbond.Weighted>
0.0000

> <Gold.Chemscore.DEClash.Weighted>
0.0918

> <Gold.Chemscore.DEInternal.Weighted>
2.0436

> <Gold.Chemscore.Rot.Weighted>
13.4839

> <Gold.Chemscore.Internal.Correction.Weighted>
   9.000000E+99

> <Gold.Protein.RotatedTorsions>
[ 6907 6896 6895 6894 ] final   34.62 input  -60.11 | X-H torsion
[ 7974 7965 7964 7962 ] final  157.85 input  175.53 | X-H torsion
[ 8008 7997 7996 7995 ] final   94.62 input   59.86 | X-H torsion
[ 10167 10162 10161 10158 ] final   -2.17 input  -65.29 | X-H torsion
[ 10718 10713 10712 10709 ] final  -29.81 input   66.30 | X-H torsion
[ 10763 10752 10751 10750 ] final   13.43 input  -60.55 | X-H torsion
[ 11005 11000 10999 10996 ] final   40.48 input  -57.11 | X-H torsion

> <Gold.Protein.ActiveResidues>
 VAL166  LYS551  ARG553  GLY616  TRP617  ASP618  TYR619  PRO620  LYS621  CYS622 
 ASP623  PHE694  ASN695  SER759  ASP760  ASP761  ALA762  ILE779  LEU786  VAL792 
 PHE793  MET794  SER795  GLU796  ALA797  LYS798  CYS799  TRP800  GLU811  SER814 

> <Gold.Protein.RotatedAtoms>
  152.1049  134.9315  160.0568 H   0  0  0  0  0  0  0  0  0  0  0  0  # atno 6907 bound_to 6896
  152.0515  133.4016  159.4387 H   0  0  0  0  0  0  0  0  0  0  0  0  # atno 6908 bound_to 6896
  150.6841  134.3223  159.4835 H   0  0  0  0  0  0  0  0  0  0  0  0  # atno 6909 bound_to 6896
  144.7879  139.7398  143.6233 H   0  0  0  0  0  0  0  0  0  0  0  0  # atno 7974 bound_to 7965
  156.0599  140.3297  155.7449 H   0  0  0  0  0  0  0  0  0  0  0  0  # atno 8008 bound_to 7997
  155.5471  140.0607  157.2875 H   0  0  0  0  0  0  0  0  0  0  0  0  # atno 8009 bound_to 7997
  154.4476  140.1900  156.0637 H   0  0  0  0  0  0  0  0  0  0  0  0  # atno 8010 bound_to 7997
  140.6840  143.6688  150.8202 H   0  0  0  0  0  0  0  0  0  0  0  0  # atno 10167 bound_to 10162
  156.4078  130.4402  149.7275 H   0  0  0  0  0  0  0  0  0  0  0  0  # atno 10718 bound_to 10713
  153.1722  135.6814  153.8592 H   0  0  0  0  0  0  0  0  0  0  0  0  # atno 10763 bound_to 10752
  153.7952  135.3163  155.3384 H   0  0  0  0  0  0  0  0  0  0  0  0  # atno 10764 bound_to 10752
  154.8005  135.4780  154.0357 H   0  0  0  0  0  0  0  0  0  0  0  0  # atno 10765 bound_to 10752
  140.1927  134.3967  155.8138 H   0  0  0  0  0  0  0  0  0  0  0  0  # atno 11005 bound_to 11000
  146.2119  139.5481  142.9675 LP  0  0  0  0  0  0  0  0  0  0  0  0  # atno 17320 bound_to 7965
  145.5872  141.0374  143.2090 LP  0  0  0  0  0  0  0  0  0  0  0  0  # atno 17321 bound_to 7965
  140.0393  143.5363  152.2725 LP  0  0  0  0  0  0  0  0  0  0  0  0  # atno 17342 bound_to 10162
  139.6184  144.7624  151.2795 LP  0  0  0  0  0  0  0  0  0  0  0  0  # atno 17343 bound_to 10162
  156.4265  130.7794  151.2813 LP  0  0  0  0  0  0  0  0  0  0  0  0  # atno 17370 bound_to 10713
  157.7506  131.0167  150.3554 LP  0  0  0  0  0  0  0  0  0  0  0  0  # atno 17371 bound_to 10713
  141.2226  133.7054  156.8122 LP  0  0  0  0  0  0  0  0  0  0  0  0  # atno 17394 bound_to 11000
  140.2142  134.8805  157.3307 LP  0  0  0  0  0  0  0  0  0  0  0  0  # atno 17395 bound_to 11000

$$$$
