AV-unprocessed.smi:72|AV-procd|sdf|746|dock4
  -GOLD-   2262017 83D 1   1.00000     0.00000
 Structure written by MMmdl.
 29 30  0  0  0  0  0  0  0  0  1 V2000
  146.9394  139.3534  151.8930 N   0  0  0  0  0  0  0  0  0  0  0  0
  146.3035  138.1298  151.8826 C   0  0  0  0  0  0  0  0  0  0  0  0
  146.6107  137.2768  150.8134 N   0  0  0  0  0  0  0  0  0  0  0  0
  146.0084  136.1301  150.7964 C   0  0  0  0  0  0  0  0  0  0  0  0
  145.0653  135.7568  151.8352 N   0  0  0  0  0  0  0  0  0  0  0  0
  144.3636  134.4137  151.8116 C   0  0  1  0  0  0  0  0  0  0  0  0
  143.7525  134.2454  150.5666 O   0  0  0  0  0  0  0  0  0  0  0  0
  143.9543  132.9116  150.1150 C   0  0  1  0  0  0  0  0  0  0  0  0
  143.7668  132.8123  148.5908 C   0  0  0  0  0  0  0  0  0  0  0  0
  143.5013  134.0869  148.0452 O   0  0  0  0  0  0  0  0  0  0  0  0
  145.3317  132.5302  150.6775 C   0  0  1  0  0  0  0  0  0  0  0  0
  146.3746  132.9981  149.8383 O   0  0  0  0  0  0  0  0  0  0  0  0
  145.3198  133.2215  152.0377 C   0  0  1  0  0  0  0  0  0  0  0  0
  146.6149  133.5459  152.5131 O   0  0  0  0  0  0  0  0  0  0  0  0
  144.8132  136.6651  152.9001 C   0  0  0  0  0  0  0  0  0  0  0  0
  144.0398  136.3604  153.8082 O   0  0  0  0  0  0  0  0  0  0  0  0
  145.4841  137.8935  152.8668 N   0  0  0  0  0  0  0  0  0  0  0  0
  143.5744  134.4621  152.5629 H   0  0  0  0  0  0  0  0  0  0  0  0
  143.1973  132.2971  150.6064 H   0  0  0  0  0  0  0  0  0  0  0  0
  145.4395  131.4497  150.7782 H   0  0  0  0  0  0  0  0  0  0  0  0
  144.8422  132.5643  152.7654 H   0  0  0  0  0  0  0  0  0  0  0  0
  146.7967  140.0478  152.6117 H   0  0  0  0  0  0  0  0  0  0  0  0
  147.5950  139.6451  151.1829 H   0  0  0  0  0  0  0  0  0  0  0  0
  146.1679  135.3836  150.0173 H   0  0  0  0  0  0  0  0  0  0  0  0
  144.6775  132.4269  148.1316 H   0  0  0  0  0  0  0  0  0  0  0  0
  142.9646  132.1227  148.3268 H   0  0  0  0  0  0  0  0  0  0  0  0
  144.3179  134.4672  147.7592 H   0  0  0  0  0  0  0  0  0  0  0  0
  146.0597  133.7539  149.3661 H   0  0  0  0  0  0  0  0  0  0  0  0
  147.2418  133.3044  151.8482 H   0  0  0  0  0  0  0  0  0  0  0  0
  1  2  1  0  0  0  0
  1 22  1  0  0  0  0
  1 23  1  0  0  0  0
  2 17  2  0  0  0  0
  2  3  1  0  0  0  0
  3  4  2  0  0  0  0
  4  5  1  0  0  0  0
  4 24  1  0  0  0  0
  5  6  1  0  0  0  0
  5 15  1  0  0  0  0
  6 18  1  0  0  0  0
  6 13  1  0  0  0  0
  6  7  1  0  0  0  0
  7  8  1  0  0  0  0
  8 19  1  0  0  0  0
  8  9  1  0  0  0  0
  8 11  1  0  0  0  0
  9 10  1  0  0  0  0
  9 25  1  0  0  0  0
  9 26  1  0  0  0  0
 10 27  1  0  0  0  0
 11 20  1  0  0  0  0
 11 12  1  0  0  0  0
 11 13  1  0  0  0  0
 12 28  1  0  0  0  0
 13 21  1  0  0  0  0
 13 14  1  0  0  0  0
 14 29  1  0  0  0  0
 15 16  2  0  0  0  0
 15 17  1  0  0  0  0
M  END
> <s_m_source_file>
AV-unprocessed.smi

> <i_m_source_file_index>
72

> <i_lp_mmshare_version>
43012

> <i_f3d_flags>
0

> <s_epik_input>
W05IMl1jMW5bY0hdbihjKD1PKW4xKVtDQEBIXTJPW0NASF0oW0NIMl1bT0hdKVtDQEBIXShbT0hdKVtDQEhdMltPSF0=

> <s_epik_cmdline>
J2VwaWtfcHl0aG9uJywgJy1waCcsICc3LjAnLCAnLXRuJywgJzgnLCAnLW1hJywgJzIwMCcsICctbWV0YWxfYmluZGluZycsICctaW1hZScsICc8aW5maWxlLm1hZT4nLCAnLW9tYWUnLCAnPG91dGZpbGUubWFlPic=

> <r_lp_tautomer_probability>
4.77166e-05

> <r_epik_Ionization_Penalty>
1.3546

> <r_epik_Ionization_Penalty_Charging>
1.46833e-10

> <r_epik_Ionization_Penalty_Neutral>
1.3546

> <r_epik_State_Penalty>
3.51908

> <r_epik_Charging_Adjusted_Penalty>
3.51908

> <i_epik_Tot_Q>
0

> <i_epik_Tot_abs_Q>
0

> <r_epik_Metal_State_Penalty>
3.44088

> <b_epik_Metal_Only>
1

> <s_epik_Chemistry_Notes>
This compound contains an acetal/aminal-like group ( X-CH(R)-Y where X, Y are N, S, or O) that may be acid/base labile, releasing an aldehyde.

> <s_lp_Force_Field>
OPLS_2005

> <r_lp_Energy>
35.7585

> <b_lp_Chiralities_Consistent>
1

> <s_lp_Variant>
AV-unprocessed.smi:72-84

> <Gold.Version>
5.8.1

> <Gold.Id.Protein>
6NUR|6NUR_protein|mol2

> <Gold.PLP.Fitness>
39.1008

> <Gold.PLP.PLP>
-25.3735

> <Gold.PLP.part.hbond>
-7.4570

> <Gold.PLP.part.metal>
0.0000

> <Gold.PLP.part.buried>
-3.1076

> <Gold.PLP.part.nonpolar>
-20.2766

> <Gold.PLP.part.repulsive>
4.6510

> <Gold.PLP.ligand.clash>
0.0000

> <Gold.PLP.ligand.torsion>
0.8610

> <Gold.PLP.Chemscore.Hbond>
4.1490

> <Gold.PLP.Chemscore.CHOScore>
1.0000

> <Gold.PLP.Chemscore.Metal>
0.0000

> <Gold.Chemscore.Hbonds>
donor molecule, donor type, donor heavy atom, donor atom, acceptor molecule, acceptor atom, score
      L1  H     1    23       P1  7957  0.72
      L1  H    10    27       P1  7921  1.00
      L1  H    12    28       P1  7921  0.58
      P1  H  7954  7966       L1     3  1.00
      P1  H 10192 10197       L1    10  0.98
      L1  C     4    24       P1  7921  1.00

> <Gold.PLP.Chemscore.Internal.Correction>
0.0023

> <Gold.Rescore>
     Score         DG    S(hbond)    S(metal)    S(lipo)     H(rot)  DE(clash)    DE(int)     intcor
      8.22     -12.02       3.85        0.00      34.78       4.06       3.02       0.78       ----

> <Gold.Chemscore.Fitness>
8.2157

> <Gold.Chemscore.DG>
-12.0174

> <Gold.Chemscore.ZeroCoef>
-5.4800

> <Gold.Chemscore.Hbond>
3.8510

> <Gold.Chemscore.Metal>
0.0000

> <Gold.Chemscore.Lipo>
34.7752

> <Gold.Chemscore.Internal_Hbond>
0.0000

> <Gold.Chemscore.DEClash>
3.0179

> <Gold.Chemscore.DEInternal>
0.7837

> <Gold.Chemscore.Rot>
4.0600

> <Gold.Chemscore.Internal.Correction>
   9.000000E+99

> <Gold.Chemscore.Hbonds>
donor molecule, donor type, donor heavy atom, donor atom, acceptor molecule, acceptor atom, score
      L1  H     1    23       P1  7957  0.65
      L1  H    10    27       P1  7921  1.00
      L1  H    12    28       P1  7921  0.05
      P1  H  7954  7966       L1     3  0.80
      P1  H 10192 10197       L1    10  0.51

> <Gold.Chemscore.Hbond.Weighted>
-12.8623

> <Gold.Chemscore.Metal.Weighted>
-0.0000

> <Gold.Chemscore.Lipo.Weighted>
-4.0687

> <Gold.Chemscore.Internal_Hbond.Weighted>
0.0000

> <Gold.Chemscore.DEClash.Weighted>
3.0179

> <Gold.Chemscore.DEInternal.Weighted>
0.7837

> <Gold.Chemscore.Rot.Weighted>
10.3936

> <Gold.Chemscore.Internal.Correction.Weighted>
   9.000000E+99

> <Gold.Protein.RotatedTorsions>
[ 6907 6896 6895 6894 ] final   89.03 input  -60.11 | X-H torsion
[ 7974 7965 7964 7962 ] final   36.67 input  175.53 | X-H torsion
[ 8008 7997 7996 7995 ] final   26.40 input   59.86 | X-H torsion
[ 10167 10162 10161 10158 ] final -118.21 input  -65.29 | X-H torsion
[ 10718 10713 10712 10709 ] final  152.04 input   66.30 | X-H torsion
[ 10763 10752 10751 10750 ] final   59.85 input  -60.55 | X-H torsion
[ 11005 11000 10999 10996 ] final   90.79 input  -57.11 | X-H torsion

> <Gold.Protein.ActiveResidues>
 VAL166  LYS551  ARG553  GLY616  TRP617  ASP618  TYR619  PRO620  LYS621  CYS622 
 ASP623  PHE694  ASN695  SER759  ASP760  ASP761  ALA762  ILE779  LEU786  VAL792 
 PHE793  MET794  SER795  GLU796  ALA797  LYS798  CYS799  TRP800  GLU811  SER814 

> <Gold.Protein.RotatedAtoms>
  152.5432  134.2029  159.8719 H   0  0  0  0  0  0  0  0  0  0  0  0  # atno 6907 bound_to 6896
  151.2017  133.4600  159.2604 H   0  0  0  0  0  0  0  0  0  0  0  0  # atno 6908 bound_to 6896
  151.0983  134.9969  159.8492 H   0  0  0  0  0  0  0  0  0  0  0  0  # atno 6909 bound_to 6896
  146.1194  139.5988  142.9300 H   0  0  0  0  0  0  0  0  0  0  0  0  # atno 7974 bound_to 7965
  155.0267  140.3154  155.4773 H   0  0  0  0  0  0  0  0  0  0  0  0  # atno 8008 bound_to 7997
  156.2882  140.2187  156.5329 H   0  0  0  0  0  0  0  0  0  0  0  0  # atno 8009 bound_to 7997
  154.7405  140.0474  157.0795 H   0  0  0  0  0  0  0  0  0  0  0  0  # atno 8010 bound_to 7997
  140.0600  143.4977  152.2037 H   0  0  0  0  0  0  0  0  0  0  0  0  # atno 10167 bound_to 10162
  157.2629  131.0802  151.1653 H   0  0  0  0  0  0  0  0  0  0  0  0  # atno 10718 bound_to 10713
  152.9905  135.5557  154.5779 H   0  0  0  0  0  0  0  0  0  0  0  0  # atno 10763 bound_to 10752
  154.5166  135.2805  155.1300 H   0  0  0  0  0  0  0  0  0  0  0  0  # atno 10764 bound_to 10752
  154.2670  135.6370  153.5349 H   0  0  0  0  0  0  0  0  0  0  0  0  # atno 10765 bound_to 10752
  139.8850  134.8635  156.3336 H   0  0  0  0  0  0  0  0  0  0  0  0  # atno 11005 bound_to 11000
  145.5498  141.0414  143.2284 LP  0  0  0  0  0  0  0  0  0  0  0  0  # atno 17320 bound_to 7965
  144.7583  139.7020  143.7245 LP  0  0  0  0  0  0  0  0  0  0  0  0  # atno 17321 bound_to 7965
  139.5900  144.7546  151.3425 LP  0  0  0  0  0  0  0  0  0  0  0  0  # atno 17342 bound_to 10162
  140.7176  143.7223  150.7686 LP  0  0  0  0  0  0  0  0  0  0  0  0  # atno 17343 bound_to 10162
  157.3155  130.6911  149.6240 LP  0  0  0  0  0  0  0  0  0  0  0  0  # atno 17370 bound_to 10713
  155.9664  130.4351  150.5076 LP  0  0  0  0  0  0  0  0  0  0  0  0  # atno 17371 bound_to 10713
  140.9706  133.7329  156.0529 LP  0  0  0  0  0  0  0  0  0  0  0  0  # atno 17394 bound_to 11000
  140.7875  134.3655  157.5473 LP  0  0  0  0  0  0  0  0  0  0  0  0  # atno 17395 bound_to 11000

$$$$
