AV-unprocessed.smi:787|AV-procd|sdf|3730|dock5
  -GOLD-   22720 1163D 1   1.00000     0.00000
 Structure written by MMmdl.
 46 48  0  0  0  0  0  0  0  0  1 V2000
  148.9452  141.4427  154.8754 C   0  0  0  0  0  0  0  0  0  0  0  0
  149.0264  139.9922  154.8121 N   0  0  0  0  0  0  0  0  0  0  0  0
  150.2542  139.3364  154.9796 C   0  0  0  0  0  0  0  0  0  0  0  0
  151.4052  140.0479  154.9680 N   0  0  0  0  0  0  0  0  0  0  0  0
  152.5553  139.3820  155.1348 C   0  0  0  0  0  0  0  0  0  0  0  0
  152.7522  138.0677  155.3202 N   0  0  0  0  0  0  0  0  0  0  0  0
  151.6181  137.3539  155.3338 C   0  0  0  0  0  0  0  0  0  0  0  0
  151.5239  135.9839  155.5080 N   0  0  0  0  0  0  0  0  0  0  0  0
  150.2089  135.7930  155.4406 C   0  0  0  0  0  0  0  0  0  0  0  0
  149.4319  136.8755  155.2411 N   0  0  0  0  0  0  0  0  0  0  0  0
  147.9823  136.8832  155.1387 C   0  0  0  0  0  0  0  0  0  0  0  0
  147.4097  135.5158  154.7104 C   0  0  1  0  0  0  0  0  0  0  0  0
  147.4754  134.6057  155.7907 O   0  0  0  0  0  0  0  0  0  0  0  0
  145.9370  135.6023  154.2592 C   0  0  0  0  0  0  0  0  0  0  0  0
  145.7218  135.9574  152.8549 N   0  0  0  0  0  0  0  0  0  0  0  0
  145.6333  137.4079  152.7150 C   0  0  0  0  0  0  0  0  0  0  0  0
  144.5406  135.3008  152.2873 C   0  0  0  0  0  0  0  0  0  0  0  0
  144.8722  134.1587  151.3420 C   0  0  0  0  0  0  0  0  0  0  0  0
  143.8362  133.3790  150.7849 C   0  0  0  0  0  0  0  0  0  0  0  0
  144.1409  132.3201  149.9074 C   0  0  0  0  0  0  0  0  0  0  0  0
  145.4817  132.0390  149.5818 C   0  0  0  0  0  0  0  0  0  0  0  0
  146.5181  132.8169  150.1338 C   0  0  0  0  0  0  0  0  0  0  0  0
  146.2143  133.8754  151.0122 C   0  0  0  0  0  0  0  0  0  0  0  0
  150.3277  137.9409  155.1643 C   0  0  0  0  0  0  0  0  0  0  0  0
  147.9112  141.7628  154.7488 H   0  0  0  0  0  0  0  0  0  0  0  0
  149.5432  141.8979  154.0853 H   0  0  0  0  0  0  0  0  0  0  0  0
  149.3000  141.8082  155.8396 H   0  0  0  0  0  0  0  0  0  0  0  0
  148.1847  139.4574  154.6547 H   0  0  0  0  0  0  0  0  0  0  0  0
  153.4491  139.9878  155.1168 H   0  0  0  0  0  0  0  0  0  0  0  0
  149.7829  134.8055  155.5434 H   0  0  0  0  0  0  0  0  0  0  0  0
  147.5557  137.2037  156.0883 H   0  0  0  0  0  0  0  0  0  0  0  0
  147.7041  137.6479  154.4121 H   0  0  0  0  0  0  0  0  0  0  0  0
  148.0272  135.0954  153.9174 H   0  0  0  0  0  0  0  0  0  0  0  0
  147.4261  135.0919  156.5996 H   0  0  0  0  0  0  0  0  0  0  0  0
  145.4371  134.6561  154.4727 H   0  0  0  0  0  0  0  0  0  0  0  0
  145.4446  136.3457  154.8884 H   0  0  0  0  0  0  0  0  0  0  0  0
  145.5522  137.7012  151.6681 H   0  0  0  0  0  0  0  0  0  0  0  0
  146.5249  137.8915  153.1156 H   0  0  0  0  0  0  0  0  0  0  0  0
  144.7662  137.8026  153.2467 H   0  0  0  0  0  0  0  0  0  0  0  0
  143.9292  134.8669  153.0767 H   0  0  0  0  0  0  0  0  0  0  0  0
  143.9111  136.0330  151.7792 H   0  0  0  0  0  0  0  0  0  0  0  0
  142.8061  133.5912  151.0315 H   0  0  0  0  0  0  0  0  0  0  0  0
  143.3461  131.7237  149.4840 H   0  0  0  0  0  0  0  0  0  0  0  0
  145.7150  131.2274  148.9084 H   0  0  0  0  0  0  0  0  0  0  0  0
  147.5464  132.6017  149.8835 H   0  0  0  0  0  0  0  0  0  0  0  0
  147.0146  134.4666  151.4327 H   0  0  0  0  0  0  0  0  0  0  0  0
  1  2  1  0  0  0  0
  1 25  1  0  0  0  0
  1 26  1  0  0  0  0
  1 27  1  0  0  0  0
  2  3  1  0  0  0  0
  2 28  1  0  0  0  0
  3 24  1  0  0  0  0
  3  4  2  0  0  0  0
  4  5  1  0  0  0  0
  5  6  2  0  0  0  0
  5 29  1  0  0  0  0
  6  7  1  0  0  0  0
  7 24  2  0  0  0  0
  7  8  1  0  0  0  0
  8  9  2  0  0  0  0
  9 10  1  0  0  0  0
  9 30  1  0  0  0  0
 10 11  1  0  0  0  0
 10 24  1  0  0  0  0
 11 12  1  0  0  0  0
 11 31  1  0  0  0  0
 11 32  1  0  0  0  0
 12 13  1  0  0  0  0
 12 14  1  0  0  0  0
 12 33  1  0  0  0  0
 13 34  1  0  0  0  0
 14 15  1  0  0  0  0
 14 35  1  0  0  0  0
 14 36  1  0  0  0  0
 15 16  1  0  0  0  0
 15 17  1  0  0  0  0
 16 37  1  0  0  0  0
 16 38  1  0  0  0  0
 16 39  1  0  0  0  0
 17 18  1  0  0  0  0
 17 40  1  0  0  0  0
 17 41  1  0  0  0  0
 18 23  1  0  0  0  0
 18 19  2  0  0  0  0
 19 20  1  0  0  0  0
 19 42  1  0  0  0  0
 20 21  2  0  0  0  0
 20 43  1  0  0  0  0
 21 22  1  0  0  0  0
 21 44  1  0  0  0  0
 22 23  2  0  0  0  0
 22 45  1  0  0  0  0
 23 46  1  0  0  0  0
M  END
> <s_m_source_file>
AV-unprocessed.smi

> <i_m_source_file_index>
787

> <i_lp_mmshare_version>
43012

> <i_f3d_flags>
0

> <s_epik_input>
bjFbY0hdbmMoW05IXVtDSDNdKWMoYzEyKW4oW2NIXW4yKVtDSDJdW0NASF0oW09IXSlbQ0gyXU4oW0NIM10pW0NIMl1jM1tjSF1bY0hdW2NIXVtjSF1bY0hdMw==

> <s_epik_cmdline>
J2VwaWtfcHl0aG9uJywgJy1waCcsICc3LjAnLCAnLXRuJywgJzgnLCAnLW1hJywgJzIwMCcsICctbWV0YWxfYmluZGluZycsICctaW1hZScsICc8aW5maWxlLm1hZT4nLCAnLW9tYWUnLCAnPG91dGZpbGUubWFlPic=

> <r_lp_tautomer_probability>
0.999987

> <r_epik_Ionization_Penalty>
1.52367

> <r_epik_Ionization_Penalty_Charging>
0

> <r_epik_Ionization_Penalty_Neutral>
1.52367

> <r_epik_State_Penalty>
1.60995

> <r_epik_Charging_Adjusted_Penalty>
1.60995

> <i_epik_Tot_Q>
0

> <i_epik_Tot_abs_Q>
0

> <r_epik_Metal_State_Penalty>
1.60969

> <b_epik_Metal_Only>
0

> <s_lp_Force_Field>
OPLS_2005

> <r_lp_Energy>
19.785

> <b_lp_Chiralities_Consistent>
1

> <s_lp_Variant>
AV-unprocessed.smi:787-6

> <Gold.Version>
5.8.1

> <Gold.Id.Protein>
6NUR|6NUR_protein|mol2

> <Gold.PLP.Fitness>
40.4923

> <Gold.PLP.PLP>
-37.7840

> <Gold.PLP.part.hbond>
-2.4606

> <Gold.PLP.part.metal>
0.0000

> <Gold.PLP.part.buried>
-3.6553

> <Gold.PLP.part.nonpolar>
-33.0646

> <Gold.PLP.part.repulsive>
0.3898

> <Gold.PLP.ligand.clash>
0.0000

> <Gold.PLP.ligand.torsion>
1.8655

> <Gold.PLP.Chemscore.Hbond>
2.0000

> <Gold.PLP.Chemscore.CHOScore>
0.0000

> <Gold.PLP.Chemscore.Metal>
0.0000

> <Gold.Chemscore.Hbonds>
donor molecule, donor type, donor heavy atom, donor atom, acceptor molecule, acceptor atom, score
      P1  H  7989  7998       L1     4  1.00
      P1  H 10752 10763       L1     8  1.00

> <Gold.PLP.Chemscore.Internal.Correction>
0.4393

> <Gold.Rescore>
     Score         DG    S(hbond)    S(metal)    S(lipo)     H(rot)  DE(clash)    DE(int)     intcor
      6.29      -9.31       0.74        0.00      79.47       3.11       0.01       3.00       ----

> <Gold.Chemscore.Fitness>
6.2901

> <Gold.Chemscore.DG>
-9.3058

> <Gold.Chemscore.ZeroCoef>
-5.4800

> <Gold.Chemscore.Hbond>
0.7433

> <Gold.Chemscore.Metal>
0.0000

> <Gold.Chemscore.Lipo>
79.4730

> <Gold.Chemscore.Internal_Hbond>
0.0000

> <Gold.Chemscore.DEClash>
0.0137

> <Gold.Chemscore.DEInternal>
3.0021

> <Gold.Chemscore.Rot>
3.1075

> <Gold.Chemscore.Internal.Correction>
   9.000000E+99

> <Gold.Chemscore.Hbonds>
donor molecule, donor type, donor heavy atom, donor atom, acceptor molecule, acceptor atom, score
      P1  H  7989  7998       L1     4  0.34
      P1  H 10752 10763       L1     8  0.30

> <Gold.Chemscore.Hbond.Weighted>
-2.4826

> <Gold.Chemscore.Metal.Weighted>
-0.0000

> <Gold.Chemscore.Lipo.Weighted>
-9.2983

> <Gold.Chemscore.Internal_Hbond.Weighted>
0.0000

> <Gold.Chemscore.DEClash.Weighted>
0.0137

> <Gold.Chemscore.DEInternal.Weighted>
3.0021

> <Gold.Chemscore.Rot.Weighted>
7.9551

> <Gold.Chemscore.Internal.Correction.Weighted>
   9.000000E+99

> <Gold.Protein.RotatedTorsions>
[ 6907 6896 6895 6894 ] final  118.07 input  -60.11 | X-H torsion
[ 7974 7965 7964 7962 ] final  -44.36 input  175.53 | X-H torsion
[ 8008 7997 7996 7995 ] final  127.72 input   59.86 | X-H torsion
[ 10167 10162 10161 10158 ] final -173.46 input  -65.29 | X-H torsion
[ 10718 10713 10712 10709 ] final  -93.90 input   66.30 | X-H torsion
[ 10763 10752 10751 10750 ] final   87.03 input  -60.55 | X-H torsion
[ 11005 11000 10999 10996 ] final  -71.24 input  -57.11 | X-H torsion

> <Gold.Protein.ActiveResidues>
 VAL166  LYS551  ARG553  GLY616  TRP617  ASP618  TYR619  PRO620  LYS621  CYS622 
 ASP623  PHE694  ASN695  SER759  ASP760  ASP761  ALA762  ILE779  LEU786  VAL792 
 PHE793  MET794  SER795  GLU796  ALA797  LYS798  CYS799  TRP800  GLU811  SER814 

> <Gold.Protein.RotatedAtoms>
  152.4568  133.7740  159.6814 H   0  0  0  0  0  0  0  0  0  0  0  0  # atno 6907 bound_to 6896
  150.8498  133.7795  159.3036 H   0  0  0  0  0  0  0  0  0  0  0  0  # atno 6908 bound_to 6896
  151.5394  135.1071  159.9974 H   0  0  0  0  0  0  0  0  0  0  0  0  # atno 6909 bound_to 6896
  145.9928  140.7162  142.9309 H   0  0  0  0  0  0  0  0  0  0  0  0  # atno 7974 bound_to 7965
  156.2898  140.2662  156.2318 H   0  0  0  0  0  0  0  0  0  0  0  0  # atno 8008 bound_to 7997
  155.0064  140.0387  157.2400 H   0  0  0  0  0  0  0  0  0  0  0  0  # atno 8009 bound_to 7997
  154.7556  140.2751  155.6261 H   0  0  0  0  0  0  0  0  0  0  0  0  # atno 8010 bound_to 7997
  139.5687  144.1694  152.1351 H   0  0  0  0  0  0  0  0  0  0  0  0  # atno 10167 bound_to 10162
  156.0019  130.5046  150.5846 H   0  0  0  0  0  0  0  0  0  0  0  0  # atno 10718 bound_to 10713
  153.1628  135.4558  154.9796 H   0  0  0  0  0  0  0  0  0  0  0  0  # atno 10763 bound_to 10752
  154.7910  135.3220  154.7780 H   0  0  0  0  0  0  0  0  0  0  0  0  # atno 10764 bound_to 10752
  153.8267  135.6942  153.4874 H   0  0  0  0  0  0  0  0  0  0  0  0  # atno 10765 bound_to 10752
  141.1589  133.6812  156.6876 H   0  0  0  0  0  0  0  0  0  0  0  0  # atno 11005 bound_to 11000
  144.6894  140.3098  143.7250 LP  0  0  0  0  0  0  0  0  0  0  0  0  # atno 17320 bound_to 7965
  145.7605  139.1823  143.2270 LP  0  0  0  0  0  0  0  0  0  0  0  0  # atno 17321 bound_to 7965
  140.1222  144.5363  150.6855 LP  0  0  0  0  0  0  0  0  0  0  0  0  # atno 17342 bound_to 10162
  140.6971  143.2411  151.4970 LP  0  0  0  0  0  0  0  0  0  0  0  0  # atno 17343 bound_to 10162
  157.3721  131.0767  151.1549 LP  0  0  0  0  0  0  0  0  0  0  0  0  # atno 17370 bound_to 10713
  157.2299  130.6520  149.5845 LP  0  0  0  0  0  0  0  0  0  0  0  0  # atno 17371 bound_to 10713
  140.3055  134.8129  157.4133 LP  0  0  0  0  0  0  0  0  0  0  0  0  # atno 17394 bound_to 11000
  140.1224  134.5202  155.8172 LP  0  0  0  0  0  0  0  0  0  0  0  0  # atno 17395 bound_to 11000

$$$$
