AV-unprocessed.smi:3277|AV-procd|sdf|12536|dock4
  -GOLD-   2272018453D 1   1.00000     0.00000
 Structure written by MMmdl.
 35 37  0  0  0  0  0  0  0  0  1 V2000
  150.5013  136.2319  154.9939 C   0  0  0  0  0  0  0  0  0  0  0  0
  151.1224  137.5366  154.8281 N   0  0  0  0  0  0  0  0  0  0  0  0
  152.3736  137.8319  155.2109 C   0  0  0  0  0  0  0  0  0  0  0  0
  153.1285  137.0168  155.7408 O   0  0  0  0  0  0  0  0  0  0  0  0
  152.8508  139.2622  154.9530 C   0  0  0  0  0  0  0  0  0  0  0  0
  151.9105  140.1976  155.6431 C   0  0  0  0  0  0  0  0  0  0  0  0
  152.2134  140.8532  156.7667 N   0  0  0  0  0  0  0  0  0  0  0  0
  151.1717  141.6713  157.2191 C   0  0  0  0  0  0  0  0  0  0  0  0
  151.3172  142.4891  158.4758 C   0  0  2  0  0  0  0  0  0  0  0  0
  150.1735  143.4924  158.7396 C   0  0  0  0  0  0  0  0  0  0  0  0
  150.9371  144.7953  159.0479 C   0  0  1  0  0  0  0  0  0  0  0  0
  151.7047  144.6543  160.3777 C   0  0  0  0  0  0  0  0  0  0  0  0
  152.8727  143.7189  160.0032 C   0  0  0  0  0  0  0  0  0  0  0  0
  152.5762  143.3865  158.5279 C   0  0  2  0  0  0  0  0  0  0  0  0
  152.0669  144.7369  158.0278 C   0  0  0  0  0  0  0  0  0  0  0  0
  150.0668  141.6270  156.4053 C   0  0  0  0  0  0  0  0  0  0  0  0
  150.2950  140.5613  155.0466 S   0  0  0  0  0  0  0  0  0  0  0  0
  149.4661  136.2670  154.6549 H   0  0  0  0  0  0  0  0  0  0  0  0
  150.5068  135.9274  156.0410 H   0  0  0  0  0  0  0  0  0  0  0  0
  151.0265  135.4771  154.4079 H   0  0  0  0  0  0  0  0  0  0  0  0
  150.5665  138.2623  154.3993 H   0  0  0  0  0  0  0  0  0  0  0  0
  153.8622  139.4007  155.3374 H   0  0  0  0  0  0  0  0  0  0  0  0
  152.8692  139.4784  153.8842 H   0  0  0  0  0  0  0  0  0  0  0  0
  151.3575  141.7923  159.3147 H   0  0  0  0  0  0  0  0  0  0  0  0
  149.5506  143.6304  157.8547 H   0  0  0  0  0  0  0  0  0  0  0  0
  149.5221  143.1790  159.5559 H   0  0  0  0  0  0  0  0  0  0  0  0
  150.3143  145.6885  158.9935 H   0  0  0  0  0  0  0  0  0  0  0  0
  152.0813  145.6201  160.7167 H   0  0  0  0  0  0  0  0  0  0  0  0
  151.0789  144.2414  161.1697 H   0  0  0  0  0  0  0  0  0  0  0  0
  153.8255  144.2420  160.0952 H   0  0  0  0  0  0  0  0  0  0  0  0
  152.9202  142.8326  160.6368 H   0  0  0  0  0  0  0  0  0  0  0  0
  153.4388  142.9804  157.9985 H   0  0  0  0  0  0  0  0  0  0  0  0
  151.7164  144.7222  156.9953 H   0  0  0  0  0  0  0  0  0  0  0  0
  152.7940  145.5430  158.1410 H   0  0  0  0  0  0  0  0  0  0  0  0
  149.1334  142.1576  156.5224 H   0  0  0  0  0  0  0  0  0  0  0  0
  1  2  1  0  0  0  0
  1 18  1  0  0  0  0
  1 19  1  0  0  0  0
  1 20  1  0  0  0  0
  2  3  1  0  0  0  0
  2 21  1  0  0  0  0
  3  4  2  0  0  0  0
  3  5  1  0  0  0  0
  5  6  1  0  0  0  0
  5 22  1  0  0  0  0
  5 23  1  0  0  0  0
  6 17  1  0  0  0  0
  6  7  2  0  0  0  0
  7  8  1  0  0  0  0
  8  9  1  0  0  0  0
  8 16  2  0  0  0  0
  9 14  1  0  0  0  0
  9 10  1  0  0  0  0
  9 24  1  0  0  0  0
 10 11  1  0  0  0  0
 10 25  1  0  0  0  0
 10 26  1  0  0  0  0
 11 15  1  0  0  0  0
 11 12  1  0  0  0  0
 11 27  1  0  0  0  0
 12 13  1  0  0  0  0
 12 28  1  0  0  0  0
 12 29  1  0  0  0  0
 13 14  1  0  0  0  0
 13 30  1  0  0  0  0
 13 31  1  0  0  0  0
 14 15  1  0  0  0  0
 14 32  1  0  0  0  0
 15 33  1  0  0  0  0
 15 34  1  0  0  0  0
 16 17  1  0  0  0  0
 16 35  1  0  0  0  0
M  END
> <s_m_source_file>
AV-unprocessed.smi

> <i_m_source_file_index>
3277

> <i_lp_mmshare_version>
43012

> <i_f3d_flags>
0

> <s_epik_input>
W0NIM11bTkhdQyg9TylbQ0gyXWMxbmMoW2NIXXMxKVtDQEhdKFtDSDJdW0NAQEhdMjMpW0NAQEhdKFtDSDJdMylbQ0gyXVtDSDJdMg==

> <s_epik_cmdline>
J2VwaWtfcHl0aG9uJywgJy1waCcsICc3LjAnLCAnLXRuJywgJzgnLCAnLW1hJywgJzIwMCcsICctbWV0YWxfYmluZGluZycsICctaW1hZScsICc8aW5maWxlLm1hZT4nLCAnLW9tYWUnLCAnPG91dGZpbGUubWFlPic=

> <r_lp_tautomer_probability>
1

> <r_epik_Ionization_Penalty>
8.50008e-05

> <r_epik_Ionization_Penalty_Charging>
0

> <r_epik_Ionization_Penalty_Neutral>
8.50008e-05

> <r_epik_State_Penalty>
-0

> <r_epik_Charging_Adjusted_Penalty>
0

> <i_epik_Tot_Q>
0

> <i_epik_Tot_abs_Q>
0

> <r_epik_Metal_State_Penalty>
-0

> <b_epik_Metal_Only>
0

> <s_lp_Force_Field>
OPLS_2005

> <r_lp_Energy>
44.9061

> <b_lp_Chiralities_Consistent>
1

> <s_lp_Variant>
AV-unprocessed.smi:3277-1

> <Gold.Version>
5.8.1

> <Gold.Id.Protein>
6NUR|6NUR_protein|mol2

> <Gold.PLP.Fitness>
45.6571

> <Gold.PLP.PLP>
-40.1435

> <Gold.PLP.part.hbond>
-1.2197

> <Gold.PLP.part.metal>
0.0000

> <Gold.PLP.part.buried>
-2.6256

> <Gold.PLP.part.nonpolar>
-36.2419

> <Gold.PLP.part.repulsive>
0.0542

> <Gold.PLP.ligand.clash>
0.0000

> <Gold.PLP.ligand.torsion>
0.3088

> <Gold.PLP.Chemscore.Hbond>
1.0429

> <Gold.PLP.Chemscore.CHOScore>
1.0000

> <Gold.PLP.Chemscore.Metal>
0.0000

> <Gold.Chemscore.Hbonds>
donor molecule, donor type, donor heavy atom, donor atom, acceptor molecule, acceptor atom, score
      P1  H  7997  8008       L1     7  0.14
      P1  H 10752 10765       L1     4  0.45
      L1  C    16    35       P1  8028  0.44

> <Gold.PLP.Chemscore.Internal.Correction>
0.0026

> <Gold.Rescore>
     Score         DG    S(hbond)    S(metal)    S(lipo)     H(rot)  DE(clash)    DE(int)     intcor
     18.74     -19.09       1.01        0.00     118.47       1.41       0.12       0.23       ----

> <Gold.Chemscore.Fitness>
18.7440

> <Gold.Chemscore.DG>
-19.0941

> <Gold.Chemscore.ZeroCoef>
-5.4800

> <Gold.Chemscore.Hbond>
1.0086

> <Gold.Chemscore.Metal>
0.0000

> <Gold.Chemscore.Lipo>
118.4666

> <Gold.Chemscore.Internal_Hbond>
0.0000

> <Gold.Chemscore.DEClash>
0.1158

> <Gold.Chemscore.DEInternal>
0.2343

> <Gold.Chemscore.Rot>
1.4122

> <Gold.Chemscore.Internal.Correction>
   9.000000E+99

> <Gold.Chemscore.Hbonds>
donor molecule, donor type, donor heavy atom, donor atom, acceptor molecule, acceptor atom, score
      P1  H  7997  8008       L1     7  0.01
      P1  H 10752 10765       L1     4  0.34

> <Gold.Chemscore.Hbond.Weighted>
-3.3686

> <Gold.Chemscore.Metal.Weighted>
-0.0000

> <Gold.Chemscore.Lipo.Weighted>
-13.8606

> <Gold.Chemscore.Internal_Hbond.Weighted>
0.0000

> <Gold.Chemscore.DEClash.Weighted>
0.1158

> <Gold.Chemscore.DEInternal.Weighted>
0.2343

> <Gold.Chemscore.Rot.Weighted>
3.6151

> <Gold.Chemscore.Internal.Correction.Weighted>
   9.000000E+99

> <Gold.Protein.RotatedTorsions>
[ 6907 6896 6895 6894 ] final   93.34 input  -60.11 | X-H torsion
[ 7974 7965 7964 7962 ] final  154.18 input  175.53 | X-H torsion
[ 8008 7997 7996 7995 ] final  -58.66 input   59.86 | X-H torsion
[ 10167 10162 10161 10158 ] final  -89.68 input  -65.29 | X-H torsion
[ 10718 10713 10712 10709 ] final  -54.01 input   66.30 | X-H torsion
[ 10763 10752 10751 10750 ] final -159.41 input  -60.55 | X-H torsion
[ 11005 11000 10999 10996 ] final  -10.21 input  -57.11 | X-H torsion

> <Gold.Protein.ActiveResidues>
 VAL166  LYS551  ARG553  GLY616  TRP617  ASP618  TYR619  PRO620  LYS621  CYS622 
 ASP623  PHE694  ASN695  SER759  ASP760  ASP761  ALA762  ILE779  LEU786  VAL792 
 PHE793  MET794  SER795  GLU796  ALA797  LYS798  CYS799  TRP800  GLU811  SER814 

> <Gold.Protein.RotatedAtoms>
  152.5452  134.1363  159.8459 H   0  0  0  0  0  0  0  0  0  0  0  0  # atno 6907 bound_to 6896
  151.1404  133.4968  159.2604 H   0  0  0  0  0  0  0  0  0  0  0  0  # atno 6908 bound_to 6896
  151.1579  135.0269  159.8752 H   0  0  0  0  0  0  0  0  0  0  0  0  # atno 6909 bound_to 6896
  144.8105  139.6899  143.6143 H   0  0  0  0  0  0  0  0  0  0  0  0  # atno 7974 bound_to 7965
  154.4318  140.1079  156.5992 H   0  0  0  0  0  0  0  0  0  0  0  0  # atno 8008 bound_to 7997
  155.5929  140.3492  155.4553 H   0  0  0  0  0  0  0  0  0  0  0  0  # atno 8009 bound_to 7997
  156.0233  140.1244  157.0324 H   0  0  0  0  0  0  0  0  0  0  0  0  # atno 8010 bound_to 7997
  140.3624  143.2835  151.9598 H   0  0  0  0  0  0  0  0  0  0  0  0  # atno 10167 bound_to 10162
  156.1487  130.4152  149.9981 H   0  0  0  0  0  0  0  0  0  0  0  0  # atno 10718 bound_to 10713
  154.7477  135.3084  154.8615 H   0  0  0  0  0  0  0  0  0  0  0  0  # atno 10763 bound_to 10752
  153.9411  135.6774  153.4748 H   0  0  0  0  0  0  0  0  0  0  0  0  # atno 10764 bound_to 10752
  153.1073  135.4883  154.8901 H   0  0  0  0  0  0  0  0  0  0  0  0  # atno 10765 bound_to 10752
  140.7423  133.8660  155.8978 H   0  0  0  0  0  0  0  0  0  0  0  0  # atno 11005 bound_to 11000
  146.2403  139.5988  142.9496 LP  0  0  0  0  0  0  0  0  0  0  0  0  # atno 17320 bound_to 7965
  145.5334  141.0425  143.2370 LP  0  0  0  0  0  0  0  0  0  0  0  0  # atno 17321 bound_to 7965
  139.4812  144.5980  151.7655 LP  0  0  0  0  0  0  0  0  0  0  0  0  # atno 17342 bound_to 10162
  140.5113  144.1020  150.5996 LP  0  0  0  0  0  0  0  0  0  0  0  0  # atno 17343 bound_to 10162
  156.7846  130.9233  151.3646 LP  0  0  0  0  0  0  0  0  0  0  0  0  # atno 17370 bound_to 10713
  157.6638  130.8990  149.9888 LP  0  0  0  0  0  0  0  0  0  0  0  0  # atno 17371 bound_to 10713
  140.9825  134.1386  157.4481 LP  0  0  0  0  0  0  0  0  0  0  0  0  # atno 17394 bound_to 11000
  139.8803  135.0015  156.6071 LP  0  0  0  0  0  0  0  0  0  0  0  0  # atno 17395 bound_to 11000

$$$$
