AV-unprocessed.smi:1410|AV-procd|sdf|5737|dock9
  -GOLD-   22720 5373D 1   1.00000     0.00000
 Structure written by MMmdl.
 40 41  0  0  0  0  0  0  0  0  4 V2000
  153.3001  134.6686  161.5317 N   0  5  0  0  0  0  0  0  0  0  0  0
  154.2794  134.6167  162.4546 C   0  0  0  0  0  0  0  0  0  0  0  0
  154.2803  134.0060  163.5215 O   0  0  0  0  0  0  0  0  0  0  0  0
  155.4951  135.4656  162.0672 C   0  0  0  0  0  0  0  0  0  0  0  0
  155.0834  136.8718  161.8300 N   0  3  2  0  0  0  0  0  0  0  0  0
  156.1319  137.6820  161.1534 C   0  0  0  0  0  0  0  0  0  0  0  0
  155.6097  139.0859  160.8076 C   0  0  0  0  0  0  0  0  0  0  0  0
  155.0989  139.8115  162.0621 C   0  0  1  0  0  0  0  0  0  0  0  0
  154.5399  141.1082  161.6907 N   0  0  0  0  0  0  0  0  0  0  0  0
  153.5780  141.3009  160.7766 C   0  0  0  0  0  0  0  0  0  0  0  0
  153.0713  140.3898  160.1223 O   0  0  0  0  0  0  0  0  0  0  0  0
  153.2662  142.6038  160.6635 N   0  0  0  0  0  0  0  0  0  0  0  0
  152.2779  143.2077  159.8391 C   0  0  0  0  0  0  0  0  0  0  0  0
  151.4165  142.3528  159.1162 C   0  0  0  0  0  0  0  0  0  0  0  0
  150.4328  142.9081  158.2726 C   0  0  0  0  0  0  0  0  0  0  0  0
  150.3279  144.2490  158.1537 N   0  3  0  0  0  0  0  0  0  0  0  0
  151.1377  145.1057  158.8120 C   0  0  0  0  0  0  0  0  0  0  0  0
  152.1400  144.6091  159.6701 C   0  0  0  0  0  0  0  0  0  0  0  0
  154.0454  138.9388  162.7681 C   0  0  0  0  0  0  0  0  0  0  0  0
  154.5966  137.5340  163.0668 C   0  0  0  0  0  0  0  0  0  0  0  0
  153.5226  135.0308  160.5965 H   0  0  0  0  0  0  0  0  0  0  0  0
  156.1924  135.4173  162.9046 H   0  0  0  0  0  0  0  0  0  0  0  0
  156.0273  135.0719  161.1983 H   0  0  0  0  0  0  0  0  0  0  0  0
  157.0088  137.7557  161.7986 H   0  0  0  0  0  0  0  0  0  0  0  0
  156.4578  137.1907  160.2365 H   0  0  0  0  0  0  0  0  0  0  0  0
  156.4030  139.6666  160.3353 H   0  0  0  0  0  0  0  0  0  0  0  0
  154.8079  139.0015  160.0721 H   0  0  0  0  0  0  0  0  0  0  0  0
  155.9445  139.9643  162.7357 H   0  0  0  0  0  0  0  0  0  0  0  0
  154.9044  141.9149  162.1762 H   0  0  0  0  0  0  0  0  0  0  0  0
  153.8343  143.2444  161.1985 H   0  0  0  0  0  0  0  0  0  0  0  0
  151.5011  141.2795  159.2087 H   0  0  0  0  0  0  0  0  0  0  0  0
  149.7334  142.3240  157.6925 H   0  0  0  0  0  0  0  0  0  0  0  0
  150.9657  146.1564  158.6290 H   0  0  0  0  0  0  0  0  0  0  0  0
  152.7899  145.3114  160.1697 H   0  0  0  0  0  0  0  0  0  0  0  0
  153.7254  139.4105  163.6979 H   0  0  0  0  0  0  0  0  0  0  0  0
  153.1550  138.8520  162.1431 H   0  0  0  0  0  0  0  0  0  0  0  0
  153.8097  136.9317  163.5225 H   0  0  0  0  0  0  0  0  0  0  0  0
  155.4101  137.5947  163.7915 H   0  0  0  0  0  0  0  0  0  0  0  0
  154.2947  136.8236  161.2006 H   0  0  0  0  0  0  0  0  0  0  0  0
  149.6103  144.6309  157.5367 H   0  0  0  0  0  0  0  0  0  0  0  0
  1  2  1  0  0  0  0
  1 21  1  0  0  0  0
  2  3  2  0  0  0  0
  2  4  1  0  0  0  0
  4  5  1  0  0  0  0
  4 22  1  0  0  0  0
  4 23  1  0  0  0  0
  5 20  1  0  0  0  0
  5  6  1  0  0  0  0
  5 39  1  0  0  0  0
  6  7  1  0  0  0  0
  6 24  1  0  0  0  0
  6 25  1  0  0  0  0
  7  8  1  0  0  0  0
  7 26  1  0  0  0  0
  7 27  1  0  0  0  0
  8  9  1  0  0  0  0
  8 19  1  0  0  0  0
  8 28  1  0  0  0  0
  9 10  1  0  0  0  0
  9 29  1  0  0  0  0
 10 11  2  0  0  0  0
 10 12  1  0  0  0  0
 12 13  1  0  0  0  0
 12 30  1  0  0  0  0
 13 18  1  0  0  0  0
 13 14  2  0  0  0  0
 14 15  1  0  0  0  0
 14 31  1  0  0  0  0
 15 16  2  0  0  0  0
 15 32  1  0  0  0  0
 16 17  1  0  0  0  0
 16 40  1  0  0  0  0
 17 18  2  0  0  0  0
 17 33  1  0  0  0  0
 18 34  1  0  0  0  0
 19 20  1  0  0  0  0
 19 35  1  0  0  0  0
 19 36  1  0  0  0  0
 20 37  1  0  0  0  0
 20 38  1  0  0  0  0
M  CHG  1   1  -1
M  CHG  1   5   1
M  CHG  1  16   1
M  END
> <s_m_source_file>
AV-unprocessed.smi

> <i_m_source_file_index>
1410

> <i_lp_mmshare_version>
43012

> <i_f3d_flags>
0

> <s_epik_input>
W05IMl1DKD1PKVtDSDJdTjFbQ0gyXVtDSDJdW0NIXShbQ0gyXVtDSDJdMSlbTkhdQyg9TylbTkhdYzJbY0hdW2NIXW5bY0hdW2NIXTI=

> <s_epik_cmdline>
J2VwaWtfcHl0aG9uJywgJy1waCcsICc3LjAnLCAnLXRuJywgJzgnLCAnLW1hJywgJzIwMCcsICctbWV0YWxfYmluZGluZycsICctaW1hZScsICc8aW5maWxlLm1hZT4nLCAnLW9tYWUnLCAnPG91dGZpbGUubWFlPic=

> <r_epik_Ionization_Penalty>
6.84067

> <r_epik_Ionization_Penalty_Charging>
6.84065

> <r_epik_Ionization_Penalty_Neutral>
1.84563e-05

> <r_epik_State_Penalty>
7.68217

> <r_epik_Charging_Adjusted_Penalty>
14.5228

> <i_epik_Tot_Q>
1

> <i_epik_Tot_abs_Q>
3

> <r_epik_Metal_State_Penalty>
3.74331

> <b_epik_Metal_Only>
1

> <s_lp_Force_Field>
OPLS_2005

> <r_lp_Energy>
19.1226

> <b_lp_Chiralities_Consistent>
1

> <s_lp_Variant>
AV-unprocessed.smi:1410-9

> <Gold.Version>
5.8.1

> <Gold.Id.Protein>
6NUR|6NUR_protein|mol2

> <Gold.PLP.Fitness>
44.9828

> <Gold.PLP.PLP>
-33.1835

> <Gold.PLP.part.hbond>
-3.0000

> <Gold.PLP.part.metal>
0.0000

> <Gold.PLP.part.buried>
-6.0014

> <Gold.PLP.part.nonpolar>
-24.8414

> <Gold.PLP.part.repulsive>
0.0875

> <Gold.PLP.ligand.clash>
0.0000

> <Gold.PLP.ligand.torsion>
0.1110

> <Gold.PLP.Chemscore.Hbond>
4.0000

> <Gold.PLP.Chemscore.CHOScore>
0.0000

> <Gold.PLP.Chemscore.Metal>
0.0000

> <Gold.Chemscore.Hbonds>
donor molecule, donor type, donor heavy atom, donor atom, acceptor molecule, acceptor atom, score
      L1  H    16    40       P1  8028  0.96

> <Gold.PLP.Chemscore.Internal.Correction>
0.0212

> <Gold.Rescore>
     Score         DG    S(hbond)    S(metal)    S(lipo)     H(rot)  DE(clash)    DE(int)     intcor
     14.27     -16.84       1.92        0.00      85.18       1.96       0.01       2.56       ----

> <Gold.Chemscore.Fitness>
14.2743

> <Gold.Chemscore.DG>
-16.8429

> <Gold.Chemscore.ZeroCoef>
-5.4800

> <Gold.Chemscore.Hbond>
1.9215

> <Gold.Chemscore.Metal>
0.0000

> <Gold.Chemscore.Lipo>
85.1787

> <Gold.Chemscore.Internal_Hbond>
0.0000

> <Gold.Chemscore.DEClash>
0.0093

> <Gold.Chemscore.DEInternal>
2.5593

> <Gold.Chemscore.Rot>
1.9612

> <Gold.Chemscore.Internal.Correction>
   9.000000E+99

> <Gold.Chemscore.Hbonds>
donor molecule, donor type, donor heavy atom, donor atom, acceptor molecule, acceptor atom, score
      L1  H    16    40       P1  8028  0.02

> <Gold.Chemscore.Hbond.Weighted>
-6.4178

> <Gold.Chemscore.Metal.Weighted>
-0.0000

> <Gold.Chemscore.Lipo.Weighted>
-9.9659

> <Gold.Chemscore.Internal_Hbond.Weighted>
0.0000

> <Gold.Chemscore.DEClash.Weighted>
0.0093

> <Gold.Chemscore.DEInternal.Weighted>
2.5593

> <Gold.Chemscore.Rot.Weighted>
5.0208

> <Gold.Chemscore.Internal.Correction.Weighted>
   9.000000E+99

> <Gold.Protein.RotatedTorsions>
[ 6907 6896 6895 6894 ] final -163.86 input  -60.11 | X-H torsion
[ 7974 7965 7964 7962 ] final   75.87 input  175.53 | X-H torsion
[ 8008 7997 7996 7995 ] final  109.85 input   59.86 | X-H torsion
[ 10167 10162 10161 10158 ] final -108.67 input  -65.29 | X-H torsion
[ 10718 10713 10712 10709 ] final  149.15 input   66.30 | X-H torsion
[ 10763 10752 10751 10750 ] final -169.11 input  -60.55 | X-H torsion
[ 11005 11000 10999 10996 ] final -143.15 input  -57.11 | X-H torsion

> <Gold.Protein.ActiveResidues>
 VAL166  LYS551  ARG553  GLY616  TRP617  ASP618  TYR619  PRO620  LYS621  CYS622 
 ASP623  PHE694  ASN695  SER759  ASP760  ASP761  ALA762  ILE779  LEU786  VAL792 
 PHE793  MET794  SER795  GLU796  ALA797  LYS798  CYS799  TRP800  GLU811  SER814 

> <Gold.Protein.RotatedAtoms>
  151.4027  133.3752  159.2733 H   0  0  0  0  0  0  0  0  0  0  0  0  # atno 6907 bound_to 6896
  150.9422  134.8831  159.7630 H   0  0  0  0  0  0  0  0  0  0  0  0  # atno 6908 bound_to 6896
  152.5076  134.3978  159.9458 H   0  0  0  0  0  0  0  0  0  0  0  0  # atno 6909 bound_to 6896
  145.7101  139.2611  143.1656 H   0  0  0  0  0  0  0  0  0  0  0  0  # atno 7974 bound_to 7965
  156.2010  140.3050  155.9526 H   0  0  0  0  0  0  0  0  0  0  0  0  # atno 8008 bound_to 7997
  155.2954  140.0444  157.3043 H   0  0  0  0  0  0  0  0  0  0  0  0  # atno 8009 bound_to 7997
  154.5570  140.2309  155.8403 H   0  0  0  0  0  0  0  0  0  0  0  0  # atno 8010 bound_to 7997
  140.1637  143.4099  152.1407 H   0  0  0  0  0  0  0  0  0  0  0  0  # atno 10167 bound_to 10162
  157.2997  131.0868  151.1399 H   0  0  0  0  0  0  0  0  0  0  0  0  # atno 10718 bound_to 10713
  154.6557  135.2917  154.9930 H   0  0  0  0  0  0  0  0  0  0  0  0  # atno 10763 bound_to 10752
  154.1008  135.6577  153.4872 H   0  0  0  0  0  0  0  0  0  0  0  0  # atno 10764 bound_to 10752
  153.0401  135.5242  154.7485 H   0  0  0  0  0  0  0  0  0  0  0  0  # atno 10765 bound_to 10752
  140.8154  134.2694  157.4923 H   0  0  0  0  0  0  0  0  0  0  0  0  # atno 11005 bound_to 11000
  146.0720  140.7858  142.9683 LP  0  0  0  0  0  0  0  0  0  0  0  0  # atno 17320 bound_to 7965
  144.6944  140.3357  143.7208 LP  0  0  0  0  0  0  0  0  0  0  0  0  # atno 17321 bound_to 7965
  139.5369  144.7219  151.4862 LP  0  0  0  0  0  0  0  0  0  0  0  0  # atno 17342 bound_to 10162
  140.6627  143.8464  150.6906 LP  0  0  0  0  0  0  0  0  0  0  0  0  # atno 17343 bound_to 10162
  157.2763  130.6728  149.6044 LP  0  0  0  0  0  0  0  0  0  0  0  0  # atno 17370 bound_to 10713
  155.9671  130.4463  150.5537 LP  0  0  0  0  0  0  0  0  0  0  0  0  # atno 17371 bound_to 10713
  139.8711  134.9506  156.4061 LP  0  0  0  0  0  0  0  0  0  0  0  0  # atno 17394 bound_to 11000
  140.9154  133.7682  155.9842 LP  0  0  0  0  0  0  0  0  0  0  0  0  # atno 17395 bound_to 11000

$$$$
