AV-unprocessed.smi:99|AV-procd|sdf|877|dock3
  -GOLD-   2262017343D 1   1.00000     0.00000
 Structure written by MMmdl.
 53 56  0  0  0  0  0  0  0  0  1 V2000
  147.4160  131.7142  159.7807 O   0  0  0  0  0  0  0  0  0  0  0  0
  147.6707  132.9124  159.6412 C   0  0  0  0  0  0  0  0  0  0  0  0
  148.2194  133.4335  158.5270 O   0  0  0  0  0  0  0  0  0  0  0  0
  148.6515  132.5791  157.4818 C   0  0  0  0  0  0  0  0  0  0  0  0
  149.5415  133.3813  156.5176 C   0  0  2  0  0  0  0  0  0  0  0  0
  150.0830  134.4979  157.2242 O   0  0  0  0  0  0  0  0  0  0  0  0
  149.3971  135.6805  156.9169 C   0  0  1  0  0  0  0  0  0  0  0  0
  150.3630  136.6657  156.2955 N   0  0  0  0  0  0  0  0  0  0  0  0
  150.2691  137.0367  154.9599 C   0  0  0  0  0  0  0  0  0  0  0  0
  151.1055  137.9306  154.3812 C   0  0  0  0  0  0  0  0  0  0  0  0
  152.1660  138.5633  155.1582 C   0  0  0  0  0  0  0  0  0  0  0  0
  152.9730  139.3810  154.7218 O   0  0  0  0  0  0  0  0  0  0  0  0
  152.2151  138.1718  156.4990 N   0  0  0  0  0  0  0  0  0  0  0  0
  151.3559  137.2560  157.1082 C   0  0  0  0  0  0  0  0  0  0  0  0
  151.4770  137.0006  158.3056 O   0  0  0  0  0  0  0  0  0  0  0  0
  148.2809  135.3418  155.9183 C   0  0  2  0  0  0  0  0  0  0  0  0
  147.0388  135.2085  156.5841 O   0  0  0  0  0  0  0  0  0  0  0  0
  148.7934  134.0265  155.3503 C   0  0  2  0  0  0  0  0  0  0  0  0
  147.7830  133.2163  154.7594 O   0  0  0  0  0  0  0  0  0  0  0  0
  148.1012  132.0767  154.1094 C   0  0  0  0  0  0  0  0  0  0  0  0
  149.0984  131.3991  154.3660 O   0  0  0  0  0  0  0  0  0  0  0  0
  147.1218  131.7279  153.0408 C   0  0  0  0  0  0  0  0  0  0  0  0
  146.7231  130.3804  152.8789 C   0  0  0  0  0  0  0  0  0  0  0  0
  145.8027  130.0202  151.8755 C   0  0  0  0  0  0  0  0  0  0  0  0
  145.2700  131.0034  151.0216 C   0  0  0  0  0  0  0  0  0  0  0  0
  145.6583  132.3474  151.1725 C   0  0  0  0  0  0  0  0  0  0  0  0
  146.5784  132.7096  152.1755 C   0  0  0  0  0  0  0  0  0  0  0  0
  147.4068  133.9384  160.6908 C   0  0  0  0  0  0  0  0  0  0  0  0
  147.5786  135.3076  160.3806 C   0  0  0  0  0  0  0  0  0  0  0  0
  147.3368  136.2985  161.3520 C   0  0  0  0  0  0  0  0  0  0  0  0
  146.9221  135.9323  162.6455 C   0  0  0  0  0  0  0  0  0  0  0  0
  146.7489  134.5736  162.9670 C   0  0  0  0  0  0  0  0  0  0  0  0
  146.9890  133.5812  161.9968 C   0  0  0  0  0  0  0  0  0  0  0  0
  152.9287  138.5916  157.0770 H   0  0  0  0  0  0  0  0  0  0  0  0
  149.2191  131.7543  157.9148 H   0  0  0  0  0  0  0  0  0  0  0  0
  147.7911  132.1529  156.9654 H   0  0  0  0  0  0  0  0  0  0  0  0
  150.3431  132.7439  156.1430 H   0  0  0  0  0  0  0  0  0  0  0  0
  149.0481  136.1372  157.8453 H   0  0  0  0  0  0  0  0  0  0  0  0
  149.4978  136.6079  154.3376 H   0  0  0  0  0  0  0  0  0  0  0  0
  150.9875  138.1809  153.3368 H   0  0  0  0  0  0  0  0  0  0  0  0
  148.1839  136.1124  155.1524 H   0  0  0  0  0  0  0  0  0  0  0  0
  147.1623  135.4248  157.4958 H   0  0  0  0  0  0  0  0  0  0  0  0
  149.5462  134.2591  154.5952 H   0  0  0  0  0  0  0  0  0  0  0  0
  147.1193  129.6079  153.5223 H   0  0  0  0  0  0  0  0  0  0  0  0
  145.5062  128.9879  151.7607 H   0  0  0  0  0  0  0  0  0  0  0  0
  144.5651  130.7269  150.2513 H   0  0  0  0  0  0  0  0  0  0  0  0
  145.2503  133.1027  150.5172 H   0  0  0  0  0  0  0  0  0  0  0  0
  146.8557  133.7501  152.2626 H   0  0  0  0  0  0  0  0  0  0  0  0
  147.8957  135.6134  159.3940 H   0  0  0  0  0  0  0  0  0  0  0  0
  147.4694  137.3411  161.1034 H   0  0  0  0  0  0  0  0  0  0  0  0
  146.7369  136.6924  163.3902 H   0  0  0  0  0  0  0  0  0  0  0  0
  146.4312  134.2910  163.9597 H   0  0  0  0  0  0  0  0  0  0  0  0
  146.8483  132.5477  162.2777 H   0  0  0  0  0  0  0  0  0  0  0  0
  1  2  2  0  0  0  0
  2  3  1  0  0  0  0
  2 28  1  0  0  0  0
  3  4  1  0  0  0  0
  4  5  1  0  0  0  0
  4 35  1  0  0  0  0
  4 36  1  0  0  0  0
  5 18  1  0  0  0  0
  5  6  1  0  0  0  0
  5 37  1  0  0  0  0
  6  7  1  0  0  0  0
  7  8  1  0  0  0  0
  7 16  1  0  0  0  0
  7 38  1  0  0  0  0
  8 14  1  0  0  0  0
  8  9  1  0  0  0  0
  9 10  2  0  0  0  0
  9 39  1  0  0  0  0
 10 11  1  0  0  0  0
 10 40  1  0  0  0  0
 11 12  2  0  0  0  0
 11 13  1  0  0  0  0
 13 34  1  0  0  0  0
 13 14  1  0  0  0  0
 14 15  2  0  0  0  0
 16 17  1  0  0  0  0
 16 18  1  0  0  0  0
 16 41  1  0  0  0  0
 17 42  1  0  0  0  0
 18 19  1  0  0  0  0
 18 43  1  0  0  0  0
 19 20  1  0  0  0  0
 20 21  2  0  0  0  0
 20 22  1  0  0  0  0
 22 27  1  0  0  0  0
 22 23  2  0  0  0  0
 23 24  1  0  0  0  0
 23 44  1  0  0  0  0
 24 25  2  0  0  0  0
 24 45  1  0  0  0  0
 25 26  1  0  0  0  0
 25 46  1  0  0  0  0
 26 27  2  0  0  0  0
 26 47  1  0  0  0  0
 27 48  1  0  0  0  0
 28 33  1  0  0  0  0
 28 29  2  0  0  0  0
 29 30  1  0  0  0  0
 29 49  1  0  0  0  0
 30 31  2  0  0  0  0
 30 50  1  0  0  0  0
 31 32  1  0  0  0  0
 31 51  1  0  0  0  0
 32 33  2  0  0  0  0
 32 52  1  0  0  0  0
 33 53  1  0  0  0  0
M  END
> <s_m_source_file>
AV-unprocessed.smi

> <i_m_source_file_index>
99

> <i_lp_mmshare_version>
43012

> <i_f3d_flags>
0

> <s_epik_input>
W2NIXTFbY0hdW2NIXVtjSF1bY0hdYzFDKD1PKU9bQ0gyXVtDQEBIXTJPW0NAQEhdKG4zW2NIXVtjSF1jKD1PKVtuSF1jMz1PKVtDQEBIXShbT0hdKVtDQEhdMk9DKD1PKWM0W2NIXVtjSF1bY0hdW2NIXVtjSF00

> <s_epik_cmdline>
J2VwaWtfcHl0aG9uJywgJy1waCcsICc3LjAnLCAnLXRuJywgJzgnLCAnLW1hJywgJzIwMCcsICctbWV0YWxfYmluZGluZycsICctaW1hZScsICc8aW5maWxlLm1hZT4nLCAnLW9tYWUnLCAnPG91dGZpbGUubWFlPic=

> <r_lp_tautomer_probability>
1

> <r_epik_Ionization_Penalty>
0.00454555

> <r_epik_Ionization_Penalty_Charging>
0.0045191

> <r_epik_Ionization_Penalty_Neutral>
2.64449e-05

> <r_epik_State_Penalty>
-0

> <r_epik_Charging_Adjusted_Penalty>
0.0045191

> <i_epik_Tot_Q>
0

> <i_epik_Tot_abs_Q>
0

> <r_epik_Metal_State_Penalty>
1.27877

> <b_epik_Metal_Only>
0

> <s_epik_Chemistry_Notes>
This compound has an ester and may undergo hydrolysis at high or low pH. This compound contains an acetal/aminal-like group ( X-CH(R)-Y where X, Y are N, S, or O) that may be acid/base labile, releasing an aldehyde.

> <s_lp_Force_Field>
OPLS_2005

> <r_lp_Energy>
39.429

> <b_lp_Chiralities_Consistent>
1

> <s_lp_Variant>
AV-unprocessed.smi:99-13

> <Gold.Version>
5.8.1

> <Gold.Id.Protein>
6NUR|6NUR_protein|mol2

> <Gold.PLP.Fitness>
57.1028

> <Gold.PLP.PLP>
-53.7925

> <Gold.PLP.part.hbond>
-2.5558

> <Gold.PLP.part.metal>
0.0000

> <Gold.PLP.part.buried>
-7.4831

> <Gold.PLP.part.nonpolar>
-45.6910

> <Gold.PLP.part.repulsive>
0.2777

> <Gold.PLP.ligand.clash>
0.0000

> <Gold.PLP.ligand.torsion>
1.7607

> <Gold.PLP.Chemscore.Hbond>
1.2116

> <Gold.PLP.Chemscore.CHOScore>
0.9864

> <Gold.PLP.Chemscore.Metal>
0.0000

> <Gold.Chemscore.Hbonds>
donor molecule, donor type, donor heavy atom, donor atom, acceptor molecule, acceptor atom, score
      P1  H  6896  6907       L1     6  0.33
      P1  H  7989  7998       L1    12  0.14
      P1  H  7997  8009       L1    12  0.76
      L1  C     9    39       P1  7948  0.98

> <Gold.PLP.Chemscore.Internal.Correction>
0.2377

> <Gold.Rescore>
     Score         DG    S(hbond)    S(metal)    S(lipo)     H(rot)  DE(clash)    DE(int)     intcor
     14.81     -18.02       2.09        0.00     117.36       3.19       0.02       3.19       ----

> <Gold.Chemscore.Fitness>
14.8057

> <Gold.Chemscore.DG>
-18.0173

> <Gold.Chemscore.ZeroCoef>
-5.4800

> <Gold.Chemscore.Hbond>
2.0880

> <Gold.Chemscore.Metal>
0.0000

> <Gold.Chemscore.Lipo>
117.3552

> <Gold.Chemscore.Internal_Hbond>
0.0000

> <Gold.Chemscore.DEClash>
0.0178

> <Gold.Chemscore.DEInternal>
3.1938

> <Gold.Chemscore.Rot>
3.1903

> <Gold.Chemscore.Internal.Correction>
   9.000000E+99

> <Gold.Chemscore.Hbonds>
donor molecule, donor type, donor heavy atom, donor atom, acceptor molecule, acceptor atom, score
      P1  H  6896  6907       L1     6  0.25
      P1  H  6896  6908       L1    15  0.02
      P1  H  7989  7998       L1    12  0.07
      P1  H  7997  8009       L1    12  0.71

> <Gold.Chemscore.Hbond.Weighted>
-6.9739

> <Gold.Chemscore.Metal.Weighted>
-0.0000

> <Gold.Chemscore.Lipo.Weighted>
-13.7306

> <Gold.Chemscore.Internal_Hbond.Weighted>
0.0000

> <Gold.Chemscore.DEClash.Weighted>
0.0178

> <Gold.Chemscore.DEInternal.Weighted>
3.1938

> <Gold.Chemscore.Rot.Weighted>
8.1671

> <Gold.Chemscore.Internal.Correction.Weighted>
   9.000000E+99

> <Gold.Protein.RotatedTorsions>
[ 6907 6896 6895 6894 ] final -119.20 input  -60.11 | X-H torsion
[ 7974 7965 7964 7962 ] final  146.55 input  175.53 | X-H torsion
[ 8008 7997 7996 7995 ] final -111.20 input   59.86 | X-H torsion
[ 10167 10162 10161 10158 ] final   14.46 input  -65.29 | X-H torsion
[ 10718 10713 10712 10709 ] final  -37.04 input   66.30 | X-H torsion
[ 10763 10752 10751 10750 ] final   44.02 input  -60.55 | X-H torsion
[ 11005 11000 10999 10996 ] final   21.09 input  -57.11 | X-H torsion

> <Gold.Protein.ActiveResidues>
 VAL166  LYS551  ARG553  GLY616  TRP617  ASP618  TYR619  PRO620  LYS621  CYS622 
 ASP623  PHE694  ASN695  SER759  ASP760  ASP761  ALA762  ILE779  LEU786  VAL792 
 PHE793  MET794  SER795  GLU796  ALA797  LYS798  CYS799  TRP800  GLU811  SER814 

> <Gold.Protein.RotatedAtoms>
  150.8285  133.8131  159.3108 H   0  0  0  0  0  0  0  0  0  0  0  0  # atno 6907 bound_to 6896
  151.5868  135.1054  160.0039 H   0  0  0  0  0  0  0  0  0  0  0  0  # atno 6908 bound_to 6896
  152.4367  133.7332  159.6656 H   0  0  0  0  0  0  0  0  0  0  0  0  # atno 6909 bound_to 6896
  144.8662  139.5919  143.5908 H   0  0  0  0  0  0  0  0  0  0  0  0  # atno 7974 bound_to 7965
  154.9862  140.0395  157.2299 H   0  0  0  0  0  0  0  0  0  0  0  0  # atno 8008 bound_to 7997
  154.7669  140.2795  155.6146 H   0  0  0  0  0  0  0  0  0  0  0  0  # atno 8009 bound_to 7997
  156.2914  140.2617  156.2462 H   0  0  0  0  0  0  0  0  0  0  0  0  # atno 8010 bound_to 7997
  140.5934  143.8750  150.6895 H   0  0  0  0  0  0  0  0  0  0  0  0  # atno 10167 bound_to 10162
  156.3199  130.4264  149.7970 H   0  0  0  0  0  0  0  0  0  0  0  0  # atno 10718 bound_to 10713
  152.9849  135.6083  154.3206 H   0  0  0  0  0  0  0  0  0  0  0  0  # atno 10763 bound_to 10752
  154.2916  135.2774  155.2654 H   0  0  0  0  0  0  0  0  0  0  0  0  # atno 10764 bound_to 10752
  154.4947  135.5883  153.6542 H   0  0  0  0  0  0  0  0  0  0  0  0  # atno 10765 bound_to 10752
  140.3954  134.1775  155.7663 H   0  0  0  0  0  0  0  0  0  0  0  0  # atno 11005 bound_to 11000
  146.2897  139.7104  142.9170 LP  0  0  0  0  0  0  0  0  0  0  0  0  # atno 17320 bound_to 7965
  145.4217  141.0407  143.2960 LP  0  0  0  0  0  0  0  0  0  0  0  0  # atno 17321 bound_to 7965
  140.2279  143.3758  152.1590 LP  0  0  0  0  0  0  0  0  0  0  0  0  # atno 17342 bound_to 10162
  139.5242  144.7081  151.5292 LP  0  0  0  0  0  0  0  0  0  0  0  0  # atno 17343 bound_to 10162
  156.5282  130.8246  151.3228 LP  0  0  0  0  0  0  0  0  0  0  0  0  # atno 17370 bound_to 10713
  157.7409  130.9860  150.2412 LP  0  0  0  0  0  0  0  0  0  0  0  0  # atno 17371 bound_to 10713
  141.1876  133.8278  157.1026 LP  0  0  0  0  0  0  0  0  0  0  0  0  # atno 17394 bound_to 11000
  140.0376  134.9870  157.0900 LP  0  0  0  0  0  0  0  0  0  0  0  0  # atno 17395 bound_to 11000

$$$$
