AV-unprocessed.smi:9|AV-procd|sdf|50|dock9
  -GOLD-   2262015163D 1   1.00000     0.00000
 Structure written by MMmdl.
 34 36  0  0  0  0  0  0  0  0  2 V2000
  153.3921  142.7086  160.8792 O   0  0  0  0  0  0  0  0  0  0  0  0
  153.2640  141.8481  160.0104 C   0  0  0  0  0  0  0  0  0  0  0  0
  153.8710  140.6196  160.0184 N   0  5  0  0  0  0  0  0  0  0  0  0
  153.6544  139.7069  158.9796 C   0  0  0  0  0  0  0  0  0  0  0  0
  154.3841  138.3712  159.0843 C   0  0  0  0  0  0  0  0  0  0  0  0
  154.0402  137.7185  160.1968 F   0  0  0  0  0  0  0  0  0  0  0  0
  154.0818  137.5993  158.0405 F   0  0  0  0  0  0  0  0  0  0  0  0
  155.7077  138.5412  159.1093 F   0  0  0  0  0  0  0  0  0  0  0  0
  152.9044  139.9122  157.9449 N   0  0  0  0  0  0  0  0  0  0  0  0
  152.2820  141.1405  157.9045 C   0  0  0  0  0  0  0  0  0  0  0  0
  152.3877  142.1282  158.8425 C   0  0  0  0  0  0  0  0  0  0  0  0
  151.6197  143.2347  158.4977 N   0  0  0  0  0  0  0  0  0  0  0  0
  151.0790  142.8497  157.3415 C   0  0  0  0  0  0  0  0  0  0  0  0
  151.4335  141.6206  156.9153 N   0  0  0  0  0  0  0  0  0  0  0  0
  151.0029  140.9493  155.6975 C   0  0  0  0  0  0  0  0  0  0  0  0
  149.5012  141.1389  155.3610 C   0  0  2  0  0  0  0  0  0  0  0  0
  149.3573  142.4262  154.7900 O   0  0  0  0  0  0  0  0  0  0  0  0
  148.6039  141.0346  156.6144 C   0  0  0  0  0  0  0  0  0  0  0  0
  147.1189  140.9541  156.2464 C   0  0  0  0  0  0  0  0  0  0  0  0
  146.8907  139.8471  155.2117 C   0  0  0  0  0  0  0  0  0  0  0  0
  147.6670  140.1258  154.0549 O   0  0  0  0  0  0  0  0  0  0  0  0
  149.0735  140.1109  154.2867 C   0  0  0  0  0  0  0  0  0  0  0  0
  150.4083  143.4851  156.7820 H   0  0  0  0  0  0  0  0  0  0  0  0
  151.6249  141.3003  154.8727 H   0  0  0  0  0  0  0  0  0  0  0  0
  151.2253  139.8874  155.8100 H   0  0  0  0  0  0  0  0  0  0  0  0
  149.0849  143.0251  155.4681 H   0  0  0  0  0  0  0  0  0  0  0  0
  148.8716  140.1362  157.1723 H   0  0  0  0  0  0  0  0  0  0  0  0
  148.7709  141.8765  157.2876 H   0  0  0  0  0  0  0  0  0  0  0  0
  146.5220  140.7647  157.1389 H   0  0  0  0  0  0  0  0  0  0  0  0
  146.7823  141.9096  155.8423 H   0  0  0  0  0  0  0  0  0  0  0  0
  147.1508  138.8678  155.6169 H   0  0  0  0  0  0  0  0  0  0  0  0
  145.8385  139.8086  154.9296 H   0  0  0  0  0  0  0  0  0  0  0  0
  149.5896  140.2994  153.3445 H   0  0  0  0  0  0  0  0  0  0  0  0
  149.3584  139.1040  154.5960 H   0  0  0  0  0  0  0  0  0  0  0  0
  1  2  2  0  0  0  0
  2 11  1  0  0  0  0
  2  3  1  0  0  0  0
  3  4  1  0  0  0  0
  4  5  1  0  0  0  0
  4  9  2  0  0  0  0
  5  6  1  0  0  0  0
  5  7  1  0  0  0  0
  5  8  1  0  0  0  0
  9 10  1  0  0  0  0
 10 14  1  0  0  0  0
 10 11  2  0  0  0  0
 11 12  1  0  0  0  0
 12 13  2  0  0  0  0
 13 14  1  0  0  0  0
 13 23  1  0  0  0  0
 14 15  1  0  0  0  0
 15 16  1  0  0  0  0
 15 24  1  0  0  0  0
 15 25  1  0  0  0  0
 16 22  1  0  0  0  0
 16 17  1  0  0  0  0
 16 18  1  0  0  0  0
 17 26  1  0  0  0  0
 18 19  1  0  0  0  0
 18 27  1  0  0  0  0
 18 28  1  0  0  0  0
 19 20  1  0  0  0  0
 19 29  1  0  0  0  0
 19 30  1  0  0  0  0
 20 21  1  0  0  0  0
 20 31  1  0  0  0  0
 20 32  1  0  0  0  0
 21 22  1  0  0  0  0
 22 33  1  0  0  0  0
 22 34  1  0  0  0  0
M  CHG  1   3  -1
M  END
> <s_m_source_file>
AV-unprocessed.smi

> <i_m_source_file_index>
9

> <i_lp_mmshare_version>
43012

> <i_f3d_flags>
0

> <s_epik_input>
RkMoRikoRiljKG4xKVtuSF1jKD1PKWMoYzEyKW5bY0hdbjJbQ0gyXVtDQEBdMyhbT0hdKVtDSDJdW0NIMl1bQ0gyXU9bQ0gyXTM=

> <s_epik_cmdline>
J2VwaWtfcHl0aG9uJywgJy1waCcsICc3LjAnLCAnLXRuJywgJzgnLCAnLW1hJywgJzIwMCcsICctbWV0YWxfYmluZGluZycsICctaW1hZScsICc8aW5maWxlLm1hZT4nLCAnLW9tYWUnLCAnPG91dGZpbGUubWFlPic=

> <r_lp_tautomer_probability>
1

> <r_epik_Ionization_Penalty>
0.188582

> <r_epik_Ionization_Penalty_Charging>
1.37005e-11

> <r_epik_Ionization_Penalty_Neutral>
0.188582

> <r_epik_State_Penalty>
0.012336

> <r_epik_Charging_Adjusted_Penalty>
0.012336

> <i_epik_Tot_Q>
-1

> <i_epik_Tot_abs_Q>
1

> <r_epik_Metal_State_Penalty>
0.0089237

> <b_epik_Metal_Only>
0

> <s_lp_Force_Field>
OPLS_2005

> <r_lp_Energy>
37.4202

> <b_lp_Chiralities_Consistent>
1

> <s_lp_Variant>
AV-unprocessed.smi:9-2

> <Gold.Version>
5.8.1

> <Gold.Id.Protein>
6NUR|6NUR_protein|mol2

> <Gold.PLP.Fitness>
37.1690

> <Gold.PLP.PLP>
-32.0782

> <Gold.PLP.part.hbond>
-2.2263

> <Gold.PLP.part.metal>
0.0000

> <Gold.PLP.part.buried>
-4.5608

> <Gold.PLP.part.nonpolar>
-24.7739

> <Gold.PLP.part.repulsive>
0.2192

> <Gold.PLP.ligand.clash>
0.0000

> <Gold.PLP.ligand.torsion>
0.4717

> <Gold.PLP.Chemscore.Hbond>
1.0092

> <Gold.PLP.Chemscore.CHOScore>
1.0000

> <Gold.PLP.Chemscore.Metal>
0.0000

> <Gold.Chemscore.Hbonds>
donor molecule, donor type, donor heavy atom, donor atom, acceptor molecule, acceptor atom, score
      L1  H    17    26       P1  8028  0.74
      P1  H  7997  8009       L1     9  0.35
      L1  C    13    23       P1  8028  1.00

> <Gold.PLP.Chemscore.Internal.Correction>
0.0066

> <Gold.Rescore>
     Score         DG    S(hbond)    S(metal)    S(lipo)     H(rot)  DE(clash)    DE(int)     intcor
      8.09      -8.54       1.08        0.00      41.85       2.12       0.00       0.45       ----

> <Gold.Chemscore.Fitness>
8.0914

> <Gold.Chemscore.DG>
-8.5372

> <Gold.Chemscore.ZeroCoef>
-5.4800

> <Gold.Chemscore.Hbond>
1.0774

> <Gold.Chemscore.Metal>
0.0000

> <Gold.Chemscore.Lipo>
41.8456

> <Gold.Chemscore.Internal_Hbond>
0.0000

> <Gold.Chemscore.DEClash>
0.0000

> <Gold.Chemscore.DEInternal>
0.4458

> <Gold.Chemscore.Rot>
2.1239

> <Gold.Chemscore.Internal.Correction>
   9.000000E+99

> <Gold.Chemscore.Hbonds>
donor molecule, donor type, donor heavy atom, donor atom, acceptor molecule, acceptor atom, score
      L1  H    17    26       P1  8028  0.74
      P1  H  7997  8009       L1     9  0.04

> <Gold.Chemscore.Hbond.Weighted>
-3.5985

> <Gold.Chemscore.Metal.Weighted>
-0.0000

> <Gold.Chemscore.Lipo.Weighted>
-4.8959

> <Gold.Chemscore.Internal_Hbond.Weighted>
0.0000

> <Gold.Chemscore.DEClash.Weighted>
0.0000

> <Gold.Chemscore.DEInternal.Weighted>
0.4458

> <Gold.Chemscore.Rot.Weighted>
5.4373

> <Gold.Chemscore.Internal.Correction.Weighted>
   9.000000E+99

> <Gold.Protein.RotatedTorsions>
[ 6907 6896 6895 6894 ] final  -53.86 input  -60.11 | X-H torsion
[ 7974 7965 7964 7962 ] final  111.65 input  175.53 | X-H torsion
[ 8008 7997 7996 7995 ] final -160.85 input   59.86 | X-H torsion
[ 10167 10162 10161 10158 ] final -165.35 input  -65.29 | X-H torsion
[ 10718 10713 10712 10709 ] final  175.17 input   66.30 | X-H torsion
[ 10763 10752 10751 10750 ] final -170.03 input  -60.55 | X-H torsion
[ 11005 11000 10999 10996 ] final  -13.99 input  -57.11 | X-H torsion

> <Gold.Protein.ActiveResidues>
 VAL166  LYS551  ARG553  GLY616  TRP617  ASP618  TYR619  PRO620  LYS621  CYS622 
 ASP623  PHE694  ASN695  SER759  ASP760  ASP761  ALA762  ILE779  LEU786  VAL792 
 PHE793  MET794  SER795  GLU796  ALA797  LYS798  CYS799  TRP800  GLU811  SER814 

> <Gold.Protein.RotatedAtoms>
  150.8389  134.7673  159.6915 H   0  0  0  0  0  0  0  0  0  0  0  0  # atno 6907 bound_to 6896
  152.4480  134.5451  159.9860 H   0  0  0  0  0  0  0  0  0  0  0  0  # atno 6908 bound_to 6896
  151.5595  133.3367  159.3004 H   0  0  0  0  0  0  0  0  0  0  0  0  # atno 6909 bound_to 6896
  145.2395  139.2785  143.4125 H   0  0  0  0  0  0  0  0  0  0  0  0  # atno 7974 bound_to 7965
  155.7836  140.0868  157.2046 H   0  0  0  0  0  0  0  0  0  0  0  0  # atno 8008 bound_to 7997
  154.3989  140.1503  156.3138 H   0  0  0  0  0  0  0  0  0  0  0  0  # atno 8009 bound_to 7997
  155.8629  140.3429  155.5771 H   0  0  0  0  0  0  0  0  0  0  0  0  # atno 8010 bound_to 7997
  139.6188  144.0666  152.1913 H   0  0  0  0  0  0  0  0  0  0  0  0  # atno 10167 bound_to 10162
  156.9388  130.9994  151.2972 H   0  0  0  0  0  0  0  0  0  0  0  0  # atno 10718 bound_to 10713
  154.6459  135.2905  155.0046 H   0  0  0  0  0  0  0  0  0  0  0  0  # atno 10763 bound_to 10752
  154.1156  135.6556  153.4897 H   0  0  0  0  0  0  0  0  0  0  0  0  # atno 10764 bound_to 10752
  153.0351  135.5275  154.7346 H   0  0  0  0  0  0  0  0  0  0  0  0  # atno 10765 bound_to 10752
  140.7818  133.8357  155.9299 H   0  0  0  0  0  0  0  0  0  0  0  0  # atno 11005 bound_to 11000
  146.3332  140.2754  142.8608 LP  0  0  0  0  0  0  0  0  0  0  0  0  # atno 17320 bound_to 7965
  144.9602  140.8267  143.5518 LP  0  0  0  0  0  0  0  0  0  0  0  0  # atno 17321 bound_to 7965
  140.0302  144.6086  150.7494 LP  0  0  0  0  0  0  0  0  0  0  0  0  # atno 17342 bound_to 10162
  140.7368  143.2758  151.3746 LP  0  0  0  0  0  0  0  0  0  0  0  0  # atno 17343 bound_to 10162
  157.5798  130.8369  149.8507 LP  0  0  0  0  0  0  0  0  0  0  0  0  # atno 17370 bound_to 10713
  156.0414  130.3738  150.1427 LP  0  0  0  0  0  0  0  0  0  0  0  0  # atno 17371 bound_to 10713
  140.9475  134.1821  157.4752 LP  0  0  0  0  0  0  0  0  0  0  0  0  # atno 17394 bound_to 11000
  139.8741  134.9896  156.5466 LP  0  0  0  0  0  0  0  0  0  0  0  0  # atno 17395 bound_to 11000

$$$$
