AV-unprocessed.smi:249|AV-procd|sdf|1910|dock9
  -GOLD-   2262021 03D 1   1.00000     0.00000
 Structure written by MMmdl.
 64 67  0  0  0  0  0  0  0  0  2 V2000
  152.3399  145.1591  159.2515 C   0  0  0  0  0  0  0  0  0  0  0  0
  152.3299  143.7538  159.8751 C   0  0  0  0  0  0  0  0  0  0  0  0
  152.1848  142.6562  158.8750 N   0  3  2  0  0  0  0  0  0  0  0  0
  150.9647  142.8287  158.0346 C   0  0  0  0  0  0  0  0  0  0  0  0
  150.8719  141.7755  156.9222 C   0  0  0  0  0  0  0  0  0  0  0  0
  150.8835  140.3575  157.5155 C   0  0  1  0  0  0  0  0  0  0  0  0
  150.7121  139.3010  156.5086 N   0  0  0  0  0  0  0  0  0  0  0  0
  151.6633  139.2771  155.4026 C   0  0  0  0  0  0  0  0  0  0  0  0
  150.3587  138.0693  156.9493 C   0  0  0  0  0  0  0  0  0  0  0  0
  149.9629  137.9003  158.2386 N   0  0  0  0  0  0  0  0  0  0  0  0
  149.6060  136.6887  158.6755 C   0  0  0  0  0  0  0  0  0  0  0  0
  149.5765  135.5349  158.0052 N   0  0  0  0  0  0  0  0  0  0  0  0
  149.9860  135.6996  156.7146 C   0  0  0  0  0  0  0  0  0  0  0  0
  150.3887  136.9231  156.1102 C   0  0  0  0  0  0  0  0  0  0  0  0
  150.7305  136.7088  154.7812 N   0  0  0  0  0  0  0  0  0  0  0  0
  150.5335  135.4306  154.6059 C   0  0  0  0  0  0  0  0  0  0  0  0
  150.1067  134.7436  155.7209 N   0  0  0  0  0  0  0  0  0  0  0  0
  149.8082  133.3243  155.8012 C   0  0  0  0  0  0  0  0  0  0  0  0
  150.9958  132.3872  155.4559 C   0  0  1  0  0  0  0  0  0  0  0  0
  152.1218  132.5918  156.4958 C   0  0  0  0  0  0  0  0  0  0  0  0
  151.7975  131.9996  157.7376 O   0  0  0  0  0  0  0  0  0  0  0  0
  150.6138  130.8872  155.2852 C   0  0  1  0  0  0  0  0  0  0  0  0
  149.7019  130.5594  154.1117 C   0  0  0  0  0  0  0  0  0  0  0  0
  149.9289  129.0649  153.9020 C   0  0  0  0  0  0  0  0  0  0  0  0
  151.2374  128.7916  154.3867 O   0  0  0  0  0  0  0  0  0  0  0  0
  151.7963  129.9709  154.9499 C   0  0  0  0  0  0  0  0  0  0  0  0
  152.1507  140.2008  158.3745 C   0  0  0  0  0  0  0  0  0  0  0  0
  152.2483  141.2817  159.4721 C   0  0  1  0  0  0  0  0  0  0  0  0
  153.5304  141.0309  160.2935 C   0  0  0  0  0  0  0  0  0  0  0  0
  152.6176  145.9028  159.9990 H   0  0  0  0  0  0  0  0  0  0  0  0
  151.3633  145.4516  158.8675 H   0  0  0  0  0  0  0  0  0  0  0  0
  153.0629  145.2268  158.4379 H   0  0  0  0  0  0  0  0  0  0  0  0
  153.2760  143.6608  160.4033 H   0  0  0  0  0  0  0  0  0  0  0  0
  151.5442  143.6776  160.6281 H   0  0  0  0  0  0  0  0  0  0  0  0
  150.0774  142.7824  158.6680 H   0  0  0  0  0  0  0  0  0  0  0  0
  150.9599  143.8075  157.5584 H   0  0  0  0  0  0  0  0  0  0  0  0
  149.9605  141.9419  156.3477 H   0  0  0  0  0  0  0  0  0  0  0  0
  151.7048  141.9086  156.2309 H   0  0  0  0  0  0  0  0  0  0  0  0
  150.0269  140.2713  158.1857 H   0  0  0  0  0  0  0  0  0  0  0  0
  151.3244  138.5996  154.6177 H   0  0  0  0  0  0  0  0  0  0  0  0
  152.6507  138.9520  155.7313 H   0  0  0  0  0  0  0  0  0  0  0  0
  151.7615  140.2704  154.9643 H   0  0  0  0  0  0  0  0  0  0  0  0
  149.3001  136.6356  159.7101 H   0  0  0  0  0  0  0  0  0  0  0  0
  150.7095  134.9477  153.6554 H   0  0  0  0  0  0  0  0  0  0  0  0
  149.4648  133.1279  156.8175 H   0  0  0  0  0  0  0  0  0  0  0  0
  148.9615  133.1119  155.1472 H   0  0  0  0  0  0  0  0  0  0  0  0
  151.4125  132.7220  154.5055 H   0  0  0  0  0  0  0  0  0  0  0  0
  153.0648  132.1751  156.1427 H   0  0  0  0  0  0  0  0  0  0  0  0
  152.3037  133.6552  156.6548 H   0  0  0  0  0  0  0  0  0  0  0  0
  152.3201  131.2195  157.8447 H   0  0  0  0  0  0  0  0  0  0  0  0
  150.1458  130.5236  156.2014 H   0  0  0  0  0  0  0  0  0  0  0  0
  148.6517  130.7750  154.2990 H   0  0  0  0  0  0  0  0  0  0  0  0
  150.0112  131.1116  153.2231 H   0  0  0  0  0  0  0  0  0  0  0  0
  149.2159  128.4825  154.4865 H   0  0  0  0  0  0  0  0  0  0  0  0
  149.8247  128.7764  152.8560 H   0  0  0  0  0  0  0  0  0  0  0  0
  152.4429  130.4340  154.2030 H   0  0  0  0  0  0  0  0  0  0  0  0
  152.4050  129.7307  155.8220 H   0  0  0  0  0  0  0  0  0  0  0  0
  152.1484  139.2132  158.8372 H   0  0  0  0  0  0  0  0  0  0  0  0
  153.0436  140.2518  157.7496 H   0  0  0  0  0  0  0  0  0  0  0  0
  151.3929  141.1666  160.1401 H   0  0  0  0  0  0  0  0  0  0  0  0
  153.6156  139.9794  160.5702 H   0  0  0  0  0  0  0  0  0  0  0  0
  153.5402  141.5880  161.2297 H   0  0  0  0  0  0  0  0  0  0  0  0
  154.4251  141.2927  159.7277 H   0  0  0  0  0  0  0  0  0  0  0  0
  152.9775  142.7306  158.2533 H   0  0  0  0  0  0  0  0  0  0  0  0
  1  2  1  0  0  0  0
  1 30  1  0  0  0  0
  1 31  1  0  0  0  0
  1 32  1  0  0  0  0
  2  3  1  0  0  0  0
  2 33  1  0  0  0  0
  2 34  1  0  0  0  0
  3 28  1  0  0  0  0
  3  4  1  0  0  0  0
  3 64  1  0  0  0  0
  4  5  1  0  0  0  0
  4 35  1  0  0  0  0
  4 36  1  0  0  0  0
  5  6  1  0  0  0  0
  5 37  1  0  0  0  0
  5 38  1  0  0  0  0
  6  7  1  0  0  0  0
  6 27  1  0  0  0  0
  6 39  1  0  0  0  0
  7  8  1  0  0  0  0
  7  9  1  0  0  0  0
  8 40  1  0  0  0  0
  8 41  1  0  0  0  0
  8 42  1  0  0  0  0
  9 14  1  0  0  0  0
  9 10  2  0  0  0  0
 10 11  1  0  0  0  0
 11 12  2  0  0  0  0
 11 43  1  0  0  0  0
 12 13  1  0  0  0  0
 13 17  1  0  0  0  0
 13 14  2  0  0  0  0
 14 15  1  0  0  0  0
 15 16  2  0  0  0  0
 16 17  1  0  0  0  0
 16 44  1  0  0  0  0
 17 18  1  0  0  0  0
 18 19  1  0  0  0  0
 18 45  1  0  0  0  0
 18 46  1  0  0  0  0
 19 20  1  0  0  0  0
 19 22  1  0  0  0  0
 19 47  1  0  0  0  0
 20 21  1  0  0  0  0
 20 48  1  0  0  0  0
 20 49  1  0  0  0  0
 21 50  1  0  0  0  0
 22 26  1  0  0  0  0
 22 23  1  0  0  0  0
 22 51  1  0  0  0  0
 23 24  1  0  0  0  0
 23 52  1  0  0  0  0
 23 53  1  0  0  0  0
 24 25  1  0  0  0  0
 24 54  1  0  0  0  0
 24 55  1  0  0  0  0
 25 26  1  0  0  0  0
 26 56  1  0  0  0  0
 26 57  1  0  0  0  0
 27 28  1  0  0  0  0
 27 58  1  0  0  0  0
 27 59  1  0  0  0  0
 28 29  1  0  0  0  0
 28 60  1  0  0  0  0
 29 61  1  0  0  0  0
 29 62  1  0  0  0  0
 29 63  1  0  0  0  0
M  CHG  1   3   1
M  END
> <s_m_source_file>
AV-unprocessed.smi

> <i_m_source_file_index>
249

> <i_lp_mmshare_version>
43012

> <i_f3d_flags>
0

> <s_epik_input>
W0NIM11bQ0gyXU4xW0NIMl1bQ0gyXVtDQEhdKFtDSDJdW0NASF0xW0NIM10pTihbQ0gzXSljKG5bY0hdbjIpYyhjMjMpbltjSF1uM1tDSDJdW0NASF0oW0NIMl1bT0hdKVtDQEBIXTRbQ0gyXVtDSDJdT1tDSDJdNA==

> <s_epik_cmdline>
J2VwaWtfcHl0aG9uJywgJy1waCcsICc3LjAnLCAnLXRuJywgJzgnLCAnLW1hJywgJzIwMCcsICctbWV0YWxfYmluZGluZycsICctaW1hZScsICc8aW5maWxlLm1hZT4nLCAnLW9tYWUnLCAnPG91dGZpbGUubWFlPic=

> <r_lp_tautomer_probability>
1

> <r_epik_Ionization_Penalty>
0.00294688

> <r_epik_Ionization_Penalty_Charging>
0.00169971

> <r_epik_Ionization_Penalty_Neutral>
0.00124717

> <r_epik_State_Penalty>
-0

> <r_epik_Charging_Adjusted_Penalty>
0.00169971

> <i_epik_Tot_Q>
1

> <i_epik_Tot_abs_Q>
1

> <r_epik_Metal_State_Penalty>
-0

> <b_epik_Metal_Only>
0

> <s_lp_Force_Field>
OPLS_2005

> <r_lp_Energy>
54.6385

> <b_lp_Chiralities_Consistent>
1

> <s_lp_Variant>
AV-unprocessed.smi:249-13

> <Gold.Version>
5.8.1

> <Gold.Id.Protein>
6NUR|6NUR_protein|mol2

> <Gold.PLP.Fitness>
55.5185

> <Gold.PLP.PLP>
-48.3916

> <Gold.PLP.part.hbond>
-2.0000

> <Gold.PLP.part.metal>
0.0000

> <Gold.PLP.part.buried>
-7.5034

> <Gold.PLP.part.nonpolar>
-38.1233

> <Gold.PLP.part.repulsive>
0.2928

> <Gold.PLP.ligand.clash>
0.0000

> <Gold.PLP.ligand.torsion>
0.7509

> <Gold.PLP.Chemscore.Hbond>
1.9913

> <Gold.PLP.Chemscore.CHOScore>
0.5785

> <Gold.PLP.Chemscore.Metal>
0.0000

> <Gold.Chemscore.Hbonds>
donor molecule, donor type, donor heavy atom, donor atom, acceptor molecule, acceptor atom, score
      P1  H  6896  6907       L1    21  0.96
      P1  H  6896  6908       L1    12  0.48
      L1  C    16    44       P1  7949  0.36

> <Gold.PLP.Chemscore.Internal.Correction>
0.9197

> <Gold.Rescore>
     Score         DG    S(hbond)    S(metal)    S(lipo)     H(rot)  DE(clash)    DE(int)     intcor
     13.76     -15.89       1.28        0.00     116.05       2.90       0.01       2.12       ----

> <Gold.Chemscore.Fitness>
13.7560

> <Gold.Chemscore.DG>
-15.8939

> <Gold.Chemscore.ZeroCoef>
-5.4800

> <Gold.Chemscore.Hbond>
1.2758

> <Gold.Chemscore.Metal>
0.0000

> <Gold.Chemscore.Lipo>
116.0536

> <Gold.Chemscore.Internal_Hbond>
0.0000

> <Gold.Chemscore.DEClash>
0.0144

> <Gold.Chemscore.DEInternal>
2.1235

> <Gold.Chemscore.Rot>
2.9006

> <Gold.Chemscore.Internal.Correction>
   9.000000E+99

> <Gold.Chemscore.Hbonds>
donor molecule, donor type, donor heavy atom, donor atom, acceptor molecule, acceptor atom, score
      P1  H  6896  6907       L1    21  0.72
      P1  H  6896  6908       L1    12  0.03

> <Gold.Chemscore.Hbond.Weighted>
-4.2613

> <Gold.Chemscore.Metal.Weighted>
-0.0000

> <Gold.Chemscore.Lipo.Weighted>
-13.5783

> <Gold.Chemscore.Internal_Hbond.Weighted>
0.0000

> <Gold.Chemscore.DEClash.Weighted>
0.0144

> <Gold.Chemscore.DEInternal.Weighted>
2.1235

> <Gold.Chemscore.Rot.Weighted>
7.4256

> <Gold.Chemscore.Internal.Correction.Weighted>
   9.000000E+99

> <Gold.Protein.RotatedTorsions>
[ 6907 6896 6895 6894 ] final  167.84 input  -60.11 | X-H torsion
[ 7974 7965 7964 7962 ] final   50.00 input  175.53 | X-H torsion
[ 8008 7997 7996 7995 ] final   72.11 input   59.86 | X-H torsion
[ 10167 10162 10161 10158 ] final -168.85 input  -65.29 | X-H torsion
[ 10718 10713 10712 10709 ] final  -74.22 input   66.30 | X-H torsion
[ 10763 10752 10751 10750 ] final    6.85 input  -60.55 | X-H torsion
[ 11005 11000 10999 10996 ] final   62.31 input  -57.11 | X-H torsion

> <Gold.Protein.ActiveResidues>
 VAL166  LYS551  ARG553  GLY616  TRP617  ASP618  TYR619  PRO620  LYS621  CYS622 
 ASP623  PHE694  ASN695  SER759  ASP760  ASP761  ALA762  ILE779  LEU786  VAL792 
 PHE793  MET794  SER795  GLU796  ALA797  LYS798  CYS799  TRP800  GLU811  SER814 

> <Gold.Protein.RotatedAtoms>
  151.8570  133.3450  159.3691 H   0  0  0  0  0  0  0  0  0  0  0  0  # atno 6907 bound_to 6896
  150.7190  134.5243  159.5678 H   0  0  0  0  0  0  0  0  0  0  0  0  # atno 6908 bound_to 6896
  152.2749  134.7893  160.0458 H   0  0  0  0  0  0  0  0  0  0  0  0  # atno 6909 bound_to 6896
  146.0054  139.4485  142.9989 H   0  0  0  0  0  0  0  0  0  0  0  0  # atno 7974 bound_to 7965
  155.7639  140.3486  155.5212 H   0  0  0  0  0  0  0  0  0  0  0  0  # atno 8008 bound_to 7997
  155.8887  140.1014  157.1455 H   0  0  0  0  0  0  0  0  0  0  0  0  # atno 8009 bound_to 7997
  154.4031  140.1308  156.4276 H   0  0  0  0  0  0  0  0  0  0  0  0  # atno 8010 bound_to 7997
  139.5959  144.1113  152.1689 H   0  0  0  0  0  0  0  0  0  0  0  0  # atno 10167 bound_to 10162
  156.0250  130.4412  150.2860 H   0  0  0  0  0  0  0  0  0  0  0  0  # atno 10718 bound_to 10713
  153.2430  135.6905  153.7762 H   0  0  0  0  0  0  0  0  0  0  0  0  # atno 10763 bound_to 10752
  153.6884  135.3317  155.3197 H   0  0  0  0  0  0  0  0  0  0  0  0  # atno 10764 bound_to 10752
  154.8363  135.4539  154.1359 H   0  0  0  0  0  0  0  0  0  0  0  0  # atno 10765 bound_to 10752
  140.0101  134.6309  155.9794 H   0  0  0  0  0  0  0  0  0  0  0  0  # atno 11005 bound_to 11000
  145.7423  141.0003  143.1294 LP  0  0  0  0  0  0  0  0  0  0  0  0  # atno 17320 bound_to 7965
  144.6934  139.9114  143.7463 LP  0  0  0  0  0  0  0  0  0  0  0  0  # atno 17321 bound_to 7965
  140.0698  144.5789  150.7200 LP  0  0  0  0  0  0  0  0  0  0  0  0  # atno 17342 bound_to 10162
  140.7211  143.2590  151.4274 LP  0  0  0  0  0  0  0  0  0  0  0  0  # atno 17343 bound_to 10162
  157.0963  131.0183  151.3102 LP  0  0  0  0  0  0  0  0  0  0  0  0  # atno 17370 bound_to 10713
  157.4814  130.7767  149.7418 LP  0  0  0  0  0  0  0  0  0  0  0  0  # atno 17371 bound_to 10713
  141.1705  133.6537  156.4633 LP  0  0  0  0  0  0  0  0  0  0  0  0  # atno 17394 bound_to 11000
  140.4570  134.6876  157.5067 LP  0  0  0  0  0  0  0  0  0  0  0  0  # atno 17395 bound_to 11000

$$$$
