AV-unprocessed.smi:1406|AV-procd|sdf|5715|dock2
  -GOLD-   22720 5343D 1   1.00000     0.00000
 Structure written by MMmdl.
 41 43  0  0  0  0  0  0  0  0  2 V2000
  150.3741  140.9025  157.0158 C   0  0  0  0  0  0  0  0  0  0  0  0
  150.6920  140.7205  155.5178 C   0  0  2  0  0  0  0  0  0  0  0  0
  149.4323  140.6342  154.6405 C   0  0  0  0  0  0  0  0  0  0  0  0
  149.1994  141.4846  153.7809 O   0  0  0  0  0  0  0  0  0  0  0  0
  148.6046  139.6078  154.8964 N   0  0  0  0  0  0  0  0  0  0  0  0
  147.2923  139.4068  154.2871 C   0  0  1  0  0  0  0  0  0  0  0  0
  147.2790  139.7114  152.7766 C   0  0  0  0  0  0  0  0  0  0  0  0
  146.4311  138.5926  152.1621 C   0  0  0  0  0  0  0  0  0  0  0  0
  146.7232  137.4452  153.0289 N   0  3  2  0  0  0  0  0  0  0  0  0
  145.8951  136.2295  152.8952 C   0  0  0  0  0  0  0  0  0  0  0  0
  146.5146  135.1188  153.7704 C   0  0  0  0  0  0  0  0  0  0  0  0
  146.7410  135.5800  155.2281 C   0  0  0  0  0  0  0  0  0  0  0  0
  147.4995  136.9228  155.2937 C   0  0  0  0  0  0  0  0  0  0  0  0
  146.7718  137.9540  154.4103 C   0  0  1  0  0  0  0  0  0  0  0  0
  151.5439  139.5606  155.2801 N   0  0  0  0  0  0  0  0  0  0  0  0
  151.3663  138.5172  154.4666 C   0  0  0  0  0  0  0  0  0  0  0  0
  152.3210  137.6015  154.5488 N   0  0  0  0  0  0  0  0  0  0  0  0
  153.1129  138.1818  155.4988 C   0  0  0  0  0  0  0  0  0  0  0  0
  152.6869  139.3494  155.9795 N   0  0  0  0  0  0  0  0  0  0  0  0
  149.7875  141.8057  157.1869 H   0  0  0  0  0  0  0  0  0  0  0  0
  151.2913  140.9951  157.5981 H   0  0  0  0  0  0  0  0  0  0  0  0
  149.8109  140.0605  157.4201 H   0  0  0  0  0  0  0  0  0  0  0  0
  151.2481  141.6014  155.1935 H   0  0  0  0  0  0  0  0  0  0  0  0
  148.8803  138.9496  155.6107 H   0  0  0  0  0  0  0  0  0  0  0  0
  146.5718  140.0715  154.7683 H   0  0  0  0  0  0  0  0  0  0  0  0
  146.8854  140.7032  152.5512 H   0  0  0  0  0  0  0  0  0  0  0  0
  148.2902  139.6593  152.3697 H   0  0  0  0  0  0  0  0  0  0  0  0
  145.3697  138.8384  152.2202 H   0  0  0  0  0  0  0  0  0  0  0  0
  146.6856  138.3936  151.1209 H   0  0  0  0  0  0  0  0  0  0  0  0
  144.8682  136.4383  153.1983 H   0  0  0  0  0  0  0  0  0  0  0  0
  145.8681  135.9145  151.8515 H   0  0  0  0  0  0  0  0  0  0  0  0
  145.8805  134.2318  153.7531 H   0  0  0  0  0  0  0  0  0  0  0  0
  147.4716  134.8190  153.3416 H   0  0  0  0  0  0  0  0  0  0  0  0
  145.7752  135.6888  155.7233 H   0  0  0  0  0  0  0  0  0  0  0  0
  147.2855  134.8155  155.7830 H   0  0  0  0  0  0  0  0  0  0  0  0
  147.5466  137.2664  156.3273 H   0  0  0  0  0  0  0  0  0  0  0  0
  148.5281  136.7880  154.9558 H   0  0  0  0  0  0  0  0  0  0  0  0
  145.7424  138.0290  154.7674 H   0  0  0  0  0  0  0  0  0  0  0  0
  150.5151  138.4199  153.8088 H   0  0  0  0  0  0  0  0  0  0  0  0
  154.0250  137.7255  155.8541 H   0  0  0  0  0  0  0  0  0  0  0  0
  147.6683  137.1717  152.8007 H   0  0  0  0  0  0  0  0  0  0  0  0
  1  2  1  0  0  0  0
  1 20  1  0  0  0  0
  1 21  1  0  0  0  0
  1 22  1  0  0  0  0
  2  3  1  0  0  0  0
  2 15  1  0  0  0  0
  2 23  1  0  0  0  0
  3  4  2  0  0  0  0
  3  5  1  0  0  0  0
  5  6  1  0  0  0  0
  5 24  1  0  0  0  0
  6 14  1  0  0  0  0
  6  7  1  0  0  0  0
  6 25  1  0  0  0  0
  7  8  1  0  0  0  0
  7 26  1  0  0  0  0
  7 27  1  0  0  0  0
  8  9  1  0  0  0  0
  8 28  1  0  0  0  0
  8 29  1  0  0  0  0
  9 14  1  0  0  0  0
  9 10  1  0  0  0  0
  9 41  1  0  0  0  0
 10 11  1  0  0  0  0
 10 30  1  0  0  0  0
 10 31  1  0  0  0  0
 11 12  1  0  0  0  0
 11 32  1  0  0  0  0
 11 33  1  0  0  0  0
 12 13  1  0  0  0  0
 12 34  1  0  0  0  0
 12 35  1  0  0  0  0
 13 14  1  0  0  0  0
 13 36  1  0  0  0  0
 13 37  1  0  0  0  0
 14 38  1  0  0  0  0
 15 19  1  0  0  0  0
 15 16  1  0  0  0  0
 16 17  2  0  0  0  0
 16 39  1  0  0  0  0
 17 18  1  0  0  0  0
 18 19  2  0  0  0  0
 18 40  1  0  0  0  0
M  CHG  1   9   1
M  END
> <s_m_source_file>
AV-unprocessed.smi

> <i_m_source_file_index>
1406

> <i_lp_mmshare_version>
43012

> <i_f3d_flags>
0

> <s_epik_input>
bjFbY0hdbltjSF1uMVtDQEhdKFtDSDNdKUMoPU8pW05IXVtDQEhdKFtDSDJdW0NIMl0yKVtDQEBIXShOMjMpW0NIMl1bQ0gyXVtDSDJdW0NIMl0z

> <s_epik_cmdline>
J2VwaWtfcHl0aG9uJywgJy1waCcsICc3LjAnLCAnLXRuJywgJzgnLCAnLW1hJywgJzIwMCcsICctbWV0YWxfYmluZGluZycsICctaW1hZScsICc8aW5maWxlLm1hZT4nLCAnLW9tYWUnLCAnPG91dGZpbGUubWFlPic=

> <r_lp_tautomer_probability>
1

> <r_epik_Ionization_Penalty>
0.00197066

> <r_epik_Ionization_Penalty_Charging>
0.00196223

> <r_epik_Ionization_Penalty_Neutral>
8.43107e-06

> <r_epik_State_Penalty>
0.00133866

> <r_epik_Charging_Adjusted_Penalty>
0.00330089

> <i_epik_Tot_Q>
1

> <i_epik_Tot_abs_Q>
1

> <r_epik_Metal_State_Penalty>
-0

> <b_epik_Metal_Only>
0

> <s_lp_Force_Field>
OPLS_2005

> <r_lp_Energy>
45.8752

> <b_lp_Chiralities_Consistent>
1

> <s_lp_Variant>
AV-unprocessed.smi:1406-7

> <Gold.Version>
5.8.1

> <Gold.Id.Protein>
6NUR|6NUR_protein|mol2

> <Gold.PLP.Fitness>
41.3184

> <Gold.PLP.PLP>
-28.4794

> <Gold.PLP.part.hbond>
-5.0000

> <Gold.PLP.part.metal>
0.0000

> <Gold.PLP.part.buried>
0.6212

> <Gold.PLP.part.nonpolar>
-24.8056

> <Gold.PLP.part.repulsive>
1.0140

> <Gold.PLP.ligand.clash>
0.0000

> <Gold.PLP.ligand.torsion>
0.3413

> <Gold.PLP.Chemscore.Hbond>
4.4720

> <Gold.PLP.Chemscore.CHOScore>
0.0000

> <Gold.PLP.Chemscore.Metal>
0.0000

> <Gold.Chemscore.Hbonds>
donor molecule, donor type, donor heavy atom, donor atom, acceptor molecule, acceptor atom, score
      L1  H     9    41       P1  7948  2.00
      P1  H  7997  8008       L1    19  0.95
      P1  H  8011  8017       L1     4  0.75
      P1  H 10752 10765       L1    17  0.67

> <Gold.PLP.Chemscore.Internal.Correction>
0.1056

> <Gold.Rescore>
     Score         DG    S(hbond)    S(metal)    S(lipo)     H(rot)  DE(clash)    DE(int)     intcor
      9.97     -12.97       2.30        0.00      39.56       1.89       0.61       2.39       ----

> <Gold.Chemscore.Fitness>
9.9654

> <Gold.Chemscore.DG>
-12.9712

> <Gold.Chemscore.ZeroCoef>
-5.4800

> <Gold.Chemscore.Hbond>
2.3029

> <Gold.Chemscore.Metal>
0.0000

> <Gold.Chemscore.Lipo>
39.5648

> <Gold.Chemscore.Internal_Hbond>
0.0000

> <Gold.Chemscore.DEClash>
0.6134

> <Gold.Chemscore.DEInternal>
2.3924

> <Gold.Chemscore.Rot>
1.8865

> <Gold.Chemscore.Internal.Correction>
   9.000000E+99

> <Gold.Chemscore.Hbonds>
donor molecule, donor type, donor heavy atom, donor atom, acceptor molecule, acceptor atom, score
      L1  H     9    41       P1  7948  0.98
      P1  H  7997  8008       L1    19  0.22
      P1  H  8011  8017       L1     4  0.76
      P1  H 10752 10765       L1    17  0.39

> <Gold.Chemscore.Hbond.Weighted>
-7.6917

> <Gold.Chemscore.Metal.Weighted>
-0.0000

> <Gold.Chemscore.Lipo.Weighted>
-4.6291

> <Gold.Chemscore.Internal_Hbond.Weighted>
0.0000

> <Gold.Chemscore.DEClash.Weighted>
0.6134

> <Gold.Chemscore.DEInternal.Weighted>
2.3924

> <Gold.Chemscore.Rot.Weighted>
4.8295

> <Gold.Chemscore.Internal.Correction.Weighted>
   9.000000E+99

> <Gold.Protein.RotatedTorsions>
[ 6907 6896 6895 6894 ] final  118.29 input  -60.11 | X-H torsion
[ 7974 7965 7964 7962 ] final   15.77 input  175.53 | X-H torsion
[ 8008 7997 7996 7995 ] final  -47.59 input   59.86 | X-H torsion
[ 10167 10162 10161 10158 ] final  -82.51 input  -65.29 | X-H torsion
[ 10718 10713 10712 10709 ] final  -31.47 input   66.30 | X-H torsion
[ 10763 10752 10751 10750 ] final  164.86 input  -60.55 | X-H torsion
[ 11005 11000 10999 10996 ] final  157.02 input  -57.11 | X-H torsion

> <Gold.Protein.ActiveResidues>
 VAL166  LYS551  ARG553  GLY616  TRP617  ASP618  TYR619  PRO620  LYS621  CYS622 
 ASP623  PHE694  ASN695  SER759  ASP760  ASP761  ALA762  ILE779  LEU786  VAL792 
 PHE793  MET794  SER795  GLU796  ALA797  LYS798  CYS799  TRP800  GLU811  SER814 

> <Gold.Protein.RotatedAtoms>
  152.4553  133.7711  159.6798 H   0  0  0  0  0  0  0  0  0  0  0  0  # atno 6907 bound_to 6896
  150.8477  133.7825  159.3043 H   0  0  0  0  0  0  0  0  0  0  0  0  # atno 6908 bound_to 6896
  151.5430  135.1071  159.9983 H   0  0  0  0  0  0  0  0  0  0  0  0  # atno 6909 bound_to 6896
  146.2269  139.8845  142.8565 H   0  0  0  0  0  0  0  0  0  0  0  0  # atno 7974 bound_to 7965
  154.4018  140.1342  156.4200 H   0  0  0  0  0  0  0  0  0  0  0  0  # atno 8008 bound_to 7997
  155.7652  140.3485  155.5198 H   0  0  0  0  0  0  0  0  0  0  0  0  # atno 8009 bound_to 7997
  155.8821  140.0989  157.1468 H   0  0  0  0  0  0  0  0  0  0  0  0  # atno 8010 bound_to 7997
  140.4313  143.2547  151.8755 H   0  0  0  0  0  0  0  0  0  0  0  0  # atno 10167 bound_to 10162
  156.3869  130.4366  149.7425 H   0  0  0  0  0  0  0  0  0  0  0  0  # atno 10718 bound_to 10713
  154.3153  135.2756  155.2546 H   0  0  0  0  0  0  0  0  0  0  0  0  # atno 10763 bound_to 10752
  154.4923  135.5830  153.6472 H   0  0  0  0  0  0  0  0  0  0  0  0  # atno 10764 bound_to 10752
  152.9883  135.6137  154.3334 H   0  0  0  0  0  0  0  0  0  0  0  0  # atno 10765 bound_to 10752
  140.1730  134.8530  157.2713 H   0  0  0  0  0  0  0  0  0  0  0  0  # atno 11005 bound_to 11000
  145.2479  141.0033  143.3898 LP  0  0  0  0  0  0  0  0  0  0  0  0  # atno 17320 bound_to 7965
  144.9398  139.4202  143.6454 LP  0  0  0  0  0  0  0  0  0  0  0  0  # atno 17321 bound_to 7965
  139.4785  144.5331  151.8637 LP  0  0  0  0  0  0  0  0  0  0  0  0  # atno 17342 bound_to 10162
  140.4424  144.1968  150.5892 LP  0  0  0  0  0  0  0  0  0  0  0  0  # atno 17343 bound_to 10162
  156.4494  130.7899  151.2921 LP  0  0  0  0  0  0  0  0  0  0  0  0  # atno 17370 bound_to 10713
  157.7496  131.0100  150.3289 LP  0  0  0  0  0  0  0  0  0  0  0  0  # atno 17371 bound_to 10713
  140.2355  134.3857  155.7503 LP  0  0  0  0  0  0  0  0  0  0  0  0  # atno 17394 bound_to 11000
  141.2218  133.7237  156.8708 LP  0  0  0  0  0  0  0  0  0  0  0  0  # atno 17395 bound_to 11000

$$$$
