AV-unprocessed.smi:2193|AV-procd|sdf|8901|dock4
  -GOLD-   2272012113D 1   1.00000     0.00000
 Structure written by MMmdl.
 41 43  0  0  0  0  0  0  0  0  2 V2000
  149.7916  140.8072  153.2322 O   0  0  0  0  0  0  0  0  0  0  0  0
  149.0674  141.1514  154.3948 C   0  0  0  0  0  0  0  0  0  0  0  0
  149.9292  141.2762  155.6111 C   0  0  0  0  0  0  0  0  0  0  0  0
  149.9281  142.3114  156.4995 N   0  3  0  0  0  0  0  0  0  0  0  0
  150.8709  142.0783  157.5012 C   0  0  0  0  0  0  0  0  0  0  0  0
  151.2295  142.8371  158.6110 C   0  0  0  0  0  0  0  0  0  0  0  0
  152.2398  142.3069  159.4402 C   0  0  0  0  0  0  0  0  0  0  0  0
  152.8520  141.0695  159.1522 C   0  0  0  0  0  0  0  0  0  0  0  0
  152.4800  140.3094  158.0238 C   0  0  0  0  0  0  0  0  0  0  0  0
  151.4794  140.8405  157.2105 C   0  0  0  0  0  0  0  0  0  0  0  0
  150.8656  140.3812  156.0401 N   0  0  0  0  0  0  0  0  0  0  0  0
  151.2856  139.0916  155.4693 C   0  0  0  0  0  0  0  0  0  0  0  0
  150.0976  138.1774  155.1071 C   0  0  1  0  0  0  0  0  0  0  0  0
  149.8309  138.3012  153.7240 O   0  0  0  0  0  0  0  0  0  0  0  0
  150.3925  136.7022  155.4217 C   0  0  0  0  0  0  0  0  0  0  0  0
  149.3119  135.9077  154.9500 O   0  0  0  0  0  0  0  0  0  0  0  0
  149.5054  134.5485  154.8246 C   0  0  0  0  0  0  0  0  0  0  0  0
  150.4242  133.9489  155.7109 C   0  0  0  0  0  0  0  0  0  0  0  0
  150.6841  132.5659  155.6546 C   0  0  0  0  0  0  0  0  0  0  0  0
  150.0245  131.7650  154.7046 C   0  0  0  0  0  0  0  0  0  0  0  0
  150.2734  130.4352  154.6479 F   0  0  0  0  0  0  0  0  0  0  0  0
  149.1058  132.3494  153.8132 C   0  0  0  0  0  0  0  0  0  0  0  0
  148.8453  133.7329  153.8703 C   0  0  0  0  0  0  0  0  0  0  0  0
  149.2428  140.2647  152.6861 H   0  0  0  0  0  0  0  0  0  0  0  0
  148.5509  142.0952  154.2185 H   0  0  0  0  0  0  0  0  0  0  0  0
  148.3054  140.3930  154.5758 H   0  0  0  0  0  0  0  0  0  0  0  0
  150.7624  143.7855  158.8335 H   0  0  0  0  0  0  0  0  0  0  0  0
  152.5516  142.8603  160.3142 H   0  0  0  0  0  0  0  0  0  0  0  0
  153.6230  140.6957  159.8107 H   0  0  0  0  0  0  0  0  0  0  0  0
  152.9544  139.3625  157.8118 H   0  0  0  0  0  0  0  0  0  0  0  0
  151.8873  139.2993  154.5836 H   0  0  0  0  0  0  0  0  0  0  0  0
  151.9511  138.6030  156.1821 H   0  0  0  0  0  0  0  0  0  0  0  0
  149.2160  138.4972  155.6636 H   0  0  0  0  0  0  0  0  0  0  0  0
  149.6243  137.4452  153.3810 H   0  0  0  0  0  0  0  0  0  0  0  0
  151.3436  136.3946  154.9828 H   0  0  0  0  0  0  0  0  0  0  0  0
  150.4659  136.5725  156.5027 H   0  0  0  0  0  0  0  0  0  0  0  0
  150.9355  134.5561  156.4434 H   0  0  0  0  0  0  0  0  0  0  0  0
  151.3896  132.1205  156.3405 H   0  0  0  0  0  0  0  0  0  0  0  0
  148.5993  131.7357  153.0831 H   0  0  0  0  0  0  0  0  0  0  0  0
  148.1345  134.1438  153.1697 H   0  0  0  0  0  0  0  0  0  0  0  0
  149.3207  143.1170  156.4199 H   0  0  0  0  0  0  0  0  0  0  0  0
  1  2  1  0  0  0  0
  1 24  1  0  0  0  0
  2  3  1  0  0  0  0
  2 25  1  0  0  0  0
  2 26  1  0  0  0  0
  3 11  1  0  0  0  0
  3  4  2  0  0  0  0
  4  5  1  0  0  0  0
  4 41  1  0  0  0  0
  5 10  2  0  0  0  0
  5  6  1  0  0  0  0
  6  7  2  0  0  0  0
  6 27  1  0  0  0  0
  7  8  1  0  0  0  0
  7 28  1  0  0  0  0
  8  9  2  0  0  0  0
  8 29  1  0  0  0  0
  9 10  1  0  0  0  0
  9 30  1  0  0  0  0
 10 11  1  0  0  0  0
 11 12  1  0  0  0  0
 12 13  1  0  0  0  0
 12 31  1  0  0  0  0
 12 32  1  0  0  0  0
 13 14  1  0  0  0  0
 13 15  1  0  0  0  0
 13 33  1  0  0  0  0
 14 34  1  0  0  0  0
 15 16  1  0  0  0  0
 15 35  1  0  0  0  0
 15 36  1  0  0  0  0
 16 17  1  0  0  0  0
 17 23  1  0  0  0  0
 17 18  2  0  0  0  0
 18 19  1  0  0  0  0
 18 37  1  0  0  0  0
 19 20  2  0  0  0  0
 19 38  1  0  0  0  0
 20 21  1  0  0  0  0
 20 22  1  0  0  0  0
 22 23  2  0  0  0  0
 22 39  1  0  0  0  0
 23 40  1  0  0  0  0
M  CHG  1   4   1
M  END
> <s_m_source_file>
AV-unprocessed.smi

> <i_m_source_file_index>
2193

> <i_lp_mmshare_version>
43012

> <i_f3d_flags>
0

> <s_epik_input>
W2NIXTFbY0hdW2NIXVtjSF1jKGMxMiluKGMobjIpW0NIMl1bT0hdKVtDSDJdW0NASF0oW09IXSlbQ0gyXU9jM1tjSF1bY0hdYyhGKVtjSF1bY0hdMw==

> <s_epik_cmdline>
J2VwaWtfcHl0aG9uJywgJy1waCcsICc3LjAnLCAnLXRuJywgJzgnLCAnLW1hJywgJzIwMCcsICctbWV0YWxfYmluZGluZycsICctaW1hZScsICc8aW5maWxlLm1hZT4nLCAnLW9tYWUnLCAnPG91dGZpbGUubWFlPic=

> <r_lp_tautomer_probability>
1

> <r_epik_Ionization_Penalty>
1.43752

> <r_epik_Ionization_Penalty_Charging>
1.43666

> <r_epik_Ionization_Penalty_Neutral>
0.000858184

> <r_epik_State_Penalty>
1.52171

> <r_epik_Charging_Adjusted_Penalty>
2.95837

> <i_epik_Tot_Q>
1

> <i_epik_Tot_abs_Q>
1

> <r_epik_Metal_State_Penalty>
5.56725

> <b_epik_Metal_Only>
0

> <s_lp_Force_Field>
OPLS_2005

> <r_lp_Energy>
18.7626

> <b_lp_Chiralities_Consistent>
1

> <s_lp_Variant>
AV-unprocessed.smi:2193-4

> <Gold.Version>
5.8.1

> <Gold.Id.Protein>
6NUR|6NUR_protein|mol2

> <Gold.PLP.Fitness>
58.5733

> <Gold.PLP.PLP>
-47.1069

> <Gold.PLP.part.hbond>
-4.1758

> <Gold.PLP.part.metal>
0.0000

> <Gold.PLP.part.buried>
-3.6710

> <Gold.PLP.part.nonpolar>
-38.5657

> <Gold.PLP.part.repulsive>
0.3078

> <Gold.PLP.ligand.clash>
0.0000

> <Gold.PLP.ligand.torsion>
1.2288

> <Gold.PLP.Chemscore.Hbond>
4.6240

> <Gold.PLP.Chemscore.CHOScore>
0.0000

> <Gold.PLP.Chemscore.Metal>
0.0000

> <Gold.Chemscore.Hbonds>
donor molecule, donor type, donor heavy atom, donor atom, acceptor molecule, acceptor atom, score
      L1  H     1    24       P1  7957  0.40
      L1  H     4    41       P1  8028  2.00
      L1  H    14    34       P1  7948  1.00
      P1  H  7989  7998       L1     1  0.22
      P1  H  8011  8017       L1     1  1.00

> <Gold.PLP.Chemscore.Internal.Correction>
0.0520

> <Gold.Rescore>
     Score         DG    S(hbond)    S(metal)    S(lipo)     H(rot)  DE(clash)    DE(int)     intcor
     18.30     -19.52       3.13        0.00     103.14       3.31       0.09       1.13       ----

> <Gold.Chemscore.Fitness>
18.2975

> <Gold.Chemscore.DG>
-19.5155

> <Gold.Chemscore.ZeroCoef>
-5.4800

> <Gold.Chemscore.Hbond>
3.1290

> <Gold.Chemscore.Metal>
0.0000

> <Gold.Chemscore.Lipo>
103.1374

> <Gold.Chemscore.Internal_Hbond>
0.0000

> <Gold.Chemscore.DEClash>
0.0863

> <Gold.Chemscore.DEInternal>
1.1317

> <Gold.Chemscore.Rot>
3.3134

> <Gold.Chemscore.Internal.Correction>
   9.000000E+99

> <Gold.Chemscore.Hbonds>
donor molecule, donor type, donor heavy atom, donor atom, acceptor molecule, acceptor atom, score
      L1  H     1    24       P1  7957  0.39
      L1  H     4    41       P1  8028  0.95
      L1  H    14    34       P1  7948  0.74
      P1  H  7989  7998       L1     1  0.20
      P1  H  8011  8017       L1     1  0.14

> <Gold.Chemscore.Hbond.Weighted>
-10.4507

> <Gold.Chemscore.Metal.Weighted>
-0.0000

> <Gold.Chemscore.Lipo.Weighted>
-12.0671

> <Gold.Chemscore.Internal_Hbond.Weighted>
0.0000

> <Gold.Chemscore.DEClash.Weighted>
0.0863

> <Gold.Chemscore.DEInternal.Weighted>
1.1317

> <Gold.Chemscore.Rot.Weighted>
8.4823

> <Gold.Chemscore.Internal.Correction.Weighted>
   9.000000E+99

> <Gold.Protein.RotatedTorsions>
[ 6907 6896 6895 6894 ] final  148.79 input  -60.11 | X-H torsion
[ 7974 7965 7964 7962 ] final  -20.24 input  175.53 | X-H torsion
[ 8008 7997 7996 7995 ] final -118.56 input   59.86 | X-H torsion
[ 10167 10162 10161 10158 ] final  132.68 input  -65.29 | X-H torsion
[ 10718 10713 10712 10709 ] final  -50.35 input   66.30 | X-H torsion
[ 10763 10752 10751 10750 ] final  116.29 input  -60.55 | X-H torsion
[ 11005 11000 10999 10996 ] final   38.18 input  -57.11 | X-H torsion

> <Gold.Protein.ActiveResidues>
 VAL166  LYS551  ARG553  GLY616  TRP617  ASP618  TYR619  PRO620  LYS621  CYS622 
 ASP623  PHE694  ASN695  SER759  ASP760  ASP761  ALA762  ILE779  LEU786  VAL792 
 PHE793  MET794  SER795  GLU796  ALA797  LYS798  CYS799  TRP800  GLU811  SER814 

> <Gold.Protein.RotatedAtoms>
  152.1367  133.4439  159.4746 H   0  0  0  0  0  0  0  0  0  0  0  0  # atno 6907 bound_to 6896
  150.6882  134.2355  159.4460 H   0  0  0  0  0  0  0  0  0  0  0  0  # atno 6908 bound_to 6896
  152.0243  134.9804  160.0622 H   0  0  0  0  0  0  0  0  0  0  0  0  # atno 6909 bound_to 6896
  146.1799  140.4175  142.8499 H   0  0  0  0  0  0  0  0  0  0  0  0  # atno 7974 bound_to 7965
  155.1016  140.0396  157.2698 H   0  0  0  0  0  0  0  0  0  0  0  0  # atno 8008 bound_to 7997
  154.6754  140.2621  155.6938 H   0  0  0  0  0  0  0  0  0  0  0  0  # atno 8009 bound_to 7997
  156.2674  140.2789  156.1278 H   0  0  0  0  0  0  0  0  0  0  0  0  # atno 8010 bound_to 7997
  139.5329  144.6651  151.4886 H   0  0  0  0  0  0  0  0  0  0  0  0  # atno 10167 bound_to 10162
  156.1808  130.4150  149.9509 H   0  0  0  0  0  0  0  0  0  0  0  0  # atno 10718 bound_to 10713
  153.5349  135.3570  155.2692 H   0  0  0  0  0  0  0  0  0  0  0  0  # atno 10763 bound_to 10752
  154.8723  135.4077  154.3109 H   0  0  0  0  0  0  0  0  0  0  0  0  # atno 10764 bound_to 10752
  153.3805  135.7068  153.6637 H   0  0  0  0  0  0  0  0  0  0  0  0  # atno 10765 bound_to 10752
  140.2152  134.3707  155.8030 H   0  0  0  0  0  0  0  0  0  0  0  0  # atno 11005 bound_to 11000
  144.8297  140.6686  143.6299 LP  0  0  0  0  0  0  0  0  0  0  0  0  # atno 17320 bound_to 7965
  145.4107  139.1580  143.4127 LP  0  0  0  0  0  0  0  0  0  0  0  0  # atno 17321 bound_to 7965
  140.6519  143.8680  150.6794 LP  0  0  0  0  0  0  0  0  0  0  0  0  # atno 17342 bound_to 10162
  140.2047  143.3931  152.1765 LP  0  0  0  0  0  0  0  0  0  0  0  0  # atno 17343 bound_to 10162
  156.7280  130.9032  151.3623 LP  0  0  0  0  0  0  0  0  0  0  0  0  # atno 17370 bound_to 10713
  157.6867  130.9192  150.0405 LP  0  0  0  0  0  0  0  0  0  0  0  0  # atno 17371 bound_to 10713
  141.2225  133.7164  156.8484 LP  0  0  0  0  0  0  0  0  0  0  0  0  # atno 17394 bound_to 11000
  140.1908  134.8967  157.3058 LP  0  0  0  0  0  0  0  0  0  0  0  0  # atno 17395 bound_to 11000

$$$$
