AV-unprocessed.smi:413|AV-procd|sdf|2512|dock2
  -GOLD-   2262022463D 1   1.00000     0.00000
 Structure written by MMmdl.
 40 42  0  0  0  0  0  0  0  0  1 V2000
  153.7409  140.9504  160.3167 C   0  0  0  0  0  0  0  0  0  0  0  0
  152.8552  141.5777  159.3435 N   0  0  0  0  0  0  0  0  0  0  0  0
  152.4410  141.0591  158.1640 C   0  0  0  0  0  0  0  0  0  0  0  0
  152.7422  139.9546  157.7116 O   0  0  0  0  0  0  0  0  0  0  0  0
  151.6370  141.9696  157.5644 N   0  0  0  0  0  0  0  0  0  0  0  0
  150.9594  141.8170  156.2779 C   0  0  0  0  0  0  0  0  0  0  0  0
  149.7337  140.8861  156.3791 C   0  0  2  0  0  0  0  0  0  0  0  0
  150.1052  139.6001  155.9252 O   0  0  0  0  0  0  0  0  0  0  0  0
  148.5696  141.3643  155.4979 C   0  0  0  0  0  0  0  0  0  0  0  0
  147.5019  141.7844  156.3373 O   0  0  0  0  0  0  0  0  0  0  0  0
  146.4744  142.5103  155.7754 C   0  0  0  0  0  0  0  0  0  0  0  0
  145.4312  142.9115  156.6353 C   0  0  0  0  0  0  0  0  0  0  0  0
  144.3415  143.6581  156.1476 C   0  0  0  0  0  0  0  0  0  0  0  0
  144.2832  144.0096  154.7865 C   0  0  0  0  0  0  0  0  0  0  0  0
  143.2356  144.7266  154.3154 F   0  0  0  0  0  0  0  0  0  0  0  0
  145.3160  143.6140  153.9163 C   0  0  0  0  0  0  0  0  0  0  0  0
  146.4069  142.8684  154.4048 C   0  0  0  0  0  0  0  0  0  0  0  0
  151.5361  143.1033  158.3843 C   0  0  0  0  0  0  0  0  0  0  0  0
  150.8368  144.3114  158.2161 C   0  0  0  0  0  0  0  0  0  0  0  0
  150.9436  145.2699  159.2512 C   0  0  0  0  0  0  0  0  0  0  0  0
  151.7283  145.0104  160.4050 C   0  0  0  0  0  0  0  0  0  0  0  0
  152.4255  143.7878  160.5469 C   0  0  0  0  0  0  0  0  0  0  0  0
  152.3016  142.8541  159.5039 C   0  0  0  0  0  0  0  0  0  0  0  0
  153.9994  139.9283  160.0377 H   0  0  0  0  0  0  0  0  0  0  0  0
  153.2637  140.9199  161.2965 H   0  0  0  0  0  0  0  0  0  0  0  0
  154.6658  141.5208  160.4042 H   0  0  0  0  0  0  0  0  0  0  0  0
  150.6410  142.8113  155.9608 H   0  0  0  0  0  0  0  0  0  0  0  0
  151.6486  141.4748  155.5052 H   0  0  0  0  0  0  0  0  0  0  0  0
  149.3864  140.8070  157.4100 H   0  0  0  0  0  0  0  0  0  0  0  0
  150.8219  139.6931  155.3164 H   0  0  0  0  0  0  0  0  0  0  0  0
  148.8995  142.1813  154.8536 H   0  0  0  0  0  0  0  0  0  0  0  0
  148.2285  140.5460  154.8612 H   0  0  0  0  0  0  0  0  0  0  0  0
  145.4684  142.6457  157.6818 H   0  0  0  0  0  0  0  0  0  0  0  0
  143.5509  143.9606  156.8184 H   0  0  0  0  0  0  0  0  0  0  0  0
  145.2720  143.8823  152.8711 H   0  0  0  0  0  0  0  0  0  0  0  0
  147.1784  142.5808  153.7069 H   0  0  0  0  0  0  0  0  0  0  0  0
  150.2421  144.5069  157.3362 H   0  0  0  0  0  0  0  0  0  0  0  0
  150.4210  146.2108  159.1621 H   0  0  0  0  0  0  0  0  0  0  0  0
  151.7946  145.7557  161.1840 H   0  0  0  0  0  0  0  0  0  0  0  0
  153.0258  143.5829  161.4211 H   0  0  0  0  0  0  0  0  0  0  0  0
  1  2  1  0  0  0  0
  1 24  1  0  0  0  0
  1 25  1  0  0  0  0
  1 26  1  0  0  0  0
  2 23  1  0  0  0  0
  2  3  1  0  0  0  0
  3  4  2  0  0  0  0
  3  5  1  0  0  0  0
  5  6  1  0  0  0  0
  5 18  1  0  0  0  0
  6  7  1  0  0  0  0
  6 27  1  0  0  0  0
  6 28  1  0  0  0  0
  7  8  1  0  0  0  0
  7  9  1  0  0  0  0
  7 29  1  0  0  0  0
  8 30  1  0  0  0  0
  9 10  1  0  0  0  0
  9 31  1  0  0  0  0
  9 32  1  0  0  0  0
 10 11  1  0  0  0  0
 11 17  1  0  0  0  0
 11 12  2  0  0  0  0
 12 13  1  0  0  0  0
 12 33  1  0  0  0  0
 13 14  2  0  0  0  0
 13 34  1  0  0  0  0
 14 15  1  0  0  0  0
 14 16  1  0  0  0  0
 16 17  2  0  0  0  0
 16 35  1  0  0  0  0
 17 36  1  0  0  0  0
 18 23  2  0  0  0  0
 18 19  1  0  0  0  0
 19 20  2  0  0  0  0
 19 37  1  0  0  0  0
 20 21  1  0  0  0  0
 20 38  1  0  0  0  0
 21 22  2  0  0  0  0
 21 39  1  0  0  0  0
 22 23  1  0  0  0  0
 22 40  1  0  0  0  0
M  END
> <s_m_source_file>
AV-unprocessed.smi

> <i_m_source_file_index>
413

> <i_lp_mmshare_version>
43012

> <i_f3d_flags>
0

> <s_epik_input>
W2NIXTFbY0hdW2NIXVtjSF1jKGMxMiluKFtDSDNdKWMoPU8pbjJbQ0gyXVtDQEhdKFtPSF0pW0NIMl1PYzNbY0hdW2NIXWMoRilbY0hdW2NIXTM=

> <s_epik_cmdline>
J2VwaWtfcHl0aG9uJywgJy1waCcsICc3LjAnLCAnLXRuJywgJzgnLCAnLW1hJywgJzIwMCcsICctbWV0YWxfYmluZGluZycsICctaW1hZScsICc8aW5maWxlLm1hZT4nLCAnLW9tYWUnLCAnPG91dGZpbGUubWFlPic=

> <r_lp_tautomer_probability>
1

> <r_epik_Ionization_Penalty>
2.40172e-06

> <r_epik_Ionization_Penalty_Charging>
2.42369e-09

> <r_epik_Ionization_Penalty_Neutral>
2.3993e-06

> <r_epik_State_Penalty>
-0

> <r_epik_Charging_Adjusted_Penalty>
2.42369e-09

> <i_epik_Tot_Q>
0

> <i_epik_Tot_abs_Q>
0

> <r_epik_Metal_State_Penalty>
-0

> <b_epik_Metal_Only>
0

> <s_lp_Force_Field>
OPLS_2005

> <r_lp_Energy>
46.1897

> <b_lp_Chiralities_Consistent>
1

> <s_lp_Variant>
AV-unprocessed.smi:413-1

> <Gold.Version>
5.8.1

> <Gold.Id.Protein>
6NUR|6NUR_protein|mol2

> <Gold.PLP.Fitness>
49.4632

> <Gold.PLP.PLP>
-49.4006

> <Gold.PLP.part.hbond>
-1.0000

> <Gold.PLP.part.metal>
0.0000

> <Gold.PLP.part.buried>
-3.6354

> <Gold.PLP.part.nonpolar>
-43.9369

> <Gold.PLP.part.repulsive>
0.1392

> <Gold.PLP.ligand.clash>
0.0000

> <Gold.PLP.ligand.torsion>
1.5029

> <Gold.PLP.Chemscore.Hbond>
0.9913

> <Gold.PLP.Chemscore.CHOScore>
0.0000

> <Gold.PLP.Chemscore.Metal>
0.0000

> <Gold.Chemscore.Hbonds>
donor molecule, donor type, donor heavy atom, donor atom, acceptor molecule, acceptor atom, score
      P1  H  7997  8008       L1     4  1.00

> <Gold.PLP.Chemscore.Internal.Correction>
0.0946

> <Gold.Rescore>
     Score         DG    S(hbond)    S(metal)    S(lipo)     H(rot)  DE(clash)    DE(int)     intcor
     14.71     -16.66       0.92        0.00     118.91       2.27       0.23       1.72       ----

> <Gold.Chemscore.Fitness>
14.7093

> <Gold.Chemscore.DG>
-16.6567

> <Gold.Chemscore.ZeroCoef>
-5.4800

> <Gold.Chemscore.Hbond>
0.9213

> <Gold.Chemscore.Metal>
0.0000

> <Gold.Chemscore.Lipo>
118.9089

> <Gold.Chemscore.Internal_Hbond>
0.0000

> <Gold.Chemscore.DEClash>
0.2277

> <Gold.Chemscore.DEInternal>
1.7197

> <Gold.Chemscore.Rot>
2.2706

> <Gold.Chemscore.Internal.Correction>
   9.000000E+99

> <Gold.Chemscore.Hbonds>
donor molecule, donor type, donor heavy atom, donor atom, acceptor molecule, acceptor atom, score
      P1  H  7997  8008       L1     4  0.69

> <Gold.Chemscore.Hbond.Weighted>
-3.0771

> <Gold.Chemscore.Metal.Weighted>
-0.0000

> <Gold.Chemscore.Lipo.Weighted>
-13.9123

> <Gold.Chemscore.Internal_Hbond.Weighted>
0.0000

> <Gold.Chemscore.DEClash.Weighted>
0.2277

> <Gold.Chemscore.DEInternal.Weighted>
1.7197

> <Gold.Chemscore.Rot.Weighted>
5.8128

> <Gold.Chemscore.Internal.Correction.Weighted>
   9.000000E+99

> <Gold.Protein.RotatedTorsions>
[ 6907 6896 6895 6894 ] final  -47.65 input  -60.11 | X-H torsion
[ 7974 7965 7964 7962 ] final -170.45 input  175.53 | X-H torsion
[ 8008 7997 7996 7995 ] final  -77.14 input   59.86 | X-H torsion
[ 10167 10162 10161 10158 ] final   58.60 input  -65.29 | X-H torsion
[ 10718 10713 10712 10709 ] final  -60.11 input   66.30 | X-H torsion
[ 10763 10752 10751 10750 ] final   20.10 input  -60.55 | X-H torsion
[ 11005 11000 10999 10996 ] final  -87.84 input  -57.11 | X-H torsion

> <Gold.Protein.ActiveResidues>
 VAL166  LYS551  ARG553  GLY616  TRP617  ASP618  TYR619  PRO620  LYS621  CYS622 
 ASP623  PHE694  ASN695  SER759  ASP760  ASP761  ALA762  ILE779  LEU786  VAL792 
 PHE793  MET794  SER795  GLU796  ALA797  LYS798  CYS799  TRP800  GLU811  SER814 

> <Gold.Protein.RotatedAtoms>
  150.8986  134.8397  159.7343 H   0  0  0  0  0  0  0  0  0  0  0  0  # atno 6907 bound_to 6896
  152.4879  134.4537  159.9592 H   0  0  0  0  0  0  0  0  0  0  0  0  # atno 6908 bound_to 6896
  151.4591  133.3558  159.2842 H   0  0  0  0  0  0  0  0  0  0  0  0  # atno 6909 bound_to 6896
  144.7170  140.2071  143.6332 H   0  0  0  0  0  0  0  0  0  0  0  0  # atno 7974 bound_to 7965
  154.5569  140.0715  156.8757 H   0  0  0  0  0  0  0  0  0  0  0  0  # atno 8008 bound_to 7997
  155.2885  140.3376  155.4235 H   0  0  0  0  0  0  0  0  0  0  0  0  # atno 8009 bound_to 7997
  156.2009  140.1721  156.7886 H   0  0  0  0  0  0  0  0  0  0  0  0  # atno 8010 bound_to 7997
  140.1855  144.4138  150.6595 H   0  0  0  0  0  0  0  0  0  0  0  0  # atno 10167 bound_to 10162
  156.1014  130.4186  150.0808 H   0  0  0  0  0  0  0  0  0  0  0  0  # atno 10718 bound_to 10713
  153.1106  135.6695  153.9508 H   0  0  0  0  0  0  0  0  0  0  0  0  # atno 10763 bound_to 10752
  153.9052  135.3031  155.3450 H   0  0  0  0  0  0  0  0  0  0  0  0  # atno 10764 bound_to 10752
  154.7525  135.5027  153.9392 H   0  0  0  0  0  0  0  0  0  0  0  0  # atno 10765 bound_to 10752
  141.1611  133.7535  156.9365 H   0  0  0  0  0  0  0  0  0  0  0  0  # atno 11005 bound_to 11000
  145.8626  139.2230  143.1708 LP  0  0  0  0  0  0  0  0  0  0  0  0  # atno 17320 bound_to 7965
  146.0159  140.8392  142.9947 LP  0  0  0  0  0  0  0  0  0  0  0  0  # atno 17321 bound_to 7965
  140.6491  143.2220  151.6118 LP  0  0  0  0  0  0  0  0  0  0  0  0  # atno 17342 bound_to 10162
  139.5278  144.3007  152.1076 LP  0  0  0  0  0  0  0  0  0  0  0  0  # atno 17343 bound_to 10162
  156.8795  130.9551  151.3601 LP  0  0  0  0  0  0  0  0  0  0  0  0  # atno 17370 bound_to 10713
  157.6184  130.8636  149.9067 LP  0  0  0  0  0  0  0  0  0  0  0  0  # atno 17371 bound_to 10713
  140.1351  134.9330  157.2390 LP  0  0  0  0  0  0  0  0  0  0  0  0  # atno 17394 bound_to 11000
  140.2905  134.3246  155.7316 LP  0  0  0  0  0  0  0  0  0  0  0  0  # atno 17395 bound_to 11000

$$$$
