AV-unprocessed.smi:167|AV-procd|sdf|1393|dock3
  -GOLD-   2262019133D 1   1.00000     0.00000
 Structure written by MMmdl.
 51 55  0  0  0  0  0  0  0  0  1 V2000
  149.1104  142.5991  157.3119 O   0  0  0  0  0  0  0  0  0  0  0  0
  149.4010  141.4012  156.6241 C   0  0  0  0  0  0  0  0  0  0  0  0
  148.1006  140.6405  156.3036 C   0  0  1  0  0  0  0  0  0  0  0  0
  147.1911  141.3276  155.2692 C   0  0  0  0  0  0  0  0  0  0  0  0
  146.9088  140.1694  154.2963 C   0  0  1  0  0  0  0  0  0  0  0  0
  148.1579  139.9486  153.4169 C   0  0  0  0  0  0  0  0  0  0  0  0
  149.0964  139.2401  154.4049 C   0  0  0  0  0  0  0  0  0  0  0  0
  148.2351  139.2281  155.6871 C   0  0  2  0  0  0  0  0  0  0  0  0
  146.8878  139.0106  155.1804 N   0  0  0  0  0  0  0  0  0  0  0  0
  146.5085  137.7880  154.7146 C   0  0  0  0  0  0  0  0  0  0  0  0
  146.4250  136.7506  155.5902 N   0  0  0  0  0  0  0  0  0  0  0  0
  146.0539  135.5371  155.1741 C   0  0  0  0  0  0  0  0  0  0  0  0
  145.7376  135.1399  153.9412 N   0  0  0  0  0  0  0  0  0  0  0  0
  145.8403  136.1669  153.0503 C   0  0  0  0  0  0  0  0  0  0  0  0
  146.2131  137.5102  153.3473 C   0  0  0  0  0  0  0  0  0  0  0  0
  146.2020  138.2633  152.1785 N   0  0  0  0  0  0  0  0  0  0  0  0
  145.8279  137.4231  151.2533 C   0  0  0  0  0  0  0  0  0  0  0  0
  145.6150  136.1344  151.6855 N   0  0  0  0  0  0  0  0  0  0  0  0
  145.1694  135.0209  150.8998 C   0  0  0  0  0  0  0  0  0  0  0  0
  144.0679  134.0891  151.4134 C   0  0  0  0  0  0  0  0  0  0  0  0
  144.7347  132.9099  150.6675 C   0  0  0  0  0  0  0  0  0  0  0  0
  144.7709  131.5460  151.3855 C   0  0  0  0  0  0  0  0  0  0  0  0
  145.9458  130.8133  151.1007 O   0  0  0  0  0  0  0  0  0  0  0  0
  144.2198  132.6581  149.2376 C   0  0  0  0  0  0  0  0  0  0  0  0
  142.9213  132.0998  149.2440 O   0  0  0  0  0  0  0  0  0  0  0  0
  146.0248  133.7599  150.7341 C   0  0  0  0  0  0  0  0  0  0  0  0
  149.0393  143.2988  156.6807 H   0  0  0  0  0  0  0  0  0  0  0  0
  149.9175  141.6547  155.6980 H   0  0  0  0  0  0  0  0  0  0  0  0
  150.0948  140.7997  157.2099 H   0  0  0  0  0  0  0  0  0  0  0  0
  147.5360  140.5433  157.2329 H   0  0  0  0  0  0  0  0  0  0  0  0
  146.2718  141.6765  155.7412 H   0  0  0  0  0  0  0  0  0  0  0  0
  147.6600  142.1804  154.7767 H   0  0  0  0  0  0  0  0  0  0  0  0
  145.9964  140.3263  153.7199 H   0  0  0  0  0  0  0  0  0  0  0  0
  147.9375  139.3034  152.5657 H   0  0  0  0  0  0  0  0  0  0  0  0
  148.5727  140.8814  153.0337 H   0  0  0  0  0  0  0  0  0  0  0  0
  149.2963  138.2208  154.0709 H   0  0  0  0  0  0  0  0  0  0  0  0
  150.0585  139.7363  154.5209 H   0  0  0  0  0  0  0  0  0  0  0  0
  148.5792  138.5035  156.4225 H   0  0  0  0  0  0  0  0  0  0  0  0
  146.0056  134.7754  155.9379 H   0  0  0  0  0  0  0  0  0  0  0  0
  145.7042  137.7244  150.2232 H   0  0  0  0  0  0  0  0  0  0  0  0
  144.8998  135.4326  149.9259 H   0  0  0  0  0  0  0  0  0  0  0  0
  144.0879  133.9880  152.4998 H   0  0  0  0  0  0  0  0  0  0  0  0
  143.0666  134.3490  151.0691 H   0  0  0  0  0  0  0  0  0  0  0  0
  144.7178  131.6692  152.4676 H   0  0  0  0  0  0  0  0  0  0  0  0
  143.9163  130.9334  151.0965 H   0  0  0  0  0  0  0  0  0  0  0  0
  146.5458  130.9149  151.8237 H   0  0  0  0  0  0  0  0  0  0  0  0
  144.1810  133.5822  148.6607 H   0  0  0  0  0  0  0  0  0  0  0  0
  144.8861  131.9884  148.6930 H   0  0  0  0  0  0  0  0  0  0  0  0
  142.2934  132.8012  149.3281 H   0  0  0  0  0  0  0  0  0  0  0  0
  146.6302  133.7437  149.8273 H   0  0  0  0  0  0  0  0  0  0  0  0
  146.6393  133.5568  151.6125 H   0  0  0  0  0  0  0  0  0  0  0  0
  1  2  1  0  0  0  0
  1 27  1  0  0  0  0
  2  3  1  0  0  0  0
  2 28  1  0  0  0  0
  2 29  1  0  0  0  0
  3  8  1  0  0  0  0
  3  4  1  0  0  0  0
  3 30  1  0  0  0  0
  4  5  1  0  0  0  0
  4 31  1  0  0  0  0
  4 32  1  0  0  0  0
  5  9  1  0  0  0  0
  5  6  1  0  0  0  0
  5 33  1  0  0  0  0
  6  7  1  0  0  0  0
  6 34  1  0  0  0  0
  6 35  1  0  0  0  0
  7  8  1  0  0  0  0
  7 36  1  0  0  0  0
  7 37  1  0  0  0  0
  8  9  1  0  0  0  0
  8 38  1  0  0  0  0
  9 10  1  0  0  0  0
 10 15  1  0  0  0  0
 10 11  2  0  0  0  0
 11 12  1  0  0  0  0
 12 13  2  0  0  0  0
 12 39  1  0  0  0  0
 13 14  1  0  0  0  0
 14 18  1  0  0  0  0
 14 15  2  0  0  0  0
 15 16  1  0  0  0  0
 16 17  2  0  0  0  0
 17 18  1  0  0  0  0
 17 40  1  0  0  0  0
 18 19  1  0  0  0  0
 19 26  1  0  0  0  0
 19 20  1  0  0  0  0
 19 41  1  0  0  0  0
 20 21  1  0  0  0  0
 20 42  1  0  0  0  0
 20 43  1  0  0  0  0
 21 22  1  0  0  0  0
 21 24  1  0  0  0  0
 21 26  1  0  0  0  0
 22 23  1  0  0  0  0
 22 44  1  0  0  0  0
 22 45  1  0  0  0  0
 23 46  1  0  0  0  0
 24 25  1  0  0  0  0
 24 47  1  0  0  0  0
 24 48  1  0  0  0  0
 25 49  1  0  0  0  0
 26 50  1  0  0  0  0
 26 51  1  0  0  0  0
M  END
> <s_m_source_file>
AV-unprocessed.smi

> <i_m_source_file_index>
167

> <i_lp_mmshare_version>
43012

> <i_f3d_flags>
0

> <s_epik_input>
W09IXVtDSDJdW0NASF0oW0NIMl1bQ0BASF0xMilbQ0BIXShbQ0gyXVtDSDJdMSlOMmMobltjSF1uMyljKGMzNCluW2NIXW40W0NIXShbQ0gyXTUpW0NIMl1DNShbQ0gyXVtPSF0pW0NIMl1bT0hd

> <s_epik_cmdline>
J2VwaWtfcHl0aG9uJywgJy1waCcsICc3LjAnLCAnLXRuJywgJzgnLCAnLW1hJywgJzIwMCcsICctbWV0YWxfYmluZGluZycsICctaW1hZScsICc8aW5maWxlLm1hZT4nLCAnLW9tYWUnLCAnPG91dGZpbGUubWFlPic=

> <r_lp_tautomer_probability>
1

> <r_epik_Ionization_Penalty>
0.0047903

> <r_epik_Ionization_Penalty_Charging>
0

> <r_epik_Ionization_Penalty_Neutral>
0.0047903

> <r_epik_State_Penalty>
0.00341021

> <r_epik_Charging_Adjusted_Penalty>
0.00341021

> <i_epik_Tot_Q>
0

> <i_epik_Tot_abs_Q>
0

> <r_epik_Metal_State_Penalty>
-0

> <b_epik_Metal_Only>
0

> <s_lp_Force_Field>
OPLS_2005

> <r_lp_Energy>
89.0066

> <b_lp_Chiralities_Consistent>
1

> <s_lp_Variant>
AV-unprocessed.smi:167-2

> <Gold.Version>
5.8.1

> <Gold.Id.Protein>
6NUR|6NUR_protein|mol2

> <Gold.PLP.Fitness>
44.1097

> <Gold.PLP.PLP>
-34.4168

> <Gold.PLP.part.hbond>
-4.6183

> <Gold.PLP.part.metal>
0.0000

> <Gold.PLP.part.buried>
-1.7532

> <Gold.PLP.part.nonpolar>
-29.9922

> <Gold.PLP.part.repulsive>
0.4427

> <Gold.PLP.ligand.clash>
0.0000

> <Gold.PLP.ligand.torsion>
0.7966

> <Gold.PLP.Chemscore.Hbond>
2.9013

> <Gold.PLP.Chemscore.CHOScore>
0.7043

> <Gold.PLP.Chemscore.Metal>
0.0000

> <Gold.Chemscore.Hbonds>
donor molecule, donor type, donor heavy atom, donor atom, acceptor molecule, acceptor atom, score
      L1  H     1    27       P1  8028  1.00
      L1  H    25    49       P1 10186  0.89
      P1  H 10785 10796       L1    25  0.98
      L1  C    17    40       P1 10171  0.70

> <Gold.PLP.Chemscore.Internal.Correction>
0.4692

> <Gold.Rescore>
     Score         DG    S(hbond)    S(metal)    S(lipo)     H(rot)  DE(clash)    DE(int)     intcor
      7.60     -12.76       2.56        0.00      81.14       4.20       3.17       1.99       ----

> <Gold.Chemscore.Fitness>
7.6024

> <Gold.Chemscore.DG>
-12.7573

> <Gold.Chemscore.ZeroCoef>
-5.4800

> <Gold.Chemscore.Hbond>
2.5584

> <Gold.Chemscore.Metal>
0.0000

> <Gold.Chemscore.Lipo>
81.1441

> <Gold.Chemscore.Internal_Hbond>
0.0000

> <Gold.Chemscore.DEClash>
3.1688

> <Gold.Chemscore.DEInternal>
1.9861

> <Gold.Chemscore.Rot>
4.2038

> <Gold.Chemscore.Internal.Correction>
   9.000000E+99

> <Gold.Chemscore.Hbonds>
donor molecule, donor type, donor heavy atom, donor atom, acceptor molecule, acceptor atom, score
      L1  H     1    27       P1  8028  0.94
      L1  H    25    49       P1 10186  0.87
      P1  H 10785 10796       L1    25  0.46

> <Gold.Chemscore.Hbond.Weighted>
-8.5451

> <Gold.Chemscore.Metal.Weighted>
-0.0000

> <Gold.Chemscore.Lipo.Weighted>
-9.4939

> <Gold.Chemscore.Internal_Hbond.Weighted>
0.0000

> <Gold.Chemscore.DEClash.Weighted>
3.1688

> <Gold.Chemscore.DEInternal.Weighted>
1.9861

> <Gold.Chemscore.Rot.Weighted>
10.7617

> <Gold.Chemscore.Internal.Correction.Weighted>
   9.000000E+99

> <Gold.Protein.RotatedTorsions>
[ 6907 6896 6895 6894 ] final   95.12 input  -60.11 | X-H torsion
[ 7974 7965 7964 7962 ] final -173.60 input  175.53 | X-H torsion
[ 8008 7997 7996 7995 ] final  -37.36 input   59.86 | X-H torsion
[ 10167 10162 10161 10158 ] final   80.71 input  -65.29 | X-H torsion
[ 10718 10713 10712 10709 ] final  -64.29 input   66.30 | X-H torsion
[ 10763 10752 10751 10750 ] final -146.92 input  -60.55 | X-H torsion
[ 11005 11000 10999 10996 ] final -142.99 input  -57.11 | X-H torsion

> <Gold.Protein.ActiveResidues>
 VAL166  LYS551  ARG553  GLY616  TRP617  ASP618  TYR619  PRO620  LYS621  CYS622 
 ASP623  PHE694  ASN695  SER759  ASP760  ASP761  ALA762  ILE779  LEU786  VAL792 
 PHE793  MET794  SER795  GLU796  ALA797  LYS798  CYS799  TRP800  GLU811  SER814 

> <Gold.Protein.RotatedAtoms>
  152.5445  134.1088  159.8349 H   0  0  0  0  0  0  0  0  0  0  0  0  # atno 6907 bound_to 6896
  151.1157  133.5133  159.2611 H   0  0  0  0  0  0  0  0  0  0  0  0  # atno 6908 bound_to 6896
  151.1834  135.0380  159.8856 H   0  0  0  0  0  0  0  0  0  0  0  0  # atno 6909 bound_to 6896
  144.7137  140.1597  143.6377 H   0  0  0  0  0  0  0  0  0  0  0  0  # atno 7974 bound_to 7965
  154.4055  140.1606  156.2523 H   0  0  0  0  0  0  0  0  0  0  0  0  # atno 8008 bound_to 7997
  155.9108  140.3427  155.6074 H   0  0  0  0  0  0  0  0  0  0  0  0  # atno 8009 bound_to 7997
  155.7338  140.0784  157.2267 H   0  0  0  0  0  0  0  0  0  0  0  0  # atno 8010 bound_to 7997
  139.9469  144.6052  150.8198 H   0  0  0  0  0  0  0  0  0  0  0  0  # atno 10167 bound_to 10162
  156.0738  130.4231  150.1399 H   0  0  0  0  0  0  0  0  0  0  0  0  # atno 10718 bound_to 10713
  154.8312  135.3373  154.6738 H   0  0  0  0  0  0  0  0  0  0  0  0  # atno 10763 bound_to 10752
  153.7357  135.6949  153.4983 H   0  0  0  0  0  0  0  0  0  0  0  0  # atno 10764 bound_to 10752
  153.2280  135.4426  155.0515 H   0  0  0  0  0  0  0  0  0  0  0  0  # atno 10765 bound_to 10752
  140.8170  134.2676  157.4917 H   0  0  0  0  0  0  0  0  0  0  0  0  # atno 11005 bound_to 11000
  145.9041  139.2448  143.1476 LP  0  0  0  0  0  0  0  0  0  0  0  0  # atno 17320 bound_to 7965
  145.9781  140.8705  143.0128 LP  0  0  0  0  0  0  0  0  0  0  0  0  # atno 17321 bound_to 7965
  140.7594  143.3129  151.2802 LP  0  0  0  0  0  0  0  0  0  0  0  0  # atno 17342 bound_to 10162
  139.6660  144.0105  152.2723 LP  0  0  0  0  0  0  0  0  0  0  0  0  # atno 17343 bound_to 10162
  156.9445  130.9755  151.3510 LP  0  0  0  0  0  0  0  0  0  0  0  0  # atno 17370 bound_to 10713
  157.5823  130.8385  149.8539 LP  0  0  0  0  0  0  0  0  0  0  0  0  # atno 17371 bound_to 10713
  139.8710  134.9515  156.4086 LP  0  0  0  0  0  0  0  0  0  0  0  0  # atno 17394 bound_to 11000
  140.9138  133.7693  155.9824 LP  0  0  0  0  0  0  0  0  0  0  0  0  # atno 17395 bound_to 11000

$$$$
