AV-unprocessed.smi:33|AV-procd|sdf|209|dock6
  -GOLD-   2262015503D 1   1.00000     0.00000
 Structure written by MMmdl.
 67 72  0  0  0  0  0  0  0  0  1 V2000
  148.2380  141.8705  158.6776 O   0  0  0  0  0  0  0  0  0  0  0  0
  149.3337  142.0574  158.1443 C   0  0  0  0  0  0  0  0  0  0  0  0
  149.8557  141.2432  157.2062 O   0  0  0  0  0  0  0  0  0  0  0  0
  149.4953  139.8718  157.1751 C   0  0  0  0  0  0  0  0  0  0  0  0
  148.7425  139.5710  155.8714 C   0  0  2  0  0  0  0  0  0  0  0  0
  147.9930  138.3583  156.0115 O   0  0  0  0  0  0  0  0  0  0  0  0
  148.5165  137.3555  155.1911 C   0  0  2  0  0  0  0  0  0  0  0  0
  148.5677  136.0713  155.9560 N   0  0  0  0  0  0  0  0  0  0  0  0
  149.6859  135.3076  156.2080 C   0  0  0  0  0  0  0  0  0  0  0  0
  149.4839  134.2301  156.9160 N   0  0  0  0  0  0  0  0  0  0  0  0
  148.1186  134.2468  157.1670 C   0  0  0  0  0  0  0  0  0  0  0  0
  147.2352  133.3859  157.8730 C   0  0  0  0  0  0  0  0  0  0  0  0
  147.6523  132.2592  158.4979 N   0  0  0  0  0  0  0  0  0  0  0  0
  147.3649  132.1374  159.9353 C   0  0  0  0  0  0  0  0  0  0  0  0
  147.3072  131.0189  160.4504 O   0  0  0  0  0  0  0  0  0  0  0  0
  147.0816  133.3582  160.7648 C   0  0  0  0  0  0  0  0  0  0  0  0
  146.1045  133.3078  161.7832 C   0  0  0  0  0  0  0  0  0  0  0  0
  145.8410  134.4444  162.5719 C   0  0  0  0  0  0  0  0  0  0  0  0
  146.5653  135.6329  162.3601 C   0  0  0  0  0  0  0  0  0  0  0  0
  147.5612  135.6814  161.3663 C   0  0  0  0  0  0  0  0  0  0  0  0
  147.8251  134.5454  160.5766 C   0  0  0  0  0  0  0  0  0  0  0  0
  148.3655  131.2672  157.6802 C   0  0  0  0  0  0  0  0  0  0  0  0
  149.1650  130.4985  158.2175 O   0  0  0  0  0  0  0  0  0  0  0  0
  148.1590  131.2152  156.1927 C   0  0  0  0  0  0  0  0  0  0  0  0
  146.8608  131.3490  155.6531 C   0  0  0  0  0  0  0  0  0  0  0  0
  146.6646  131.3176  154.2588 C   0  0  0  0  0  0  0  0  0  0  0  0
  147.7665  131.1705  153.3948 C   0  0  0  0  0  0  0  0  0  0  0  0
  149.0665  131.0656  153.9250 C   0  0  0  0  0  0  0  0  0  0  0  0
  149.2635  131.0969  155.3190 C   0  0  0  0  0  0  0  0  0  0  0  0
  145.9200  133.7216  157.9212 N   0  0  0  0  0  0  0  0  0  0  0  0
  145.4978  134.8346  157.3148 C   0  0  0  0  0  0  0  0  0  0  0  0
  146.2091  135.7293  156.6256 N   0  0  0  0  0  0  0  0  0  0  0  0
  147.5308  135.3971  156.5717 C   0  0  0  0  0  0  0  0  0  0  0  0
  149.9166  137.8080  154.7887 C   0  0  1  0  0  0  0  0  0  0  0  0
  150.3482  137.2967  153.5435 O   0  0  0  0  0  0  0  0  0  0  0  0
  149.6981  139.3092  154.7048 C   0  0  1  0  0  0  0  0  0  0  0  0
  149.0620  139.6366  153.5761 F   0  0  0  0  0  0  0  0  0  0  0  0
  150.2198  143.2119  158.4693 C   0  0  0  0  0  0  0  0  0  0  0  0
  151.3608  143.4552  157.6696 C   0  0  0  0  0  0  0  0  0  0  0  0
  152.2162  144.5381  157.9508 C   0  0  0  0  0  0  0  0  0  0  0  0
  151.9414  145.3906  159.0358 C   0  0  0  0  0  0  0  0  0  0  0  0
  150.8101  145.1585  159.8397 C   0  0  0  0  0  0  0  0  0  0  0  0
  149.9533  144.0760  159.5600 C   0  0  0  0  0  0  0  0  0  0  0  0
  150.4057  139.2735  157.2257 H   0  0  0  0  0  0  0  0  0  0  0  0
  148.8875  139.6011  158.0381 H   0  0  0  0  0  0  0  0  0  0  0  0
  148.0723  140.4007  155.6423 H   0  0  0  0  0  0  0  0  0  0  0  0
  147.8493  137.1745  154.3468 H   0  0  0  0  0  0  0  0  0  0  0  0
  150.6680  135.5825  155.8517 H   0  0  0  0  0  0  0  0  0  0  0  0
  145.5413  132.4016  161.9541 H   0  0  0  0  0  0  0  0  0  0  0  0
  145.0826  134.4040  163.3397 H   0  0  0  0  0  0  0  0  0  0  0  0
  146.3619  136.5048  162.9643 H   0  0  0  0  0  0  0  0  0  0  0  0
  148.1235  136.5898  161.2094 H   0  0  0  0  0  0  0  0  0  0  0  0
  148.5950  134.5932  159.8200 H   0  0  0  0  0  0  0  0  0  0  0  0
  146.0078  131.4636  156.3065 H   0  0  0  0  0  0  0  0  0  0  0  0
  145.6684  131.4083  153.8520 H   0  0  0  0  0  0  0  0  0  0  0  0
  147.6154  131.1463  152.3257 H   0  0  0  0  0  0  0  0  0  0  0  0
  149.9136  130.9630  153.2626 H   0  0  0  0  0  0  0  0  0  0  0  0
  150.2663  131.0213  155.7143 H   0  0  0  0  0  0  0  0  0  0  0  0
  144.4400  135.0397  157.3934 H   0  0  0  0  0  0  0  0  0  0  0  0
  150.6289  137.5659  155.5793 H   0  0  0  0  0  0  0  0  0  0  0  0
  149.6536  137.4163  152.9139 H   0  0  0  0  0  0  0  0  0  0  0  0
  150.6196  139.8910  154.7456 H   0  0  0  0  0  0  0  0  0  0  0  0
  151.5922  142.8145  156.8307 H   0  0  0  0  0  0  0  0  0  0  0  0
  153.0839  144.7145  157.3324 H   0  0  0  0  0  0  0  0  0  0  0  0
  152.5974  146.2211  159.2512 H   0  0  0  0  0  0  0  0  0  0  0  0
  150.5981  145.8122  160.6731 H   0  0  0  0  0  0  0  0  0  0  0  0
  149.0939  143.9263  160.1971 H   0  0  0  0  0  0  0  0  0  0  0  0
  1  2  2  0  0  0  0
  2  3  1  0  0  0  0
  2 38  1  0  0  0  0
  3  4  1  0  0  0  0
  4  5  1  0  0  0  0
  4 44  1  0  0  0  0
  4 45  1  0  0  0  0
  5 36  1  0  0  0  0
  5  6  1  0  0  0  0
  5 46  1  0  0  0  0
  6  7  1  0  0  0  0
  7  8  1  0  0  0  0
  7 34  1  0  0  0  0
  7 47  1  0  0  0  0
  8 33  1  0  0  0  0
  8  9  1  0  0  0  0
  9 10  2  0  0  0  0
  9 48  1  0  0  0  0
 10 11  1  0  0  0  0
 11 33  2  0  0  0  0
 11 12  1  0  0  0  0
 12 13  1  0  0  0  0
 12 30  2  0  0  0  0
 13 14  1  0  0  0  0
 13 22  1  0  0  0  0
 14 15  2  0  0  0  0
 14 16  1  0  0  0  0
 16 21  1  0  0  0  0
 16 17  2  0  0  0  0
 17 18  1  0  0  0  0
 17 49  1  0  0  0  0
 18 19  2  0  0  0  0
 18 50  1  0  0  0  0
 19 20  1  0  0  0  0
 19 51  1  0  0  0  0
 20 21  2  0  0  0  0
 20 52  1  0  0  0  0
 21 53  1  0  0  0  0
 22 23  2  0  0  0  0
 22 24  1  0  0  0  0
 24 29  1  0  0  0  0
 24 25  2  0  0  0  0
 25 26  1  0  0  0  0
 25 54  1  0  0  0  0
 26 27  2  0  0  0  0
 26 55  1  0  0  0  0
 27 28  1  0  0  0  0
 27 56  1  0  0  0  0
 28 29  2  0  0  0  0
 28 57  1  0  0  0  0
 29 58  1  0  0  0  0
 30 31  1  0  0  0  0
 31 32  2  0  0  0  0
 31 59  1  0  0  0  0
 32 33  1  0  0  0  0
 34 35  1  0  0  0  0
 34 36  1  0  0  0  0
 34 60  1  0  0  0  0
 35 61  1  0  0  0  0
 36 37  1  0  0  0  0
 36 62  1  0  0  0  0
 38 43  1  0  0  0  0
 38 39  2  0  0  0  0
 39 40  1  0  0  0  0
 39 63  1  0  0  0  0
 40 41  2  0  0  0  0
 40 64  1  0  0  0  0
 41 42  1  0  0  0  0
 41 65  1  0  0  0  0
 42 43  2  0  0  0  0
 42 66  1  0  0  0  0
 43 67  1  0  0  0  0
M  END
> <s_m_source_file>
AV-unprocessed.smi

> <i_m_source_file_index>
33

> <i_lp_mmshare_version>
43012

> <i_f3d_flags>
0

> <s_epik_input>
W2NIXTFbY0hdW2NIXVtjSF1bY0hdYzFDKD1PKU9bQ0gyXVtDQEBIXTJPW0NASF0oW0NAQEhdKFtPSF0pW0NAQEhdMkYpbihbY0hdbjMpYyhjMzQpbltjSF1uYzROKEMoPU8pYzVbY0hdW2NIXVtjSF1bY0hdW2NIXTUpQyg9TyljNltjSF1bY0hdW2NIXVtjSF1bY0hdNg==

> <s_epik_cmdline>
J2VwaWtfcHl0aG9uJywgJy1waCcsICc3LjAnLCAnLXRuJywgJzgnLCAnLW1hJywgJzIwMCcsICctbWV0YWxfYmluZGluZycsICctaW1hZScsICc8aW5maWxlLm1hZT4nLCAnLW9tYWUnLCAnPG91dGZpbGUubWFlPic=

> <r_lp_tautomer_probability>
1

> <r_epik_Ionization_Penalty>
0.00067664

> <r_epik_Ionization_Penalty_Charging>
0

> <r_epik_Ionization_Penalty_Neutral>
0.00067664

> <r_epik_State_Penalty>
0.000428095

> <r_epik_Charging_Adjusted_Penalty>
0.000428095

> <i_epik_Tot_Q>
0

> <i_epik_Tot_abs_Q>
0

> <r_epik_Metal_State_Penalty>
-0

> <b_epik_Metal_Only>
0

> <s_epik_Chemistry_Notes>
This compound has an ester and may undergo hydrolysis at high or low pH. This compound contains an acetal/aminal-like group ( X-CH(R)-Y where X, Y are N, S, or O) that may be acid/base labile, releasing an aldehyde.

> <s_lp_Force_Field>
OPLS_2005

> <r_lp_Energy>
71.9351

> <b_lp_Chiralities_Consistent>
1

> <s_lp_Variant>
AV-unprocessed.smi:33-11

> <Gold.Version>
5.8.1

> <Gold.Id.Protein>
6NUR|6NUR_protein|mol2

> <Gold.PLP.Fitness>
60.7115

> <Gold.PLP.PLP>
-56.0755

> <Gold.PLP.part.hbond>
-3.4258

> <Gold.PLP.part.metal>
0.0000

> <Gold.PLP.part.buried>
-7.0789

> <Gold.PLP.part.nonpolar>
-46.2898

> <Gold.PLP.part.repulsive>
0.1224

> <Gold.PLP.ligand.clash>
0.0000

> <Gold.PLP.ligand.torsion>
3.8106

> <Gold.PLP.Chemscore.Hbond>
2.5044

> <Gold.PLP.Chemscore.CHOScore>
0.0000

> <Gold.PLP.Chemscore.Metal>
0.0000

> <Gold.Chemscore.Hbonds>
donor molecule, donor type, donor heavy atom, donor atom, acceptor molecule, acceptor atom, score
      L1  H    35    61       P1  7948  0.54

> <Gold.PLP.Chemscore.Internal.Correction>
4.7439

> <Gold.Rescore>
     Score         DG    S(hbond)    S(metal)    S(lipo)     H(rot)  DE(clash)    DE(int)     intcor
     15.31     -23.12       2.10        0.00     146.10       2.52       0.61       7.19       ----

> <Gold.Chemscore.Fitness>
15.3119

> <Gold.Chemscore.DG>
-23.1165

> <Gold.Chemscore.ZeroCoef>
-5.4800

> <Gold.Chemscore.Hbond>
2.0976

> <Gold.Chemscore.Metal>
0.0000

> <Gold.Chemscore.Lipo>
146.0992

> <Gold.Chemscore.Internal_Hbond>
0.0000

> <Gold.Chemscore.DEClash>
0.6126

> <Gold.Chemscore.DEInternal>
7.1920

> <Gold.Chemscore.Rot>
2.5247

> <Gold.Chemscore.Internal.Correction>
   9.000000E+99

> <Gold.Chemscore.Hbonds>
donor molecule, donor type, donor heavy atom, donor atom, acceptor molecule, acceptor atom, score
      L1  H    35    61       P1  7948  0.33

> <Gold.Chemscore.Hbond.Weighted>
-7.0062

> <Gold.Chemscore.Metal.Weighted>
-0.0000

> <Gold.Chemscore.Lipo.Weighted>
-17.0936

> <Gold.Chemscore.Internal_Hbond.Weighted>
0.0000

> <Gold.Chemscore.DEClash.Weighted>
0.6126

> <Gold.Chemscore.DEInternal.Weighted>
7.1920

> <Gold.Chemscore.Rot.Weighted>
6.4633

> <Gold.Chemscore.Internal.Correction.Weighted>
   9.000000E+99

> <Gold.Protein.RotatedTorsions>
[ 6907 6896 6895 6894 ] final   -1.12 input  -60.11 | X-H torsion
[ 7974 7965 7964 7962 ] final   94.05 input  175.53 | X-H torsion
[ 8008 7997 7996 7995 ] final  132.10 input   59.86 | X-H torsion
[ 10167 10162 10161 10158 ] final  101.47 input  -65.29 | X-H torsion
[ 10718 10713 10712 10709 ] final  113.20 input   66.30 | X-H torsion
[ 10763 10752 10751 10750 ] final  172.19 input  -60.55 | X-H torsion
[ 11005 11000 10999 10996 ] final  -95.48 input  -57.11 | X-H torsion

> <Gold.Protein.ActiveResidues>
 VAL166  LYS551  ARG553  GLY616  TRP617  ASP618  TYR619  PRO620  LYS621  CYS622 
 ASP623  PHE694  ASN695  SER759  ASP760  ASP761  ALA762  ILE779  LEU786  VAL792 
 PHE793  MET794  SER795  GLU796  ALA797  LYS798  CYS799  TRP800  GLU811  SER814 

> <Gold.Protein.RotatedAtoms>
  151.5512  135.1067  159.9949 H   0  0  0  0  0  0  0  0  0  0  0  0  # atno 6907 bound_to 6896
  152.4490  133.7589  159.6746 H   0  0  0  0  0  0  0  0  0  0  0  0  # atno 6908 bound_to 6896
  150.8414  133.7863  159.3084 H   0  0  0  0  0  0  0  0  0  0  0  0  # atno 6909 bound_to 6896
  145.4708  139.2282  143.2936 H   0  0  0  0  0  0  0  0  0  0  0  0  # atno 7974 bound_to 7965
  156.2978  140.2555  156.3035 H   0  0  0  0  0  0  0  0  0  0  0  0  # atno 8008 bound_to 7997
  154.9395  140.0396  157.2108 H   0  0  0  0  0  0  0  0  0  0  0  0  # atno 8009 bound_to 7997
  154.8140  140.2849  155.5837 H   0  0  0  0  0  0  0  0  0  0  0  0  # atno 8010 bound_to 7997
  139.7435  144.7004  151.0539 H   0  0  0  0  0  0  0  0  0  0  0  0  # atno 10167 bound_to 10162
  157.6351  131.0980  150.7006 H   0  0  0  0  0  0  0  0  0  0  0  0  # atno 10718 bound_to 10713
  154.4226  135.2758  155.1965 H   0  0  0  0  0  0  0  0  0  0  0  0  # atno 10763 bound_to 10752
  154.3905  135.6067  153.5844 H   0  0  0  0  0  0  0  0  0  0  0  0  # atno 10764 bound_to 10752
  152.9833  135.5902  154.4525 H   0  0  0  0  0  0  0  0  0  0  0  0  # atno 10765 bound_to 10752
  141.1440  133.8029  157.0441 H   0  0  0  0  0  0  0  0  0  0  0  0  # atno 11005 bound_to 11000
  146.2398  140.5486  142.8939 LP  0  0  0  0  0  0  0  0  0  0  0  0  # atno 17320 bound_to 7965
  144.7946  140.6098  143.6518 LP  0  0  0  0  0  0  0  0  0  0  0  0  # atno 17321 bound_to 7965
  140.7789  143.4895  150.9912 LP  0  0  0  0  0  0  0  0  0  0  0  0  # atno 17342 bound_to 10162
  139.8583  143.7348  152.3175 LP  0  0  0  0  0  0  0  0  0  0  0  0  # atno 17343 bound_to 10162
  156.7339  130.4718  149.5493 LP  0  0  0  0  0  0  0  0  0  0  0  0  # atno 17370 bound_to 10713
  156.1584  130.6357  151.0687 LP  0  0  0  0  0  0  0  0  0  0  0  0  # atno 17371 bound_to 10713
  140.0674  134.9721  157.1408 LP  0  0  0  0  0  0  0  0  0  0  0  0  # atno 17394 bound_to 11000
  140.3761  134.2338  155.7174 LP  0  0  0  0  0  0  0  0  0  0  0  0  # atno 17395 bound_to 11000

$$$$
