AV-unprocessed.smi:1046|AV-procd|sdf|4557|dock8
  -GOLD-   22720 2593D 1   1.00000     0.00000
 Structure written by MMmdl.
 54 56  0  0  0  0  0  0  0  0  3 V2000
  153.6389  143.6130  163.7527 C   0  0  0  0  0  0  0  0  0  0  0  0
  153.0527  143.2104  162.4109 C   0  0  0  0  0  0  0  0  0  0  0  0
  152.1149  144.0636  161.7868 C   0  0  0  0  0  0  0  0  0  0  0  0
  151.5471  143.7262  160.5390 C   0  0  0  0  0  0  0  0  0  0  0  0
  150.6204  144.3988  159.7614 N   0  0  0  0  0  0  0  0  0  0  0  0
  150.4949  143.5788  158.7226 C   0  0  0  0  0  0  0  0  0  0  0  0
  151.2235  142.4460  158.7402 N   0  0  0  0  0  0  0  0  0  0  0  0
  151.2366  141.4030  157.7311 C   0  0  0  0  0  0  0  0  0  0  0  0
  150.1631  141.6218  156.6472 C   0  0  1  0  0  0  0  0  0  0  0  0
  150.6968  142.5028  155.6796 O   0  0  0  0  0  0  0  0  0  0  0  0
  149.7190  140.3206  155.9425 C   0  0  0  0  0  0  0  0  0  0  0  0
  148.3883  140.4504  155.2956 N   0  3  2  0  0  0  0  0  0  0  0  0
  147.7527  139.1428  154.9879 C   0  0  0  0  0  0  0  0  0  0  0  0
  146.3433  139.3377  154.3986 C   0  0  0  0  0  0  0  0  0  0  0  0
  146.3643  140.2032  153.1931 N   0  3  2  0  0  0  0  0  0  0  0  0
  146.8587  139.5109  151.9721 C   0  0  0  0  0  0  0  0  0  0  0  0
  146.1691  138.1548  151.7452 C   0  0  0  0  0  0  0  0  0  0  0  0
  146.3984  137.7149  150.4234 O   0  0  0  0  0  0  0  0  0  0  0  0
  147.0224  141.5042  153.4826 C   0  0  0  0  0  0  0  0  0  0  0  0
  148.4263  141.3255  154.0972 C   0  0  0  0  0  0  0  0  0  0  0  0
  151.9467  142.5021  159.9272 C   0  0  0  0  0  0  0  0  0  0  0  0
  152.8792  141.6448  160.5380 C   0  0  0  0  0  0  0  0  0  0  0  0
  153.4363  141.9971  161.7850 C   0  0  0  0  0  0  0  0  0  0  0  0
  154.4439  141.0664  162.4362 C   0  0  0  0  0  0  0  0  0  0  0  0
  153.2487  144.5754  164.0854 H   0  0  0  0  0  0  0  0  0  0  0  0
  154.7238  143.6972  163.6860 H   0  0  0  0  0  0  0  0  0  0  0  0
  153.3947  142.8721  164.5142 H   0  0  0  0  0  0  0  0  0  0  0  0
  151.8232  144.9882  162.2632 H   0  0  0  0  0  0  0  0  0  0  0  0
  149.8286  143.8107  157.9044 H   0  0  0  0  0  0  0  0  0  0  0  0
  152.2301  141.3794  157.2804 H   0  0  0  0  0  0  0  0  0  0  0  0
  151.0958  140.4396  158.2230 H   0  0  0  0  0  0  0  0  0  0  0  0
  149.3087  142.1144  157.1101 H   0  0  0  0  0  0  0  0  0  0  0  0
  151.1840  143.1819  156.1219 H   0  0  0  0  0  0  0  0  0  0  0  0
  150.4721  140.0582  155.1975 H   0  0  0  0  0  0  0  0  0  0  0  0
  149.6827  139.4842  156.6412 H   0  0  0  0  0  0  0  0  0  0  0  0
  148.3802  138.5849  154.2910 H   0  0  0  0  0  0  0  0  0  0  0  0
  147.6756  138.5375  155.8901 H   0  0  0  0  0  0  0  0  0  0  0  0
  145.8844  138.3752  154.1694 H   0  0  0  0  0  0  0  0  0  0  0  0
  145.7018  139.8069  155.1458 H   0  0  0  0  0  0  0  0  0  0  0  0
  146.7299  140.1477  151.0971 H   0  0  0  0  0  0  0  0  0  0  0  0
  147.9320  139.3344  152.0584 H   0  0  0  0  0  0  0  0  0  0  0  0
  146.5069  137.3959  152.4502 H   0  0  0  0  0  0  0  0  0  0  0  0
  145.0932  138.2597  151.8882 H   0  0  0  0  0  0  0  0  0  0  0  0
  145.6230  137.8843  149.9089 H   0  0  0  0  0  0  0  0  0  0  0  0
  147.0751  142.1238  152.5881 H   0  0  0  0  0  0  0  0  0  0  0  0
  146.3919  142.0493  154.1865 H   0  0  0  0  0  0  0  0  0  0  0  0
  148.8197  142.3042  154.3746 H   0  0  0  0  0  0  0  0  0  0  0  0
  149.1178  140.9090  153.3636 H   0  0  0  0  0  0  0  0  0  0  0  0
  153.1654  140.7246  160.0509 H   0  0  0  0  0  0  0  0  0  0  0  0
  154.6082  140.1729  161.8334 H   0  0  0  0  0  0  0  0  0  0  0  0
  154.0927  140.7475  163.4178 H   0  0  0  0  0  0  0  0  0  0  0  0
  155.4039  141.5688  162.5580 H   0  0  0  0  0  0  0  0  0  0  0  0
  147.7958  140.9177  155.9682 H   0  0  0  0  0  0  0  0  0  0  0  0
  145.3957  140.4098  152.9906 H   0  0  0  0  0  0  0  0  0  0  0  0
  1  2  1  0  0  0  0
  1 25  1  0  0  0  0
  1 26  1  0  0  0  0
  1 27  1  0  0  0  0
  2 23  1  0  0  0  0
  2  3  2  0  0  0  0
  3  4  1  0  0  0  0
  3 28  1  0  0  0  0
  4 21  2  0  0  0  0
  4  5  1  0  0  0  0
  5  6  2  0  0  0  0
  6  7  1  0  0  0  0
  6 29  1  0  0  0  0
  7  8  1  0  0  0  0
  7 21  1  0  0  0  0
  8  9  1  0  0  0  0
  8 30  1  0  0  0  0
  8 31  1  0  0  0  0
  9 10  1  0  0  0  0
  9 11  1  0  0  0  0
  9 32  1  0  0  0  0
 10 33  1  0  0  0  0
 11 12  1  0  0  0  0
 11 34  1  0  0  0  0
 11 35  1  0  0  0  0
 12 20  1  0  0  0  0
 12 13  1  0  0  0  0
 12 53  1  0  0  0  0
 13 14  1  0  0  0  0
 13 36  1  0  0  0  0
 13 37  1  0  0  0  0
 14 15  1  0  0  0  0
 14 38  1  0  0  0  0
 14 39  1  0  0  0  0
 15 16  1  0  0  0  0
 15 19  1  0  0  0  0
 15 54  1  0  0  0  0
 16 17  1  0  0  0  0
 16 40  1  0  0  0  0
 16 41  1  0  0  0  0
 17 18  1  0  0  0  0
 17 42  1  0  0  0  0
 17 43  1  0  0  0  0
 18 44  1  0  0  0  0
 19 20  1  0  0  0  0
 19 45  1  0  0  0  0
 19 46  1  0  0  0  0
 20 47  1  0  0  0  0
 20 48  1  0  0  0  0
 21 22  1  0  0  0  0
 22 23  2  0  0  0  0
 22 49  1  0  0  0  0
 23 24  1  0  0  0  0
 24 50  1  0  0  0  0
 24 51  1  0  0  0  0
 24 52  1  0  0  0  0
M  CHG  1  12   1
M  CHG  1  15   1
M  END
> <s_m_source_file>
AV-unprocessed.smi

> <i_m_source_file_index>
1046

> <i_lp_mmshare_version>
43012

> <i_f3d_flags>
0

> <s_epik_input>
W0NIM11jKFtjSF0xKWMoW0NIM10pW2NIXWMoYzEyKW4oW2NIXW4yKVtDSDJdW0NASF0oW09IXSlbQ0gyXU4zW0NIMl1bQ0gyXU4oW0NIMl1bQ0gyXTMpW0NIMl1bQ0gyXVtPSF0=

> <s_epik_cmdline>
J2VwaWtfcHl0aG9uJywgJy1waCcsICc3LjAnLCAnLXRuJywgJzgnLCAnLW1hJywgJzIwMCcsICctbWV0YWxfYmluZGluZycsICctaW1hZScsICc8aW5maWxlLm1hZT4nLCAnLW9tYWUnLCAnPG91dGZpbGUubWFlPic=

> <r_epik_Ionization_Penalty>
3.17398

> <r_epik_Ionization_Penalty_Charging>
3.09061

> <r_epik_Ionization_Penalty_Neutral>
0.0833726

> <r_epik_State_Penalty>
2.17606

> <r_epik_Charging_Adjusted_Penalty>
5.26667

> <i_epik_Tot_Q>
2

> <i_epik_Tot_abs_Q>
2

> <r_epik_Metal_State_Penalty>
2.08587

> <b_epik_Metal_Only>
0

> <s_lp_Force_Field>
OPLS_2005

> <r_lp_Energy>
29.1343

> <b_lp_Chiralities_Consistent>
1

> <s_lp_Variant>
AV-unprocessed.smi:1046-10

> <Gold.Version>
5.8.1

> <Gold.Id.Protein>
6NUR|6NUR_protein|mol2

> <Gold.PLP.Fitness>
62.4502

> <Gold.PLP.PLP>
-48.8876

> <Gold.PLP.part.hbond>
-5.4156

> <Gold.PLP.part.metal>
0.0000

> <Gold.PLP.part.buried>
0.8222

> <Gold.PLP.part.nonpolar>
-43.7511

> <Gold.PLP.part.repulsive>
0.1706

> <Gold.PLP.ligand.clash>
0.0000

> <Gold.PLP.ligand.torsion>
0.7267

> <Gold.PLP.Chemscore.Hbond>
3.9520

> <Gold.PLP.Chemscore.CHOScore>
0.9978

> <Gold.PLP.Chemscore.Metal>
0.0000

> <Gold.Chemscore.Hbonds>
donor molecule, donor type, donor heavy atom, donor atom, acceptor molecule, acceptor atom, score
      L1  H    15    54       P1 10175  2.00
      L1  H    18    44       P1 10171  0.99
      P1  H  7954  7966       L1    18  0.88
      L1  C     6    29       P1  8028  0.89

> <Gold.PLP.Chemscore.Internal.Correction>
0.1667

> <Gold.Rescore>
     Score         DG    S(hbond)    S(metal)    S(lipo)     H(rot)  DE(clash)    DE(int)     intcor
     18.26     -22.96       2.67        0.00     144.99       3.28       2.89       1.82       ----

> <Gold.Chemscore.Fitness>
18.2567

> <Gold.Chemscore.DG>
-22.9634

> <Gold.Chemscore.ZeroCoef>
-5.4800

> <Gold.Chemscore.Hbond>
2.6716

> <Gold.Chemscore.Metal>
0.0000

> <Gold.Chemscore.Lipo>
144.9926

> <Gold.Chemscore.Internal_Hbond>
0.0000

> <Gold.Chemscore.DEClash>
2.8867

> <Gold.Chemscore.DEInternal>
1.8200

> <Gold.Chemscore.Rot>
3.2828

> <Gold.Chemscore.Internal.Correction>
   9.000000E+99

> <Gold.Chemscore.Hbonds>
donor molecule, donor type, donor heavy atom, donor atom, acceptor molecule, acceptor atom, score
      L1  H    15    54       P1 10175  0.93
      L1  H    18    44       P1 10171  0.94
      P1  H  7954  7966       L1    18  0.76

> <Gold.Chemscore.Hbond.Weighted>
-8.9232

> <Gold.Chemscore.Metal.Weighted>
-0.0000

> <Gold.Chemscore.Lipo.Weighted>
-16.9641

> <Gold.Chemscore.Internal_Hbond.Weighted>
0.0000

> <Gold.Chemscore.DEClash.Weighted>
2.8867

> <Gold.Chemscore.DEInternal.Weighted>
1.8200

> <Gold.Chemscore.Rot.Weighted>
8.4039

> <Gold.Chemscore.Internal.Correction.Weighted>
   9.000000E+99

> <Gold.Protein.RotatedTorsions>
[ 6907 6896 6895 6894 ] final  -72.13 input  -60.11 | X-H torsion
[ 7974 7965 7964 7962 ] final  145.66 input  175.53 | X-H torsion
[ 8008 7997 7996 7995 ] final   68.98 input   59.86 | X-H torsion
[ 10167 10162 10161 10158 ] final   31.32 input  -65.29 | X-H torsion
[ 10718 10713 10712 10709 ] final  143.87 input   66.30 | X-H torsion
[ 10763 10752 10751 10750 ] final  -76.86 input  -60.55 | X-H torsion
[ 11005 11000 10999 10996 ] final   54.97 input  -57.11 | X-H torsion

> <Gold.Protein.ActiveResidues>
 VAL166  LYS551  ARG553  GLY616  TRP617  ASP618  TYR619  PRO620  LYS621  CYS622 
 ASP623  PHE694  ASN695  SER759  ASP760  ASP761  ALA762  ILE779  LEU786  VAL792 
 PHE793  MET794  SER795  GLU796  ALA797  LYS798  CYS799  TRP800  GLU811  SER814 

> <Gold.Protein.RotatedAtoms>
  150.7183  134.5207  159.5652 H   0  0  0  0  0  0  0  0  0  0  0  0  # atno 6907 bound_to 6896
  152.2763  134.7875  160.0414 H   0  0  0  0  0  0  0  0  0  0  0  0  # atno 6908 bound_to 6896
  151.8537  133.3409  159.3718 H   0  0  0  0  0  0  0  0  0  0  0  0  # atno 6909 bound_to 6896
  144.8734  139.5810  143.5876 H   0  0  0  0  0  0  0  0  0  0  0  0  # atno 7974 bound_to 7965
  155.7167  140.3494  155.4997 H   0  0  0  0  0  0  0  0  0  0  0  0  # atno 8008 bound_to 7997
  155.9307  140.1083  157.1156 H   0  0  0  0  0  0  0  0  0  0  0  0  # atno 8009 bound_to 7997
  154.4085  140.1232  156.4785 H   0  0  0  0  0  0  0  0  0  0  0  0  # atno 8010 bound_to 7997
  140.4600  144.0921  150.6210 H   0  0  0  0  0  0  0  0  0  0  0  0  # atno 10167 bound_to 10162
  157.3639  131.0969  151.0890 H   0  0  0  0  0  0  0  0  0  0  0  0  # atno 10718 bound_to 10713
  154.5054  135.5783  153.6563 H   0  0  0  0  0  0  0  0  0  0  0  0  # atno 10763 bound_to 10752
  152.9886  135.6146  154.2949 H   0  0  0  0  0  0  0  0  0  0  0  0  # atno 10764 bound_to 10752
  154.2859  135.2850  155.2656 H   0  0  0  0  0  0  0  0  0  0  0  0  # atno 10765 bound_to 10752
  140.0644  134.5557  155.9116 H   0  0  0  0  0  0  0  0  0  0  0  0  # atno 11005 bound_to 11000
  146.2946  139.7240  142.9136 LP  0  0  0  0  0  0  0  0  0  0  0  0  # atno 17320 bound_to 7965
  145.4088  141.0394  143.3029 LP  0  0  0  0  0  0  0  0  0  0  0  0  # atno 17321 bound_to 7965
  140.4105  143.2659  151.9838 LP  0  0  0  0  0  0  0  0  0  0  0  0  # atno 17342 bound_to 10162
  139.4805  144.5919  151.7757 LP  0  0  0  0  0  0  0  0  0  0  0  0  # atno 17343 bound_to 10162
  157.2020  130.6399  149.5742 LP  0  0  0  0  0  0  0  0  0  0  0  0  # atno 17370 bound_to 10713
  155.9742  130.4688  150.6372 LP  0  0  0  0  0  0  0  0  0  0  0  0  # atno 17371 bound_to 10713
  141.1986  133.6602  156.5803 LP  0  0  0  0  0  0  0  0  0  0  0  0  # atno 17394 bound_to 11000
  140.3721  134.7596  157.4605 LP  0  0  0  0  0  0  0  0  0  0  0  0  # atno 17395 bound_to 11000

$$$$
