AV-unprocessed.smi:49|AV-procd|sdf|489|dock2
  -GOLD-   2262016353D 1   1.00000     0.00000
 Structure written by MMmdl.
 26 27  0  0  0  0  0  0  0  0  2 V2000
  152.8145  142.0306  159.0392 C   0  0  0  0  0  0  0  0  0  0  0  0
  151.7940  140.9115  158.8091 C   0  0  0  0  0  0  0  0  0  0  0  0
  151.4695  140.7288  157.3426 C   0  0  0  0  0  0  0  0  0  0  0  0
  150.3472  141.1085  156.7397 N   0  0  0  0  0  0  0  0  0  0  0  0
  150.5042  140.7987  155.4448 C   0  0  0  0  0  0  0  0  0  0  0  0
  149.4416  141.0214  154.3849 C   0  0  2  0  0  0  0  0  0  0  0  0
  148.1292  141.5551  154.9719 C   0  0  0  0  0  0  0  0  0  0  0  0
  147.0959  141.0528  153.9749 C   0  0  2  0  0  0  0  0  0  0  0  0
  145.7926  140.9873  154.5138 O   0  0  0  0  0  0  0  0  0  0  0  0
  147.6460  139.6766  153.6102 C   0  0  0  0  0  0  0  0  0  0  0  0
  149.1006  139.8134  153.6231 N   0  0  0  0  0  0  0  0  0  0  0  0
  151.7003  140.2243  155.2372 N   0  0  0  0  0  0  0  0  0  0  0  0
  152.2885  140.2011  156.4159 N   0  5  0  0  0  0  0  0  0  0  0  0
  149.8256  141.7650  153.6857 H   0  0  0  0  0  0  0  0  0  0  0  0
  147.0902  141.6957  153.0934 H   0  0  0  0  0  0  0  0  0  0  0  0
  153.0387  142.1409  160.1002 H   0  0  0  0  0  0  0  0  0  0  0  0
  152.4362  142.9864  158.6757 H   0  0  0  0  0  0  0  0  0  0  0  0
  153.7499  141.8208  158.5194 H   0  0  0  0  0  0  0  0  0  0  0  0
  152.1770  139.9703  159.2042 H   0  0  0  0  0  0  0  0  0  0  0  0
  150.8728  141.1291  159.3504 H   0  0  0  0  0  0  0  0  0  0  0  0
  147.9454  141.1022  155.9482 H   0  0  0  0  0  0  0  0  0  0  0  0
  148.1271  142.6380  155.0986 H   0  0  0  0  0  0  0  0  0  0  0  0
  145.1824  140.8514  153.8052 H   0  0  0  0  0  0  0  0  0  0  0  0
  147.3488  138.9490  154.3667 H   0  0  0  0  0  0  0  0  0  0  0  0
  147.2790  139.3196  152.6477 H   0  0  0  0  0  0  0  0  0  0  0  0
  149.4229  139.9380  152.6693 H   0  0  0  0  0  0  0  0  0  0  0  0
  1  2  1  0  0  0  0
  1 16  1  0  0  0  0
  1 17  1  0  0  0  0
  1 18  1  0  0  0  0
  2  3  1  0  0  0  0
  2 19  1  0  0  0  0
  2 20  1  0  0  0  0
  3 13  1  0  0  0  0
  3  4  2  0  0  0  0
  4  5  1  0  0  0  0
  5  6  1  0  0  0  0
  5 12  2  0  0  0  0
  6 14  1  0  0  0  0
  6 11  1  0  0  0  0
  6  7  1  0  0  0  0
  7  8  1  0  0  0  0
  7 21  1  0  0  0  0
  7 22  1  0  0  0  0
  8 15  1  0  0  0  0
  8  9  1  0  0  0  0
  8 10  1  0  0  0  0
  9 23  1  0  0  0  0
 10 11  1  0  0  0  0
 10 24  1  0  0  0  0
 10 25  1  0  0  0  0
 11 26  1  0  0  0  0
 12 13  1  0  0  0  0
M  CHG  1  13  -1
M  END
> <s_m_source_file>
AV-unprocessed.smi

> <i_m_source_file_index>
49

> <i_lp_mmshare_version>
43012

> <i_f3d_flags>
0

> <s_epik_input>
W0NIM11bQ0gyXWMxbmMobltuSF0xKVtDQEBIXTJbQ0gyXVtDQEBIXShbT0hdKVtDSDJdW05IXTI=

> <s_epik_cmdline>
J2VwaWtfcHl0aG9uJywgJy1waCcsICc3LjAnLCAnLXRuJywgJzgnLCAnLW1hJywgJzIwMCcsICctbWV0YWxfYmluZGluZycsICctaW1hZScsICc8aW5maWxlLm1hZT4nLCAnLW9tYWUnLCAnPG91dGZpbGUubWFlPic=

> <r_lp_tautomer_probability>
0.948284

> <r_epik_Ionization_Penalty>
20.726

> <r_epik_Ionization_Penalty_Charging>
17.6814

> <r_epik_Ionization_Penalty_Neutral>
3.04463

> <r_epik_State_Penalty>
7.95092

> <r_epik_Charging_Adjusted_Penalty>
25.6323

> <i_epik_Tot_Q>
-1

> <i_epik_Tot_abs_Q>
1

> <r_epik_Metal_State_Penalty>
4.146

> <b_epik_Metal_Only>
1

> <s_lp_Force_Field>
OPLS_2005

> <r_lp_Energy>
18.025

> <b_lp_Chiralities_Consistent>
1

> <s_lp_Variant>
AV-unprocessed.smi:49-27

> <Gold.Version>
5.8.1

> <Gold.Id.Protein>
6NUR|6NUR_protein|mol2

> <Gold.PLP.Fitness>
35.9404

> <Gold.PLP.PLP>
-23.2420

> <Gold.PLP.part.hbond>
-4.0000

> <Gold.PLP.part.metal>
0.0000

> <Gold.PLP.part.buried>
-0.4115

> <Gold.PLP.part.nonpolar>
-17.9048

> <Gold.PLP.part.repulsive>
0.0705

> <Gold.PLP.ligand.clash>
0.0000

> <Gold.PLP.ligand.torsion>
0.2230

> <Gold.PLP.Chemscore.Hbond>
4.3770

> <Gold.PLP.Chemscore.CHOScore>
0.0000

> <Gold.PLP.Chemscore.Metal>
0.0000

> <Gold.Chemscore.Hbonds>
donor molecule, donor type, donor heavy atom, donor atom, acceptor molecule, acceptor atom, score
      L1  H     9    23       P1 10175  1.00
      L1  H    11    26       P1  7957  0.98
      P1  H  7989  7998       L1    12  0.40
      P1  H  7997  8010       L1    13  1.92

> <Gold.PLP.Chemscore.Internal.Correction>
0.0137

> <Gold.Rescore>
     Score         DG    S(hbond)    S(metal)    S(lipo)     H(rot)  DE(clash)    DE(int)     intcor
     14.93     -15.38       2.79        0.00      44.69       1.82       0.22       0.22       ----

> <Gold.Chemscore.Fitness>
14.9322

> <Gold.Chemscore.DG>
-15.3772

> <Gold.Chemscore.ZeroCoef>
-5.4800

> <Gold.Chemscore.Hbond>
2.7948

> <Gold.Chemscore.Metal>
0.0000

> <Gold.Chemscore.Lipo>
44.6868

> <Gold.Chemscore.Internal_Hbond>
0.0000

> <Gold.Chemscore.DEClash>
0.2206

> <Gold.Chemscore.DEInternal>
0.2244

> <Gold.Chemscore.Rot>
1.8226

> <Gold.Chemscore.Internal.Correction>
   9.000000E+99

> <Gold.Chemscore.Hbonds>
donor molecule, donor type, donor heavy atom, donor atom, acceptor molecule, acceptor atom, score
      L1  H     9    23       P1 10175  0.85
      L1  H    11    26       P1  7957  0.92
      P1  H  7989  7998       L1    12  0.01
      P1  H  7997  8010       L1    13  0.83

> <Gold.Chemscore.Hbond.Weighted>
-9.3346

> <Gold.Chemscore.Metal.Weighted>
-0.0000

> <Gold.Chemscore.Lipo.Weighted>
-5.2284

> <Gold.Chemscore.Internal_Hbond.Weighted>
0.0000

> <Gold.Chemscore.DEClash.Weighted>
0.2206

> <Gold.Chemscore.DEInternal.Weighted>
0.2244

> <Gold.Chemscore.Rot.Weighted>
4.6658

> <Gold.Chemscore.Internal.Correction.Weighted>
   9.000000E+99

> <Gold.Protein.RotatedTorsions>
[ 6907 6896 6895 6894 ] final  165.86 input  -60.11 | X-H torsion
[ 7974 7965 7964 7962 ] final  -97.51 input  175.53 | X-H torsion
[ 8008 7997 7996 7995 ] final   74.22 input   59.86 | X-H torsion
[ 10167 10162 10161 10158 ] final  -16.21 input  -65.29 | X-H torsion
[ 10718 10713 10712 10709 ] final  -64.87 input   66.30 | X-H torsion
[ 10763 10752 10751 10750 ] final   45.95 input  -60.55 | X-H torsion
[ 11005 11000 10999 10996 ] final   71.51 input  -57.11 | X-H torsion

> <Gold.Protein.ActiveResidues>
 VAL166  LYS551  ARG553  GLY616  TRP617  ASP618  TYR619  PRO620  LYS621  CYS622 
 ASP623  PHE694  ASN695  SER759  ASP760  ASP761  ALA762  ILE779  LEU786  VAL792 
 PHE793  MET794  SER795  GLU796  ALA797  LYS798  CYS799  TRP800  GLU811  SER814 

> <Gold.Protein.RotatedAtoms>
  151.8879  133.3509  159.3787 H   0  0  0  0  0  0  0  0  0  0  0  0  # atno 6907 bound_to 6896
  150.7111  134.4953  159.5545 H   0  0  0  0  0  0  0  0  0  0  0  0  # atno 6908 bound_to 6896
  152.2518  134.8125  160.0495 H   0  0  0  0  0  0  0  0  0  0  0  0  # atno 6909 bound_to 6896
  145.3328  140.9445  143.2652 H   0  0  0  0  0  0  0  0  0  0  0  0  # atno 7974 bound_to 7965
  155.7952  140.3478  155.5371 H   0  0  0  0  0  0  0  0  0  0  0  0  # atno 8008 bound_to 7997
  155.8594  140.0969  157.1644 H   0  0  0  0  0  0  0  0  0  0  0  0  # atno 8009 bound_to 7997
  154.4011  140.1361  156.3929 H   0  0  0  0  0  0  0  0  0  0  0  0  # atno 8010 bound_to 7997
  140.7230  143.5139  150.9716 H   0  0  0  0  0  0  0  0  0  0  0  0  # atno 10167 bound_to 10162
  156.0703  130.4239  150.1482 H   0  0  0  0  0  0  0  0  0  0  0  0  # atno 10718 bound_to 10713
  152.9817  135.6023  154.3521 H   0  0  0  0  0  0  0  0  0  0  0  0  # atno 10763 bound_to 10752
  154.3209  135.2769  155.2522 H   0  0  0  0  0  0  0  0  0  0  0  0  # atno 10764 bound_to 10752
  154.4689  135.5947  153.6363 H   0  0  0  0  0  0  0  0  0  0  0  0  # atno 10765 bound_to 10752
  139.9539  134.7178  156.0797 H   0  0  0  0  0  0  0  0  0  0  0  0  # atno 11005 bound_to 11000
  144.8851  139.4851  143.6704 LP  0  0  0  0  0  0  0  0  0  0  0  0  # atno 17320 bound_to 7965
  146.3039  139.7515  142.9071 LP  0  0  0  0  0  0  0  0  0  0  0  0  # atno 17321 bound_to 7965
  139.8854  143.7020  152.3152 LP  0  0  0  0  0  0  0  0  0  0  0  0  # atno 17342 bound_to 10162
  139.7317  144.7581  151.0792 LP  0  0  0  0  0  0  0  0  0  0  0  0  # atno 17343 bound_to 10162
  156.9534  130.9782  151.3494 LP  0  0  0  0  0  0  0  0  0  0  0  0  # atno 17370 bound_to 10713
  157.5770  130.8350  149.8470 LP  0  0  0  0  0  0  0  0  0  0  0  0  # atno 17371 bound_to 10713
  141.1207  133.6613  156.3209 LP  0  0  0  0  0  0  0  0  0  0  0  0  # atno 17394 bound_to 11000
  140.5654  134.5893  157.5444 LP  0  0  0  0  0  0  0  0  0  0  0  0  # atno 17395 bound_to 11000

$$$$
