AV-unprocessed.smi:2910|AV-procd|sdf|11175|dock6
  -GOLD-   2272016 63D 1   1.00000     0.00000
 Structure written by MMmdl.
 47 48  0  0  0  0  0  0  0  0  1 V2000
  143.6528  143.9762  161.8770 C   0  0  0  0  0  0  0  0  0  0  0  0
  144.9941  144.1114  161.2191 C   0  0  0  0  0  0  0  0  0  0  0  0
  145.3916  143.6427  159.9333 C   0  0  0  0  0  0  0  0  0  0  0  0
  146.6977  144.0429  159.8574 C   0  0  0  0  0  0  0  0  0  0  0  0
  147.5862  143.8739  158.8424 N   0  0  0  0  0  0  0  0  0  0  0  0
  148.5071  142.9073  158.6847 C   0  0  0  0  0  0  0  0  0  0  0  0
  148.7269  141.9954  159.4820 O   0  0  0  0  0  0  0  0  0  0  0  0
  149.1739  143.0618  157.5305 N   0  0  0  0  0  0  0  0  0  0  0  0
  150.2367  142.1882  157.0252 C   0  0  2  0  0  0  0  0  0  0  0  0
  149.5955  141.0124  156.2499 C   0  0  0  0  0  0  0  0  0  0  0  0
  149.2727  141.3281  154.7786 C   0  0  0  0  0  0  0  0  0  0  0  0
  150.0888  140.5465  153.9333 O   0  0  0  0  0  0  0  0  0  0  0  0
  151.1561  141.7362  158.1972 C   0  0  0  0  0  0  0  0  0  0  0  0
  151.8868  142.9320  158.8621 C   0  0  0  0  0  0  0  0  0  0  0  0
  152.8052  142.4939  160.0136 C   0  0  0  0  0  0  0  0  0  0  0  0
  153.8294  141.4550  159.5423 C   0  0  0  0  0  0  0  0  0  0  0  0
  153.1221  140.2495  158.9116 C   0  0  0  0  0  0  0  0  0  0  0  0
  152.2008  140.6798  157.7585 C   0  0  0  0  0  0  0  0  0  0  0  0
  147.0302  144.6988  161.0218 N   0  0  0  0  0  0  0  0  0  0  0  0
  148.2902  145.3012  161.4115 C   0  0  0  0  0  0  0  0  0  0  0  0
  145.9736  144.7374  161.8620 N   0  0  0  0  0  0  0  0  0  0  0  0
  142.9570  143.4266  161.2428 H   0  0  0  0  0  0  0  0  0  0  0  0
  143.2147  144.9540  162.0788 H   0  0  0  0  0  0  0  0  0  0  0  0
  143.7310  143.4422  162.8243 H   0  0  0  0  0  0  0  0  0  0  0  0
  144.8005  143.1080  159.2053 H   0  0  0  0  0  0  0  0  0  0  0  0
  147.5364  144.5649  158.1085 H   0  0  0  0  0  0  0  0  0  0  0  0
  148.9210  143.8430  156.9432 H   0  0  0  0  0  0  0  0  0  0  0  0
  150.8596  142.7398  156.3187 H   0  0  0  0  0  0  0  0  0  0  0  0
  150.2699  140.1572  156.2574 H   0  0  0  0  0  0  0  0  0  0  0  0
  148.6866  140.6898  156.7598 H   0  0  0  0  0  0  0  0  0  0  0  0
  148.2298  141.1140  154.5452 H   0  0  0  0  0  0  0  0  0  0  0  0
  149.4468  142.3830  154.5644 H   0  0  0  0  0  0  0  0  0  0  0  0
  149.6504  140.4448  153.1021 H   0  0  0  0  0  0  0  0  0  0  0  0
  150.5223  141.2770  158.9577 H   0  0  0  0  0  0  0  0  0  0  0  0
  152.4737  143.4641  158.1122 H   0  0  0  0  0  0  0  0  0  0  0  0
  151.1717  143.6530  159.2578 H   0  0  0  0  0  0  0  0  0  0  0  0
  153.3203  143.3612  160.4273 H   0  0  0  0  0  0  0  0  0  0  0  0
  152.2042  142.0759  160.8223 H   0  0  0  0  0  0  0  0  0  0  0  0
  154.5054  141.9073  158.8156 H   0  0  0  0  0  0  0  0  0  0  0  0
  154.4460  141.1305  160.3810 H   0  0  0  0  0  0  0  0  0  0  0  0
  153.8612  139.5349  158.5483 H   0  0  0  0  0  0  0  0  0  0  0  0
  152.5375  139.7296  159.6717 H   0  0  0  0  0  0  0  0  0  0  0  0
  151.7115  139.7858  157.3751 H   0  0  0  0  0  0  0  0  0  0  0  0
  152.8039  141.0771  156.9410 H   0  0  0  0  0  0  0  0  0  0  0  0
  148.6021  146.0201  160.6537 H   0  0  0  0  0  0  0  0  0  0  0  0
  149.0518  144.5268  161.5047 H   0  0  0  0  0  0  0  0  0  0  0  0
  148.1905  145.8177  162.3674 H   0  0  0  0  0  0  0  0  0  0  0  0
  1  2  1  0  0  0  0
  1 22  1  0  0  0  0
  1 23  1  0  0  0  0
  1 24  1  0  0  0  0
  2 21  2  0  0  0  0
  2  3  1  0  0  0  0
  3  4  2  0  0  0  0
  3 25  1  0  0  0  0
  4  5  1  0  0  0  0
  4 19  1  0  0  0  0
  5  6  1  0  0  0  0
  5 26  1  0  0  0  0
  6  7  2  0  0  0  0
  6  8  1  0  0  0  0
  8  9  1  0  0  0  0
  8 27  1  0  0  0  0
  9 10  1  0  0  0  0
  9 13  1  0  0  0  0
  9 28  1  0  0  0  0
 10 11  1  0  0  0  0
 10 29  1  0  0  0  0
 10 30  1  0  0  0  0
 11 12  1  0  0  0  0
 11 31  1  0  0  0  0
 11 32  1  0  0  0  0
 12 33  1  0  0  0  0
 13 18  1  0  0  0  0
 13 14  1  0  0  0  0
 13 34  1  0  0  0  0
 14 15  1  0  0  0  0
 14 35  1  0  0  0  0
 14 36  1  0  0  0  0
 15 16  1  0  0  0  0
 15 37  1  0  0  0  0
 15 38  1  0  0  0  0
 16 17  1  0  0  0  0
 16 39  1  0  0  0  0
 16 40  1  0  0  0  0
 17 18  1  0  0  0  0
 17 41  1  0  0  0  0
 17 42  1  0  0  0  0
 18 43  1  0  0  0  0
 18 44  1  0  0  0  0
 19 20  1  0  0  0  0
 19 21  1  0  0  0  0
 20 45  1  0  0  0  0
 20 46  1  0  0  0  0
 20 47  1  0  0  0  0
M  END
> <s_m_source_file>
AV-unprocessed.smi

> <i_m_source_file_index>
2910

> <i_lp_mmshare_version>
43012

> <i_f3d_flags>
0

> <s_epik_input>
W0NIM11jMVtjSF1jKG4objEpW0NIM10pW05IXUMoPU8pW05IXVtDQEhdKFtDSDJdW0NIMl1bT0hdKVtDSF0yW0NIMl1bQ0gyXVtDSDJdW0NIMl1bQ0gyXTI=

> <s_epik_cmdline>
J2VwaWtfcHl0aG9uJywgJy1waCcsICc3LjAnLCAnLXRuJywgJzgnLCAnLW1hJywgJzIwMCcsICctbWV0YWxfYmluZGluZycsICctaW1hZScsICc8aW5maWxlLm1hZT4nLCAnLW9tYWUnLCAnPG91dGZpbGUubWFlPic=

> <r_lp_tautomer_probability>
1

> <r_epik_Ionization_Penalty>
0.000101449

> <r_epik_Ionization_Penalty_Charging>
0

> <r_epik_Ionization_Penalty_Neutral>
0.000101449

> <r_epik_State_Penalty>
-0

> <r_epik_Charging_Adjusted_Penalty>
0

> <i_epik_Tot_Q>
0

> <i_epik_Tot_abs_Q>
0

> <r_epik_Metal_State_Penalty>
-0

> <b_epik_Metal_Only>
0

> <s_lp_Force_Field>
OPLS_2005

> <r_lp_Energy>
16.2269

> <b_lp_Chiralities_Consistent>
1

> <s_lp_Variant>
AV-unprocessed.smi:2910-1

> <Gold.Version>
5.8.1

> <Gold.Id.Protein>
6NUR|6NUR_protein|mol2

> <Gold.PLP.Fitness>
45.6641

> <Gold.PLP.PLP>
-37.8035

> <Gold.PLP.part.hbond>
-6.6944

> <Gold.PLP.part.metal>
0.0000

> <Gold.PLP.part.buried>
-1.7439

> <Gold.PLP.part.nonpolar>
-30.1556

> <Gold.PLP.part.repulsive>
0.5377

> <Gold.PLP.ligand.clash>
0.0000

> <Gold.PLP.ligand.torsion>
1.7793

> <Gold.PLP.Chemscore.Hbond>
3.7680

> <Gold.PLP.Chemscore.CHOScore>
0.0000

> <Gold.PLP.Chemscore.Metal>
0.0000

> <Gold.Chemscore.Hbonds>
donor molecule, donor type, donor heavy atom, donor atom, acceptor molecule, acceptor atom, score
      L1  H     5    26       P1  8029  1.00
      L1  H     8    27       P1  8028  1.00
      L1  H    12    33       P1  7957  1.00
      P1  H  7989  7998       L1    12  0.69

> <Gold.PLP.Chemscore.Internal.Correction>
0.1152

> <Gold.Rescore>
     Score         DG    S(hbond)    S(metal)    S(lipo)     H(rot)  DE(clash)    DE(int)     intcor
     14.19     -18.23       2.43        0.00      89.32       2.27       1.31       2.72       ----

> <Gold.Chemscore.Fitness>
14.1919

> <Gold.Chemscore.DG>
-18.2289

> <Gold.Chemscore.ZeroCoef>
-5.4800

> <Gold.Chemscore.Hbond>
2.4312

> <Gold.Chemscore.Metal>
0.0000

> <Gold.Chemscore.Lipo>
89.3234

> <Gold.Chemscore.Internal_Hbond>
0.0000

> <Gold.Chemscore.DEClash>
1.3145

> <Gold.Chemscore.DEInternal>
2.7226

> <Gold.Chemscore.Rot>
2.2743

> <Gold.Chemscore.Internal.Correction>
   9.000000E+99

> <Gold.Chemscore.Hbonds>
donor molecule, donor type, donor heavy atom, donor atom, acceptor molecule, acceptor atom, score
      L1  H     5    26       P1  8029  0.65
      L1  H     8    27       P1  8028  0.28
      L1  H    12    33       P1  7957  0.94
      P1  H  6933  6944       L1     7  0.04
      P1  H  7989  7998       L1    12  0.24

> <Gold.Chemscore.Hbond.Weighted>
-8.1203

> <Gold.Chemscore.Metal.Weighted>
-0.0000

> <Gold.Chemscore.Lipo.Weighted>
-10.4508

> <Gold.Chemscore.Internal_Hbond.Weighted>
0.0000

> <Gold.Chemscore.DEClash.Weighted>
1.3145

> <Gold.Chemscore.DEInternal.Weighted>
2.7226

> <Gold.Chemscore.Rot.Weighted>
5.8223

> <Gold.Chemscore.Internal.Correction.Weighted>
   9.000000E+99

> <Gold.Protein.RotatedTorsions>
[ 6907 6896 6895 6894 ] final  -40.79 input  -60.11 | X-H torsion
[ 7974 7965 7964 7962 ] final -134.27 input  175.53 | X-H torsion
[ 8008 7997 7996 7995 ] final  -45.65 input   59.86 | X-H torsion
[ 10167 10162 10161 10158 ] final  -92.74 input  -65.29 | X-H torsion
[ 10718 10713 10712 10709 ] final -119.67 input   66.30 | X-H torsion
[ 10763 10752 10751 10750 ] final  118.93 input  -60.55 | X-H torsion
[ 11005 11000 10999 10996 ] final -119.46 input  -57.11 | X-H torsion

> <Gold.Protein.ActiveResidues>
 VAL166  LYS551  ARG553  GLY616  TRP617  ASP618  TYR619  PRO620  LYS621  CYS622 
 ASP623  PHE694  ASN695  SER759  ASP760  ASP761  ALA762  ILE779  LEU786  VAL792 
 PHE793  MET794  SER795  GLU796  ALA797  LYS798  CYS799  TRP800  GLU811  SER814 

> <Gold.Protein.RotatedAtoms>
  150.9744  134.9111  159.7806 H   0  0  0  0  0  0  0  0  0  0  0  0  # atno 6907 bound_to 6896
  152.5201  134.3497  159.9256 H   0  0  0  0  0  0  0  0  0  0  0  0  # atno 6908 bound_to 6896
  151.3505  133.3886  159.2714 H   0  0  0  0  0  0  0  0  0  0  0  0  # atno 6909 bound_to 6896
  144.9118  140.6904  143.5020 H   0  0  0  0  0  0  0  0  0  0  0  0  # atno 7974 bound_to 7965
  154.4002  140.1391  156.3883 H   0  0  0  0  0  0  0  0  0  0  0  0  # atno 8008 bound_to 7997
  155.7939  140.3478  155.5344 H   0  0  0  0  0  0  0  0  0  0  0  0  # atno 8009 bound_to 7997
  155.8552  140.0948  157.1639 H   0  0  0  0  0  0  0  0  0  0  0  0  # atno 8010 bound_to 7997
  140.3318  143.2991  151.9933 H   0  0  0  0  0  0  0  0  0  0  0  0  # atno 10167 bound_to 10162
  156.1199  130.6314  150.9445 H   0  0  0  0  0  0  0  0  0  0  0  0  # atno 10718 bound_to 10713
  153.5753  135.3494  155.2854 H   0  0  0  0  0  0  0  0  0  0  0  0  # atno 10763 bound_to 10752
  154.8676  135.4169  154.2680 H   0  0  0  0  0  0  0  0  0  0  0  0  # atno 10764 bound_to 10752
  153.3455  135.7052  153.6902 H   0  0  0  0  0  0  0  0  0  0  0  0  # atno 10765 bound_to 10752
  141.0213  134.0119  157.3278 H   0  0  0  0  0  0  0  0  0  0  0  0  # atno 11005 bound_to 11000
  145.3442  139.1724  143.4469 LP  0  0  0  0  0  0  0  0  0  0  0  0  # atno 17320 bound_to 7965
  146.3162  140.3486  142.8654 LP  0  0  0  0  0  0  0  0  0  0  0  0  # atno 17321 bound_to 7965
  139.4855  144.6229  151.7221 LP  0  0  0  0  0  0  0  0  0  0  0  0  # atno 17342 bound_to 10162
  140.5390  144.0609  150.6081 LP  0  0  0  0  0  0  0  0  0  0  0  0  # atno 17343 bound_to 10162
  157.6382  131.0913  150.8305 LP  0  0  0  0  0  0  0  0  0  0  0  0  # atno 17370 bound_to 10713
  156.8403  130.5046  149.5322 LP  0  0  0  0  0  0  0  0  0  0  0  0  # atno 17371 bound_to 10713
  139.9148  135.0195  156.7837 LP  0  0  0  0  0  0  0  0  0  0  0  0  # atno 17394 bound_to 11000
  140.6567  133.9682  155.7783 LP  0  0  0  0  0  0  0  0  0  0  0  0  # atno 17395 bound_to 11000

$$$$
