AV-unprocessed.smi:148|AV-procd|sdf|1214|dock5
  -GOLD-   2262018393D 1   1.00000     0.00000
 Structure written by MMmdl.
 63 67  0  0  0  0  0  0  0  0  1 V2000
  147.4151  143.5601  152.6817 O   0  0  0  0  0  0  0  0  0  0  0  0
  147.1352  142.5675  153.6467 C   0  0  0  0  0  0  0  0  0  0  0  0
  148.3489  141.6311  153.8565 C   0  0  2  0  0  0  0  0  0  0  0  0
  148.0058  140.4578  154.8119 C   0  0  0  0  0  0  0  0  0  0  0  0
  147.4377  139.3183  154.1132 N   0  0  0  0  0  0  0  0  0  0  0  0
  147.2918  139.1813  152.7517 C   0  0  0  0  0  0  0  0  0  0  0  0
  146.7373  138.0663  152.3620 N   0  0  0  0  0  0  0  0  0  0  0  0
  146.4828  137.3819  153.5449 C   0  0  0  0  0  0  0  0  0  0  0  0
  145.8851  136.1290  153.8639 C   0  0  0  0  0  0  0  0  0  0  0  0
  145.3729  135.2597  152.9620 N   0  0  0  0  0  0  0  0  0  0  0  0
  146.4533  134.7396  152.1224 C   0  0  0  0  0  0  0  0  0  0  0  0
  145.9765  133.5779  151.2405 C   0  0  0  0  0  0  0  0  0  0  0  0
  144.7574  133.9998  150.4141 C   0  0  0  0  0  0  0  0  0  0  0  0
  143.6541  134.5099  151.3494 C   0  0  0  0  0  0  0  0  0  0  0  0
  144.1550  135.6765  152.2405 C   0  0  1  0  0  0  0  0  0  0  0  0
  143.0390  136.2615  153.1668 C   0  0  1  0  0  0  0  0  0  0  0  0
  142.3756  137.5446  152.6265 C   0  0  0  0  0  0  0  0  0  0  0  0
  140.9104  137.5134  153.0896 C   0  0  0  0  0  0  0  0  0  0  0  0
  140.7869  136.3072  154.0221 C   0  0  0  0  0  0  0  0  0  0  0  0
  141.8591  135.3390  153.5252 C   0  0  2  0  0  0  0  0  0  0  0  0
  142.1845  134.3969  154.5252 O   0  0  0  0  0  0  0  0  0  0  0  0
  145.8305  135.7650  155.1688 N   0  0  0  0  0  0  0  0  0  0  0  0
  146.2989  136.5868  156.1124 C   0  0  0  0  0  0  0  0  0  0  0  0
  146.8570  137.7910  155.9692 N   0  0  0  0  0  0  0  0  0  0  0  0
  146.9332  138.1493  154.6553 C   0  0  0  0  0  0  0  0  0  0  0  0
  149.6196  142.4207  154.2778 C   0  0  2  0  0  0  0  0  0  0  0  0
  150.9110  141.6047  154.3663 C   0  0  0  0  0  0  0  0  0  0  0  0
  151.4928  141.9732  155.7313 C   0  0  0  0  0  0  0  0  0  0  0  0
  150.9088  143.2314  156.0267 O   0  0  0  0  0  0  0  0  0  0  0  0
  149.5509  143.1473  155.6282 C   0  0  0  0  0  0  0  0  0  0  0  0
  147.7337  144.3305  153.1268 H   0  0  0  0  0  0  0  0  0  0  0  0
  146.8444  143.0438  154.5833 H   0  0  0  0  0  0  0  0  0  0  0  0
  146.2663  142.0149  153.2905 H   0  0  0  0  0  0  0  0  0  0  0  0
  148.5730  141.1863  152.8855 H   0  0  0  0  0  0  0  0  0  0  0  0
  148.8892  140.1056  155.3427 H   0  0  0  0  0  0  0  0  0  0  0  0
  147.2968  140.7748  155.5760 H   0  0  0  0  0  0  0  0  0  0  0  0
  147.6038  139.9442  152.0533 H   0  0  0  0  0  0  0  0  0  0  0  0
  146.8365  135.5442  151.4927 H   0  0  0  0  0  0  0  0  0  0  0  0
  147.2835  134.4025  152.7453 H   0  0  0  0  0  0  0  0  0  0  0  0
  146.7829  133.2522  150.5831 H   0  0  0  0  0  0  0  0  0  0  0  0
  145.7195  132.7229  151.8673 H   0  0  0  0  0  0  0  0  0  0  0  0
  145.0373  134.7818  149.7071 H   0  0  0  0  0  0  0  0  0  0  0  0
  144.3930  133.1581  149.8243 H   0  0  0  0  0  0  0  0  0  0  0  0
  142.7946  134.8103  150.7519 H   0  0  0  0  0  0  0  0  0  0  0  0
  143.3248  133.6745  151.9664 H   0  0  0  0  0  0  0  0  0  0  0  0
  144.4547  136.4761  151.5629 H   0  0  0  0  0  0  0  0  0  0  0  0
  143.4847  136.5756  154.1110 H   0  0  0  0  0  0  0  0  0  0  0  0
  142.8904  138.4265  153.0097 H   0  0  0  0  0  0  0  0  0  0  0  0
  142.4143  137.6112  151.5402 H   0  0  0  0  0  0  0  0  0  0  0  0
  140.6114  138.4399  153.5807 H   0  0  0  0  0  0  0  0  0  0  0  0
  140.2588  137.3767  152.2256 H   0  0  0  0  0  0  0  0  0  0  0  0
  141.0071  136.6182  155.0446 H   0  0  0  0  0  0  0  0  0  0  0  0
  139.7878  135.8705  154.0156 H   0  0  0  0  0  0  0  0  0  0  0  0
  141.4761  134.8176  152.6494 H   0  0  0  0  0  0  0  0  0  0  0  0
  142.5417  133.6272  154.1081 H   0  0  0  0  0  0  0  0  0  0  0  0
  146.2098  136.2299  157.1278 H   0  0  0  0  0  0  0  0  0  0  0  0
  149.8092  143.1846  153.5224 H   0  0  0  0  0  0  0  0  0  0  0  0
  150.7686  140.5292  154.2682 H   0  0  0  0  0  0  0  0  0  0  0  0
  151.5936  141.9096  153.5720 H   0  0  0  0  0  0  0  0  0  0  0  0
  151.1880  141.2482  156.4876 H   0  0  0  0  0  0  0  0  0  0  0  0
  152.5817  142.0251  155.7262 H   0  0  0  0  0  0  0  0  0  0  0  0
  149.0962  144.1349  155.5492 H   0  0  0  0  0  0  0  0  0  0  0  0
  149.0036  142.5827  156.3820 H   0  0  0  0  0  0  0  0  0  0  0  0
  1  2  1  0  0  0  0
  1 31  1  0  0  0  0
  2  3  1  0  0  0  0
  2 32  1  0  0  0  0
  2 33  1  0  0  0  0
  3  4  1  0  0  0  0
  3 26  1  0  0  0  0
  3 34  1  0  0  0  0
  4  5  1  0  0  0  0
  4 35  1  0  0  0  0
  4 36  1  0  0  0  0
  5 25  1  0  0  0  0
  5  6  1  0  0  0  0
  6  7  2  0  0  0  0
  6 37  1  0  0  0  0
  7  8  1  0  0  0  0
  8 25  2  0  0  0  0
  8  9  1  0  0  0  0
  9 10  1  0  0  0  0
  9 22  2  0  0  0  0
 10 15  1  0  0  0  0
 10 11  1  0  0  0  0
 11 12  1  0  0  0  0
 11 38  1  0  0  0  0
 11 39  1  0  0  0  0
 12 13  1  0  0  0  0
 12 40  1  0  0  0  0
 12 41  1  0  0  0  0
 13 14  1  0  0  0  0
 13 42  1  0  0  0  0
 13 43  1  0  0  0  0
 14 15  1  0  0  0  0
 14 44  1  0  0  0  0
 14 45  1  0  0  0  0
 15 16  1  0  0  0  0
 15 46  1  0  0  0  0
 16 20  1  0  0  0  0
 16 17  1  0  0  0  0
 16 47  1  0  0  0  0
 17 18  1  0  0  0  0
 17 48  1  0  0  0  0
 17 49  1  0  0  0  0
 18 19  1  0  0  0  0
 18 50  1  0  0  0  0
 18 51  1  0  0  0  0
 19 20  1  0  0  0  0
 19 52  1  0  0  0  0
 19 53  1  0  0  0  0
 20 21  1  0  0  0  0
 20 54  1  0  0  0  0
 21 55  1  0  0  0  0
 22 23  1  0  0  0  0
 23 24  2  0  0  0  0
 23 56  1  0  0  0  0
 24 25  1  0  0  0  0
 26 30  1  0  0  0  0
 26 27  1  0  0  0  0
 26 57  1  0  0  0  0
 27 28  1  0  0  0  0
 27 58  1  0  0  0  0
 27 59  1  0  0  0  0
 28 29  1  0  0  0  0
 28 60  1  0  0  0  0
 28 61  1  0  0  0  0
 29 30  1  0  0  0  0
 30 62  1  0  0  0  0
 30 63  1  0  0  0  0
M  END
> <s_m_source_file>
AV-unprocessed.smi

> <i_m_source_file_index>
148

> <i_lp_mmshare_version>
43012

> <i_f3d_flags>
0

> <s_epik_input>
W0NIMl0xT1tDSDJdW0NIMl1bQ0BIXTFbQ0BIXShbQ0gyXVtPSF0pW0NIMl1uKFtjSF1uMiljKGMyMyluW2NIXW5jM040W0NIMl1bQ0gyXVtDSDJdW0NIMl1bQ0BIXTRbQ0BASF01W0NIMl1bQ0gyXVtDSDJdW0NASF01W09IXQ==

> <s_epik_cmdline>
J2VwaWtfcHl0aG9uJywgJy1waCcsICc3LjAnLCAnLXRuJywgJzgnLCAnLW1hJywgJzIwMCcsICctbWV0YWxfYmluZGluZycsICctaW1hZScsICc8aW5maWxlLm1hZT4nLCAnLW9tYWUnLCAnPG91dGZpbGUubWFlPic=

> <r_lp_tautomer_probability>
1

> <r_epik_Ionization_Penalty>
0.00556303

> <r_epik_Ionization_Penalty_Charging>
0

> <r_epik_Ionization_Penalty_Neutral>
0.00556303

> <r_epik_State_Penalty>
0.00401767

> <r_epik_Charging_Adjusted_Penalty>
0.00401767

> <i_epik_Tot_Q>
0

> <i_epik_Tot_abs_Q>
0

> <r_epik_Metal_State_Penalty>
-0

> <b_epik_Metal_Only>
0

> <s_lp_Force_Field>
OPLS_2005

> <r_lp_Energy>
68.8384

> <b_lp_Chiralities_Consistent>
1

> <s_lp_Variant>
AV-unprocessed.smi:148-13

> <Gold.Version>
5.8.1

> <Gold.Id.Protein>
6NUR|6NUR_protein|mol2

> <Gold.PLP.Fitness>
44.9960

> <Gold.PLP.PLP>
-37.5481

> <Gold.PLP.part.hbond>
-4.7940

> <Gold.PLP.part.metal>
0.0000

> <Gold.PLP.part.buried>
-3.3439

> <Gold.PLP.part.nonpolar>
-31.3461

> <Gold.PLP.part.repulsive>
2.9661

> <Gold.PLP.ligand.clash>
0.0000

> <Gold.PLP.ligand.torsion>
1.6653

> <Gold.PLP.Chemscore.Hbond>
2.5120

> <Gold.PLP.Chemscore.CHOScore>
0.9466

> <Gold.PLP.Chemscore.Metal>
0.0000

> <Gold.Chemscore.Hbonds>
donor molecule, donor type, donor heavy atom, donor atom, acceptor molecule, acceptor atom, score
      L1  H    21    55       P1 10957  0.59
      P1  H 11000 11005       L1    21  0.85
      L1  C     6    37       P1  7957  0.89

> <Gold.PLP.Chemscore.Internal.Correction>
0.4027

> <Gold.Rescore>
     Score         DG    S(hbond)    S(metal)    S(lipo)     H(rot)  DE(clash)    DE(int)     intcor
     12.59     -15.76       2.48        0.00      89.67       3.32       1.81       1.36       ----

> <Gold.Chemscore.Fitness>
12.5879

> <Gold.Chemscore.DG>
-15.7584

> <Gold.Chemscore.ZeroCoef>
-5.4800

> <Gold.Chemscore.Hbond>
2.4810

> <Gold.Chemscore.Metal>
0.0000

> <Gold.Chemscore.Lipo>
89.6726

> <Gold.Chemscore.Internal_Hbond>
0.0000

> <Gold.Chemscore.DEClash>
1.8134

> <Gold.Chemscore.DEInternal>
1.3571

> <Gold.Chemscore.Rot>
3.3203

> <Gold.Chemscore.Internal.Correction>
   9.000000E+99

> <Gold.Chemscore.Hbonds>
donor molecule, donor type, donor heavy atom, donor atom, acceptor molecule, acceptor atom, score
      L1  H    21    55       P1 10957  0.57
      P1  H 11000 11005       L1    21  0.60

> <Gold.Chemscore.Hbond.Weighted>
-8.2867

> <Gold.Chemscore.Metal.Weighted>
-0.0000

> <Gold.Chemscore.Lipo.Weighted>
-10.4917

> <Gold.Chemscore.Internal_Hbond.Weighted>
0.0000

> <Gold.Chemscore.DEClash.Weighted>
1.8134

> <Gold.Chemscore.DEInternal.Weighted>
1.3571

> <Gold.Chemscore.Rot.Weighted>
8.5000

> <Gold.Chemscore.Internal.Correction.Weighted>
   9.000000E+99

> <Gold.Protein.RotatedTorsions>
[ 6907 6896 6895 6894 ] final   66.65 input  -60.11 | X-H torsion
[ 7974 7965 7964 7962 ] final    4.54 input  175.53 | X-H torsion
[ 8008 7997 7996 7995 ] final  105.65 input   59.86 | X-H torsion
[ 10167 10162 10161 10158 ] final   58.02 input  -65.29 | X-H torsion
[ 10718 10713 10712 10709 ] final -127.85 input   66.30 | X-H torsion
[ 10763 10752 10751 10750 ] final -107.64 input  -60.55 | X-H torsion
[ 11005 11000 10999 10996 ] final    3.01 input  -57.11 | X-H torsion

> <Gold.Protein.ActiveResidues>
 VAL166  LYS551  ARG553  GLY616  TRP617  ASP618  TYR619  PRO620  LYS621  CYS622 
 ASP623  PHE694  ASN695  SER759  ASP760  ASP761  ALA762  ILE779  LEU786  VAL792 
 PHE793  MET794  SER795  GLU796  ALA797  LYS798  CYS799  TRP800  GLU811  SER814 

> <Gold.Protein.RotatedAtoms>
  152.4496  134.5421  159.9841 H   0  0  0  0  0  0  0  0  0  0  0  0  # atno 6907 bound_to 6896
  151.5497  133.3413  159.2959 H   0  0  0  0  0  0  0  0  0  0  0  0  # atno 6908 bound_to 6896
  150.8421  134.7749  159.7004 H   0  0  0  0  0  0  0  0  0  0  0  0  # atno 6909 bound_to 6896
  146.2443  140.0518  142.8374 H   0  0  0  0  0  0  0  0  0  0  0  0  # atno 7974 bound_to 7965
  156.1677  140.3126  155.8918 H   0  0  0  0  0  0  0  0  0  0  0  0  # atno 8008 bound_to 7997
  155.3652  140.0479  157.3063 H   0  0  0  0  0  0  0  0  0  0  0  0  # atno 8009 bound_to 7997
  154.5209  140.2198  155.8988 H   0  0  0  0  0  0  0  0  0  0  0  0  # atno 8010 bound_to 7997
  140.1917  144.4079  150.6568 H   0  0  0  0  0  0  0  0  0  0  0  0  # atno 10167 bound_to 10162
  156.1895  130.6786  151.0407 H   0  0  0  0  0  0  0  0  0  0  0  0  # atno 10718 bound_to 10713
  154.8087  135.4667  154.0460 H   0  0  0  0  0  0  0  0  0  0  0  0  # atno 10763 bound_to 10752
  153.1908  135.6855  153.8362 H   0  0  0  0  0  0  0  0  0  0  0  0  # atno 10764 bound_to 10752
  153.7880  135.3247  155.3352 H   0  0  0  0  0  0  0  0  0  0  0  0  # atno 10765 bound_to 10752
  140.5979  133.9863  155.8118 H   0  0  0  0  0  0  0  0  0  0  0  0  # atno 11005 bound_to 11000
  145.0977  140.9326  143.4731 LP  0  0  0  0  0  0  0  0  0  0  0  0  # atno 17320 bound_to 7965
  145.0705  139.3035  143.5834 LP  0  0  0  0  0  0  0  0  0  0  0  0  # atno 17321 bound_to 7965
  140.6451  143.2212  151.6203 LP  0  0  0  0  0  0  0  0  0  0  0  0  # atno 17342 bound_to 10162
  139.5253  144.3078  152.1019 LP  0  0  0  0  0  0  0  0  0  0  0  0  # atno 17343 bound_to 10162
  157.6920  131.0807  150.7079 LP  0  0  0  0  0  0  0  0  0  0  0  0  # atno 17370 bound_to 10713
  156.7136  130.4659  149.5541 LP  0  0  0  0  0  0  0  0  0  0  0  0  # atno 17371 bound_to 10713
  141.0892  133.9943  157.3265 LP  0  0  0  0  0  0  0  0  0  0  0  0  # atno 17394 bound_to 11000
  139.9245  135.0201  156.8186 LP  0  0  0  0  0  0  0  0  0  0  0  0  # atno 17395 bound_to 11000

$$$$
