AV-unprocessed.smi:3032|AV-procd|sdf|11568|dock9
  -GOLD-   2272016533D 1   1.00000     0.00000
 Structure written by MMmdl.
 37 38  0  0  0  0  0  0  0  0  1 V2000
  152.6593  142.5785  161.8750 C   0  0  0  0  0  0  0  0  0  0  0  0
  151.8796  143.0351  160.6337 C   0  0  1  0  0  0  0  0  0  0  0  0
  151.5507  144.5379  160.6996 C   0  0  0  0  0  0  0  0  0  0  0  0
  150.7670  144.9996  159.4619 C   0  0  0  0  0  0  0  0  0  0  0  0
  151.5259  144.6728  158.1628 C   0  0  0  0  0  0  0  0  0  0  0  0
  151.9429  143.1880  158.0462 C   0  0  2  0  0  0  0  0  0  0  0  0
  150.7770  142.2681  157.6367 C   0  0  0  0  0  0  0  0  0  0  0  0
  150.5642  141.2112  158.2305 O   0  0  0  0  0  0  0  0  0  0  0  0
  150.0249  142.6853  156.6060 N   0  0  0  0  0  0  0  0  0  0  0  0
  148.8917  141.9577  156.0462 C   0  0  0  0  0  0  0  0  0  0  0  0
  149.1408  141.5669  154.5804 C   0  0  0  0  0  0  0  0  0  0  0  0
  149.8031  140.2349  154.4479 C   0  0  0  0  0  0  0  0  0  0  0  0
  150.9756  139.9061  155.0040 N   0  0  0  0  0  0  0  0  0  0  0  0
  151.2021  138.5870  154.6432 N   0  0  0  0  0  0  0  0  0  0  0  0
  150.1417  138.2471  153.9086 C   0  0  0  0  0  0  0  0  0  0  0  0
  149.2445  139.2284  153.7586 N   0  0  0  0  0  0  0  0  0  0  0  0
  152.6514  142.7095  159.3361 C   0  0  0  0  0  0  0  0  0  0  0  0
  148.3702  139.2139  153.2540 H   0  0  0  0  0  0  0  0  0  0  0  0
  153.6170  143.0938  161.9547 H   0  0  0  0  0  0  0  0  0  0  0  0
  152.8591  141.5071  161.8405 H   0  0  0  0  0  0  0  0  0  0  0  0
  152.0968  142.7783  162.7873 H   0  0  0  0  0  0  0  0  0  0  0  0
  150.9396  142.4836  160.6297 H   0  0  0  0  0  0  0  0  0  0  0  0
  150.9721  144.7547  161.5982 H   0  0  0  0  0  0  0  0  0  0  0  0
  152.4735  145.1142  160.7803 H   0  0  0  0  0  0  0  0  0  0  0  0
  149.7825  144.5324  159.4542 H   0  0  0  0  0  0  0  0  0  0  0  0
  150.5884  146.0735  159.5203 H   0  0  0  0  0  0  0  0  0  0  0  0
  150.9219  144.9645  157.3026 H   0  0  0  0  0  0  0  0  0  0  0  0
  152.4230  145.2917  158.1173 H   0  0  0  0  0  0  0  0  0  0  0  0
  152.6781  143.1310  157.2415 H   0  0  0  0  0  0  0  0  0  0  0  0
  150.2608  143.5667  156.1735 H   0  0  0  0  0  0  0  0  0  0  0  0
  148.6781  141.0730  156.6486 H   0  0  0  0  0  0  0  0  0  0  0  0
  148.0126  142.5987  156.1141 H   0  0  0  0  0  0  0  0  0  0  0  0
  148.1980  141.5488  154.0318 H   0  0  0  0  0  0  0  0  0  0  0  0
  149.7692  142.3124  154.0915 H   0  0  0  0  0  0  0  0  0  0  0  0
  150.0182  137.2657  153.4747 H   0  0  0  0  0  0  0  0  0  0  0  0
  153.6363  143.1760  159.3835 H   0  0  0  0  0  0  0  0  0  0  0  0
  152.8375  141.6358  159.2794 H   0  0  0  0  0  0  0  0  0  0  0  0
  1  2  1  0  0  0  0
  1 19  1  0  0  0  0
  1 20  1  0  0  0  0
  1 21  1  0  0  0  0
  2 17  1  0  0  0  0
  2  3  1  0  0  0  0
  2 22  1  0  0  0  0
  3  4  1  0  0  0  0
  3 23  1  0  0  0  0
  3 24  1  0  0  0  0
  4  5  1  0  0  0  0
  4 25  1  0  0  0  0
  4 26  1  0  0  0  0
  5  6  1  0  0  0  0
  5 27  1  0  0  0  0
  5 28  1  0  0  0  0
  6  7  1  0  0  0  0
  6 17  1  0  0  0  0
  6 29  1  0  0  0  0
  7  8  2  0  0  0  0
  7  9  1  0  0  0  0
  9 10  1  0  0  0  0
  9 30  1  0  0  0  0
 10 11  1  0  0  0  0
 10 31  1  0  0  0  0
 10 32  1  0  0  0  0
 11 12  1  0  0  0  0
 11 33  1  0  0  0  0
 11 34  1  0  0  0  0
 12 16  1  0  0  0  0
 12 13  2  0  0  0  0
 13 14  1  0  0  0  0
 14 15  2  0  0  0  0
 15 16  1  0  0  0  0
 15 35  1  0  0  0  0
 16 18  1  0  0  0  0
 17 36  1  0  0  0  0
 17 37  1  0  0  0  0
M  END
> <s_m_source_file>
AV-unprocessed.smi

> <i_m_source_file_index>
3032

> <i_lp_mmshare_version>
43012

> <i_f3d_flags>
0

> <s_epik_input>
W0NIM11bQ0BASF0xW0NIMl1bQ0gyXVtDSDJdW0NASF0oW0NIMl0xKUMoPU8pW05IXVtDSDJdW0NIMl1jMm5uW2NIXVtuSF0y

> <s_epik_cmdline>
J2VwaWtfcHl0aG9uJywgJy1waCcsICc3LjAnLCAnLXRuJywgJzgnLCAnLW1hJywgJzIwMCcsICctbWV0YWxfYmluZGluZycsICctaW1hZScsICc8aW5maWxlLm1hZT4nLCAnLW9tYWUnLCAnPG91dGZpbGUubWFlPic=

> <r_lp_tautomer_probability>
0.0517155

> <r_epik_Ionization_Penalty>
0.00149837

> <r_epik_Ionization_Penalty_Charging>
0

> <r_epik_Ionization_Penalty_Neutral>
0.00149837

> <r_epik_State_Penalty>
2.1109

> <r_epik_Charging_Adjusted_Penalty>
2.1109

> <i_epik_Tot_Q>
0

> <i_epik_Tot_abs_Q>
0

> <r_epik_Metal_State_Penalty>
2.23635

> <b_epik_Metal_Only>
0

> <s_lp_Force_Field>
OPLS_2005

> <r_lp_Energy>
9.23597

> <b_lp_Chiralities_Consistent>
1

> <s_lp_Variant>
AV-unprocessed.smi:3032-12

> <Gold.Version>
5.8.1

> <Gold.Id.Protein>
6NUR|6NUR_protein|mol2

> <Gold.PLP.Fitness>
46.5181

> <Gold.PLP.PLP>
-42.3617

> <Gold.PLP.part.hbond>
-3.0000

> <Gold.PLP.part.metal>
0.0000

> <Gold.PLP.part.buried>
-5.2495

> <Gold.PLP.part.nonpolar>
-34.3500

> <Gold.PLP.part.repulsive>
0.2246

> <Gold.PLP.ligand.clash>
0.0000

> <Gold.PLP.ligand.torsion>
0.3843

> <Gold.PLP.Chemscore.Hbond>
0.4766

> <Gold.PLP.Chemscore.CHOScore>
1.1487

> <Gold.PLP.Chemscore.Metal>
0.0000

> <Gold.Chemscore.Hbonds>
donor molecule, donor type, donor heavy atom, donor atom, acceptor molecule, acceptor atom, score
      L1  H     9    30       P1  8028  0.40
      P1  H  7989  7998       L1    13  0.10
      L1  C    15    35       P1  7948  1.00

> <Gold.PLP.Chemscore.Internal.Correction>
0.0491

> <Gold.Rescore>
     Score         DG    S(hbond)    S(metal)    S(lipo)     H(rot)  DE(clash)    DE(int)     intcor
     12.89     -13.40       0.79        0.00      94.49       2.25       0.04       0.47       ----

> <Gold.Chemscore.Fitness>
12.8920

> <Gold.Chemscore.DG>
-13.4048

> <Gold.Chemscore.ZeroCoef>
-5.4800

> <Gold.Chemscore.Hbond>
0.7873

> <Gold.Chemscore.Metal>
0.0000

> <Gold.Chemscore.Lipo>
94.4921

> <Gold.Chemscore.Internal_Hbond>
0.0000

> <Gold.Chemscore.DEClash>
0.0411

> <Gold.Chemscore.DEInternal>
0.4717

> <Gold.Chemscore.Rot>
2.2501

> <Gold.Chemscore.Internal.Correction>
   9.000000E+99

> <Gold.Chemscore.Hbonds>
donor molecule, donor type, donor heavy atom, donor atom, acceptor molecule, acceptor atom, score
      L1  H     9    30       P1  8028  0.40

> <Gold.Chemscore.Hbond.Weighted>
-2.6295

> <Gold.Chemscore.Metal.Weighted>
-0.0000

> <Gold.Chemscore.Lipo.Weighted>
-11.0556

> <Gold.Chemscore.Internal_Hbond.Weighted>
0.0000

> <Gold.Chemscore.DEClash.Weighted>
0.0411

> <Gold.Chemscore.DEInternal.Weighted>
0.4717

> <Gold.Chemscore.Rot.Weighted>
5.7603

> <Gold.Chemscore.Internal.Correction.Weighted>
   9.000000E+99

> <Gold.Protein.RotatedTorsions>
[ 6907 6896 6895 6894 ] final  110.60 input  -60.11 | X-H torsion
[ 7974 7965 7964 7962 ] final -178.90 input  175.53 | X-H torsion
[ 8008 7997 7996 7995 ] final -124.81 input   59.86 | X-H torsion
[ 10167 10162 10161 10158 ] final   -9.18 input  -65.29 | X-H torsion
[ 10718 10713 10712 10709 ] final  -10.13 input   66.30 | X-H torsion
[ 10763 10752 10751 10750 ] final   91.64 input  -60.55 | X-H torsion
[ 11005 11000 10999 10996 ] final   86.75 input  -57.11 | X-H torsion

> <Gold.Protein.ActiveResidues>
 VAL166  LYS551  ARG553  GLY616  TRP617  ASP618  TYR619  PRO620  LYS621  CYS622 
 ASP623  PHE694  ASN695  SER759  ASP760  ASP761  ALA762  ILE779  LEU786  VAL792 
 PHE793  MET794  SER795  GLU796  ALA797  LYS798  CYS799  TRP800  GLU811  SER814 

> <Gold.Protein.RotatedAtoms>
  152.5011  133.8777  159.7330 H   0  0  0  0  0  0  0  0  0  0  0  0  # atno 6907 bound_to 6896
  150.9247  133.6829  159.2831 H   0  0  0  0  0  0  0  0  0  0  0  0  # atno 6908 bound_to 6896
  151.4194  135.1000  159.9661 H   0  0  0  0  0  0  0  0  0  0  0  0  # atno 6909 bound_to 6896
  144.7133  140.0799  143.6426 H   0  0  0  0  0  0  0  0  0  0  0  0  # atno 7974 bound_to 7965
  155.2029  140.0416  157.2920 H   0  0  0  0  0  0  0  0  0  0  0  0  # atno 8008 bound_to 7997
  154.6063  140.2465  155.7699 H   0  0  0  0  0  0  0  0  0  0  0  0  # atno 8009 bound_to 7997
  156.2352  140.2924  156.0302 H   0  0  0  0  0  0  0  0  0  0  0  0  # atno 8010 bound_to 7997
  140.7080  143.5886  150.8917 H   0  0  0  0  0  0  0  0  0  0  0  0  # atno 10167 bound_to 10162
  156.6780  130.5028  149.5980 H   0  0  0  0  0  0  0  0  0  0  0  0  # atno 10718 bound_to 10713
  153.2105  135.4390  155.0374 H   0  0  0  0  0  0  0  0  0  0  0  0  # atno 10763 bound_to 10752
  154.8197  135.3332  154.7076 H   0  0  0  0  0  0  0  0  0  0  0  0  # atno 10764 bound_to 10752
  153.7514  135.6998  153.5000 H   0  0  0  0  0  0  0  0  0  0  0  0  # atno 10765 bound_to 10752
  139.8937  134.8376  156.2764 H   0  0  0  0  0  0  0  0  0  0  0  0  # atno 11005 bound_to 11000
  145.9711  139.2871  143.1098 LP  0  0  0  0  0  0  0  0  0  0  0  0  # atno 17320 bound_to 7965
  145.9115  140.9177  143.0451 LP  0  0  0  0  0  0  0  0  0  0  0  0  # atno 17321 bound_to 7965
  139.9612  143.6162  152.3002 LP  0  0  0  0  0  0  0  0  0  0  0  0  # atno 17342 bound_to 10162
  139.6715  144.7660  151.1774 LP  0  0  0  0  0  0  0  0  0  0  0  0  # atno 17343 bound_to 10162
  156.1889  130.6547  151.1038 LP  0  0  0  0  0  0  0  0  0  0  0  0  # atno 17370 bound_to 10713
  157.7054  131.0758  150.6684 LP  0  0  0  0  0  0  0  0  0  0  0  0  # atno 17371 bound_to 10713
  141.0067  133.7119  156.1047 LP  0  0  0  0  0  0  0  0  0  0  0  0  # atno 17394 bound_to 11000
  140.7423  134.4136  157.5553 LP  0  0  0  0  0  0  0  0  0  0  0  0  # atno 17395 bound_to 11000

$$$$
