AV-unprocessed.smi:2097|AV-procd|sdf|8564|dock1
  -GOLD-   2272011293D 1   1.00000     0.00000
 Structure written by MMmdl.
 41 42  0  0  0  0  0  0  0  0  1 V2000
  156.6679  138.3265  165.9775 C   0  0  0  0  0  0  0  0  0  0  0  0
  156.4545  138.2441  164.4590 C   0  0  1  0  0  0  0  0  0  0  0  0
  155.6311  137.1085  164.2044 O   0  0  0  0  0  0  0  0  0  0  0  0
  156.1936  135.8505  164.5641 C   0  0  0  0  0  0  0  0  0  0  0  0
  155.2495  134.7266  164.1212 C   0  0  0  0  0  0  0  0  0  0  0  0
  155.6516  133.5773  164.6626 F   0  0  0  0  0  0  0  0  0  0  0  0
  154.0065  134.9800  164.5295 F   0  0  0  0  0  0  0  0  0  0  0  0
  155.2694  134.6045  162.7943 F   0  0  0  0  0  0  0  0  0  0  0  0
  155.7864  139.5201  163.9214 C   0  0  0  0  0  0  0  0  0  0  0  0
  155.5499  140.4508  164.6907 O   0  0  0  0  0  0  0  0  0  0  0  0
  155.4687  139.5056  162.6133 N   0  0  0  0  0  0  0  0  0  0  0  0
  154.8366  140.5127  161.8337 C   0  0  0  0  0  0  0  0  0  0  0  0
  154.9710  140.6467  160.4308 C   0  0  0  0  0  0  0  0  0  0  0  0
  154.2826  141.6869  159.7771 C   0  0  0  0  0  0  0  0  0  0  0  0
  153.4764  142.5556  160.5404 C   0  0  0  0  0  0  0  0  0  0  0  0
  152.8009  143.6001  159.8936 N   0  0  0  0  0  0  0  0  0  0  0  0
  151.9601  144.3861  160.7880 C   0  0  0  0  0  0  0  0  0  0  0  0
  151.3599  145.5828  160.0302 C   0  0  0  0  0  0  0  0  0  0  0  0
  150.6480  145.1161  158.8875 O   0  0  0  0  0  0  0  0  0  0  0  0
  151.4924  144.4109  157.9820 C   0  0  0  0  0  0  0  0  0  0  0  0
  152.0957  143.1838  158.6876 C   0  0  0  0  0  0  0  0  0  0  0  0
  153.3303  142.4242  161.8800 N   0  0  0  0  0  0  0  0  0  0  0  0
  153.9926  141.4252  162.5003 C   0  0  0  0  0  0  0  0  0  0  0  0
  157.2872  139.1834  166.2449 H   0  0  0  0  0  0  0  0  0  0  0  0
  157.1696  137.4311  166.3449 H   0  0  0  0  0  0  0  0  0  0  0  0
  155.7215  138.4157  166.5126 H   0  0  0  0  0  0  0  0  0  0  0  0
  157.4267  138.1009  163.9832 H   0  0  0  0  0  0  0  0  0  0  0  0
  157.1685  135.7080  164.0965 H   0  0  0  0  0  0  0  0  0  0  0  0
  156.3404  135.8061  165.6442 H   0  0  0  0  0  0  0  0  0  0  0  0
  155.6594  138.6418  162.1263 H   0  0  0  0  0  0  0  0  0  0  0  0
  155.5741  139.9746  159.8410 H   0  0  0  0  0  0  0  0  0  0  0  0
  154.3729  141.8135  158.7081 H   0  0  0  0  0  0  0  0  0  0  0  0
  151.1588  143.7615  161.1855 H   0  0  0  0  0  0  0  0  0  0  0  0
  152.5492  144.7363  161.6366 H   0  0  0  0  0  0  0  0  0  0  0  0
  150.6749  146.1316  160.6767 H   0  0  0  0  0  0  0  0  0  0  0  0
  152.1408  146.2814  159.7251 H   0  0  0  0  0  0  0  0  0  0  0  0
  150.9052  144.0980  157.1187 H   0  0  0  0  0  0  0  0  0  0  0  0
  152.2776  145.0721  157.6118 H   0  0  0  0  0  0  0  0  0  0  0  0
  152.7828  142.6659  158.0173 H   0  0  0  0  0  0  0  0  0  0  0  0
  151.3034  142.4801  158.9467 H   0  0  0  0  0  0  0  0  0  0  0  0
  153.8474  141.3572  163.5687 H   0  0  0  0  0  0  0  0  0  0  0  0
  1  2  1  0  0  0  0
  1 24  1  0  0  0  0
  1 25  1  0  0  0  0
  1 26  1  0  0  0  0
  2  3  1  0  0  0  0
  2  9  1  0  0  0  0
  2 27  1  0  0  0  0
  3  4  1  0  0  0  0
  4  5  1  0  0  0  0
  4 28  1  0  0  0  0
  4 29  1  0  0  0  0
  5  6  1  0  0  0  0
  5  7  1  0  0  0  0
  5  8  1  0  0  0  0
  9 10  2  0  0  0  0
  9 11  1  0  0  0  0
 11 12  1  0  0  0  0
 11 30  1  0  0  0  0
 12 23  1  0  0  0  0
 12 13  2  0  0  0  0
 13 14  1  0  0  0  0
 13 31  1  0  0  0  0
 14 15  2  0  0  0  0
 14 32  1  0  0  0  0
 15 16  1  0  0  0  0
 15 22  1  0  0  0  0
 16 21  1  0  0  0  0
 16 17  1  0  0  0  0
 17 18  1  0  0  0  0
 17 33  1  0  0  0  0
 17 34  1  0  0  0  0
 18 19  1  0  0  0  0
 18 35  1  0  0  0  0
 18 36  1  0  0  0  0
 19 20  1  0  0  0  0
 20 21  1  0  0  0  0
 20 37  1  0  0  0  0
 20 38  1  0  0  0  0
 21 39  1  0  0  0  0
 21 40  1  0  0  0  0
 22 23  2  0  0  0  0
 23 41  1  0  0  0  0
M  END
> <s_m_source_file>
AV-unprocessed.smi

> <i_m_source_file_index>
2097

> <i_lp_mmshare_version>
43012

> <i_f3d_flags>
0

> <s_epik_input>
RkMoRikoRilbQ0gyXU9bQ0BASF0oW0NIM10pQyg9TylbTkhdYzFbY0hdW2NIXWMobltjSF0xKU4yW0NIMl1bQ0gyXU9bQ0gyXVtDSDJdMg==

> <s_epik_cmdline>
J2VwaWtfcHl0aG9uJywgJy1waCcsICc3LjAnLCAnLXRuJywgJzgnLCAnLW1hJywgJzIwMCcsICctbWV0YWxfYmluZGluZycsICctaW1hZScsICc8aW5maWxlLm1hZT4nLCAnLW9tYWUnLCAnPG91dGZpbGUubWFlPic=

> <r_lp_tautomer_probability>
1

> <r_epik_Ionization_Penalty>
0.000443452

> <r_epik_Ionization_Penalty_Charging>
0

> <r_epik_Ionization_Penalty_Neutral>
0.000443452

> <r_epik_State_Penalty>
0.00027288

> <r_epik_Charging_Adjusted_Penalty>
0.00027288

> <i_epik_Tot_Q>
0

> <i_epik_Tot_abs_Q>
0

> <r_epik_Metal_State_Penalty>
-0

> <b_epik_Metal_Only>
0

> <s_lp_Force_Field>
OPLS_2005

> <r_lp_Energy>
27.3588

> <b_lp_Chiralities_Consistent>
1

> <s_lp_Variant>
AV-unprocessed.smi:2097-2

> <Gold.Version>
5.8.1

> <Gold.Id.Protein>
6NUR|6NUR_protein|mol2

> <Gold.PLP.Fitness>
40.8987

> <Gold.PLP.PLP>
-41.4678

> <Gold.PLP.part.hbond>
0.0000

> <Gold.PLP.part.metal>
0.0000

> <Gold.PLP.part.buried>
-5.2937

> <Gold.PLP.part.nonpolar>
-36.1508

> <Gold.PLP.part.repulsive>
0.2747

> <Gold.PLP.ligand.clash>
0.0000

> <Gold.PLP.ligand.torsion>
0.4150

> <Gold.PLP.Chemscore.Hbond>
0.0000

> <Gold.PLP.Chemscore.CHOScore>
0.0000

> <Gold.PLP.Chemscore.Metal>
0.0000

> <Gold.PLP.Chemscore.Internal.Correction>
0.2609

> <Gold.Rescore>
     Score         DG    S(hbond)    S(metal)    S(lipo)     H(rot)  DE(clash)    DE(int)     intcor
     10.88     -12.60       0.00        0.00     103.54       1.95       0.12       1.61       ----

> <Gold.Chemscore.Fitness>
10.8754

> <Gold.Chemscore.DG>
-12.6045

> <Gold.Chemscore.ZeroCoef>
-5.4800

> <Gold.Chemscore.Hbond>
0.0000

> <Gold.Chemscore.Metal>
0.0000

> <Gold.Chemscore.Lipo>
103.5403

> <Gold.Chemscore.Internal_Hbond>
0.0000

> <Gold.Chemscore.DEClash>
0.1182

> <Gold.Chemscore.DEInternal>
1.6109

> <Gold.Chemscore.Rot>
1.9491

> <Gold.Chemscore.Internal.Correction>
   9.000000E+99

> <Gold.Chemscore.Hbond.Weighted>
-0.0000

> <Gold.Chemscore.Metal.Weighted>
-0.0000

> <Gold.Chemscore.Lipo.Weighted>
-12.1142

> <Gold.Chemscore.Internal_Hbond.Weighted>
0.0000

> <Gold.Chemscore.DEClash.Weighted>
0.1182

> <Gold.Chemscore.DEInternal.Weighted>
1.6109

> <Gold.Chemscore.Rot.Weighted>
4.9897

> <Gold.Chemscore.Internal.Correction.Weighted>
   9.000000E+99

> <Gold.Protein.RotatedTorsions>
[ 6907 6896 6895 6894 ] final  161.05 input  -60.11 | X-H torsion
[ 7974 7965 7964 7962 ] final -116.97 input  175.53 | X-H torsion
[ 8008 7997 7996 7995 ] final -128.35 input   59.86 | X-H torsion
[ 10167 10162 10161 10158 ] final  -70.47 input  -65.29 | X-H torsion
[ 10718 10713 10712 10709 ] final -134.66 input   66.30 | X-H torsion
[ 10763 10752 10751 10750 ] final  -93.45 input  -60.55 | X-H torsion
[ 11005 11000 10999 10996 ] final  166.44 input  -57.11 | X-H torsion

> <Gold.Protein.ActiveResidues>
 VAL166  LYS551  ARG553  GLY616  TRP617  ASP618  TYR619  PRO620  LYS621  CYS622 
 ASP623  PHE694  ASN695  SER759  ASP760  ASP761  ALA762  ILE779  LEU786  VAL792 
 PHE793  MET794  SER795  GLU796  ALA797  LYS798  CYS799  TRP800  GLU811  SER814 

> <Gold.Protein.RotatedAtoms>
  151.9615  133.3697  159.4036 H   0  0  0  0  0  0  0  0  0  0  0  0  # atno 6907 bound_to 6896
  150.6963  134.4236  159.5225 H   0  0  0  0  0  0  0  0  0  0  0  0  # atno 6908 bound_to 6896
  152.1925  134.8659  160.0567 H   0  0  0  0  0  0  0  0  0  0  0  0  # atno 6909 bound_to 6896
  145.0906  140.8487  143.3985 H   0  0  0  0  0  0  0  0  0  0  0  0  # atno 7974 bound_to 7965
  155.2612  140.0436  157.2997 H   0  0  0  0  0  0  0  0  0  0  0  0  # atno 8008 bound_to 7997
  154.5710  140.2373  155.8161 H   0  0  0  0  0  0  0  0  0  0  0  0  # atno 8009 bound_to 7997
  156.2122  140.2995  155.9766 H   0  0  0  0  0  0  0  0  0  0  0  0  # atno 8010 bound_to 7997
  140.5349  143.2318  151.7194 H   0  0  0  0  0  0  0  0  0  0  0  0  # atno 10167 bound_to 10162
  156.2578  130.7191  151.1114 H   0  0  0  0  0  0  0  0  0  0  0  0  # atno 10718 bound_to 10713
  154.6961  135.5194  153.8460 H   0  0  0  0  0  0  0  0  0  0  0  0  # atno 10763 bound_to 10752
  153.0668  135.6587  154.0346 H   0  0  0  0  0  0  0  0  0  0  0  0  # atno 10764 bound_to 10752
  154.0213  135.2993  155.3360 H   0  0  0  0  0  0  0  0  0  0  0  0  # atno 10765 bound_to 10752
  140.2665  134.7861  157.3637 H   0  0  0  0  0  0  0  0  0  0  0  0  # atno 11005 bound_to 11000
  145.1070  139.2783  143.5657 LP  0  0  0  0  0  0  0  0  0  0  0  0  # atno 17320 bound_to 7965
  146.3531  140.0655  142.8626 LP  0  0  0  0  0  0  0  0  0  0  0  0  # atno 17321 bound_to 7965
  139.4967  144.4057  152.0134 LP  0  0  0  0  0  0  0  0  0  0  0  0  # atno 17342 bound_to 10162
  140.3162  144.3481  150.6021 LP  0  0  0  0  0  0  0  0  0  0  0  0  # atno 17343 bound_to 10162
  157.7239  131.0663  150.6017 LP  0  0  0  0  0  0  0  0  0  0  0  0  # atno 17370 bound_to 10713
  156.6102  130.4378  149.5862 LP  0  0  0  0  0  0  0  0  0  0  0  0  # atno 17371 bound_to 10713
  140.1414  134.4967  155.8028 LP  0  0  0  0  0  0  0  0  0  0  0  0  # atno 17394 bound_to 11000
  141.2183  133.6827  156.7217 LP  0  0  0  0  0  0  0  0  0  0  0  0  # atno 17395 bound_to 11000

$$$$
