AV-unprocessed.smi:2603|AV-procd|sdf|10187|dock10
  -GOLD-   2272014203D 1   1.00000     0.00000
 Structure written by MMmdl.
 35 36  0  0  0  0  0  0  0  0  1 V2000
  153.9578  141.6549  160.1997 C   0  0  0  0  0  0  0  0  0  0  0  0
  152.9571  142.5341  160.9534 C   0  0  0  0  0  0  0  0  0  0  0  0
  152.0219  143.0618  160.0302 O   0  0  0  0  0  0  0  0  0  0  0  0
  152.4968  144.2418  159.4018 C   0  0  2  0  0  0  0  0  0  0  0  0
  151.4412  145.2942  159.2092 C   0  0  0  0  0  0  0  0  0  0  0  0
  151.9105  144.4673  158.0248 C   0  0  2  0  0  0  0  0  0  0  0  0
  151.0152  143.4836  157.5099 N   0  0  0  0  0  0  0  0  0  0  0  0
  149.9501  142.9777  158.1482 C   0  0  0  0  0  0  0  0  0  0  0  0
  149.6394  143.2773  159.3007 O   0  0  0  0  0  0  0  0  0  0  0  0
  149.0963  141.9841  157.3580 C   0  0  0  0  0  0  0  0  0  0  0  0
  149.9702  141.1769  156.4291 C   0  0  0  0  0  0  0  0  0  0  0  0
  149.7779  140.9341  155.0383 C   0  0  0  0  0  0  0  0  0  0  0  0
  148.6654  141.4095  154.1488 C   0  0  0  0  0  0  0  0  0  0  0  0
  150.7420  140.1859  154.5292 N   0  0  0  0  0  0  0  0  0  0  0  0
  151.6161  139.9157  155.5863 O   0  0  0  0  0  0  0  0  0  0  0  0
  151.1369  140.5165  156.7046 C   0  0  0  0  0  0  0  0  0  0  0  0
  151.9474  140.3483  157.9452 C   0  0  0  0  0  0  0  0  0  0  0  0
  154.7095  141.2516  160.8783 H   0  0  0  0  0  0  0  0  0  0  0  0
  154.4749  142.2242  159.4269 H   0  0  0  0  0  0  0  0  0  0  0  0
  153.4571  140.8145  159.7192 H   0  0  0  0  0  0  0  0  0  0  0  0
  152.4428  141.9465  161.7153 H   0  0  0  0  0  0  0  0  0  0  0  0
  153.4821  143.3458  161.4590 H   0  0  0  0  0  0  0  0  0  0  0  0
  153.5351  144.5094  159.5912 H   0  0  0  0  0  0  0  0  0  0  0  0
  150.4500  145.0939  159.6120 H   0  0  0  0  0  0  0  0  0  0  0  0
  151.7584  146.3342  159.2512 H   0  0  0  0  0  0  0  0  0  0  0  0
  152.5485  144.9839  157.3091 H   0  0  0  0  0  0  0  0  0  0  0  0
  151.1799  143.1804  156.5610 H   0  0  0  0  0  0  0  0  0  0  0  0
  148.5606  141.3461  158.0614 H   0  0  0  0  0  0  0  0  0  0  0  0
  148.3313  142.5295  156.8040 H   0  0  0  0  0  0  0  0  0  0  0  0
  148.2391  142.3443  154.5138 H   0  0  0  0  0  0  0  0  0  0  0  0
  147.8624  140.6739  154.1025 H   0  0  0  0  0  0  0  0  0  0  0  0
  149.0159  141.5859  153.1312 H   0  0  0  0  0  0  0  0  0  0  0  0
  151.5042  140.8865  158.7828 H   0  0  0  0  0  0  0  0  0  0  0  0
  152.9574  140.7301  157.7992 H   0  0  0  0  0  0  0  0  0  0  0  0
  152.0196  139.2958  158.2195 H   0  0  0  0  0  0  0  0  0  0  0  0
  1  2  1  0  0  0  0
  1 18  1  0  0  0  0
  1 19  1  0  0  0  0
  1 20  1  0  0  0  0
  2  3  1  0  0  0  0
  2 21  1  0  0  0  0
  2 22  1  0  0  0  0
  3  4  1  0  0  0  0
  4  6  1  0  0  0  0
  4  5  1  0  0  0  0
  4 23  1  0  0  0  0
  5  6  1  0  0  0  0
  5 24  1  0  0  0  0
  5 25  1  0  0  0  0
  6  7  1  0  0  0  0
  6 26  1  0  0  0  0
  7  8  1  0  0  0  0
  7 27  1  0  0  0  0
  8  9  2  0  0  0  0
  8 10  1  0  0  0  0
 10 11  1  0  0  0  0
 10 28  1  0  0  0  0
 10 29  1  0  0  0  0
 11 16  2  0  0  0  0
 11 12  1  0  0  0  0
 12 13  1  0  0  0  0
 12 14  2  0  0  0  0
 13 30  1  0  0  0  0
 13 31  1  0  0  0  0
 13 32  1  0  0  0  0
 14 15  1  0  0  0  0
 15 16  1  0  0  0  0
 16 17  1  0  0  0  0
 17 33  1  0  0  0  0
 17 34  1  0  0  0  0
 17 35  1  0  0  0  0
M  END
> <s_m_source_file>
AV-unprocessed.smi

> <i_m_source_file_index>
2603

> <i_lp_mmshare_version>
43012

> <i_f3d_flags>
0

> <s_epik_input>
W0NIM11bQ0gyXU9bQ0BASF0xW0NIMl1bQ0BIXTFbTkhdQyg9TylbQ0gyXWMyYyhbQ0gzXSlub2MyW0NIM10=

> <s_epik_cmdline>
J2VwaWtfcHl0aG9uJywgJy1waCcsICc3LjAnLCAnLXRuJywgJzgnLCAnLW1hJywgJzIwMCcsICctbWV0YWxfYmluZGluZycsICctaW1hZScsICc8aW5maWxlLm1hZT4nLCAnLW9tYWUnLCAnPG91dGZpbGUubWFlPic=

> <r_lp_tautomer_probability>
1

> <r_epik_Ionization_Penalty>
2.37325e-08

> <r_epik_Ionization_Penalty_Charging>
0

> <r_epik_Ionization_Penalty_Neutral>
2.37325e-08

> <r_epik_State_Penalty>
-0

> <r_epik_Charging_Adjusted_Penalty>
0

> <i_epik_Tot_Q>
0

> <i_epik_Tot_abs_Q>
0

> <r_epik_Metal_State_Penalty>
-0

> <b_epik_Metal_Only>
0

> <s_lp_Force_Field>
OPLS_2005

> <r_lp_Energy>
11.1697

> <b_lp_Chiralities_Consistent>
1

> <s_lp_Variant>
AV-unprocessed.smi:2603-3

> <Gold.Version>
5.8.1

> <Gold.Id.Protein>
6NUR|6NUR_protein|mol2

> <Gold.PLP.Fitness>
40.6911

> <Gold.PLP.PLP>
-41.0421

> <Gold.PLP.part.hbond>
-3.5167

> <Gold.PLP.part.metal>
0.0000

> <Gold.PLP.part.buried>
-4.6284

> <Gold.PLP.part.nonpolar>
-32.7949

> <Gold.PLP.part.repulsive>
0.2240

> <Gold.PLP.ligand.clash>
1.5853

> <Gold.PLP.ligand.torsion>
1.2090

> <Gold.PLP.Chemscore.Hbond>
0.9913

> <Gold.PLP.Chemscore.CHOScore>
0.0000

> <Gold.PLP.Chemscore.Metal>
0.0000

> <Gold.Chemscore.Hbonds>
donor molecule, donor type, donor heavy atom, donor atom, acceptor molecule, acceptor atom, score
      P1  H  7989  7998       L1    14  0.98

> <Gold.PLP.Chemscore.Internal.Correction>
0.6785

> <Gold.Rescore>
     Score         DG    S(hbond)    S(metal)    S(lipo)     H(rot)  DE(clash)    DE(int)     intcor
     10.58     -15.88       1.07        0.00      95.30       1.69       0.06       5.24       ----

> <Gold.Chemscore.Fitness>
10.5822

> <Gold.Chemscore.DG>
-15.8810

> <Gold.Chemscore.ZeroCoef>
-5.4800

> <Gold.Chemscore.Hbond>
1.0736

> <Gold.Chemscore.Metal>
0.0000

> <Gold.Chemscore.Lipo>
95.2988

> <Gold.Chemscore.Internal_Hbond>
0.0000

> <Gold.Chemscore.DEClash>
0.0604

> <Gold.Chemscore.DEInternal>
5.2384

> <Gold.Chemscore.Rot>
1.6933

> <Gold.Chemscore.Internal.Correction>
   9.000000E+99

> <Gold.Chemscore.Hbonds>
donor molecule, donor type, donor heavy atom, donor atom, acceptor molecule, acceptor atom, score
      P1  H  7989  7998       L1    14  0.37

> <Gold.Chemscore.Hbond.Weighted>
-3.5858

> <Gold.Chemscore.Metal.Weighted>
-0.0000

> <Gold.Chemscore.Lipo.Weighted>
-11.1500

> <Gold.Chemscore.Internal_Hbond.Weighted>
0.0000

> <Gold.Chemscore.DEClash.Weighted>
0.0604

> <Gold.Chemscore.DEInternal.Weighted>
5.2384

> <Gold.Chemscore.Rot.Weighted>
4.3348

> <Gold.Chemscore.Internal.Correction.Weighted>
   9.000000E+99

> <Gold.Protein.RotatedTorsions>
[ 6907 6896 6895 6894 ] final  -83.87 input  -60.11 | X-H torsion
[ 7974 7965 7964 7962 ] final  133.29 input  175.53 | X-H torsion
[ 8008 7997 7996 7995 ] final  151.19 input   59.86 | X-H torsion
[ 10167 10162 10161 10158 ] final  141.74 input  -65.29 | X-H torsion
[ 10718 10713 10712 10709 ] final  107.33 input   66.30 | X-H torsion
[ 10763 10752 10751 10750 ] final    0.31 input  -60.55 | X-H torsion
[ 11005 11000 10999 10996 ] final  177.46 input  -57.11 | X-H torsion

> <Gold.Protein.ActiveResidues>
 VAL166  LYS551  ARG553  GLY616  TRP617  ASP618  TYR619  PRO620  LYS621  CYS622 
 ASP623  PHE694  ASN695  SER759  ASP760  ASP761  ALA762  ILE779  LEU786  VAL792 
 PHE793  MET794  SER795  GLU796  ALA797  LYS798  CYS799  TRP800  GLU811  SER814 

> <Gold.Protein.RotatedAtoms>
  150.6881  134.3445  159.4881 H   0  0  0  0  0  0  0  0  0  0  0  0  # atno 6907 bound_to 6896
  152.1294  134.9143  160.0568 H   0  0  0  0  0  0  0  0  0  0  0  0  # atno 6908 bound_to 6896
  152.0319  133.3906  159.4338 H   0  0  0  0  0  0  0  0  0  0  0  0  # atno 6909 bound_to 6896
  144.9881  139.4435  143.5353 H   0  0  0  0  0  0  0  0  0  0  0  0  # atno 7974 bound_to 7965
  156.2684  140.2054  156.6136 H   0  0  0  0  0  0  0  0  0  0  0  0  # atno 8008 bound_to 7997
  154.6812  140.0540  157.0292 H   0  0  0  0  0  0  0  0  0  0  0  0  # atno 8009 bound_to 7997
  155.0998  140.3205  155.4553 H   0  0  0  0  0  0  0  0  0  0  0  0  # atno 8010 bound_to 7997
  139.5012  144.6152  151.6180 H   0  0  0  0  0  0  0  0  0  0  0  0  # atno 10167 bound_to 10162
  157.6633  131.0870  150.6140 H   0  0  0  0  0  0  0  0  0  0  0  0  # atno 10718 bound_to 10713
  153.3223  135.6970  153.7019 H   0  0  0  0  0  0  0  0  0  0  0  0  # atno 10763 bound_to 10752
  153.5854  135.3490  155.2891 H   0  0  0  0  0  0  0  0  0  0  0  0  # atno 10764 bound_to 10752
  154.8600  135.4305  154.2391 H   0  0  0  0  0  0  0  0  0  0  0  0  # atno 10765 bound_to 10752
  140.3844  134.6918  157.4470 H   0  0  0  0  0  0  0  0  0  0  0  0  # atno 11005 bound_to 11000
  146.3425  139.9195  142.8769 LP  0  0  0  0  0  0  0  0  0  0  0  0  # atno 17320 bound_to 7965
  145.2325  140.9978  143.3982 LP  0  0  0  0  0  0  0  0  0  0  0  0  # atno 17321 bound_to 7965
  140.5838  143.9900  150.6283 LP  0  0  0  0  0  0  0  0  0  0  0  0  # atno 17342 bound_to 10162
  140.3058  143.3230  152.0927 LP  0  0  0  0  0  0  0  0  0  0  0  0  # atno 17343 bound_to 10162
  156.6442  130.4467  149.5742 LP  0  0  0  0  0  0  0  0  0  0  0  0  # atno 17370 bound_to 10713
  156.2186  130.6723  151.1345 LP  0  0  0  0  0  0  0  0  0  0  0  0  # atno 17371 bound_to 10713
  140.0454  134.6207  155.8928 LP  0  0  0  0  0  0  0  0  0  0  0  0  # atno 17394 bound_to 11000
  141.1912  133.6571  156.5448 LP  0  0  0  0  0  0  0  0  0  0  0  0  # atno 17395 bound_to 11000

$$$$
