AV-unprocessed.smi:2509|AV-procd|sdf|9866|dock4
  -GOLD-   2272013493D 1   1.00000     0.00000
 Structure written by MMmdl.
 45 46  0  0  0  0  0  0  0  0  1 V2000
  143.9435  131.9005  150.5232 C   0  0  0  0  0  0  0  0  0  0  0  0
  145.0976  132.6338  151.2461 C   0  0  0  0  0  0  0  0  0  0  0  0
  145.6437  131.7474  152.3803 C   0  0  0  0  0  0  0  0  0  0  0  0
  146.2008  132.8480  150.1826 C   0  0  0  0  0  0  0  0  0  0  0  0
  144.6199  133.9752  151.8294 C   0  0  0  0  0  0  0  0  0  0  0  0
  145.1006  135.0901  151.2632 N   0  0  0  0  0  0  0  0  0  0  0  0
  144.5948  136.2710  151.6767 C   0  0  0  0  0  0  0  0  0  0  0  0
  143.5793  136.3477  152.6503 C   0  0  0  0  0  0  0  0  0  0  0  0
  143.0765  137.6211  153.0272 N   0  0  0  0  0  0  0  0  0  0  0  0
  142.1191  137.9009  153.9275 C   0  0  0  0  0  0  0  0  0  0  0  0
  141.5342  137.0702  154.6221 O   0  0  0  0  0  0  0  0  0  0  0  0
  141.8917  139.2203  153.9970 N   0  0  0  0  0  0  0  0  0  0  0  0
  140.9391  139.8708  154.8919 C   0  0  0  0  0  0  0  0  0  0  0  0
  139.8895  140.6851  154.1110 C   0  0  2  0  0  0  0  0  0  0  0  0
  139.2267  141.8121  154.9194 C   0  0  0  0  0  0  0  0  0  0  0  0
  137.8284  142.0163  154.3149 C   0  0  0  0  0  0  0  0  0  0  0  0
  137.6364  140.8984  153.2829 C   0  0  0  0  0  0  0  0  0  0  0  0
  138.6981  139.8526  153.6274 C   0  0  1  0  0  0  0  0  0  0  0  0
  139.0195  139.0529  152.5080 O   0  0  0  0  0  0  0  0  0  0  0  0
  143.1073  135.1092  153.1459 C   0  0  0  0  0  0  0  0  0  0  0  0
  143.6199  133.9351  152.7201 N   0  0  0  0  0  0  0  0  0  0  0  0
  144.2873  130.9721  150.0661 H   0  0  0  0  0  0  0  0  0  0  0  0
  143.5160  132.5168  149.7312 H   0  0  0  0  0  0  0  0  0  0  0  0
  143.1370  131.6336  151.2070 H   0  0  0  0  0  0  0  0  0  0  0  0
  144.8769  131.5460  153.1290 H   0  0  0  0  0  0  0  0  0  0  0  0
  146.4810  132.2266  152.8886 H   0  0  0  0  0  0  0  0  0  0  0  0
  145.9939  130.7869  152.0013 H   0  0  0  0  0  0  0  0  0  0  0  0
  146.5081  131.9030  149.7332 H   0  0  0  0  0  0  0  0  0  0  0  0
  147.0977  133.2987  150.6093 H   0  0  0  0  0  0  0  0  0  0  0  0
  145.8558  133.4968  149.3766 H   0  0  0  0  0  0  0  0  0  0  0  0
  145.0036  137.1611  151.2215 H   0  0  0  0  0  0  0  0  0  0  0  0
  143.5298  138.4131  152.5954 H   0  0  0  0  0  0  0  0  0  0  0  0
  142.4252  139.8247  153.3893 H   0  0  0  0  0  0  0  0  0  0  0  0
  140.4411  139.0896  155.4665 H   0  0  0  0  0  0  0  0  0  0  0  0
  141.4490  140.5031  155.6207 H   0  0  0  0  0  0  0  0  0  0  0  0
  140.3680  141.1365  153.2397 H   0  0  0  0  0  0  0  0  0  0  0  0
  139.1230  141.5148  155.9637 H   0  0  0  0  0  0  0  0  0  0  0  0
  139.8195  142.7271  154.9007 H   0  0  0  0  0  0  0  0  0  0  0  0
  137.0710  141.9522  155.0968 H   0  0  0  0  0  0  0  0  0  0  0  0
  137.7315  142.9969  153.8475 H   0  0  0  0  0  0  0  0  0  0  0  0
  136.6265  140.4873  153.2909 H   0  0  0  0  0  0  0  0  0  0  0  0
  137.8191  141.3013  152.2854 H   0  0  0  0  0  0  0  0  0  0  0  0
  138.3351  139.2146  154.4347 H   0  0  0  0  0  0  0  0  0  0  0  0
  139.6801  139.4979  151.9994 H   0  0  0  0  0  0  0  0  0  0  0  0
  142.3016  135.0352  153.8597 H   0  0  0  0  0  0  0  0  0  0  0  0
  1  2  1  0  0  0  0
  1 22  1  0  0  0  0
  1 23  1  0  0  0  0
  1 24  1  0  0  0  0
  2  3  1  0  0  0  0
  2  4  1  0  0  0  0
  2  5  1  0  0  0  0
  3 25  1  0  0  0  0
  3 26  1  0  0  0  0
  3 27  1  0  0  0  0
  4 28  1  0  0  0  0
  4 29  1  0  0  0  0
  4 30  1  0  0  0  0
  5 21  1  0  0  0  0
  5  6  2  0  0  0  0
  6  7  1  0  0  0  0
  7  8  2  0  0  0  0
  7 31  1  0  0  0  0
  8  9  1  0  0  0  0
  8 20  1  0  0  0  0
  9 10  1  0  0  0  0
  9 32  1  0  0  0  0
 10 11  2  0  0  0  0
 10 12  1  0  0  0  0
 12 13  1  0  0  0  0
 12 33  1  0  0  0  0
 13 14  1  0  0  0  0
 13 34  1  0  0  0  0
 13 35  1  0  0  0  0
 14 18  1  0  0  0  0
 14 15  1  0  0  0  0
 14 36  1  0  0  0  0
 15 16  1  0  0  0  0
 15 37  1  0  0  0  0
 15 38  1  0  0  0  0
 16 17  1  0  0  0  0
 16 39  1  0  0  0  0
 16 40  1  0  0  0  0
 17 18  1  0  0  0  0
 17 41  1  0  0  0  0
 17 42  1  0  0  0  0
 18 19  1  0  0  0  0
 18 43  1  0  0  0  0
 19 44  1  0  0  0  0
 20 21  2  0  0  0  0
 20 45  1  0  0  0  0
M  END
> <s_m_source_file>
AV-unprocessed.smi

> <i_m_source_file_index>
2509

> <i_lp_mmshare_version>
43012

> <i_f3d_flags>
0

> <s_epik_input>
W0NIM11DKFtDSDNdKShbQ0gzXSljMW5bY0hdYyhbY0hdbjEpW05IXUMoPU8pW05IXVtDSDJdW0NAQEhdMltDSDJdW0NIMl1bQ0gyXVtDQEhdMltPSF0=

> <s_epik_cmdline>
J2VwaWtfcHl0aG9uJywgJy1waCcsICc3LjAnLCAnLXRuJywgJzgnLCAnLW1hJywgJzIwMCcsICctbWV0YWxfYmluZGluZycsICctaW1hZScsICc8aW5maWxlLm1hZT4nLCAnLW9tYWUnLCAnPG91dGZpbGUubWFlPic=

> <r_lp_tautomer_probability>
1

> <r_epik_Ionization_Penalty>
2.77586e-05

> <r_epik_Ionization_Penalty_Charging>
0

> <r_epik_Ionization_Penalty_Neutral>
2.77586e-05

> <r_epik_State_Penalty>
-0

> <r_epik_Charging_Adjusted_Penalty>
0

> <i_epik_Tot_Q>
0

> <i_epik_Tot_abs_Q>
0

> <r_epik_Metal_State_Penalty>
-0

> <b_epik_Metal_Only>
0

> <s_lp_Force_Field>
OPLS_2005

> <r_lp_Energy>
20.4584

> <b_lp_Chiralities_Consistent>
1

> <s_lp_Variant>
AV-unprocessed.smi:2509-1

> <Gold.Version>
5.8.1

> <Gold.Id.Protein>
6NUR|6NUR_protein|mol2

> <Gold.PLP.Fitness>
43.2860

> <Gold.PLP.PLP>
-32.3673

> <Gold.PLP.part.hbond>
-3.0000

> <Gold.PLP.part.metal>
0.0000

> <Gold.PLP.part.buried>
-5.5900

> <Gold.PLP.part.nonpolar>
-25.0705

> <Gold.PLP.part.repulsive>
0.3997

> <Gold.PLP.ligand.clash>
0.0000

> <Gold.PLP.ligand.torsion>
0.3522

> <Gold.PLP.Chemscore.Hbond>
2.9280

> <Gold.PLP.Chemscore.CHOScore>
0.8953

> <Gold.PLP.Chemscore.Metal>
0.0000

> <Gold.Chemscore.Hbonds>
donor molecule, donor type, donor heavy atom, donor atom, acceptor molecule, acceptor atom, score
      L1  H     9    32       P1 10175  0.93
      L1  H    12    33       P1 10175  1.00
      L1  H    19    44       P1 10160  1.00
      L1  C     7    31       P1 10171  0.91

> <Gold.PLP.Chemscore.Internal.Correction>
0.1530

> <Gold.Rescore>
     Score         DG    S(hbond)    S(metal)    S(lipo)     H(rot)  DE(clash)    DE(int)     intcor
     17.26     -18.78       2.76        0.00      76.76       1.91       0.05       1.48       ----

> <Gold.Chemscore.Fitness>
17.2555

> <Gold.Chemscore.DG>
-18.7804

> <Gold.Chemscore.ZeroCoef>
-5.4800

> <Gold.Chemscore.Hbond>
2.7585

> <Gold.Chemscore.Metal>
0.0000

> <Gold.Chemscore.Lipo>
76.7574

> <Gold.Chemscore.Internal_Hbond>
0.0000

> <Gold.Chemscore.DEClash>
0.0473

> <Gold.Chemscore.DEInternal>
1.4776

> <Gold.Chemscore.Rot>
1.9116

> <Gold.Chemscore.Internal.Correction>
   9.000000E+99

> <Gold.Chemscore.Hbonds>
donor molecule, donor type, donor heavy atom, donor atom, acceptor molecule, acceptor atom, score
      L1  H     9    32       P1 10175  0.84
      L1  H    12    33       P1 10175  0.94
      L1  H    19    44       P1 10160  1.00

> <Gold.Chemscore.Hbond.Weighted>
-9.2133

> <Gold.Chemscore.Metal.Weighted>
-0.0000

> <Gold.Chemscore.Lipo.Weighted>
-8.9806

> <Gold.Chemscore.Internal_Hbond.Weighted>
0.0000

> <Gold.Chemscore.DEClash.Weighted>
0.0473

> <Gold.Chemscore.DEInternal.Weighted>
1.4776

> <Gold.Chemscore.Rot.Weighted>
4.8936

> <Gold.Chemscore.Internal.Correction.Weighted>
   9.000000E+99

> <Gold.Protein.RotatedTorsions>
[ 6907 6896 6895 6894 ] final -171.95 input  -60.11 | X-H torsion
[ 7974 7965 7964 7962 ] final   78.77 input  175.53 | X-H torsion
[ 8008 7997 7996 7995 ] final -101.09 input   59.86 | X-H torsion
[ 10167 10162 10161 10158 ] final -173.96 input  -65.29 | X-H torsion
[ 10718 10713 10712 10709 ] final  161.30 input   66.30 | X-H torsion
[ 10763 10752 10751 10750 ] final   65.51 input  -60.55 | X-H torsion
[ 11005 11000 10999 10996 ] final  -32.91 input  -57.11 | X-H torsion

> <Gold.Protein.ActiveResidues>
 VAL166  LYS551  ARG553  GLY616  TRP617  ASP618  TYR619  PRO620  LYS621  CYS622 
 ASP623  PHE694  ASN695  SER759  ASP760  ASP761  ALA762  ILE779  LEU786  VAL792 
 PHE793  MET794  SER795  GLU796  ALA797  LYS798  CYS799  TRP800  GLU811  SER814 

> <Gold.Protein.RotatedAtoms>
  151.5321  133.3447  159.2919 H   0  0  0  0  0  0  0  0  0  0  0  0  # atno 6907 bound_to 6896
  150.8587  134.7935  159.7077 H   0  0  0  0  0  0  0  0  0  0  0  0  # atno 6908 bound_to 6896
  152.4613  134.5186  159.9827 H   0  0  0  0  0  0  0  0  0  0  0  0  # atno 6909 bound_to 6896
  145.6728  139.2501  143.1858 H   0  0  0  0  0  0  0  0  0  0  0  0  # atno 7974 bound_to 7965
  154.8378  140.0436  157.1520 H   0  0  0  0  0  0  0  0  0  0  0  0  # atno 8008 bound_to 7997
  154.9081  140.3009  155.5261 H   0  0  0  0  0  0  0  0  0  0  0  0  # atno 8009 bound_to 7997
  156.2990  140.2363  156.4117 H   0  0  0  0  0  0  0  0  0  0  0  0  # atno 8010 bound_to 7997
  139.5660  144.1755  152.1313 H   0  0  0  0  0  0  0  0  0  0  0  0  # atno 10167 bound_to 10162
  157.1385  131.0534  151.2338 H   0  0  0  0  0  0  0  0  0  0  0  0  # atno 10718 bound_to 10713
  153.0099  135.5354  154.6678 H   0  0  0  0  0  0  0  0  0  0  0  0  # atno 10763 bound_to 10752
  154.5870  135.2855  155.0676 H   0  0  0  0  0  0  0  0  0  0  0  0  # atno 10764 bound_to 10752
  154.1784  135.6520  153.5080 H   0  0  0  0  0  0  0  0  0  0  0  0  # atno 10765 bound_to 10752
  140.9591  133.7175  156.1341 H   0  0  0  0  0  0  0  0  0  0  0  0  # atno 11005 bound_to 11000
  146.1030  140.7520  142.9540 LP  0  0  0  0  0  0  0  0  0  0  0  0  # atno 17320 bound_to 7965
  144.7051  140.3818  143.7124 LP  0  0  0  0  0  0  0  0  0  0  0  0  # atno 17321 bound_to 7965
  140.1278  144.5316  150.6822 LP  0  0  0  0  0  0  0  0  0  0  0  0  # atno 17342 bound_to 10162
  140.6943  143.2394  151.5044 LP  0  0  0  0  0  0  0  0  0  0  0  0  # atno 17343 bound_to 10162
  157.4329  130.7500  149.7005 LP  0  0  0  0  0  0  0  0  0  0  0  0  # atno 17370 bound_to 10713
  155.9793  130.4041  150.3594 LP  0  0  0  0  0  0  0  0  0  0  0  0  # atno 17371 bound_to 10713
  140.7493  134.4063  157.5544 LP  0  0  0  0  0  0  0  0  0  0  0  0  # atno 17394 bound_to 11000
  139.8872  134.8889  156.2541 LP  0  0  0  0  0  0  0  0  0  0  0  0  # atno 17395 bound_to 11000

$$$$
