AV-unprocessed.smi:2235|AV-procd|sdf|9044|dock8
  -GOLD-   2272012253D 1   1.00000     0.00000
 Structure written by MMmdl.
 36 37  0  0  0  0  0  0  0  0  1 V2000
  152.8832  139.3864  157.4439 O   0  0  0  0  0  0  0  0  0  0  0  0
  151.9838  139.7949  156.7094 C   0  0  0  0  0  0  0  0  0  0  0  0
  151.7386  139.1267  155.3562 C   0  0  0  0  0  0  0  0  0  0  0  0
  150.4224  139.4567  154.8400 N   0  0  0  0  0  0  0  0  0  0  0  0
  149.3786  138.6045  154.5467 C   0  0  0  0  0  0  0  0  0  0  0  0
  148.3418  139.3663  154.0866 C   0  0  0  0  0  0  0  0  0  0  0  0
  146.9778  138.9247  153.6332 C   0  0  0  0  0  0  0  0  0  0  0  0
  146.7437  139.2438  152.1505 C   0  0  0  0  0  0  0  0  0  0  0  0
  147.3912  138.2833  151.3442 O   0  0  0  0  0  0  0  0  0  0  0  0
  148.8582  140.6922  154.1377 C   0  0  0  0  0  0  0  0  0  0  0  0
  150.1013  140.7439  154.5880 N   0  0  0  0  0  0  0  0  0  0  0  0
  151.1795  140.8219  157.0243 N   0  0  0  0  0  0  0  0  0  0  0  0
  151.2473  141.5915  158.2632 C   0  0  0  0  0  0  0  0  0  0  0  0
  150.6230  142.9848  158.0685 C   0  0  0  0  0  0  0  0  0  0  0  0
  151.7935  143.9676  158.0429 C   0  0  0  0  0  0  0  0  0  0  0  0
  152.8285  143.3357  158.9680 C   0  0  0  0  0  0  0  0  0  0  0  0
  152.7058  141.8333  158.7066 C   0  0  0  0  0  0  0  0  0  0  0  0
  152.5030  139.4346  154.6407 H   0  0  0  0  0  0  0  0  0  0  0  0
  151.8128  138.0430  155.4568 H   0  0  0  0  0  0  0  0  0  0  0  0
  149.4597  137.5367  154.6891 H   0  0  0  0  0  0  0  0  0  0  0  0
  146.8522  137.8535  153.7955 H   0  0  0  0  0  0  0  0  0  0  0  0
  146.2034  139.4077  154.2308 H   0  0  0  0  0  0  0  0  0  0  0  0
  145.6781  139.2407  151.9188 H   0  0  0  0  0  0  0  0  0  0  0  0
  147.1298  140.2331  151.9028 H   0  0  0  0  0  0  0  0  0  0  0  0
  147.7610  137.6193  151.9058 H   0  0  0  0  0  0  0  0  0  0  0  0
  148.3681  141.6141  153.8615 H   0  0  0  0  0  0  0  0  0  0  0  0
  150.4657  141.0854  156.3600 H   0  0  0  0  0  0  0  0  0  0  0  0
  150.6962  141.0656  159.0452 H   0  0  0  0  0  0  0  0  0  0  0  0
  150.0010  143.0618  157.1756 H   0  0  0  0  0  0  0  0  0  0  0  0
  149.9844  143.2138  158.9228 H   0  0  0  0  0  0  0  0  0  0  0  0
  152.1964  144.0348  157.0313 H   0  0  0  0  0  0  0  0  0  0  0  0
  151.5060  144.9718  158.3559 H   0  0  0  0  0  0  0  0  0  0  0  0
  153.8365  143.7112  158.7906 H   0  0  0  0  0  0  0  0  0  0  0  0
  152.5707  143.5502  160.0060 H   0  0  0  0  0  0  0  0  0  0  0  0
  152.9687  141.2458  159.5868 H   0  0  0  0  0  0  0  0  0  0  0  0
  153.4020  141.5526  157.9147 H   0  0  0  0  0  0  0  0  0  0  0  0
  1  2  2  0  0  0  0
  2  3  1  0  0  0  0
  2 12  1  0  0  0  0
  3  4  1  0  0  0  0
  3 18  1  0  0  0  0
  3 19  1  0  0  0  0
  4 11  1  0  0  0  0
  4  5  1  0  0  0  0
  5  6  2  0  0  0  0
  5 20  1  0  0  0  0
  6  7  1  0  0  0  0
  6 10  1  0  0  0  0
  7  8  1  0  0  0  0
  7 21  1  0  0  0  0
  7 22  1  0  0  0  0
  8  9  1  0  0  0  0
  8 23  1  0  0  0  0
  8 24  1  0  0  0  0
  9 25  1  0  0  0  0
 10 11  2  0  0  0  0
 10 26  1  0  0  0  0
 12 13  1  0  0  0  0
 12 27  1  0  0  0  0
 13 17  1  0  0  0  0
 13 14  1  0  0  0  0
 13 28  1  0  0  0  0
 14 15  1  0  0  0  0
 14 29  1  0  0  0  0
 14 30  1  0  0  0  0
 15 16  1  0  0  0  0
 15 31  1  0  0  0  0
 15 32  1  0  0  0  0
 16 17  1  0  0  0  0
 16 33  1  0  0  0  0
 16 34  1  0  0  0  0
 17 35  1  0  0  0  0
 17 36  1  0  0  0  0
M  END
> <s_m_source_file>
AV-unprocessed.smi

> <i_m_source_file_index>
2235

> <i_lp_mmshare_version>
43012

> <i_f3d_flags>
0

> <s_epik_input>
W0NIMl0xW0NIMl1bQ0gyXVtDSDJdW0NIXTFbTkhdQyg9TylbQ0gyXW4yW2NIXWMoW2NIXW4yKVtDSDJdW0NIMl1bT0hd

> <s_epik_cmdline>
J2VwaWtfcHl0aG9uJywgJy1waCcsICc3LjAnLCAnLXRuJywgJzgnLCAnLW1hJywgJzIwMCcsICctbWV0YWxfYmluZGluZycsICctaW1hZScsICc8aW5maWxlLm1hZT4nLCAnLW9tYWUnLCAnPG91dGZpbGUubWFlPic=

> <r_lp_tautomer_probability>
1

> <r_epik_Ionization_Penalty>
3.35381e-05

> <r_epik_Ionization_Penalty_Charging>
0

> <r_epik_Ionization_Penalty_Neutral>
3.35381e-05

> <r_epik_State_Penalty>
-0

> <r_epik_Charging_Adjusted_Penalty>
0

> <i_epik_Tot_Q>
0

> <i_epik_Tot_abs_Q>
0

> <r_epik_Metal_State_Penalty>
-0

> <b_epik_Metal_Only>
0

> <s_lp_Force_Field>
OPLS_2005

> <r_lp_Energy>
18.0157

> <b_lp_Chiralities_Consistent>
1

> <s_lp_Variant>
AV-unprocessed.smi:2235-1

> <Gold.Version>
5.8.1

> <Gold.Id.Protein>
6NUR|6NUR_protein|mol2

> <Gold.PLP.Fitness>
45.9048

> <Gold.PLP.PLP>
-37.5652

> <Gold.PLP.part.hbond>
-5.0000

> <Gold.PLP.part.metal>
0.0000

> <Gold.PLP.part.buried>
-1.6523

> <Gold.PLP.part.nonpolar>
-30.8440

> <Gold.PLP.part.repulsive>
0.2003

> <Gold.PLP.ligand.clash>
0.0000

> <Gold.PLP.ligand.torsion>
0.6502

> <Gold.PLP.Chemscore.Hbond>
3.1992

> <Gold.PLP.Chemscore.CHOScore>
0.0000

> <Gold.PLP.Chemscore.Metal>
0.0000

> <Gold.Chemscore.Hbonds>
donor molecule, donor type, donor heavy atom, donor atom, acceptor molecule, acceptor atom, score
      L1  H     9    25       P1  7948  0.78
      P1  H  7954  7966       L1     9  0.95
      P1  H  7989  7998       L1    11  0.39
      P1  H  7997  8009       L1     1  1.00

> <Gold.PLP.Chemscore.Internal.Correction>
0.0423

> <Gold.Rescore>
     Score         DG    S(hbond)    S(metal)    S(lipo)     H(rot)  DE(clash)    DE(int)     intcor
     15.80     -17.75       2.44        0.00      88.90       2.46       0.07       1.89       ----

> <Gold.Chemscore.Fitness>
15.7992

> <Gold.Chemscore.DG>
-17.7517

> <Gold.Chemscore.ZeroCoef>
-5.4800

> <Gold.Chemscore.Hbond>
2.4442

> <Gold.Chemscore.Metal>
0.0000

> <Gold.Chemscore.Lipo>
88.8975

> <Gold.Chemscore.Internal_Hbond>
0.0000

> <Gold.Chemscore.DEClash>
0.0657

> <Gold.Chemscore.DEInternal>
1.8867

> <Gold.Chemscore.Rot>
2.4581

> <Gold.Chemscore.Internal.Correction>
   9.000000E+99

> <Gold.Chemscore.Hbonds>
donor molecule, donor type, donor heavy atom, donor atom, acceptor molecule, acceptor atom, score
      L1  H     9    25       P1  7948  0.78
      P1  H  7954  7966       L1     9  0.21
      P1  H  7989  7998       L1    11  0.02
      P1  H  7997  8009       L1     1  0.55

> <Gold.Chemscore.Hbond.Weighted>
-8.1635

> <Gold.Chemscore.Metal.Weighted>
-0.0000

> <Gold.Chemscore.Lipo.Weighted>
-10.4010

> <Gold.Chemscore.Internal_Hbond.Weighted>
0.0000

> <Gold.Chemscore.DEClash.Weighted>
0.0657

> <Gold.Chemscore.DEInternal.Weighted>
1.8867

> <Gold.Chemscore.Rot.Weighted>
6.2928

> <Gold.Chemscore.Internal.Correction.Weighted>
   9.000000E+99

> <Gold.Protein.RotatedTorsions>
[ 6907 6896 6895 6894 ] final -158.82 input  -60.11 | X-H torsion
[ 7974 7965 7964 7962 ] final -129.08 input  175.53 | X-H torsion
[ 8008 7997 7996 7995 ] final  173.17 input   59.86 | X-H torsion
[ 10167 10162 10161 10158 ] final   79.12 input  -65.29 | X-H torsion
[ 10718 10713 10712 10709 ] final  -95.58 input   66.30 | X-H torsion
[ 10763 10752 10751 10750 ] final -115.28 input  -60.55 | X-H torsion
[ 11005 11000 10999 10996 ] final   56.30 input  -57.11 | X-H torsion

> <Gold.Protein.ActiveResidues>
 VAL166  LYS551  ARG553  GLY616  TRP617  ASP618  TYR619  PRO620  LYS621  CYS622 
 ASP623  PHE694  ASN695  SER759  ASP760  ASP761  ALA762  ILE779  LEU786  VAL792 
 PHE793  MET794  SER795  GLU796  ALA797  LYS798  CYS799  TRP800  GLU811  SER814 

> <Gold.Protein.RotatedAtoms>
  151.3240  133.4028  159.2656 H   0  0  0  0  0  0  0  0  0  0  0  0  # atno 6907 bound_to 6896
  151.0011  134.9323  159.7964 H   0  0  0  0  0  0  0  0  0  0  0  0  # atno 6908 bound_to 6896
  152.5275  134.3205  159.9199 H   0  0  0  0  0  0  0  0  0  0  0  0  # atno 6909 bound_to 6896
  144.9607  140.7444  143.4730 H   0  0  0  0  0  0  0  0  0  0  0  0  # atno 7974 bound_to 7965
  156.1102  140.1467  156.9349 H   0  0  0  0  0  0  0  0  0  0  0  0  # atno 8008 bound_to 7997
  154.4761  140.0894  156.7309 H   0  0  0  0  0  0  0  0  0  0  0  0  # atno 8009 bound_to 7997
  155.4610  140.3438  155.4315 H   0  0  0  0  0  0  0  0  0  0  0  0  # atno 8010 bound_to 7997
  139.9637  144.5943  150.8049 H   0  0  0  0  0  0  0  0  0  0  0  0  # atno 10167 bound_to 10162
  156.0046  130.5115  150.6098 H   0  0  0  0  0  0  0  0  0  0  0  0  # atno 10718 bound_to 10713
  154.8474  135.4387  154.1637 H   0  0  0  0  0  0  0  0  0  0  0  0  # atno 10763 bound_to 10752
  153.2768  135.6950  153.7431 H   0  0  0  0  0  0  0  0  0  0  0  0  # atno 10764 bound_to 10752
  153.6651  135.3428  155.3113 H   0  0  0  0  0  0  0  0  0  0  0  0  # atno 10765 bound_to 10752
  140.0540  134.5697  155.9230 H   0  0  0  0  0  0  0  0  0  0  0  0  # atno 11005 bound_to 11000
  145.2704  139.1957  143.4845 LP  0  0  0  0  0  0  0  0  0  0  0  0  # atno 17320 bound_to 7965
  146.3352  140.2649  142.8603 LP  0  0  0  0  0  0  0  0  0  0  0  0  # atno 17321 bound_to 7965
  140.7545  143.3028  151.3037 LP  0  0  0  0  0  0  0  0  0  0  0  0  # atno 17342 bound_to 10162
  139.6534  144.0320  152.2643 LP  0  0  0  0  0  0  0  0  0  0  0  0  # atno 17343 bound_to 10162
  157.3933  131.0799  151.1374 LP  0  0  0  0  0  0  0  0  0  0  0  0  # atno 17370 bound_to 10713
  157.2059  130.6416  149.5756 LP  0  0  0  0  0  0  0  0  0  0  0  0  # atno 17371 bound_to 10713
  141.1943  133.6582  156.5590 LP  0  0  0  0  0  0  0  0  0  0  0  0  # atno 17394 bound_to 11000
  140.3873  134.7471  157.4699 LP  0  0  0  0  0  0  0  0  0  0  0  0  # atno 17395 bound_to 11000

$$$$
