AV-unprocessed.smi:1734|AV-procd|sdf|6984|dock4
  -GOLD-   22720 8203D 1   1.00000     0.00000
 Structure written by MMmdl.
 51 53  0  0  0  0  0  0  0  0  2 V2000
  147.1825  131.8853  152.7222 C   0  0  0  0  0  0  0  0  0  0  0  0
  146.1295  132.4881  151.8062 C   0  0  0  0  0  0  0  0  0  0  0  0
  145.3538  131.6358  150.9917 C   0  0  0  0  0  0  0  0  0  0  0  0
  144.3784  132.1939  150.1479 C   0  0  0  0  0  0  0  0  0  0  0  0
  144.2188  133.5902  150.1543 C   0  0  0  0  0  0  0  0  0  0  0  0
  144.9554  134.4120  150.9295 N   0  0  0  0  0  0  0  0  0  0  0  0
  145.9006  133.8892  151.7505 C   0  0  0  0  0  0  0  0  0  0  0  0
  146.7184  134.6964  152.5912 N   0  0  0  0  0  0  0  0  0  0  0  0
  146.5834  134.9357  153.9077 C   0  0  0  0  0  0  0  0  0  0  0  0
  145.7206  134.4493  154.6388 O   0  0  0  0  0  0  0  0  0  0  0  0
  147.5266  135.7792  154.3470 N   0  0  0  0  0  0  0  0  0  0  0  0
  147.6542  136.2208  155.7327 C   0  0  0  0  0  0  0  0  0  0  0  0
  149.1224  136.4762  156.1659 C   0  0  2  0  0  0  0  0  0  0  0  0
  149.3020  136.6359  157.6969 C   0  0  2  0  0  0  0  0  0  0  0  0
  148.6549  135.5366  158.5204 C   0  0  0  0  0  0  0  0  0  0  0  0
  148.5662  136.1790  159.9009 C   0  0  0  0  0  0  0  0  0  0  0  0
  148.4082  137.5748  159.6690 O   0  0  0  0  0  0  0  0  0  0  0  0
  148.6121  137.8673  158.2908 C   0  0  0  0  0  0  0  0  0  0  0  0
  149.7913  137.5875  155.4226 N   0  3  0  0  0  0  0  0  0  0  0  0
  149.0736  138.8842  155.4916 C   0  0  0  0  0  0  0  0  0  0  0  0
  149.7192  139.8967  154.5299 C   0  0  0  0  0  0  0  0  0  0  0  0
  151.0997  140.0430  154.8421 O   0  0  0  0  0  0  0  0  0  0  0  0
  151.8136  138.8199  154.7056 C   0  0  0  0  0  0  0  0  0  0  0  0
  151.2405  137.7791  155.6814 C   0  0  0  0  0  0  0  0  0  0  0  0
  147.2317  130.8016  152.6110 H   0  0  0  0  0  0  0  0  0  0  0  0
  146.9507  132.1055  153.7647 H   0  0  0  0  0  0  0  0  0  0  0  0
  148.1683  132.2903  152.4920 H   0  0  0  0  0  0  0  0  0  0  0  0
  145.5014  130.5659  151.0113 H   0  0  0  0  0  0  0  0  0  0  0  0
  143.7687  131.5686  149.5128 H   0  0  0  0  0  0  0  0  0  0  0  0
  143.4814  134.0603  149.5206 H   0  0  0  0  0  0  0  0  0  0  0  0
  147.4949  135.1466  152.1305 H   0  0  0  0  0  0  0  0  0  0  0  0
  148.1974  136.1372  153.6833 H   0  0  0  0  0  0  0  0  0  0  0  0
  147.0937  137.1509  155.8425 H   0  0  0  0  0  0  0  0  0  0  0  0
  147.1666  135.5013  156.3905 H   0  0  0  0  0  0  0  0  0  0  0  0
  149.6728  135.5734  155.8962 H   0  0  0  0  0  0  0  0  0  0  0  0
  150.3600  136.6817  157.9576 H   0  0  0  0  0  0  0  0  0  0  0  0
  147.6530  135.3173  158.1477 H   0  0  0  0  0  0  0  0  0  0  0  0
  149.2270  134.6084  158.5257 H   0  0  0  0  0  0  0  0  0  0  0  0
  147.7452  135.7773  160.4953 H   0  0  0  0  0  0  0  0  0  0  0  0
  149.4932  136.0229  160.4537 H   0  0  0  0  0  0  0  0  0  0  0  0
  149.1984  138.7778  158.1641 H   0  0  0  0  0  0  0  0  0  0  0  0
  147.6376  138.0277  157.8275 H   0  0  0  0  0  0  0  0  0  0  0  0
  148.0248  138.7495  155.2247 H   0  0  0  0  0  0  0  0  0  0  0  0
  149.0991  139.2752  156.5092 H   0  0  0  0  0  0  0  0  0  0  0  0
  149.6015  139.5783  153.4928 H   0  0  0  0  0  0  0  0  0  0  0  0
  149.2312  140.8670  154.6221 H   0  0  0  0  0  0  0  0  0  0  0  0
  151.7568  138.4633  153.6758 H   0  0  0  0  0  0  0  0  0  0  0  0
  152.8665  138.9994  154.9233 H   0  0  0  0  0  0  0  0  0  0  0  0
  151.3978  138.1244  156.7039 H   0  0  0  0  0  0  0  0  0  0  0  0
  151.7793  136.8389  155.5679 H   0  0  0  0  0  0  0  0  0  0  0  0
  149.7275  137.3131  154.4525 H   0  0  0  0  0  0  0  0  0  0  0  0
  1  2  1  0  0  0  0
  1 25  1  0  0  0  0
  1 26  1  0  0  0  0
  1 27  1  0  0  0  0
  2  7  1  0  0  0  0
  2  3  2  0  0  0  0
  3  4  1  0  0  0  0
  3 28  1  0  0  0  0
  4  5  2  0  0  0  0
  4 29  1  0  0  0  0
  5  6  1  0  0  0  0
  5 30  1  0  0  0  0
  6  7  2  0  0  0  0
  7  8  1  0  0  0  0
  8  9  1  0  0  0  0
  8 31  1  0  0  0  0
  9 10  2  0  0  0  0
  9 11  1  0  0  0  0
 11 12  1  0  0  0  0
 11 32  1  0  0  0  0
 12 13  1  0  0  0  0
 12 33  1  0  0  0  0
 12 34  1  0  0  0  0
 13 14  1  0  0  0  0
 13 19  1  0  0  0  0
 13 35  1  0  0  0  0
 14 18  1  0  0  0  0
 14 15  1  0  0  0  0
 14 36  1  0  0  0  0
 15 16  1  0  0  0  0
 15 37  1  0  0  0  0
 15 38  1  0  0  0  0
 16 17  1  0  0  0  0
 16 39  1  0  0  0  0
 16 40  1  0  0  0  0
 17 18  1  0  0  0  0
 18 41  1  0  0  0  0
 18 42  1  0  0  0  0
 19 24  1  0  0  0  0
 19 20  1  0  0  0  0
 19 51  1  0  0  0  0
 20 21  1  0  0  0  0
 20 43  1  0  0  0  0
 20 44  1  0  0  0  0
 21 22  1  0  0  0  0
 21 45  1  0  0  0  0
 21 46  1  0  0  0  0
 22 23  1  0  0  0  0
 23 24  1  0  0  0  0
 23 47  1  0  0  0  0
 23 48  1  0  0  0  0
 24 49  1  0  0  0  0
 24 50  1  0  0  0  0
M  CHG  1  19   1
M  END
> <s_m_source_file>
AV-unprocessed.smi

> <i_m_source_file_index>
1734

> <i_lp_mmshare_version>
43012

> <i_f3d_flags>
0

> <s_epik_input>
W0NIM11jMVtjSF1bY0hdW2NIXW5jMVtOSF1DKD1PKVtOSF1bQ0gyXVtDQEhdKFtDQEBIXTJbQ0gyXVtDSDJdT1tDSDJdMilOM1tDSDJdW0NIMl1PW0NIMl1bQ0gyXTM=

> <s_epik_cmdline>
J2VwaWtfcHl0aG9uJywgJy1waCcsICc3LjAnLCAnLXRuJywgJzgnLCAnLW1hJywgJzIwMCcsICctbWV0YWxfYmluZGluZycsICctaW1hZScsICc8aW5maWxlLm1hZT4nLCAnLW9tYWUnLCAnPG91dGZpbGUubWFlPic=

> <r_epik_Ionization_Penalty>
0.983302

> <r_epik_Ionization_Penalty_Charging>
0.98326

> <r_epik_Ionization_Penalty_Neutral>
4.21967e-05

> <r_epik_State_Penalty>
1.0303

> <r_epik_Charging_Adjusted_Penalty>
2.01356

> <i_epik_Tot_Q>
1

> <i_epik_Tot_abs_Q>
1

> <r_epik_Metal_State_Penalty>
1.03031

> <b_epik_Metal_Only>
0

> <s_lp_Force_Field>
OPLS_2005

> <r_lp_Energy>
50.4673

> <b_lp_Chiralities_Consistent>
1

> <s_lp_Variant>
AV-unprocessed.smi:1734-5

> <Gold.Version>
5.8.1

> <Gold.Id.Protein>
6NUR|6NUR_protein|mol2

> <Gold.PLP.Fitness>
43.9142

> <Gold.PLP.PLP>
-33.1746

> <Gold.PLP.part.hbond>
-5.0000

> <Gold.PLP.part.metal>
0.0000

> <Gold.PLP.part.buried>
-6.4919

> <Gold.PLP.part.nonpolar>
-23.4320

> <Gold.PLP.part.repulsive>
0.3014

> <Gold.PLP.ligand.clash>
0.0000

> <Gold.PLP.ligand.torsion>
1.0648

> <Gold.PLP.Chemscore.Hbond>
3.1953

> <Gold.PLP.Chemscore.CHOScore>
0.9995

> <Gold.PLP.Chemscore.Metal>
0.0000

> <Gold.Chemscore.Hbonds>
donor molecule, donor type, donor heavy atom, donor atom, acceptor molecule, acceptor atom, score
      L1  H     8    31       P1  7948  1.00
      L1  H    11    32       P1  7948  1.00
      P1  H  6931  6943       L1    17  0.02
      P1  H  6934  6947       L1    17  0.18
      P1  H  7989  7998       L1    22  1.00
      L1  C     5    30       P1 10186  1.00

> <Gold.PLP.Chemscore.Internal.Correction>
0.2850

> <Gold.Rescore>
     Score         DG    S(hbond)    S(metal)    S(lipo)     H(rot)  DE(clash)    DE(int)     intcor
     16.90     -18.20       2.36        0.00      78.36       1.70       0.13       1.17       ----

> <Gold.Chemscore.Fitness>
16.9003

> <Gold.Chemscore.DG>
-18.1960

> <Gold.Chemscore.ZeroCoef>
-5.4800

> <Gold.Chemscore.Hbond>
2.3643

> <Gold.Chemscore.Metal>
0.0000

> <Gold.Chemscore.Lipo>
78.3559

> <Gold.Chemscore.Internal_Hbond>
0.0000

> <Gold.Chemscore.DEClash>
0.1283

> <Gold.Chemscore.DEInternal>
1.1674

> <Gold.Chemscore.Rot>
1.6986

> <Gold.Chemscore.Internal.Correction>
   9.000000E+99

> <Gold.Chemscore.Hbonds>
donor molecule, donor type, donor heavy atom, donor atom, acceptor molecule, acceptor atom, score
      L1  H     8    31       P1  7948  0.98
      L1  H    11    32       P1  7948  0.94
      P1  H  6931  6943       L1    17  0.01
      P1  H  6934  6947       L1    17  0.17
      P1  H  7989  7998       L1    22  0.09

> <Gold.Chemscore.Hbond.Weighted>
-7.8968

> <Gold.Chemscore.Metal.Weighted>
-0.0000

> <Gold.Chemscore.Lipo.Weighted>
-9.1676

> <Gold.Chemscore.Internal_Hbond.Weighted>
0.0000

> <Gold.Chemscore.DEClash.Weighted>
0.1283

> <Gold.Chemscore.DEInternal.Weighted>
1.1674

> <Gold.Chemscore.Rot.Weighted>
4.3485

> <Gold.Chemscore.Internal.Correction.Weighted>
   9.000000E+99

> <Gold.Protein.RotatedTorsions>
[ 6907 6896 6895 6894 ] final -102.53 input  -60.11 | X-H torsion
[ 7974 7965 7964 7962 ] final   23.73 input  175.53 | X-H torsion
[ 8008 7997 7996 7995 ] final  176.88 input   59.86 | X-H torsion
[ 10167 10162 10161 10158 ] final -111.24 input  -65.29 | X-H torsion
[ 10718 10713 10712 10709 ] final  -18.90 input   66.30 | X-H torsion
[ 10763 10752 10751 10750 ] final -109.34 input  -60.55 | X-H torsion
[ 11005 11000 10999 10996 ] final  167.59 input  -57.11 | X-H torsion

> <Gold.Protein.ActiveResidues>
 VAL166  LYS551  ARG553  GLY616  TRP617  ASP618  TYR619  PRO620  LYS621  CYS622 
 ASP623  PHE694  ASN695  SER759  ASP760  ASP761  ALA762  ILE779  LEU786  VAL792 
 PHE793  MET794  SER795  GLU796  ALA797  LYS798  CYS799  TRP800  GLU811  SER814 

> <Gold.Protein.RotatedAtoms>
  150.7200  134.0568  159.3817 H   0  0  0  0  0  0  0  0  0  0  0  0  # atno 6907 bound_to 6896
  151.8546  135.0543  160.0472 H   0  0  0  0  0  0  0  0  0  0  0  0  # atno 6908 bound_to 6896
  152.2764  133.5393  159.5507 H   0  0  0  0  0  0  0  0  0  0  0  0  # atno 6909 bound_to 6896
  146.1971  139.7704  142.8789 H   0  0  0  0  0  0  0  0  0  0  0  0  # atno 7974 bound_to 7965
  156.0717  140.1372  156.9821 H   0  0  0  0  0  0  0  0  0  0  0  0  # atno 8008 bound_to 7997
  154.4535  140.0970  156.6740 H   0  0  0  0  0  0  0  0  0  0  0  0  # atno 8009 bound_to 7997
  155.5218  140.3456  155.4410 H   0  0  0  0  0  0  0  0  0  0  0  0  # atno 8010 bound_to 7997
  140.1357  143.4322  152.1596 H   0  0  0  0  0  0  0  0  0  0  0  0  # atno 10167 bound_to 10162
  156.5532  130.4707  149.6442 H   0  0  0  0  0  0  0  0  0  0  0  0  # atno 10718 bound_to 10713
  154.8187  135.4604  154.0717 H   0  0  0  0  0  0  0  0  0  0  0  0  # atno 10763 bound_to 10752
  153.2089  135.6879  153.8145 H   0  0  0  0  0  0  0  0  0  0  0  0  # atno 10764 bound_to 10752
  153.7603  135.3285  155.3313 H   0  0  0  0  0  0  0  0  0  0  0  0  # atno 10765 bound_to 10752
  140.2783  134.7771  157.3736 H   0  0  0  0  0  0  0  0  0  0  0  0  # atno 11005 bound_to 11000
  145.3608  141.0325  143.3286 LP  0  0  0  0  0  0  0  0  0  0  0  0  # atno 17320 bound_to 7965
  144.8603  139.5187  143.6815 LP  0  0  0  0  0  0  0  0  0  0  0  0  # atno 17321 bound_to 7965
  139.5497  144.7327  151.4474 LP  0  0  0  0  0  0  0  0  0  0  0  0  # atno 17342 bound_to 10162
  140.6790  143.8124  150.7096 LP  0  0  0  0  0  0  0  0  0  0  0  0  # atno 17343 bound_to 10162
  156.2866  130.7100  151.1939 LP  0  0  0  0  0  0  0  0  0  0  0  0  # atno 17370 bound_to 10713
  157.7383  131.0542  150.5301 LP  0  0  0  0  0  0  0  0  0  0  0  0  # atno 17371 bound_to 10713
  140.1307  134.5099  155.8108 LP  0  0  0  0  0  0  0  0  0  0  0  0  # atno 17394 bound_to 11000
  141.2167  133.6789  156.7034 LP  0  0  0  0  0  0  0  0  0  0  0  0  # atno 17395 bound_to 11000

$$$$
