AV-unprocessed.smi:3092|AV-procd|sdf|11784|dock8
  -GOLD-   2272017163D 1   1.00000     0.00000
 Structure written by MMmdl.
 26 27  0  0  0  0  0  0  0  0  3 V2000
  152.9260  141.9874  159.7007 C   0  0  0  0  0  0  0  0  0  0  0  0
  152.2699  143.1490  159.0967 N   0  0  0  0  0  0  0  0  0  0  0  0
  152.5084  144.4637  159.4056 C   0  0  0  0  0  0  0  0  0  0  0  0
  151.6854  145.2116  158.6063 C   0  0  0  0  0  0  0  0  0  0  0  0
  150.9779  144.3235  157.8431 N   0  3  0  0  0  0  0  0  0  0  0  0
  151.3287  143.0649  158.1393 C   0  0  0  0  0  0  0  0  0  0  0  0
  150.7628  141.8281  157.4974 C   0  0  2  0  0  0  0  0  0  0  0  0
  150.9665  141.7195  155.9881 C   0  0  0  0  0  0  0  0  0  0  0  0
  149.9203  140.6775  155.5659 C   0  0  0  0  0  0  0  0  0  0  0  0
  148.8871  140.6591  156.6247 N   0  3  0  0  0  0  0  0  0  0  0  0
  149.2479  141.6744  157.6307 C   0  0  0  0  0  0  0  0  0  0  0  0
  153.6511  142.3221  160.4433 H   0  0  0  0  0  0  0  0  0  0  0  0
  153.4418  141.4191  158.9260 H   0  0  0  0  0  0  0  0  0  0  0  0
  152.1770  141.3614  160.1867 H   0  0  0  0  0  0  0  0  0  0  0  0
  153.2295  144.7640  160.1527 H   0  0  0  0  0  0  0  0  0  0  0  0
  151.5540  146.2810  158.5251 H   0  0  0  0  0  0  0  0  0  0  0  0
  151.2366  140.9675  157.9700 H   0  0  0  0  0  0  0  0  0  0  0  0
  150.7377  142.6712  155.5063 H   0  0  0  0  0  0  0  0  0  0  0  0
  151.9849  141.4427  155.7131 H   0  0  0  0  0  0  0  0  0  0  0  0
  149.4835  140.9138  154.5951 H   0  0  0  0  0  0  0  0  0  0  0  0
  150.3669  139.6849  155.5003 H   0  0  0  0  0  0  0  0  0  0  0  0
  147.9705  140.8450  156.2422 H   0  0  0  0  0  0  0  0  0  0  0  0
  148.9347  141.3856  158.6343 H   0  0  0  0  0  0  0  0  0  0  0  0
  148.7400  142.6043  157.3706 H   0  0  0  0  0  0  0  0  0  0  0  0
  148.8930  139.7471  157.0596 H   0  0  0  0  0  0  0  0  0  0  0  0
  150.2879  144.5826  157.1492 H   0  0  0  0  0  0  0  0  0  0  0  0
  1  2  1  0  0  0  0
  1 12  1  0  0  0  0
  1 13  1  0  0  0  0
  1 14  1  0  0  0  0
  2  6  1  0  0  0  0
  2  3  1  0  0  0  0
  3  4  2  0  0  0  0
  3 15  1  0  0  0  0
  4  5  1  0  0  0  0
  4 16  1  0  0  0  0
  5  6  2  0  0  0  0
  5 26  1  0  0  0  0
  6  7  1  0  0  0  0
  7 11  1  0  0  0  0
  7  8  1  0  0  0  0
  7 17  1  0  0  0  0
  8  9  1  0  0  0  0
  8 18  1  0  0  0  0
  8 19  1  0  0  0  0
  9 10  1  0  0  0  0
  9 20  1  0  0  0  0
  9 21  1  0  0  0  0
 10 11  1  0  0  0  0
 10 22  1  0  0  0  0
 10 25  1  0  0  0  0
 11 23  1  0  0  0  0
 11 24  1  0  0  0  0
M  CHG  1   5   1
M  CHG  1  10   1
M  END
> <s_m_source_file>
AV-unprocessed.smi

> <i_m_source_file_index>
3092

> <i_lp_mmshare_version>
43012

> <i_f3d_flags>
0

> <s_epik_input>
W0NIM11uMVtjSF1bY0hdbmMxW0NAQEhdMltDSDJdW0NIMl1bTkhdW0NIMl0y

> <s_epik_cmdline>
J2VwaWtfcHl0aG9uJywgJy1waCcsICc3LjAnLCAnLXRuJywgJzgnLCAnLW1hJywgJzIwMCcsICctbWV0YWxfYmluZGluZycsICctaW1hZScsICc8aW5maWxlLm1hZT4nLCAnLW9tYWUnLCAnPG91dGZpbGUubWFlPic=

> <r_lp_tautomer_probability>
1

> <r_epik_Ionization_Penalty>
0.803493

> <r_epik_Ionization_Penalty_Charging>
0.000689375

> <r_epik_Ionization_Penalty_Neutral>
0.802804

> <r_epik_State_Penalty>
0.834355

> <r_epik_Charging_Adjusted_Penalty>
0.835044

> <i_epik_Tot_Q>
2

> <i_epik_Tot_abs_Q>
2

> <r_epik_Metal_State_Penalty>
4.76097

> <b_epik_Metal_Only>
0

> <s_lp_Force_Field>
OPLS_2005

> <r_lp_Energy>
35.9538

> <b_lp_Chiralities_Consistent>
1

> <s_lp_Variant>
AV-unprocessed.smi:3092-3

> <Gold.Version>
5.8.1

> <Gold.Id.Protein>
6NUR|6NUR_protein|mol2

> <Gold.PLP.Fitness>
32.8444

> <Gold.PLP.PLP>
-26.8499

> <Gold.PLP.part.hbond>
-1.0000

> <Gold.PLP.part.metal>
0.0000

> <Gold.PLP.part.buried>
-4.0798

> <Gold.PLP.part.nonpolar>
-21.1037

> <Gold.PLP.part.repulsive>
0.0626

> <Gold.PLP.ligand.clash>
0.0000

> <Gold.PLP.ligand.torsion>
0.0040

> <Gold.PLP.Chemscore.Hbond>
2.0000

> <Gold.PLP.Chemscore.CHOScore>
0.0000

> <Gold.PLP.Chemscore.Metal>
0.0000

> <Gold.Chemscore.Hbonds>
donor molecule, donor type, donor heavy atom, donor atom, acceptor molecule, acceptor atom, score
      L1  H     5    26       P1  8028  2.00

> <Gold.PLP.Chemscore.Internal.Correction>
0.0025

> <Gold.Rescore>
     Score         DG    S(hbond)    S(metal)    S(lipo)     H(rot)  DE(clash)    DE(int)     intcor
     12.50     -13.08       0.92        0.00      60.68       1.00       0.58       0.00       ----

> <Gold.Chemscore.Fitness>
12.4972

> <Gold.Chemscore.DG>
-13.0828

> <Gold.Chemscore.ZeroCoef>
-5.4800

> <Gold.Chemscore.Hbond>
0.9172

> <Gold.Chemscore.Metal>
0.0000

> <Gold.Chemscore.Lipo>
60.6787

> <Gold.Chemscore.Internal_Hbond>
0.0000

> <Gold.Chemscore.DEClash>
0.5832

> <Gold.Chemscore.DEInternal>
0.0024

> <Gold.Chemscore.Rot>
1.0000

> <Gold.Chemscore.Internal.Correction>
   9.000000E+99

> <Gold.Chemscore.Hbonds>
donor molecule, donor type, donor heavy atom, donor atom, acceptor molecule, acceptor atom, score
      L1  H     5    26       P1  8028  0.53

> <Gold.Chemscore.Hbond.Weighted>
-3.0633

> <Gold.Chemscore.Metal.Weighted>
-0.0000

> <Gold.Chemscore.Lipo.Weighted>
-7.0994

> <Gold.Chemscore.Internal_Hbond.Weighted>
0.0000

> <Gold.Chemscore.DEClash.Weighted>
0.5832

> <Gold.Chemscore.DEInternal.Weighted>
0.0024

> <Gold.Chemscore.Rot.Weighted>
2.5600

> <Gold.Chemscore.Internal.Correction.Weighted>
   9.000000E+99

> <Gold.Protein.RotatedTorsions>
[ 6907 6896 6895 6894 ] final   69.16 input  -60.11 | X-H torsion
[ 7974 7965 7964 7962 ] final -124.50 input  175.53 | X-H torsion
[ 8008 7997 7996 7995 ] final -146.65 input   59.86 | X-H torsion
[ 10167 10162 10161 10158 ] final -120.32 input  -65.29 | X-H torsion
[ 10718 10713 10712 10709 ] final   90.43 input   66.30 | X-H torsion
[ 10763 10752 10751 10750 ] final -162.89 input  -60.55 | X-H torsion
[ 11005 11000 10999 10996 ] final  107.98 input  -57.11 | X-H torsion

> <Gold.Protein.ActiveResidues>
 VAL166  LYS551  ARG553  GLY616  TRP617  ASP618  TYR619  PRO620  LYS621  CYS622 
 ASP623  PHE694  ASN695  SER759  ASP760  ASP761  ALA762  ILE779  LEU786  VAL792 
 PHE793  MET794  SER795  GLU796  ALA797  LYS798  CYS799  TRP800  GLU811  SER814 

> <Gold.Protein.RotatedAtoms>
  152.4668  134.5057  159.9738 H   0  0  0  0  0  0  0  0  0  0  0  0  # atno 6907 bound_to 6896
  151.5093  133.3482  159.2890 H   0  0  0  0  0  0  0  0  0  0  0  0  # atno 6908 bound_to 6896
  150.8656  134.8047  159.7178 H   0  0  0  0  0  0  0  0  0  0  0  0  # atno 6909 bound_to 6896
  145.0074  140.7875  143.4459 H   0  0  0  0  0  0  0  0  0  0  0  0  # atno 7974 bound_to 7965
  155.5629  140.0627  157.2825 H   0  0  0  0  0  0  0  0  0  0  0  0  # atno 8008 bound_to 7997
  154.4385  140.1882  156.0846 H   0  0  0  0  0  0  0  0  0  0  0  0  # atno 8009 bound_to 7997
  156.0434  140.3293  155.7272 H   0  0  0  0  0  0  0  0  0  0  0  0  # atno 8010 bound_to 7997
  140.0371  143.5190  152.2148 H   0  0  0  0  0  0  0  0  0  0  0  0  # atno 10167 bound_to 10162
  157.6959  131.0370  150.3576 H   0  0  0  0  0  0  0  0  0  0  0  0  # atno 10718 bound_to 10713
  154.7173  135.3018  154.9104 H   0  0  0  0  0  0  0  0  0  0  0  0  # atno 10763 bound_to 10752
  153.9987  135.6709  153.4762 H   0  0  0  0  0  0  0  0  0  0  0  0  # atno 10764 bound_to 10752
  153.0804  135.5012  154.8407 H   0  0  0  0  0  0  0  0  0  0  0  0  # atno 10765 bound_to 10752
  139.8836  134.9417  156.5903 H   0  0  0  0  0  0  0  0  0  0  0  0  # atno 11005 bound_to 11000
  145.2070  139.2223  143.5163 LP  0  0  0  0  0  0  0  0  0  0  0  0  # atno 17320 bound_to 7965
  146.3463  140.1900  142.8589 LP  0  0  0  0  0  0  0  0  0  0  0  0  # atno 17321 bound_to 7965
  139.6038  144.7590  151.3110 LP  0  0  0  0  0  0  0  0  0  0  0  0  # atno 17342 bound_to 10162
  140.7276  143.6957  150.7885 LP  0  0  0  0  0  0  0  0  0  0  0  0  # atno 17343 bound_to 10162
  156.4016  130.3917  149.6955 LP  0  0  0  0  0  0  0  0  0  0  0  0  # atno 17370 bound_to 10713
  156.4270  130.7797  151.2815 LP  0  0  0  0  0  0  0  0  0  0  0  0  # atno 17371 bound_to 10713
  140.7961  133.8543  155.8686 LP  0  0  0  0  0  0  0  0  0  0  0  0  # atno 17394 bound_to 11000
  140.9634  134.1625  157.4635 LP  0  0  0  0  0  0  0  0  0  0  0  0  # atno 17395 bound_to 11000

$$$$
