AV-unprocessed.smi:1601|AV-procd|sdf|6435|dock5
  -GOLD-   22720 7 83D 1   1.00000     0.00000
 Structure written by MMmdl.
 42 43  0  0  0  0  0  0  0  0  2 V2000
  149.5623  132.4093  154.7686 C   0  0  0  0  0  0  0  0  0  0  0  0
  149.7074  133.8321  154.1746 C   0  0  2  0  0  0  0  0  0  0  0  0
  150.2458  134.8225  155.2457 C   0  0  0  0  0  0  0  0  0  0  0  0
  150.7221  136.0836  154.6821 N   0  0  0  0  0  0  0  0  0  0  0  0
  151.1513  137.1427  155.3886 C   0  0  0  0  0  0  0  0  0  0  0  0
  151.2224  137.1452  156.6181 O   0  0  0  0  0  0  0  0  0  0  0  0
  151.5710  138.3771  154.5731 C   0  0  2  0  0  0  0  0  0  0  0  0
  153.0927  138.6271  154.6002 C   0  0  0  0  0  0  0  0  0  0  0  0
  150.8176  139.5512  154.9982 N   0  0  0  0  0  0  0  0  0  0  0  0
  149.8019  140.1983  154.3237 C   0  0  0  0  0  0  0  0  0  0  0  0
  149.3728  141.2257  155.1141 C   0  0  0  0  0  0  0  0  0  0  0  0
  150.1896  141.1232  156.2742 C   0  0  0  0  0  0  0  0  0  0  0  0
  151.0475  140.1188  156.2055 N   0  0  0  0  0  0  0  0  0  0  0  0
  148.4184  134.3022  153.5618 N   0  3  0  0  0  0  0  0  0  0  0  0
  147.7612  133.3017  152.6732 C   0  0  0  0  0  0  0  0  0  0  0  0
  146.4527  133.8465  152.0752 C   0  0  0  0  0  0  0  0  0  0  0  0
  145.5766  134.2444  153.1170 O   0  0  0  0  0  0  0  0  0  0  0  0
  146.1409  135.2930  153.8870 C   0  0  0  0  0  0  0  0  0  0  0  0
  147.4326  134.8023  154.5619 C   0  0  0  0  0  0  0  0  0  0  0  0
  150.4790  132.0689  155.2482 H   0  0  0  0  0  0  0  0  0  0  0  0
  149.3525  131.6578  154.0097 H   0  0  0  0  0  0  0  0  0  0  0  0
  148.7682  132.3716  155.5148 H   0  0  0  0  0  0  0  0  0  0  0  0
  150.4491  133.7831  153.3756 H   0  0  0  0  0  0  0  0  0  0  0  0
  149.4535  135.1163  155.9326 H   0  0  0  0  0  0  0  0  0  0  0  0
  151.0170  134.3426  155.8508 H   0  0  0  0  0  0  0  0  0  0  0  0
  150.7007  136.1682  153.6760 H   0  0  0  0  0  0  0  0  0  0  0  0
  151.2992  138.1796  153.5348 H   0  0  0  0  0  0  0  0  0  0  0  0
  153.6411  137.7606  154.2291 H   0  0  0  0  0  0  0  0  0  0  0  0
  153.4558  138.8419  155.6063 H   0  0  0  0  0  0  0  0  0  0  0  0
  153.3567  139.4749  153.9675 H   0  0  0  0  0  0  0  0  0  0  0  0
  149.4718  139.8779  153.3465 H   0  0  0  0  0  0  0  0  0  0  0  0
  148.5922  141.9396  154.8974 H   0  0  0  0  0  0  0  0  0  0  0  0
  150.1826  141.7419  157.1595 H   0  0  0  0  0  0  0  0  0  0  0  0
  148.4041  133.0393  151.8348 H   0  0  0  0  0  0  0  0  0  0  0  0
  147.5640  132.3870  153.2344 H   0  0  0  0  0  0  0  0  0  0  0  0
  146.6492  134.6851  151.4050 H   0  0  0  0  0  0  0  0  0  0  0  0
  145.9637  133.0745  151.4809 H   0  0  0  0  0  0  0  0  0  0  0  0
  146.3343  136.1639  153.2582 H   0  0  0  0  0  0  0  0  0  0  0  0
  145.4182  135.6023  154.6424 H   0  0  0  0  0  0  0  0  0  0  0  0
  147.2014  134.0095  155.2751 H   0  0  0  0  0  0  0  0  0  0  0  0
  147.8342  135.6395  155.1289 H   0  0  0  0  0  0  0  0  0  0  0  0
  148.6539  135.0887  152.9731 H   0  0  0  0  0  0  0  0  0  0  0  0
  1  2  1  0  0  0  0
  1 20  1  0  0  0  0
  1 21  1  0  0  0  0
  1 22  1  0  0  0  0
  2  3  1  0  0  0  0
  2 14  1  0  0  0  0
  2 23  1  0  0  0  0
  3  4  1  0  0  0  0
  3 24  1  0  0  0  0
  3 25  1  0  0  0  0
  4  5  1  0  0  0  0
  4 26  1  0  0  0  0
  5  6  2  0  0  0  0
  5  7  1  0  0  0  0
  7  8  1  0  0  0  0
  7  9  1  0  0  0  0
  7 27  1  0  0  0  0
  8 28  1  0  0  0  0
  8 29  1  0  0  0  0
  8 30  1  0  0  0  0
  9 13  1  0  0  0  0
  9 10  1  0  0  0  0
 10 11  2  0  0  0  0
 10 31  1  0  0  0  0
 11 12  1  0  0  0  0
 11 32  1  0  0  0  0
 12 13  2  0  0  0  0
 12 33  1  0  0  0  0
 14 19  1  0  0  0  0
 14 15  1  0  0  0  0
 14 42  1  0  0  0  0
 15 16  1  0  0  0  0
 15 34  1  0  0  0  0
 15 35  1  0  0  0  0
 16 17  1  0  0  0  0
 16 36  1  0  0  0  0
 16 37  1  0  0  0  0
 17 18  1  0  0  0  0
 18 19  1  0  0  0  0
 18 38  1  0  0  0  0
 18 39  1  0  0  0  0
 19 40  1  0  0  0  0
 19 41  1  0  0  0  0
M  CHG  1  14   1
M  END
> <s_m_source_file>
AV-unprocessed.smi

> <i_m_source_file_index>
1601

> <i_lp_mmshare_version>
43012

> <i_f3d_flags>
0

> <s_epik_input>
W0NIMl0xW0NIMl1PW0NIMl1bQ0gyXU4xW0NASF0oW0NIM10pW0NIMl1bTkhdQyg9TylbQ0BIXShbQ0gzXSluMltjSF1bY0hdW2NIXW4y

> <s_epik_cmdline>
J2VwaWtfcHl0aG9uJywgJy1waCcsICc3LjAnLCAnLXRuJywgJzgnLCAnLW1hJywgJzIwMCcsICctbWV0YWxfYmluZGluZycsICctaW1hZScsICc8aW5maWxlLm1hZT4nLCAnLW9tYWUnLCAnPG91dGZpbGUubWFlPic=

> <r_lp_tautomer_probability>
1

> <r_epik_Ionization_Penalty>
0.732551

> <r_epik_Ionization_Penalty_Charging>
0.732531

> <r_epik_Ionization_Penalty_Neutral>
2.04647e-05

> <r_epik_State_Penalty>
0.757939

> <r_epik_Charging_Adjusted_Penalty>
1.49047

> <i_epik_Tot_Q>
1

> <i_epik_Tot_abs_Q>
1

> <r_epik_Metal_State_Penalty>
0.757952

> <b_epik_Metal_Only>
0

> <s_lp_Force_Field>
OPLS_2005

> <r_lp_Energy>
26.1921

> <b_lp_Chiralities_Consistent>
1

> <s_lp_Variant>
AV-unprocessed.smi:1601-5

> <Gold.Version>
5.8.1

> <Gold.Id.Protein>
6NUR|6NUR_protein|mol2

> <Gold.PLP.Fitness>
41.4995

> <Gold.PLP.PLP>
-32.1636

> <Gold.PLP.part.hbond>
-1.9880

> <Gold.PLP.part.metal>
0.0000

> <Gold.PLP.part.buried>
-1.1731

> <Gold.PLP.part.nonpolar>
-26.4921

> <Gold.PLP.part.repulsive>
0.1883

> <Gold.PLP.ligand.clash>
0.0000

> <Gold.PLP.ligand.torsion>
0.5359

> <Gold.PLP.Chemscore.Hbond>
2.4193

> <Gold.PLP.Chemscore.CHOScore>
1.0000

> <Gold.PLP.Chemscore.Metal>
0.0000

> <Gold.Chemscore.Hbonds>
donor molecule, donor type, donor heavy atom, donor atom, acceptor molecule, acceptor atom, score
      L1  H     4    26       P1  7949  0.29
      L1  H    14    42       P1  7948  2.00
      L1  C    10    31       P1  7957  1.00

> <Gold.PLP.Chemscore.Internal.Correction>
0.1499

> <Gold.Rescore>
     Score         DG    S(hbond)    S(metal)    S(lipo)     H(rot)  DE(clash)    DE(int)     intcor
     10.24     -11.87       0.94        0.00      68.41       1.86       0.08       1.55       ----

> <Gold.Chemscore.Fitness>
10.2441

> <Gold.Chemscore.DG>
-11.8658

> <Gold.Chemscore.ZeroCoef>
-5.4800

> <Gold.Chemscore.Hbond>
0.9435

> <Gold.Chemscore.Metal>
0.0000

> <Gold.Chemscore.Lipo>
68.4111

> <Gold.Chemscore.Internal_Hbond>
0.0000

> <Gold.Chemscore.DEClash>
0.0751

> <Gold.Chemscore.DEInternal>
1.5466

> <Gold.Chemscore.Rot>
1.8631

> <Gold.Chemscore.Internal.Correction>
   9.000000E+99

> <Gold.Chemscore.Hbonds>
donor molecule, donor type, donor heavy atom, donor atom, acceptor molecule, acceptor atom, score
      L1  H     4    26       P1  7949  0.02
      L1  H    14    42       P1  7948  0.54

> <Gold.Chemscore.Hbond.Weighted>
-3.1514

> <Gold.Chemscore.Metal.Weighted>
-0.0000

> <Gold.Chemscore.Lipo.Weighted>
-8.0041

> <Gold.Chemscore.Internal_Hbond.Weighted>
0.0000

> <Gold.Chemscore.DEClash.Weighted>
0.0751

> <Gold.Chemscore.DEInternal.Weighted>
1.5466

> <Gold.Chemscore.Rot.Weighted>
4.7697

> <Gold.Chemscore.Internal.Correction.Weighted>
   9.000000E+99

> <Gold.Protein.RotatedTorsions>
[ 6907 6896 6895 6894 ] final   38.53 input  -60.11 | X-H torsion
[ 7974 7965 7964 7962 ] final  -70.80 input  175.53 | X-H torsion
[ 8008 7997 7996 7995 ] final -116.57 input   59.86 | X-H torsion
[ 10167 10162 10161 10158 ] final  169.43 input  -65.29 | X-H torsion
[ 10718 10713 10712 10709 ] final  170.05 input   66.30 | X-H torsion
[ 10763 10752 10751 10750 ] final   22.34 input  -60.55 | X-H torsion
[ 11005 11000 10999 10996 ] final  146.84 input  -57.11 | X-H torsion

> <Gold.Protein.ActiveResidues>
 VAL166  LYS551  ARG553  GLY616  TRP617  ASP618  TYR619  PRO620  LYS621  CYS622 
 ASP623  PHE694  ASN695  SER759  ASP760  ASP761  ALA762  ILE779  LEU786  VAL792 
 PHE793  MET794  SER795  GLU796  ALA797  LYS798  CYS799  TRP800  GLU811  SER814 

> <Gold.Protein.RotatedAtoms>
  152.1577  134.8937  160.0543 H   0  0  0  0  0  0  0  0  0  0  0  0  # atno 6907 bound_to 6896
  151.9945  133.3798  159.4165 H   0  0  0  0  0  0  0  0  0  0  0  0  # atno 6908 bound_to 6896
  150.6883  134.3823  159.5083 H   0  0  0  0  0  0  0  0  0  0  0  0  # atno 6909 bound_to 6896
  145.6863  140.9170  143.0805 H   0  0  0  0  0  0  0  0  0  0  0  0  # atno 7974 bound_to 7965
  155.0700  140.0393  157.2605 H   0  0  0  0  0  0  0  0  0  0  0  0  # atno 8008 bound_to 7997
  154.6990  140.2669  155.6713 H   0  0  0  0  0  0  0  0  0  0  0  0  # atno 8009 bound_to 7997
  156.2754  140.2744  156.1595 H   0  0  0  0  0  0  0  0  0  0  0  0  # atno 8010 bound_to 7997
  139.4992  144.3706  151.9728 H   0  0  0  0  0  0  0  0  0  0  0  0  # atno 10167 bound_to 10162
  157.0138  131.0212  151.2795 H   0  0  0  0  0  0  0  0  0  0  0  0  # atno 10718 bound_to 10713
  153.0923  135.6650  153.9829 H   0  0  0  0  0  0  0  0  0  0  0  0  # atno 10763 bound_to 10752
  153.9423  135.2992  155.3443 H   0  0  0  0  0  0  0  0  0  0  0  0  # atno 10764 bound_to 10752
  154.7339  135.5110  153.9083 H   0  0  0  0  0  0  0  0  0  0  0  0  # atno 10765 bound_to 10752
  140.0826  134.9088  157.1525 H   0  0  0  0  0  0  0  0  0  0  0  0  # atno 11005 bound_to 11000
  144.7010  139.8762  143.7444 LP  0  0  0  0  0  0  0  0  0  0  0  0  # atno 17320 bound_to 7965
  146.0921  139.3911  143.0399 LP  0  0  0  0  0  0  0  0  0  0  0  0  # atno 17321 bound_to 7965
  140.3143  144.3502  150.6026 LP  0  0  0  0  0  0  0  0  0  0  0  0  # atno 17342 bound_to 10162
  140.5774  143.2175  151.7490 LP  0  0  0  0  0  0  0  0  0  0  0  0  # atno 17343 bound_to 10162
  157.5300  130.8053  149.7906 LP  0  0  0  0  0  0  0  0  0  0  0  0  # atno 17370 bound_to 10713
  156.0126  130.3826  150.2213 LP  0  0  0  0  0  0  0  0  0  0  0  0  # atno 17371 bound_to 10713
  140.3465  134.2646  155.7204 LP  0  0  0  0  0  0  0  0  0  0  0  0  # atno 17394 bound_to 11000
  141.2052  133.7866  157.0246 LP  0  0  0  0  0  0  0  0  0  0  0  0  # atno 17395 bound_to 11000

$$$$
