AV-unprocessed.smi:148|AV-procd|sdf|1207|dock9
  -GOLD-   2262018373D 1   1.00000     0.00000
 Structure written by MMmdl.
 63 67  0  0  0  0  0  0  0  0  1 V2000
  149.2240  143.9686  158.7933 O   0  0  0  0  0  0  0  0  0  0  0  0
  150.5943  144.1427  159.0908 C   0  0  0  0  0  0  0  0  0  0  0  0
  151.3982  142.8266  158.9271 C   0  0  1  0  0  0  0  0  0  0  0  0
  151.8027  142.5662  157.4503 C   0  0  0  0  0  0  0  0  0  0  0  0
  150.8643  141.7266  156.7287 N   0  0  0  0  0  0  0  0  0  0  0  0
  149.5001  141.8915  156.6417 C   0  0  0  0  0  0  0  0  0  0  0  0
  148.8736  140.9811  155.9470 N   0  0  0  0  0  0  0  0  0  0  0  0
  149.8850  140.1303  155.5170 C   0  0  0  0  0  0  0  0  0  0  0  0
  149.9191  138.9289  154.7545 C   0  0  0  0  0  0  0  0  0  0  0  0
  148.8317  138.3077  154.2501 N   0  0  0  0  0  0  0  0  0  0  0  0
  148.0236  139.2788  153.5101 C   0  0  0  0  0  0  0  0  0  0  0  0
  146.9451  138.5863  152.6715 C   0  0  0  0  0  0  0  0  0  0  0  0
  146.0815  137.6985  153.5681 C   0  0  0  0  0  0  0  0  0  0  0  0
  146.9677  136.7032  154.3276 C   0  0  0  0  0  0  0  0  0  0  0  0
  148.0894  137.3974  155.1490 C   0  0  1  0  0  0  0  0  0  0  0  0
  148.9885  136.3216  155.8549 C   0  0  1  0  0  0  0  0  0  0  0  0
  148.2724  135.1061  156.4852 C   0  0  0  0  0  0  0  0  0  0  0  0
  149.2924  133.9606  156.5502 C   0  0  0  0  0  0  0  0  0  0  0  0
  150.5283  134.4480  155.7899 C   0  0  0  0  0  0  0  0  0  0  0  0
  150.0462  135.6392  154.9610 C   0  0  1  0  0  0  0  0  0  0  0  0
  149.4708  135.1491  153.7627 O   0  0  0  0  0  0  0  0  0  0  0  0
  151.1259  138.3619  154.5083 N   0  0  0  0  0  0  0  0  0  0  0  0
  152.2363  138.9191  155.0015 C   0  0  0  0  0  0  0  0  0  0  0  0
  152.3586  140.0179  155.7499 N   0  0  0  0  0  0  0  0  0  0  0  0
  151.1452  140.5957  155.9845 C   0  0  0  0  0  0  0  0  0  0  0  0
  152.6553  142.8114  159.8367 C   0  0  2  0  0  0  0  0  0  0  0  0
  153.4151  141.4848  159.8463 C   0  0  0  0  0  0  0  0  0  0  0  0
  153.9434  141.3392  161.2767 C   0  0  0  0  0  0  0  0  0  0  0  0
  153.5686  142.5342  161.9438 O   0  0  0  0  0  0  0  0  0  0  0  0
  152.3856  143.0139  161.3304 C   0  0  0  0  0  0  0  0  0  0  0  0
  148.8481  144.8142  158.6010 H   0  0  0  0  0  0  0  0  0  0  0  0
  151.0085  144.9311  158.4615 H   0  0  0  0  0  0  0  0  0  0  0  0
  150.6322  144.5087  160.1150 H   0  0  0  0  0  0  0  0  0  0  0  0
  150.7604  142.0049  159.2571 H   0  0  0  0  0  0  0  0  0  0  0  0
  151.9021  143.5123  156.9166 H   0  0  0  0  0  0  0  0  0  0  0  0
  152.7760  142.0792  157.3923 H   0  0  0  0  0  0  0  0  0  0  0  0
  148.9790  142.7041  157.1264 H   0  0  0  0  0  0  0  0  0  0  0  0
  147.5521  139.9696  154.2104 H   0  0  0  0  0  0  0  0  0  0  0  0
  148.6599  139.8766  152.8552 H   0  0  0  0  0  0  0  0  0  0  0  0
  146.3259  139.3289  152.1677 H   0  0  0  0  0  0  0  0  0  0  0  0
  147.4129  137.9848  151.8912 H   0  0  0  0  0  0  0  0  0  0  0  0
  145.5258  138.3143  154.2763 H   0  0  0  0  0  0  0  0  0  0  0  0
  145.3431  137.1641  152.9695 H   0  0  0  0  0  0  0  0  0  0  0  0
  146.3203  136.1094  154.9710 H   0  0  0  0  0  0  0  0  0  0  0  0
  147.4152  136.0073  153.6166 H   0  0  0  0  0  0  0  0  0  0  0  0
  147.6088  138.0049  155.9169 H   0  0  0  0  0  0  0  0  0  0  0  0
  149.5369  136.8250  156.6534 H   0  0  0  0  0  0  0  0  0  0  0  0
  147.8832  135.3179  157.4801 H   0  0  0  0  0  0  0  0  0  0  0  0
  147.4324  134.8003  155.8607 H   0  0  0  0  0  0  0  0  0  0  0  0
  149.5457  133.7064  157.5800 H   0  0  0  0  0  0  0  0  0  0  0  0
  148.8785  133.0650  156.0853 H   0  0  0  0  0  0  0  0  0  0  0  0
  151.2752  134.7912  156.5073 H   0  0  0  0  0  0  0  0  0  0  0  0
  150.9929  133.6646  155.1896 H   0  0  0  0  0  0  0  0  0  0  0  0
  150.8744  136.3047  154.7148 H   0  0  0  0  0  0  0  0  0  0  0  0
  149.4976  135.8373  153.1156 H   0  0  0  0  0  0  0  0  0  0  0  0
  153.1582  138.4068  154.7693 H   0  0  0  0  0  0  0  0  0  0  0  0
  153.3424  143.5950  159.5132 H   0  0  0  0  0  0  0  0  0  0  0  0
  152.7580  140.6451  159.6150 H   0  0  0  0  0  0  0  0  0  0  0  0
  154.2226  141.4859  159.1136 H   0  0  0  0  0  0  0  0  0  0  0  0
  153.4772  140.4867  161.7726 H   0  0  0  0  0  0  0  0  0  0  0  0
  155.0243  141.2027  161.3106 H   0  0  0  0  0  0  0  0  0  0  0  0
  152.2144  144.0569  161.5973 H   0  0  0  0  0  0  0  0  0  0  0  0
  151.5309  142.4238  161.6659 H   0  0  0  0  0  0  0  0  0  0  0  0
  1  2  1  0  0  0  0
  1 31  1  0  0  0  0
  2  3  1  0  0  0  0
  2 32  1  0  0  0  0
  2 33  1  0  0  0  0
  3  4  1  0  0  0  0
  3 26  1  0  0  0  0
  3 34  1  0  0  0  0
  4  5  1  0  0  0  0
  4 35  1  0  0  0  0
  4 36  1  0  0  0  0
  5 25  1  0  0  0  0
  5  6  1  0  0  0  0
  6  7  2  0  0  0  0
  6 37  1  0  0  0  0
  7  8  1  0  0  0  0
  8 25  2  0  0  0  0
  8  9  1  0  0  0  0
  9 10  1  0  0  0  0
  9 22  2  0  0  0  0
 10 15  1  0  0  0  0
 10 11  1  0  0  0  0
 11 12  1  0  0  0  0
 11 38  1  0  0  0  0
 11 39  1  0  0  0  0
 12 13  1  0  0  0  0
 12 40  1  0  0  0  0
 12 41  1  0  0  0  0
 13 14  1  0  0  0  0
 13 42  1  0  0  0  0
 13 43  1  0  0  0  0
 14 15  1  0  0  0  0
 14 44  1  0  0  0  0
 14 45  1  0  0  0  0
 15 16  1  0  0  0  0
 15 46  1  0  0  0  0
 16 20  1  0  0  0  0
 16 17  1  0  0  0  0
 16 47  1  0  0  0  0
 17 18  1  0  0  0  0
 17 48  1  0  0  0  0
 17 49  1  0  0  0  0
 18 19  1  0  0  0  0
 18 50  1  0  0  0  0
 18 51  1  0  0  0  0
 19 20  1  0  0  0  0
 19 52  1  0  0  0  0
 19 53  1  0  0  0  0
 20 21  1  0  0  0  0
 20 54  1  0  0  0  0
 21 55  1  0  0  0  0
 22 23  1  0  0  0  0
 23 24  2  0  0  0  0
 23 56  1  0  0  0  0
 24 25  1  0  0  0  0
 26 30  1  0  0  0  0
 26 27  1  0  0  0  0
 26 57  1  0  0  0  0
 27 28  1  0  0  0  0
 27 58  1  0  0  0  0
 27 59  1  0  0  0  0
 28 29  1  0  0  0  0
 28 60  1  0  0  0  0
 28 61  1  0  0  0  0
 29 30  1  0  0  0  0
 30 62  1  0  0  0  0
 30 63  1  0  0  0  0
M  END
> <s_m_source_file>
AV-unprocessed.smi

> <i_m_source_file_index>
148

> <i_lp_mmshare_version>
43012

> <i_f3d_flags>
0

> <s_epik_input>
W0NIMl0xT1tDSDJdW0NIMl1bQ0BIXTFbQ0BIXShbQ0gyXVtPSF0pW0NIMl1uKFtjSF1uMiljKGMyMyluW2NIXW5jM040W0NIMl1bQ0gyXVtDSDJdW0NIMl1bQ0BIXTRbQ0BASF01W0NIMl1bQ0gyXVtDSDJdW0NASF01W09IXQ==

> <s_epik_cmdline>
J2VwaWtfcHl0aG9uJywgJy1waCcsICc3LjAnLCAnLXRuJywgJzgnLCAnLW1hJywgJzIwMCcsICctbWV0YWxfYmluZGluZycsICctaW1hZScsICc8aW5maWxlLm1hZT4nLCAnLW9tYWUnLCAnPG91dGZpbGUubWFlPic=

> <r_lp_tautomer_probability>
1

> <r_epik_Ionization_Penalty>
0.00556303

> <r_epik_Ionization_Penalty_Charging>
0

> <r_epik_Ionization_Penalty_Neutral>
0.00556303

> <r_epik_State_Penalty>
0.00401767

> <r_epik_Charging_Adjusted_Penalty>
0.00401767

> <i_epik_Tot_Q>
0

> <i_epik_Tot_abs_Q>
0

> <r_epik_Metal_State_Penalty>
-0

> <b_epik_Metal_Only>
0

> <s_lp_Force_Field>
OPLS_2005

> <r_lp_Energy>
70.4735

> <b_lp_Chiralities_Consistent>
1

> <s_lp_Variant>
AV-unprocessed.smi:148-6

> <Gold.Version>
5.8.1

> <Gold.Id.Protein>
6NUR|6NUR_protein|mol2

> <Gold.PLP.Fitness>
51.6488

> <Gold.PLP.PLP>
-43.0504

> <Gold.PLP.part.hbond>
-4.0000

> <Gold.PLP.part.metal>
0.0000

> <Gold.PLP.part.buried>
-1.2228

> <Gold.PLP.part.nonpolar>
-37.6938

> <Gold.PLP.part.repulsive>
0.4430

> <Gold.PLP.ligand.clash>
0.0019

> <Gold.PLP.ligand.torsion>
1.5768

> <Gold.PLP.Chemscore.Hbond>
2.9520

> <Gold.PLP.Chemscore.CHOScore>
0.7994

> <Gold.PLP.Chemscore.Metal>
0.0000

> <Gold.Chemscore.Hbonds>
donor molecule, donor type, donor heavy atom, donor atom, acceptor molecule, acceptor atom, score
      L1  H     1    31       P1  8029  0.93
      L1  H    21    55       P1  7948  0.43
      P1  H  7997  8009       L1    24  0.98
      L1  C     6    37       P1  8028  0.64

> <Gold.PLP.Chemscore.Internal.Correction>
0.4997

> <Gold.Rescore>
     Score         DG    S(hbond)    S(metal)    S(lipo)     H(rot)  DE(clash)    DE(int)     intcor
      9.92     -14.26       1.75        0.00      97.68       3.32       0.60       3.74       ----

> <Gold.Chemscore.Fitness>
9.9196

> <Gold.Chemscore.DG>
-14.2551

> <Gold.Chemscore.ZeroCoef>
-5.4800

> <Gold.Chemscore.Hbond>
1.7506

> <Gold.Chemscore.Metal>
0.0000

> <Gold.Chemscore.Lipo>
97.6774

> <Gold.Chemscore.Internal_Hbond>
0.0000

> <Gold.Chemscore.DEClash>
0.5977

> <Gold.Chemscore.DEInternal>
3.7378

> <Gold.Chemscore.Rot>
3.3203

> <Gold.Chemscore.Internal.Correction>
   9.000000E+99

> <Gold.Chemscore.Hbonds>
donor molecule, donor type, donor heavy atom, donor atom, acceptor molecule, acceptor atom, score
      L1  H     1    31       P1  8029  0.80
      L1  H    21    55       P1  7948  0.06
      P1  H  7997  8009       L1    24  0.50

> <Gold.Chemscore.Hbond.Weighted>
-5.8469

> <Gold.Chemscore.Metal.Weighted>
-0.0000

> <Gold.Chemscore.Lipo.Weighted>
-11.4283

> <Gold.Chemscore.Internal_Hbond.Weighted>
0.0000

> <Gold.Chemscore.DEClash.Weighted>
0.5977

> <Gold.Chemscore.DEInternal.Weighted>
3.7378

> <Gold.Chemscore.Rot.Weighted>
8.5000

> <Gold.Chemscore.Internal.Correction.Weighted>
   9.000000E+99

> <Gold.Protein.RotatedTorsions>
[ 6907 6896 6895 6894 ] final   69.90 input  -60.11 | X-H torsion
[ 7974 7965 7964 7962 ] final  106.32 input  175.53 | X-H torsion
[ 8008 7997 7996 7995 ] final -156.96 input   59.86 | X-H torsion
[ 10167 10162 10161 10158 ] final -127.47 input  -65.29 | X-H torsion
[ 10718 10713 10712 10709 ] final  -43.05 input   66.30 | X-H torsion
[ 10763 10752 10751 10750 ] final -123.25 input  -60.55 | X-H torsion
[ 11005 11000 10999 10996 ] final  117.15 input  -57.11 | X-H torsion

> <Gold.Protein.ActiveResidues>
 VAL166  LYS551  ARG553  GLY616  TRP617  ASP618  TYR619  PRO620  LYS621  CYS622 
 ASP623  PHE694  ASN695  SER759  ASP760  ASP761  ALA762  ILE779  LEU786  VAL792 
 PHE793  MET794  SER795  GLU796  ALA797  LYS798  CYS799  TRP800  GLU811  SER814 

> <Gold.Protein.RotatedAtoms>
  152.4715  134.4948  159.9706 H   0  0  0  0  0  0  0  0  0  0  0  0  # atno 6907 bound_to 6896
  151.4973  133.3506  159.2871 H   0  0  0  0  0  0  0  0  0  0  0  0  # atno 6908 bound_to 6896
  150.8728  134.8133  159.7229 H   0  0  0  0  0  0  0  0  0  0  0  0  # atno 6909 bound_to 6896
  145.3082  139.2548  143.3777 H   0  0  0  0  0  0  0  0  0  0  0  0  # atno 7974 bound_to 7965
  155.7251  140.0795  157.2313 H   0  0  0  0  0  0  0  0  0  0  0  0  # atno 8008 bound_to 7997
  154.4040  140.1605  156.2500 H   0  0  0  0  0  0  0  0  0  0  0  0  # atno 8009 bound_to 7997
  155.9160  140.3401  155.6138 H   0  0  0  0  0  0  0  0  0  0  0  0  # atno 8010 bound_to 7997
  139.9605  143.5955  152.2446 H   0  0  0  0  0  0  0  0  0  0  0  0  # atno 10167 bound_to 10162
  156.2531  130.4190  149.8627 H   0  0  0  0  0  0  0  0  0  0  0  0  # atno 10718 bound_to 10713
  154.8704  135.4105  154.2913 H   0  0  0  0  0  0  0  0  0  0  0  0  # atno 10763 bound_to 10752
  153.3788  135.7010  153.6586 H   0  0  0  0  0  0  0  0  0  0  0  0  # atno 10764 bound_to 10752
  153.5417  135.3646  155.2693 H   0  0  0  0  0  0  0  0  0  0  0  0  # atno 10765 bound_to 10752
  139.9065  134.9607  156.7307 H   0  0  0  0  0  0  0  0  0  0  0  0  # atno 11005 bound_to 11000
  146.3127  140.3612  142.8665 LP  0  0  0  0  0  0  0  0  0  0  0  0  # atno 17320 bound_to 7965
  144.9038  140.7674  143.5850 LP  0  0  0  0  0  0  0  0  0  0  0  0  # atno 17321 bound_to 7965
  139.6557  144.7662  151.2060 LP  0  0  0  0  0  0  0  0  0  0  0  0  # atno 17342 bound_to 10162
  140.7554  143.6089  150.8625 LP  0  0  0  0  0  0  0  0  0  0  0  0  # atno 17343 bound_to 10162
  156.6169  130.8610  151.3467 LP  0  0  0  0  0  0  0  0  0  0  0  0  # atno 17370 bound_to 10713
  157.7222  130.9574  150.1485 LP  0  0  0  0  0  0  0  0  0  0  0  0  # atno 17371 bound_to 10713
  140.6927  133.9376  155.7976 LP  0  0  0  0  0  0  0  0  0  0  0  0  # atno 17394 bound_to 11000
  141.0430  134.0595  157.3879 LP  0  0  0  0  0  0  0  0  0  0  0  0  # atno 17395 bound_to 11000

$$$$
