AV-unprocessed.smi:2027|AV-procd|sdf|8215|dock2
  -GOLD-   2272010483D 1   1.00000     0.00000
 Structure written by MMmdl.
 50 52  0  0  0  0  0  0  0  0  2 V2000
  153.6446  142.1125  161.9020 C   0  0  0  0  0  0  0  0  0  0  0  0
  152.9790  141.9898  160.5419 C   0  0  0  0  0  0  0  0  0  0  0  0
  153.1240  140.7797  159.8267 C   0  0  0  0  0  0  0  0  0  0  0  0
  152.4999  140.6965  158.5876 C   0  0  0  0  0  0  0  0  0  0  0  0
  152.4510  139.6582  157.6547 N   0  3  0  0  0  0  0  0  0  0  0  0
  151.7036  140.0441  156.5834 C   0  0  0  0  0  0  0  0  0  0  0  0
  151.2750  141.3137  156.8192 N   0  0  0  0  0  0  0  0  0  0  0  0
  150.4230  142.1916  156.0056 C   0  0  0  0  0  0  0  0  0  0  0  0
  149.3615  141.4059  155.2130 C   0  0  2  0  0  0  0  0  0  0  0  0
  148.8856  142.2117  154.1525 O   0  0  0  0  0  0  0  0  0  0  0  0
  148.1657  140.9889  156.0952 C   0  0  0  0  0  0  0  0  0  0  0  0
  147.1822  142.0374  156.4124 N   0  0  0  0  0  0  0  0  0  0  0  0
  146.5793  141.7610  157.7112 C   0  0  0  0  0  0  0  0  0  0  0  0
  146.1145  142.1729  155.4110 C   0  0  0  0  0  0  0  0  0  0  0  0
  145.2565  143.4002  155.5569 C   0  0  0  0  0  0  0  0  0  0  0  0
  145.0220  144.1580  156.7395 C   0  0  0  0  0  0  0  0  0  0  0  0
  144.1902  145.1681  156.5470 N   0  0  0  0  0  0  0  0  0  0  0  0
  143.8771  145.1005  155.2373 N   0  0  0  0  0  0  0  0  0  0  0  0
  142.9553  146.0640  154.6759 C   0  0  0  0  0  0  0  0  0  0  0  0
  144.5217  144.0568  154.6088 C   0  0  0  0  0  0  0  0  0  0  0  0
  151.7519  141.7640  158.0551 C   0  0  0  0  0  0  0  0  0  0  0  0
  151.6027  142.9648  158.7445 C   0  0  0  0  0  0  0  0  0  0  0  0
  152.2299  143.0694  160.0063 C   0  0  0  0  0  0  0  0  0  0  0  0
  152.0848  144.3672  160.7825 C   0  0  0  0  0  0  0  0  0  0  0  0
  154.1482  141.1877  162.1848 H   0  0  0  0  0  0  0  0  0  0  0  0
  152.9062  142.3370  162.6717 H   0  0  0  0  0  0  0  0  0  0  0  0
  154.3894  142.9087  161.8928 H   0  0  0  0  0  0  0  0  0  0  0  0
  153.6937  139.9543  160.2278 H   0  0  0  0  0  0  0  0  0  0  0  0
  151.4819  139.4472  155.7105 H   0  0  0  0  0  0  0  0  0  0  0  0
  149.9556  142.9219  156.6675 H   0  0  0  0  0  0  0  0  0  0  0  0
  151.0718  142.7510  155.3301 H   0  0  0  0  0  0  0  0  0  0  0  0
  149.8564  140.5441  154.7810 H   0  0  0  0  0  0  0  0  0  0  0  0
  148.7867  143.0965  154.4690 H   0  0  0  0  0  0  0  0  0  0  0  0
  147.6492  140.1462  155.6332 H   0  0  0  0  0  0  0  0  0  0  0  0
  148.5838  140.5919  157.0219 H   0  0  0  0  0  0  0  0  0  0  0  0
  145.8802  142.5494  157.9926 H   0  0  0  0  0  0  0  0  0  0  0  0
  147.3401  141.7114  158.4910 H   0  0  0  0  0  0  0  0  0  0  0  0
  146.0384  140.8135  157.7022 H   0  0  0  0  0  0  0  0  0  0  0  0
  146.5496  142.1276  154.4116 H   0  0  0  0  0  0  0  0  0  0  0  0
  145.4653  141.2984  155.4733 H   0  0  0  0  0  0  0  0  0  0  0  0
  145.4159  143.9929  157.7315 H   0  0  0  0  0  0  0  0  0  0  0  0
  142.8097  145.8676  153.6134 H   0  0  0  0  0  0  0  0  0  0  0  0
  143.3535  147.0716  154.7997 H   0  0  0  0  0  0  0  0  0  0  0  0
  141.9933  145.9929  155.1848 H   0  0  0  0  0  0  0  0  0  0  0  0
  144.3877  143.8518  153.5569 H   0  0  0  0  0  0  0  0  0  0  0  0
  151.0279  143.7841  158.3393 H   0  0  0  0  0  0  0  0  0  0  0  0
  151.5106  145.1052  160.2215 H   0  0  0  0  0  0  0  0  0  0  0  0
  153.0624  144.7996  160.9952 H   0  0  0  0  0  0  0  0  0  0  0  0
  151.5687  144.1909  161.7264 H   0  0  0  0  0  0  0  0  0  0  0  0
  152.8893  138.7502  157.7419 H   0  0  0  0  0  0  0  0  0  0  0  0
  1  2  1  0  0  0  0
  1 25  1  0  0  0  0
  1 26  1  0  0  0  0
  1 27  1  0  0  0  0
  2 23  1  0  0  0  0
  2  3  2  0  0  0  0
  3  4  1  0  0  0  0
  3 28  1  0  0  0  0
  4 21  2  0  0  0  0
  4  5  1  0  0  0  0
  5  6  2  0  0  0  0
  5 50  1  0  0  0  0
  6  7  1  0  0  0  0
  6 29  1  0  0  0  0
  7  8  1  0  0  0  0
  7 21  1  0  0  0  0
  8  9  1  0  0  0  0
  8 30  1  0  0  0  0
  8 31  1  0  0  0  0
  9 10  1  0  0  0  0
  9 11  1  0  0  0  0
  9 32  1  0  0  0  0
 10 33  1  0  0  0  0
 11 12  1  0  0  0  0
 11 34  1  0  0  0  0
 11 35  1  0  0  0  0
 12 13  1  0  0  0  0
 12 14  1  0  0  0  0
 13 36  1  0  0  0  0
 13 37  1  0  0  0  0
 13 38  1  0  0  0  0
 14 15  1  0  0  0  0
 14 39  1  0  0  0  0
 14 40  1  0  0  0  0
 15 20  2  0  0  0  0
 15 16  1  0  0  0  0
 16 17  2  0  0  0  0
 16 41  1  0  0  0  0
 17 18  1  0  0  0  0
 18 19  1  0  0  0  0
 18 20  1  0  0  0  0
 19 42  1  0  0  0  0
 19 43  1  0  0  0  0
 19 44  1  0  0  0  0
 20 45  1  0  0  0  0
 21 22  1  0  0  0  0
 22 23  2  0  0  0  0
 22 46  1  0  0  0  0
 23 24  1  0  0  0  0
 24 47  1  0  0  0  0
 24 48  1  0  0  0  0
 24 49  1  0  0  0  0
M  CHG  1   5   1
M  END
> <s_m_source_file>
AV-unprocessed.smi

> <i_m_source_file_index>
2027

> <i_lp_mmshare_version>
43012

> <i_f3d_flags>
0

> <s_epik_input>
W0NIM11jKFtjSF0xKWMoW0NIM10pW2NIXWMoYzEyKW4oW2NIXW4yKVtDSDJdW0NASF0oW09IXSlbQ0gyXU4oW0NIM10pW0NIMl1jM1tjSF1ubihbQ0gzXSlbY0hdMw==

> <s_epik_cmdline>
J2VwaWtfcHl0aG9uJywgJy1waCcsICc3LjAnLCAnLXRuJywgJzgnLCAnLW1hJywgJzIwMCcsICctbWV0YWxfYmluZGluZycsICctaW1hZScsICc8aW5maWxlLm1hZT4nLCAnLW9tYWUnLCAnPG91dGZpbGUubWFlPic=

> <r_epik_Ionization_Penalty>
1.48134

> <r_epik_Ionization_Penalty_Charging>
1.21121

> <r_epik_Ionization_Penalty_Neutral>
0.270133

> <r_epik_State_Penalty>
1.53013

> <r_epik_Charging_Adjusted_Penalty>
2.74134

> <i_epik_Tot_Q>
1

> <i_epik_Tot_abs_Q>
1

> <r_epik_Metal_State_Penalty>
1.60443

> <b_epik_Metal_Only>
0

> <s_lp_Force_Field>
OPLS_2005

> <r_lp_Energy>
21.1476

> <b_lp_Chiralities_Consistent>
1

> <s_lp_Variant>
AV-unprocessed.smi:2027-7

> <Gold.Version>
5.8.1

> <Gold.Id.Protein>
6NUR|6NUR_protein|mol2

> <Gold.PLP.Fitness>
52.1593

> <Gold.PLP.PLP>
-47.7474

> <Gold.PLP.part.hbond>
-2.0000

> <Gold.PLP.part.metal>
0.0000

> <Gold.PLP.part.buried>
-6.2172

> <Gold.PLP.part.nonpolar>
-40.6648

> <Gold.PLP.part.repulsive>
0.3144

> <Gold.PLP.ligand.clash>
0.0000

> <Gold.PLP.ligand.torsion>
1.4133

> <Gold.PLP.Chemscore.Hbond>
1.2953

> <Gold.PLP.Chemscore.CHOScore>
0.9964

> <Gold.PLP.Chemscore.Metal>
0.0000

> <Gold.Chemscore.Hbonds>
donor molecule, donor type, donor heavy atom, donor atom, acceptor molecule, acceptor atom, score
      L1  H    10    33       P1  8028  1.00
      P1  H  8011  8017       L1    10  0.29
      L1  C    20    45       P1 10174  0.82

> <Gold.PLP.Chemscore.Internal.Correction>
0.3634

> <Gold.Rescore>
     Score         DG    S(hbond)    S(metal)    S(lipo)     H(rot)  DE(clash)    DE(int)     intcor
     15.61     -17.51       1.10        0.00     126.13       2.50       0.24       1.67       ----

> <Gold.Chemscore.Fitness>
15.6074

> <Gold.Chemscore.DG>
-17.5089

> <Gold.Chemscore.ZeroCoef>
-5.4800

> <Gold.Chemscore.Hbond>
1.0994

> <Gold.Chemscore.Metal>
0.0000

> <Gold.Chemscore.Lipo>
126.1276

> <Gold.Chemscore.Internal_Hbond>
0.0000

> <Gold.Chemscore.DEClash>
0.2350

> <Gold.Chemscore.DEInternal>
1.6664

> <Gold.Chemscore.Rot>
2.5000

> <Gold.Chemscore.Internal.Correction>
   9.000000E+99

> <Gold.Chemscore.Hbonds>
donor molecule, donor type, donor heavy atom, donor atom, acceptor molecule, acceptor atom, score
      L1  H    10    33       P1  8028  0.97
      P1  H  8011  8017       L1    10  0.12

> <Gold.Chemscore.Hbond.Weighted>
-3.6719

> <Gold.Chemscore.Metal.Weighted>
-0.0000

> <Gold.Chemscore.Lipo.Weighted>
-14.7569

> <Gold.Chemscore.Internal_Hbond.Weighted>
0.0000

> <Gold.Chemscore.DEClash.Weighted>
0.2350

> <Gold.Chemscore.DEInternal.Weighted>
1.6664

> <Gold.Chemscore.Rot.Weighted>
6.3999

> <Gold.Chemscore.Internal.Correction.Weighted>
   9.000000E+99

> <Gold.Protein.RotatedTorsions>
[ 6907 6896 6895 6894 ] final   66.20 input  -60.11 | X-H torsion
[ 7974 7965 7964 7962 ] final  119.74 input  175.53 | X-H torsion
[ 8008 7997 7996 7995 ] final -177.05 input   59.86 | X-H torsion
[ 10167 10162 10161 10158 ] final  -93.35 input  -65.29 | X-H torsion
[ 10718 10713 10712 10709 ] final  -25.17 input   66.30 | X-H torsion
[ 10763 10752 10751 10750 ] final   61.51 input  -60.55 | X-H torsion
[ 11005 11000 10999 10996 ] final  -22.74 input  -57.11 | X-H torsion

> <Gold.Protein.ActiveResidues>
 VAL166  LYS551  ARG553  GLY616  TRP617  ASP618  TYR619  PRO620  LYS621  CYS622 
 ASP623  PHE694  ASN695  SER759  ASP760  ASP761  ALA762  ILE779  LEU786  VAL792 
 PHE793  MET794  SER795  GLU796  ALA797  LYS798  CYS799  TRP800  GLU811  SER814 

> <Gold.Protein.RotatedAtoms>
  152.4464  134.5486  159.9859 H   0  0  0  0  0  0  0  0  0  0  0  0  # atno 6907 bound_to 6896
  151.5570  133.3403  159.2972 H   0  0  0  0  0  0  0  0  0  0  0  0  # atno 6908 bound_to 6896
  150.8381  134.7695  159.6973 H   0  0  0  0  0  0  0  0  0  0  0  0  # atno 6909 bound_to 6896
  145.1395  139.3276  143.4623 H   0  0  0  0  0  0  0  0  0  0  0  0  # atno 7974 bound_to 7965
  156.0023  140.1223  157.0535 H   0  0  0  0  0  0  0  0  0  0  0  0  # atno 8008 bound_to 7997
  154.4246  140.1104  156.5783 H   0  0  0  0  0  0  0  0  0  0  0  0  # atno 8009 bound_to 7997
  155.6195  140.3472  155.4650 H   0  0  0  0  0  0  0  0  0  0  0  0  # atno 8010 bound_to 7997
  140.3255  143.3024  151.9999 H   0  0  0  0  0  0  0  0  0  0  0  0  # atno 10167 bound_to 10162
  156.4679  130.4518  149.6887 H   0  0  0  0  0  0  0  0  0  0  0  0  # atno 10718 bound_to 10713
  152.9953  135.5498  154.6045 H   0  0  0  0  0  0  0  0  0  0  0  0  # atno 10763 bound_to 10752
  154.5379  135.2818  155.1124 H   0  0  0  0  0  0  0  0  0  0  0  0  # atno 10764 bound_to 10752
  154.2413  135.6416  153.5261 H   0  0  0  0  0  0  0  0  0  0  0  0  # atno 10765 bound_to 10752
  140.8685  133.7737  156.0159 H   0  0  0  0  0  0  0  0  0  0  0  0  # atno 11005 bound_to 11000
  146.3506  140.1427  142.8594 LP  0  0  0  0  0  0  0  0  0  0  0  0  # atno 17320 bound_to 7965
  145.0547  140.9044  143.4974 LP  0  0  0  0  0  0  0  0  0  0  0  0  # atno 17321 bound_to 7965
  139.4866  144.6277  151.7132 LP  0  0  0  0  0  0  0  0  0  0  0  0  # atno 17342 bound_to 10162
  140.5445  144.0526  150.6101 LP  0  0  0  0  0  0  0  0  0  0  0  0  # atno 17343 bound_to 10162
  156.3648  130.7500  151.2477 LP  0  0  0  0  0  0  0  0  0  0  0  0  # atno 17370 bound_to 10713
  157.7493  131.0340  150.4296 LP  0  0  0  0  0  0  0  0  0  0  0  0  # atno 17371 bound_to 10713
  140.8600  134.2851  157.5238 LP  0  0  0  0  0  0  0  0  0  0  0  0  # atno 17394 bound_to 11000
  139.8710  134.9513  156.4081 LP  0  0  0  0  0  0  0  0  0  0  0  0  # atno 17395 bound_to 11000

$$$$
