AV-unprocessed.smi:3292|AV-procd|sdf|12622|dock3
  -GOLD-   2272018553D 1   1.00000     0.00000
 Structure written by MMmdl.
 39 40  0  0  0  0  0  0  0  0  2 V2000
  147.7507  131.6814  153.9669 C   0  0  0  0  0  0  0  0  0  0  0  0
  147.2451  132.8854  153.1555 C   0  0  1  0  0  0  0  0  0  0  0  0
  145.7842  133.2659  153.4820 C   0  0  0  0  0  0  0  0  0  0  0  0
  145.0940  133.8947  152.3521 N   0  0  0  0  0  0  0  0  0  0  0  0
  145.6090  134.8180  151.4790 C   0  0  0  0  0  0  0  0  0  0  0  0
  144.6054  135.1232  150.5960 C   0  0  0  0  0  0  0  0  0  0  0  0
  143.5199  134.3772  150.9700 N   0  3  0  0  0  0  0  0  0  0  0  0
  143.8178  133.6334  152.0404 C   0  0  0  0  0  0  0  0  0  0  0  0
  148.1289  134.0248  153.3851 N   0  0  0  0  0  0  0  0  0  0  0  0
  148.5992  134.4061  154.5813 C   0  0  0  0  0  0  0  0  0  0  0  0
  148.3493  133.8225  155.6362 O   0  0  0  0  0  0  0  0  0  0  0  0
  149.3700  135.4987  154.4884 N   0  0  0  0  0  0  0  0  0  0  0  0
  150.0242  136.1678  155.6087 C   0  0  0  0  0  0  0  0  0  0  0  0
  150.8972  137.3477  155.1415 C   0  0  2  0  0  0  0  0  0  0  0  0
  151.5382  138.1213  156.2754 C   0  0  0  0  0  0  0  0  0  0  0  0
  151.9218  139.4311  155.5923 C   0  0  0  0  0  0  0  0  0  0  0  0
  150.9673  139.6258  154.5523 O   0  0  0  0  0  0  0  0  0  0  0  0
  150.1480  138.4689  154.4191 C   0  0  0  0  0  0  0  0  0  0  0  0
  147.1726  130.7825  153.7521 H   0  0  0  0  0  0  0  0  0  0  0  0
  147.6876  131.8708  155.0388 H   0  0  0  0  0  0  0  0  0  0  0  0
  148.7915  131.4587  153.7291 H   0  0  0  0  0  0  0  0  0  0  0  0
  147.3063  132.6139  152.0996 H   0  0  0  0  0  0  0  0  0  0  0  0
  145.2168  132.3851  153.7876 H   0  0  0  0  0  0  0  0  0  0  0  0
  145.7444  133.9706  154.3138 H   0  0  0  0  0  0  0  0  0  0  0  0
  146.6257  135.1779  151.5489 H   0  0  0  0  0  0  0  0  0  0  0  0
  144.5829  135.7982  149.7529 H   0  0  0  0  0  0  0  0  0  0  0  0
  143.1577  132.9534  152.5491 H   0  0  0  0  0  0  0  0  0  0  0  0
  148.3895  134.5702  152.5764 H   0  0  0  0  0  0  0  0  0  0  0  0
  149.5127  135.9030  153.5744 H   0  0  0  0  0  0  0  0  0  0  0  0
  149.2914  136.4982  156.3469 H   0  0  0  0  0  0  0  0  0  0  0  0
  150.6505  135.4310  156.1125 H   0  0  0  0  0  0  0  0  0  0  0  0
  151.6884  136.9768  154.4875 H   0  0  0  0  0  0  0  0  0  0  0  0
  150.8095  138.3128  157.0647 H   0  0  0  0  0  0  0  0  0  0  0  0
  152.3923  137.6076  156.7173 H   0  0  0  0  0  0  0  0  0  0  0  0
  151.9330  140.2723  156.2856 H   0  0  0  0  0  0  0  0  0  0  0  0
  152.9117  139.3505  155.1420 H   0  0  0  0  0  0  0  0  0  0  0  0
  149.9548  138.2379  153.3712 H   0  0  0  0  0  0  0  0  0  0  0  0
  149.1909  138.6685  154.9033 H   0  0  0  0  0  0  0  0  0  0  0  0
  142.6199  134.3868  150.5066 H   0  0  0  0  0  0  0  0  0  0  0  0
  1  2  1  0  0  0  0
  1 19  1  0  0  0  0
  1 20  1  0  0  0  0
  1 21  1  0  0  0  0
  2  3  1  0  0  0  0
  2  9  1  0  0  0  0
  2 22  1  0  0  0  0
  3  4  1  0  0  0  0
  3 23  1  0  0  0  0
  3 24  1  0  0  0  0
  4  8  1  0  0  0  0
  4  5  1  0  0  0  0
  5  6  2  0  0  0  0
  5 25  1  0  0  0  0
  6  7  1  0  0  0  0
  6 26  1  0  0  0  0
  7  8  2  0  0  0  0
  7 39  1  0  0  0  0
  8 27  1  0  0  0  0
  9 10  1  0  0  0  0
  9 28  1  0  0  0  0
 10 11  2  0  0  0  0
 10 12  1  0  0  0  0
 12 13  1  0  0  0  0
 12 29  1  0  0  0  0
 13 14  1  0  0  0  0
 13 30  1  0  0  0  0
 13 31  1  0  0  0  0
 14 18  1  0  0  0  0
 14 15  1  0  0  0  0
 14 32  1  0  0  0  0
 15 16  1  0  0  0  0
 15 33  1  0  0  0  0
 15 34  1  0  0  0  0
 16 17  1  0  0  0  0
 16 35  1  0  0  0  0
 16 36  1  0  0  0  0
 17 18  1  0  0  0  0
 18 37  1  0  0  0  0
 18 38  1  0  0  0  0
M  CHG  1   7   1
M  END
> <s_m_source_file>
AV-unprocessed.smi

> <i_m_source_file_index>
3292

> <i_lp_mmshare_version>
43012

> <i_f3d_flags>
0

> <s_epik_input>
W2NIXTFuW2NIXVtjSF1uMVtDSDJdW0NAQEhdKFtDSDNdKVtOSF1DKD1PKVtOSF1bQ0gyXVtDQEBIXTJbQ0gyXVtDSDJdT1tDSDJdMg==

> <s_epik_cmdline>
J2VwaWtfcHl0aG9uJywgJy1waCcsICc3LjAnLCAnLXRuJywgJzgnLCAnLW1hJywgJzIwMCcsICctbWV0YWxfYmluZGluZycsICctaW1hZScsICc8aW5maWxlLm1hZT4nLCAnLW9tYWUnLCAnPG91dGZpbGUubWFlPic=

> <r_lp_tautomer_probability>
1

> <r_epik_Ionization_Penalty>
0.255703

> <r_epik_Ionization_Penalty_Charging>
0

> <r_epik_Ionization_Penalty_Neutral>
0.255703

> <r_epik_State_Penalty>
0.247169

> <r_epik_Charging_Adjusted_Penalty>
0.247169

> <i_epik_Tot_Q>
1

> <i_epik_Tot_abs_Q>
1

> <r_epik_Metal_State_Penalty>
0.536791

> <b_epik_Metal_Only>
0

> <s_lp_Force_Field>
OPLS_2005

> <r_lp_Energy>
19.451

> <b_lp_Chiralities_Consistent>
1

> <s_lp_Variant>
AV-unprocessed.smi:3292-2

> <Gold.Version>
5.8.1

> <Gold.Id.Protein>
6NUR|6NUR_protein|mol2

> <Gold.PLP.Fitness>
47.4529

> <Gold.PLP.PLP>
-28.4461

> <Gold.PLP.part.hbond>
-4.0000

> <Gold.PLP.part.metal>
0.0000

> <Gold.PLP.part.buried>
-5.5231

> <Gold.PLP.part.nonpolar>
-21.0925

> <Gold.PLP.part.repulsive>
0.1518

> <Gold.PLP.ligand.clash>
0.0000

> <Gold.PLP.ligand.torsion>
0.8474

> <Gold.PLP.Chemscore.Hbond>
4.8500

> <Gold.PLP.Chemscore.CHOScore>
1.9982

> <Gold.PLP.Chemscore.Metal>
0.0000

> <Gold.Chemscore.Hbonds>
donor molecule, donor type, donor heavy atom, donor atom, acceptor molecule, acceptor atom, score
      L1  H     7    39       P1 10186  2.00
      L1  H     9    28       P1  7948  0.90
      L1  H    12    29       P1  7948  1.00
      P1  H  7989  7998       L1    17  1.00
      L1  C     5    25       P1  7948  1.00
      L1  C     8    27       P1 10957  0.89

> <Gold.PLP.Chemscore.Internal.Correction>
0.1570

> <Gold.Rescore>
     Score         DG    S(hbond)    S(metal)    S(lipo)     H(rot)  DE(clash)    DE(int)     intcor
     14.90     -17.20       3.50        0.00      49.22       2.24       0.01       2.29       ----

> <Gold.Chemscore.Fitness>
14.8984

> <Gold.Chemscore.DG>
-17.1955

> <Gold.Chemscore.ZeroCoef>
-5.4800

> <Gold.Chemscore.Hbond>
3.4978

> <Gold.Chemscore.Metal>
0.0000

> <Gold.Chemscore.Lipo>
49.2216

> <Gold.Chemscore.Internal_Hbond>
0.0000

> <Gold.Chemscore.DEClash>
0.0077

> <Gold.Chemscore.DEInternal>
2.2895

> <Gold.Chemscore.Rot>
2.2367

> <Gold.Chemscore.Internal.Correction>
   9.000000E+99

> <Gold.Chemscore.Hbonds>
donor molecule, donor type, donor heavy atom, donor atom, acceptor molecule, acceptor atom, score
      L1  H     7    39       P1 10186  0.50
      L1  H     9    28       P1  7948  0.17
      L1  H    12    29       P1  7948  0.33
      P1  H  7989  7998       L1    17  0.55

> <Gold.Chemscore.Hbond.Weighted>
-11.6825

> <Gold.Chemscore.Metal.Weighted>
-0.0000

> <Gold.Chemscore.Lipo.Weighted>
-5.7589

> <Gold.Chemscore.Internal_Hbond.Weighted>
0.0000

> <Gold.Chemscore.DEClash.Weighted>
0.0077

> <Gold.Chemscore.DEInternal.Weighted>
2.2895

> <Gold.Chemscore.Rot.Weighted>
5.7259

> <Gold.Chemscore.Internal.Correction.Weighted>
   9.000000E+99

> <Gold.Protein.RotatedTorsions>
[ 6907 6896 6895 6894 ] final  169.23 input  -60.11 | X-H torsion
[ 7974 7965 7964 7962 ] final    7.98 input  175.53 | X-H torsion
[ 8008 7997 7996 7995 ] final  107.28 input   59.86 | X-H torsion
[ 10167 10162 10161 10158 ] final  125.76 input  -65.29 | X-H torsion
[ 10718 10713 10712 10709 ] final  -78.02 input   66.30 | X-H torsion
[ 10763 10752 10751 10750 ] final -151.10 input  -60.55 | X-H torsion
[ 11005 11000 10999 10996 ] final  146.87 input  -57.11 | X-H torsion

> <Gold.Protein.ActiveResidues>
 VAL166  LYS551  ARG553  GLY616  TRP617  ASP618  TYR619  PRO620  LYS621  CYS622 
 ASP623  PHE694  ASN695  SER759  ASP760  ASP761  ALA762  ILE779  LEU786  VAL792 
 PHE793  MET794  SER795  GLU796  ALA797  LYS798  CYS799  TRP800  GLU811  SER814 

> <Gold.Protein.RotatedAtoms>
  151.8351  133.3414  159.3625 H   0  0  0  0  0  0  0  0  0  0  0  0  # atno 6907 bound_to 6896
  150.7252  134.5445  159.5773 H   0  0  0  0  0  0  0  0  0  0  0  0  # atno 6908 bound_to 6896
  152.2907  134.7726  160.0429 H   0  0  0  0  0  0  0  0  0  0  0  0  # atno 6909 bound_to 6896
  146.2421  140.0002  142.8416 H   0  0  0  0  0  0  0  0  0  0  0  0  # atno 7974 bound_to 7965
  156.1811  140.3097  155.9151 H   0  0  0  0  0  0  0  0  0  0  0  0  # atno 8008 bound_to 7997
  155.3381  140.0464  157.3061 H   0  0  0  0  0  0  0  0  0  0  0  0  # atno 8009 bound_to 7997
  154.5344  140.2241  155.8758 H   0  0  0  0  0  0  0  0  0  0  0  0  # atno 8010 bound_to 7997
  139.5668  144.6916  151.3888 H   0  0  0  0  0  0  0  0  0  0  0  0  # atno 10167 bound_to 10162
  156.0129  130.4507  150.3432 H   0  0  0  0  0  0  0  0  0  0  0  0  # atno 10718 bound_to 10713
  154.8079  135.3268  154.7384 H   0  0  0  0  0  0  0  0  0  0  0  0  # atno 10763 bound_to 10752
  153.8039  135.6901  153.4856 H   0  0  0  0  0  0  0  0  0  0  0  0  # atno 10764 bound_to 10752
  153.1836  135.4577  155.0005 H   0  0  0  0  0  0  0  0  0  0  0  0  # atno 10765 bound_to 10752
  140.0829  134.9087  157.1529 H   0  0  0  0  0  0  0  0  0  0  0  0  # atno 11005 bound_to 11000
  145.1422  140.9577  143.4482 LP  0  0  0  0  0  0  0  0  0  0  0  0  # atno 17320 bound_to 7965
  145.0285  139.3361  143.6036 LP  0  0  0  0  0  0  0  0  0  0  0  0  # atno 17321 bound_to 7965
  140.6952  143.7767  150.7315 LP  0  0  0  0  0  0  0  0  0  0  0  0  # atno 17342 bound_to 10162
  140.1261  143.4568  152.2283 LP  0  0  0  0  0  0  0  0  0  0  0  0  # atno 17343 bound_to 10162
  157.1527  131.0325  151.2877 LP  0  0  0  0  0  0  0  0  0  0  0  0  # atno 17370 bound_to 10713
  157.4378  130.7527  149.7044 LP  0  0  0  0  0  0  0  0  0  0  0  0  # atno 17371 bound_to 10713
  140.3462  134.2649  155.7205 LP  0  0  0  0  0  0  0  0  0  0  0  0  # atno 17394 bound_to 11000
  141.2053  133.7864  157.0242 LP  0  0  0  0  0  0  0  0  0  0  0  0  # atno 17395 bound_to 11000

$$$$
