AV-unprocessed.smi:910|AV-procd|sdf|4135|dock8
  -GOLD-   22720 2 43D 1   1.00000     0.00000
 Structure written by MMmdl.
 45 46  0  0  0  0  0  0  0  0  2 V2000
  154.5794  137.8564  164.5760 C   0  0  0  0  0  0  0  0  0  0  0  0
  154.4233  136.8162  163.5115 C   0  0  0  0  0  0  0  0  0  0  0  0
  154.1279  137.1402  162.1959 N   0  0  0  0  0  0  0  0  0  0  0  0
  154.0726  135.9803  161.5387 C   0  0  0  0  0  0  0  0  0  0  0  0
  153.8127  135.8194  160.2310 N   0  5  0  0  0  0  0  0  0  0  0  0
  153.7590  136.8997  159.4195 C   0  0  0  0  0  0  0  0  0  0  0  0
  154.4243  137.0785  158.3963 O   0  0  0  0  0  0  0  0  0  0  0  0
  152.8796  137.8313  159.8156 N   0  0  0  0  0  0  0  0  0  0  0  0
  152.5991  139.0875  159.1279 C   0  0  0  0  0  0  0  0  0  0  0  0
  153.2290  140.2811  159.8586 C   0  0  0  0  0  0  0  0  0  0  0  0
  153.0619  141.4477  159.0662 O   0  0  0  0  0  0  0  0  0  0  0  0
  152.2569  142.4513  159.6702 C   0  0  1  0  0  0  0  0  0  0  0  0
  152.9573  142.9525  160.9508 C   0  0  0  0  0  0  0  0  0  0  0  0
  152.2044  144.1332  161.5810 C   0  0  0  0  0  0  0  0  0  0  0  0
  152.0293  145.2759  160.5711 C   0  0  0  0  0  0  0  0  0  0  0  0
  151.3268  144.7837  159.2966 C   0  0  0  0  0  0  0  0  0  0  0  0
  152.0736  143.5989  158.6516 C   0  0  2  0  0  0  0  0  0  0  0  0
  151.3446  143.1237  157.3844 C   0  0  0  0  0  0  0  0  0  0  0  0
  154.3044  134.9156  162.3586 O   0  0  0  0  0  0  0  0  0  0  0  0
  154.5282  135.4538  163.5960 C   0  0  0  0  0  0  0  0  0  0  0  0
  154.8243  134.5172  164.7172 C   0  0  0  0  0  0  0  0  0  0  0  0
  153.8433  137.7196  165.3680 H   0  0  0  0  0  0  0  0  0  0  0  0
  154.4506  138.8624  164.1754 H   0  0  0  0  0  0  0  0  0  0  0  0
  155.5691  137.8064  165.0302 H   0  0  0  0  0  0  0  0  0  0  0  0
  152.3532  137.6450  160.6567 H   0  0  0  0  0  0  0  0  0  0  0  0
  152.9872  139.0240  158.1112 H   0  0  0  0  0  0  0  0  0  0  0  0
  151.5207  139.2277  159.0387 H   0  0  0  0  0  0  0  0  0  0  0  0
  152.7347  140.4284  160.8196 H   0  0  0  0  0  0  0  0  0  0  0  0
  154.2815  140.0857  160.0658 H   0  0  0  0  0  0  0  0  0  0  0  0
  151.2725  142.0504  159.9209 H   0  0  0  0  0  0  0  0  0  0  0  0
  153.0440  142.1484  161.6813 H   0  0  0  0  0  0  0  0  0  0  0  0
  153.9768  143.2588  160.7122 H   0  0  0  0  0  0  0  0  0  0  0  0
  151.2271  143.7990  161.9311 H   0  0  0  0  0  0  0  0  0  0  0  0
  152.7426  144.4916  162.4589 H   0  0  0  0  0  0  0  0  0  0  0  0
  151.4566  146.0866  161.0222 H   0  0  0  0  0  0  0  0  0  0  0  0
  153.0048  145.6913  160.3147 H   0  0  0  0  0  0  0  0  0  0  0  0
  150.3051  144.4871  159.5387 H   0  0  0  0  0  0  0  0  0  0  0  0
  151.2477  145.6063  158.5851 H   0  0  0  0  0  0  0  0  0  0  0  0
  153.0631  143.9496  158.3538 H   0  0  0  0  0  0  0  0  0  0  0  0
  150.3512  142.7400  157.6190 H   0  0  0  0  0  0  0  0  0  0  0  0
  151.8974  142.3293  156.8825 H   0  0  0  0  0  0  0  0  0  0  0  0
  151.2266  143.9393  156.6709 H   0  0  0  0  0  0  0  0  0  0  0  0
  154.8418  135.0429  165.6720 H   0  0  0  0  0  0  0  0  0  0  0  0
  155.7945  134.0414  164.5752 H   0  0  0  0  0  0  0  0  0  0  0  0
  154.0682  133.7342  164.7762 H   0  0  0  0  0  0  0  0  0  0  0  0
  1 22  1  0  0  0  0
  1 23  1  0  0  0  0
  1 24  1  0  0  0  0
  1  2  1  0  0  0  0
  2  3  1  0  0  0  0
  2 20  2  0  0  0  0
  3  4  2  0  0  0  0
  4 19  1  0  0  0  0
  4  5  1  0  0  0  0
  5  6  1  0  0  0  0
  6  8  1  0  0  0  0
  6  7  2  0  0  0  0
  8  9  1  0  0  0  0
  8 25  1  0  0  0  0
  9 10  1  0  0  0  0
  9 26  1  0  0  0  0
  9 27  1  0  0  0  0
 10 11  1  0  0  0  0
 10 28  1  0  0  0  0
 10 29  1  0  0  0  0
 11 12  1  0  0  0  0
 12 17  1  0  0  0  0
 12 13  1  0  0  0  0
 12 30  1  0  0  0  0
 13 14  1  0  0  0  0
 13 31  1  0  0  0  0
 13 32  1  0  0  0  0
 14 15  1  0  0  0  0
 14 33  1  0  0  0  0
 14 34  1  0  0  0  0
 15 16  1  0  0  0  0
 15 35  1  0  0  0  0
 15 36  1  0  0  0  0
 16 17  1  0  0  0  0
 16 37  1  0  0  0  0
 16 38  1  0  0  0  0
 17 18  1  0  0  0  0
 17 39  1  0  0  0  0
 18 40  1  0  0  0  0
 18 41  1  0  0  0  0
 18 42  1  0  0  0  0
 19 20  1  0  0  0  0
 20 21  1  0  0  0  0
 21 43  1  0  0  0  0
 21 44  1  0  0  0  0
 21 45  1  0  0  0  0
M  CHG  1   5  -1
M  END
> <s_m_source_file>
AV-unprocessed.smi

> <i_m_source_file_index>
910

> <i_lp_mmshare_version>
43012

> <i_f3d_flags>
0

> <s_epik_input>
W0NIM11jMW5jKG9jMVtDSDNdKVtOSF1DKD1PKVtOSF1bQ0gyXVtDSDJdT1tDQEBIXTJbQ0gyXVtDSDJdW0NIMl1bQ0gyXVtDQEhdMltDSDNd

> <s_epik_cmdline>
J2VwaWtfcHl0aG9uJywgJy1waCcsICc3LjAnLCAnLXRuJywgJzgnLCAnLW1hJywgJzIwMCcsICctbWV0YWxfYmluZGluZycsICctaW1hZScsICc8aW5maWxlLm1hZT4nLCAnLW9tYWUnLCAnPG91dGZpbGUubWFlPic=

> <r_lp_tautomer_probability>
0.107061

> <r_epik_Ionization_Penalty>
10.1763

> <r_epik_Ionization_Penalty_Charging>
7.13067

> <r_epik_Ionization_Penalty_Neutral>
3.04564

> <r_epik_State_Penalty>
5.57927

> <r_epik_Charging_Adjusted_Penalty>
12.7099

> <i_epik_Tot_Q>
-1

> <i_epik_Tot_abs_Q>
1

> <r_epik_Metal_State_Penalty>
1.52303

> <b_epik_Metal_Only>
1

> <s_lp_Force_Field>
OPLS_2005

> <r_lp_Energy>
4.71828

> <b_lp_Chiralities_Consistent>
1

> <s_lp_Variant>
AV-unprocessed.smi:910-20

> <Gold.Version>
5.8.1

> <Gold.Id.Protein>
6NUR|6NUR_protein|mol2

> <Gold.PLP.Fitness>
46.7050

> <Gold.PLP.PLP>
-42.6814

> <Gold.PLP.part.hbond>
-1.0000

> <Gold.PLP.part.metal>
0.0000

> <Gold.PLP.part.buried>
-5.6002

> <Gold.PLP.part.nonpolar>
-35.2466

> <Gold.PLP.part.repulsive>
0.0913

> <Gold.PLP.ligand.clash>
0.0000

> <Gold.PLP.ligand.torsion>
1.0159

> <Gold.PLP.Chemscore.Hbond>
2.0000

> <Gold.PLP.Chemscore.CHOScore>
0.0000

> <Gold.PLP.Chemscore.Metal>
0.0000

> <Gold.Chemscore.Hbonds>
donor molecule, donor type, donor heavy atom, donor atom, acceptor molecule, acceptor atom, score
      P1  H  6896  6907       L1     5  2.00

> <Gold.PLP.Chemscore.Internal.Correction>
0.0554

> <Gold.Rescore>
     Score         DG    S(hbond)    S(metal)    S(lipo)     H(rot)  DE(clash)    DE(int)     intcor
     17.28     -18.42       0.74        0.00     124.76       1.62       0.17       0.96       ----

> <Gold.Chemscore.Fitness>
17.2829

> <Gold.Chemscore.DG>
-18.4197

> <Gold.Chemscore.ZeroCoef>
-5.4800

> <Gold.Chemscore.Hbond>
0.7431

> <Gold.Chemscore.Metal>
0.0000

> <Gold.Chemscore.Lipo>
124.7617

> <Gold.Chemscore.Internal_Hbond>
0.0000

> <Gold.Chemscore.DEClash>
0.1734

> <Gold.Chemscore.DEInternal>
0.9633

> <Gold.Chemscore.Rot>
1.6169

> <Gold.Chemscore.Internal.Correction>
   9.000000E+99

> <Gold.Chemscore.Hbonds>
donor molecule, donor type, donor heavy atom, donor atom, acceptor molecule, acceptor atom, score
      P1  H  6896  6907       L1     5  0.57

> <Gold.Chemscore.Hbond.Weighted>
-2.4818

> <Gold.Chemscore.Metal.Weighted>
-0.0000

> <Gold.Chemscore.Lipo.Weighted>
-14.5971

> <Gold.Chemscore.Internal_Hbond.Weighted>
0.0000

> <Gold.Chemscore.DEClash.Weighted>
0.1734

> <Gold.Chemscore.DEInternal.Weighted>
0.9633

> <Gold.Chemscore.Rot.Weighted>
4.1393

> <Gold.Chemscore.Internal.Correction.Weighted>
   9.000000E+99

> <Gold.Protein.RotatedTorsions>
[ 6907 6896 6895 6894 ] final   51.98 input  -60.11 | X-H torsion
[ 7974 7965 7964 7962 ] final    1.90 input  175.53 | X-H torsion
[ 8008 7997 7996 7995 ] final  -43.70 input   59.86 | X-H torsion
[ 10167 10162 10161 10158 ] final -108.63 input  -65.29 | X-H torsion
[ 10718 10713 10712 10709 ] final   58.37 input   66.30 | X-H torsion
[ 10763 10752 10751 10750 ] final   31.50 input  -60.55 | X-H torsion
[ 11005 11000 10999 10996 ] final  131.08 input  -57.11 | X-H torsion

> <Gold.Protein.ActiveResidues>
 VAL166  LYS551  ARG553  GLY616  TRP617  ASP618  TYR619  PRO620  LYS621  CYS622 
 ASP623  PHE694  ASN695  SER759  ASP760  ASP761  ALA762  ILE779  LEU786  VAL792 
 PHE793  MET794  SER795  GLU796  ALA797  LYS798  CYS799  TRP800  GLU811  SER814 

> <Gold.Protein.RotatedAtoms>
  152.3185  134.7410  160.0319 H   0  0  0  0  0  0  0  0  0  0  0  0  # atno 6907 bound_to 6896
  151.7867  133.3350  159.3495 H   0  0  0  0  0  0  0  0  0  0  0  0  # atno 6908 bound_to 6896
  150.7357  134.5812  159.5984 H   0  0  0  0  0  0  0  0  0  0  0  0  # atno 6909 bound_to 6896
  146.2442  140.0918  142.8352 H   0  0  0  0  0  0  0  0  0  0  0  0  # atno 7974 bound_to 7965
  154.3997  140.1441  156.3562 H   0  0  0  0  0  0  0  0  0  0  0  0  # atno 8008 bound_to 7997
  155.8223  140.3469  155.5501 H   0  0  0  0  0  0  0  0  0  0  0  0  # atno 8009 bound_to 7997
  155.8275  140.0907  157.1803 H   0  0  0  0  0  0  0  0  0  0  0  0  # atno 8010 bound_to 7997
  140.1641  143.4096  152.1404 H   0  0  0  0  0  0  0  0  0  0  0  0  # atno 10167 bound_to 10162
  157.5591  130.8822  149.9082 H   0  0  0  0  0  0  0  0  0  0  0  0  # atno 10718 bound_to 10713
  153.0312  135.6437  154.1209 H   0  0  0  0  0  0  0  0  0  0  0  0  # atno 10763 bound_to 10752
  154.0931  135.2865  155.3269 H   0  0  0  0  0  0  0  0  0  0  0  0  # atno 10764 bound_to 10752
  154.6451  135.5446  153.7898 H   0  0  0  0  0  0  0  0  0  0  0  0  # atno 10765 bound_to 10752
  139.9709  134.9577  156.9387 H   0  0  0  0  0  0  0  0  0  0  0  0  # atno 11005 bound_to 11000
  145.0644  140.9111  143.4919 LP  0  0  0  0  0  0  0  0  0  0  0  0  # atno 17320 bound_to 7965
  145.1039  139.2803  143.5672 LP  0  0  0  0  0  0  0  0  0  0  0  0  # atno 17321 bound_to 7965
  139.5367  144.7217  151.4868 LP  0  0  0  0  0  0  0  0  0  0  0  0  # atno 17342 bound_to 10162
  140.6624  143.8470  150.6903 LP  0  0  0  0  0  0  0  0  0  0  0  0  # atno 17343 bound_to 10162
  156.0646  130.3694  150.0907 LP  0  0  0  0  0  0  0  0  0  0  0  0  # atno 17370 bound_to 10713
  156.9073  130.9640  151.3568 LP  0  0  0  0  0  0  0  0  0  0  0  0  # atno 17371 bound_to 10713
  140.5295  134.0828  155.7312 LP  0  0  0  0  0  0  0  0  0  0  0  0  # atno 17394 bound_to 11000
  141.1389  133.9173  157.2371 LP  0  0  0  0  0  0  0  0  0  0  0  0  # atno 17395 bound_to 11000

$$$$
