AV-unprocessed.smi:38|AV-procd|sdf|348|dock6
  -GOLD-   2262016183D 1   1.00000     0.00000
 Structure written by MMmdl.
 27 28  0  0  0  0  0  0  0  0  2 V2000
  152.7173  140.8983  158.7389 O   0  0  0  0  0  0  0  0  0  0  0  0
  152.0064  140.8035  157.7394 C   0  0  0  0  0  0  0  0  0  0  0  0
  152.2884  139.9517  156.7108 N   0  5  0  0  0  0  0  0  0  0  0  0
  151.4966  139.8452  155.6032 C   0  0  0  0  0  0  0  0  0  0  0  0
  151.7565  139.0978  154.6601 O   0  0  0  0  0  0  0  0  0  0  0  0
  150.3196  140.6376  155.5236 N   0  0  0  0  0  0  0  0  0  0  0  0
  149.4392  140.5425  154.3012 C   0  0  2  0  0  0  0  0  0  0  0  0
  148.3459  141.6054  154.3265 C   0  0  0  0  0  0  0  0  0  0  0  0
  147.1971  140.9075  153.6051 C   0  0  2  0  0  0  0  0  0  0  0  0
  146.0008  141.0489  154.3491 O   0  0  0  0  0  0  0  0  0  0  0  0
  147.6636  139.4424  153.4299 C   0  0  2  0  0  0  0  0  0  0  0  0
  146.6217  138.3532  153.7466 C   0  0  0  0  0  0  0  0  0  0  0  0
  147.2115  137.0738  153.6546 O   0  0  0  0  0  0  0  0  0  0  0  0
  148.7764  139.3223  154.3064 O   0  0  0  0  0  0  0  0  0  0  0  0
  150.0185  141.5256  156.5421 C   0  0  0  0  0  0  0  0  0  0  0  0
  150.8077  141.6332  157.6306 C   0  0  0  0  0  0  0  0  0  0  0  0
  150.4915  142.5054  158.6035 F   0  0  0  0  0  0  0  0  0  0  0  0
  150.0846  140.5909  153.4220 H   0  0  0  0  0  0  0  0  0  0  0  0
  147.0370  141.3575  152.6247 H   0  0  0  0  0  0  0  0  0  0  0  0
  148.0244  139.3251  152.4059 H   0  0  0  0  0  0  0  0  0  0  0  0
  148.0871  141.8329  155.3625 H   0  0  0  0  0  0  0  0  0  0  0  0
  148.6839  142.5193  153.8369 H   0  0  0  0  0  0  0  0  0  0  0  0
  145.2677  140.9228  153.7665 H   0  0  0  0  0  0  0  0  0  0  0  0
  146.1829  138.4996  154.7341 H   0  0  0  0  0  0  0  0  0  0  0  0
  145.8100  138.3791  153.0194 H   0  0  0  0  0  0  0  0  0  0  0  0
  147.9122  137.1110  153.0218 H   0  0  0  0  0  0  0  0  0  0  0  0
  149.1417  142.1519  156.4695 H   0  0  0  0  0  0  0  0  0  0  0  0
  1  2  2  0  0  0  0
  2 16  1  0  0  0  0
  2  3  1  0  0  0  0
  3  4  1  0  0  0  0
  4  5  2  0  0  0  0
  4  6  1  0  0  0  0
  6  7  1  0  0  0  0
  6 15  1  0  0  0  0
  7 18  1  0  0  0  0
  7 14  1  0  0  0  0
  7  8  1  0  0  0  0
  8  9  1  0  0  0  0
  8 21  1  0  0  0  0
  8 22  1  0  0  0  0
  9 19  1  0  0  0  0
  9 10  1  0  0  0  0
  9 11  1  0  0  0  0
 10 23  1  0  0  0  0
 11 20  1  0  0  0  0
 11 12  1  0  0  0  0
 11 14  1  0  0  0  0
 12 13  1  0  0  0  0
 12 24  1  0  0  0  0
 12 25  1  0  0  0  0
 13 26  1  0  0  0  0
 15 16  2  0  0  0  0
 15 27  1  0  0  0  0
 16 17  1  0  0  0  0
M  CHG  1   3  -1
M  END
> <s_m_source_file>
AV-unprocessed.smi

> <i_m_source_file_index>
38

> <i_lp_mmshare_version>
43012

> <i_f3d_flags>
0

> <s_epik_input>
Tz1jMVtuSF1jKD1PKW4oW2NIXWMxRilbQ0BIXTJbQ0gyXVtDQEhdKFtPSF0pW0NASF0oTzIpW0NIMl1bT0hd

> <s_epik_cmdline>
J2VwaWtfcHl0aG9uJywgJy1waCcsICc3LjAnLCAnLXRuJywgJzgnLCAnLW1hJywgJzIwMCcsICctbWV0YWxfYmluZGluZycsICctaW1hZScsICc8aW5maWxlLm1hZT4nLCAnLW9tYWUnLCAnPG91dGZpbGUubWFlPic=

> <r_epik_Ionization_Penalty>
1.68146

> <r_epik_Ionization_Penalty_Charging>
3.4211e-08

> <r_epik_Ionization_Penalty_Neutral>
1.68146

> <r_epik_State_Penalty>
1.78593

> <r_epik_Charging_Adjusted_Penalty>
1.78593

> <i_epik_Tot_Q>
-1

> <i_epik_Tot_abs_Q>
1

> <r_epik_Metal_State_Penalty>
0.0113696

> <b_epik_Metal_Only>
0

> <s_epik_Chemistry_Notes>
This compound contains an acetal/aminal-like group ( X-CH(R)-Y where X, Y are N, S, or O) that may be acid/base labile, releasing an aldehyde.

> <s_lp_Force_Field>
OPLS_2005

> <r_lp_Energy>
42.0277

> <b_lp_Chiralities_Consistent>
1

> <s_lp_Variant>
AV-unprocessed.smi:38-14

> <Gold.Version>
5.8.1

> <Gold.Id.Protein>
6NUR|6NUR_protein|mol2

> <Gold.PLP.Fitness>
43.1238

> <Gold.PLP.PLP>
-27.8713

> <Gold.PLP.part.hbond>
-4.0000

> <Gold.PLP.part.metal>
0.0000

> <Gold.PLP.part.buried>
1.5361

> <Gold.PLP.part.nonpolar>
-23.2250

> <Gold.PLP.part.repulsive>
0.2082

> <Gold.PLP.ligand.clash>
0.0000

> <Gold.PLP.ligand.torsion>
0.1562

> <Gold.PLP.Chemscore.Hbond>
4.1811

> <Gold.PLP.Chemscore.CHOScore>
1.0000

> <Gold.PLP.Chemscore.Metal>
0.0000

> <Gold.Chemscore.Hbonds>
donor molecule, donor type, donor heavy atom, donor atom, acceptor molecule, acceptor atom, score
      L1  H    10    23       P1 10175  0.88
      L1  H    13    26       P1  7948  0.96
      P1  H  7989  7998       L1     5  0.20
      P1  H  7997  8010       L1     3  1.79
      L1  C    15    27       P1  8028  0.57

> <Gold.PLP.Chemscore.Internal.Correction>
0.0216

> <Gold.Rescore>
     Score         DG    S(hbond)    S(metal)    S(lipo)     H(rot)  DE(clash)    DE(int)     intcor
      9.75     -11.03       2.58        0.00      36.94       2.88       0.05       1.22       ----

> <Gold.Chemscore.Fitness>
9.7547

> <Gold.Chemscore.DG>
-11.0259

> <Gold.Chemscore.ZeroCoef>
-5.4800

> <Gold.Chemscore.Hbond>
2.5751

> <Gold.Chemscore.Metal>
0.0000

> <Gold.Chemscore.Lipo>
36.9375

> <Gold.Chemscore.Internal_Hbond>
0.0000

> <Gold.Chemscore.DEClash>
0.0544

> <Gold.Chemscore.DEInternal>
1.2168

> <Gold.Chemscore.Rot>
2.8815

> <Gold.Chemscore.Internal.Correction>
   9.000000E+99

> <Gold.Chemscore.Hbonds>
donor molecule, donor type, donor heavy atom, donor atom, acceptor molecule, acceptor atom, score
      L1  H    10    23       P1 10175  0.72
      L1  H    13    26       P1  7948  0.92
      P1  H  7997  8010       L1     3  0.38

> <Gold.Chemscore.Hbond.Weighted>
-8.6008

> <Gold.Chemscore.Metal.Weighted>
-0.0000

> <Gold.Chemscore.Lipo.Weighted>
-4.3217

> <Gold.Chemscore.Internal_Hbond.Weighted>
0.0000

> <Gold.Chemscore.DEClash.Weighted>
0.0544

> <Gold.Chemscore.DEInternal.Weighted>
1.2168

> <Gold.Chemscore.Rot.Weighted>
7.3765

> <Gold.Chemscore.Internal.Correction.Weighted>
   9.000000E+99

> <Gold.Protein.RotatedTorsions>
[ 6907 6896 6895 6894 ] final  -54.33 input  -60.11 | X-H torsion
[ 7974 7965 7964 7962 ] final   45.95 input  175.53 | X-H torsion
[ 8008 7997 7996 7995 ] final   70.39 input   59.86 | X-H torsion
[ 10167 10162 10161 10158 ] final  112.74 input  -65.29 | X-H torsion
[ 10718 10713 10712 10709 ] final   56.21 input   66.30 | X-H torsion
[ 10763 10752 10751 10750 ] final -120.36 input  -60.55 | X-H torsion
[ 11005 11000 10999 10996 ] final   50.80 input  -57.11 | X-H torsion

> <Gold.Protein.ActiveResidues>
 VAL166  LYS551  ARG553  GLY616  TRP617  ASP618  TYR619  PRO620  LYS621  CYS622 
 ASP623  PHE694  ASN695  SER759  ASP760  ASP761  ALA762  ILE779  LEU786  VAL792 
 PHE793  MET794  SER795  GLU796  ALA797  LYS798  CYS799  TRP800  GLU811  SER814 

> <Gold.Protein.RotatedAtoms>
  150.8347  134.7615  159.6882 H   0  0  0  0  0  0  0  0  0  0  0  0  # atno 6907 bound_to 6896
  152.4446  134.5518  159.9879 H   0  0  0  0  0  0  0  0  0  0  0  0  # atno 6908 bound_to 6896
  151.5671  133.3357  159.3018 H   0  0  0  0  0  0  0  0  0  0  0  0  # atno 6909 bound_to 6896
  146.0434  139.4909  142.9764 H   0  0  0  0  0  0  0  0  0  0  0  0  # atno 7974 bound_to 7965
  155.7381  140.3491  155.5091 H   0  0  0  0  0  0  0  0  0  0  0  0  # atno 8008 bound_to 7997
  155.9120  140.1052  157.1293 H   0  0  0  0  0  0  0  0  0  0  0  0  # atno 8009 bound_to 7997
  154.4057  140.1266  156.4556 H   0  0  0  0  0  0  0  0  0  0  0  0  # atno 8010 bound_to 7997
  139.6513  144.7128  151.2042 H   0  0  0  0  0  0  0  0  0  0  0  0  # atno 10167 bound_to 10162
  157.5411  130.8698  149.8824 H   0  0  0  0  0  0  0  0  0  0  0  0  # atno 10718 bound_to 10713
  154.8642  135.4206  154.2446 H   0  0  0  0  0  0  0  0  0  0  0  0  # atno 10763 bound_to 10752
  153.3405  135.6993  153.6877 H   0  0  0  0  0  0  0  0  0  0  0  0  # atno 10764 bound_to 10752
  153.5857  135.3564  155.2865 H   0  0  0  0  0  0  0  0  0  0  0  0  # atno 10765 bound_to 10752
  140.0987  134.5111  155.8783 H   0  0  0  0  0  0  0  0  0  0  0  0  # atno 11005 bound_to 11000
  145.6846  141.0181  143.1588 LP  0  0  0  0  0  0  0  0  0  0  0  0  # atno 17320 bound_to 7965
  144.7086  139.8461  143.7422 LP  0  0  0  0  0  0  0  0  0  0  0  0  # atno 17321 bound_to 7965
  140.7539  143.6145  150.8573 LP  0  0  0  0  0  0  0  0  0  0  0  0  # atno 17342 bound_to 10162
  139.9793  143.5969  152.2948 LP  0  0  0  0  0  0  0  0  0  0  0  0  # atno 17343 bound_to 10162
  156.0498  130.3720  150.1230 LP  0  0  0  0  0  0  0  0  0  0  0  0  # atno 17370 bound_to 10713
  156.9409  130.9744  151.3516 LP  0  0  0  0  0  0  0  0  0  0  0  0  # atno 17371 bound_to 10713
  141.2099  133.6689  156.6474 LP  0  0  0  0  0  0  0  0  0  0  0  0  # atno 17394 bound_to 11000
  140.3250  134.7976  157.4282 LP  0  0  0  0  0  0  0  0  0  0  0  0  # atno 17395 bound_to 11000

$$$$
