AV-unprocessed.smi:3085|AV-procd|sdf|11752|dock10
  -GOLD-   2272017143D 1   1.00000     0.00000
 Structure written by MMmdl.
 28 29  0  0  0  0  0  0  0  0  2 V2000
  144.7043  134.2133  156.3541 C   0  0  0  0  0  0  0  0  0  0  0  0
  146.0188  133.5534  155.9227 C   0  0  0  0  0  0  0  0  0  0  0  0
  146.3260  133.7961  154.4821 C   0  0  0  0  0  0  0  0  0  0  0  0
  145.4992  133.3917  153.4709 N   0  0  0  0  0  0  0  0  0  0  0  0
  146.1630  133.8635  152.4196 C   0  0  0  0  0  0  0  0  0  0  0  0
  145.7316  133.7367  150.9926 C   0  0  2  0  0  0  0  0  0  0  0  0
  144.3614  134.3919  150.7319 C   0  0  0  0  0  0  0  0  0  0  0  0
  143.9435  134.1498  149.3373 N   0  3  0  0  0  0  0  0  0  0  0  0
  143.9464  132.7089  149.0156 C   0  0  0  0  0  0  0  0  0  0  0  0
  145.3229  132.0985  149.3334 C   0  0  0  0  0  0  0  0  0  0  0  0
  145.6548  132.3443  150.6963 O   0  0  0  0  0  0  0  0  0  0  0  0
  147.2789  134.5071  152.7701 N   0  0  0  0  0  0  0  0  0  0  0  0
  147.4053  134.4845  154.1134 N   0  0  0  0  0  0  0  0  0  0  0  0
  147.9473  134.9587  152.1624 H   0  0  0  0  0  0  0  0  0  0  0  0
  144.5044  134.0282  157.4097 H   0  0  0  0  0  0  0  0  0  0  0  0
  143.8624  133.8233  155.7816 H   0  0  0  0  0  0  0  0  0  0  0  0
  144.7392  135.2931  156.2061 H   0  0  0  0  0  0  0  0  0  0  0  0
  146.8402  133.9297  156.5339 H   0  0  0  0  0  0  0  0  0  0  0  0
  145.9692  132.4785  156.1002 H   0  0  0  0  0  0  0  0  0  0  0  0
  146.4933  134.1964  150.3593 H   0  0  0  0  0  0  0  0  0  0  0  0
  143.6068  133.9806  151.4040 H   0  0  0  0  0  0  0  0  0  0  0  0
  144.4051  135.4659  150.9156 H   0  0  0  0  0  0  0  0  0  0  0  0
  143.0164  134.5246  149.1935 H   0  0  0  0  0  0  0  0  0  0  0  0
  143.1702  132.2102  149.5975 H   0  0  0  0  0  0  0  0  0  0  0  0
  143.6978  132.5715  147.9630 H   0  0  0  0  0  0  0  0  0  0  0  0
  145.3062  131.0220  149.1619 H   0  0  0  0  0  0  0  0  0  0  0  0
  146.0925  132.5132  148.6805 H   0  0  0  0  0  0  0  0  0  0  0  0
  144.5888  134.6206  148.7191 H   0  0  0  0  0  0  0  0  0  0  0  0
  1  2  1  0  0  0  0
  1 15  1  0  0  0  0
  1 16  1  0  0  0  0
  1 17  1  0  0  0  0
  2 18  1  0  0  0  0
  2 19  1  0  0  0  0
  2  3  1  0  0  0  0
  3  4  1  0  0  0  0
  3 13  2  0  0  0  0
  4  5  2  0  0  0  0
  5  6  1  0  0  0  0
  5 12  1  0  0  0  0
  6 11  1  0  0  0  0
  6  7  1  0  0  0  0
  6 20  1  0  0  0  0
  7  8  1  0  0  0  0
  7 21  1  0  0  0  0
  7 22  1  0  0  0  0
  8  9  1  0  0  0  0
  8 23  1  0  0  0  0
  8 28  1  0  0  0  0
  9 10  1  0  0  0  0
  9 24  1  0  0  0  0
  9 25  1  0  0  0  0
 10 11  1  0  0  0  0
 10 26  1  0  0  0  0
 10 27  1  0  0  0  0
 12 13  1  0  0  0  0
 12 14  1  0  0  0  0
M  CHG  1   8   1
M  END
> <s_m_source_file>
AV-unprocessed.smi

> <i_m_source_file_index>
3085

> <i_lp_mmshare_version>
43012

> <i_f3d_flags>
0

> <s_epik_input>
W0NIM11bQ0gyXWMxbmMobltuSF0xKVtDQEBIXTJbQ0gyXVtOSF1bQ0gyXVtDSDJdTzI=

> <s_epik_cmdline>
J2VwaWtfcHl0aG9uJywgJy1waCcsICc3LjAnLCAnLXRuJywgJzgnLCAnLW1hJywgJzIwMCcsICctbWV0YWxfYmluZGluZycsICctaW1hZScsICc8aW5maWxlLm1hZT4nLCAnLW9tYWUnLCAnPG91dGZpbGUubWFlPic=

> <r_epik_Ionization_Penalty>
0.162344

> <r_epik_Ionization_Penalty_Charging>
0.125708

> <r_epik_Ionization_Penalty_Neutral>
0.0366364

> <r_epik_State_Penalty>
0.637958

> <r_epik_Charging_Adjusted_Penalty>
0.763666

> <i_epik_Tot_Q>
1

> <i_epik_Tot_abs_Q>
1

> <r_epik_Metal_State_Penalty>
0.860091

> <b_epik_Metal_Only>
0

> <s_lp_Force_Field>
OPLS_2005

> <r_lp_Energy>
9.17309

> <b_lp_Chiralities_Consistent>
1

> <s_lp_Variant>
AV-unprocessed.smi:3085-3

> <Gold.Version>
5.8.1

> <Gold.Id.Protein>
6NUR|6NUR_protein|mol2

> <Gold.PLP.Fitness>
31.6234

> <Gold.PLP.PLP>
-19.6296

> <Gold.PLP.part.hbond>
-3.0000

> <Gold.PLP.part.metal>
0.0000

> <Gold.PLP.part.buried>
-4.4846

> <Gold.PLP.part.nonpolar>
-12.9469

> <Gold.PLP.part.repulsive>
0.4398

> <Gold.PLP.ligand.clash>
0.0000

> <Gold.PLP.ligand.torsion>
0.0069

> <Gold.PLP.Chemscore.Hbond>
4.0000

> <Gold.PLP.Chemscore.CHOScore>
0.0000

> <Gold.PLP.Chemscore.Metal>
0.0000

> <Gold.Chemscore.Hbonds>
donor molecule, donor type, donor heavy atom, donor atom, acceptor molecule, acceptor atom, score
      L1  H     8    23       P1 10186  2.00
      L1  H     8    28       P1  7921  1.00
      L1  H    12    14       P1  7948  1.00

> <Gold.PLP.Chemscore.Internal.Correction>
0.0075

> <Gold.Rescore>
     Score         DG    S(hbond)    S(metal)    S(lipo)     H(rot)  DE(clash)    DE(int)     intcor
     16.41     -16.48       2.90        0.00      39.76       1.30       0.01       0.06       ----

> <Gold.Chemscore.Fitness>
16.4112

> <Gold.Chemscore.DG>
-16.4795

> <Gold.Chemscore.ZeroCoef>
-5.4800

> <Gold.Chemscore.Hbond>
2.8977

> <Gold.Chemscore.Metal>
0.0000

> <Gold.Chemscore.Lipo>
39.7596

> <Gold.Chemscore.Internal_Hbond>
0.0000

> <Gold.Chemscore.DEClash>
0.0063

> <Gold.Chemscore.DEInternal>
0.0621

> <Gold.Chemscore.Rot>
1.3011

> <Gold.Chemscore.Internal.Correction>
   9.000000E+99

> <Gold.Chemscore.Hbonds>
donor molecule, donor type, donor heavy atom, donor atom, acceptor molecule, acceptor atom, score
      L1  H     8    23       P1 10186  0.88
      L1  H     8    28       P1  7921  0.99
      L1  H    12    14       P1  7948  0.66

> <Gold.Chemscore.Hbond.Weighted>
-9.6785

> <Gold.Chemscore.Metal.Weighted>
-0.0000

> <Gold.Chemscore.Lipo.Weighted>
-4.6519

> <Gold.Chemscore.Internal_Hbond.Weighted>
0.0000

> <Gold.Chemscore.DEClash.Weighted>
0.0063

> <Gold.Chemscore.DEInternal.Weighted>
0.0621

> <Gold.Chemscore.Rot.Weighted>
3.3308

> <Gold.Chemscore.Internal.Correction.Weighted>
   9.000000E+99

> <Gold.Protein.RotatedTorsions>
[ 6907 6896 6895 6894 ] final -148.98 input  -60.11 | X-H torsion
[ 7974 7965 7964 7962 ] final  -58.23 input  175.53 | X-H torsion
[ 8008 7997 7996 7995 ] final  149.74 input   59.86 | X-H torsion
[ 10167 10162 10161 10158 ] final  168.90 input  -65.29 | X-H torsion
[ 10718 10713 10712 10709 ] final  136.05 input   66.30 | X-H torsion
[ 10763 10752 10751 10750 ] final  150.50 input  -60.55 | X-H torsion
[ 11005 11000 10999 10996 ] final   79.05 input  -57.11 | X-H torsion

> <Gold.Protein.ActiveResidues>
 VAL166  LYS551  ARG553  GLY616  TRP617  ASP618  TYR619  PRO620  LYS621  CYS622 
 ASP623  PHE694  ASN695  SER759  ASP760  ASP761  ALA762  ILE779  LEU786  VAL792 
 PHE793  MET794  SER795  GLU796  ALA797  LYS798  CYS799  TRP800  GLU811  SER814 

> <Gold.Protein.RotatedAtoms>
  151.1775  133.4745  159.2593 H   0  0  0  0  0  0  0  0  0  0  0  0  # atno 6907 bound_to 6896
  151.1293  135.0121  159.8585 H   0  0  0  0  0  0  0  0  0  0  0  0  # atno 6908 bound_to 6896
  152.5459  134.1679  159.8638 H   0  0  0  0  0  0  0  0  0  0  0  0  # atno 6909 bound_to 6896
  145.8417  140.8412  143.0031 H   0  0  0  0  0  0  0  0  0  0  0  0  # atno 7974 bound_to 7965
  156.2743  140.2093  156.5906 H   0  0  0  0  0  0  0  0  0  0  0  0  # atno 8008 bound_to 7997
  154.6985  140.0523  157.0458 H   0  0  0  0  0  0  0  0  0  0  0  0  # atno 8009 bound_to 7997
  155.0767  140.3182  155.4616 H   0  0  0  0  0  0  0  0  0  0  0  0  # atno 8010 bound_to 7997
  139.4979  144.3765  151.9669 H   0  0  0  0  0  0  0  0  0  0  0  0  # atno 10167 bound_to 10162
  157.4506  131.1065  151.0037 H   0  0  0  0  0  0  0  0  0  0  0  0  # atno 10718 bound_to 10713
  154.0885  135.2854  155.3276 H   0  0  0  0  0  0  0  0  0  0  0  0  # atno 10763 bound_to 10752
  154.6636  135.5325  153.8052 H   0  0  0  0  0  0  0  0  0  0  0  0  # atno 10764 bound_to 10752
  153.0422  135.6540  154.1055 H   0  0  0  0  0  0  0  0  0  0  0  0  # atno 10765 bound_to 10752
  139.9188  134.7812  156.1728 H   0  0  0  0  0  0  0  0  0  0  0  0  # atno 11005 bound_to 11000
  144.6733  140.0822  143.7469 LP  0  0  0  0  0  0  0  0  0  0  0  0  # atno 17320 bound_to 7965
  145.9458  139.2699  143.1242 LP  0  0  0  0  0  0  0  0  0  0  0  0  # atno 17321 bound_to 7965
  140.3201  144.3438  150.6012 LP  0  0  0  0  0  0  0  0  0  0  0  0  # atno 17342 bound_to 10162
  140.5729  143.2179  151.7566 LP  0  0  0  0  0  0  0  0  0  0  0  0  # atno 17343 bound_to 10162
  157.0868  130.5926  149.5431 LP  0  0  0  0  0  0  0  0  0  0  0  0  # atno 17370 bound_to 10713
  155.9986  130.5060  150.7575 LP  0  0  0  0  0  0  0  0  0  0  0  0  # atno 17371 bound_to 10713
  141.0690  133.6806  156.2101 LP  0  0  0  0  0  0  0  0  0  0  0  0  # atno 17394 bound_to 11000
  140.6538  134.5039  157.5579 LP  0  0  0  0  0  0  0  0  0  0  0  0  # atno 17395 bound_to 11000

$$$$
