AV-unprocessed.smi:1349|AV-procd|sdf|5518|dock4
  -GOLD-   22720 5103D 1   1.00000     0.00000
 Structure written by MMmdl.
 42 44  0  0  0  0  0  0  0  0  1 V2000
  149.2896  141.2346  153.3558 O   0  0  0  0  0  0  0  0  0  0  0  0
  149.0953  141.2553  154.7546 C   0  0  0  0  0  0  0  0  0  0  0  0
  149.1200  139.8309  155.3280 C   0  0  0  0  0  0  0  0  0  0  0  0
  148.8596  139.7793  156.8431 C   0  0  0  0  0  0  0  0  0  0  0  0
  150.0973  140.0495  157.6499 C   0  0  0  0  0  0  0  0  0  0  0  0
  150.5552  141.2938  157.7996 N   0  0  0  0  0  0  0  0  0  0  0  0
  151.6861  141.1164  158.5700 C   0  0  0  0  0  0  0  0  0  0  0  0
  152.6210  142.0567  159.0593 C   0  0  0  0  0  0  0  0  0  0  0  0
  153.7174  141.6340  159.8391 C   0  0  0  0  0  0  0  0  0  0  0  0
  153.8936  140.2680  160.1405 C   0  0  0  0  0  0  0  0  0  0  0  0
  152.9721  139.3154  159.6641 C   0  0  0  0  0  0  0  0  0  0  0  0
  151.8794  139.7426  158.8852 C   0  0  0  0  0  0  0  0  0  0  0  0
  150.8157  139.0800  158.2787 N   0  0  0  0  0  0  0  0  0  0  0  0
  150.5778  137.6433  158.3482 C   0  0  0  0  0  0  0  0  0  0  0  0
  149.8190  137.2319  159.6170 C   0  0  0  0  0  0  0  0  0  0  0  0
  149.2097  135.9605  159.4364 O   0  0  0  0  0  0  0  0  0  0  0  0
  148.3639  135.4997  160.4238 C   0  0  0  0  0  0  0  0  0  0  0  0
  147.8765  134.1825  160.2914 C   0  0  0  0  0  0  0  0  0  0  0  0
  147.0076  133.6331  161.2537 C   0  0  0  0  0  0  0  0  0  0  0  0
  146.6158  134.3993  162.3664 C   0  0  0  0  0  0  0  0  0  0  0  0
  147.0941  135.7143  162.5130 C   0  0  0  0  0  0  0  0  0  0  0  0
  147.9621  136.2639  161.5492 C   0  0  0  0  0  0  0  0  0  0  0  0
  149.3638  140.3351  153.0756 H   0  0  0  0  0  0  0  0  0  0  0  0
  149.8905  141.8513  155.2030 H   0  0  0  0  0  0  0  0  0  0  0  0
  148.1514  141.7505  154.9849 H   0  0  0  0  0  0  0  0  0  0  0  0
  148.3961  139.2089  154.8024 H   0  0  0  0  0  0  0  0  0  0  0  0
  150.0964  139.3911  155.1218 H   0  0  0  0  0  0  0  0  0  0  0  0
  148.1094  140.5239  157.1113 H   0  0  0  0  0  0  0  0  0  0  0  0
  148.4278  138.8166  157.1049 H   0  0  0  0  0  0  0  0  0  0  0  0
  152.4940  143.1051  158.8334 H   0  0  0  0  0  0  0  0  0  0  0  0
  154.4262  142.3613  160.2073 H   0  0  0  0  0  0  0  0  0  0  0  0
  154.7362  139.9516  160.7379 H   0  0  0  0  0  0  0  0  0  0  0  0
  153.1048  138.2687  159.8939 H   0  0  0  0  0  0  0  0  0  0  0  0
  149.9921  137.3579  157.4740 H   0  0  0  0  0  0  0  0  0  0  0  0
  151.5141  137.0963  158.2563 H   0  0  0  0  0  0  0  0  0  0  0  0
  150.5102  137.2044  160.4608 H   0  0  0  0  0  0  0  0  0  0  0  0
  149.0557  137.9809  159.8328 H   0  0  0  0  0  0  0  0  0  0  0  0
  148.1678  133.5848  159.4413 H   0  0  0  0  0  0  0  0  0  0  0  0
  146.6418  132.6237  161.1371 H   0  0  0  0  0  0  0  0  0  0  0  0
  145.9497  133.9794  163.1058 H   0  0  0  0  0  0  0  0  0  0  0  0
  146.7949  136.3039  163.3669 H   0  0  0  0  0  0  0  0  0  0  0  0
  148.3062  137.2758  161.6984 H   0  0  0  0  0  0  0  0  0  0  0  0
  1  2  1  0  0  0  0
  1 23  1  0  0  0  0
  2  3  1  0  0  0  0
  2 24  1  0  0  0  0
  2 25  1  0  0  0  0
  3  4  1  0  0  0  0
  3 26  1  0  0  0  0
  3 27  1  0  0  0  0
  4  5  1  0  0  0  0
  4 28  1  0  0  0  0
  4 29  1  0  0  0  0
  5 13  1  0  0  0  0
  5  6  2  0  0  0  0
  6  7  1  0  0  0  0
  7 12  2  0  0  0  0
  7  8  1  0  0  0  0
  8  9  2  0  0  0  0
  8 30  1  0  0  0  0
  9 10  1  0  0  0  0
  9 31  1  0  0  0  0
 10 11  2  0  0  0  0
 10 32  1  0  0  0  0
 11 12  1  0  0  0  0
 11 33  1  0  0  0  0
 12 13  1  0  0  0  0
 13 14  1  0  0  0  0
 14 15  1  0  0  0  0
 14 34  1  0  0  0  0
 14 35  1  0  0  0  0
 15 16  1  0  0  0  0
 15 36  1  0  0  0  0
 15 37  1  0  0  0  0
 16 17  1  0  0  0  0
 17 22  1  0  0  0  0
 17 18  2  0  0  0  0
 18 19  1  0  0  0  0
 18 38  1  0  0  0  0
 19 20  2  0  0  0  0
 19 39  1  0  0  0  0
 20 21  1  0  0  0  0
 20 40  1  0  0  0  0
 21 22  2  0  0  0  0
 21 41  1  0  0  0  0
 22 42  1  0  0  0  0
M  END
> <s_m_source_file>
AV-unprocessed.smi

> <i_m_source_file_index>
1349

> <i_lp_mmshare_version>
43012

> <i_f3d_flags>
0

> <s_epik_input>
W09IXVtDSDJdW0NIMl1bQ0gyXWMobjEpbihjKGMxMilbY0hdW2NIXVtjSF1bY0hdMilbQ0gyXVtDSDJdT2MzW2NIXVtjSF1bY0hdW2NIXVtjSF0z

> <s_epik_cmdline>
J2VwaWtfcHl0aG9uJywgJy1waCcsICc3LjAnLCAnLXRuJywgJzgnLCAnLW1hJywgJzIwMCcsICctbWV0YWxfYmluZGluZycsICctaW1hZScsICc8aW5maWxlLm1hZT4nLCAnLW9tYWUnLCAnPG91dGZpbGUubWFlPic=

> <r_lp_tautomer_probability>
1

> <r_epik_Ionization_Penalty>
0.159315

> <r_epik_Ionization_Penalty_Charging>
0

> <r_epik_Ionization_Penalty_Neutral>
0.159315

> <r_epik_State_Penalty>
0.148622

> <r_epik_Charging_Adjusted_Penalty>
0.148622

> <i_epik_Tot_Q>
0

> <i_epik_Tot_abs_Q>
0

> <r_epik_Metal_State_Penalty>
0.0001689

> <b_epik_Metal_Only>
0

> <s_lp_Force_Field>
OPLS_2005

> <r_lp_Energy>
15.4549

> <b_lp_Chiralities_Consistent>
1

> <s_lp_Variant>
AV-unprocessed.smi:1349-1

> <Gold.Version>
5.8.1

> <Gold.Id.Protein>
6NUR|6NUR_protein|mol2

> <Gold.PLP.Fitness>
49.2040

> <Gold.PLP.PLP>
-43.5792

> <Gold.PLP.part.hbond>
-4.0000

> <Gold.PLP.part.metal>
0.0000

> <Gold.PLP.part.buried>
-4.6202

> <Gold.PLP.part.nonpolar>
-35.6888

> <Gold.PLP.part.repulsive>
0.0328

> <Gold.PLP.ligand.clash>
0.0000

> <Gold.PLP.ligand.torsion>
0.8370

> <Gold.PLP.Chemscore.Hbond>
2.3725

> <Gold.PLP.Chemscore.CHOScore>
0.0000

> <Gold.PLP.Chemscore.Metal>
0.0000

> <Gold.Chemscore.Hbonds>
donor molecule, donor type, donor heavy atom, donor atom, acceptor molecule, acceptor atom, score
      L1  H     1    23       P1  7957  0.32
      P1  H  6896  6909       L1    16  1.00
      P1  H  8011  8017       L1     1  1.00

> <Gold.PLP.Chemscore.Internal.Correction>
0.1813

> <Gold.Rescore>
     Score         DG    S(hbond)    S(metal)    S(lipo)     H(rot)  DE(clash)    DE(int)     intcor
     16.69     -17.72       1.62        0.00     111.44       2.42       0.13       0.90       ----

> <Gold.Chemscore.Fitness>
16.6922

> <Gold.Chemscore.DG>
-17.7179

> <Gold.Chemscore.ZeroCoef>
-5.4800

> <Gold.Chemscore.Hbond>
1.6151

> <Gold.Chemscore.Metal>
0.0000

> <Gold.Chemscore.Lipo>
111.4419

> <Gold.Chemscore.Internal_Hbond>
0.0000

> <Gold.Chemscore.DEClash>
0.1288

> <Gold.Chemscore.DEInternal>
0.8969

> <Gold.Chemscore.Rot>
2.4201

> <Gold.Chemscore.Internal.Correction>
   9.000000E+99

> <Gold.Chemscore.Hbonds>
donor molecule, donor type, donor heavy atom, donor atom, acceptor molecule, acceptor atom, score
      L1  H     1    23       P1  7957  0.32
      P1  H  6896  6909       L1    16  0.12
      P1  H  8011  8017       L1     1  0.93

> <Gold.Chemscore.Hbond.Weighted>
-5.3945

> <Gold.Chemscore.Metal.Weighted>
-0.0000

> <Gold.Chemscore.Lipo.Weighted>
-13.0387

> <Gold.Chemscore.Internal_Hbond.Weighted>
0.0000

> <Gold.Chemscore.DEClash.Weighted>
0.1288

> <Gold.Chemscore.DEInternal.Weighted>
0.8969

> <Gold.Chemscore.Rot.Weighted>
6.1954

> <Gold.Chemscore.Internal.Correction.Weighted>
   9.000000E+99

> <Gold.Protein.RotatedTorsions>
[ 6907 6896 6895 6894 ] final   58.46 input  -60.11 | X-H torsion
[ 7974 7965 7964 7962 ] final   32.51 input  175.53 | X-H torsion
[ 8008 7997 7996 7995 ] final  -93.67 input   59.86 | X-H torsion
[ 10167 10162 10161 10158 ] final -163.46 input  -65.29 | X-H torsion
[ 10718 10713 10712 10709 ] final  -39.73 input   66.30 | X-H torsion
[ 10763 10752 10751 10750 ] final  -51.80 input  -60.55 | X-H torsion
[ 11005 11000 10999 10996 ] final -167.85 input  -57.11 | X-H torsion

> <Gold.Protein.ActiveResidues>
 VAL166  LYS551  ARG553  GLY616  TRP617  ASP618  TYR619  PRO620  LYS621  CYS622 
 ASP623  PHE694  ASN695  SER759  ASP760  ASP761  ALA762  ILE779  LEU786  VAL792 
 PHE793  MET794  SER795  GLU796  ALA797  LYS798  CYS799  TRP800  GLU811  SER814 

> <Gold.Protein.RotatedAtoms>
  152.3826  134.6566  160.0136 H   0  0  0  0  0  0  0  0  0  0  0  0  # atno 6907 bound_to 6896
  151.6824  133.3306  159.3231 H   0  0  0  0  0  0  0  0  0  0  0  0  # atno 6908 bound_to 6896
  150.7760  134.6705  159.6433 H   0  0  0  0  0  0  0  0  0  0  0  0  # atno 6909 bound_to 6896
  146.1481  139.6516  142.9117 H   0  0  0  0  0  0  0  0  0  0  0  0  # atno 7974 bound_to 7965
  154.7386  140.0496  157.0791 H   0  0  0  0  0  0  0  0  0  0  0  0  # atno 8008 bound_to 7997
  155.0207  140.3146  155.4775 H   0  0  0  0  0  0  0  0  0  0  0  0  # atno 8009 bound_to 7997
  156.2859  140.2167  156.5325 H   0  0  0  0  0  0  0  0  0  0  0  0  # atno 8010 bound_to 7997
  139.6319  144.0423  152.2023 H   0  0  0  0  0  0  0  0  0  0  0  0  # atno 10167 bound_to 10162
  156.2892  130.4226  149.8256 H   0  0  0  0  0  0  0  0  0  0  0  0  # atno 10718 bound_to 10713
  154.1325  135.6518  153.4925 H   0  0  0  0  0  0  0  0  0  0  0  0  # atno 10763 bound_to 10752
  153.0191  135.5296  154.6987 H   0  0  0  0  0  0  0  0  0  0  0  0  # atno 10764 bound_to 10752
  154.6225  135.2966  155.0280 H   0  0  0  0  0  0  0  0  0  0  0  0  # atno 10765 bound_to 10752
  140.5486  134.5451  157.5117 H   0  0  0  0  0  0  0  0  0  0  0  0  # atno 11005 bound_to 11000
  145.4888  141.0438  143.2605 LP  0  0  0  0  0  0  0  0  0  0  0  0  # atno 17320 bound_to 7965
  144.7871  139.6404  143.7129 LP  0  0  0  0  0  0  0  0  0  0  0  0  # atno 17321 bound_to 7965
  140.0091  144.6237  150.7663 LP  0  0  0  0  0  0  0  0  0  0  0  0  # atno 17342 bound_to 10162
  140.7444  143.2860  151.3463 LP  0  0  0  0  0  0  0  0  0  0  0  0  # atno 17343 bound_to 10162
  156.5675  130.8410  151.3347 LP  0  0  0  0  0  0  0  0  0  0  0  0  # atno 17370 bound_to 10713
  157.7337  130.9735  150.1993 LP  0  0  0  0  0  0  0  0  0  0  0  0  # atno 17371 bound_to 10713
  139.9467  134.7690  156.0546 LP  0  0  0  0  0  0  0  0  0  0  0  0  # atno 17394 bound_to 11000
  141.1185  133.6620  156.3154 LP  0  0  0  0  0  0  0  0  0  0  0  0  # atno 17395 bound_to 11000

$$$$
