AV-unprocessed.smi:2474|AV-procd|sdf|9751|dock8
  -GOLD-   2272013393D 1   1.00000     0.00000
 Structure written by MMmdl.
 40 41  0  0  0  0  0  0  0  0  1 V2000
  151.4876  141.1916  158.3805 C   0  0  0  0  0  0  0  0  0  0  0  0
  150.9143  140.7720  157.0699 C   0  0  0  0  0  0  0  0  0  0  0  0
  151.5931  140.3853  155.9410 C   0  0  0  0  0  0  0  0  0  0  0  0
  150.7629  140.0687  154.8639 N   0  0  0  0  0  0  0  0  0  0  0  0
  149.4669  140.2073  155.1581 C   0  0  0  0  0  0  0  0  0  0  0  0
  148.3607  140.0109  154.1643 C   0  0  2  0  0  0  0  0  0  0  0  0
  147.5911  141.3115  153.8924 C   0  0  0  0  0  0  0  0  0  0  0  0
  147.4342  138.8228  154.5103 C   0  0  0  0  0  0  0  0  0  0  0  0
  147.2088  137.9520  153.3581 N   0  0  0  0  0  0  0  0  0  0  0  0
  146.0224  137.4507  152.9858 C   0  0  0  0  0  0  0  0  0  0  0  0
  144.9469  137.7639  153.4960 O   0  0  0  0  0  0  0  0  0  0  0  0
  146.1567  136.5189  152.0325 N   0  0  0  0  0  0  0  0  0  0  0  0
  145.0792  135.6655  151.5417 C   0  0  2  0  0  0  0  0  0  0  0  0
  144.2116  135.1813  152.7242 C   0  0  0  0  0  0  0  0  0  0  0  0
  143.0269  134.3128  152.2745 C   0  0  0  0  0  0  0  0  0  0  0  0
  143.4787  133.0413  151.5429 C   0  0  0  0  0  0  0  0  0  0  0  0
  144.3895  133.4442  150.0276 S   0  0  0  0  0  0  0  0  0  0  0  0
  145.6819  134.4878  150.7565 C   0  0  0  0  0  0  0  0  0  0  0  0
  149.1897  140.7335  156.8156 S   0  0  0  0  0  0  0  0  0  0  0  0
  152.5775  141.1847  158.3526 H   0  0  0  0  0  0  0  0  0  0  0  0
  151.1666  140.5190  159.1761 H   0  0  0  0  0  0  0  0  0  0  0  0
  151.1648  142.2007  158.6379 H   0  0  0  0  0  0  0  0  0  0  0  0
  152.6632  140.3157  155.8133 H   0  0  0  0  0  0  0  0  0  0  0  0
  148.8481  139.7526  153.2231 H   0  0  0  0  0  0  0  0  0  0  0  0
  148.2628  142.1021  153.5571 H   0  0  0  0  0  0  0  0  0  0  0  0
  147.0806  141.6650  154.7887 H   0  0  0  0  0  0  0  0  0  0  0  0
  146.8381  141.1669  153.1174 H   0  0  0  0  0  0  0  0  0  0  0  0
  147.8460  138.2549  155.3465 H   0  0  0  0  0  0  0  0  0  0  0  0
  146.4653  139.1944  154.8445 H   0  0  0  0  0  0  0  0  0  0  0  0
  148.0306  137.6335  152.8660 H   0  0  0  0  0  0  0  0  0  0  0  0
  147.0824  136.3328  151.6759 H   0  0  0  0  0  0  0  0  0  0  0  0
  144.4576  136.2465  150.8574 H   0  0  0  0  0  0  0  0  0  0  0  0
  144.8257  134.6233  153.4321 H   0  0  0  0  0  0  0  0  0  0  0  0
  143.8231  136.0402  153.2732 H   0  0  0  0  0  0  0  0  0  0  0  0
  142.4362  134.0346  153.1478 H   0  0  0  0  0  0  0  0  0  0  0  0
  142.3656  134.8946  151.6314 H   0  0  0  0  0  0  0  0  0  0  0  0
  144.1139  132.4351  152.1897 H   0  0  0  0  0  0  0  0  0  0  0  0
  142.6150  132.4308  151.2791 H   0  0  0  0  0  0  0  0  0  0  0  0
  146.3193  134.8535  149.9508 H   0  0  0  0  0  0  0  0  0  0  0  0
  146.3069  133.8731  151.4054 H   0  0  0  0  0  0  0  0  0  0  0  0
  1  2  1  0  0  0  0
  1 20  1  0  0  0  0
  1 21  1  0  0  0  0
  1 22  1  0  0  0  0
  2 19  1  0  0  0  0
  2  3  2  0  0  0  0
  3  4  1  0  0  0  0
  3 23  1  0  0  0  0
  4  5  2  0  0  0  0
  5  6  1  0  0  0  0
  5 19  1  0  0  0  0
  6  7  1  0  0  0  0
  6  8  1  0  0  0  0
  6 24  1  0  0  0  0
  7 25  1  0  0  0  0
  7 26  1  0  0  0  0
  7 27  1  0  0  0  0
  8  9  1  0  0  0  0
  8 28  1  0  0  0  0
  8 29  1  0  0  0  0
  9 10  1  0  0  0  0
  9 30  1  0  0  0  0
 10 11  2  0  0  0  0
 10 12  1  0  0  0  0
 12 13  1  0  0  0  0
 12 31  1  0  0  0  0
 13 18  1  0  0  0  0
 13 14  1  0  0  0  0
 13 32  1  0  0  0  0
 14 15  1  0  0  0  0
 14 33  1  0  0  0  0
 14 34  1  0  0  0  0
 15 16  1  0  0  0  0
 15 35  1  0  0  0  0
 15 36  1  0  0  0  0
 16 17  1  0  0  0  0
 16 37  1  0  0  0  0
 16 38  1  0  0  0  0
 17 18  1  0  0  0  0
 18 39  1  0  0  0  0
 18 40  1  0  0  0  0
M  END
> <s_m_source_file>
AV-unprocessed.smi

> <i_m_source_file_index>
2474

> <i_lp_mmshare_version>
43012

> <i_f3d_flags>
0

> <s_epik_input>
W0NIM11jMVtjSF1uYyhzMSlbQ0BIXShbQ0gzXSlbQ0gyXVtOSF1DKD1PKVtOSF1bQ0BASF0yW0NIMl1bQ0gyXVtDSDJdU1tDSDJdMg==

> <s_epik_cmdline>
J2VwaWtfcHl0aG9uJywgJy1waCcsICc3LjAnLCAnLXRuJywgJzgnLCAnLW1hJywgJzIwMCcsICctbWV0YWxfYmluZGluZycsICctaW1hZScsICc8aW5maWxlLm1hZT4nLCAnLW9tYWUnLCAnPG91dGZpbGUubWFlPic=

> <r_epik_Ionization_Penalty>
0.000644338

> <r_epik_Ionization_Penalty_Charging>
0

> <r_epik_Ionization_Penalty_Neutral>
0.000644338

> <r_epik_State_Penalty>
0.000374131

> <r_epik_Charging_Adjusted_Penalty>
0.000374131

> <i_epik_Tot_Q>
0

> <i_epik_Tot_abs_Q>
0

> <r_epik_Metal_State_Penalty>
-0

> <b_epik_Metal_Only>
0

> <s_lp_Force_Field>
OPLS_2005

> <r_lp_Energy>
-6.83814

> <b_lp_Chiralities_Consistent>
1

> <s_lp_Variant>
AV-unprocessed.smi:2474-1

> <Gold.Version>
5.8.1

> <Gold.Id.Protein>
6NUR|6NUR_protein|mol2

> <Gold.PLP.Fitness>
40.9631

> <Gold.PLP.PLP>
-33.8210

> <Gold.PLP.part.hbond>
-3.0000

> <Gold.PLP.part.metal>
0.0000

> <Gold.PLP.part.buried>
-5.6959

> <Gold.PLP.part.nonpolar>
-25.8663

> <Gold.PLP.part.repulsive>
0.5293

> <Gold.PLP.ligand.clash>
0.0000

> <Gold.PLP.ligand.torsion>
0.9938

> <Gold.PLP.Chemscore.Hbond>
3.0000

> <Gold.PLP.Chemscore.CHOScore>
0.0000

> <Gold.PLP.Chemscore.Metal>
0.0000

> <Gold.Chemscore.Hbonds>
donor molecule, donor type, donor heavy atom, donor atom, acceptor molecule, acceptor atom, score
      L1  H     9    30       P1  7948  1.00
      L1  H    12    31       P1  7948  1.00
      P1  H  7989  7998       L1     4  1.00

> <Gold.PLP.Chemscore.Internal.Correction>
0.1297

> <Gold.Rescore>
     Score         DG    S(hbond)    S(metal)    S(lipo)     H(rot)  DE(clash)    DE(int)     intcor
     17.57     -19.85       2.68        0.00      78.45       1.46       0.02       2.27       ----

> <Gold.Chemscore.Fitness>
17.5650

> <Gold.Chemscore.DG>
-19.8549

> <Gold.Chemscore.ZeroCoef>
-5.4800

> <Gold.Chemscore.Hbond>
2.6759

> <Gold.Chemscore.Metal>
0.0000

> <Gold.Chemscore.Lipo>
78.4545

> <Gold.Chemscore.Internal_Hbond>
0.0000

> <Gold.Chemscore.DEClash>
0.0195

> <Gold.Chemscore.DEInternal>
2.2704

> <Gold.Chemscore.Rot>
1.4616

> <Gold.Chemscore.Internal.Correction>
   9.000000E+99

> <Gold.Chemscore.Hbonds>
donor molecule, donor type, donor heavy atom, donor atom, acceptor molecule, acceptor atom, score
      L1  H     9    30       P1  7948  0.94
      L1  H    12    31       P1  7948  0.98
      P1  H  7989  7998       L1     4  0.30

> <Gold.Chemscore.Hbond.Weighted>
-8.9374

> <Gold.Chemscore.Metal.Weighted>
-0.0000

> <Gold.Chemscore.Lipo.Weighted>
-9.1792

> <Gold.Chemscore.Internal_Hbond.Weighted>
0.0000

> <Gold.Chemscore.DEClash.Weighted>
0.0195

> <Gold.Chemscore.DEInternal.Weighted>
2.2704

> <Gold.Chemscore.Rot.Weighted>
3.7416

> <Gold.Chemscore.Internal.Correction.Weighted>
   9.000000E+99

> <Gold.Protein.RotatedTorsions>
[ 6907 6896 6895 6894 ] final   99.99 input  -60.11 | X-H torsion
[ 7974 7965 7964 7962 ] final -104.86 input  175.53 | X-H torsion
[ 8008 7997 7996 7995 ] final   27.32 input   59.86 | X-H torsion
[ 10167 10162 10161 10158 ] final   84.16 input  -65.29 | X-H torsion
[ 10718 10713 10712 10709 ] final  179.68 input   66.30 | X-H torsion
[ 10763 10752 10751 10750 ] final  115.34 input  -60.55 | X-H torsion
[ 11005 11000 10999 10996 ] final -155.52 input  -57.11 | X-H torsion

> <Gold.Protein.ActiveResidues>
 VAL166  LYS551  ARG553  GLY616  TRP617  ASP618  TYR619  PRO620  LYS621  CYS622 
 ASP623  PHE694  ASN695  SER759  ASP760  ASP761  ALA762  ILE779  LEU786  VAL792 
 PHE793  MET794  SER795  GLU796  ALA797  LYS798  CYS799  TRP800  GLU811  SER814 

> <Gold.Protein.RotatedAtoms>
  152.5381  134.0344  159.8039 H   0  0  0  0  0  0  0  0  0  0  0  0  # atno 6907 bound_to 6896
  151.0510  133.5617  159.2649 H   0  0  0  0  0  0  0  0  0  0  0  0  # atno 6908 bound_to 6896
  151.2551  135.0643  159.9130 H   0  0  0  0  0  0  0  0  0  0  0  0  # atno 6909 bound_to 6896
  145.2377  140.9194  143.3168 H   0  0  0  0  0  0  0  0  0  0  0  0  # atno 7974 bound_to 7965
  155.0410  140.3169  155.4724 H   0  0  0  0  0  0  0  0  0  0  0  0  # atno 8008 bound_to 7997
  156.2854  140.2163  156.5477 H   0  0  0  0  0  0  0  0  0  0  0  0  # atno 8009 bound_to 7997
  154.7289  140.0483  157.0696 H   0  0  0  0  0  0  0  0  0  0  0  0  # atno 8010 bound_to 7997
  139.9109  144.6272  150.8539 H   0  0  0  0  0  0  0  0  0  0  0  0  # atno 10167 bound_to 10162
  156.8721  130.9787  151.3072 H   0  0  0  0  0  0  0  0  0  0  0  0  # atno 10718 bound_to 10713
  153.5207  135.3598  155.2630 H   0  0  0  0  0  0  0  0  0  0  0  0  # atno 10763 bound_to 10752
  154.8735  135.4045  154.3263 H   0  0  0  0  0  0  0  0  0  0  0  0  # atno 10764 bound_to 10752
  153.3933  135.7072  153.6546 H   0  0  0  0  0  0  0  0  0  0  0  0  # atno 10765 bound_to 10752
  140.6856  134.4097  157.5223 H   0  0  0  0  0  0  0  0  0  0  0  0  # atno 11005 bound_to 11000
  144.9617  139.3972  143.6352 LP  0  0  0  0  0  0  0  0  0  0  0  0  # atno 17320 bound_to 7965
  146.3336  139.8674  142.8846 LP  0  0  0  0  0  0  0  0  0  0  0  0  # atno 17321 bound_to 7965
  140.7685  143.3366  151.2295 LP  0  0  0  0  0  0  0  0  0  0  0  0  # atno 17342 bound_to 10162
  139.6944  143.9638  152.2875 LP  0  0  0  0  0  0  0  0  0  0  0  0  # atno 17343 bound_to 10162
  157.6189  130.8640  149.9076 LP  0  0  0  0  0  0  0  0  0  0  0  0  # atno 17370 bound_to 10713
  156.0721  130.3684  150.0754 LP  0  0  0  0  0  0  0  0  0  0  0  0  # atno 17371 bound_to 10713
  139.8938  134.8720  156.2204 LP  0  0  0  0  0  0  0  0  0  0  0  0  # atno 17394 bound_to 11000
  141.0283  133.7003  156.1385 LP  0  0  0  0  0  0  0  0  0  0  0  0  # atno 17395 bound_to 11000

$$$$
