AV-unprocessed.smi:2829|AV-procd|sdf|10900|dock6
  -GOLD-   2272015343D 1   1.00000     0.00000
 Structure written by MMmdl.
 50 53  0  0  0  0  0  0  0  0  1 V2000
  151.5160  145.0977  160.3190 C   0  0  0  0  0  0  0  0  0  0  0  0
  151.8193  144.0211  159.2564 C   0  0  0  0  0  0  0  0  0  0  0  0
  150.5009  143.4927  158.6538 C   0  0  0  0  0  0  0  0  0  0  0  0
  152.6104  144.7032  158.1173 C   0  0  0  0  0  0  0  0  0  0  0  0
  152.5980  142.8604  159.9013 C   0  0  0  0  0  0  0  0  0  0  0  0
  153.0792  142.8946  161.2296 C   0  0  0  0  0  0  0  0  0  0  0  0
  153.7725  141.7680  161.7034 C   0  0  0  0  0  0  0  0  0  0  0  0
  153.9487  140.6731  160.8340 C   0  0  0  0  0  0  0  0  0  0  0  0
  154.6476  139.5685  161.3842 N   0  0  0  0  0  0  0  0  0  0  0  0
  155.5466  139.5647  162.3879 C   0  0  0  0  0  0  0  0  0  0  0  0
  155.8415  140.5445  163.0696 O   0  0  0  0  0  0  0  0  0  0  0  0
  156.1183  138.3668  162.6040 N   0  0  0  0  0  0  0  0  0  0  0  0
  157.1256  138.0323  163.6118 C   0  0  2  0  0  0  0  0  0  0  0  0
  157.2812  136.5115  163.8020 C   0  0  1  0  0  0  0  0  0  0  0  0
  158.5870  135.8427  163.4659 C   0  0  0  0  0  0  0  0  0  0  0  0
  159.2804  135.7421  164.8276 C   0  0  0  0  0  0  0  0  0  0  0  0
  158.6631  136.7527  165.6214 O   0  0  0  0  0  0  0  0  0  0  0  0
  157.2740  136.7543  165.3069 C   0  0  1  0  0  0  0  0  0  0  0  0
  156.6452  138.1339  165.0763 C   0  0  0  0  0  0  0  0  0  0  0  0
  155.1744  138.3775  165.4659 C   0  0  0  0  0  0  0  0  0  0  0  0
  155.5606  139.7909  165.9092 C   0  0  0  0  0  0  0  0  0  0  0  0
  157.0214  139.3329  165.9586 C   0  0  0  0  0  0  0  0  0  0  0  0
  153.4613  140.7086  159.5687 N   0  0  0  0  0  0  0  0  0  0  0  0
  152.8009  141.7769  159.1123 N   0  0  0  0  0  0  0  0  0  0  0  0
  150.9800  145.9433  159.8868 H   0  0  0  0  0  0  0  0  0  0  0  0
  152.4339  145.4833  160.7644 H   0  0  0  0  0  0  0  0  0  0  0  0
  150.8978  144.7063  161.1279 H   0  0  0  0  0  0  0  0  0  0  0  0
  149.8529  143.0574  159.4153 H   0  0  0  0  0  0  0  0  0  0  0  0
  150.6893  142.7231  157.9041 H   0  0  0  0  0  0  0  0  0  0  0  0
  149.9361  144.2908  158.1709 H   0  0  0  0  0  0  0  0  0  0  0  0
  152.0400  145.5211  157.6752 H   0  0  0  0  0  0  0  0  0  0  0  0
  152.8414  144.0047  157.3122 H   0  0  0  0  0  0  0  0  0  0  0  0
  153.5487  145.1282  158.4758 H   0  0  0  0  0  0  0  0  0  0  0  0
  152.9338  143.7405  161.8833 H   0  0  0  0  0  0  0  0  0  0  0  0
  154.1556  141.7472  162.7134 H   0  0  0  0  0  0  0  0  0  0  0  0
  154.4878  138.6823  160.9283 H   0  0  0  0  0  0  0  0  0  0  0  0
  155.8170  137.6073  162.0104 H   0  0  0  0  0  0  0  0  0  0  0  0
  158.0933  138.5156  163.4613 H   0  0  0  0  0  0  0  0  0  0  0  0
  156.3938  135.9579  163.4888 H   0  0  0  0  0  0  0  0  0  0  0  0
  158.4515  134.8610  163.0112 H   0  0  0  0  0  0  0  0  0  0  0  0
  159.1719  136.4528  162.7768 H   0  0  0  0  0  0  0  0  0  0  0  0
  159.0907  134.7691  165.2834 H   0  0  0  0  0  0  0  0  0  0  0  0
  160.3592  135.8848  164.7633 H   0  0  0  0  0  0  0  0  0  0  0  0
  156.6822  136.0356  165.8757 H   0  0  0  0  0  0  0  0  0  0  0  0
  154.4489  138.3398  164.6535 H   0  0  0  0  0  0  0  0  0  0  0  0
  154.8565  137.7568  166.3047 H   0  0  0  0  0  0  0  0  0  0  0  0
  155.3753  140.5417  165.1407 H   0  0  0  0  0  0  0  0  0  0  0  0
  155.1474  140.0920  166.8720 H   0  0  0  0  0  0  0  0  0  0  0  0
  157.3349  139.0355  166.9603 H   0  0  0  0  0  0  0  0  0  0  0  0
  157.7281  140.0288  165.5057 H   0  0  0  0  0  0  0  0  0  0  0  0
  1  2  1  0  0  0  0
  1 25  1  0  0  0  0
  1 26  1  0  0  0  0
  1 27  1  0  0  0  0
  2  3  1  0  0  0  0
  2  4  1  0  0  0  0
  2  5  1  0  0  0  0
  3 28  1  0  0  0  0
  3 29  1  0  0  0  0
  3 30  1  0  0  0  0
  4 31  1  0  0  0  0
  4 32  1  0  0  0  0
  4 33  1  0  0  0  0
  5 24  1  0  0  0  0
  5  6  2  0  0  0  0
  6  7  1  0  0  0  0
  6 34  1  0  0  0  0
  7  8  2  0  0  0  0
  7 35  1  0  0  0  0
  8  9  1  0  0  0  0
  8 23  1  0  0  0  0
  9 10  1  0  0  0  0
  9 36  1  0  0  0  0
 10 11  2  0  0  0  0
 10 12  1  0  0  0  0
 12 13  1  0  0  0  0
 12 37  1  0  0  0  0
 13 19  1  0  0  0  0
 13 14  1  0  0  0  0
 13 38  1  0  0  0  0
 14 18  1  0  0  0  0
 14 15  1  0  0  0  0
 14 39  1  0  0  0  0
 15 16  1  0  0  0  0
 15 40  1  0  0  0  0
 15 41  1  0  0  0  0
 16 17  1  0  0  0  0
 16 42  1  0  0  0  0
 16 43  1  0  0  0  0
 17 18  1  0  0  0  0
 18 19  1  0  0  0  0
 18 44  1  0  0  0  0
 19 22  1  0  0  0  0
 19 20  1  0  0  0  0
 20 21  1  0  0  0  0
 20 45  1  0  0  0  0
 20 46  1  0  0  0  0
 21 22  1  0  0  0  0
 21 47  1  0  0  0  0
 21 48  1  0  0  0  0
 22 49  1  0  0  0  0
 22 50  1  0  0  0  0
 23 24  2  0  0  0  0
M  END
> <s_m_source_file>
AV-unprocessed.smi

> <i_m_source_file_index>
2829

> <i_lp_mmshare_version>
43012

> <i_f3d_flags>
0

> <s_epik_input>
W0NIM11DKFtDSDNdKShbQ0gzXSljMVtjSF1bY0hdYyhubjEpW05IXUMoPU8pW05IXVtDQEBIXTJbQ0BIXShbQ0gyXVtDSDJdTzMpW0NAQEhdM0MyNFtDSDJdW0NIMl1bQ0gyXTQ=

> <s_epik_cmdline>
J2VwaWtfcHl0aG9uJywgJy1waCcsICc3LjAnLCAnLXRuJywgJzgnLCAnLW1hJywgJzIwMCcsICctbWV0YWxfYmluZGluZycsICctaW1hZScsICc8aW5maWxlLm1hZT4nLCAnLW9tYWUnLCAnPG91dGZpbGUubWFlPic=

> <r_lp_tautomer_probability>
1

> <r_epik_Ionization_Penalty>
0.011915

> <r_epik_Ionization_Penalty_Charging>
0

> <r_epik_Ionization_Penalty_Neutral>
0.011915

> <r_epik_State_Penalty>
0.00486223

> <r_epik_Charging_Adjusted_Penalty>
0.00486223

> <i_epik_Tot_Q>
0

> <i_epik_Tot_abs_Q>
0

> <r_epik_Metal_State_Penalty>
-0

> <b_epik_Metal_Only>
0

> <s_lp_Force_Field>
OPLS_2005

> <r_lp_Energy>
59.5843

> <b_lp_Chiralities_Consistent>
1

> <s_lp_Variant>
AV-unprocessed.smi:2829-3

> <Gold.Version>
5.8.1

> <Gold.Id.Protein>
6NUR|6NUR_protein|mol2

> <Gold.PLP.Fitness>
40.0490

> <Gold.PLP.PLP>
-40.6544

> <Gold.PLP.part.hbond>
-1.0000

> <Gold.PLP.part.metal>
0.0000

> <Gold.PLP.part.buried>
-6.6899

> <Gold.PLP.part.nonpolar>
-33.2974

> <Gold.PLP.part.repulsive>
0.0054

> <Gold.PLP.ligand.clash>
0.0000

> <Gold.PLP.ligand.torsion>
0.4003

> <Gold.PLP.Chemscore.Hbond>
0.0000

> <Gold.PLP.Chemscore.CHOScore>
0.0000

> <Gold.PLP.Chemscore.Metal>
0.0000

> <Gold.PLP.Chemscore.Internal.Correction>
0.1953

> <Gold.Rescore>
     Score         DG    S(hbond)    S(metal)    S(lipo)     H(rot)  DE(clash)    DE(int)     intcor
     11.66     -14.55       0.00        0.00     102.95       1.16       0.29       2.60       ----

> <Gold.Chemscore.Fitness>
11.6586

> <Gold.Chemscore.DG>
-14.5509

> <Gold.Chemscore.ZeroCoef>
-5.4800

> <Gold.Chemscore.Hbond>
0.0000

> <Gold.Chemscore.Metal>
0.0000

> <Gold.Chemscore.Lipo>
102.9494

> <Gold.Chemscore.Internal_Hbond>
0.0000

> <Gold.Chemscore.DEClash>
0.2881

> <Gold.Chemscore.DEInternal>
2.6043

> <Gold.Chemscore.Rot>
1.1618

> <Gold.Chemscore.Internal.Correction>
   9.000000E+99

> <Gold.Chemscore.Hbond.Weighted>
-0.0000

> <Gold.Chemscore.Metal.Weighted>
-0.0000

> <Gold.Chemscore.Lipo.Weighted>
-12.0451

> <Gold.Chemscore.Internal_Hbond.Weighted>
0.0000

> <Gold.Chemscore.DEClash.Weighted>
0.2881

> <Gold.Chemscore.DEInternal.Weighted>
2.6043

> <Gold.Chemscore.Rot.Weighted>
2.9741

> <Gold.Chemscore.Internal.Correction.Weighted>
   9.000000E+99

> <Gold.Protein.RotatedTorsions>
[ 6907 6896 6895 6894 ] final  103.43 input  -60.11 | X-H torsion
[ 7974 7965 7964 7962 ] final    9.06 input  175.53 | X-H torsion
[ 8008 7997 7996 7995 ] final -108.46 input   59.86 | X-H torsion
[ 10167 10162 10161 10158 ] final   64.71 input  -65.29 | X-H torsion
[ 10718 10713 10712 10709 ] final  -67.43 input   66.30 | X-H torsion
[ 10763 10752 10751 10750 ] final   15.31 input  -60.55 | X-H torsion
[ 11005 11000 10999 10996 ] final  -13.36 input  -57.11 | X-H torsion

> <Gold.Protein.ActiveResidues>
 VAL166  LYS551  ARG553  GLY616  TRP617  ASP618  TYR619  PRO620  LYS621  CYS622 
 ASP623  PHE694  ASN695  SER759  ASP760  ASP761  ALA762  ILE779  LEU786  VAL792 
 PHE793  MET794  SER795  GLU796  ALA797  LYS798  CYS799  TRP800  GLU811  SER814 

> <Gold.Protein.RotatedAtoms>
  152.5295  133.9827  159.7813 H   0  0  0  0  0  0  0  0  0  0  0  0  # atno 6907 bound_to 6896
  151.0078  133.5986  159.2693 H   0  0  0  0  0  0  0  0  0  0  0  0  # atno 6908 bound_to 6896
  151.3072  135.0791  159.9313 H   0  0  0  0  0  0  0  0  0  0  0  0  # atno 6909 bound_to 6896
  146.2408  139.9840  142.8433 H   0  0  0  0  0  0  0  0  0  0  0  0  # atno 7974 bound_to 7965
  154.9446  140.0402  157.2113 H   0  0  0  0  0  0  0  0  0  0  0  0  # atno 8008 bound_to 7997
  154.8037  140.2856  155.5881 H   0  0  0  0  0  0  0  0  0  0  0  0  # atno 8009 bound_to 7997
  156.2964  140.2550  156.2910 H   0  0  0  0  0  0  0  0  0  0  0  0  # atno 8010 bound_to 7997
  140.1192  144.4747  150.6930 H   0  0  0  0  0  0  0  0  0  0  0  0  # atno 10167 bound_to 10162
  156.0558  130.4278  150.1853 H   0  0  0  0  0  0  0  0  0  0  0  0  # atno 10718 bound_to 10713
  153.1537  135.6783  153.8843 H   0  0  0  0  0  0  0  0  0  0  0  0  # atno 10763 bound_to 10752
  153.8261  135.3124  155.3416 H   0  0  0  0  0  0  0  0  0  0  0  0  # atno 10764 bound_to 10752
  154.7882  135.4850  154.0080 H   0  0  0  0  0  0  0  0  0  0  0  0  # atno 10765 bound_to 10752
  140.7753  133.8406  155.9243 H   0  0  0  0  0  0  0  0  0  0  0  0  # atno 11005 bound_to 11000
  145.1565  140.9650  143.4402 LP  0  0  0  0  0  0  0  0  0  0  0  0  # atno 17320 bound_to 7965
  145.0156  139.3470  143.6098 LP  0  0  0  0  0  0  0  0  0  0  0  0  # atno 17321 bound_to 7965
  140.6881  143.2361  151.5204 LP  0  0  0  0  0  0  0  0  0  0  0  0  # atno 17342 bound_to 10162
  139.5577  144.2233  152.1640 LP  0  0  0  0  0  0  0  0  0  0  0  0  # atno 17343 bound_to 10162
  156.9929  130.9899  151.3410 LP  0  0  0  0  0  0  0  0  0  0  0  0  # atno 17370 bound_to 10713
  157.5527  130.8193  149.8165 LP  0  0  0  0  0  0  0  0  0  0  0  0  # atno 17371 bound_to 10713
  140.9534  134.1749  157.4710 LP  0  0  0  0  0  0  0  0  0  0  0  0  # atno 17394 bound_to 11000
  139.8750  134.9918  156.5566 LP  0  0  0  0  0  0  0  0  0  0  0  0  # atno 17395 bound_to 11000

$$$$
