AV-unprocessed.smi:2881|AV-procd|sdf|11065|dock4
  -GOLD-   2272015533D 1   1.00000     0.00000
 Structure written by MMmdl.
 40 42  0  0  0  0  0  0  0  0  1 V2000
  153.0912  141.8598  161.7749 C   0  0  0  0  0  0  0  0  0  0  0  0
  152.4109  141.8870  160.4380 C   0  0  0  0  0  0  0  0  0  0  0  0
  152.1076  143.0203  159.6279 C   0  0  0  0  0  0  0  0  0  0  0  0
  151.4975  142.4940  158.5235 C   0  0  0  0  0  0  0  0  0  0  0  0
  150.9431  143.1450  157.2966 C   0  0  0  0  0  0  0  0  0  0  0  0
  150.5111  142.0981  156.2699 C   0  0  0  0  0  0  0  0  0  0  0  0
  151.1018  141.0205  156.2015 O   0  0  0  0  0  0  0  0  0  0  0  0
  149.4799  142.4278  155.4775 N   0  0  0  0  0  0  0  0  0  0  0  0
  148.8907  141.5577  154.4631 C   0  0  2  0  0  0  0  0  0  0  0  0
  147.6394  142.1583  153.7736 C   0  0  2  0  0  0  0  0  0  0  0  0
  146.6027  142.6475  154.8078 C   0  0  0  0  0  0  0  0  0  0  0  0
  146.0792  141.3294  155.4079 C   0  0  0  0  0  0  0  0  0  0  0  0
  146.8642  140.2606  154.6222 C   0  0  1  0  0  0  0  0  0  0  0  0
  146.9548  140.9049  153.2436 C   0  0  0  0  0  0  0  0  0  0  0  0
  148.3366  140.2533  155.0949 C   0  0  1  0  0  0  0  0  0  0  0  0
  149.1021  138.9894  154.6588 C   0  0  0  0  0  0  0  0  0  0  0  0
  149.2743  138.9870  153.2571 O   0  0  0  0  0  0  0  0  0  0  0  0
  151.4610  141.1317  158.7199 N   0  0  0  0  0  0  0  0  0  0  0  0
  152.0155  140.7499  159.8852 N   0  0  0  0  0  0  0  0  0  0  0  0
  151.0662  140.4600  158.0771 H   0  0  0  0  0  0  0  0  0  0  0  0
  153.4899  142.8410  162.0336 H   0  0  0  0  0  0  0  0  0  0  0  0
  153.9220  141.1538  161.7803 H   0  0  0  0  0  0  0  0  0  0  0  0
  152.3967  141.5656  162.5619 H   0  0  0  0  0  0  0  0  0  0  0  0
  152.3117  144.0622  159.8256 H   0  0  0  0  0  0  0  0  0  0  0  0
  151.6945  143.7998  156.8539 H   0  0  0  0  0  0  0  0  0  0  0  0
  150.0905  143.7767  157.5495 H   0  0  0  0  0  0  0  0  0  0  0  0
  149.0512  143.3329  155.6052 H   0  0  0  0  0  0  0  0  0  0  0  0
  149.6438  141.3224  153.7081 H   0  0  0  0  0  0  0  0  0  0  0  0
  147.8769  142.9022  153.0123 H   0  0  0  0  0  0  0  0  0  0  0  0
  147.0200  143.3161  155.5605 H   0  0  0  0  0  0  0  0  0  0  0  0
  145.7934  143.1842  154.3110 H   0  0  0  0  0  0  0  0  0  0  0  0
  146.2476  141.2646  156.4835 H   0  0  0  0  0  0  0  0  0  0  0  0
  145.0072  141.2307  155.2330 H   0  0  0  0  0  0  0  0  0  0  0  0
  146.3893  139.2792  154.6414 H   0  0  0  0  0  0  0  0  0  0  0  0
  145.9803  141.1006  152.7922 H   0  0  0  0  0  0  0  0  0  0  0  0
  147.5663  140.3438  152.5355 H   0  0  0  0  0  0  0  0  0  0  0  0
  148.3583  140.2994  156.1855 H   0  0  0  0  0  0  0  0  0  0  0  0
  150.0876  138.9638  155.1244 H   0  0  0  0  0  0  0  0  0  0  0  0
  148.5799  138.0809  154.9593 H   0  0  0  0  0  0  0  0  0  0  0  0
  148.8987  138.1929  152.9086 H   0  0  0  0  0  0  0  0  0  0  0  0
  1 21  1  0  0  0  0
  1 22  1  0  0  0  0
  1 23  1  0  0  0  0
  1  2  1  0  0  0  0
  2 19  2  0  0  0  0
  2  3  1  0  0  0  0
  3  4  2  0  0  0  0
  3 24  1  0  0  0  0
  4 18  1  0  0  0  0
  4  5  1  0  0  0  0
  5  6  1  0  0  0  0
  5 25  1  0  0  0  0
  5 26  1  0  0  0  0
  6  7  2  0  0  0  0
  6  8  1  0  0  0  0
  8  9  1  0  0  0  0
  8 27  1  0  0  0  0
  9 15  1  0  0  0  0
  9 10  1  0  0  0  0
  9 28  1  0  0  0  0
 10 14  1  0  0  0  0
 10 11  1  0  0  0  0
 10 29  1  0  0  0  0
 11 12  1  0  0  0  0
 11 30  1  0  0  0  0
 11 31  1  0  0  0  0
 12 13  1  0  0  0  0
 12 32  1  0  0  0  0
 12 33  1  0  0  0  0
 13 14  1  0  0  0  0
 13 15  1  0  0  0  0
 13 34  1  0  0  0  0
 14 35  1  0  0  0  0
 14 36  1  0  0  0  0
 15 16  1  0  0  0  0
 15 37  1  0  0  0  0
 16 17  1  0  0  0  0
 16 38  1  0  0  0  0
 16 39  1  0  0  0  0
 17 40  1  0  0  0  0
 18 19  1  0  0  0  0
 18 20  1  0  0  0  0
M  END
> <s_m_source_file>
AV-unprocessed.smi

> <i_m_source_file_index>
2881

> <i_lp_mmshare_version>
43012

> <i_f3d_flags>
0

> <s_epik_input>
W0NIM11jMVtjSF1jKG5bbkhdMSlbQ0gyXUMoPU8pW05IXVtDQEhdKFtDQEBIXTIzKVtDQEhdKFtDSDJdW09IXSlbQ0BASF0oW0NIMl0zKVtDSDJdW0NIMl0y

> <s_epik_cmdline>
J2VwaWtfcHl0aG9uJywgJy1waCcsICc3LjAnLCAnLXRuJywgJzgnLCAnLW1hJywgJzIwMCcsICctbWV0YWxfYmluZGluZycsICctaW1hZScsICc8aW5maWxlLm1hZT4nLCAnLW9tYWUnLCAnPG91dGZpbGUubWFlPic=

> <r_lp_tautomer_probability>
0.5

> <r_epik_Ionization_Penalty>
0.00013396

> <r_epik_Ionization_Penalty_Charging>
0

> <r_epik_Ionization_Penalty_Neutral>
0.00013396

> <r_epik_State_Penalty>
0.41068

> <r_epik_Charging_Adjusted_Penalty>
0.41068

> <i_epik_Tot_Q>
0

> <i_epik_Tot_abs_Q>
0

> <r_epik_Metal_State_Penalty>
0.41066

> <b_epik_Metal_Only>
0

> <s_lp_Force_Field>
OPLS_2005

> <r_lp_Energy>
46.7591

> <b_lp_Chiralities_Consistent>
1

> <s_lp_Variant>
AV-unprocessed.smi:2881-11

> <Gold.Version>
5.8.1

> <Gold.Id.Protein>
6NUR|6NUR_protein|mol2

> <Gold.PLP.Fitness>
43.8355

> <Gold.PLP.PLP>
-38.7783

> <Gold.PLP.part.hbond>
-2.8655

> <Gold.PLP.part.metal>
0.0000

> <Gold.PLP.part.buried>
-4.8882

> <Gold.PLP.part.nonpolar>
-29.7183

> <Gold.PLP.part.repulsive>
0.3212

> <Gold.PLP.ligand.clash>
0.0000

> <Gold.PLP.ligand.torsion>
0.4852

> <Gold.PLP.Chemscore.Hbond>
2.0000

> <Gold.PLP.Chemscore.CHOScore>
0.0000

> <Gold.PLP.Chemscore.Metal>
0.0000

> <Gold.Chemscore.Hbonds>
donor molecule, donor type, donor heavy atom, donor atom, acceptor molecule, acceptor atom, score
      L1  H     8    27       P1  8028  0.67
      L1  H    17    40       P1  7948  0.59

> <Gold.PLP.Chemscore.Internal.Correction>
0.0277

> <Gold.Rescore>
     Score         DG    S(hbond)    S(metal)    S(lipo)     H(rot)  DE(clash)    DE(int)     intcor
     16.68     -17.55       1.94        0.00      97.48       2.28       0.41       0.47       ----

> <Gold.Chemscore.Fitness>
16.6776

> <Gold.Chemscore.DG>
-17.5516

> <Gold.Chemscore.ZeroCoef>
-5.4800

> <Gold.Chemscore.Hbond>
1.9437

> <Gold.Chemscore.Metal>
0.0000

> <Gold.Chemscore.Lipo>
97.4766

> <Gold.Chemscore.Internal_Hbond>
0.0000

> <Gold.Chemscore.DEClash>
0.4054

> <Gold.Chemscore.DEInternal>
0.4686

> <Gold.Chemscore.Rot>
2.2755

> <Gold.Chemscore.Internal.Correction>
   9.000000E+99

> <Gold.Chemscore.Hbonds>
donor molecule, donor type, donor heavy atom, donor atom, acceptor molecule, acceptor atom, score
      L1  H     8    27       P1  8028  0.67
      L1  H    17    40       P1  7948  0.57

> <Gold.Chemscore.Hbond.Weighted>
-6.4920

> <Gold.Chemscore.Metal.Weighted>
-0.0000

> <Gold.Chemscore.Lipo.Weighted>
-11.4048

> <Gold.Chemscore.Internal_Hbond.Weighted>
0.0000

> <Gold.Chemscore.DEClash.Weighted>
0.4054

> <Gold.Chemscore.DEInternal.Weighted>
0.4686

> <Gold.Chemscore.Rot.Weighted>
5.8252

> <Gold.Chemscore.Internal.Correction.Weighted>
   9.000000E+99

> <Gold.Protein.RotatedTorsions>
[ 6907 6896 6895 6894 ] final  170.54 input  -60.11 | X-H torsion
[ 7974 7965 7964 7962 ] final   52.87 input  175.53 | X-H torsion
[ 8008 7997 7996 7995 ] final  170.71 input   59.86 | X-H torsion
[ 10167 10162 10161 10158 ] final -144.59 input  -65.29 | X-H torsion
[ 10718 10713 10712 10709 ] final -154.80 input   66.30 | X-H torsion
[ 10763 10752 10751 10750 ] final  141.21 input  -60.55 | X-H torsion
[ 11005 11000 10999 10996 ] final  -86.88 input  -57.11 | X-H torsion

> <Gold.Protein.ActiveResidues>
 VAL166  LYS551  ARG553  GLY616  TRP617  ASP618  TYR619  PRO620  LYS621  CYS622 
 ASP623  PHE694  ASN695  SER759  ASP760  ASP761  ALA762  ILE779  LEU786  VAL792 
 PHE793  MET794  SER795  GLU796  ALA797  LYS798  CYS799  TRP800  GLU811  SER814 

> <Gold.Protein.RotatedAtoms>
  151.8145  133.3386  159.3565 H   0  0  0  0  0  0  0  0  0  0  0  0  # atno 6907 bound_to 6896
  150.7315  134.5632  159.5862 H   0  0  0  0  0  0  0  0  0  0  0  0  # atno 6908 bound_to 6896
  152.3051  134.7566  160.0400 H   0  0  0  0  0  0  0  0  0  0  0  0  # atno 6909 bound_to 6896
  145.9770  139.4204  143.0155 H   0  0  0  0  0  0  0  0  0  0  0  0  # atno 7974 bound_to 7965
  156.1340  140.1531  156.9023 H   0  0  0  0  0  0  0  0  0  0  0  0  # atno 8008 bound_to 7997
  154.4932  140.0845  156.7679 H   0  0  0  0  0  0  0  0  0  0  0  0  # atno 8009 bound_to 7997
  155.4204  140.3423  155.4273 H   0  0  0  0  0  0  0  0  0  0  0  0  # atno 8010 bound_to 7997
  139.7884  143.8001  152.2647 H   0  0  0  0  0  0  0  0  0  0  0  0  # atno 10167 bound_to 10162
  156.5042  130.8405  151.2621 H   0  0  0  0  0  0  0  0  0  0  0  0  # atno 10718 bound_to 10713
  153.9356  135.2985  155.3444 H   0  0  0  0  0  0  0  0  0  0  0  0  # atno 10763 bound_to 10752
  154.7504  135.4983  153.9282 H   0  0  0  0  0  0  0  0  0  0  0  0  # atno 10764 bound_to 10752
  153.1069  135.6749  153.9676 H   0  0  0  0  0  0  0  0  0  0  0  0  # atno 10765 bound_to 10752
  141.1624  133.7479  156.9225 H   0  0  0  0  0  0  0  0  0  0  0  0  # atno 11005 bound_to 11000
  145.7825  140.9850  143.1092 LP  0  0  0  0  0  0  0  0  0  0  0  0  # atno 17320 bound_to 7965
  144.6851  139.9582  143.7479 LP  0  0  0  0  0  0  0  0  0  0  0  0  # atno 17321 bound_to 7965
  139.8085  144.7346  150.9729 LP  0  0  0  0  0  0  0  0  0  0  0  0  # atno 17342 bound_to 10162
  140.7820  143.4274  151.0746 LP  0  0  0  0  0  0  0  0  0  0  0  0  # atno 17343 bound_to 10162
  157.7459  130.9971  150.2805 LP  0  0  0  0  0  0  0  0  0  0  0  0  # atno 17370 bound_to 10713
  156.3303  130.3799  149.7496 LP  0  0  0  0  0  0  0  0  0  0  0  0  # atno 17371 bound_to 10713
  140.1441  134.9274  157.2506 LP  0  0  0  0  0  0  0  0  0  0  0  0  # atno 17394 bound_to 11000
  140.2801  134.3360  155.7346 LP  0  0  0  0  0  0  0  0  0  0  0  0  # atno 17395 bound_to 11000

$$$$
