AV-unprocessed.smi:3266|AV-procd|sdf|12500|dock9
  -GOLD-   2272018403D 1   1.00000     0.00000
 Structure written by MMmdl.
 38 39  0  0  0  0  0  0  0  0  1 V2000
  150.7724  136.4073  158.4793 O   0  0  0  0  0  0  0  0  0  0  0  0
  150.1274  137.3451  158.9488 C   0  0  0  0  0  0  0  0  0  0  0  0
  148.7214  137.1095  159.5037 C   0  0  0  0  0  0  0  0  0  0  0  0
  148.7271  136.1591  160.7145 C   0  0  0  0  0  0  0  0  0  0  0  0
  147.3420  136.0159  161.3614 C   0  0  2  0  0  0  0  0  0  0  0  0
  147.3440  135.1894  162.6459 C   0  0  0  0  0  0  0  0  0  0  0  0
  145.9086  134.7194  162.7047 C   0  0  0  0  0  0  0  0  0  0  0  0
  145.6084  134.4482  161.2329 C   0  0  0  0  0  0  0  0  0  0  0  0
  146.4423  135.3346  160.4902 O   0  0  0  0  0  0  0  0  0  0  0  0
  150.5964  138.6009  159.0240 N   0  0  0  0  0  0  0  0  0  0  0  0
  151.9360  139.0319  158.6305 C   0  0  0  0  0  0  0  0  0  0  0  0
  151.9005  140.1609  157.5816 C   0  0  0  0  0  0  0  0  0  0  0  0
  152.0519  141.5515  158.1752 C   0  0  0  0  0  0  0  0  0  0  0  0
  152.8831  141.7721  159.2949 C   0  0  0  0  0  0  0  0  0  0  0  0
  153.0162  143.0861  159.7829 C   0  0  0  0  0  0  0  0  0  0  0  0
  152.3133  144.1227  159.1396 C   0  0  0  0  0  0  0  0  0  0  0  0
  151.5046  143.7975  158.0322 C   0  0  0  0  0  0  0  0  0  0  0  0
  151.3705  142.5412  157.5555 N   0  0  0  0  0  0  0  0  0  0  0  0
  148.2749  138.0635  159.7881 H   0  0  0  0  0  0  0  0  0  0  0  0
  148.1007  136.6991  158.7067 H   0  0  0  0  0  0  0  0  0  0  0  0
  149.0903  135.1744  160.4160 H   0  0  0  0  0  0  0  0  0  0  0  0
  149.4294  136.5319  161.4618 H   0  0  0  0  0  0  0  0  0  0  0  0
  146.9223  137.0003  161.5749 H   0  0  0  0  0  0  0  0  0  0  0  0
  148.0128  134.3322  162.5536 H   0  0  0  0  0  0  0  0  0  0  0  0
  147.6438  135.7650  163.5221 H   0  0  0  0  0  0  0  0  0  0  0  0
  145.7675  133.8431  163.3380 H   0  0  0  0  0  0  0  0  0  0  0  0
  145.2684  135.5197  163.0787 H   0  0  0  0  0  0  0  0  0  0  0  0
  145.8755  133.4236  160.9713 H   0  0  0  0  0  0  0  0  0  0  0  0
  144.5556  134.5954  160.9912 H   0  0  0  0  0  0  0  0  0  0  0  0
  149.9910  139.3062  159.4186 H   0  0  0  0  0  0  0  0  0  0  0  0
  152.5132  139.3467  159.5016 H   0  0  0  0  0  0  0  0  0  0  0  0
  152.4594  138.1697  158.2172 H   0  0  0  0  0  0  0  0  0  0  0  0
  152.6944  140.0037  156.8503 H   0  0  0  0  0  0  0  0  0  0  0  0
  150.9648  140.1124  157.0234 H   0  0  0  0  0  0  0  0  0  0  0  0
  153.4172  140.9571  159.7606 H   0  0  0  0  0  0  0  0  0  0  0  0
  153.6484  143.2957  160.6329 H   0  0  0  0  0  0  0  0  0  0  0  0
  152.3922  145.1426  159.4857 H   0  0  0  0  0  0  0  0  0  0  0  0
  150.9513  144.5674  157.5149 H   0  0  0  0  0  0  0  0  0  0  0  0
  1  2  2  0  0  0  0
  2  3  1  0  0  0  0
  2 10  1  0  0  0  0
  3  4  1  0  0  0  0
  3 19  1  0  0  0  0
  3 20  1  0  0  0  0
  4  5  1  0  0  0  0
  4 21  1  0  0  0  0
  4 22  1  0  0  0  0
  5  9  1  0  0  0  0
  5  6  1  0  0  0  0
  5 23  1  0  0  0  0
  6  7  1  0  0  0  0
  6 24  1  0  0  0  0
  6 25  1  0  0  0  0
  7  8  1  0  0  0  0
  7 26  1  0  0  0  0
  7 27  1  0  0  0  0
  8  9  1  0  0  0  0
  8 28  1  0  0  0  0
  8 29  1  0  0  0  0
 10 11  1  0  0  0  0
 10 30  1  0  0  0  0
 11 12  1  0  0  0  0
 11 31  1  0  0  0  0
 11 32  1  0  0  0  0
 12 13  1  0  0  0  0
 12 33  1  0  0  0  0
 12 34  1  0  0  0  0
 13 18  1  0  0  0  0
 13 14  2  0  0  0  0
 14 15  1  0  0  0  0
 14 35  1  0  0  0  0
 15 16  2  0  0  0  0
 15 36  1  0  0  0  0
 16 17  1  0  0  0  0
 16 37  1  0  0  0  0
 17 18  2  0  0  0  0
 17 38  1  0  0  0  0
M  END
> <s_m_source_file>
AV-unprocessed.smi

> <i_m_source_file_index>
3266

> <i_lp_mmshare_version>
43012

> <i_f3d_flags>
0

> <s_epik_input>
TzFbQ0gyXVtDSDJdW0NIMl1bQ0BIXTFbQ0gyXVtDSDJdQyg9TylbTkhdW0NIMl1bQ0gyXWMyW2NIXVtjSF1bY0hdW2NIXW4y

> <s_epik_cmdline>
J2VwaWtfcHl0aG9uJywgJy1waCcsICc3LjAnLCAnLXRuJywgJzgnLCAnLW1hJywgJzIwMCcsICctbWV0YWxfYmluZGluZycsICctaW1hZScsICc8aW5maWxlLm1hZT4nLCAnLW9tYWUnLCAnPG91dGZpbGUubWFlPic=

> <r_epik_Ionization_Penalty>
0.0267142

> <r_epik_Ionization_Penalty_Charging>
0

> <r_epik_Ionization_Penalty_Neutral>
0.0267142

> <r_epik_State_Penalty>
0.0218233

> <r_epik_Charging_Adjusted_Penalty>
0.0218233

> <i_epik_Tot_Q>
0

> <i_epik_Tot_abs_Q>
0

> <r_epik_Metal_State_Penalty>
0.0208786

> <b_epik_Metal_Only>
0

> <s_lp_Force_Field>
OPLS_2005

> <r_lp_Energy>
16.3587

> <b_lp_Chiralities_Consistent>
1

> <s_lp_Variant>
AV-unprocessed.smi:3266-1

> <Gold.Version>
5.8.1

> <Gold.Id.Protein>
6NUR|6NUR_protein|mol2

> <Gold.PLP.Fitness>
40.6321

> <Gold.PLP.PLP>
-36.2438

> <Gold.PLP.part.hbond>
-1.0000

> <Gold.PLP.part.metal>
0.0000

> <Gold.PLP.part.buried>
-4.6372

> <Gold.PLP.part.nonpolar>
-31.8071

> <Gold.PLP.part.repulsive>
0.2924

> <Gold.PLP.ligand.clash>
0.0000

> <Gold.PLP.ligand.torsion>
0.6600

> <Gold.PLP.Chemscore.Hbond>
0.8960

> <Gold.PLP.Chemscore.CHOScore>
1.0000

> <Gold.PLP.Chemscore.Metal>
0.0000

> <Gold.Chemscore.Hbonds>
donor molecule, donor type, donor heavy atom, donor atom, acceptor molecule, acceptor atom, score
      P1  H  6896  6908       L1     1  0.83
      L1  C    17    38       P1  8028  0.47

> <Gold.PLP.Chemscore.Internal.Correction>
0.0204

> <Gold.Rescore>
     Score         DG    S(hbond)    S(metal)    S(lipo)     H(rot)  DE(clash)    DE(int)     intcor
     16.02     -16.59       0.97        0.00     104.76       1.71       0.05       0.52       ----

> <Gold.Chemscore.Fitness>
16.0236

> <Gold.Chemscore.DG>
-16.5852

> <Gold.Chemscore.ZeroCoef>
-5.4800

> <Gold.Chemscore.Hbond>
0.9678

> <Gold.Chemscore.Metal>
0.0000

> <Gold.Chemscore.Lipo>
104.7637

> <Gold.Chemscore.Internal_Hbond>
0.0000

> <Gold.Chemscore.DEClash>
0.0460

> <Gold.Chemscore.DEInternal>
0.5155

> <Gold.Chemscore.Rot>
1.7127

> <Gold.Chemscore.Internal.Correction>
   9.000000E+99

> <Gold.Chemscore.Hbonds>
donor molecule, donor type, donor heavy atom, donor atom, acceptor molecule, acceptor atom, score
      P1  H  6896  6908       L1     1  0.68

> <Gold.Chemscore.Hbond.Weighted>
-3.2323

> <Gold.Chemscore.Metal.Weighted>
-0.0000

> <Gold.Chemscore.Lipo.Weighted>
-12.2574

> <Gold.Chemscore.Internal_Hbond.Weighted>
0.0000

> <Gold.Chemscore.DEClash.Weighted>
0.0460

> <Gold.Chemscore.DEInternal.Weighted>
0.5155

> <Gold.Chemscore.Rot.Weighted>
4.3846

> <Gold.Chemscore.Internal.Correction.Weighted>
   9.000000E+99

> <Gold.Protein.RotatedTorsions>
[ 6907 6896 6895 6894 ] final -158.93 input  -60.11 | X-H torsion
[ 7974 7965 7964 7962 ] final  -91.99 input  175.53 | X-H torsion
[ 8008 7997 7996 7995 ] final  156.83 input   59.86 | X-H torsion
[ 10167 10162 10161 10158 ] final  -15.60 input  -65.29 | X-H torsion
[ 10718 10713 10712 10709 ] final   59.95 input   66.30 | X-H torsion
[ 10763 10752 10751 10750 ] final  -84.47 input  -60.55 | X-H torsion
[ 11005 11000 10999 10996 ] final  -16.92 input  -57.11 | X-H torsion

> <Gold.Protein.ActiveResidues>
 VAL166  LYS551  ARG553  GLY616  TRP617  ASP618  TYR619  PRO620  LYS621  CYS622 
 ASP623  PHE694  ASN695  SER759  ASP760  ASP761  ALA762  ILE779  LEU786  VAL792 
 PHE793  MET794  SER795  GLU796  ALA797  LYS798  CYS799  TRP800  GLU811  SER814 

> <Gold.Protein.RotatedAtoms>
  151.3257  133.4021  159.2658 H   0  0  0  0  0  0  0  0  0  0  0  0  # atno 6907 bound_to 6896
  150.9997  134.9313  159.7957 H   0  0  0  0  0  0  0  0  0  0  0  0  # atno 6908 bound_to 6896
  152.5271  134.3222  159.9205 H   0  0  0  0  0  0  0  0  0  0  0  0  # atno 6909 bound_to 6896
  145.4058  140.9541  143.2261 H   0  0  0  0  0  0  0  0  0  0  0  0  # atno 7974 bound_to 7965
  156.2399  140.1902  156.7016 H   0  0  0  0  0  0  0  0  0  0  0  0  # atno 8008 bound_to 7997
  154.6178  140.0613  156.9603 H   0  0  0  0  0  0  0  0  0  0  0  0  # atno 8009 bound_to 7997
  155.1911  140.3284  155.4361 H   0  0  0  0  0  0  0  0  0  0  0  0  # atno 8010 bound_to 7997
  140.7221  143.5201  150.9644 H   0  0  0  0  0  0  0  0  0  0  0  0  # atno 10167 bound_to 10162
  157.5715  130.8911  149.9275 H   0  0  0  0  0  0  0  0  0  0  0  0  # atno 10718 bound_to 10713
  154.5999  135.5519  153.7363 H   0  0  0  0  0  0  0  0  0  0  0  0  # atno 10763 bound_to 10752
  153.0150  135.6364  154.1730 H   0  0  0  0  0  0  0  0  0  0  0  0  # atno 10764 bound_to 10752
  154.1669  135.2894  155.3072 H   0  0  0  0  0  0  0  0  0  0  0  0  # atno 10765 bound_to 10752
  140.8116  133.8136  155.9569 H   0  0  0  0  0  0  0  0  0  0  0  0  # atno 11005 bound_to 11000
  144.8342  139.5577  143.6930 LP  0  0  0  0  0  0  0  0  0  0  0  0  # atno 17320 bound_to 7965
  146.2729  139.6680  142.9283 LP  0  0  0  0  0  0  0  0  0  0  0  0  # atno 17321 bound_to 7965
  139.8918  143.6943  152.3144 LP  0  0  0  0  0  0  0  0  0  0  0  0  # atno 17342 bound_to 10162
  139.7262  144.7592  151.0875 LP  0  0  0  0  0  0  0  0  0  0  0  0  # atno 17343 bound_to 10162
  156.0760  130.3679  150.0676 LP  0  0  0  0  0  0  0  0  0  0  0  0  # atno 17370 bound_to 10713
  156.8828  130.9562  151.3597 LP  0  0  0  0  0  0  0  0  0  0  0  0  # atno 17371 bound_to 10713
  140.9191  134.2164  157.4938 LP  0  0  0  0  0  0  0  0  0  0  0  0  # atno 17394 bound_to 11000
  139.8714  134.9784  156.4997 LP  0  0  0  0  0  0  0  0  0  0  0  0  # atno 17395 bound_to 11000

$$$$
