AV-unprocessed.smi:2153|AV-procd|sdf|8769|dock5
  -GOLD-   2272011553D 1   1.00000     0.00000
 Structure written by MMmdl.
 48 49  0  0  0  0  0  0  0  0  1 V2000
  153.2717  142.1029  161.1558 C   0  0  0  0  0  0  0  0  0  0  0  0
  152.2057  142.6940  160.2194 C   0  0  1  0  0  0  0  0  0  0  0  0
  152.3051  144.2325  160.1826 C   0  0  0  0  0  0  0  0  0  0  0  0
  151.2497  144.8510  159.2536 C   0  0  0  0  0  0  0  0  0  0  0  0
  151.3622  144.2745  157.8369 C   0  0  0  0  0  0  0  0  0  0  0  0
  151.2566  142.7442  157.8596 C   0  0  0  0  0  0  0  0  0  0  0  0
  152.3031  142.1010  158.7951 C   0  0  2  0  0  0  0  0  0  0  0  0
  152.0378  140.7075  158.8898 O   0  0  0  0  0  0  0  0  0  0  0  0
  151.8440  140.0519  157.6438 C   0  0  0  0  0  0  0  0  0  0  0  0
  151.7392  138.5385  157.8932 C   0  0  0  0  0  0  0  0  0  0  0  0
  150.3503  138.0892  157.8961 N   0  0  0  0  0  0  0  0  0  0  0  0
  149.8021  137.2590  158.7963 C   0  0  0  0  0  0  0  0  0  0  0  0
  150.4003  136.8402  159.7869 O   0  0  0  0  0  0  0  0  0  0  0  0
  148.3571  136.8258  158.5296 C   0  0  0  0  0  0  0  0  0  0  0  0
  147.8090  136.0758  159.6667 N   0  0  0  0  0  0  0  0  0  0  0  0
  148.2878  134.8061  159.9360 C   0  0  0  0  0  0  0  0  0  0  0  0
  147.8701  134.0565  160.9795 C   0  0  0  0  0  0  0  0  0  0  0  0
  146.8695  134.5616  161.9116 C   0  0  0  0  0  0  0  0  0  0  0  0
  146.4618  133.9111  162.8743 O   0  0  0  0  0  0  0  0  0  0  0  0
  146.4016  135.8651  161.6181 N   0  0  0  0  0  0  0  0  0  0  0  0
  145.4074  136.4620  162.4855 C   0  0  0  0  0  0  0  0  0  0  0  0
  146.8248  136.6344  160.5111 C   0  0  0  0  0  0  0  0  0  0  0  0
  146.3618  137.7547  160.2840 O   0  0  0  0  0  0  0  0  0  0  0  0
  154.2782  142.3136  160.7929 H   0  0  0  0  0  0  0  0  0  0  0  0
  153.1695  141.0208  161.2416 H   0  0  0  0  0  0  0  0  0  0  0  0
  153.1858  142.5185  162.1599 H   0  0  0  0  0  0  0  0  0  0  0  0
  151.2270  142.4348  160.6268 H   0  0  0  0  0  0  0  0  0  0  0  0
  152.1851  144.6380  161.1877 H   0  0  0  0  0  0  0  0  0  0  0  0
  153.2999  144.5293  159.8477 H   0  0  0  0  0  0  0  0  0  0  0  0
  150.2520  144.6586  159.6503 H   0  0  0  0  0  0  0  0  0  0  0  0
  151.3673  145.9345  159.2243 H   0  0  0  0  0  0  0  0  0  0  0  0
  150.5786  144.6908  157.2032 H   0  0  0  0  0  0  0  0  0  0  0  0
  152.3129  144.5703  157.3916 H   0  0  0  0  0  0  0  0  0  0  0  0
  150.2634  142.4605  158.2009 H   0  0  0  0  0  0  0  0  0  0  0  0
  151.3485  142.3645  156.8428 H   0  0  0  0  0  0  0  0  0  0  0  0
  153.3092  142.2713  158.4065 H   0  0  0  0  0  0  0  0  0  0  0  0
  150.9466  140.4030  157.1354 H   0  0  0  0  0  0  0  0  0  0  0  0
  152.6835  140.2747  156.9847 H   0  0  0  0  0  0  0  0  0  0  0  0
  152.3078  137.9878  157.1427 H   0  0  0  0  0  0  0  0  0  0  0  0
  152.1760  138.2930  158.8614 H   0  0  0  0  0  0  0  0  0  0  0  0
  149.7787  138.3849  157.1183 H   0  0  0  0  0  0  0  0  0  0  0  0
  147.7473  137.7061  158.3194 H   0  0  0  0  0  0  0  0  0  0  0  0
  148.3178  136.2202  157.6226 H   0  0  0  0  0  0  0  0  0  0  0  0
  149.0392  134.3900  159.2806 H   0  0  0  0  0  0  0  0  0  0  0  0
  148.2872  133.0716  161.1309 H   0  0  0  0  0  0  0  0  0  0  0  0
  145.7066  137.4923  162.6867 H   0  0  0  0  0  0  0  0  0  0  0  0
  145.3498  135.9297  163.4348 H   0  0  0  0  0  0  0  0  0  0  0  0
  144.4556  136.4178  161.9540 H   0  0  0  0  0  0  0  0  0  0  0  0
  1  2  1  0  0  0  0
  1 24  1  0  0  0  0
  1 25  1  0  0  0  0
  1 26  1  0  0  0  0
  2  7  1  0  0  0  0
  2  3  1  0  0  0  0
  2 27  1  0  0  0  0
  3  4  1  0  0  0  0
  3 28  1  0  0  0  0
  3 29  1  0  0  0  0
  4  5  1  0  0  0  0
  4 30  1  0  0  0  0
  4 31  1  0  0  0  0
  5  6  1  0  0  0  0
  5 32  1  0  0  0  0
  5 33  1  0  0  0  0
  6  7  1  0  0  0  0
  6 34  1  0  0  0  0
  6 35  1  0  0  0  0
  7  8  1  0  0  0  0
  7 36  1  0  0  0  0
  8  9  1  0  0  0  0
  9 10  1  0  0  0  0
  9 37  1  0  0  0  0
  9 38  1  0  0  0  0
 10 11  1  0  0  0  0
 10 39  1  0  0  0  0
 10 40  1  0  0  0  0
 11 12  1  0  0  0  0
 11 41  1  0  0  0  0
 12 13  2  0  0  0  0
 12 14  1  0  0  0  0
 14 15  1  0  0  0  0
 14 42  1  0  0  0  0
 14 43  1  0  0  0  0
 15 22  1  0  0  0  0
 15 16  1  0  0  0  0
 16 17  2  0  0  0  0
 16 44  1  0  0  0  0
 17 18  1  0  0  0  0
 17 45  1  0  0  0  0
 18 19  2  0  0  0  0
 18 20  1  0  0  0  0
 20 21  1  0  0  0  0
 20 22  1  0  0  0  0
 21 46  1  0  0  0  0
 21 47  1  0  0  0  0
 21 48  1  0  0  0  0
 22 23  2  0  0  0  0
M  END
> <s_m_source_file>
AV-unprocessed.smi

> <i_m_source_file_index>
2153

> <i_lp_mmshare_version>
43012

> <i_f3d_flags>
0

> <s_epik_input>
W0NIM11bQ0BASF0xW0NIMl1bQ0gyXVtDSDJdW0NIMl1bQ0BIXTFPW0NIMl1bQ0gyXVtOSF1DKD1PKVtDSDJdbjJbY0hdW2NIXWMoPU8pbihbQ0gzXSljMj1P

> <s_epik_cmdline>
J2VwaWtfcHl0aG9uJywgJy1waCcsICc3LjAnLCAnLXRuJywgJzgnLCAnLW1hJywgJzIwMCcsICctbWV0YWxfYmluZGluZycsICctaW1hZScsICc8aW5maWxlLm1hZT4nLCAnLW9tYWUnLCAnPG91dGZpbGUubWFlPic=

> <r_lp_tautomer_probability>
1

> <r_epik_Ionization_Penalty>
4.02205e-08

> <r_epik_Ionization_Penalty_Charging>
1.23606e-08

> <r_epik_Ionization_Penalty_Neutral>
2.78599e-08

> <r_epik_State_Penalty>
-0

> <r_epik_Charging_Adjusted_Penalty>
1.23606e-08

> <i_epik_Tot_Q>
0

> <i_epik_Tot_abs_Q>
0

> <r_epik_Metal_State_Penalty>
-0

> <b_epik_Metal_Only>
0

> <s_lp_Force_Field>
OPLS_2005

> <r_lp_Energy>
17.7366

> <b_lp_Chiralities_Consistent>
1

> <s_lp_Variant>
AV-unprocessed.smi:2153-4

> <Gold.Version>
5.8.1

> <Gold.Id.Protein>
6NUR|6NUR_protein|mol2

> <Gold.PLP.Fitness>
51.0665

> <Gold.PLP.PLP>
-46.2618

> <Gold.PLP.part.hbond>
-3.8644

> <Gold.PLP.part.metal>
0.0000

> <Gold.PLP.part.buried>
-6.4986

> <Gold.PLP.part.nonpolar>
-37.6183

> <Gold.PLP.part.repulsive>
0.1045

> <Gold.PLP.ligand.clash>
0.0000

> <Gold.PLP.ligand.torsion>
0.6160

> <Gold.PLP.Chemscore.Hbond>
1.9913

> <Gold.PLP.Chemscore.CHOScore>
0.0000

> <Gold.PLP.Chemscore.Metal>
0.0000

> <Gold.Chemscore.Hbonds>
donor molecule, donor type, donor heavy atom, donor atom, acceptor molecule, acceptor atom, score
      P1  H  6896  6907       L1    13  1.00
      P1  H  6934  6947       L1    23  1.00

> <Gold.PLP.Chemscore.Internal.Correction>
0.0629

> <Gold.Rescore>
     Score         DG    S(hbond)    S(metal)    S(lipo)     H(rot)  DE(clash)    DE(int)     intcor
     18.37     -19.14       2.00        0.00     107.79       2.20       0.01       0.77       ----

> <Gold.Chemscore.Fitness>
18.3656

> <Gold.Chemscore.DG>
-19.1407

> <Gold.Chemscore.ZeroCoef>
-5.4800

> <Gold.Chemscore.Hbond>
1.9980

> <Gold.Chemscore.Metal>
0.0000

> <Gold.Chemscore.Lipo>
107.7886

> <Gold.Chemscore.Internal_Hbond>
0.0000

> <Gold.Chemscore.DEClash>
0.0063

> <Gold.Chemscore.DEInternal>
0.7689

> <Gold.Chemscore.Rot>
2.1968

> <Gold.Chemscore.Internal.Correction>
   9.000000E+99

> <Gold.Chemscore.Hbonds>
donor molecule, donor type, donor heavy atom, donor atom, acceptor molecule, acceptor atom, score
      P1  H  6896  6907       L1    13  0.99
      P1  H  6934  6947       L1    23  0.95

> <Gold.Chemscore.Hbond.Weighted>
-6.6732

> <Gold.Chemscore.Metal.Weighted>
-0.0000

> <Gold.Chemscore.Lipo.Weighted>
-12.6113

> <Gold.Chemscore.Internal_Hbond.Weighted>
0.0000

> <Gold.Chemscore.DEClash.Weighted>
0.0063

> <Gold.Chemscore.DEInternal.Weighted>
0.7689

> <Gold.Chemscore.Rot.Weighted>
5.6238

> <Gold.Chemscore.Internal.Correction.Weighted>
   9.000000E+99

> <Gold.Protein.RotatedTorsions>
[ 6907 6896 6895 6894 ] final  -22.90 input  -60.11 | X-H torsion
[ 7974 7965 7964 7962 ] final   87.49 input  175.53 | X-H torsion
[ 8008 7997 7996 7995 ] final   37.87 input   59.86 | X-H torsion
[ 10167 10162 10161 10158 ] final  153.85 input  -65.29 | X-H torsion
[ 10718 10713 10712 10709 ] final   46.48 input   66.30 | X-H torsion
[ 10763 10752 10751 10750 ] final  171.76 input  -60.55 | X-H torsion
[ 11005 11000 10999 10996 ] final    6.82 input  -57.11 | X-H torsion

> <Gold.Protein.ActiveResidues>
 VAL166  LYS551  ARG553  GLY616  TRP617  ASP618  TYR619  PRO620  LYS621  CYS622 
 ASP623  PHE694  ASN695  SER759  ASP760  ASP761  ALA762  ILE779  LEU786  VAL792 
 PHE793  MET794  SER795  GLU796  ALA797  LYS798  CYS799  TRP800  GLU811  SER814 

> <Gold.Protein.RotatedAtoms>
  151.2118  135.0484  159.8914 H   0  0  0  0  0  0  0  0  0  0  0  0  # atno 6907 bound_to 6896
  152.5424  134.0736  159.8215 H   0  0  0  0  0  0  0  0  0  0  0  0  # atno 6908 bound_to 6896
  151.0890  133.5282  159.2648 H   0  0  0  0  0  0  0  0  0  0  0  0  # atno 6909 bound_to 6896
  145.5583  139.2301  143.2474 H   0  0  0  0  0  0  0  0  0  0  0  0  # atno 7974 bound_to 7965
  155.2109  140.3323  155.4329 H   0  0  0  0  0  0  0  0  0  0  0  0  # atno 8008 bound_to 7997
  156.2371  140.1877  156.7139 H   0  0  0  0  0  0  0  0  0  0  0  0  # atno 8009 bound_to 7997
  154.6079  140.0613  156.9440 H   0  0  0  0  0  0  0  0  0  0  0  0  # atno 8010 bound_to 7997
  139.4825  144.5237  151.7834 H   0  0  0  0  0  0  0  0  0  0  0  0  # atno 10167 bound_to 10162
  157.4485  130.8124  149.7765 H   0  0  0  0  0  0  0  0  0  0  0  0  # atno 10718 bound_to 10713
  154.4165  135.2757  155.2003 H   0  0  0  0  0  0  0  0  0  0  0  0  # atno 10763 bound_to 10752
  154.3967  135.6054  153.5877 H   0  0  0  0  0  0  0  0  0  0  0  0  # atno 10764 bound_to 10752
  152.9832  135.5916  154.4454 H   0  0  0  0  0  0  0  0  0  0  0  0  # atno 10765 bound_to 10752
  140.5551  134.0245  155.7951 H   0  0  0  0  0  0  0  0  0  0  0  0  # atno 11005 bound_to 11000
  146.1869  140.6407  142.9163 LP  0  0  0  0  0  0  0  0  0  0  0  0  # atno 17320 bound_to 7965
  144.7495  140.5155  143.6812 LP  0  0  0  0  0  0  0  0  0  0  0  0  # atno 17321 bound_to 7965
  140.4755  144.1526  150.5924 LP  0  0  0  0  0  0  0  0  0  0  0  0  # atno 17342 bound_to 10162
  140.4336  143.2557  151.9564 LP  0  0  0  0  0  0  0  0  0  0  0  0  # atno 17343 bound_to 10162
  155.9977  130.3898  150.2729 LP  0  0  0  0  0  0  0  0  0  0  0  0  # atno 17370 bound_to 10713
  157.0899  131.0167  151.3125 LP  0  0  0  0  0  0  0  0  0  0  0  0  # atno 17371 bound_to 10713
  141.1148  133.9558  157.2843 LP  0  0  0  0  0  0  0  0  0  0  0  0  # atno 17394 bound_to 11000
  139.9435  135.0187  156.8782 LP  0  0  0  0  0  0  0  0  0  0  0  0  # atno 17395 bound_to 11000

$$$$
