AV-unprocessed.smi:321|AV-procd|sdf|2334|dock8
  -GOLD-   2262022243D 1   1.00000     0.00000
 Structure written by MMmdl.
 49 50  0  0  0  0  0  0  0  0  1 V2000
  152.2256  142.2751  159.8010 C   0  0  0  0  0  0  0  0  0  0  0  0
  151.8825  141.9130  158.3513 C   0  0  0  0  0  0  0  0  0  0  0  0
  151.8120  140.0837  158.0931 S   0  0  0  0  0  0  0  0  0  0  0  0
  153.1557  139.5213  158.3012 O   0  0  0  0  0  0  0  0  0  0  0  0
  150.6722  139.5560  158.8584 O   0  0  0  0  0  0  0  0  0  0  0  0
  151.4279  139.9089  156.4035 N   0  0  0  0  0  0  0  0  0  0  0  0
  152.3784  139.2560  155.4786 C   0  0  0  0  0  0  0  0  0  0  0  0
  151.9388  137.8285  155.1078 C   0  0  0  0  0  0  0  0  0  0  0  0
  150.4902  137.7995  154.5903 C   0  0  0  0  0  0  0  0  0  0  0  0
  150.0562  136.4307  154.3285 N   0  0  0  0  0  0  0  0  0  0  0  0
  150.1366  135.4080  155.1990 C   0  0  0  0  0  0  0  0  0  0  0  0
  150.5926  135.5344  156.3365 O   0  0  0  0  0  0  0  0  0  0  0  0
  149.6326  134.1004  154.6945 C   0  0  0  0  0  0  0  0  0  0  0  0
  150.1351  132.8982  155.3378 C   0  0  0  0  0  0  0  0  0  0  0  0
  149.6904  131.7012  154.8970 C   0  0  0  0  0  0  0  0  0  0  0  0
  148.7263  131.5876  153.8015 C   0  0  0  0  0  0  0  0  0  0  0  0
  148.3047  130.5080  153.3882 O   0  0  0  0  0  0  0  0  0  0  0  0
  148.3351  132.7902  153.2808 N   0  0  0  0  0  0  0  0  0  0  0  0
  147.3635  132.8669  152.1835 C   0  0  0  0  0  0  0  0  0  0  0  0
  145.9935  132.3009  152.5918 C   0  0  0  0  0  0  0  0  0  0  0  0
  145.0227  132.6307  151.6120 O   0  0  0  0  0  0  0  0  0  0  0  0
  144.8994  131.6357  150.6115 C   0  0  0  0  0  0  0  0  0  0  0  0
  148.7813  134.0253  153.7228 N   0  0  0  0  0  0  0  0  0  0  0  0
  149.5656  138.4466  155.6311 C   0  0  0  0  0  0  0  0  0  0  0  0
  150.0184  139.8778  155.9678 C   0  0  0  0  0  0  0  0  0  0  0  0
  152.2913  143.3559  159.9247 H   0  0  0  0  0  0  0  0  0  0  0  0
  153.1810  141.8469  160.1027 H   0  0  0  0  0  0  0  0  0  0  0  0
  151.4634  141.9092  160.4892 H   0  0  0  0  0  0  0  0  0  0  0  0
  150.8995  142.3149  158.1059 H   0  0  0  0  0  0  0  0  0  0  0  0
  152.5891  142.3505  157.6508 H   0  0  0  0  0  0  0  0  0  0  0  0
  152.4405  139.8602  154.5728 H   0  0  0  0  0  0  0  0  0  0  0  0
  153.3807  139.2435  155.9053 H   0  0  0  0  0  0  0  0  0  0  0  0
  152.6143  137.4333  154.3483 H   0  0  0  0  0  0  0  0  0  0  0  0
  152.0424  137.1702  155.9694 H   0  0  0  0  0  0  0  0  0  0  0  0
  150.4265  138.3780  153.6665 H   0  0  0  0  0  0  0  0  0  0  0  0
  149.6688  136.2419  153.4151 H   0  0  0  0  0  0  0  0  0  0  0  0
  150.8466  132.9517  156.1489 H   0  0  0  0  0  0  0  0  0  0  0  0
  150.0558  130.7997  155.3664 H   0  0  0  0  0  0  0  0  0  0  0  0
  147.2427  133.9118  151.8924 H   0  0  0  0  0  0  0  0  0  0  0  0
  147.7272  132.3626  151.2868 H   0  0  0  0  0  0  0  0  0  0  0  0
  146.0518  131.2191  152.7236 H   0  0  0  0  0  0  0  0  0  0  0  0
  145.6971  132.7280  153.5510 H   0  0  0  0  0  0  0  0  0  0  0  0
  144.1485  131.9405  149.8826 H   0  0  0  0  0  0  0  0  0  0  0  0
  144.5857  130.6829  151.0400 H   0  0  0  0  0  0  0  0  0  0  0  0
  145.8419  131.4890  150.0825 H   0  0  0  0  0  0  0  0  0  0  0  0
  148.5416  138.4689  155.2566 H   0  0  0  0  0  0  0  0  0  0  0  0
  149.5467  137.8411  156.5370 H   0  0  0  0  0  0  0  0  0  0  0  0
  149.3751  140.3092  156.7345 H   0  0  0  0  0  0  0  0  0  0  0  0
  149.9154  140.5117  155.0864 H   0  0  0  0  0  0  0  0  0  0  0  0
  1  2  1  0  0  0  0
  1 26  1  0  0  0  0
  1 27  1  0  0  0  0
  1 28  1  0  0  0  0
  2  3  1  0  0  0  0
  2 29  1  0  0  0  0
  2 30  1  0  0  0  0
  3  4  2  0  0  0  0
  3  5  2  0  0  0  0
  3  6  1  0  0  0  0
  6 25  1  0  0  0  0
  6  7  1  0  0  0  0
  7  8  1  0  0  0  0
  7 31  1  0  0  0  0
  7 32  1  0  0  0  0
  8  9  1  0  0  0  0
  8 33  1  0  0  0  0
  8 34  1  0  0  0  0
  9 10  1  0  0  0  0
  9 24  1  0  0  0  0
  9 35  1  0  0  0  0
 10 11  1  0  0  0  0
 10 36  1  0  0  0  0
 11 12  2  0  0  0  0
 11 13  1  0  0  0  0
 13 23  2  0  0  0  0
 13 14  1  0  0  0  0
 14 15  2  0  0  0  0
 14 37  1  0  0  0  0
 15 16  1  0  0  0  0
 15 38  1  0  0  0  0
 16 17  2  0  0  0  0
 16 18  1  0  0  0  0
 18 19  1  0  0  0  0
 18 23  1  0  0  0  0
 19 20  1  0  0  0  0
 19 39  1  0  0  0  0
 19 40  1  0  0  0  0
 20 21  1  0  0  0  0
 20 41  1  0  0  0  0
 20 42  1  0  0  0  0
 21 22  1  0  0  0  0
 22 43  1  0  0  0  0
 22 44  1  0  0  0  0
 22 45  1  0  0  0  0
 24 25  1  0  0  0  0
 24 46  1  0  0  0  0
 24 47  1  0  0  0  0
 25 48  1  0  0  0  0
 25 49  1  0  0  0  0
M  END
> <s_m_source_file>
AV-unprocessed.smi

> <i_m_source_file_index>
321

> <i_lp_mmshare_version>
43012

> <i_f3d_flags>
0

> <s_epik_input>
W0NIM11bQ0gyXVMoPU8pKD1PKU4xW0NIMl1bQ0gyXVtDSF0oW0NIMl1bQ0gyXTEpW05IXUMoPU8pYzJbY0hdW2NIXWMoPU8pbihuMilbQ0gyXVtDSDJdT1tDSDNd

> <s_epik_cmdline>
J2VwaWtfcHl0aG9uJywgJy1waCcsICc3LjAnLCAnLXRuJywgJzgnLCAnLW1hJywgJzIwMCcsICctbWV0YWxfYmluZGluZycsICctaW1hZScsICc8aW5maWxlLm1hZT4nLCAnLW9tYWUnLCAnPG91dGZpbGUubWFlPic=

> <r_lp_tautomer_probability>
1

> <r_epik_Ionization_Penalty>
1.38514e-06

> <r_epik_Ionization_Penalty_Charging>
6.369e-09

> <r_epik_Ionization_Penalty_Neutral>
1.37877e-06

> <r_epik_State_Penalty>
-0

> <r_epik_Charging_Adjusted_Penalty>
6.369e-09

> <i_epik_Tot_Q>
0

> <i_epik_Tot_abs_Q>
0

> <r_epik_Metal_State_Penalty>
-0

> <b_epik_Metal_Only>
0

> <s_lp_Force_Field>
OPLS_2005

> <r_lp_Energy>
23.8323

> <b_lp_Chiralities_Consistent>
1

> <s_lp_Variant>
AV-unprocessed.smi:321-1

> <Gold.Version>
5.8.1

> <Gold.Id.Protein>
6NUR|6NUR_protein|mol2

> <Gold.PLP.Fitness>
47.0066

> <Gold.PLP.PLP>
-41.9914

> <Gold.PLP.part.hbond>
-2.8996

> <Gold.PLP.part.metal>
0.0000

> <Gold.PLP.part.buried>
-5.1516

> <Gold.PLP.part.nonpolar>
-35.6703

> <Gold.PLP.part.repulsive>
1.7846

> <Gold.PLP.ligand.clash>
0.0000

> <Gold.PLP.ligand.torsion>
1.6060

> <Gold.PLP.Chemscore.Hbond>
2.0000

> <Gold.PLP.Chemscore.CHOScore>
0.0000

> <Gold.PLP.Chemscore.Metal>
0.0000

> <Gold.Chemscore.Hbonds>
donor molecule, donor type, donor heavy atom, donor atom, acceptor molecule, acceptor atom, score
      L1  H    10    36       P1  7948  1.00
      P1  H  7997  8009       L1     4  1.00

> <Gold.PLP.Chemscore.Internal.Correction>
2.2272

> <Gold.Rescore>
     Score         DG    S(hbond)    S(metal)    S(lipo)     H(rot)  DE(clash)    DE(int)     intcor
     12.59     -16.55       1.65        0.00      88.27       1.86       1.36       2.60       ----

> <Gold.Chemscore.Fitness>
12.5860

> <Gold.Chemscore.DG>
-16.5495

> <Gold.Chemscore.ZeroCoef>
-5.4800

> <Gold.Chemscore.Hbond>
1.6452

> <Gold.Chemscore.Metal>
0.0000

> <Gold.Chemscore.Lipo>
88.2696

> <Gold.Chemscore.Internal_Hbond>
0.0000

> <Gold.Chemscore.DEClash>
1.3613

> <Gold.Chemscore.DEInternal>
2.6022

> <Gold.Chemscore.Rot>
1.8567

> <Gold.Chemscore.Internal.Correction>
   9.000000E+99

> <Gold.Chemscore.Hbonds>
donor molecule, donor type, donor heavy atom, donor atom, acceptor molecule, acceptor atom, score
      L1  H    10    36       P1  7948  0.30
      P1  H  7997  8009       L1     4  0.90

> <Gold.Chemscore.Hbond.Weighted>
-5.4950

> <Gold.Chemscore.Metal.Weighted>
-0.0000

> <Gold.Chemscore.Lipo.Weighted>
-10.3275

> <Gold.Chemscore.Internal_Hbond.Weighted>
0.0000

> <Gold.Chemscore.DEClash.Weighted>
1.3613

> <Gold.Chemscore.DEInternal.Weighted>
2.6022

> <Gold.Chemscore.Rot.Weighted>
4.7530

> <Gold.Chemscore.Internal.Correction.Weighted>
   9.000000E+99

> <Gold.Protein.RotatedTorsions>
[ 6907 6896 6895 6894 ] final  -51.08 input  -60.11 | X-H torsion
[ 7974 7965 7964 7962 ] final   -7.69 input  175.53 | X-H torsion
[ 8008 7997 7996 7995 ] final  160.31 input   59.86 | X-H torsion
[ 10167 10162 10161 10158 ] final  -20.51 input  -65.29 | X-H torsion
[ 10718 10713 10712 10709 ] final  111.59 input   66.30 | X-H torsion
[ 10763 10752 10751 10750 ] final  114.96 input  -60.55 | X-H torsion
[ 11005 11000 10999 10996 ] final -125.99 input  -57.11 | X-H torsion

> <Gold.Protein.ActiveResidues>
 VAL166  LYS551  ARG553  GLY616  TRP617  ASP618  TYR619  PRO620  LYS621  CYS622 
 ASP623  PHE694  ASN695  SER759  ASP760  ASP761  ALA762  ILE779  LEU786  VAL792 
 PHE793  MET794  SER795  GLU796  ALA797  LYS798  CYS799  TRP800  GLU811  SER814 

> <Gold.Protein.RotatedAtoms>
  150.8645  134.8005  159.7107 H   0  0  0  0  0  0  0  0  0  0  0  0  # atno 6907 bound_to 6896
  152.4671  134.5046  159.9745 H   0  0  0  0  0  0  0  0  0  0  0  0  # atno 6908 bound_to 6896
  151.5144  133.3440  159.2926 H   0  0  0  0  0  0  0  0  0  0  0  0  # atno 6909 bound_to 6896
  146.2300  140.2357  142.8341 H   0  0  0  0  0  0  0  0  0  0  0  0  # atno 7974 bound_to 7965
  156.2181  140.1807  156.7542 H   0  0  0  0  0  0  0  0  0  0  0  0  # atno 8008 bound_to 7997
  154.5822  140.0664  156.9149 H   0  0  0  0  0  0  0  0  0  0  0  0  # atno 8009 bound_to 7997
  155.2482  140.3327  155.4287 H   0  0  0  0  0  0  0  0  0  0  0  0  # atno 8010 bound_to 7997
  140.7276  143.4716  151.0239 H   0  0  0  0  0  0  0  0  0  0  0  0  # atno 10167 bound_to 10162
  157.6437  131.0953  150.6771 H   0  0  0  0  0  0  0  0  0  0  0  0  # atno 10718 bound_to 10713
  153.5151  135.3610  155.2605 H   0  0  0  0  0  0  0  0  0  0  0  0  # atno 10763 bound_to 10752
  154.8739  135.4032  154.3324 H   0  0  0  0  0  0  0  0  0  0  0  0  # atno 10764 bound_to 10752
  153.3984  135.7074  153.6510 H   0  0  0  0  0  0  0  0  0  0  0  0  # atno 10765 bound_to 10752
  140.9717  134.0796  157.3862 H   0  0  0  0  0  0  0  0  0  0  0  0  # atno 11005 bound_to 11000
  144.9523  140.8191  143.5564 LP  0  0  0  0  0  0  0  0  0  0  0  0  # atno 17320 bound_to 7965
  145.2319  139.2111  143.5038 LP  0  0  0  0  0  0  0  0  0  0  0  0  # atno 17321 bound_to 7965
  139.8408  143.7566  152.3180 LP  0  0  0  0  0  0  0  0  0  0  0  0  # atno 17342 bound_to 10162
  139.7714  144.7475  151.0219 LP  0  0  0  0  0  0  0  0  0  0  0  0  # atno 17343 bound_to 10162
  156.7091  130.4646  149.5552 LP  0  0  0  0  0  0  0  0  0  0  0  0  # atno 17370 bound_to 10713
  156.1742  130.6457  151.0874 LP  0  0  0  0  0  0  0  0  0  0  0  0  # atno 17371 bound_to 10713
  139.8915  135.0119  156.6794 LP  0  0  0  0  0  0  0  0  0  0  0  0  # atno 17394 bound_to 11000
  140.7319  133.9052  155.8217 LP  0  0  0  0  0  0  0  0  0  0  0  0  # atno 17395 bound_to 11000

$$$$
