AV-unprocessed.smi:798|AV-procd|sdf|3770|dock3
  -GOLD-   22720 1203D 1   1.00000     0.00000
 Structure written by MMmdl.
 34 36  0  0  0  0  0  0  0  0  1 V2000
  150.3514  139.9631  157.9571 O   0  0  0  0  0  0  0  0  0  0  0  0
  151.5755  139.8336  157.9837 C   0  0  0  0  0  0  0  0  0  0  0  0
  152.2857  138.9814  157.2245 N   0  0  0  0  0  0  0  0  0  0  0  0
  151.8170  138.0947  156.2197 C   0  0  0  0  0  0  0  0  0  0  0  0
  152.5941  137.5928  155.2473 N   0  0  0  0  0  0  0  0  0  0  0  0
  151.8868  136.7477  154.4016 N   0  0  0  0  0  0  0  0  0  0  0  0
  150.6064  136.6457  154.7693 C   0  0  0  0  0  0  0  0  0  0  0  0
  150.1395  137.5705  156.1860 S   0  0  0  0  0  0  0  0  0  0  0  0
  152.3779  140.5472  158.7867 N   0  0  0  0  0  0  0  0  0  0  0  0
  151.9371  141.5577  159.7497 C   0  0  1  0  0  0  0  0  0  0  0  0
  153.1408  142.0585  160.5765 C   0  0  2  0  0  0  0  0  0  0  0  0
  152.6245  142.8142  161.8145 C   0  0  0  0  0  0  0  0  0  0  0  0
  152.0775  144.1192  161.2053 C   0  0  0  0  0  0  0  0  0  0  0  0
  152.3491  143.9351  159.6988 C   0  0  1  0  0  0  0  0  0  0  0  0
  153.6817  143.1978  159.7205 C   0  0  0  0  0  0  0  0  0  0  0  0
  151.3768  142.8735  159.1270 C   0  0  1  0  0  0  0  0  0  0  0  0
  151.2684  142.9098  157.5854 C   0  0  0  0  0  0  0  0  0  0  0  0
  151.0267  144.2268  157.1373 O   0  0  0  0  0  0  0  0  0  0  0  0
  153.2840  138.9762  157.3726 H   0  0  0  0  0  0  0  0  0  0  0  0
  149.9322  136.0204  154.2031 H   0  0  0  0  0  0  0  0  0  0  0  0
  153.3714  140.3741  158.7390 H   0  0  0  0  0  0  0  0  0  0  0  0
  151.1982  141.1072  160.4153 H   0  0  0  0  0  0  0  0  0  0  0  0
  153.8658  141.2810  160.8213 H   0  0  0  0  0  0  0  0  0  0  0  0
  151.8622  142.2549  162.3579 H   0  0  0  0  0  0  0  0  0  0  0  0
  153.4395  143.0279  162.5073 H   0  0  0  0  0  0  0  0  0  0  0  0
  151.0197  144.2712  161.4230 H   0  0  0  0  0  0  0  0  0  0  0  0
  152.6235  144.9793  161.5951 H   0  0  0  0  0  0  0  0  0  0  0  0
  152.3576  144.8770  159.1498 H   0  0  0  0  0  0  0  0  0  0  0  0
  154.4805  143.7617  160.2059 H   0  0  0  0  0  0  0  0  0  0  0  0
  154.0215  142.8791  158.7340 H   0  0  0  0  0  0  0  0  0  0  0  0
  150.3750  143.0487  159.5235 H   0  0  0  0  0  0  0  0  0  0  0  0
  152.1731  142.5309  157.1098 H   0  0  0  0  0  0  0  0  0  0  0  0
  150.4369  142.2919  157.2463 H   0  0  0  0  0  0  0  0  0  0  0  0
  150.2694  144.2173  156.5720 H   0  0  0  0  0  0  0  0  0  0  0  0
  1  2  2  0  0  0  0
  2  3  1  0  0  0  0
  2  9  1  0  0  0  0
  3  4  1  0  0  0  0
  3 19  1  0  0  0  0
  4  8  1  0  0  0  0
  4  5  2  0  0  0  0
  5  6  1  0  0  0  0
  6  7  2  0  0  0  0
  7  8  1  0  0  0  0
  7 20  1  0  0  0  0
  9 10  1  0  0  0  0
  9 21  1  0  0  0  0
 10 16  1  0  0  0  0
 10 11  1  0  0  0  0
 10 22  1  0  0  0  0
 11 15  1  0  0  0  0
 11 12  1  0  0  0  0
 11 23  1  0  0  0  0
 12 13  1  0  0  0  0
 12 24  1  0  0  0  0
 12 25  1  0  0  0  0
 13 14  1  0  0  0  0
 13 26  1  0  0  0  0
 13 27  1  0  0  0  0
 14 15  1  0  0  0  0
 14 16  1  0  0  0  0
 14 28  1  0  0  0  0
 15 29  1  0  0  0  0
 15 30  1  0  0  0  0
 16 17  1  0  0  0  0
 16 31  1  0  0  0  0
 17 18  1  0  0  0  0
 17 32  1  0  0  0  0
 17 33  1  0  0  0  0
 18 34  1  0  0  0  0
M  END
> <s_m_source_file>
AV-unprocessed.smi

> <i_m_source_file_index>
798

> <i_lp_mmshare_version>
43012

> <i_f3d_flags>
0

> <s_epik_input>
W0NIMl0xW0NIMl1bQ0BASF0oW0NIMl0yKVtDQEBIXShbQ0gyXVtPSF0pW0NAQEhdKFtDQEhdMTIpW05IXUMoPU8pW05IXWMzbm5bY0hdczM=

> <s_epik_cmdline>
J2VwaWtfcHl0aG9uJywgJy1waCcsICc3LjAnLCAnLXRuJywgJzgnLCAnLW1hJywgJzIwMCcsICctbWV0YWxfYmluZGluZycsICctaW1hZScsICc8aW5maWxlLm1hZT4nLCAnLW9tYWUnLCAnPG91dGZpbGUubWFlPic=

> <r_lp_tautomer_probability>
1

> <r_epik_Ionization_Penalty>
0.000329046

> <r_epik_Ionization_Penalty_Charging>
0

> <r_epik_Ionization_Penalty_Neutral>
0.000329046

> <r_epik_State_Penalty>
-0

> <r_epik_Charging_Adjusted_Penalty>
0

> <i_epik_Tot_Q>
0

> <i_epik_Tot_abs_Q>
0

> <r_epik_Metal_State_Penalty>
0.173433

> <b_epik_Metal_Only>
0

> <s_lp_Force_Field>
OPLS_2005

> <r_lp_Energy>
49.2939

> <b_lp_Chiralities_Consistent>
1

> <s_lp_Variant>
AV-unprocessed.smi:798-2

> <Gold.Version>
5.8.1

> <Gold.Id.Protein>
6NUR|6NUR_protein|mol2

> <Gold.PLP.Fitness>
41.9775

> <Gold.PLP.PLP>
-33.4403

> <Gold.PLP.part.hbond>
-2.8528

> <Gold.PLP.part.metal>
0.0000

> <Gold.PLP.part.buried>
-6.7281

> <Gold.PLP.part.nonpolar>
-24.1830

> <Gold.PLP.part.repulsive>
0.6539

> <Gold.PLP.ligand.clash>
0.0000

> <Gold.PLP.ligand.torsion>
0.2230

> <Gold.PLP.Chemscore.Hbond>
1.9920

> <Gold.PLP.Chemscore.CHOScore>
0.9979

> <Gold.PLP.Chemscore.Metal>
0.0000

> <Gold.Chemscore.Hbonds>
donor molecule, donor type, donor heavy atom, donor atom, acceptor molecule, acceptor atom, score
      L1  H    18    34       P1  8028  1.00
      P1  H 10752 10765       L1     6  0.99
      L1  C     7    20       P1  7948  1.00

> <Gold.PLP.Chemscore.Internal.Correction>
0.0136

> <Gold.Rescore>
     Score         DG    S(hbond)    S(metal)    S(lipo)     H(rot)  DE(clash)    DE(int)     intcor
     16.30     -17.64       1.63        0.00      99.82       1.94       0.05       1.29       ----

> <Gold.Chemscore.Fitness>
16.3020

> <Gold.Chemscore.DG>
-17.6384

> <Gold.Chemscore.ZeroCoef>
-5.4800

> <Gold.Chemscore.Hbond>
1.6337

> <Gold.Chemscore.Metal>
0.0000

> <Gold.Chemscore.Lipo>
99.8201

> <Gold.Chemscore.Internal_Hbond>
0.0000

> <Gold.Chemscore.DEClash>
0.0485

> <Gold.Chemscore.DEInternal>
1.2879

> <Gold.Chemscore.Rot>
1.9442

> <Gold.Chemscore.Internal.Correction>
   9.000000E+99

> <Gold.Chemscore.Hbonds>
donor molecule, donor type, donor heavy atom, donor atom, acceptor molecule, acceptor atom, score
      L1  H    18    34       P1  8028  0.99
      P1  H 10752 10765       L1     6  0.23

> <Gold.Chemscore.Hbond.Weighted>
-5.4565

> <Gold.Chemscore.Metal.Weighted>
-0.0000

> <Gold.Chemscore.Lipo.Weighted>
-11.6789

> <Gold.Chemscore.Internal_Hbond.Weighted>
0.0000

> <Gold.Chemscore.DEClash.Weighted>
0.0485

> <Gold.Chemscore.DEInternal.Weighted>
1.2879

> <Gold.Chemscore.Rot.Weighted>
4.9771

> <Gold.Chemscore.Internal.Correction.Weighted>
   9.000000E+99

> <Gold.Protein.RotatedTorsions>
[ 6907 6896 6895 6894 ] final -160.85 input  -60.11 | X-H torsion
[ 7974 7965 7964 7962 ] final -166.25 input  175.53 | X-H torsion
[ 8008 7997 7996 7995 ] final  -84.49 input   59.86 | X-H torsion
[ 10167 10162 10161 10158 ] final   90.75 input  -65.29 | X-H torsion
[ 10718 10713 10712 10709 ] final   29.12 input   66.30 | X-H torsion
[ 10763 10752 10751 10750 ] final  147.62 input  -60.55 | X-H torsion
[ 11005 11000 10999 10996 ] final  -19.58 input  -57.11 | X-H torsion

> <Gold.Protein.ActiveResidues>
 VAL166  LYS551  ARG553  GLY616  TRP617  ASP618  TYR619  PRO620  LYS621  CYS622 
 ASP623  PHE694  ASN695  SER759  ASP760  ASP761  ALA762  ILE779  LEU786  VAL792 
 PHE793  MET794  SER795  GLU796  ALA797  LYS798  CYS799  TRP800  GLU811  SER814 

> <Gold.Protein.RotatedAtoms>
  151.3555  133.3909  159.2684 H   0  0  0  0  0  0  0  0  0  0  0  0  # atno 6907 bound_to 6896
  150.9767  134.9131  159.7830 H   0  0  0  0  0  0  0  0  0  0  0  0  # atno 6908 bound_to 6896
  152.5203  134.3518  159.9306 H   0  0  0  0  0  0  0  0  0  0  0  0  # atno 6909 bound_to 6896
  144.7250  140.2695  143.6253 H   0  0  0  0  0  0  0  0  0  0  0  0  # atno 7974 bound_to 7965
  154.6303  140.0604  156.9724 H   0  0  0  0  0  0  0  0  0  0  0  0  # atno 8008 bound_to 7997
  155.1676  140.3288  155.4380 H   0  0  0  0  0  0  0  0  0  0  0  0  # atno 8009 bound_to 7997
  156.2479  140.1920  156.6780 H   0  0  0  0  0  0  0  0  0  0  0  0  # atno 8010 bound_to 7997
  139.8442  144.6626  150.9246 H   0  0  0  0  0  0  0  0  0  0  0  0  # atno 10167 bound_to 10162
  157.2424  130.7076  149.6365 H   0  0  0  0  0  0  0  0  0  0  0  0  # atno 10718 bound_to 10713
  154.0414  135.2889  155.3354 H   0  0  0  0  0  0  0  0  0  0  0  0  # atno 10763 bound_to 10752
  154.6927  135.5220  153.8417 H   0  0  0  0  0  0  0  0  0  0  0  0  # atno 10764 bound_to 10752
  153.0598  135.6609  154.0618 H   0  0  0  0  0  0  0  0  0  0  0  0  # atno 10765 bound_to 10752
  140.8381  133.7947  155.9830 H   0  0  0  0  0  0  0  0  0  0  0  0  # atno 11005 bound_to 11000
  145.8057  139.1982  143.2022 LP  0  0  0  0  0  0  0  0  0  0  0  0  # atno 17320 bound_to 7965
  146.0639  140.7942  142.9721 LP  0  0  0  0  0  0  0  0  0  0  0  0  # atno 17321 bound_to 7965
  140.7795  143.3885  151.1352 LP  0  0  0  0  0  0  0  0  0  0  0  0  # atno 17342 bound_to 10162
  139.7528  143.8752  152.3081 LP  0  0  0  0  0  0  0  0  0  0  0  0  # atno 17343 bound_to 10162
  155.9669  130.4454  150.5498 LP  0  0  0  0  0  0  0  0  0  0  0  0  # atno 17370 bound_to 10713
  157.3364  131.0709  151.1821 LP  0  0  0  0  0  0  0  0  0  0  0  0  # atno 17371 bound_to 10713
  140.8925  134.2477  157.5086 LP  0  0  0  0  0  0  0  0  0  0  0  0  # atno 17394 bound_to 11000
  139.8703  134.9668  156.4576 LP  0  0  0  0  0  0  0  0  0  0  0  0  # atno 17395 bound_to 11000

$$$$
