AV-unprocessed.smi:2261|AV-procd|sdf|9136|dock6
  -GOLD-   2272012343D 1   1.00000     0.00000
 Structure written by MMmdl.
 41 42  0  0  0  0  0  0  0  0  1 V2000
  147.1704  139.5191  152.7207 C   0  0  0  0  0  0  0  0  0  0  0  0
  147.5411  139.4999  154.2115 C   0  0  0  0  0  0  0  0  0  0  0  0
  147.5918  138.0597  154.7496 C   0  0  0  0  0  0  0  0  0  0  0  0
  148.8395  140.2646  154.4975 C   0  0  0  0  0  0  0  0  0  0  0  0
  148.5725  140.9116  155.8423 C   0  0  1  0  0  0  0  0  0  0  0  0
  149.4098  142.0924  156.0418 N   0  0  0  0  0  0  0  0  0  0  0  0
  150.4782  142.1597  156.8501 C   0  0  0  0  0  0  0  0  0  0  0  0
  150.8848  141.2127  157.5225 O   0  0  0  0  0  0  0  0  0  0  0  0
  151.2026  143.5044  156.9073 C   0  0  0  0  0  0  0  0  0  0  0  0
  151.3489  143.9609  158.3472 C   0  0  0  0  0  0  0  0  0  0  0  0
  152.1599  143.2495  159.2558 C   0  0  0  0  0  0  0  0  0  0  0  0
  152.2605  143.7128  160.5816 C   0  0  0  0  0  0  0  0  0  0  0  0
  151.5444  144.8714  160.9434 C   0  0  0  0  0  0  0  0  0  0  0  0
  150.7656  145.5611  160.0824 N   0  0  0  0  0  0  0  0  0  0  0  0
  150.6738  145.1097  158.8129 C   0  0  0  0  0  0  0  0  0  0  0  0
  147.0603  141.2179  155.7687 C   0  0  0  0  0  0  0  0  0  0  0  0
  146.3744  141.1160  157.1403 C   0  0  0  0  0  0  0  0  0  0  0  0
  146.7152  142.5573  155.0843 C   0  0  0  0  0  0  0  0  0  0  0  0
  146.5247  140.1885  154.9386 O   0  0  0  0  0  0  0  0  0  0  0  0
  147.9306  139.0206  152.1189 H   0  0  0  0  0  0  0  0  0  0  0  0
  147.0696  140.5401  152.3513 H   0  0  0  0  0  0  0  0  0  0  0  0
  146.2208  139.0131  152.5442 H   0  0  0  0  0  0  0  0  0  0  0  0
  148.3596  137.4753  154.2418 H   0  0  0  0  0  0  0  0  0  0  0  0
  146.6381  137.5516  154.6027 H   0  0  0  0  0  0  0  0  0  0  0  0
  147.8118  138.0391  155.8172 H   0  0  0  0  0  0  0  0  0  0  0  0
  149.7227  139.6247  154.5037 H   0  0  0  0  0  0  0  0  0  0  0  0
  149.0000  141.0334  153.7399 H   0  0  0  0  0  0  0  0  0  0  0  0
  148.7701  140.1708  156.6197 H   0  0  0  0  0  0  0  0  0  0  0  0
  149.1529  142.9226  155.5280 H   0  0  0  0  0  0  0  0  0  0  0  0
  152.1843  143.4257  156.4377 H   0  0  0  0  0  0  0  0  0  0  0  0
  150.6408  144.2469  156.3391 H   0  0  0  0  0  0  0  0  0  0  0  0
  152.6937  142.3634  158.9449 H   0  0  0  0  0  0  0  0  0  0  0  0
  152.8713  143.1929  161.3045 H   0  0  0  0  0  0  0  0  0  0  0  0
  151.5990  145.2543  161.9517 H   0  0  0  0  0  0  0  0  0  0  0  0
  150.0414  145.6816  158.1496 H   0  0  0  0  0  0  0  0  0  0  0  0
  146.7339  141.8868  157.8221 H   0  0  0  0  0  0  0  0  0  0  0  0
  146.5606  140.1471  157.6047 H   0  0  0  0  0  0  0  0  0  0  0  0
  145.2943  141.2336  157.0493 H   0  0  0  0  0  0  0  0  0  0  0  0
  147.0493  143.4093  155.6771 H   0  0  0  0  0  0  0  0  0  0  0  0
  145.6381  142.6590  154.9495 H   0  0  0  0  0  0  0  0  0  0  0  0
  147.1743  142.6360  154.0986 H   0  0  0  0  0  0  0  0  0  0  0  0
  1  2  1  0  0  0  0
  1 20  1  0  0  0  0
  1 21  1  0  0  0  0
  1 22  1  0  0  0  0
  2 19  1  0  0  0  0
  2  3  1  0  0  0  0
  2  4  1  0  0  0  0
  3 23  1  0  0  0  0
  3 24  1  0  0  0  0
  3 25  1  0  0  0  0
  4  5  1  0  0  0  0
  4 26  1  0  0  0  0
  4 27  1  0  0  0  0
  5  6  1  0  0  0  0
  5 16  1  0  0  0  0
  5 28  1  0  0  0  0
  6  7  1  0  0  0  0
  6 29  1  0  0  0  0
  7  8  2  0  0  0  0
  7  9  1  0  0  0  0
  9 10  1  0  0  0  0
  9 30  1  0  0  0  0
  9 31  1  0  0  0  0
 10 15  1  0  0  0  0
 10 11  2  0  0  0  0
 11 12  1  0  0  0  0
 11 32  1  0  0  0  0
 12 13  2  0  0  0  0
 12 33  1  0  0  0  0
 13 14  1  0  0  0  0
 13 34  1  0  0  0  0
 14 15  2  0  0  0  0
 15 35  1  0  0  0  0
 16 17  1  0  0  0  0
 16 18  1  0  0  0  0
 16 19  1  0  0  0  0
 17 36  1  0  0  0  0
 17 37  1  0  0  0  0
 17 38  1  0  0  0  0
 18 39  1  0  0  0  0
 18 40  1  0  0  0  0
 18 41  1  0  0  0  0
M  END
> <s_m_source_file>
AV-unprocessed.smi

> <i_m_source_file_index>
2261

> <i_lp_mmshare_version>
43012

> <i_f3d_flags>
0

> <s_epik_input>
W0NIM11DMShbQ0gzXSlbQ0gyXVtDQEhdKEMoTzEpKFtDSDNdKVtDSDNdKVtOSF1DKD1PKVtDSDJdYzJbY0hdW2NIXVtjSF1uW2NIXTI=

> <s_epik_cmdline>
J2VwaWtfcHl0aG9uJywgJy1waCcsICc3LjAnLCAnLXRuJywgJzgnLCAnLW1hJywgJzIwMCcsICctbWV0YWxfYmluZGluZycsICctaW1hZScsICc8aW5maWxlLm1hZT4nLCAnLW9tYWUnLCAnPG91dGZpbGUubWFlPic=

> <r_epik_Ionization_Penalty>
0.00420617

> <r_epik_Ionization_Penalty_Charging>
0

> <r_epik_Ionization_Penalty_Neutral>
0.00420617

> <r_epik_State_Penalty>
0.0030219

> <r_epik_Charging_Adjusted_Penalty>
0.0030219

> <i_epik_Tot_Q>
0

> <i_epik_Tot_abs_Q>
0

> <r_epik_Metal_State_Penalty>
-0

> <b_epik_Metal_Only>
0

> <s_lp_Force_Field>
OPLS_2005

> <r_lp_Energy>
17.0757

> <b_lp_Chiralities_Consistent>
1

> <s_lp_Variant>
AV-unprocessed.smi:2261-1

> <Gold.Version>
5.8.1

> <Gold.Id.Protein>
6NUR|6NUR_protein|mol2

> <Gold.PLP.Fitness>
37.7723

> <Gold.PLP.PLP>
-32.3827

> <Gold.PLP.part.hbond>
-1.0000

> <Gold.PLP.part.metal>
0.0000

> <Gold.PLP.part.buried>
-2.3626

> <Gold.PLP.part.nonpolar>
-30.3243

> <Gold.PLP.part.repulsive>
0.3580

> <Gold.PLP.ligand.clash>
0.0000

> <Gold.PLP.ligand.torsion>
0.3077

> <Gold.PLP.Chemscore.Hbond>
1.0000

> <Gold.PLP.Chemscore.CHOScore>
0.9974

> <Gold.PLP.Chemscore.Metal>
0.0000

> <Gold.Chemscore.Hbonds>
donor molecule, donor type, donor heavy atom, donor atom, acceptor molecule, acceptor atom, score
      L1  H     6    29       P1  8028  0.90
      L1  C    15    35       P1  8029  1.00

> <Gold.PLP.Chemscore.Internal.Correction>
0.0129

> <Gold.Rescore>
     Score         DG    S(hbond)    S(metal)    S(lipo)     H(rot)  DE(clash)    DE(int)     intcor
     16.70     -17.30       1.00        0.00     100.65       1.28       0.26       0.34       ----

> <Gold.Chemscore.Fitness>
16.6979

> <Gold.Chemscore.DG>
-17.2989

> <Gold.Chemscore.ZeroCoef>
-5.4800

> <Gold.Chemscore.Hbond>
0.9971

> <Gold.Chemscore.Metal>
0.0000

> <Gold.Chemscore.Lipo>
100.6513

> <Gold.Chemscore.Internal_Hbond>
0.0000

> <Gold.Chemscore.DEClash>
0.2570

> <Gold.Chemscore.DEInternal>
0.3440

> <Gold.Chemscore.Rot>
1.2842

> <Gold.Chemscore.Internal.Correction>
   9.000000E+99

> <Gold.Chemscore.Hbonds>
donor molecule, donor type, donor heavy atom, donor atom, acceptor molecule, acceptor atom, score
      L1  H     6    29       P1  8028  0.88

> <Gold.Chemscore.Hbond.Weighted>
-3.3302

> <Gold.Chemscore.Metal.Weighted>
-0.0000

> <Gold.Chemscore.Lipo.Weighted>
-11.7762

> <Gold.Chemscore.Internal_Hbond.Weighted>
0.0000

> <Gold.Chemscore.DEClash.Weighted>
0.2570

> <Gold.Chemscore.DEInternal.Weighted>
0.3440

> <Gold.Chemscore.Rot.Weighted>
3.2875

> <Gold.Chemscore.Internal.Correction.Weighted>
   9.000000E+99

> <Gold.Protein.RotatedTorsions>
[ 6907 6896 6895 6894 ] final  -18.57 input  -60.11 | X-H torsion
[ 7974 7965 7964 7962 ] final   46.57 input  175.53 | X-H torsion
[ 8008 7997 7996 7995 ] final -157.55 input   59.86 | X-H torsion
[ 10167 10162 10161 10158 ] final  -28.85 input  -65.29 | X-H torsion
[ 10718 10713 10712 10709 ] final  142.92 input   66.30 | X-H torsion
[ 10763 10752 10751 10750 ] final   74.19 input  -60.55 | X-H torsion
[ 11005 11000 10999 10996 ] final  -42.94 input  -57.11 | X-H torsion

> <Gold.Protein.ActiveResidues>
 VAL166  LYS551  ARG553  GLY616  TRP617  ASP618  TYR619  PRO620  LYS621  CYS622 
 ASP623  PHE694  ASN695  SER759  ASP760  ASP761  ALA762  ILE779  LEU786  VAL792 
 PHE793  MET794  SER795  GLU796  ALA797  LYS798  CYS799  TRP800  GLU811  SER814 

> <Gold.Protein.RotatedAtoms>
  151.2761  135.0700  159.9151 H   0  0  0  0  0  0  0  0  0  0  0  0  # atno 6907 bound_to 6896
  152.5342  134.0079  159.7935 H   0  0  0  0  0  0  0  0  0  0  0  0  # atno 6908 bound_to 6896
  151.0325  133.5727  159.2690 H   0  0  0  0  0  0  0  0  0  0  0  0  # atno 6909 bound_to 6896
  146.0378  139.4842  142.9797 H   0  0  0  0  0  0  0  0  0  0  0  0  # atno 7974 bound_to 7965
  155.7342  140.0806  157.2275 H   0  0  0  0  0  0  0  0  0  0  0  0  # atno 8008 bound_to 7997
  154.4029  140.1590  156.2597 H   0  0  0  0  0  0  0  0  0  0  0  0  # atno 8009 bound_to 7997
  155.9081  140.3405  155.6080 H   0  0  0  0  0  0  0  0  0  0  0  0  # atno 8010 bound_to 7997
  140.7266  143.3976  151.1320 H   0  0  0  0  0  0  0  0  0  0  0  0  # atno 10167 bound_to 10162
  157.3750  131.0984  151.0793 H   0  0  0  0  0  0  0  0  0  0  0  0  # atno 10718 bound_to 10713
  153.0571  135.5035  154.8006 H   0  0  0  0  0  0  0  0  0  0  0  0  # atno 10763 bound_to 10752
  154.6824  135.2970  154.9597 H   0  0  0  0  0  0  0  0  0  0  0  0  # atno 10764 bound_to 10752
  154.0379  135.6721  153.4840 H   0  0  0  0  0  0  0  0  0  0  0  0  # atno 10765 bound_to 10752
  141.0350  133.6804  156.2664 H   0  0  0  0  0  0  0  0  0  0  0  0  # atno 11005 bound_to 11000
  145.6935  141.0157  143.1542 LP  0  0  0  0  0  0  0  0  0  0  0  0  # atno 17320 bound_to 7965
  144.7060  139.8561  143.7430 LP  0  0  0  0  0  0  0  0  0  0  0  0  # atno 17321 bound_to 7965
  139.7591  143.8662  152.3096 LP  0  0  0  0  0  0  0  0  0  0  0  0  # atno 17342 bound_to 10162
  139.8542  144.7149  150.9177 LP  0  0  0  0  0  0  0  0  0  0  0  0  # atno 17343 bound_to 10162
  157.1883  130.6340  149.5695 LP  0  0  0  0  0  0  0  0  0  0  0  0  # atno 17370 bound_to 10713
  155.9763  130.4731  150.6521 LP  0  0  0  0  0  0  0  0  0  0  0  0  # atno 17371 bound_to 10713
  140.6338  134.5236  157.5562 LP  0  0  0  0  0  0  0  0  0  0  0  0  # atno 17394 bound_to 11000
  139.9234  134.8103  156.1141 LP  0  0  0  0  0  0  0  0  0  0  0  0  # atno 17395 bound_to 11000

$$$$
