AV-unprocessed.smi:142|AV-procd|sdf|1192|dock9
  -GOLD-   2262018353D 1   1.00000     0.00000
 Structure written by MMmdl.
 52 55  0  0  0  0  0  0  0  0  1 V2000
  152.5423  137.2468  157.1051 C   0  0  0  0  0  0  0  0  0  0  0  0
  151.4603  138.3297  157.2102 C   0  0  1  0  0  0  0  0  0  0  0  0
  150.1947  137.7134  157.5996 N   0  0  0  0  0  0  0  0  0  0  0  0
  150.0641  136.7287  158.5017 C   0  0  0  0  0  0  0  0  0  0  0  0
  150.9999  136.3003  159.1775 O   0  0  0  0  0  0  0  0  0  0  0  0
  148.6609  136.1261  158.6510 C   0  0  0  0  0  0  0  0  0  0  0  0
  148.6639  134.9688  159.5717 N   0  0  0  0  0  0  0  0  0  0  0  0
  148.6726  135.1967  160.9700 C   0  0  0  0  0  0  0  0  0  0  0  0
  148.6345  136.3373  161.4334 O   0  0  0  0  0  0  0  0  0  0  0  0
  148.7422  134.0003  161.8012 C   0  0  0  0  0  0  0  0  0  0  0  0
  148.7676  134.1197  163.1394 F   0  0  0  0  0  0  0  0  0  0  0  0
  148.7918  132.7715  161.2472 C   0  0  0  0  0  0  0  0  0  0  0  0
  148.7647  132.5594  159.8826 N   0  0  0  0  0  0  0  0  0  0  0  0
  148.9014  131.1462  159.3579 C   0  0  1  0  0  0  0  0  0  0  0  0
  150.1126  130.9391  158.4357 C   0  0  0  0  0  0  0  0  0  0  0  0
  150.5315  129.5328  158.8081 C   0  0  0  0  0  0  0  0  0  0  0  0
  150.2059  129.4844  160.2969 C   0  0  0  0  0  0  0  0  0  0  0  0
  149.0236  130.2672  160.4395 O   0  0  0  0  0  0  0  0  0  0  0  0
  148.7189  133.6702  159.0085 C   0  0  0  0  0  0  0  0  0  0  0  0
  148.7373  133.5197  157.7859 O   0  0  0  0  0  0  0  0  0  0  0  0
  151.8884  139.4411  158.1651 C   0  0  0  0  0  0  0  0  0  0  0  0
  152.9179  139.2328  159.1115 C   0  0  0  0  0  0  0  0  0  0  0  0
  153.2953  140.2628  159.9939 C   0  0  0  0  0  0  0  0  0  0  0  0
  152.6515  141.5147  159.9349 C   0  0  0  0  0  0  0  0  0  0  0  0
  153.0236  142.5499  160.8176 C   0  0  0  0  0  0  0  0  0  0  0  0
  152.3766  143.7993  160.7519 C   0  0  0  0  0  0  0  0  0  0  0  0
  151.3572  144.0178  159.8051 C   0  0  0  0  0  0  0  0  0  0  0  0
  150.9815  142.9873  158.9214 C   0  0  0  0  0  0  0  0  0  0  0  0
  151.6255  141.7341  158.9825 C   0  0  0  0  0  0  0  0  0  0  0  0
  151.2512  140.6985  158.1017 C   0  0  0  0  0  0  0  0  0  0  0  0
  153.4849  137.6685  156.7548 H   0  0  0  0  0  0  0  0  0  0  0  0
  152.2503  136.4655  156.4026 H   0  0  0  0  0  0  0  0  0  0  0  0
  152.7279  136.7745  158.0705 H   0  0  0  0  0  0  0  0  0  0  0  0
  151.3289  138.7635  156.2169 H   0  0  0  0  0  0  0  0  0  0  0  0
  149.3707  138.0075  157.0959 H   0  0  0  0  0  0  0  0  0  0  0  0
  147.9849  136.9159  158.9804 H   0  0  0  0  0  0  0  0  0  0  0  0
  148.2718  135.8307  157.6746 H   0  0  0  0  0  0  0  0  0  0  0  0
  148.8520  131.9199  161.9092 H   0  0  0  0  0  0  0  0  0  0  0  0
  147.9635  130.9227  158.8478 H   0  0  0  0  0  0  0  0  0  0  0  0
  149.8277  131.0456  157.3889 H   0  0  0  0  0  0  0  0  0  0  0  0
  150.9107  131.6477  158.6521 H   0  0  0  0  0  0  0  0  0  0  0  0
  149.9223  128.8062  158.2690 H   0  0  0  0  0  0  0  0  0  0  0  0
  151.5804  129.3270  158.5940 H   0  0  0  0  0  0  0  0  0  0  0  0
  150.0536  128.4677  160.6592 H   0  0  0  0  0  0  0  0  0  0  0  0
  151.0117  129.9299  160.8806 H   0  0  0  0  0  0  0  0  0  0  0  0
  153.4236  138.2804  159.1685 H   0  0  0  0  0  0  0  0  0  0  0  0
  154.0799  140.0865  160.7147 H   0  0  0  0  0  0  0  0  0  0  0  0
  153.8047  142.3910  161.5468 H   0  0  0  0  0  0  0  0  0  0  0  0
  152.6624  144.5911  161.4287 H   0  0  0  0  0  0  0  0  0  0  0  0
  150.8627  144.9768  159.7568 H   0  0  0  0  0  0  0  0  0  0  0  0
  150.1977  143.1629  158.1992 H   0  0  0  0  0  0  0  0  0  0  0  0
  150.4667  140.8661  157.3776 H   0  0  0  0  0  0  0  0  0  0  0  0
  1  2  1  0  0  0  0
  1 31  1  0  0  0  0
  1 32  1  0  0  0  0
  1 33  1  0  0  0  0
  2  3  1  0  0  0  0
  2 21  1  0  0  0  0
  2 34  1  0  0  0  0
  3  4  1  0  0  0  0
  3 35  1  0  0  0  0
  4  5  2  0  0  0  0
  4  6  1  0  0  0  0
  6  7  1  0  0  0  0
  6 36  1  0  0  0  0
  6 37  1  0  0  0  0
  7 19  1  0  0  0  0
  7  8  1  0  0  0  0
  8  9  2  0  0  0  0
  8 10  1  0  0  0  0
 10 11  1  0  0  0  0
 10 12  2  0  0  0  0
 12 13  1  0  0  0  0
 12 38  1  0  0  0  0
 13 14  1  0  0  0  0
 13 19  1  0  0  0  0
 14 18  1  0  0  0  0
 14 15  1  0  0  0  0
 14 39  1  0  0  0  0
 15 16  1  0  0  0  0
 15 40  1  0  0  0  0
 15 41  1  0  0  0  0
 16 17  1  0  0  0  0
 16 42  1  0  0  0  0
 16 43  1  0  0  0  0
 17 18  1  0  0  0  0
 17 44  1  0  0  0  0
 17 45  1  0  0  0  0
 19 20  2  0  0  0  0
 21 30  1  0  0  0  0
 21 22  2  0  0  0  0
 22 23  1  0  0  0  0
 22 46  1  0  0  0  0
 23 24  2  0  0  0  0
 23 47  1  0  0  0  0
 24 29  1  0  0  0  0
 24 25  1  0  0  0  0
 25 26  2  0  0  0  0
 25 48  1  0  0  0  0
 26 27  1  0  0  0  0
 26 49  1  0  0  0  0
 27 28  2  0  0  0  0
 27 50  1  0  0  0  0
 28 29  1  0  0  0  0
 28 51  1  0  0  0  0
 29 30  2  0  0  0  0
 30 52  1  0  0  0  0
M  END
> <s_m_source_file>
AV-unprocessed.smi

> <i_m_source_file_index>
142

> <i_lp_mmshare_version>
43012

> <i_f3d_flags>
0

> <s_epik_input>
W2NIXTFbY0hdW2NIXVtjSF1jKGMxMilbY0hdYyhbY0hdW2NIXTIpW0NASF0oW0NIM10pW05IXUMoPU8pW0NIMl1uM2MoPU8pYyhGKVtjSF1uKGMzPU8pW0NAQEhdNFtDSDJdW0NIMl1bQ0gyXU80

> <s_epik_cmdline>
J2VwaWtfcHl0aG9uJywgJy1waCcsICc3LjAnLCAnLXRuJywgJzgnLCAnLW1hJywgJzIwMCcsICctbWV0YWxfYmluZGluZycsICctaW1hZScsICc8aW5maWxlLm1hZT4nLCAnLW9tYWUnLCAnPG91dGZpbGUubWFlPic=

> <r_lp_tautomer_probability>
1

> <r_epik_Ionization_Penalty>
3.35688e-08

> <r_epik_Ionization_Penalty_Charging>
3.59856e-09

> <r_epik_Ionization_Penalty_Neutral>
2.99702e-08

> <r_epik_State_Penalty>
-0

> <r_epik_Charging_Adjusted_Penalty>
3.59856e-09

> <i_epik_Tot_Q>
0

> <i_epik_Tot_abs_Q>
0

> <r_epik_Metal_State_Penalty>
-0

> <b_epik_Metal_Only>
0

> <s_epik_Chemistry_Notes>
This compound contains an acetal/aminal-like group ( X-CH(R)-Y where X, Y are N, S, or O) that may be acid/base labile, releasing an aldehyde.

> <s_lp_Force_Field>
OPLS_2005

> <r_lp_Energy>
24.972

> <b_lp_Chiralities_Consistent>
1

> <s_lp_Variant>
AV-unprocessed.smi:142-4

> <Gold.Version>
5.8.1

> <Gold.Id.Protein>
6NUR|6NUR_protein|mol2

> <Gold.PLP.Fitness>
59.5692

> <Gold.PLP.PLP>
-53.9162

> <Gold.PLP.part.hbond>
-3.0000

> <Gold.PLP.part.metal>
0.0000

> <Gold.PLP.part.buried>
-5.8829

> <Gold.PLP.part.nonpolar>
-45.7628

> <Gold.PLP.part.repulsive>
0.0227

> <Gold.PLP.ligand.clash>
0.0000

> <Gold.PLP.ligand.torsion>
1.1231

> <Gold.PLP.Chemscore.Hbond>
2.6000

> <Gold.PLP.Chemscore.CHOScore>
0.0000

> <Gold.PLP.Chemscore.Metal>
0.0000

> <Gold.Chemscore.Hbonds>
donor molecule, donor type, donor heavy atom, donor atom, acceptor molecule, acceptor atom, score
      P1  H  6896  6909       L1     5  0.65
      P1  H  6931  6943       L1     9  1.00

> <Gold.PLP.Chemscore.Internal.Correction>
0.0993

> <Gold.Rescore>
     Score         DG    S(hbond)    S(metal)    S(lipo)     H(rot)  DE(clash)    DE(int)     intcor
     20.69     -23.61       2.72        0.00     121.40       2.02       0.01       2.92       ----

> <Gold.Chemscore.Fitness>
20.6852

> <Gold.Chemscore.DG>
-23.6132

> <Gold.Chemscore.ZeroCoef>
-5.4800

> <Gold.Chemscore.Hbond>
2.7230

> <Gold.Chemscore.Metal>
0.0000

> <Gold.Chemscore.Lipo>
121.3966

> <Gold.Chemscore.Internal_Hbond>
0.0000

> <Gold.Chemscore.DEClash>
0.0082

> <Gold.Chemscore.DEInternal>
2.9198

> <Gold.Chemscore.Rot>
2.0175

> <Gold.Chemscore.Internal.Correction>
   9.000000E+99

> <Gold.Chemscore.Hbonds>
donor molecule, donor type, donor heavy atom, donor atom, acceptor molecule, acceptor atom, score
      P1  H  6896  6909       L1     5  0.62
      P1  H  6931  6943       L1     9  0.96

> <Gold.Chemscore.Hbond.Weighted>
-9.0947

> <Gold.Chemscore.Metal.Weighted>
-0.0000

> <Gold.Chemscore.Lipo.Weighted>
-14.2034

> <Gold.Chemscore.Internal_Hbond.Weighted>
0.0000

> <Gold.Chemscore.DEClash.Weighted>
0.0082

> <Gold.Chemscore.DEInternal.Weighted>
2.9198

> <Gold.Chemscore.Rot.Weighted>
5.1648

> <Gold.Chemscore.Internal.Correction.Weighted>
   9.000000E+99

> <Gold.Protein.RotatedTorsions>
[ 6907 6896 6895 6894 ] final   93.23 input  -60.11 | X-H torsion
[ 7974 7965 7964 7962 ] final   21.55 input  175.53 | X-H torsion
[ 8008 7997 7996 7995 ] final  167.39 input   59.86 | X-H torsion
[ 10167 10162 10161 10158 ] final  119.33 input  -65.29 | X-H torsion
[ 10718 10713 10712 10709 ] final  -95.26 input   66.30 | X-H torsion
[ 10763 10752 10751 10750 ] final  -31.38 input  -60.55 | X-H torsion
[ 11005 11000 10999 10996 ] final  117.82 input  -57.11 | X-H torsion

> <Gold.Protein.ActiveResidues>
 VAL166  LYS551  ARG553  GLY616  TRP617  ASP618  TYR619  PRO620  LYS621  CYS622 
 ASP623  PHE694  ASN695  SER759  ASP760  ASP761  ALA762  ILE779  LEU786  VAL792 
 PHE793  MET794  SER795  GLU796  ALA797  LYS798  CYS799  TRP800  GLU811  SER814 

> <Gold.Protein.RotatedAtoms>
  152.5452  134.1379  159.8466 H   0  0  0  0  0  0  0  0  0  0  0  0  # atno 6907 bound_to 6896
  151.1418  133.4959  159.2604 H   0  0  0  0  0  0  0  0  0  0  0  0  # atno 6908 bound_to 6896
  151.1564  135.0263  159.8746 H   0  0  0  0  0  0  0  0  0  0  0  0  # atno 6909 bound_to 6896
  146.2066  139.8011  142.8721 H   0  0  0  0  0  0  0  0  0  0  0  0  # atno 7974 bound_to 7965
  156.1637  140.1618  156.8568 H   0  0  0  0  0  0  0  0  0  0  0  0  # atno 8008 bound_to 7997
  154.5186  140.0783  156.8165 H   0  0  0  0  0  0  0  0  0  0  0  0  # atno 8009 bound_to 7997
  155.3654  140.3397  155.4244 H   0  0  0  0  0  0  0  0  0  0  0  0  # atno 8010 bound_to 7997
  139.6053  144.7068  151.2967 H   0  0  0  0  0  0  0  0  0  0  0  0  # atno 10167 bound_to 10162
  156.0040  130.5102  150.6049 H   0  0  0  0  0  0  0  0  0  0  0  0  # atno 10718 bound_to 10713
  153.7965  135.6893  153.4863 H   0  0  0  0  0  0  0  0  0  0  0  0  # atno 10763 bound_to 10752
  153.1716  135.4540  154.9908 H   0  0  0  0  0  0  0  0  0  0  0  0  # atno 10764 bound_to 10752
  154.8024  135.3343  154.7457 H   0  0  0  0  0  0  0  0  0  0  0  0  # atno 10765 bound_to 10752
  139.9087  134.9614  156.7409 H   0  0  0  0  0  0  0  0  0  0  0  0  # atno 11005 bound_to 11000
  145.3295  141.0263  143.3454 LP  0  0  0  0  0  0  0  0  0  0  0  0  # atno 17320 bound_to 7965
  144.8809  139.4906  143.6723 LP  0  0  0  0  0  0  0  0  0  0  0  0  # atno 17321 bound_to 7965
  140.7280  143.6947  150.7893 LP  0  0  0  0  0  0  0  0  0  0  0  0  # atno 17342 bound_to 10162
  140.0531  143.5229  152.2664 LP  0  0  0  0  0  0  0  0  0  0  0  0  # atno 17343 bound_to 10162
  157.3892  131.0793  151.1409 LP  0  0  0  0  0  0  0  0  0  0  0  0  # atno 17370 bound_to 10713
  157.2106  130.6436  149.5773 LP  0  0  0  0  0  0  0  0  0  0  0  0  # atno 17371 bound_to 10713
  140.6850  133.9440  155.7933 LP  0  0  0  0  0  0  0  0  0  0  0  0  # atno 17394 bound_to 11000
  141.0483  134.0522  157.3816 LP  0  0  0  0  0  0  0  0  0  0  0  0  # atno 17395 bound_to 11000

$$$$
