AV-unprocessed.smi:2005|AV-procd|sdf|8126|dock3
  -GOLD-   2272010363D 1   1.00000     0.00000
 Structure written by MMmdl.
 39 40  0  0  0  0  0  0  0  0  1 V2000
  145.7010  142.7333  156.0782 C   0  0  0  0  0  0  0  0  0  0  0  0
  146.3644  142.3567  154.7454 C   0  0  0  0  0  0  0  0  0  0  0  0
  145.8692  143.2045  153.5644 C   0  0  0  0  0  0  0  0  0  0  0  0
  146.2727  140.8893  154.4635 C   0  0  0  0  0  0  0  0  0  0  0  0
  145.5724  140.0409  155.2287 N   0  0  0  0  0  0  0  0  0  0  0  0
  145.6339  138.7353  154.7630 N   0  0  0  0  0  0  0  0  0  0  0  0
  146.3825  138.6346  153.6564 C   0  0  0  0  0  0  0  0  0  0  0  0
  146.6132  137.4153  152.9669 N   0  0  0  0  0  0  0  0  0  0  0  0
  145.7834  136.3668  152.8245 C   0  0  0  0  0  0  0  0  0  0  0  0
  144.6478  136.2875  153.2942 O   0  0  0  0  0  0  0  0  0  0  0  0
  146.3499  135.3994  152.0887 N   0  0  0  0  0  0  0  0  0  0  0  0
  145.7186  134.1350  151.7230 C   0  0  2  0  0  0  0  0  0  0  0  0
  146.5666  133.4297  150.6486 C   0  0  0  0  0  0  0  0  0  0  0  0
  145.9122  132.1187  150.1783 C   0  0  0  0  0  0  0  0  0  0  0  0
  144.4659  132.3296  149.6930 C   0  0  2  0  0  0  0  0  0  0  0  0
  144.4637  133.0473  148.4744 O   0  0  0  0  0  0  0  0  0  0  0  0
  143.6193  133.0701  150.7452 C   0  0  0  0  0  0  0  0  0  0  0  0
  144.2827  134.3768  151.2148 C   0  0  0  0  0  0  0  0  0  0  0  0
  147.0831  140.1412  153.0914 S   0  0  0  0  0  0  0  0  0  0  0  0
  146.1389  142.1743  156.9057 H   0  0  0  0  0  0  0  0  0  0  0  0
  144.6313  142.5225  156.0623 H   0  0  0  0  0  0  0  0  0  0  0  0
  145.8269  143.7947  156.2939 H   0  0  0  0  0  0  0  0  0  0  0  0
  147.4258  142.5815  154.8581 H   0  0  0  0  0  0  0  0  0  0  0  0
  146.4184  142.9661  152.6529 H   0  0  0  0  0  0  0  0  0  0  0  0
  146.0029  144.2684  153.7618 H   0  0  0  0  0  0  0  0  0  0  0  0
  144.8098  143.0340  153.3696 H   0  0  0  0  0  0  0  0  0  0  0  0
  147.5134  137.3370  152.5175 H   0  0  0  0  0  0  0  0  0  0  0  0
  147.2864  135.5524  151.7439 H   0  0  0  0  0  0  0  0  0  0  0  0
  145.6783  133.4877  152.6013 H   0  0  0  0  0  0  0  0  0  0  0  0
  146.7059  134.0923  149.7931 H   0  0  0  0  0  0  0  0  0  0  0  0
  147.5629  133.2194  151.0390 H   0  0  0  0  0  0  0  0  0  0  0  0
  146.5126  131.6616  149.3908 H   0  0  0  0  0  0  0  0  0  0  0  0
  145.9086  131.4094  151.0067 H   0  0  0  0  0  0  0  0  0  0  0  0
  144.0133  131.3586  149.4900 H   0  0  0  0  0  0  0  0  0  0  0  0
  145.2478  133.5733  148.4341 H   0  0  0  0  0  0  0  0  0  0  0  0
  142.6225  133.2757  150.3537 H   0  0  0  0  0  0  0  0  0  0  0  0
  143.4770  132.4186  151.6082 H   0  0  0  0  0  0  0  0  0  0  0  0
  143.6766  134.8276  152.0013 H   0  0  0  0  0  0  0  0  0  0  0  0
  144.2978  135.0927  150.3919 H   0  0  0  0  0  0  0  0  0  0  0  0
  1  2  1  0  0  0  0
  1 20  1  0  0  0  0
  1 21  1  0  0  0  0
  1 22  1  0  0  0  0
  2  3  1  0  0  0  0
  2  4  1  0  0  0  0
  2 23  1  0  0  0  0
  3 24  1  0  0  0  0
  3 25  1  0  0  0  0
  3 26  1  0  0  0  0
  4 19  1  0  0  0  0
  4  5  2  0  0  0  0
  5  6  1  0  0  0  0
  6  7  2  0  0  0  0
  7  8  1  0  0  0  0
  7 19  1  0  0  0  0
  8  9  1  0  0  0  0
  8 27  1  0  0  0  0
  9 10  2  0  0  0  0
  9 11  1  0  0  0  0
 11 12  1  0  0  0  0
 11 28  1  0  0  0  0
 12 18  1  0  0  0  0
 12 13  1  0  0  0  0
 12 29  1  0  0  0  0
 13 14  1  0  0  0  0
 13 30  1  0  0  0  0
 13 31  1  0  0  0  0
 14 15  1  0  0  0  0
 14 32  1  0  0  0  0
 14 33  1  0  0  0  0
 15 16  1  0  0  0  0
 15 17  1  0  0  0  0
 15 34  1  0  0  0  0
 16 35  1  0  0  0  0
 17 18  1  0  0  0  0
 17 36  1  0  0  0  0
 17 37  1  0  0  0  0
 18 38  1  0  0  0  0
 18 39  1  0  0  0  0
M  END
> <s_m_source_file>
AV-unprocessed.smi

> <i_m_source_file_index>
2005

> <i_lp_mmshare_version>
43012

> <i_f3d_flags>
0

> <s_epik_input>
W0NIM11bQ0hdKFtDSDNdKWMxbm5jKHMxKVtOSF1DKD1PKVtOSF1bQ0BASF0yW0NIMl1bQ0gyXVtDQEBIXShbT0hdKVtDSDJdW0NIMl0y

> <s_epik_cmdline>
J2VwaWtfcHl0aG9uJywgJy1waCcsICc3LjAnLCAnLXRuJywgJzgnLCAnLW1hJywgJzIwMCcsICctbWV0YWxfYmluZGluZycsICctaW1hZScsICc8aW5maWxlLm1hZT4nLCAnLW9tYWUnLCAnPG91dGZpbGUubWFlPic=

> <r_lp_tautomer_probability>
1

> <r_epik_Ionization_Penalty>
0.000372581

> <r_epik_Ionization_Penalty_Charging>
0

> <r_epik_Ionization_Penalty_Neutral>
0.000372581

> <r_epik_State_Penalty>
-0

> <r_epik_Charging_Adjusted_Penalty>
0

> <i_epik_Tot_Q>
0

> <i_epik_Tot_abs_Q>
0

> <r_epik_Metal_State_Penalty>
0.186152

> <b_epik_Metal_Only>
0

> <s_lp_Force_Field>
OPLS_2005

> <r_lp_Energy>
3.3573

> <b_lp_Chiralities_Consistent>
1

> <s_lp_Variant>
AV-unprocessed.smi:2005-2

> <Gold.Version>
5.8.1

> <Gold.Id.Protein>
6NUR|6NUR_protein|mol2

> <Gold.PLP.Fitness>
41.3263

> <Gold.PLP.PLP>
-33.1011

> <Gold.PLP.part.hbond>
-3.7140

> <Gold.PLP.part.metal>
0.0000

> <Gold.PLP.part.buried>
-4.8374

> <Gold.PLP.part.nonpolar>
-25.2021

> <Gold.PLP.part.repulsive>
0.2990

> <Gold.PLP.ligand.clash>
0.0000

> <Gold.PLP.ligand.torsion>
0.4149

> <Gold.PLP.Chemscore.Hbond>
2.9920

> <Gold.PLP.Chemscore.CHOScore>
0.0000

> <Gold.PLP.Chemscore.Metal>
0.0000

> <Gold.Chemscore.Hbonds>
donor molecule, donor type, donor heavy atom, donor atom, acceptor molecule, acceptor atom, score
      L1  H     8    27       P1  7948  1.00
      L1  H    11    28       P1  7948  1.00
      L1  H    16    35       P1  7921  0.94

> <Gold.PLP.Chemscore.Internal.Correction>
0.0790

> <Gold.Rescore>
     Score         DG    S(hbond)    S(metal)    S(lipo)     H(rot)  DE(clash)    DE(int)     intcor
     16.44     -19.17       2.87        0.00      72.85       1.72       0.07       2.67       ----

> <Gold.Chemscore.Fitness>
16.4360

> <Gold.Chemscore.DG>
-19.1688

> <Gold.Chemscore.ZeroCoef>
-5.4800

> <Gold.Chemscore.Hbond>
2.8654

> <Gold.Chemscore.Metal>
0.0000

> <Gold.Chemscore.Lipo>
72.8511

> <Gold.Chemscore.Internal_Hbond>
0.0000

> <Gold.Chemscore.DEClash>
0.0650

> <Gold.Chemscore.DEInternal>
2.6678

> <Gold.Chemscore.Rot>
1.7207

> <Gold.Chemscore.Internal.Correction>
   9.000000E+99

> <Gold.Chemscore.Hbonds>
donor molecule, donor type, donor heavy atom, donor atom, acceptor molecule, acceptor atom, score
      L1  H     8    27       P1  7948  0.94
      L1  H    11    28       P1  7948  0.98
      L1  H    16    35       P1  7921  0.51

> <Gold.Chemscore.Hbond.Weighted>
-9.5703

> <Gold.Chemscore.Metal.Weighted>
-0.0000

> <Gold.Chemscore.Lipo.Weighted>
-8.5236

> <Gold.Chemscore.Internal_Hbond.Weighted>
0.0000

> <Gold.Chemscore.DEClash.Weighted>
0.0650

> <Gold.Chemscore.DEInternal.Weighted>
2.6678

> <Gold.Chemscore.Rot.Weighted>
4.4051

> <Gold.Chemscore.Internal.Correction.Weighted>
   9.000000E+99

> <Gold.Protein.RotatedTorsions>
[ 6907 6896 6895 6894 ] final  -10.60 input  -60.11 | X-H torsion
[ 7974 7965 7964 7962 ] final -125.43 input  175.53 | X-H torsion
[ 8008 7997 7996 7995 ] final  -95.18 input   59.86 | X-H torsion
[ 10167 10162 10161 10158 ] final   42.86 input  -65.29 | X-H torsion
[ 10718 10713 10712 10709 ] final -113.45 input   66.30 | X-H torsion
[ 10763 10752 10751 10750 ] final -178.14 input  -60.55 | X-H torsion
[ 11005 11000 10999 10996 ] final -169.37 input  -57.11 | X-H torsion

> <Gold.Protein.ActiveResidues>
 VAL166  LYS551  ARG553  GLY616  TRP617  ASP618  TYR619  PRO620  LYS621  CYS622 
 ASP623  PHE694  ASN695  SER759  ASP760  ASP761  ALA762  ILE779  LEU786  VAL792 
 PHE793  MET794  SER795  GLU796  ALA797  LYS798  CYS799  TRP800  GLU811  SER814 

> <Gold.Protein.RotatedAtoms>
  151.3995  135.0969  159.9550 H   0  0  0  0  0  0  0  0  0  0  0  0  # atno 6907 bound_to 6896
  152.5055  133.8902  159.7400 H   0  0  0  0  0  0  0  0  0  0  0  0  # atno 6908 bound_to 6896
  150.9373  133.6640  159.2826 H   0  0  0  0  0  0  0  0  0  0  0  0  # atno 6909 bound_to 6896
  144.9977  140.7791  143.4515 H   0  0  0  0  0  0  0  0  0  0  0  0  # atno 7974 bound_to 7965
  154.7580  140.0482  157.0949 H   0  0  0  0  0  0  0  0  0  0  0  0  # atno 8008 bound_to 7997
  154.9973  140.3120  155.4862 H   0  0  0  0  0  0  0  0  0  0  0  0  # atno 8009 bound_to 7997
  156.2898  140.2208  156.5081 H   0  0  0  0  0  0  0  0  0  0  0  0  # atno 8010 bound_to 7997
  140.3501  144.2360  150.6146 H   0  0  0  0  0  0  0  0  0  0  0  0  # atno 10167 bound_to 10162
  156.0767  130.5974  150.8644 H   0  0  0  0  0  0  0  0  0  0  0  0  # atno 10718 bound_to 10713
  154.5514  135.2813  155.1005 H   0  0  0  0  0  0  0  0  0  0  0  0  # atno 10763 bound_to 10752
  154.2449  135.6350  153.5224 H   0  0  0  0  0  0  0  0  0  0  0  0  # atno 10764 bound_to 10752
  153.0004  135.5569  154.6081 H   0  0  0  0  0  0  0  0  0  0  0  0  # atno 10765 bound_to 10752
  140.5315  134.5612  157.5076 H   0  0  0  0  0  0  0  0  0  0  0  0  # atno 11005 bound_to 11000
  145.2197  139.2165  143.5099 LP  0  0  0  0  0  0  0  0  0  0  0  0  # atno 17320 bound_to 7965
  146.3445  140.2052  142.8589 LP  0  0  0  0  0  0  0  0  0  0  0  0  # atno 17321 bound_to 7965
  140.5227  143.2262  151.8364 LP  0  0  0  0  0  0  0  0  0  0  0  0  # atno 17342 bound_to 10162
  139.4827  144.4818  151.9297 LP  0  0  0  0  0  0  0  0  0  0  0  0  # atno 17343 bound_to 10162
  157.5866  131.0945  150.9186 LP  0  0  0  0  0  0  0  0  0  0  0  0  # atno 17370 bound_to 10713
  156.9370  130.5371  149.5279 LP  0  0  0  0  0  0  0  0  0  0  0  0  # atno 17371 bound_to 10713
  139.9552  134.7548  156.0358 LP  0  0  0  0  0  0  0  0  0  0  0  0  # atno 17394 bound_to 11000
  141.1279  133.6594  156.3385 LP  0  0  0  0  0  0  0  0  0  0  0  0  # atno 17395 bound_to 11000

$$$$
