AV-unprocessed.smi:2923|AV-procd|sdf|11211|dock3
  -GOLD-   2272016103D 1   1.00000     0.00000
 Structure written by MMmdl.
 46 48  0  0  0  0  0  0  0  0  1 V2000
  152.2452  140.5748  158.0179 C   0  0  0  0  0  0  0  0  0  0  0  0
  151.4404  141.0567  156.9058 N   0  0  0  0  0  0  0  0  0  0  0  0
  150.6305  142.2382  157.1608 C   0  0  0  0  0  0  0  0  0  0  0  0
  150.7259  140.0353  156.2663 C   0  0  0  0  0  0  0  0  0  0  0  0
  149.8531  139.1878  156.9858 C   0  0  0  0  0  0  0  0  0  0  0  0
  149.1624  138.1779  156.2898 C   0  0  0  0  0  0  0  0  0  0  0  0
  149.3718  138.0414  154.8968 C   0  0  0  0  0  0  0  0  0  0  0  0
  148.7204  137.0769  154.0820 N   0  0  0  0  0  0  0  0  0  0  0  0
  147.8327  136.1373  154.4489 C   0  0  0  0  0  0  0  0  0  0  0  0
  147.4533  135.9257  155.6007 O   0  0  0  0  0  0  0  0  0  0  0  0
  147.4188  135.4240  153.3939 N   0  0  0  0  0  0  0  0  0  0  0  0
  146.4888  134.3042  153.4756 C   0  0  1  0  0  0  0  0  0  0  0  0
  145.9755  133.8644  152.1048 C   0  0  2  0  0  0  0  0  0  0  0  0
  144.6493  133.8800  151.4320 C   0  0  0  0  0  0  0  0  0  0  0  0
  144.6719  132.4276  150.8850 C   0  0  0  0  0  0  0  0  0  0  0  0
  145.7998  131.7797  151.5233 O   0  0  0  0  0  0  0  0  0  0  0  0
  145.9496  132.4861  152.7377 C   0  0  1  0  0  0  0  0  0  0  0  0
  147.2019  132.9015  153.5358 C   0  0  0  0  0  0  0  0  0  0  0  0
  148.5778  132.7142  152.8637 C   0  0  0  0  0  0  0  0  0  0  0  0
  147.3212  132.2918  154.9328 C   0  0  0  0  0  0  0  0  0  0  0  0
  150.2528  138.9493  154.2736 C   0  0  0  0  0  0  0  0  0  0  0  0
  150.9185  139.9196  154.9347 N   0  0  0  0  0  0  0  0  0  0  0  0
  152.8288  139.7014  157.7238 H   0  0  0  0  0  0  0  0  0  0  0  0
  151.6181  140.3016  158.8673 H   0  0  0  0  0  0  0  0  0  0  0  0
  152.9406  141.3492  158.3429 H   0  0  0  0  0  0  0  0  0  0  0  0
  150.0721  142.5260  156.2693 H   0  0  0  0  0  0  0  0  0  0  0  0
  151.2669  143.0769  157.4435 H   0  0  0  0  0  0  0  0  0  0  0  0
  149.9212  142.0598  157.9699 H   0  0  0  0  0  0  0  0  0  0  0  0
  149.7091  139.3090  158.0495 H   0  0  0  0  0  0  0  0  0  0  0  0
  148.4804  137.5428  156.8332 H   0  0  0  0  0  0  0  0  0  0  0  0
  149.0029  137.0672  153.1128 H   0  0  0  0  0  0  0  0  0  0  0  0
  147.7813  135.6561  152.4810 H   0  0  0  0  0  0  0  0  0  0  0  0
  145.6890  134.4351  154.2107 H   0  0  0  0  0  0  0  0  0  0  0  0
  146.7593  133.9757  151.3519 H   0  0  0  0  0  0  0  0  0  0  0  0
  143.8344  134.0390  152.1399 H   0  0  0  0  0  0  0  0  0  0  0  0
  144.5839  134.6255  150.6391 H   0  0  0  0  0  0  0  0  0  0  0  0
  143.7447  131.9075  151.1284 H   0  0  0  0  0  0  0  0  0  0  0  0
  144.8009  132.4016  149.8027 H   0  0  0  0  0  0  0  0  0  0  0  0
  145.0865  132.3157  153.3918 H   0  0  0  0  0  0  0  0  0  0  0  0
  148.8298  131.6572  152.7744 H   0  0  0  0  0  0  0  0  0  0  0  0
  149.3701  133.1864  153.4454 H   0  0  0  0  0  0  0  0  0  0  0  0
  148.6376  133.1329  151.8610 H   0  0  0  0  0  0  0  0  0  0  0  0
  147.5582  131.2284  154.8867 H   0  0  0  0  0  0  0  0  0  0  0  0
  146.3922  132.3913  155.4948 H   0  0  0  0  0  0  0  0  0  0  0  0
  148.1015  132.7805  155.5173 H   0  0  0  0  0  0  0  0  0  0  0  0
  150.4347  138.8945  153.2101 H   0  0  0  0  0  0  0  0  0  0  0  0
  1  2  1  0  0  0  0
  1 23  1  0  0  0  0
  1 24  1  0  0  0  0
  1 25  1  0  0  0  0
  2  3  1  0  0  0  0
  2  4  1  0  0  0  0
  3 26  1  0  0  0  0
  3 27  1  0  0  0  0
  3 28  1  0  0  0  0
  4 22  1  0  0  0  0
  4  5  2  0  0  0  0
  5  6  1  0  0  0  0
  5 29  1  0  0  0  0
  6  7  2  0  0  0  0
  6 30  1  0  0  0  0
  7  8  1  0  0  0  0
  7 21  1  0  0  0  0
  8  9  1  0  0  0  0
  8 31  1  0  0  0  0
  9 10  2  0  0  0  0
  9 11  1  0  0  0  0
 11 12  1  0  0  0  0
 11 32  1  0  0  0  0
 12 18  1  0  0  0  0
 12 13  1  0  0  0  0
 12 33  1  0  0  0  0
 13 17  1  0  0  0  0
 13 14  1  0  0  0  0
 13 34  1  0  0  0  0
 14 15  1  0  0  0  0
 14 35  1  0  0  0  0
 14 36  1  0  0  0  0
 15 16  1  0  0  0  0
 15 37  1  0  0  0  0
 15 38  1  0  0  0  0
 16 17  1  0  0  0  0
 17 18  1  0  0  0  0
 17 39  1  0  0  0  0
 18 19  1  0  0  0  0
 18 20  1  0  0  0  0
 19 40  1  0  0  0  0
 19 41  1  0  0  0  0
 19 42  1  0  0  0  0
 20 43  1  0  0  0  0
 20 44  1  0  0  0  0
 20 45  1  0  0  0  0
 21 22  2  0  0  0  0
 21 46  1  0  0  0  0
M  END
> <s_m_source_file>
AV-unprocessed.smi

> <i_m_source_file_index>
2923

> <i_lp_mmshare_version>
43012

> <i_f3d_flags>
0

> <s_epik_input>
W0NIM11OKFtDSDNdKWMxW2NIXVtjSF1jKFtjSF1uMSlbTkhdQyg9TylbTkhdW0NASF0yQyhbQ0gzXSkoW0NIM10pW0NAQEhdKFtDQEhdMjMpT1tDSDJdW0NIMl0z

> <s_epik_cmdline>
J2VwaWtfcHl0aG9uJywgJy1waCcsICc3LjAnLCAnLXRuJywgJzgnLCAnLW1hJywgJzIwMCcsICctbWV0YWxfYmluZGluZycsICctaW1hZScsICc8aW5maWxlLm1hZT4nLCAnLW9tYWUnLCAnPG91dGZpbGUubWFlPic=

> <r_lp_tautomer_probability>
1

> <r_epik_Ionization_Penalty>
0.628785

> <r_epik_Ionization_Penalty_Charging>
0

> <r_epik_Ionization_Penalty_Neutral>
0.628785

> <r_epik_State_Penalty>
0.644286

> <r_epik_Charging_Adjusted_Penalty>
0.644286

> <i_epik_Tot_Q>
0

> <i_epik_Tot_abs_Q>
0

> <r_epik_Metal_State_Penalty>
0.308404

> <b_epik_Metal_Only>
0

> <s_lp_Force_Field>
OPLS_2005

> <r_lp_Energy>
66.101

> <b_lp_Chiralities_Consistent>
1

> <s_lp_Variant>
AV-unprocessed.smi:2923-10

> <Gold.Version>
5.8.1

> <Gold.Id.Protein>
6NUR|6NUR_protein|mol2

> <Gold.PLP.Fitness>
37.3748

> <Gold.PLP.PLP>
-26.4327

> <Gold.PLP.part.hbond>
-2.5429

> <Gold.PLP.part.metal>
0.0000

> <Gold.PLP.part.buried>
-4.1786

> <Gold.PLP.part.nonpolar>
-20.3815

> <Gold.PLP.part.repulsive>
0.2388

> <Gold.PLP.ligand.clash>
0.0000

> <Gold.PLP.ligand.torsion>
0.5245

> <Gold.PLP.Chemscore.Hbond>
2.8400

> <Gold.PLP.Chemscore.CHOScore>
1.0000

> <Gold.PLP.Chemscore.Metal>
0.0000

> <Gold.Chemscore.Hbonds>
donor molecule, donor type, donor heavy atom, donor atom, acceptor molecule, acceptor atom, score
      L1  H     8    31       P1  7948  0.79
      L1  H    11    32       P1  7948  0.62
      P1  H  7989  7998       L1    22  1.00
      L1  C    21    46       P1  7957  1.00

> <Gold.PLP.Chemscore.Internal.Correction>
0.4710

> <Gold.Rescore>
     Score         DG    S(hbond)    S(metal)    S(lipo)     H(rot)  DE(clash)    DE(int)     intcor
     16.03     -17.70       2.44        0.00      60.88       1.19       0.05       1.62       ----

> <Gold.Chemscore.Fitness>
16.0305

> <Gold.Chemscore.DG>
-17.7010

> <Gold.Chemscore.ZeroCoef>
-5.4800

> <Gold.Chemscore.Hbond>
2.4413

> <Gold.Chemscore.Metal>
0.0000

> <Gold.Chemscore.Lipo>
60.8812

> <Gold.Chemscore.Internal_Hbond>
0.0000

> <Gold.Chemscore.DEClash>
0.0456

> <Gold.Chemscore.DEInternal>
1.6250

> <Gold.Chemscore.Rot>
1.1937

> <Gold.Chemscore.Internal.Correction>
   9.000000E+99

> <Gold.Chemscore.Hbonds>
donor molecule, donor type, donor heavy atom, donor atom, acceptor molecule, acceptor atom, score
      L1  H     8    31       P1  7948  0.75
      L1  H    11    32       P1  7948  0.61
      P1  H  7989  7998       L1    22  0.26

> <Gold.Chemscore.Hbond.Weighted>
-8.1538

> <Gold.Chemscore.Metal.Weighted>
-0.0000

> <Gold.Chemscore.Lipo.Weighted>
-7.1231

> <Gold.Chemscore.Internal_Hbond.Weighted>
0.0000

> <Gold.Chemscore.DEClash.Weighted>
0.0456

> <Gold.Chemscore.DEInternal.Weighted>
1.6250

> <Gold.Chemscore.Rot.Weighted>
3.0559

> <Gold.Chemscore.Internal.Correction.Weighted>
   9.000000E+99

> <Gold.Protein.RotatedTorsions>
[ 6907 6896 6895 6894 ] final  114.02 input  -60.11 | X-H torsion
[ 7974 7965 7964 7962 ] final    0.43 input  175.53 | X-H torsion
[ 8008 7997 7996 7995 ] final -167.37 input   59.86 | X-H torsion
[ 10167 10162 10161 10158 ] final  173.40 input  -65.29 | X-H torsion
[ 10718 10713 10712 10709 ] final  163.71 input   66.30 | X-H torsion
[ 10763 10752 10751 10750 ] final  -73.86 input  -60.55 | X-H torsion
[ 11005 11000 10999 10996 ] final  -10.36 input  -57.11 | X-H torsion

> <Gold.Protein.ActiveResidues>
 VAL166  LYS551  ARG553  GLY616  TRP617  ASP618  TYR619  PRO620  LYS621  CYS622 
 ASP623  PHE694  ASN695  SER759  ASP760  ASP761  ALA762  ILE779  LEU786  VAL792 
 PHE793  MET794  SER795  GLU796  ALA797  LYS798  CYS799  TRP800  GLU811  SER814 

> <Gold.Protein.RotatedAtoms>
  152.4827  133.8295  159.7095 H   0  0  0  0  0  0  0  0  0  0  0  0  # atno 6907 bound_to 6896
  150.8889  133.7260  159.2917 H   0  0  0  0  0  0  0  0  0  0  0  0  # atno 6908 bound_to 6896
  151.4740  135.1051  159.9811 H   0  0  0  0  0  0  0  0  0  0  0  0  # atno 6909 bound_to 6896
  146.2434  140.1138  142.8343 H   0  0  0  0  0  0  0  0  0  0  0  0  # atno 7974 bound_to 7965
  155.8768  140.1002  157.1512 H   0  0  0  0  0  0  0  0  0  0  0  0  # atno 8008 bound_to 7997
  154.4001  140.1336  156.4210 H   0  0  0  0  0  0  0  0  0  0  0  0  # atno 8009 bound_to 7997
  155.7688  140.3461  155.5238 H   0  0  0  0  0  0  0  0  0  0  0  0  # atno 8010 bound_to 7997
  139.5107  144.3265  152.0153 H   0  0  0  0  0  0  0  0  0  0  0  0  # atno 10167 bound_to 10162
  157.1046  131.0452  151.2483 H   0  0  0  0  0  0  0  0  0  0  0  0  # atno 10718 bound_to 10713
  154.4652  135.5883  153.6283 H   0  0  0  0  0  0  0  0  0  0  0  0  # atno 10763 bound_to 10752
  152.9828  135.6053  154.3436 H   0  0  0  0  0  0  0  0  0  0  0  0  # atno 10764 bound_to 10752
  154.3312  135.2842  155.2450 H   0  0  0  0  0  0  0  0  0  0  0  0  # atno 10765 bound_to 10752
  140.7439  133.8647  155.8990 H   0  0  0  0  0  0  0  0  0  0  0  0  # atno 11005 bound_to 11000
  145.0464  140.8985  143.5021 LP  0  0  0  0  0  0  0  0  0  0  0  0  # atno 17320 bound_to 7965
  145.1228  139.2682  143.5579 LP  0  0  0  0  0  0  0  0  0  0  0  0  # atno 17321 bound_to 7965
  140.2705  144.3969  150.6153 LP  0  0  0  0  0  0  0  0  0  0  0  0  # atno 17342 bound_to 10162
  140.6092  143.2169  151.6921 LP  0  0  0  0  0  0  0  0  0  0  0  0  # atno 17343 bound_to 10162
  157.4611  130.7654  149.7237 LP  0  0  0  0  0  0  0  0  0  0  0  0  # atno 17370 bound_to 10713
  155.9865  130.3974  150.3209 LP  0  0  0  0  0  0  0  0  0  0  0  0  # atno 17371 bound_to 10713
  140.9812  134.1403  157.4493 LP  0  0  0  0  0  0  0  0  0  0  0  0  # atno 17394 bound_to 11000
  139.8800  135.0011  156.6047 LP  0  0  0  0  0  0  0  0  0  0  0  0  # atno 17395 bound_to 11000

$$$$
