AV-unprocessed.smi:937|AV-procd|sdf|4216|dock9
  -GOLD-   22720 2123D 1   1.00000     0.00000
 Structure written by MMmdl.
 46 47  0  0  0  0  0  0  0  0  2 V2000
  151.7274  143.9309  158.5019 C   0  0  0  0  0  0  0  0  0  0  0  0
  151.4240  142.6663  157.7269 C   0  0  0  0  0  0  0  0  0  0  0  0
  151.9404  141.4075  158.1031 C   0  0  0  0  0  0  0  0  0  0  0  0
  151.6193  140.2724  157.3298 C   0  0  0  0  0  0  0  0  0  0  0  0
  150.7880  140.4180  156.1975 C   0  0  0  0  0  0  0  0  0  0  0  0
  150.4329  139.2211  155.3370 C   0  0  0  0  0  0  0  0  0  0  0  0
  149.6818  139.6319  154.0637 C   0  0  0  0  0  0  0  0  0  0  0  0
  148.8990  138.5188  153.5455 N   0  0  0  0  0  0  0  0  0  0  0  0
  147.6488  138.2212  153.9350 C   0  0  0  0  0  0  0  0  0  0  0  0
  147.0290  138.8735  154.7726 O   0  0  0  0  0  0  0  0  0  0  0  0
  147.1167  137.1352  153.3460 N   0  0  0  0  0  0  0  0  0  0  0  0
  145.7891  136.5441  153.5432 C   0  0  1  0  0  0  0  0  0  0  0  0
  144.7308  137.1864  152.6200 C   0  0  0  0  0  0  0  0  0  0  0  0
  144.9482  136.8135  151.1448 C   0  0  0  0  0  0  0  0  0  0  0  0
  144.9896  135.2894  150.9553 C   0  0  0  0  0  0  0  0  0  0  0  0
  146.0709  134.6339  151.8398 C   0  0  2  0  0  0  0  0  0  0  0  0
  146.1281  133.1045  151.6452 C   0  0  0  0  0  0  0  0  0  0  0  0
  147.0970  132.5669  152.3872 F   0  0  0  0  0  0  0  0  0  0  0  0
  144.9642  132.5554  151.9930 F   0  0  0  0  0  0  0  0  0  0  0  0
  146.3566  132.8166  150.3637 F   0  0  0  0  0  0  0  0  0  0  0  0
  145.8533  135.0192  153.3218 C   0  0  0  0  0  0  0  0  0  0  0  0
  150.2995  141.7013  155.8711 C   0  0  0  0  0  0  0  0  0  0  0  0
  150.6309  142.7639  156.6365 N   0  3  0  0  0  0  0  0  0  0  0  0
  152.3677  143.7229  159.3596 H   0  0  0  0  0  0  0  0  0  0  0  0
  150.8054  144.3842  158.8671 H   0  0  0  0  0  0  0  0  0  0  0  0
  152.2376  144.6531  157.8639 H   0  0  0  0  0  0  0  0  0  0  0  0
  152.5769  141.3103  158.9708 H   0  0  0  0  0  0  0  0  0  0  0  0
  152.0107  139.3031  157.6033 H   0  0  0  0  0  0  0  0  0  0  0  0
  151.3446  138.6807  155.0777 H   0  0  0  0  0  0  0  0  0  0  0  0
  149.8238  138.5336  155.9257 H   0  0  0  0  0  0  0  0  0  0  0  0
  149.0259  140.4771  154.2800 H   0  0  0  0  0  0  0  0  0  0  0  0
  150.3854  139.9576  153.2963 H   0  0  0  0  0  0  0  0  0  0  0  0
  149.3354  137.9288  152.8519 H   0  0  0  0  0  0  0  0  0  0  0  0
  147.7169  136.6440  152.6992 H   0  0  0  0  0  0  0  0  0  0  0  0
  145.4935  136.7072  154.5809 H   0  0  0  0  0  0  0  0  0  0  0  0
  143.7405  136.8478  152.9276 H   0  0  0  0  0  0  0  0  0  0  0  0
  144.7227  138.2709  152.7316 H   0  0  0  0  0  0  0  0  0  0  0  0
  144.1511  137.2398  150.5351 H   0  0  0  0  0  0  0  0  0  0  0  0
  145.8785  137.2548  150.7845 H   0  0  0  0  0  0  0  0  0  0  0  0
  144.0120  134.8679  151.1927 H   0  0  0  0  0  0  0  0  0  0  0  0
  145.1752  135.0624  149.9053 H   0  0  0  0  0  0  0  0  0  0  0  0
  147.0374  135.0325  151.5275 H   0  0  0  0  0  0  0  0  0  0  0  0
  146.6426  134.5917  153.9414 H   0  0  0  0  0  0  0  0  0  0  0  0
  144.9224  134.5731  153.6740 H   0  0  0  0  0  0  0  0  0  0  0  0
  149.6625  141.9099  155.0238 H   0  0  0  0  0  0  0  0  0  0  0  0
  150.2682  143.6819  156.3781 H   0  0  0  0  0  0  0  0  0  0  0  0
  1  2  1  0  0  0  0
  1 24  1  0  0  0  0
  1 25  1  0  0  0  0
  1 26  1  0  0  0  0
  2 23  1  0  0  0  0
  2  3  2  0  0  0  0
  3  4  1  0  0  0  0
  3 27  1  0  0  0  0
  4  5  2  0  0  0  0
  4 28  1  0  0  0  0
  5  6  1  0  0  0  0
  5 22  1  0  0  0  0
  6  7  1  0  0  0  0
  6 29  1  0  0  0  0
  6 30  1  0  0  0  0
  7  8  1  0  0  0  0
  7 31  1  0  0  0  0
  7 32  1  0  0  0  0
  8  9  1  0  0  0  0
  8 33  1  0  0  0  0
  9 10  2  0  0  0  0
  9 11  1  0  0  0  0
 11 12  1  0  0  0  0
 11 34  1  0  0  0  0
 12 21  1  0  0  0  0
 12 13  1  0  0  0  0
 12 35  1  0  0  0  0
 13 14  1  0  0  0  0
 13 36  1  0  0  0  0
 13 37  1  0  0  0  0
 14 15  1  0  0  0  0
 14 38  1  0  0  0  0
 14 39  1  0  0  0  0
 15 16  1  0  0  0  0
 15 40  1  0  0  0  0
 15 41  1  0  0  0  0
 16 17  1  0  0  0  0
 16 21  1  0  0  0  0
 16 42  1  0  0  0  0
 17 18  1  0  0  0  0
 17 19  1  0  0  0  0
 17 20  1  0  0  0  0
 21 43  1  0  0  0  0
 21 44  1  0  0  0  0
 22 23  2  0  0  0  0
 22 45  1  0  0  0  0
 23 46  1  0  0  0  0
M  CHG  1  23   1
M  END
> <s_m_source_file>
AV-unprocessed.smi

> <i_m_source_file_index>
937

> <i_lp_mmshare_version>
43012

> <i_f3d_flags>
0

> <s_epik_input>
W0NIM11jMVtjSF1bY0hdYyhbY0hdbjEpW0NIMl1bQ0gyXVtOSF1DKD1PKVtOSF1bQ0BASF0yW0NIMl1bQ0gyXVtDSDJdW0NAQEhdKEMoRikoRilGKVtDSDJdMg==

> <s_epik_cmdline>
J2VwaWtfcHl0aG9uJywgJy1waCcsICc3LjAnLCAnLXRuJywgJzgnLCAnLW1hJywgJzIwMCcsICctbWV0YWxfYmluZGluZycsICctaW1hZScsICc8aW5maWxlLm1hZT4nLCAnLW9tYWUnLCAnPG91dGZpbGUubWFlPic=

> <r_epik_Ionization_Penalty>
1.4226

> <r_epik_Ionization_Penalty_Charging>
1.42255

> <r_epik_Ionization_Penalty_Neutral>
5.16456e-05

> <r_epik_State_Penalty>
1.50646

> <r_epik_Charging_Adjusted_Penalty>
2.92901

> <i_epik_Tot_Q>
1

> <i_epik_Tot_abs_Q>
1

> <r_epik_Metal_State_Penalty>
1.55846

> <b_epik_Metal_Only>
0

> <s_lp_Force_Field>
OPLS_2005

> <r_lp_Energy>
25.1059

> <b_lp_Chiralities_Consistent>
1

> <s_lp_Variant>
AV-unprocessed.smi:937-8

> <Gold.Version>
5.8.1

> <Gold.Id.Protein>
6NUR|6NUR_protein|mol2

> <Gold.PLP.Fitness>
47.3873

> <Gold.PLP.PLP>
-37.4253

> <Gold.PLP.part.hbond>
-3.9830

> <Gold.PLP.part.metal>
0.0000

> <Gold.PLP.part.buried>
2.4973

> <Gold.PLP.part.nonpolar>
-36.7443

> <Gold.PLP.part.repulsive>
0.2163

> <Gold.PLP.ligand.clash>
0.0000

> <Gold.PLP.ligand.torsion>
0.7349

> <Gold.PLP.Chemscore.Hbond>
3.8000

> <Gold.PLP.Chemscore.CHOScore>
0.0000

> <Gold.PLP.Chemscore.Metal>
0.0000

> <Gold.Chemscore.Hbonds>
donor molecule, donor type, donor heavy atom, donor atom, acceptor molecule, acceptor atom, score
      L1  H     8    33       P1  7948  0.82
      L1  H    11    34       P1  7948  1.00
      L1  H    23    46       P1  8028  2.00

> <Gold.PLP.Chemscore.Internal.Correction>
0.0318

> <Gold.Rescore>
     Score         DG    S(hbond)    S(metal)    S(lipo)     H(rot)  DE(clash)    DE(int)     intcor
     18.93     -21.09       2.78        0.00      90.23       1.66       1.40       0.76       ----

> <Gold.Chemscore.Fitness>
18.9322

> <Gold.Chemscore.DG>
-21.0891

> <Gold.Chemscore.ZeroCoef>
-5.4800

> <Gold.Chemscore.Hbond>
2.7838

> <Gold.Chemscore.Metal>
0.0000

> <Gold.Chemscore.Lipo>
90.2306

> <Gold.Chemscore.Internal_Hbond>
0.0000

> <Gold.Chemscore.DEClash>
1.3970

> <Gold.Chemscore.DEInternal>
0.7599

> <Gold.Chemscore.Rot>
1.6585

> <Gold.Chemscore.Internal.Correction>
   9.000000E+99

> <Gold.Chemscore.Hbonds>
donor molecule, donor type, donor heavy atom, donor atom, acceptor molecule, acceptor atom, score
      L1  H     8    33       P1  7948  0.74
      L1  H    11    34       P1  7948  0.94
      L1  H    23    46       P1  8028  0.94

> <Gold.Chemscore.Hbond.Weighted>
-9.2978

> <Gold.Chemscore.Metal.Weighted>
-0.0000

> <Gold.Chemscore.Lipo.Weighted>
-10.5570

> <Gold.Chemscore.Internal_Hbond.Weighted>
0.0000

> <Gold.Chemscore.DEClash.Weighted>
1.3970

> <Gold.Chemscore.DEInternal.Weighted>
0.7599

> <Gold.Chemscore.Rot.Weighted>
4.2457

> <Gold.Chemscore.Internal.Correction.Weighted>
   9.000000E+99

> <Gold.Protein.RotatedTorsions>
[ 6907 6896 6895 6894 ] final  -78.50 input  -60.11 | X-H torsion
[ 7974 7965 7964 7962 ] final  -12.01 input  175.53 | X-H torsion
[ 8008 7997 7996 7995 ] final  -26.92 input   59.86 | X-H torsion
[ 10167 10162 10161 10158 ] final   35.21 input  -65.29 | X-H torsion
[ 10718 10713 10712 10709 ] final  -29.83 input   66.30 | X-H torsion
[ 10763 10752 10751 10750 ] final  166.45 input  -60.55 | X-H torsion
[ 11005 11000 10999 10996 ] final  -95.24 input  -57.11 | X-H torsion

> <Gold.Protein.ActiveResidues>
 VAL166  LYS551  ARG553  GLY616  TRP617  ASP618  TYR619  PRO620  LYS621  CYS622 
 ASP623  PHE694  ASN695  SER759  ASP760  ASP761  ALA762  ILE779  LEU786  VAL792 
 PHE793  MET794  SER795  GLU796  ALA797  LYS798  CYS799  TRP800  GLU811  SER814 

> <Gold.Protein.RotatedAtoms>
  150.6971  134.4263  159.5227 H   0  0  0  0  0  0  0  0  0  0  0  0  # atno 6907 bound_to 6896
  152.1997  134.8596  160.0518 H   0  0  0  0  0  0  0  0  0  0  0  0  # atno 6908 bound_to 6896
  151.9520  133.3634  159.4040 H   0  0  0  0  0  0  0  0  0  0  0  0  # atno 6909 bound_to 6896
  146.2167  140.2995  142.8374 H   0  0  0  0  0  0  0  0  0  0  0  0  # atno 7974 bound_to 7965
  154.4402  140.1886  156.0850 H   0  0  0  0  0  0  0  0  0  0  0  0  # atno 8008 bound_to 7997
  156.0409  140.3320  155.7216 H   0  0  0  0  0  0  0  0  0  0  0  0  # atno 8009 bound_to 7997
  155.5701  140.0612  157.2799 H   0  0  0  0  0  0  0  0  0  0  0  0  # atno 8010 bound_to 7997
  140.4243  144.1415  150.6151 H   0  0  0  0  0  0  0  0  0  0  0  0  # atno 10167 bound_to 10162
  156.4074  130.4401  149.7277 H   0  0  0  0  0  0  0  0  0  0  0  0  # atno 10718 bound_to 10713
  154.3391  135.2754  155.2432 H   0  0  0  0  0  0  0  0  0  0  0  0  # atno 10763 bound_to 10752
  154.4710  135.5883  153.6325 H   0  0  0  0  0  0  0  0  0  0  0  0  # atno 10764 bound_to 10752
  152.9859  135.6088  154.3591 H   0  0  0  0  0  0  0  0  0  0  0  0  # atno 10765 bound_to 10752
  141.1447  133.8012  157.0408 H   0  0  0  0  0  0  0  0  0  0  0  0  # atno 11005 bound_to 11000
  144.9068  140.7709  143.5833 LP  0  0  0  0  0  0  0  0  0  0  0  0  # atno 17320 bound_to 7965
  145.2924  139.1879  143.4733 LP  0  0  0  0  0  0  0  0  0  0  0  0  # atno 17321 bound_to 7965
  140.4498  143.2491  151.9362 LP  0  0  0  0  0  0  0  0  0  0  0  0  # atno 17342 bound_to 10162
  139.4783  144.5573  151.8294 LP  0  0  0  0  0  0  0  0  0  0  0  0  # atno 17343 bound_to 10162
  156.4269  130.7796  151.2815 LP  0  0  0  0  0  0  0  0  0  0  0  0  # atno 17370 bound_to 10713
  157.7506  131.0166  150.3550 LP  0  0  0  0  0  0  0  0  0  0  0  0  # atno 17371 bound_to 10713
  140.0694  134.9711  157.1441 LP  0  0  0  0  0  0  0  0  0  0  0  0  # atno 17394 bound_to 11000
  140.3733  134.2367  155.7176 LP  0  0  0  0  0  0  0  0  0  0  0  0  # atno 17395 bound_to 11000

$$$$
