AV-unprocessed.smi:21|AV-procd|sdf|157|dock7
  -GOLD-   2262015393D 1   1.00000     0.00000
 Structure written by MMmdl.
 61 64  0  0  0  0  0  0  0  0  1 V2000
  151.7171  145.1885  158.6833 C   0  0  0  0  0  0  0  0  0  0  0  0
  150.4533  144.5597  158.5418 O   0  0  0  0  0  0  0  0  0  0  0  0
  150.5118  143.1429  158.6375 C   0  0  1  0  0  0  0  0  0  0  0  0
  149.1205  142.4997  158.5060 C   0  0  0  0  0  0  0  0  0  0  0  0
  149.3097  141.4145  157.4405 C   0  0  1  0  0  0  0  0  0  0  0  0
  147.9925  141.0087  156.7463 C   0  0  0  0  0  0  0  0  0  0  0  0
  148.1941  140.5043  155.3882 N   0  0  0  0  0  0  0  0  0  0  0  0
  148.0570  141.4521  154.2849 C   0  0  0  0  0  0  0  0  0  0  0  0
  147.7500  139.2391  155.1733 C   0  0  0  0  0  0  0  0  0  0  0  0
  147.9814  138.2749  156.1045 N   0  0  0  0  0  0  0  0  0  0  0  0
  147.5625  137.0231  155.8995 C   0  0  0  0  0  0  0  0  0  0  0  0
  146.8977  136.5266  154.8551 N   0  0  0  0  0  0  0  0  0  0  0  0
  146.6505  137.4889  153.9212 C   0  0  0  0  0  0  0  0  0  0  0  0
  147.0429  138.8555  153.9983 C   0  0  0  0  0  0  0  0  0  0  0  0
  146.6176  139.5313  152.8620 N   0  0  0  0  0  0  0  0  0  0  0  0
  146.0185  138.6173  152.1503 C   0  0  0  0  0  0  0  0  0  0  0  0
  145.9743  137.3636  152.7183 N   0  0  0  0  0  0  0  0  0  0  0  0
  145.3674  136.1672  152.1509 C   0  0  0  0  0  0  0  0  0  0  0  0
  145.7185  134.8508  152.8983 C   0  0  1  0  0  0  0  0  0  0  0  0
  144.8849  134.6721  154.1891 C   0  0  0  0  0  0  0  0  0  0  0  0
  145.2360  133.4756  154.8519 O   0  0  0  0  0  0  0  0  0  0  0  0
  145.6174  133.6028  151.9818 C   0  0  2  0  0  0  0  0  0  0  0  0
  146.5348  133.6188  150.7700 C   0  0  0  0  0  0  0  0  0  0  0  0
  145.8915  132.5853  149.8501 C   0  0  0  0  0  0  0  0  0  0  0  0
  144.5022  132.5987  150.1581 O   0  0  0  0  0  0  0  0  0  0  0  0
  144.2639  133.4381  151.2818 C   0  0  0  0  0  0  0  0  0  0  0  0
  150.3157  141.9696  156.5510 N   0  0  0  0  0  0  0  0  0  0  0  0
  150.9204  140.9892  155.6590 C   0  0  0  0  0  0  0  0  0  0  0  0
  151.2899  142.5731  157.4435 C   0  0  0  0  0  0  0  0  0  0  0  0
  151.0050  142.8413  159.5631 H   0  0  0  0  0  0  0  0  0  0  0  0
  149.7397  140.5398  157.9303 H   0  0  0  0  0  0  0  0  0  0  0  0
  151.5999  146.2672  158.5826 H   0  0  0  0  0  0  0  0  0  0  0  0
  152.4118  144.8541  157.9119 H   0  0  0  0  0  0  0  0  0  0  0  0
  152.1584  144.9912  159.6607 H   0  0  0  0  0  0  0  0  0  0  0  0
  148.7503  142.0991  159.4501 H   0  0  0  0  0  0  0  0  0  0  0  0
  148.4047  143.2420  158.1528 H   0  0  0  0  0  0  0  0  0  0  0  0
  147.4643  140.2839  157.3664 H   0  0  0  0  0  0  0  0  0  0  0  0
  147.3316  141.8725  156.6744 H   0  0  0  0  0  0  0  0  0  0  0  0
  148.3343  140.9911  153.3361 H   0  0  0  0  0  0  0  0  0  0  0  0
  148.7075  142.3141  154.4279 H   0  0  0  0  0  0  0  0  0  0  0  0
  147.0299  141.8106  154.2089 H   0  0  0  0  0  0  0  0  0  0  0  0
  147.7939  136.3179  156.6841 H   0  0  0  0  0  0  0  0  0  0  0  0
  145.5854  138.8410  151.1874 H   0  0  0  0  0  0  0  0  0  0  0  0
  144.2877  136.3147  152.1244 H   0  0  0  0  0  0  0  0  0  0  0  0
  145.6725  136.0948  151.1064 H   0  0  0  0  0  0  0  0  0  0  0  0
  146.7629  134.9336  153.2037 H   0  0  0  0  0  0  0  0  0  0  0  0
  145.0101  135.5176  154.8654 H   0  0  0  0  0  0  0  0  0  0  0  0
  143.8212  134.6054  153.9636 H   0  0  0  0  0  0  0  0  0  0  0  0
  144.6075  132.8084  154.6214 H   0  0  0  0  0  0  0  0  0  0  0  0
  145.8327  132.7005  152.5557 H   0  0  0  0  0  0  0  0  0  0  0  0
  146.5201  134.6006  150.2939 H   0  0  0  0  0  0  0  0  0  0  0  0
  147.5699  133.3705  151.0060 H   0  0  0  0  0  0  0  0  0  0  0  0
  146.0675  132.8035  148.7965 H   0  0  0  0  0  0  0  0  0  0  0  0
  146.2829  131.5894  150.0607 H   0  0  0  0  0  0  0  0  0  0  0  0
  143.4963  133.0123  151.9270 H   0  0  0  0  0  0  0  0  0  0  0  0
  143.8986  134.3997  150.9187 H   0  0  0  0  0  0  0  0  0  0  0  0
  151.7048  141.4505  155.0583 H   0  0  0  0  0  0  0  0  0  0  0  0
  150.1820  140.5760  154.9724 H   0  0  0  0  0  0  0  0  0  0  0  0
  151.3631  140.1646  156.2192 H   0  0  0  0  0  0  0  0  0  0  0  0
  151.8845  143.3293  156.9298 H   0  0  0  0  0  0  0  0  0  0  0  0
  151.9799  141.8110  157.8094 H   0  0  0  0  0  0  0  0  0  0  0  0
  1  2  1  0  0  0  0
  1 32  1  0  0  0  0
  1 33  1  0  0  0  0
  1 34  1  0  0  0  0
  2  3  1  0  0  0  0
  3 30  1  0  0  0  0
  3 29  1  0  0  0  0
  3  4  1  0  0  0  0
  4  5  1  0  0  0  0
  4 35  1  0  0  0  0
  4 36  1  0  0  0  0
  5 31  1  0  0  0  0
  5  6  1  0  0  0  0
  5 27  1  0  0  0  0
  6  7  1  0  0  0  0
  6 37  1  0  0  0  0
  6 38  1  0  0  0  0
  7  8  1  0  0  0  0
  7  9  1  0  0  0  0
  8 39  1  0  0  0  0
  8 40  1  0  0  0  0
  8 41  1  0  0  0  0
  9 14  1  0  0  0  0
  9 10  2  0  0  0  0
 10 11  1  0  0  0  0
 11 12  2  0  0  0  0
 11 42  1  0  0  0  0
 12 13  1  0  0  0  0
 13 17  1  0  0  0  0
 13 14  2  0  0  0  0
 14 15  1  0  0  0  0
 15 16  2  0  0  0  0
 16 17  1  0  0  0  0
 16 43  1  0  0  0  0
 17 18  1  0  0  0  0
 18 19  1  0  0  0  0
 18 44  1  0  0  0  0
 18 45  1  0  0  0  0
 19 20  1  0  0  0  0
 19 22  1  0  0  0  0
 19 46  1  0  0  0  0
 20 21  1  0  0  0  0
 20 47  1  0  0  0  0
 20 48  1  0  0  0  0
 21 49  1  0  0  0  0
 22 26  1  0  0  0  0
 22 23  1  0  0  0  0
 22 50  1  0  0  0  0
 23 24  1  0  0  0  0
 23 51  1  0  0  0  0
 23 52  1  0  0  0  0
 24 25  1  0  0  0  0
 24 53  1  0  0  0  0
 24 54  1  0  0  0  0
 25 26  1  0  0  0  0
 26 55  1  0  0  0  0
 26 56  1  0  0  0  0
 27 28  1  0  0  0  0
 27 29  1  0  0  0  0
 28 57  1  0  0  0  0
 28 58  1  0  0  0  0
 28 59  1  0  0  0  0
 29 60  1  0  0  0  0
 29 61  1  0  0  0  0
M  END
> <s_m_source_file>
AV-unprocessed.smi

> <i_m_source_file_index>
21

> <i_lp_mmshare_version>
43012

> <i_f3d_flags>
0

> <s_epik_input>
W0NIM11PW0NASF0xW0NIMl1bQ0BIXShOKFtDSDNdKVtDSDJdMSlbQ0gyXU4oW0NIM10pYyhuW2NIXW4yKWMoYzIzKW5bY0hdbjNbQ0gyXVtDQEhdKFtDSDJdW09IXSlbQ0BASF00W0NIMl1bQ0gyXU9bQ0gyXTQ=

> <s_epik_cmdline>
J2VwaWtfcHl0aG9uJywgJy1waCcsICc3LjAnLCAnLXRuJywgJzgnLCAnLW1hJywgJzIwMCcsICctbWV0YWxfYmluZGluZycsICctaW1hZScsICc8aW5maWxlLm1hZT4nLCAnLW9tYWUnLCAnPG91dGZpbGUubWFlPic=

> <r_lp_tautomer_probability>
1

> <r_epik_Ionization_Penalty>
2.17574

> <r_epik_Ionization_Penalty_Charging>
0

> <r_epik_Ionization_Penalty_Neutral>
2.17574

> <r_epik_State_Penalty>
2.31336

> <r_epik_Charging_Adjusted_Penalty>
2.31336

> <i_epik_Tot_Q>
0

> <i_epik_Tot_abs_Q>
0

> <r_epik_Metal_State_Penalty>
2.31025

> <b_epik_Metal_Only>
0

> <s_lp_Force_Field>
OPLS_2005

> <r_lp_Energy>
71.0879

> <b_lp_Chiralities_Consistent>
1

> <s_lp_Variant>
AV-unprocessed.smi:21-37

> <Gold.Version>
5.8.1

> <Gold.Id.Protein>
6NUR|6NUR_protein|mol2

> <Gold.PLP.Fitness>
43.6973

> <Gold.PLP.PLP>
-40.0140

> <Gold.PLP.part.hbond>
-1.0000

> <Gold.PLP.part.metal>
0.0000

> <Gold.PLP.part.buried>
-6.6680

> <Gold.PLP.part.nonpolar>
-34.4869

> <Gold.PLP.part.repulsive>
2.1530

> <Gold.PLP.ligand.clash>
0.0000

> <Gold.PLP.ligand.torsion>
1.6095

> <Gold.PLP.Chemscore.Hbond>
1.0000

> <Gold.PLP.Chemscore.CHOScore>
0.9159

> <Gold.PLP.Chemscore.Metal>
0.0000

> <Gold.Chemscore.Hbonds>
donor molecule, donor type, donor heavy atom, donor atom, acceptor molecule, acceptor atom, score
      L1  H    21    49       P1 10957  0.59
      L1  C    16    43       P1 10171  1.00
      L1  C    16    43       P1 10175  0.07

> <Gold.PLP.Chemscore.Internal.Correction>
1.1545

> <Gold.Rescore>
     Score         DG    S(hbond)    S(metal)    S(lipo)     H(rot)  DE(clash)    DE(int)     intcor
      5.35     -11.48       0.99        0.00      94.24       3.26       0.19       5.94       ----

> <Gold.Chemscore.Fitness>
5.3546

> <Gold.Chemscore.DG>
-11.4843

> <Gold.Chemscore.ZeroCoef>
-5.4800

> <Gold.Chemscore.Hbond>
0.9934

> <Gold.Chemscore.Metal>
0.0000

> <Gold.Chemscore.Lipo>
94.2370

> <Gold.Chemscore.Internal_Hbond>
0.0000

> <Gold.Chemscore.DEClash>
0.1918

> <Gold.Chemscore.DEInternal>
5.9379

> <Gold.Chemscore.Rot>
3.2576

> <Gold.Chemscore.Internal.Correction>
   9.000000E+99

> <Gold.Chemscore.Hbonds>
donor molecule, donor type, donor heavy atom, donor atom, acceptor molecule, acceptor atom, score
      L1  H    21    49       P1 10957  0.55

> <Gold.Chemscore.Hbond.Weighted>
-3.3181

> <Gold.Chemscore.Metal.Weighted>
-0.0000

> <Gold.Chemscore.Lipo.Weighted>
-11.0257

> <Gold.Chemscore.Internal_Hbond.Weighted>
0.0000

> <Gold.Chemscore.DEClash.Weighted>
0.1918

> <Gold.Chemscore.DEInternal.Weighted>
5.9379

> <Gold.Chemscore.Rot.Weighted>
8.3395

> <Gold.Chemscore.Internal.Correction.Weighted>
   9.000000E+99

> <Gold.Protein.RotatedTorsions>
[ 6907 6896 6895 6894 ] final -123.80 input  -60.11 | X-H torsion
[ 7974 7965 7964 7962 ] final  135.26 input  175.53 | X-H torsion
[ 8008 7997 7996 7995 ] final   44.56 input   59.86 | X-H torsion
[ 10167 10162 10161 10158 ] final  158.50 input  -65.29 | X-H torsion
[ 10718 10713 10712 10709 ] final  115.19 input   66.30 | X-H torsion
[ 10763 10752 10751 10750 ] final   57.10 input  -60.55 | X-H torsion
[ 11005 11000 10999 10996 ] final  102.21 input  -57.11 | X-H torsion

> <Gold.Protein.ActiveResidues>
 VAL166  LYS551  ARG553  GLY616  TRP617  ASP618  TYR619  PRO620  LYS621  CYS622 
 ASP623  PHE694  ASN695  SER759  ASP760  ASP761  ALA762  ILE779  LEU786  VAL792 
 PHE793  MET794  SER795  GLU796  ALA797  LYS798  CYS799  TRP800  GLU811  SER814 

> <Gold.Protein.RotatedAtoms>
  150.8706  133.7512  159.2962 H   0  0  0  0  0  0  0  0  0  0  0  0  # atno 6907 bound_to 6896
  151.5125  135.1064  159.9867 H   0  0  0  0  0  0  0  0  0  0  0  0  # atno 6908 bound_to 6896
  152.4692  133.7946  159.6976 H   0  0  0  0  0  0  0  0  0  0  0  0  # atno 6909 bound_to 6896
  144.9681  139.4636  143.5446 H   0  0  0  0  0  0  0  0  0  0  0  0  # atno 7974 bound_to 7965
  155.3214  140.3397  155.4241 H   0  0  0  0  0  0  0  0  0  0  0  0  # atno 8008 bound_to 7997
  156.1907  140.1697  156.8134 H   0  0  0  0  0  0  0  0  0  0  0  0  # atno 8009 bound_to 7997
  154.5439  140.0719  156.8539 H   0  0  0  0  0  0  0  0  0  0  0  0  # atno 8010 bound_to 7997
  139.4827  144.4818  151.8433 H   0  0  0  0  0  0  0  0  0  0  0  0  # atno 10167 bound_to 10162
  157.6237  131.1009  150.7293 H   0  0  0  0  0  0  0  0  0  0  0  0  # atno 10718 bound_to 10713
  152.9843  135.5653  154.5335 H   0  0  0  0  0  0  0  0  0  0  0  0  # atno 10763 bound_to 10752
  154.4803  135.2788  155.1578 H   0  0  0  0  0  0  0  0  0  0  0  0  # atno 10764 bound_to 10752
  154.3089  135.6292  153.5510 H   0  0  0  0  0  0  0  0  0  0  0  0  # atno 10765 bound_to 10752
  139.8776  134.9215  156.5023 H   0  0  0  0  0  0  0  0  0  0  0  0  # atno 11005 bound_to 11000
  146.3374  139.8875  142.8814 LP  0  0  0  0  0  0  0  0  0  0  0  0  # atno 17320 bound_to 7965
  145.2600  141.0074  143.3832 LP  0  0  0  0  0  0  0  0  0  0  0  0  # atno 17321 bound_to 7965
  140.4295  144.2135  150.5887 LP  0  0  0  0  0  0  0  0  0  0  0  0  # atno 17342 bound_to 10162
  140.4793  143.2384  151.8977 LP  0  0  0  0  0  0  0  0  0  0  0  0  # atno 17343 bound_to 10162
  156.7646  130.4809  149.5430 LP  0  0  0  0  0  0  0  0  0  0  0  0  # atno 17370 bound_to 10713
  156.1397  130.6235  151.0449 LP  0  0  0  0  0  0  0  0  0  0  0  0  # atno 17371 bound_to 10713
  140.8580  133.8081  155.9236 LP  0  0  0  0  0  0  0  0  0  0  0  0  # atno 17394 bound_to 11000
  140.9078  134.2299  157.5004 LP  0  0  0  0  0  0  0  0  0  0  0  0  # atno 17395 bound_to 11000

$$$$
