AV-unprocessed.smi:1295|AV-procd|sdf|5409|dock4
  -GOLD-   22720 4563D 1   1.00000     0.00000
 Structure written by MMmdl.
 42 43  0  0  0  0  0  0  0  0  2 V2000
  150.0137  134.6569  154.8909 C   0  0  0  0  0  0  0  0  0  0  0  0
  150.4884  135.5376  156.0266 C   0  0  0  0  0  0  0  0  0  0  0  0
  149.6599  135.8869  156.9355 N   0  0  0  0  0  0  0  0  0  0  0  0
  150.0977  136.7008  157.9941 C   0  0  0  0  0  0  0  0  0  0  0  0
  149.0465  137.0675  159.0275 C   0  0  0  0  0  0  0  0  0  0  0  0
  151.3923  137.1236  158.0706 C   0  0  0  0  0  0  0  0  0  0  0  0
  151.9155  138.0082  159.2016 C   0  0  0  0  0  0  0  0  0  0  0  0
  152.5624  139.3248  158.7668 C   0  0  0  0  0  0  0  0  0  0  0  0
  153.6893  139.3299  158.2718 O   0  0  0  0  0  0  0  0  0  0  0  0
  151.8335  140.4345  158.9636 N   0  0  0  0  0  0  0  0  0  0  0  0
  152.2552  141.8035  158.6715 C   0  0  2  0  0  0  0  0  0  0  0  0
  152.4382  142.5535  160.0056 C   0  0  0  0  0  0  0  0  0  0  0  0
  152.8167  144.0251  159.7862 C   0  0  0  0  0  0  0  0  0  0  0  0
  151.7826  144.7314  158.8997 C   0  0  0  0  0  0  0  0  0  0  0  0
  151.6161  143.9990  157.5602 C   0  0  0  0  0  0  0  0  0  0  0  0
  151.2282  142.5192  157.7561 C   0  0  1  0  0  0  0  0  0  0  0  0
  151.0597  141.8250  156.3926 C   0  0  0  0  0  0  0  0  0  0  0  0
  152.3156  136.6970  157.0039 C   0  0  0  0  0  0  0  0  0  0  0  0
  153.4967  137.0408  157.0294 O   0  0  0  0  0  0  0  0  0  0  0  0
  151.8120  135.9155  156.0065 N   0  5  0  0  0  0  0  0  0  0  0  0
  149.0196  134.2562  155.0933 H   0  0  0  0  0  0  0  0  0  0  0  0
  150.6958  133.8180  154.7490 H   0  0  0  0  0  0  0  0  0  0  0  0
  149.9716  135.2295  153.9643 H   0  0  0  0  0  0  0  0  0  0  0  0
  148.8940  138.1467  159.0519 H   0  0  0  0  0  0  0  0  0  0  0  0
  149.3509  136.7361  160.0205 H   0  0  0  0  0  0  0  0  0  0  0  0
  148.0883  136.5990  158.7990 H   0  0  0  0  0  0  0  0  0  0  0  0
  151.1235  138.2393  159.9143 H   0  0  0  0  0  0  0  0  0  0  0  0
  152.6404  137.4302  159.7756 H   0  0  0  0  0  0  0  0  0  0  0  0
  150.9170  140.3236  159.3721 H   0  0  0  0  0  0  0  0  0  0  0  0
  153.2209  141.7972  158.1624 H   0  0  0  0  0  0  0  0  0  0  0  0
  151.5169  142.5031  160.5880 H   0  0  0  0  0  0  0  0  0  0  0  0
  153.2079  142.0643  160.6044 H   0  0  0  0  0  0  0  0  0  0  0  0
  152.8951  144.5360  160.7461 H   0  0  0  0  0  0  0  0  0  0  0  0
  153.8014  144.0853  159.3207 H   0  0  0  0  0  0  0  0  0  0  0  0
  150.8229  144.7748  159.4165 H   0  0  0  0  0  0  0  0  0  0  0  0
  152.0868  145.7635  158.7238 H   0  0  0  0  0  0  0  0  0  0  0  0
  150.8588  144.5069  156.9621 H   0  0  0  0  0  0  0  0  0  0  0  0
  152.5472  144.0629  156.9952 H   0  0  0  0  0  0  0  0  0  0  0  0
  150.2580  142.4979  158.2551 H   0  0  0  0  0  0  0  0  0  0  0  0
  152.0087  141.7686  155.8587 H   0  0  0  0  0  0  0  0  0  0  0  0
  150.3551  142.3666  155.7611 H   0  0  0  0  0  0  0  0  0  0  0  0
  150.6783  140.8097  156.5010 H   0  0  0  0  0  0  0  0  0  0  0  0
  1  2  1  0  0  0  0
  1 21  1  0  0  0  0
  1 22  1  0  0  0  0
  1 23  1  0  0  0  0
  2 20  1  0  0  0  0
  2  3  2  0  0  0  0
  3  4  1  0  0  0  0
  4  5  1  0  0  0  0
  4  6  2  0  0  0  0
  5 24  1  0  0  0  0
  5 25  1  0  0  0  0
  5 26  1  0  0  0  0
  6  7  1  0  0  0  0
  6 18  1  0  0  0  0
  7  8  1  0  0  0  0
  7 27  1  0  0  0  0
  7 28  1  0  0  0  0
  8  9  2  0  0  0  0
  8 10  1  0  0  0  0
 10 11  1  0  0  0  0
 10 29  1  0  0  0  0
 11 16  1  0  0  0  0
 11 12  1  0  0  0  0
 11 30  1  0  0  0  0
 12 13  1  0  0  0  0
 12 31  1  0  0  0  0
 12 32  1  0  0  0  0
 13 14  1  0  0  0  0
 13 33  1  0  0  0  0
 13 34  1  0  0  0  0
 14 15  1  0  0  0  0
 14 35  1  0  0  0  0
 14 36  1  0  0  0  0
 15 16  1  0  0  0  0
 15 37  1  0  0  0  0
 15 38  1  0  0  0  0
 16 17  1  0  0  0  0
 16 39  1  0  0  0  0
 17 40  1  0  0  0  0
 17 41  1  0  0  0  0
 17 42  1  0  0  0  0
 18 19  2  0  0  0  0
 18 20  1  0  0  0  0
M  CHG  1  20  -1
M  END
> <s_m_source_file>
AV-unprocessed.smi

> <i_m_source_file_index>
1295

> <i_lp_mmshare_version>
43012

> <i_f3d_flags>
0

> <s_epik_input>
W0NIM11jMW5jKFtDSDNdKWMoYyg9TylbbkhdMSlbQ0gyXUMoPU8pW05IXVtDQEBIXTJbQ0gyXVtDSDJdW0NIMl1bQ0gyXVtDQEhdMltDSDNd

> <s_epik_cmdline>
J2VwaWtfcHl0aG9uJywgJy1waCcsICc3LjAnLCAnLXRuJywgJzgnLCAnLW1hJywgJzIwMCcsICctbWV0YWxfYmluZGluZycsICctaW1hZScsICc8aW5maWxlLm1hZT4nLCAnLW9tYWUnLCAnPG91dGZpbGUubWFlPic=

> <r_lp_tautomer_probability>
0.839158

> <r_epik_Ionization_Penalty>
6.67742

> <r_epik_Ionization_Penalty_Charging>
7.78154e-08

> <r_epik_Ionization_Penalty_Neutral>
6.67742

> <r_epik_State_Penalty>
4.51991

> <r_epik_Charging_Adjusted_Penalty>
4.51991

> <i_epik_Tot_Q>
-1

> <i_epik_Tot_abs_Q>
1

> <r_epik_Metal_State_Penalty>
0.853272

> <b_epik_Metal_Only>
1

> <s_lp_Force_Field>
OPLS_2005

> <r_lp_Energy>
15.3241

> <b_lp_Chiralities_Consistent>
1

> <s_lp_Variant>
AV-unprocessed.smi:1295-9

> <Gold.Version>
5.8.1

> <Gold.Id.Protein>
6NUR|6NUR_protein|mol2

> <Gold.PLP.Fitness>
45.7003

> <Gold.PLP.PLP>
-37.1975

> <Gold.PLP.part.hbond>
-2.5679

> <Gold.PLP.part.metal>
0.0000

> <Gold.PLP.part.buried>
-5.5024

> <Gold.PLP.part.nonpolar>
-29.2875

> <Gold.PLP.part.repulsive>
0.1849

> <Gold.PLP.ligand.clash>
0.0000

> <Gold.PLP.ligand.torsion>
0.2516

> <Gold.PLP.Chemscore.Hbond>
3.0000

> <Gold.PLP.Chemscore.CHOScore>
0.0000

> <Gold.PLP.Chemscore.Metal>
0.0000

> <Gold.Chemscore.Hbonds>
donor molecule, donor type, donor heavy atom, donor atom, acceptor molecule, acceptor atom, score
      P1  H  7997  8008       L1     9  1.00
      P1  H 10752 10764       L1    20  2.00

> <Gold.PLP.Chemscore.Internal.Correction>
0.0059

> <Gold.Rescore>
     Score         DG    S(hbond)    S(metal)    S(lipo)     H(rot)  DE(clash)    DE(int)     intcor
     17.77     -19.60       1.93        0.00      97.16       1.45       0.11       1.72       ----

> <Gold.Chemscore.Fitness>
17.7682

> <Gold.Chemscore.DG>
-19.5959

> <Gold.Chemscore.ZeroCoef>
-5.4800

> <Gold.Chemscore.Hbond>
1.9305

> <Gold.Chemscore.Metal>
0.0000

> <Gold.Chemscore.Lipo>
97.1569

> <Gold.Chemscore.Internal_Hbond>
0.0000

> <Gold.Chemscore.DEClash>
0.1082

> <Gold.Chemscore.DEInternal>
1.7195

> <Gold.Chemscore.Rot>
1.4450

> <Gold.Chemscore.Internal.Correction>
   9.000000E+99

> <Gold.Chemscore.Hbonds>
donor molecule, donor type, donor heavy atom, donor atom, acceptor molecule, acceptor atom, score
      P1  H  7997  8008       L1     9  1.00
      P1  H 10752 10764       L1    20  0.74

> <Gold.Chemscore.Hbond.Weighted>
-6.4478

> <Gold.Chemscore.Metal.Weighted>
-0.0000

> <Gold.Chemscore.Lipo.Weighted>
-11.3674

> <Gold.Chemscore.Internal_Hbond.Weighted>
0.0000

> <Gold.Chemscore.DEClash.Weighted>
0.1082

> <Gold.Chemscore.DEInternal.Weighted>
1.7195

> <Gold.Chemscore.Rot.Weighted>
3.6992

> <Gold.Chemscore.Internal.Correction.Weighted>
   9.000000E+99

> <Gold.Protein.RotatedTorsions>
[ 6907 6896 6895 6894 ] final -142.72 input  -60.11 | X-H torsion
[ 7974 7965 7964 7962 ] final   97.93 input  175.53 | X-H torsion
[ 8008 7997 7996 7995 ] final  -93.63 input   59.86 | X-H torsion
[ 10167 10162 10161 10158 ] final  -54.88 input  -65.29 | X-H torsion
[ 10718 10713 10712 10709 ] final  130.57 input   66.30 | X-H torsion
[ 10763 10752 10751 10750 ] final  -41.26 input  -60.55 | X-H torsion
[ 11005 11000 10999 10996 ] final  -78.53 input  -57.11 | X-H torsion

> <Gold.Protein.ActiveResidues>
 VAL166  LYS551  ARG553  GLY616  TRP617  ASP618  TYR619  PRO620  LYS621  CYS622 
 ASP623  PHE694  ASN695  SER759  ASP760  ASP761  ALA762  ILE779  LEU786  VAL792 
 PHE793  MET794  SER795  GLU796  ALA797  LYS798  CYS799  TRP800  GLU811  SER814 

> <Gold.Protein.RotatedAtoms>
  151.0909  133.5317  159.2614 H   0  0  0  0  0  0  0  0  0  0  0  0  # atno 6907 bound_to 6896
  151.2185  135.0508  159.8950 H   0  0  0  0  0  0  0  0  0  0  0  0  # atno 6908 bound_to 6896
  152.5434  134.0714  159.8249 H   0  0  0  0  0  0  0  0  0  0  0  0  # atno 6909 bound_to 6896
  145.4189  139.2324  143.3207 H   0  0  0  0  0  0  0  0  0  0  0  0  # atno 7974 bound_to 7965
  154.7381  140.0497  157.0787 H   0  0  0  0  0  0  0  0  0  0  0  0  # atno 8008 bound_to 7997
  155.0213  140.3147  155.4773 H   0  0  0  0  0  0  0  0  0  0  0  0  # atno 8009 bound_to 7997
  156.2858  140.2166  156.5332 H   0  0  0  0  0  0  0  0  0  0  0  0  # atno 8010 bound_to 7997
  140.6406  143.2505  151.5000 H   0  0  0  0  0  0  0  0  0  0  0  0  # atno 10167 bound_to 10162
  157.5049  131.1095  150.9375 H   0  0  0  0  0  0  0  0  0  0  0  0  # atno 10718 bound_to 10713
  153.9596  135.6741  153.4745 H   0  0  0  0  0  0  0  0  0  0  0  0  # atno 10763 bound_to 10752
  153.0845  135.4906  154.8565 H   0  0  0  0  0  0  0  0  0  0  0  0  # atno 10764 bound_to 10752
  154.7280  135.3132  154.8898 H   0  0  0  0  0  0  0  0  0  0  0  0  # atno 10765 bound_to 10752
  141.1665  133.7067  156.7986 H   0  0  0  0  0  0  0  0  0  0  0  0  # atno 11005 bound_to 11000
  146.2667  140.4911  142.8831 LP  0  0  0  0  0  0  0  0  0  0  0  0  # atno 17320 bound_to 7965
  144.8258  140.6627  143.6323 LP  0  0  0  0  0  0  0  0  0  0  0  0  # atno 17321 bound_to 7965
  139.5615  144.2145  152.1698 LP  0  0  0  0  0  0  0  0  0  0  0  0  # atno 17342 bound_to 10162
  140.1414  144.5198  150.6741 LP  0  0  0  0  0  0  0  0  0  0  0  0  # atno 17343 bound_to 10162
  157.0034  130.5608  149.5313 LP  0  0  0  0  0  0  0  0  0  0  0  0  # atno 17370 bound_to 10713
  156.0252  130.5346  150.8387 LP  0  0  0  0  0  0  0  0  0  0  0  0  # atno 17371 bound_to 10713
  140.2273  134.8712  157.3440 LP  0  0  0  0  0  0  0  0  0  0  0  0  # atno 17394 bound_to 11000
  140.1927  134.4352  155.7707 LP  0  0  0  0  0  0  0  0  0  0  0  0  # atno 17395 bound_to 11000

$$$$
