AV-unprocessed.smi:699|AV-procd|sdf|3404|dock8
  -GOLD-   22720 0383D 1   1.00000     0.00000
 Structure written by MMmdl.
 35 36  0  0  0  0  0  0  0  0  2 V2000
  149.0541  144.0936  159.0911 N   0  0  0  0  0  0  0  0  0  0  0  0
  149.8120  145.0649  159.6061 C   0  0  0  0  0  0  0  0  0  0  0  0
  149.3343  145.9656  160.2942 O   0  0  0  0  0  0  0  0  0  0  0  0
  151.3261  145.0020  159.3083 C   0  0  1  0  0  0  0  0  0  0  0  0
  152.1308  144.8157  160.6031 C   0  0  0  0  0  0  0  0  0  0  0  0
  152.2212  143.3035  160.8228 C   0  0  0  0  0  0  0  0  0  0  0  0
  152.1665  142.6734  159.4254 C   0  0  0  0  0  0  0  0  0  0  0  0
  151.7812  143.7959  158.4424 C   0  0  1  0  0  0  0  0  0  0  0  0
  150.7939  143.3295  157.4666 N   0  0  0  0  0  0  0  0  0  0  0  0
  150.7843  142.1123  156.9049 C   0  0  0  0  0  0  0  0  0  0  0  0
  151.6112  141.2393  157.1669 O   0  0  0  0  0  0  0  0  0  0  0  0
  149.7615  141.9831  156.0421 N   0  0  0  0  0  0  0  0  0  0  0  0
  149.4157  140.8678  155.2309 C   0  0  0  0  0  0  0  0  0  0  0  0
  150.3038  139.7692  155.2223 C   0  0  0  0  0  0  0  0  0  0  0  0
  149.9992  138.6331  154.4453 C   0  0  0  0  0  0  0  0  0  0  0  0
  148.8591  138.5987  153.7231 N   0  3  0  0  0  0  0  0  0  0  0  0
  147.9731  139.6175  153.7094 C   0  0  0  0  0  0  0  0  0  0  0  0
  148.2235  140.7797  154.4671 C   0  0  0  0  0  0  0  0  0  0  0  0
  148.0574  144.0973  159.2521 H   0  0  0  0  0  0  0  0  0  0  0  0
  149.4775  143.3638  158.5362 H   0  0  0  0  0  0  0  0  0  0  0  0
  151.6168  145.9344  158.8213 H   0  0  0  0  0  0  0  0  0  0  0  0
  153.1325  145.2244  160.4639 H   0  0  0  0  0  0  0  0  0  0  0  0
  151.6940  145.3279  161.4619 H   0  0  0  0  0  0  0  0  0  0  0  0
  153.1240  143.0242  161.3667 H   0  0  0  0  0  0  0  0  0  0  0  0
  151.3696  142.9629  161.4130 H   0  0  0  0  0  0  0  0  0  0  0  0
  153.1317  142.2461  159.1518 H   0  0  0  0  0  0  0  0  0  0  0  0
  151.4425  141.8572  159.4178 H   0  0  0  0  0  0  0  0  0  0  0  0
  152.6863  144.0890  157.9068 H   0  0  0  0  0  0  0  0  0  0  0  0
  150.0798  143.9895  157.1945 H   0  0  0  0  0  0  0  0  0  0  0  0
  149.1258  142.7658  155.9937 H   0  0  0  0  0  0  0  0  0  0  0  0
  151.2155  139.7951  155.8019 H   0  0  0  0  0  0  0  0  0  0  0  0
  150.6277  137.7567  154.3821 H   0  0  0  0  0  0  0  0  0  0  0  0
  147.0924  139.4717  153.1010 H   0  0  0  0  0  0  0  0  0  0  0  0
  147.4906  141.5714  154.4549 H   0  0  0  0  0  0  0  0  0  0  0  0
  148.6558  137.7667  153.1683 H   0  0  0  0  0  0  0  0  0  0  0  0
  1  2  1  0  0  0  0
  1 19  1  0  0  0  0
  1 20  1  0  0  0  0
  2  3  2  0  0  0  0
  2  4  1  0  0  0  0
  4  8  1  0  0  0  0
  4  5  1  0  0  0  0
  4 21  1  0  0  0  0
  5  6  1  0  0  0  0
  5 22  1  0  0  0  0
  5 23  1  0  0  0  0
  6  7  1  0  0  0  0
  6 24  1  0  0  0  0
  6 25  1  0  0  0  0
  7  8  1  0  0  0  0
  7 26  1  0  0  0  0
  7 27  1  0  0  0  0
  8  9  1  0  0  0  0
  8 28  1  0  0  0  0
  9 10  1  0  0  0  0
  9 29  1  0  0  0  0
 10 11  2  0  0  0  0
 10 12  1  0  0  0  0
 12 13  1  0  0  0  0
 12 30  1  0  0  0  0
 13 18  1  0  0  0  0
 13 14  2  0  0  0  0
 14 15  1  0  0  0  0
 14 31  1  0  0  0  0
 15 16  2  0  0  0  0
 15 32  1  0  0  0  0
 16 17  1  0  0  0  0
 16 35  1  0  0  0  0
 17 18  2  0  0  0  0
 17 33  1  0  0  0  0
 18 34  1  0  0  0  0
M  CHG  1  16   1
M  END
> <s_m_source_file>
AV-unprocessed.smi

> <i_m_source_file_index>
699

> <i_lp_mmshare_version>
43012

> <i_f3d_flags>
0

> <s_epik_input>
W05IMl1DKD1PKVtDQEBIXTFbQ0gyXVtDSDJdW0NIMl1bQ0BIXTFbTkhdQyg9TylbTkhdYzJbY0hdW2NIXW5bY0hdW2NIXTI=

> <s_epik_cmdline>
J2VwaWtfcHl0aG9uJywgJy1waCcsICc3LjAnLCAnLXRuJywgJzgnLCAnLW1hJywgJzIwMCcsICctbWV0YWxfYmluZGluZycsICctaW1hZScsICc8aW5maWxlLm1hZT4nLCAnLW9tYWUnLCAnPG91dGZpbGUubWFlPic=

> <r_epik_Ionization_Penalty>
1.0332

> <r_epik_Ionization_Penalty_Charging>
1.03318

> <r_epik_Ionization_Penalty_Neutral>
1.91967e-05

> <r_epik_State_Penalty>
1.08452

> <r_epik_Charging_Adjusted_Penalty>
2.11769

> <i_epik_Tot_Q>
1

> <i_epik_Tot_abs_Q>
1

> <r_epik_Metal_State_Penalty>
1.18144

> <b_epik_Metal_Only>
0

> <s_lp_Force_Field>
OPLS_2005

> <r_lp_Energy>
24.8241

> <b_lp_Chiralities_Consistent>
1

> <s_lp_Variant>
AV-unprocessed.smi:699-6

> <Gold.Version>
5.8.1

> <Gold.Id.Protein>
6NUR|6NUR_protein|mol2

> <Gold.PLP.Fitness>
50.7781

> <Gold.PLP.PLP>
-40.3120

> <Gold.PLP.part.hbond>
-6.0000

> <Gold.PLP.part.metal>
0.0000

> <Gold.PLP.part.buried>
-0.2527

> <Gold.PLP.part.nonpolar>
-34.1873

> <Gold.PLP.part.repulsive>
0.5916

> <Gold.PLP.ligand.clash>
0.6423

> <Gold.PLP.ligand.torsion>
0.3221

> <Gold.PLP.Chemscore.Hbond>
3.9124

> <Gold.PLP.Chemscore.CHOScore>
0.0000

> <Gold.PLP.Chemscore.Metal>
0.0000

> <Gold.Chemscore.Hbonds>
donor molecule, donor type, donor heavy atom, donor atom, acceptor molecule, acceptor atom, score
      L1  H     9    29       P1  8028  0.90
      L1  H    12    30       P1  8028  0.96
      L1  H    16    35       P1  7948  2.00

> <Gold.PLP.Chemscore.Internal.Correction>
0.0155

> <Gold.Rescore>
     Score         DG    S(hbond)    S(metal)    S(lipo)     H(rot)  DE(clash)    DE(int)     intcor
     14.54     -21.73       2.80        0.00      91.83       1.50       2.13       5.06       ----

> <Gold.Chemscore.Fitness>
14.5394

> <Gold.Chemscore.DG>
-21.7259

> <Gold.Chemscore.ZeroCoef>
-5.4800

> <Gold.Chemscore.Hbond>
2.8000

> <Gold.Chemscore.Metal>
0.0000

> <Gold.Chemscore.Lipo>
91.8252

> <Gold.Chemscore.Internal_Hbond>
0.0000

> <Gold.Chemscore.DEClash>
2.1275

> <Gold.Chemscore.DEInternal>
5.0590

> <Gold.Chemscore.Rot>
1.5038

> <Gold.Chemscore.Internal.Correction>
   9.000000E+99

> <Gold.Chemscore.Hbonds>
donor molecule, donor type, donor heavy atom, donor atom, acceptor molecule, acceptor atom, score
      L1  H     9    29       P1  8028  0.73
      L1  H    12    30       P1  8028  0.89
      L1  H    16    35       P1  7948  0.94

> <Gold.Chemscore.Hbond.Weighted>
-9.3520

> <Gold.Chemscore.Metal.Weighted>
-0.0000

> <Gold.Chemscore.Lipo.Weighted>
-10.7435

> <Gold.Chemscore.Internal_Hbond.Weighted>
0.0000

> <Gold.Chemscore.DEClash.Weighted>
2.1275

> <Gold.Chemscore.DEInternal.Weighted>
5.0590

> <Gold.Chemscore.Rot.Weighted>
3.8496

> <Gold.Chemscore.Internal.Correction.Weighted>
   9.000000E+99

> <Gold.Protein.RotatedTorsions>
[ 6907 6896 6895 6894 ] final  -55.20 input  -60.11 | X-H torsion
[ 7974 7965 7964 7962 ] final  -61.80 input  175.53 | X-H torsion
[ 8008 7997 7996 7995 ] final -102.67 input   59.86 | X-H torsion
[ 10167 10162 10161 10158 ] final -153.78 input  -65.29 | X-H torsion
[ 10718 10713 10712 10709 ] final -133.15 input   66.30 | X-H torsion
[ 10763 10752 10751 10750 ] final   79.50 input  -60.55 | X-H torsion
[ 11005 11000 10999 10996 ] final -134.82 input  -57.11 | X-H torsion

> <Gold.Protein.ActiveResidues>
 VAL166  LYS551  ARG553  GLY616  TRP617  ASP618  TYR619  PRO620  LYS621  CYS622 
 ASP623  PHE694  ASN695  SER759  ASP760  ASP761  ALA762  ILE779  LEU786  VAL792 
 PHE793  MET794  SER795  GLU796  ALA797  LYS798  CYS799  TRP800  GLU811  SER814 

> <Gold.Protein.RotatedAtoms>
  150.8272  134.7509  159.6822 H   0  0  0  0  0  0  0  0  0  0  0  0  # atno 6907 bound_to 6896
  152.4381  134.5642  159.9912 H   0  0  0  0  0  0  0  0  0  0  0  0  # atno 6908 bound_to 6896
  151.5811  133.3340  159.3044 H   0  0  0  0  0  0  0  0  0  0  0  0  # atno 6909 bound_to 6896
  145.7991  140.8665  143.0241 H   0  0  0  0  0  0  0  0  0  0  0  0  # atno 7974 bound_to 7965
  154.8600  140.0427  157.1659 H   0  0  0  0  0  0  0  0  0  0  0  0  # atno 8008 bound_to 7997
  154.8850  140.2978  155.5383 H   0  0  0  0  0  0  0  0  0  0  0  0  # atno 8009 bound_to 7997
  156.2998  140.2404  156.3858 H   0  0  0  0  0  0  0  0  0  0  0  0  # atno 8010 bound_to 7997
  139.7068  143.9173  152.2452 H   0  0  0  0  0  0  0  0  0  0  0  0  # atno 10167 bound_to 10162
  156.2419  130.7101  151.0966 H   0  0  0  0  0  0  0  0  0  0  0  0  # atno 10718 bound_to 10713
  153.0957  135.4837  154.8774 H   0  0  0  0  0  0  0  0  0  0  0  0  # atno 10763 bound_to 10752
  154.7322  135.3062  154.8875 H   0  0  0  0  0  0  0  0  0  0  0  0  # atno 10764 bound_to 10752
  153.9507  135.6823  153.4797 H   0  0  0  0  0  0  0  0  0  0  0  0  # atno 10765 bound_to 10752
  140.8954  134.1758  157.4498 H   0  0  0  0  0  0  0  0  0  0  0  0  # atno 11005 bound_to 11000
  144.6771  140.0233  143.7483 LP  0  0  0  0  0  0  0  0  0  0  0  0  # atno 17320 bound_to 7965
  145.9897  139.3005  143.0992 LP  0  0  0  0  0  0  0  0  0  0  0  0  # atno 17321 bound_to 7965
  139.9031  144.6900  150.8644 LP  0  0  0  0  0  0  0  0  0  0  0  0  # atno 17342 bound_to 10162
  140.7723  143.3499  151.2035 LP  0  0  0  0  0  0  0  0  0  0  0  0  # atno 17343 bound_to 10162
  157.7179  131.0699  150.6255 LP  0  0  0  0  0  0  0  0  0  0  0  0  # atno 17370 bound_to 10713
  156.6328  130.4437  149.5780 LP  0  0  0  0  0  0  0  0  0  0  0  0  # atno 17371 bound_to 10713
  139.8735  134.9876  156.5376 LP  0  0  0  0  0  0  0  0  0  0  0  0  # atno 17394 bound_to 11000
  140.8295  133.8290  155.8971 LP  0  0  0  0  0  0  0  0  0  0  0  0  # atno 17395 bound_to 11000

$$$$
