AV-unprocessed.smi:2849|AV-procd|sdf|10964|dock3
  -GOLD-   2272015413D 1   1.00000     0.00000
 Structure written by MMmdl.
 56 59  0  0  0  0  0  0  0  0  3 V2000
  142.0781  134.3959  152.7078 C   0  0  0  0  0  0  0  0  0  0  0  0
  143.4236  134.2376  153.3094 N   0  3  2  0  0  0  0  0  0  0  0  0
  143.7793  135.2641  154.3179 C   0  0  1  0  0  0  0  0  0  0  0  0
  144.9720  134.7536  155.1582 C   0  0  0  0  0  0  0  0  0  0  0  0
  146.1814  134.3036  154.3166 C   0  0  0  0  0  0  0  0  0  0  0  0
  145.7675  133.5080  153.0628 C   0  0  0  0  0  0  0  0  0  0  0  0
  144.5282  134.0787  152.3339 C   0  0  2  0  0  0  0  0  0  0  0  0
  144.7726  135.3852  151.5369 C   0  0  0  0  0  0  0  0  0  0  0  0
  144.8433  136.6852  152.3756 C   0  0  2  0  0  0  0  0  0  0  0  0
  146.2269  137.0895  152.6162 N   0  0  0  0  0  0  0  0  0  0  0  0
  146.6326  138.0373  153.4740 C   0  0  0  0  0  0  0  0  0  0  0  0
  145.8609  138.7053  154.1607 O   0  0  0  0  0  0  0  0  0  0  0  0
  147.9717  138.1520  153.4665 N   0  0  0  0  0  0  0  0  0  0  0  0
  148.8083  138.9570  154.2875 C   0  0  0  0  0  0  0  0  0  0  0  0
  150.2030  138.7724  154.1722 C   0  0  0  0  0  0  0  0  0  0  0  0
  151.0799  139.5240  154.9805 C   0  0  0  0  0  0  0  0  0  0  0  0
  150.5470  140.4533  155.9035 C   0  0  0  0  0  0  0  0  0  0  0  0
  151.3305  141.2419  156.7577 N   0  0  0  0  0  0  0  0  0  0  0  0
  151.2220  140.9046  158.1672 C   0  0  0  0  0  0  0  0  0  0  0  0
  151.7785  142.1129  158.9256 C   0  0  0  0  0  0  0  0  0  0  0  0
  151.7021  143.2756  157.9292 C   0  0  0  0  0  0  0  0  0  0  0  0
  151.0815  142.6712  156.6677 C   0  0  0  0  0  0  0  0  0  0  0  0
  149.2071  140.6008  155.9863 N   0  3  0  0  0  0  0  0  0  0  0  0
  148.3323  139.9022  155.2299 C   0  0  0  0  0  0  0  0  0  0  0  0
  143.9804  136.6555  153.6667 C   0  0  0  0  0  0  0  0  0  0  0  0
  141.9883  135.3169  152.1322 H   0  0  0  0  0  0  0  0  0  0  0  0
  141.3140  134.4084  153.4854 H   0  0  0  0  0  0  0  0  0  0  0  0
  141.8582  133.5598  152.0436 H   0  0  0  0  0  0  0  0  0  0  0  0
  142.9397  135.3530  155.0091 H   0  0  0  0  0  0  0  0  0  0  0  0
  145.2796  135.5087  155.8824 H   0  0  0  0  0  0  0  0  0  0  0  0
  144.6320  133.8998  155.7459 H   0  0  0  0  0  0  0  0  0  0  0  0
  146.7874  135.1596  154.0402 H   0  0  0  0  0  0  0  0  0  0  0  0
  146.8426  133.6924  154.9318 H   0  0  0  0  0  0  0  0  0  0  0  0
  146.6107  133.4258  152.3761 H   0  0  0  0  0  0  0  0  0  0  0  0
  145.5372  132.4876  153.3725 H   0  0  0  0  0  0  0  0  0  0  0  0
  144.2253  133.3174  151.6133 H   0  0  0  0  0  0  0  0  0  0  0  0
  145.6570  135.2828  150.9067 H   0  0  0  0  0  0  0  0  0  0  0  0
  143.9479  135.4970  150.8319 H   0  0  0  0  0  0  0  0  0  0  0  0
  144.4337  137.4735  151.7407 H   0  0  0  0  0  0  0  0  0  0  0  0
  146.9352  136.6005  152.0886 H   0  0  0  0  0  0  0  0  0  0  0  0
  148.4571  137.5794  152.7917 H   0  0  0  0  0  0  0  0  0  0  0  0
  150.6042  138.0573  153.4687 H   0  0  0  0  0  0  0  0  0  0  0  0
  152.1469  139.3813  154.8903 H   0  0  0  0  0  0  0  0  0  0  0  0
  150.1806  140.7356  158.4438 H   0  0  0  0  0  0  0  0  0  0  0  0
  151.7816  139.9970  158.3956 H   0  0  0  0  0  0  0  0  0  0  0  0
  151.2101  142.3087  159.8355 H   0  0  0  0  0  0  0  0  0  0  0  0
  152.8158  141.9375  159.2136 H   0  0  0  0  0  0  0  0  0  0  0  0
  151.1115  144.1103  158.3079 H   0  0  0  0  0  0  0  0  0  0  0  0
  152.7051  143.6479  157.7167 H   0  0  0  0  0  0  0  0  0  0  0  0
  151.5242  143.0907  155.7637 H   0  0  0  0  0  0  0  0  0  0  0  0
  150.0103  142.8760  156.6431 H   0  0  0  0  0  0  0  0  0  0  0  0
  147.2949  140.1249  155.4254 H   0  0  0  0  0  0  0  0  0  0  0  0
  142.9934  137.0365  153.4025 H   0  0  0  0  0  0  0  0  0  0  0  0
  144.3521  137.3628  154.4087 H   0  0  0  0  0  0  0  0  0  0  0  0
  143.3776  133.3638  153.8144 H   0  0  0  0  0  0  0  0  0  0  0  0
  148.8347  141.2721  156.6585 H   0  0  0  0  0  0  0  0  0  0  0  0
  1  2  1  0  0  0  0
  1 26  1  0  0  0  0
  1 27  1  0  0  0  0
  1 28  1  0  0  0  0
  2  7  1  0  0  0  0
  2  3  1  0  0  0  0
  2 55  1  0  0  0  0
  3 25  1  0  0  0  0
  3  4  1  0  0  0  0
  3 29  1  0  0  0  0
  4  5  1  0  0  0  0
  4 30  1  0  0  0  0
  4 31  1  0  0  0  0
  5  6  1  0  0  0  0
  5 32  1  0  0  0  0
  5 33  1  0  0  0  0
  6  7  1  0  0  0  0
  6 34  1  0  0  0  0
  6 35  1  0  0  0  0
  7  8  1  0  0  0  0
  7 36  1  0  0  0  0
  8  9  1  0  0  0  0
  8 37  1  0  0  0  0
  8 38  1  0  0  0  0
  9 10  1  0  0  0  0
  9 25  1  0  0  0  0
  9 39  1  0  0  0  0
 10 11  1  0  0  0  0
 10 40  1  0  0  0  0
 11 12  2  0  0  0  0
 11 13  1  0  0  0  0
 13 14  1  0  0  0  0
 13 41  1  0  0  0  0
 14 24  1  0  0  0  0
 14 15  2  0  0  0  0
 15 16  1  0  0  0  0
 15 42  1  0  0  0  0
 16 17  2  0  0  0  0
 16 43  1  0  0  0  0
 17 18  1  0  0  0  0
 17 23  1  0  0  0  0
 18 22  1  0  0  0  0
 18 19  1  0  0  0  0
 19 20  1  0  0  0  0
 19 44  1  0  0  0  0
 19 45  1  0  0  0  0
 20 21  1  0  0  0  0
 20 46  1  0  0  0  0
 20 47  1  0  0  0  0
 21 22  1  0  0  0  0
 21 48  1  0  0  0  0
 21 49  1  0  0  0  0
 22 50  1  0  0  0  0
 22 51  1  0  0  0  0
 23 24  2  0  0  0  0
 23 56  1  0  0  0  0
 24 52  1  0  0  0  0
 25 53  1  0  0  0  0
 25 54  1  0  0  0  0
M  CHG  1   2   1
M  CHG  1  23   1
M  END
> <s_m_source_file>
AV-unprocessed.smi

> <i_m_source_file_index>
2849

> <i_lp_mmshare_version>
43012

> <i_f3d_flags>
0

> <s_epik_input>
W0NIMl0xW0NIMl1bQ0gyXVtDQEhdKE4oW0NIM10pW0NIXTEyKVtDSDJdW0NASF0oW0NIMl0yKVtOSF1DKD1PKVtOSF1jM1tjSF1bY0hdYyhuW2NIXTMpTjRbQ0gyXVtDSDJdW0NIMl1bQ0gyXTQ=

> <s_epik_cmdline>
J2VwaWtfcHl0aG9uJywgJy1waCcsICc3LjAnLCAnLXRuJywgJzgnLCAnLW1hJywgJzIwMCcsICctbWV0YWxfYmluZGluZycsICctaW1hZScsICc8aW5maWxlLm1hZT4nLCAnLW9tYWUnLCAnPG91dGZpbGUubWFlPic=

> <r_lp_tautomer_probability>
0.999994

> <r_epik_Ionization_Penalty>
1.2404

> <r_epik_Ionization_Penalty_Charging>
1.24038

> <r_epik_Ionization_Penalty_Neutral>
1.86921e-05

> <r_epik_State_Penalty>
1.30821

> <r_epik_Charging_Adjusted_Penalty>
2.54859

> <i_epik_Tot_Q>
2

> <i_epik_Tot_abs_Q>
2

> <r_epik_Metal_State_Penalty>
1.37823

> <b_epik_Metal_Only>
0

> <s_lp_Force_Field>
OPLS_2005

> <r_lp_Energy>
74.5771

> <b_lp_Chiralities_Consistent>
1

> <s_lp_Variant>
AV-unprocessed.smi:2849-8

> <Gold.Version>
5.8.1

> <Gold.Id.Protein>
6NUR|6NUR_protein|mol2

> <Gold.PLP.Fitness>
45.4993

> <Gold.PLP.PLP>
-34.2769

> <Gold.PLP.part.hbond>
-3.0000

> <Gold.PLP.part.metal>
0.0000

> <Gold.PLP.part.buried>
-4.8359

> <Gold.PLP.part.nonpolar>
-27.0261

> <Gold.PLP.part.repulsive>
0.2417

> <Gold.PLP.ligand.clash>
0.0000

> <Gold.PLP.ligand.torsion>
0.3137

> <Gold.PLP.Chemscore.Hbond>
3.9280

> <Gold.PLP.Chemscore.CHOScore>
0.0000

> <Gold.PLP.Chemscore.Metal>
0.0000

> <Gold.Chemscore.Hbonds>
donor molecule, donor type, donor heavy atom, donor atom, acceptor molecule, acceptor atom, score
      L1  H     2    55       P1 10957  2.00
      L1  H    10    40       P1  7948  0.91
      L1  H    13    41       P1  7948  1.00

> <Gold.PLP.Chemscore.Internal.Correction>
0.0659

> <Gold.Rescore>
     Score         DG    S(hbond)    S(metal)    S(lipo)     H(rot)  DE(clash)    DE(int)     intcor
     19.58     -22.35       2.92        0.00      86.73       1.19       0.01       2.76       ----

> <Gold.Chemscore.Fitness>
19.5787

> <Gold.Chemscore.DG>
-22.3465

> <Gold.Chemscore.ZeroCoef>
-5.4800

> <Gold.Chemscore.Hbond>
2.9222

> <Gold.Chemscore.Metal>
0.0000

> <Gold.Chemscore.Lipo>
86.7307

> <Gold.Chemscore.Internal_Hbond>
0.0000

> <Gold.Chemscore.DEClash>
0.0060

> <Gold.Chemscore.DEInternal>
2.7618

> <Gold.Chemscore.Rot>
1.1879

> <Gold.Chemscore.Internal.Correction>
   9.000000E+99

> <Gold.Chemscore.Hbonds>
donor molecule, donor type, donor heavy atom, donor atom, acceptor molecule, acceptor atom, score
      L1  H     2    55       P1 10957  0.96
      L1  H    10    40       P1  7948  0.83
      L1  H    13    41       P1  7948  1.00

> <Gold.Chemscore.Hbond.Weighted>
-9.7600

> <Gold.Chemscore.Metal.Weighted>
-0.0000

> <Gold.Chemscore.Lipo.Weighted>
-10.1475

> <Gold.Chemscore.Internal_Hbond.Weighted>
0.0000

> <Gold.Chemscore.DEClash.Weighted>
0.0060

> <Gold.Chemscore.DEInternal.Weighted>
2.7618

> <Gold.Chemscore.Rot.Weighted>
3.0410

> <Gold.Chemscore.Internal.Correction.Weighted>
   9.000000E+99

> <Gold.Protein.RotatedTorsions>
[ 6907 6896 6895 6894 ] final -173.29 input  -60.11 | X-H torsion
[ 7974 7965 7964 7962 ] final  125.10 input  175.53 | X-H torsion
[ 8008 7997 7996 7995 ] final  113.83 input   59.86 | X-H torsion
[ 10167 10162 10161 10158 ] final   48.99 input  -65.29 | X-H torsion
[ 10718 10713 10712 10709 ] final  170.00 input   66.30 | X-H torsion
[ 10763 10752 10751 10750 ] final  -42.67 input  -60.55 | X-H torsion
[ 11005 11000 10999 10996 ] final  102.14 input  -57.11 | X-H torsion

> <Gold.Protein.ActiveResidues>
 VAL166  LYS551  ARG553  GLY616  TRP617  ASP618  TYR619  PRO620  LYS621  CYS622 
 ASP623  PHE694  ASN695  SER759  ASP760  ASP761  ALA762  ILE779  LEU786  VAL792 
 PHE793  MET794  SER795  GLU796  ALA797  LYS798  CYS799  TRP800  GLU811  SER814 

> <Gold.Protein.RotatedAtoms>
  151.5538  133.3413  159.2957 H   0  0  0  0  0  0  0  0  0  0  0  0  # atno 6907 bound_to 6896
  150.8463  134.7775  159.6984 H   0  0  0  0  0  0  0  0  0  0  0  0  # atno 6908 bound_to 6896
  152.4519  134.5382  159.9883 H   0  0  0  0  0  0  0  0  0  0  0  0  # atno 6909 bound_to 6896
  145.0768  139.3687  143.4929 H   0  0  0  0  0  0  0  0  0  0  0  0  # atno 7974 bound_to 7965
  156.2283  140.2971  156.0123 H   0  0  0  0  0  0  0  0  0  0  0  0  # atno 8008 bound_to 7997
  155.2296  140.0418  157.2977 H   0  0  0  0  0  0  0  0  0  0  0  0  # atno 8009 bound_to 7997
  154.5952  140.2412  155.7874 H   0  0  0  0  0  0  0  0  0  0  0  0  # atno 8010 bound_to 7997
  140.2876  144.3084  150.6248 H   0  0  0  0  0  0  0  0  0  0  0  0  # atno 10167 bound_to 10162
  157.0145  131.0214  151.2793 H   0  0  0  0  0  0  0  0  0  0  0  0  # atno 10718 bound_to 10713
  153.9828  135.6715  153.4751 H   0  0  0  0  0  0  0  0  0  0  0  0  # atno 10763 bound_to 10752
  153.0740  135.4958  154.8362 H   0  0  0  0  0  0  0  0  0  0  0  0  # atno 10764 bound_to 10752
  154.7154  135.3106  154.9093 H   0  0  0  0  0  0  0  0  0  0  0  0  # atno 10765 bound_to 10752
  139.8776  134.9212  156.5012 H   0  0  0  0  0  0  0  0  0  0  0  0  # atno 11005 bound_to 11000
  146.3530  140.0539  142.8634 LP  0  0  0  0  0  0  0  0  0  0  0  0  # atno 17320 bound_to 7965
  145.1226  140.9471  143.4591 LP  0  0  0  0  0  0  0  0  0  0  0  0  # atno 17321 bound_to 7965
  140.5760  143.2176  151.7515 LP  0  0  0  0  0  0  0  0  0  0  0  0  # atno 17342 bound_to 10162
  139.4946  144.4149  152.0040 LP  0  0  0  0  0  0  0  0  0  0  0  0  # atno 17343 bound_to 10162
  157.5296  130.8050  149.7901 LP  0  0  0  0  0  0  0  0  0  0  0  0  # atno 17370 bound_to 10713
  156.0124  130.3827  150.2220 LP  0  0  0  0  0  0  0  0  0  0  0  0  # atno 17371 bound_to 10713
  140.8588  133.8076  155.9243 LP  0  0  0  0  0  0  0  0  0  0  0  0  # atno 17394 bound_to 11000
  140.9071  134.2307  157.5008 LP  0  0  0  0  0  0  0  0  0  0  0  0  # atno 17395 bound_to 11000

$$$$
