AV-unprocessed.smi:148|AV-procd|sdf|1213|dock7
  -GOLD-   2262018393D 1   1.00000     0.00000
 Structure written by MMmdl.
 63 67  0  0  0  0  0  0  0  0  1 V2000
  150.6559  144.1212  161.9202 O   0  0  0  0  0  0  0  0  0  0  0  0
  151.4768  144.5069  160.8378 C   0  0  0  0  0  0  0  0  0  0  0  0
  151.9697  143.2735  160.0446 C   0  0  1  0  0  0  0  0  0  0  0  0
  152.1381  143.5739  158.5293 C   0  0  0  0  0  0  0  0  0  0  0  0
  151.2853  142.7763  157.6593 N   0  0  0  0  0  0  0  0  0  0  0  0
  151.6838  142.0059  156.5889 C   0  0  0  0  0  0  0  0  0  0  0  0
  150.7246  141.3851  155.9589 N   0  0  0  0  0  0  0  0  0  0  0  0
  149.5782  141.7382  156.6588 C   0  0  0  0  0  0  0  0  0  0  0  0
  148.1962  141.4225  156.5279 C   0  0  0  0  0  0  0  0  0  0  0  0
  147.6770  140.6314  155.5639 N   0  0  0  0  0  0  0  0  0  0  0  0
  147.8406  141.2991  154.2700 C   0  0  0  0  0  0  0  0  0  0  0  0
  147.0507  140.5920  153.1656 C   0  0  0  0  0  0  0  0  0  0  0  0
  147.4687  139.1236  153.0955 C   0  0  0  0  0  0  0  0  0  0  0  0
  147.2667  138.4639  154.4647 C   0  0  0  0  0  0  0  0  0  0  0  0
  148.0289  139.1951  155.6046 C   0  0  2  0  0  0  0  0  0  0  0  0
  147.7268  138.5057  156.9811 C   0  0  2  0  0  0  0  0  0  0  0  0
  148.6747  138.8289  158.1571 C   0  0  0  0  0  0  0  0  0  0  0  0
  148.5809  137.6587  159.1469 C   0  0  0  0  0  0  0  0  0  0  0  0
  147.7418  136.5808  158.4560 C   0  0  0  0  0  0  0  0  0  0  0  0
  147.7371  136.9619  156.9752 C   0  0  2  0  0  0  0  0  0  0  0  0
  148.9165  136.4541  156.3758 O   0  0  0  0  0  0  0  0  0  0  0  0
  147.3292  141.9718  157.4139 N   0  0  0  0  0  0  0  0  0  0  0  0
  147.7861  142.7639  158.3887 C   0  0  0  0  0  0  0  0  0  0  0  0
  149.0429  143.1359  158.6424 N   0  0  0  0  0  0  0  0  0  0  0  0
  149.9137  142.6020  157.7384 C   0  0  0  0  0  0  0  0  0  0  0  0
  153.2545  142.6785  160.6794 C   0  0  2  0  0  0  0  0  0  0  0  0
  153.5906  141.2673  160.2265 C   0  0  0  0  0  0  0  0  0  0  0  0
  154.5574  140.8004  161.3087 C   0  0  0  0  0  0  0  0  0  0  0  0
  154.1367  141.4492  162.5028 O   0  0  0  0  0  0  0  0  0  0  0  0
  153.1848  142.4628  162.1958 C   0  0  0  0  0  0  0  0  0  0  0  0
  150.6581  144.8171  162.5603 H   0  0  0  0  0  0  0  0  0  0  0  0
  150.9364  145.2041  160.1975 H   0  0  0  0  0  0  0  0  0  0  0  0
  152.3158  145.0574  161.2616 H   0  0  0  0  0  0  0  0  0  0  0  0
  151.1929  142.5117  160.1284 H   0  0  0  0  0  0  0  0  0  0  0  0
  151.9417  144.6264  158.3252 H   0  0  0  0  0  0  0  0  0  0  0  0
  153.1738  143.4126  158.2289 H   0  0  0  0  0  0  0  0  0  0  0  0
  152.7146  141.9202  156.2797 H   0  0  0  0  0  0  0  0  0  0  0  0
  147.5103  142.3372  154.3393 H   0  0  0  0  0  0  0  0  0  0  0  0
  148.8974  141.3205  154.0003 H   0  0  0  0  0  0  0  0  0  0  0  0
  145.9812  140.6666  153.3670 H   0  0  0  0  0  0  0  0  0  0  0  0
  147.2247  141.0808  152.2067 H   0  0  0  0  0  0  0  0  0  0  0  0
  146.8872  138.6024  152.3346 H   0  0  0  0  0  0  0  0  0  0  0  0
  148.5160  139.0478  152.7993 H   0  0  0  0  0  0  0  0  0  0  0  0
  146.2007  138.4397  154.6962 H   0  0  0  0  0  0  0  0  0  0  0  0
  147.5854  137.4260  154.3810 H   0  0  0  0  0  0  0  0  0  0  0  0
  149.0960  139.1057  155.3982 H   0  0  0  0  0  0  0  0  0  0  0  0
  146.7221  138.8068  157.2836 H   0  0  0  0  0  0  0  0  0  0  0  0
  149.7015  138.9127  157.7994 H   0  0  0  0  0  0  0  0  0  0  0  0
  148.4217  139.7641  158.6542 H   0  0  0  0  0  0  0  0  0  0  0  0
  149.5788  137.2831  159.3768 H   0  0  0  0  0  0  0  0  0  0  0  0
  148.1220  137.9637  160.0880 H   0  0  0  0  0  0  0  0  0  0  0  0
  148.1138  135.5718  158.6397 H   0  0  0  0  0  0  0  0  0  0  0  0
  146.7209  136.6232  158.8386 H   0  0  0  0  0  0  0  0  0  0  0  0
  146.8682  136.5420  156.4674 H   0  0  0  0  0  0  0  0  0  0  0  0
  149.1581  137.0221  155.6602 H   0  0  0  0  0  0  0  0  0  0  0  0
  147.0378  143.1557  159.0618 H   0  0  0  0  0  0  0  0  0  0  0  0
  154.1063  143.3275  160.4707 H   0  0  0  0  0  0  0  0  0  0  0  0
  152.6963  140.6424  160.2319 H   0  0  0  0  0  0  0  0  0  0  0  0
  154.0298  141.2187  159.2309 H   0  0  0  0  0  0  0  0  0  0  0  0
  154.5637  139.7162  161.4237 H   0  0  0  0  0  0  0  0  0  0  0  0
  155.5732  141.1237  161.0773 H   0  0  0  0  0  0  0  0  0  0  0  0
  153.3957  143.3733  162.7573 H   0  0  0  0  0  0  0  0  0  0  0  0
  152.1978  142.1046  162.4918 H   0  0  0  0  0  0  0  0  0  0  0  0
  1  2  1  0  0  0  0
  1 31  1  0  0  0  0
  2  3  1  0  0  0  0
  2 32  1  0  0  0  0
  2 33  1  0  0  0  0
  3  4  1  0  0  0  0
  3 26  1  0  0  0  0
  3 34  1  0  0  0  0
  4  5  1  0  0  0  0
  4 35  1  0  0  0  0
  4 36  1  0  0  0  0
  5 25  1  0  0  0  0
  5  6  1  0  0  0  0
  6  7  2  0  0  0  0
  6 37  1  0  0  0  0
  7  8  1  0  0  0  0
  8 25  2  0  0  0  0
  8  9  1  0  0  0  0
  9 10  1  0  0  0  0
  9 22  2  0  0  0  0
 10 15  1  0  0  0  0
 10 11  1  0  0  0  0
 11 12  1  0  0  0  0
 11 38  1  0  0  0  0
 11 39  1  0  0  0  0
 12 13  1  0  0  0  0
 12 40  1  0  0  0  0
 12 41  1  0  0  0  0
 13 14  1  0  0  0  0
 13 42  1  0  0  0  0
 13 43  1  0  0  0  0
 14 15  1  0  0  0  0
 14 44  1  0  0  0  0
 14 45  1  0  0  0  0
 15 16  1  0  0  0  0
 15 46  1  0  0  0  0
 16 20  1  0  0  0  0
 16 17  1  0  0  0  0
 16 47  1  0  0  0  0
 17 18  1  0  0  0  0
 17 48  1  0  0  0  0
 17 49  1  0  0  0  0
 18 19  1  0  0  0  0
 18 50  1  0  0  0  0
 18 51  1  0  0  0  0
 19 20  1  0  0  0  0
 19 52  1  0  0  0  0
 19 53  1  0  0  0  0
 20 21  1  0  0  0  0
 20 54  1  0  0  0  0
 21 55  1  0  0  0  0
 22 23  1  0  0  0  0
 23 24  2  0  0  0  0
 23 56  1  0  0  0  0
 24 25  1  0  0  0  0
 26 30  1  0  0  0  0
 26 27  1  0  0  0  0
 26 57  1  0  0  0  0
 27 28  1  0  0  0  0
 27 58  1  0  0  0  0
 27 59  1  0  0  0  0
 28 29  1  0  0  0  0
 28 60  1  0  0  0  0
 28 61  1  0  0  0  0
 29 30  1  0  0  0  0
 30 62  1  0  0  0  0
 30 63  1  0  0  0  0
M  END
> <s_m_source_file>
AV-unprocessed.smi

> <i_m_source_file_index>
148

> <i_lp_mmshare_version>
43012

> <i_f3d_flags>
0

> <s_epik_input>
W0NIMl0xT1tDSDJdW0NIMl1bQ0BIXTFbQ0BIXShbQ0gyXVtPSF0pW0NIMl1uKFtjSF1uMiljKGMyMyluW2NIXW5jM040W0NIMl1bQ0gyXVtDSDJdW0NIMl1bQ0BIXTRbQ0BASF01W0NIMl1bQ0gyXVtDSDJdW0NASF01W09IXQ==

> <s_epik_cmdline>
J2VwaWtfcHl0aG9uJywgJy1waCcsICc3LjAnLCAnLXRuJywgJzgnLCAnLW1hJywgJzIwMCcsICctbWV0YWxfYmluZGluZycsICctaW1hZScsICc8aW5maWxlLm1hZT4nLCAnLW9tYWUnLCAnPG91dGZpbGUubWFlPic=

> <r_lp_tautomer_probability>
1

> <r_epik_Ionization_Penalty>
0.00556303

> <r_epik_Ionization_Penalty_Charging>
0

> <r_epik_Ionization_Penalty_Neutral>
0.00556303

> <r_epik_State_Penalty>
0.00401767

> <r_epik_Charging_Adjusted_Penalty>
0.00401767

> <i_epik_Tot_Q>
0

> <i_epik_Tot_abs_Q>
0

> <r_epik_Metal_State_Penalty>
-0

> <b_epik_Metal_Only>
0

> <s_lp_Force_Field>
OPLS_2005

> <r_lp_Energy>
69.1671

> <b_lp_Chiralities_Consistent>
1

> <s_lp_Variant>
AV-unprocessed.smi:148-12

> <Gold.Version>
5.8.1

> <Gold.Id.Protein>
6NUR|6NUR_protein|mol2

> <Gold.PLP.Fitness>
44.1968

> <Gold.PLP.PLP>
-46.2703

> <Gold.PLP.part.hbond>
-4.1619

> <Gold.PLP.part.metal>
0.0000

> <Gold.PLP.part.buried>
-5.8216

> <Gold.PLP.part.nonpolar>
-36.3624

> <Gold.PLP.part.repulsive>
0.3781

> <Gold.PLP.ligand.clash>
0.0000

> <Gold.PLP.ligand.torsion>
1.6159

> <Gold.PLP.Chemscore.Hbond>
0.1560

> <Gold.PLP.Chemscore.CHOScore>
0.0000

> <Gold.PLP.Chemscore.Metal>
0.0000

> <Gold.PLP.Chemscore.Internal.Correction>
0.6904

> <Gold.Rescore>
     Score         DG    S(hbond)    S(metal)    S(lipo)     H(rot)  DE(clash)    DE(int)     intcor
      6.24     -10.33       0.01        0.00     113.73       3.32       2.33       1.76       ----

> <Gold.Chemscore.Fitness>
6.2398

> <Gold.Chemscore.DG>
-10.3250

> <Gold.Chemscore.ZeroCoef>
-5.4800

> <Gold.Chemscore.Hbond>
0.0115

> <Gold.Chemscore.Metal>
0.0000

> <Gold.Chemscore.Lipo>
113.7327

> <Gold.Chemscore.Internal_Hbond>
0.0000

> <Gold.Chemscore.DEClash>
2.3265

> <Gold.Chemscore.DEInternal>
1.7587

> <Gold.Chemscore.Rot>
3.3203

> <Gold.Chemscore.Internal.Correction>
   9.000000E+99

> <Gold.Chemscore.Hbonds>
donor molecule, donor type, donor heavy atom, donor atom, acceptor molecule, acceptor atom, score
      P1  H  6933  6945       L1     1  0.02

> <Gold.Chemscore.Hbond.Weighted>
-0.0383

> <Gold.Chemscore.Metal.Weighted>
-0.0000

> <Gold.Chemscore.Lipo.Weighted>
-13.3067

> <Gold.Chemscore.Internal_Hbond.Weighted>
0.0000

> <Gold.Chemscore.DEClash.Weighted>
2.3265

> <Gold.Chemscore.DEInternal.Weighted>
1.7587

> <Gold.Chemscore.Rot.Weighted>
8.5000

> <Gold.Chemscore.Internal.Correction.Weighted>
   9.000000E+99

> <Gold.Protein.RotatedTorsions>
[ 6907 6896 6895 6894 ] final   90.90 input  -60.11 | X-H torsion
[ 7974 7965 7964 7962 ] final -103.35 input  175.53 | X-H torsion
[ 8008 7997 7996 7995 ] final  121.74 input   59.86 | X-H torsion
[ 10167 10162 10161 10158 ] final  123.77 input  -65.29 | X-H torsion
[ 10718 10713 10712 10709 ] final -166.26 input   66.30 | X-H torsion
[ 10763 10752 10751 10750 ] final  107.37 input  -60.55 | X-H torsion
[ 11005 11000 10999 10996 ] final -123.77 input  -57.11 | X-H torsion

> <Gold.Protein.ActiveResidues>
 VAL166  LYS551  ARG553  GLY616  TRP617  ASP618  TYR619  PRO620  LYS621  CYS622 
 ASP623  PHE694  ASN695  SER759  ASP760  ASP761  ALA762  ILE779  LEU786  VAL792 
 PHE793  MET794  SER795  GLU796  ALA797  LYS798  CYS799  TRP800  GLU811  SER814 

> <Gold.Protein.RotatedAtoms>
  152.5447  134.1739  159.8607 H   0  0  0  0  0  0  0  0  0  0  0  0  # atno 6907 bound_to 6896
  151.1747  133.4755  159.2601 H   0  0  0  0  0  0  0  0  0  0  0  0  # atno 6908 bound_to 6896
  151.1239  135.0105  159.8606 H   0  0  0  0  0  0  0  0  0  0  0  0  # atno 6909 bound_to 6896
  145.2570  140.9257  143.3062 H   0  0  0  0  0  0  0  0  0  0  0  0  # atno 7974 bound_to 7965
  156.2699  140.2801  156.1356 H   0  0  0  0  0  0  0  0  0  0  0  0  # atno 8008 bound_to 7997
  155.1008  140.0389  157.2714 H   0  0  0  0  0  0  0  0  0  0  0  0  # atno 8009 bound_to 7997
  154.6817  140.2610  155.6907 H   0  0  0  0  0  0  0  0  0  0  0  0  # atno 8010 bound_to 7997
  139.5780  144.6972  151.3603 H   0  0  0  0  0  0  0  0  0  0  0  0  # atno 10167 bound_to 10162
  156.6653  130.9062  151.3035 H   0  0  0  0  0  0  0  0  0  0  0  0  # atno 10718 bound_to 10713
  153.4058  135.3846  155.2018 H   0  0  0  0  0  0  0  0  0  0  0  0  # atno 10763 bound_to 10752
  154.8733  135.3782  154.4562 H   0  0  0  0  0  0  0  0  0  0  0  0  # atno 10764 bound_to 10752
  153.5065  135.7088  153.5866 H   0  0  0  0  0  0  0  0  0  0  0  0  # atno 10765 bound_to 10752
  140.9893  134.0561  157.3673 H   0  0  0  0  0  0  0  0  0  0  0  0  # atno 11005 bound_to 11000
  144.9452  139.4144  143.6429 LP  0  0  0  0  0  0  0  0  0  0  0  0  # atno 17320 bound_to 7965
  146.3286  139.8431  142.8886 LP  0  0  0  0  0  0  0  0  0  0  0  0  # atno 17321 bound_to 7965
  140.7061  143.7511  150.7484 LP  0  0  0  0  0  0  0  0  0  0  0  0  # atno 17342 bound_to 10162
  140.1035  143.4765  152.2411 LP  0  0  0  0  0  0  0  0  0  0  0  0  # atno 17343 bound_to 10162
  157.7095  130.9424  150.1043 LP  0  0  0  0  0  0  0  0  0  0  0  0  # atno 17370 bound_to 10713
  156.1979  130.3658  149.8825 LP  0  0  0  0  0  0  0  0  0  0  0  0  # atno 17371 bound_to 10713
  139.8985  135.0155  156.7151 LP  0  0  0  0  0  0  0  0  0  0  0  0  # atno 17394 bound_to 11000
  140.7065  133.9261  155.8057 LP  0  0  0  0  0  0  0  0  0  0  0  0  # atno 17395 bound_to 11000

$$$$
