AV-unprocessed.smi:2789|AV-procd|sdf|10762|dock9
  -GOLD-   2272015193D 1   1.00000     0.00000
 Structure written by MMmdl.
 35 36  0  0  0  0  0  0  0  0  1 V2000
  150.0928  138.4979  154.2757 C   0  0  0  0  0  0  0  0  0  0  0  0
  149.5766  138.7376  155.5753 O   0  0  0  0  0  0  0  0  0  0  0  0
  148.7444  139.8868  155.6590 C   0  0  2  0  0  0  0  0  0  0  0  0
  147.4008  139.6805  154.9468 C   0  0  0  0  0  0  0  0  0  0  0  0
  147.0147  141.0701  154.4537 C   0  0  0  0  0  0  0  0  0  0  0  0
  148.3430  141.6850  154.0165 C   0  0  0  0  0  0  0  0  0  0  0  0
  149.4146  141.0818  154.9468 C   0  0  1  0  0  0  0  0  0  0  0  0
  149.8822  142.0657  155.9204 N   0  0  0  0  0  0  0  0  0  0  0  0
  150.6398  141.7904  156.9914 C   0  0  0  0  0  0  0  0  0  0  0  0
  151.0375  140.6583  157.2671 O   0  0  0  0  0  0  0  0  0  0  0  0
  150.8994  142.9032  157.6997 N   0  0  0  0  0  0  0  0  0  0  0  0
  151.6229  143.0334  158.8435 C   0  0  0  0  0  0  0  0  0  0  0  0
  152.5217  142.1629  159.3975 C   0  0  0  0  0  0  0  0  0  0  0  0
  152.9346  142.8531  160.5730 C   0  0  0  0  0  0  0  0  0  0  0  0
  152.3423  144.0315  160.7194 N   0  0  0  0  0  0  0  0  0  0  0  0
  151.5262  144.1472  159.6490 N   0  0  0  0  0  0  0  0  0  0  0  0
  150.7105  145.3344  159.4829 C   0  0  0  0  0  0  0  0  0  0  0  0
  150.6985  137.5917  154.2869 H   0  0  0  0  0  0  0  0  0  0  0  0
  150.7268  139.3175  153.9366 H   0  0  0  0  0  0  0  0  0  0  0  0
  149.2893  138.3541  153.5524 H   0  0  0  0  0  0  0  0  0  0  0  0
  148.5581  140.1399  156.7051 H   0  0  0  0  0  0  0  0  0  0  0  0
  147.5320  139.0188  154.0894 H   0  0  0  0  0  0  0  0  0  0  0  0
  146.6429  139.2396  155.5949 H   0  0  0  0  0  0  0  0  0  0  0  0
  146.2792  141.0426  153.6494 H   0  0  0  0  0  0  0  0  0  0  0  0
  146.5921  141.6493  155.2759 H   0  0  0  0  0  0  0  0  0  0  0  0
  148.5543  141.3865  152.9888 H   0  0  0  0  0  0  0  0  0  0  0  0
  148.3140  142.7754  154.0313 H   0  0  0  0  0  0  0  0  0  0  0  0
  150.2572  140.7331  154.3460 H   0  0  0  0  0  0  0  0  0  0  0  0
  149.6005  143.0229  155.7683 H   0  0  0  0  0  0  0  0  0  0  0  0
  150.5094  143.7610  157.3379 H   0  0  0  0  0  0  0  0  0  0  0  0
  152.8423  141.1954  159.0419 H   0  0  0  0  0  0  0  0  0  0  0  0
  153.6442  142.5340  161.3221 H   0  0  0  0  0  0  0  0  0  0  0  0
  151.0204  145.8677  158.5841 H   0  0  0  0  0  0  0  0  0  0  0  0
  150.8166  145.9976  160.3424 H   0  0  0  0  0  0  0  0  0  0  0  0
  149.6627  145.0490  159.3857 H   0  0  0  0  0  0  0  0  0  0  0  0
  1  2  1  0  0  0  0
  1 18  1  0  0  0  0
  1 19  1  0  0  0  0
  1 20  1  0  0  0  0
  2  3  1  0  0  0  0
  3  7  1  0  0  0  0
  3  4  1  0  0  0  0
  3 21  1  0  0  0  0
  4  5  1  0  0  0  0
  4 22  1  0  0  0  0
  4 23  1  0  0  0  0
  5  6  1  0  0  0  0
  5 24  1  0  0  0  0
  5 25  1  0  0  0  0
  6  7  1  0  0  0  0
  6 26  1  0  0  0  0
  6 27  1  0  0  0  0
  7  8  1  0  0  0  0
  7 28  1  0  0  0  0
  8  9  1  0  0  0  0
  8 29  1  0  0  0  0
  9 10  2  0  0  0  0
  9 11  1  0  0  0  0
 11 12  1  0  0  0  0
 11 30  1  0  0  0  0
 12 16  1  0  0  0  0
 12 13  2  0  0  0  0
 13 14  1  0  0  0  0
 13 31  1  0  0  0  0
 14 15  2  0  0  0  0
 14 32  1  0  0  0  0
 15 16  1  0  0  0  0
 16 17  1  0  0  0  0
 17 33  1  0  0  0  0
 17 34  1  0  0  0  0
 17 35  1  0  0  0  0
M  END
> <s_m_source_file>
AV-unprocessed.smi

> <i_m_source_file_index>
2789

> <i_lp_mmshare_version>
43012

> <i_f3d_flags>
0

> <s_epik_input>
W0NIM11PW0NAQEhdMVtDSDJdW0NIMl1bQ0gyXVtDQEhdMVtOSF1DKD1PKVtOSF1jMltjSF1bY0hdbm4yW0NIM10=

> <s_epik_cmdline>
J2VwaWtfcHl0aG9uJywgJy1waCcsICc3LjAnLCAnLXRuJywgJzgnLCAnLW1hJywgJzIwMCcsICctbWV0YWxfYmluZGluZycsICctaW1hZScsICc8aW5maWxlLm1hZT4nLCAnLW9tYWUnLCAnPG91dGZpbGUubWFlPic=

> <r_lp_tautomer_probability>
1

> <r_epik_Ionization_Penalty>
4.40608e-05

> <r_epik_Ionization_Penalty_Charging>
0

> <r_epik_Ionization_Penalty_Neutral>
4.40608e-05

> <r_epik_State_Penalty>
-0

> <r_epik_Charging_Adjusted_Penalty>
0

> <i_epik_Tot_Q>
0

> <i_epik_Tot_abs_Q>
0

> <r_epik_Metal_State_Penalty>
-0

> <b_epik_Metal_Only>
0

> <s_lp_Force_Field>
OPLS_2005

> <r_lp_Energy>
20.8704

> <b_lp_Chiralities_Consistent>
1

> <s_lp_Variant>
AV-unprocessed.smi:2789-1

> <Gold.Version>
5.8.1

> <Gold.Id.Protein>
6NUR|6NUR_protein|mol2

> <Gold.PLP.Fitness>
35.5637

> <Gold.PLP.PLP>
-33.0374

> <Gold.PLP.part.hbond>
-1.0000

> <Gold.PLP.part.metal>
0.0000

> <Gold.PLP.part.buried>
-5.0107

> <Gold.PLP.part.nonpolar>
-27.7263

> <Gold.PLP.part.repulsive>
0.2710

> <Gold.PLP.ligand.clash>
0.0000

> <Gold.PLP.ligand.torsion>
0.2396

> <Gold.PLP.Chemscore.Hbond>
1.0000

> <Gold.PLP.Chemscore.CHOScore>
0.0000

> <Gold.PLP.Chemscore.Metal>
0.0000

> <Gold.Chemscore.Hbonds>
donor molecule, donor type, donor heavy atom, donor atom, acceptor molecule, acceptor atom, score
      L1  H     8    29       P1  8028  1.00

> <Gold.PLP.Chemscore.Internal.Correction>
0.0055

> <Gold.Rescore>
     Score         DG    S(hbond)    S(metal)    S(lipo)     H(rot)  DE(clash)    DE(int)     intcor
     13.56     -16.69       1.92        0.00      68.72       1.27       0.15       2.98       ----

> <Gold.Chemscore.Fitness>
13.5586

> <Gold.Chemscore.DG>
-16.6876

> <Gold.Chemscore.ZeroCoef>
-5.4800

> <Gold.Chemscore.Hbond>
1.9226

> <Gold.Chemscore.Metal>
0.0000

> <Gold.Chemscore.Lipo>
68.7235

> <Gold.Chemscore.Internal_Hbond>
0.0000

> <Gold.Chemscore.DEClash>
0.1521

> <Gold.Chemscore.DEInternal>
2.9769

> <Gold.Chemscore.Rot>
1.2712

> <Gold.Chemscore.Internal.Correction>
   9.000000E+99

> <Gold.Chemscore.Hbonds>
donor molecule, donor type, donor heavy atom, donor atom, acceptor molecule, acceptor atom, score
      L1  H     8    29       P1  8028  1.00
      L1  H    11    30       P1  8028  0.01

> <Gold.Chemscore.Hbond.Weighted>
-6.4213

> <Gold.Chemscore.Metal.Weighted>
-0.0000

> <Gold.Chemscore.Lipo.Weighted>
-8.0406

> <Gold.Chemscore.Internal_Hbond.Weighted>
0.0000

> <Gold.Chemscore.DEClash.Weighted>
0.1521

> <Gold.Chemscore.DEInternal.Weighted>
2.9769

> <Gold.Chemscore.Rot.Weighted>
3.2544

> <Gold.Chemscore.Internal.Correction.Weighted>
   9.000000E+99

> <Gold.Protein.RotatedTorsions>
[ 6907 6896 6895 6894 ] final  -52.19 input  -60.11 | X-H torsion
[ 7974 7965 7964 7962 ] final  108.05 input  175.53 | X-H torsion
[ 8008 7997 7996 7995 ] final  -75.64 input   59.86 | X-H torsion
[ 10167 10162 10161 10158 ] final  146.09 input  -65.29 | X-H torsion
[ 10718 10713 10712 10709 ] final   69.69 input   66.30 | X-H torsion
[ 10763 10752 10751 10750 ] final  -62.85 input  -60.55 | X-H torsion
[ 11005 11000 10999 10996 ] final   -0.38 input  -57.11 | X-H torsion

> <Gold.Protein.ActiveResidues>
 VAL166  LYS551  ARG553  GLY616  TRP617  ASP618  TYR619  PRO620  LYS621  CYS622 
 ASP623  PHE694  ASN695  SER759  ASP760  ASP761  ALA762  ILE779  LEU786  VAL792 
 PHE793  MET794  SER795  GLU796  ALA797  LYS798  CYS799  TRP800  GLU811  SER814 

> <Gold.Protein.RotatedAtoms>
  150.8541  134.7874  159.7031 H   0  0  0  0  0  0  0  0  0  0  0  0  # atno 6907 bound_to 6896
  152.4597  134.5208  159.9792 H   0  0  0  0  0  0  0  0  0  0  0  0  # atno 6908 bound_to 6896
  151.5324  133.3409  159.2956 H   0  0  0  0  0  0  0  0  0  0  0  0  # atno 6909 bound_to 6896
  145.2857  139.2617  143.3892 H   0  0  0  0  0  0  0  0  0  0  0  0  # atno 7974 bound_to 7965
  154.5435  140.0740  156.8549 H   0  0  0  0  0  0  0  0  0  0  0  0  # atno 8008 bound_to 7997
  155.3134  140.3391  155.4225 H   0  0  0  0  0  0  0  0  0  0  0  0  # atno 8009 bound_to 7997
  156.1896  140.1681  156.8104 H   0  0  0  0  0  0  0  0  0  0  0  0  # atno 8010 bound_to 7997
  139.4913  144.5855  151.6787 H   0  0  0  0  0  0  0  0  0  0  0  0  # atno 10167 bound_to 10162
  157.6360  130.9439  150.0549 H   0  0  0  0  0  0  0  0  0  0  0  0  # atno 10718 bound_to 10713
  154.3062  135.6225  153.5446 H   0  0  0  0  0  0  0  0  0  0  0  0  # atno 10763 bound_to 10752
  152.9834  135.5690  154.5228 H   0  0  0  0  0  0  0  0  0  0  0  0  # atno 10764 bound_to 10752
  154.4869  135.2865  155.1503 H   0  0  0  0  0  0  0  0  0  0  0  0  # atno 10765 bound_to 10752
  140.6357  133.9535  155.8298 H   0  0  0  0  0  0  0  0  0  0  0  0  # atno 11005 bound_to 11000
  146.3202  140.3335  142.8642 LP  0  0  0  0  0  0  0  0  0  0  0  0  # atno 17320 bound_to 7965
  144.9215  140.7874  143.5745 LP  0  0  0  0  0  0  0  0  0  0  0  0  # atno 17321 bound_to 7965
  140.5470  144.0487  150.6111 LP  0  0  0  0  0  0  0  0  0  0  0  0  # atno 17342 bound_to 10162
  140.3529  143.2953  152.0468 LP  0  0  0  0  0  0  0  0  0  0  0  0  # atno 17343 bound_to 10162
  156.1599  130.3643  149.9314 LP  0  0  0  0  0  0  0  0  0  0  0  0  # atno 17370 bound_to 10713
  156.7315  130.9045  151.3626 LP  0  0  0  0  0  0  0  0  0  0  0  0  # atno 17371 bound_to 10713
  141.0643  134.0299  157.3615 LP  0  0  0  0  0  0  0  0  0  0  0  0  # atno 17394 bound_to 11000
  139.9099  135.0188  156.7647 LP  0  0  0  0  0  0  0  0  0  0  0  0  # atno 17395 bound_to 11000

$$$$
