AV-unprocessed.smi:1046|AV-procd|sdf|4559|dock2
  -GOLD-   22720 2593D 1   1.00000     0.00000
 Structure written by MMmdl.
 54 56  0  0  0  0  0  0  0  0  3 V2000
  152.5831  143.1984  160.7747 C   0  0  0  0  0  0  0  0  0  0  0  0
  152.2086  142.4554  159.5034 C   0  0  0  0  0  0  0  0  0  0  0  0
  151.3312  143.0820  158.5899 C   0  0  0  0  0  0  0  0  0  0  0  0
  151.0102  142.3791  157.4346 C   0  0  0  0  0  0  0  0  0  0  0  0
  150.1904  142.7183  156.3560 N   0  3  0  0  0  0  0  0  0  0  0  0
  150.1862  141.7013  155.4505 C   0  0  0  0  0  0  0  0  0  0  0  0
  150.9899  140.7161  155.9353 N   0  0  0  0  0  0  0  0  0  0  0  0
  151.3276  139.4086  155.3543 C   0  0  0  0  0  0  0  0  0  0  0  0
  150.2709  138.9151  154.3458 C   0  0  1  0  0  0  0  0  0  0  0  0
  150.5041  137.5674  153.9877 O   0  0  0  0  0  0  0  0  0  0  0  0
  148.7940  139.0696  154.7739 C   0  0  0  0  0  0  0  0  0  0  0  0
  147.7985  139.0629  153.6916 N   0  0  0  0  0  0  0  0  0  0  0  0
  146.4014  139.0758  154.1435 C   0  0  0  0  0  0  0  0  0  0  0  0
  145.9531  140.4261  154.7443 C   0  0  0  0  0  0  0  0  0  0  0  0
  146.1865  141.5313  153.7804 N   0  3  0  0  0  0  0  0  0  0  0  0
  145.7164  142.8425  154.2942 C   0  0  0  0  0  0  0  0  0  0  0  0
  145.8846  143.9750  153.2668 C   0  0  0  0  0  0  0  0  0  0  0  0
  144.6461  144.6165  153.0488 O   0  0  0  0  0  0  0  0  0  0  0  0
  147.6034  141.5393  153.3324 C   0  0  0  0  0  0  0  0  0  0  0  0
  147.9791  140.1649  152.7462 C   0  0  0  0  0  0  0  0  0  0  0  0
  151.5267  141.0954  157.1719 C   0  0  0  0  0  0  0  0  0  0  0  0
  152.3922  140.4640  158.0624 C   0  0  0  0  0  0  0  0  0  0  0  0
  152.7340  141.1636  159.2416 C   0  0  0  0  0  0  0  0  0  0  0  0
  153.6824  140.5014  160.2266 C   0  0  0  0  0  0  0  0  0  0  0  0
  152.0347  144.1363  160.8645 H   0  0  0  0  0  0  0  0  0  0  0  0
  153.6480  143.4318  160.7795 H   0  0  0  0  0  0  0  0  0  0  0  0
  152.3556  142.5969  161.6550 H   0  0  0  0  0  0  0  0  0  0  0  0
  150.9298  144.0663  158.7809 H   0  0  0  0  0  0  0  0  0  0  0  0
  149.6426  141.6811  154.5170 H   0  0  0  0  0  0  0  0  0  0  0  0
  152.3151  139.4775  154.8990 H   0  0  0  0  0  0  0  0  0  0  0  0
  151.4094  138.7036  156.1823 H   0  0  0  0  0  0  0  0  0  0  0  0
  150.3947  139.4949  153.4301 H   0  0  0  0  0  0  0  0  0  0  0  0
  150.0033  137.3708  153.2108 H   0  0  0  0  0  0  0  0  0  0  0  0
  148.5536  138.3084  155.5151 H   0  0  0  0  0  0  0  0  0  0  0  0
  148.7270  140.0144  155.3153 H   0  0  0  0  0  0  0  0  0  0  0  0
  145.7576  138.8435  153.2940 H   0  0  0  0  0  0  0  0  0  0  0  0
  146.2173  138.2867  154.8678 H   0  0  0  0  0  0  0  0  0  0  0  0
  144.8904  140.3740  154.9839 H   0  0  0  0  0  0  0  0  0  0  0  0
  146.4720  140.6345  155.6803 H   0  0  0  0  0  0  0  0  0  0  0  0
  144.6607  142.7763  154.5628 H   0  0  0  0  0  0  0  0  0  0  0  0
  146.2494  143.0837  155.2150 H   0  0  0  0  0  0  0  0  0  0  0  0
  146.5883  144.7154  153.6481 H   0  0  0  0  0  0  0  0  0  0  0  0
  146.2873  143.6181  152.3197 H   0  0  0  0  0  0  0  0  0  0  0  0
  143.9980  143.9598  152.8412 H   0  0  0  0  0  0  0  0  0  0  0  0
  147.7533  142.3015  152.5688 H   0  0  0  0  0  0  0  0  0  0  0  0
  148.2583  141.7952  154.1667 H   0  0  0  0  0  0  0  0  0  0  0  0
  149.0097  140.1823  152.3897 H   0  0  0  0  0  0  0  0  0  0  0  0
  147.3671  139.9793  151.8623 H   0  0  0  0  0  0  0  0  0  0  0  0
  152.7979  139.4835  157.8614 H   0  0  0  0  0  0  0  0  0  0  0  0
  154.0327  139.5373  159.8569 H   0  0  0  0  0  0  0  0  0  0  0  0
  153.1842  140.3320  161.1813 H   0  0  0  0  0  0  0  0  0  0  0  0
  154.5574  141.1287  160.3981 H   0  0  0  0  0  0  0  0  0  0  0  0
  145.6200  141.3227  152.9704 H   0  0  0  0  0  0  0  0  0  0  0  0
  149.6715  143.5798  156.2436 H   0  0  0  0  0  0  0  0  0  0  0  0
  1  2  1  0  0  0  0
  1 25  1  0  0  0  0
  1 26  1  0  0  0  0
  1 27  1  0  0  0  0
  2 23  1  0  0  0  0
  2  3  2  0  0  0  0
  3  4  1  0  0  0  0
  3 28  1  0  0  0  0
  4 21  2  0  0  0  0
  4  5  1  0  0  0  0
  5  6  2  0  0  0  0
  5 54  1  0  0  0  0
  6  7  1  0  0  0  0
  6 29  1  0  0  0  0
  7  8  1  0  0  0  0
  7 21  1  0  0  0  0
  8  9  1  0  0  0  0
  8 30  1  0  0  0  0
  8 31  1  0  0  0  0
  9 10  1  0  0  0  0
  9 11  1  0  0  0  0
  9 32  1  0  0  0  0
 10 33  1  0  0  0  0
 11 12  1  0  0  0  0
 11 34  1  0  0  0  0
 11 35  1  0  0  0  0
 12 20  1  0  0  0  0
 12 13  1  0  0  0  0
 13 14  1  0  0  0  0
 13 36  1  0  0  0  0
 13 37  1  0  0  0  0
 14 15  1  0  0  0  0
 14 38  1  0  0  0  0
 14 39  1  0  0  0  0
 15 16  1  0  0  0  0
 15 19  1  0  0  0  0
 15 53  1  0  0  0  0
 16 17  1  0  0  0  0
 16 40  1  0  0  0  0
 16 41  1  0  0  0  0
 17 18  1  0  0  0  0
 17 42  1  0  0  0  0
 17 43  1  0  0  0  0
 18 44  1  0  0  0  0
 19 20  1  0  0  0  0
 19 45  1  0  0  0  0
 19 46  1  0  0  0  0
 20 47  1  0  0  0  0
 20 48  1  0  0  0  0
 21 22  1  0  0  0  0
 22 23  2  0  0  0  0
 22 49  1  0  0  0  0
 23 24  1  0  0  0  0
 24 50  1  0  0  0  0
 24 51  1  0  0  0  0
 24 52  1  0  0  0  0
M  CHG  1   5   1
M  CHG  1  15   1
M  END
> <s_m_source_file>
AV-unprocessed.smi

> <i_m_source_file_index>
1046

> <i_lp_mmshare_version>
43012

> <i_f3d_flags>
0

> <s_epik_input>
W0NIM11jKFtjSF0xKWMoW0NIM10pW2NIXWMoYzEyKW4oW2NIXW4yKVtDSDJdW0NASF0oW09IXSlbQ0gyXU4zW0NIMl1bQ0gyXU4oW0NIMl1bQ0gyXTMpW0NIMl1bQ0gyXVtPSF0=

> <s_epik_cmdline>
J2VwaWtfcHl0aG9uJywgJy1waCcsICc3LjAnLCAnLXRuJywgJzgnLCAnLW1hJywgJzIwMCcsICctbWV0YWxfYmluZGluZycsICctaW1hZScsICc8aW5maWxlLm1hZT4nLCAnLW9tYWUnLCAnPG91dGZpbGUubWFlPic=

> <r_epik_Ionization_Penalty>
1.37806

> <r_epik_Ionization_Penalty_Charging>
1.32954

> <r_epik_Ionization_Penalty_Neutral>
0.0485178

> <r_epik_State_Penalty>
2.26587

> <r_epik_Charging_Adjusted_Penalty>
3.59541

> <i_epik_Tot_Q>
2

> <i_epik_Tot_abs_Q>
2

> <r_epik_Metal_State_Penalty>
6.27317

> <b_epik_Metal_Only>
0

> <s_lp_Force_Field>
OPLS_2005

> <r_lp_Energy>
47.9713

> <b_lp_Chiralities_Consistent>
1

> <s_lp_Variant>
AV-unprocessed.smi:1046-12

> <Gold.Version>
5.8.1

> <Gold.Id.Protein>
6NUR|6NUR_protein|mol2

> <Gold.PLP.Fitness>
64.6682

> <Gold.PLP.PLP>
-48.3482

> <Gold.PLP.part.hbond>
-4.8947

> <Gold.PLP.part.metal>
0.0000

> <Gold.PLP.part.buried>
-3.5180

> <Gold.PLP.part.nonpolar>
-40.2065

> <Gold.PLP.part.repulsive>
0.2544

> <Gold.PLP.ligand.clash>
0.0000

> <Gold.PLP.ligand.torsion>
0.9533

> <Gold.PLP.Chemscore.Hbond>
6.0000

> <Gold.PLP.Chemscore.CHOScore>
0.0000

> <Gold.PLP.Chemscore.Metal>
0.0000

> <Gold.Chemscore.Hbonds>
donor molecule, donor type, donor heavy atom, donor atom, acceptor molecule, acceptor atom, score
      L1  H     5    54       P1  8028  1.85
      L1  H    10    33       P1  7948  1.00
      L1  H    15    53       P1 10175  0.80
      L1  H    18    44       P1 10174  0.86

> <Gold.PLP.Chemscore.Internal.Correction>
0.2265

> <Gold.Rescore>
     Score         DG    S(hbond)    S(metal)    S(lipo)     H(rot)  DE(clash)    DE(int)     intcor
     20.06     -21.61       3.39        0.00     113.13       3.29       0.54       1.01       ----

> <Gold.Chemscore.Fitness>
20.0609

> <Gold.Chemscore.DG>
-21.6073

> <Gold.Chemscore.ZeroCoef>
-5.4800

> <Gold.Chemscore.Hbond>
3.3869

> <Gold.Chemscore.Metal>
0.0000

> <Gold.Chemscore.Lipo>
113.1332

> <Gold.Chemscore.Internal_Hbond>
0.0000

> <Gold.Chemscore.DEClash>
0.5350

> <Gold.Chemscore.DEInternal>
1.0114

> <Gold.Chemscore.Rot>
3.2896

> <Gold.Chemscore.Internal.Correction>
   9.000000E+99

> <Gold.Chemscore.Hbonds>
donor molecule, donor type, donor heavy atom, donor atom, acceptor molecule, acceptor atom, score
      L1  H     5    54       P1  8028  0.88
      L1  H    10    33       P1  7948  0.24
      L1  H    15    53       P1 10175  0.04
      L1  H    18    44       P1 10174  0.55

> <Gold.Chemscore.Hbond.Weighted>
-11.3122

> <Gold.Chemscore.Metal.Weighted>
-0.0000

> <Gold.Chemscore.Lipo.Weighted>
-13.2366

> <Gold.Chemscore.Internal_Hbond.Weighted>
0.0000

> <Gold.Chemscore.DEClash.Weighted>
0.5350

> <Gold.Chemscore.DEInternal.Weighted>
1.0114

> <Gold.Chemscore.Rot.Weighted>
8.4215

> <Gold.Chemscore.Internal.Correction.Weighted>
   9.000000E+99

> <Gold.Protein.RotatedTorsions>
[ 6907 6896 6895 6894 ] final   85.03 input  -60.11 | X-H torsion
[ 7974 7965 7964 7962 ] final   33.39 input  175.53 | X-H torsion
[ 8008 7997 7996 7995 ] final   38.67 input   59.86 | X-H torsion
[ 10167 10162 10161 10158 ] final -134.20 input  -65.29 | X-H torsion
[ 10718 10713 10712 10709 ] final -158.11 input   66.30 | X-H torsion
[ 10763 10752 10751 10750 ] final   85.57 input  -60.55 | X-H torsion
[ 11005 11000 10999 10996 ] final   48.37 input  -57.11 | X-H torsion

> <Gold.Protein.ActiveResidues>
 VAL166  LYS551  ARG553  GLY616  TRP617  ASP618  TYR619  PRO620  LYS621  CYS622 
 ASP623  PHE694  ASN695  SER759  ASP760  ASP761  ALA762  ILE779  LEU786  VAL792 
 PHE793  MET794  SER795  GLU796  ALA797  LYS798  CYS799  TRP800  GLU811  SER814 

> <Gold.Protein.RotatedAtoms>
  152.5366  134.2649  159.8949 H   0  0  0  0  0  0  0  0  0  0  0  0  # atno 6907 bound_to 6896
  151.2608  133.4296  159.2623 H   0  0  0  0  0  0  0  0  0  0  0  0  # atno 6908 bound_to 6896
  151.0455  134.9651  159.8240 H   0  0  0  0  0  0  0  0  0  0  0  0  # atno 6909 bound_to 6896
  146.1424  139.6403  142.9154 H   0  0  0  0  0  0  0  0  0  0  0  0  # atno 7974 bound_to 7965
  155.2241  140.3333  155.4312 H   0  0  0  0  0  0  0  0  0  0  0  0  # atno 8008 bound_to 7997
  156.2321  140.1855  156.7261 H   0  0  0  0  0  0  0  0  0  0  0  0  # atno 8009 bound_to 7997
  154.5996  140.0625  156.9336 H   0  0  0  0  0  0  0  0  0  0  0  0  # atno 8010 bound_to 7997
  139.8904  143.6729  152.2613 H   0  0  0  0  0  0  0  0  0  0  0  0  # atno 10167 bound_to 10162
  156.5496  130.8599  151.2776 H   0  0  0  0  0  0  0  0  0  0  0  0  # atno 10718 bound_to 10713
  153.1488  135.4612  154.9605 H   0  0  0  0  0  0  0  0  0  0  0  0  # atno 10763 bound_to 10752
  154.7807  135.3187  154.7997 H   0  0  0  0  0  0  0  0  0  0  0  0  # atno 10764 bound_to 10752
  153.8506  135.6922  153.4847 H   0  0  0  0  0  0  0  0  0  0  0  0  # atno 10765 bound_to 10752
  140.1197  134.4846  155.8608 H   0  0  0  0  0  0  0  0  0  0  0  0  # atno 11005 bound_to 11000
  145.5016  141.0437  143.2537 LP  0  0  0  0  0  0  0  0  0  0  0  0  # atno 17320 bound_to 7965
  144.7807  139.6532  143.7155 LP  0  0  0  0  0  0  0  0  0  0  0  0  # atno 17321 bound_to 7965
  139.7114  144.7619  151.1105 LP  0  0  0  0  0  0  0  0  0  0  0  0  # atno 17342 bound_to 10162
  140.7727  143.5325  150.9406 LP  0  0  0  0  0  0  0  0  0  0  0  0  # atno 17343 bound_to 10162
  157.7390  130.9823  150.2286 LP  0  0  0  0  0  0  0  0  0  0  0  0  # atno 17370 bound_to 10713
  156.2896  130.3744  149.7854 LP  0  0  0  0  0  0  0  0  0  0  0  0  # atno 17371 bound_to 10713
  141.2149  133.6756  156.6864 LP  0  0  0  0  0  0  0  0  0  0  0  0  # atno 17394 bound_to 11000
  140.2982  134.8185  157.4075 LP  0  0  0  0  0  0  0  0  0  0  0  0  # atno 17395 bound_to 11000

$$$$
