AV-unprocessed.smi:1734|AV-procd|sdf|6986|dock1
  -GOLD-   22720 8203D 1   1.00000     0.00000
 Structure written by MMmdl.
 51 53  0  0  0  0  0  0  0  0  2 V2000
  147.7836  132.7333  152.5868 C   0  0  0  0  0  0  0  0  0  0  0  0
  146.3597  132.9150  152.0870 C   0  0  0  0  0  0  0  0  0  0  0  0
  145.6510  131.7946  151.6035 C   0  0  0  0  0  0  0  0  0  0  0  0
  144.3343  131.9621  151.1427 C   0  0  0  0  0  0  0  0  0  0  0  0
  143.7781  133.2519  151.1843 C   0  0  0  0  0  0  0  0  0  0  0  0
  144.4484  134.3283  151.6433 N   0  0  0  0  0  0  0  0  0  0  0  0
  145.7211  134.1842  152.0914 C   0  0  0  0  0  0  0  0  0  0  0  0
  146.4868  135.2753  152.5922 N   0  0  0  0  0  0  0  0  0  0  0  0
  146.1865  136.1134  153.6002 C   0  0  0  0  0  0  0  0  0  0  0  0
  145.1473  136.0922  154.2597 O   0  0  0  0  0  0  0  0  0  0  0  0
  147.1768  136.9937  153.8088 N   0  0  0  0  0  0  0  0  0  0  0  0
  147.1778  138.0371  154.8298 C   0  0  0  0  0  0  0  0  0  0  0  0
  148.1383  137.7249  156.0089 C   0  0  2  0  0  0  0  0  0  0  0  0
  147.5257  137.9944  157.4141 C   0  0  1  0  0  0  0  0  0  0  0  0
  146.2725  137.2068  157.7645 C   0  0  0  0  0  0  0  0  0  0  0  0
  146.2354  137.2803  159.2885 C   0  0  0  0  0  0  0  0  0  0  0  0
  147.5847  137.4429  159.7094 O   0  0  0  0  0  0  0  0  0  0  0  0
  148.4314  137.5674  158.5750 C   0  0  0  0  0  0  0  0  0  0  0  0
  149.4333  138.4599  155.8772 N   0  3  0  0  0  0  0  0  0  0  0  0
  150.2224  138.0914  154.6765 C   0  0  0  0  0  0  0  0  0  0  0  0
  151.6131  138.7459  154.7384 C   0  0  0  0  0  0  0  0  0  0  0  0
  151.4750  140.1565  154.8636 O   0  0  0  0  0  0  0  0  0  0  0  0
  150.7877  140.5244  156.0539 C   0  0  0  0  0  0  0  0  0  0  0  0
  149.3674  139.9360  156.0295 C   0  0  0  0  0  0  0  0  0  0  0  0
  148.1022  131.6934  152.5077 H   0  0  0  0  0  0  0  0  0  0  0  0
  147.8617  133.0291  153.6334 H   0  0  0  0  0  0  0  0  0  0  0  0
  148.4739  133.3405  152.0008 H   0  0  0  0  0  0  0  0  0  0  0  0
  146.1086  130.8163  151.5851 H   0  0  0  0  0  0  0  0  0  0  0  0
  143.7661  131.1239  150.7674 H   0  0  0  0  0  0  0  0  0  0  0  0
  142.7689  133.4247  150.8407 H   0  0  0  0  0  0  0  0  0  0  0  0
  147.3705  135.4283  152.1299 H   0  0  0  0  0  0  0  0  0  0  0  0
  147.9912  136.9384  153.2144 H   0  0  0  0  0  0  0  0  0  0  0  0
  147.4668  138.9627  154.3328 H   0  0  0  0  0  0  0  0  0  0  0  0
  146.1683  138.1939  155.2120 H   0  0  0  0  0  0  0  0  0  0  0  0
  148.3784  136.6609  155.9700 H   0  0  0  0  0  0  0  0  0  0  0  0
  147.2982  139.0557  157.5237 H   0  0  0  0  0  0  0  0  0  0  0  0
  145.3638  137.6164  157.3247 H   0  0  0  0  0  0  0  0  0  0  0  0
  146.3716  136.1687  157.4438 H   0  0  0  0  0  0  0  0  0  0  0  0
  145.6639  138.1493  159.6164 H   0  0  0  0  0  0  0  0  0  0  0  0
  145.7845  136.3924  159.7326 H   0  0  0  0  0  0  0  0  0  0  0  0
  148.8836  136.5949  158.3744 H   0  0  0  0  0  0  0  0  0  0  0  0
  149.2346  138.2793  158.7667 H   0  0  0  0  0  0  0  0  0  0  0  0
  150.3326  137.0082  154.6178 H   0  0  0  0  0  0  0  0  0  0  0  0
  149.7052  138.4116  153.7716 H   0  0  0  0  0  0  0  0  0  0  0  0
  152.1928  138.3504  155.5744 H   0  0  0  0  0  0  0  0  0  0  0  0
  152.1738  138.5248  153.8298 H   0  0  0  0  0  0  0  0  0  0  0  0
  151.3384  140.1784  156.9301 H   0  0  0  0  0  0  0  0  0  0  0  0
  150.7431  141.6120  156.1144 H   0  0  0  0  0  0  0  0  0  0  0  0
  148.8113  140.3791  155.2024 H   0  0  0  0  0  0  0  0  0  0  0  0
  148.8481  140.2034  156.9490 H   0  0  0  0  0  0  0  0  0  0  0  0
  149.9883  138.1348  156.6559 H   0  0  0  0  0  0  0  0  0  0  0  0
  1  2  1  0  0  0  0
  1 25  1  0  0  0  0
  1 26  1  0  0  0  0
  1 27  1  0  0  0  0
  2  7  1  0  0  0  0
  2  3  2  0  0  0  0
  3  4  1  0  0  0  0
  3 28  1  0  0  0  0
  4  5  2  0  0  0  0
  4 29  1  0  0  0  0
  5  6  1  0  0  0  0
  5 30  1  0  0  0  0
  6  7  2  0  0  0  0
  7  8  1  0  0  0  0
  8  9  1  0  0  0  0
  8 31  1  0  0  0  0
  9 10  2  0  0  0  0
  9 11  1  0  0  0  0
 11 12  1  0  0  0  0
 11 32  1  0  0  0  0
 12 13  1  0  0  0  0
 12 33  1  0  0  0  0
 12 34  1  0  0  0  0
 13 14  1  0  0  0  0
 13 19  1  0  0  0  0
 13 35  1  0  0  0  0
 14 18  1  0  0  0  0
 14 15  1  0  0  0  0
 14 36  1  0  0  0  0
 15 16  1  0  0  0  0
 15 37  1  0  0  0  0
 15 38  1  0  0  0  0
 16 17  1  0  0  0  0
 16 39  1  0  0  0  0
 16 40  1  0  0  0  0
 17 18  1  0  0  0  0
 18 41  1  0  0  0  0
 18 42  1  0  0  0  0
 19 24  1  0  0  0  0
 19 20  1  0  0  0  0
 19 51  1  0  0  0  0
 20 21  1  0  0  0  0
 20 43  1  0  0  0  0
 20 44  1  0  0  0  0
 21 22  1  0  0  0  0
 21 45  1  0  0  0  0
 21 46  1  0  0  0  0
 22 23  1  0  0  0  0
 23 24  1  0  0  0  0
 23 47  1  0  0  0  0
 23 48  1  0  0  0  0
 24 49  1  0  0  0  0
 24 50  1  0  0  0  0
M  CHG  1  19   1
M  END
> <s_m_source_file>
AV-unprocessed.smi

> <i_m_source_file_index>
1734

> <i_lp_mmshare_version>
43012

> <i_f3d_flags>
0

> <s_epik_input>
W0NIM11jMVtjSF1bY0hdW2NIXW5jMVtOSF1DKD1PKVtOSF1bQ0gyXVtDQEhdKFtDQEBIXTJbQ0gyXVtDSDJdT1tDSDJdMilOM1tDSDJdW0NIMl1PW0NIMl1bQ0gyXTM=

> <s_epik_cmdline>
J2VwaWtfcHl0aG9uJywgJy1waCcsICc3LjAnLCAnLXRuJywgJzgnLCAnLW1hJywgJzIwMCcsICctbWV0YWxfYmluZGluZycsICctaW1hZScsICc8aW5maWxlLm1hZT4nLCAnLW9tYWUnLCAnPG91dGZpbGUubWFlPic=

> <r_epik_Ionization_Penalty>
0.983302

> <r_epik_Ionization_Penalty_Charging>
0.98326

> <r_epik_Ionization_Penalty_Neutral>
4.21967e-05

> <r_epik_State_Penalty>
1.0303

> <r_epik_Charging_Adjusted_Penalty>
2.01356

> <i_epik_Tot_Q>
1

> <i_epik_Tot_abs_Q>
1

> <r_epik_Metal_State_Penalty>
1.03031

> <b_epik_Metal_Only>
0

> <s_lp_Force_Field>
OPLS_2005

> <r_lp_Energy>
41.1253

> <b_lp_Chiralities_Consistent>
1

> <s_lp_Variant>
AV-unprocessed.smi:1734-7

> <Gold.Version>
5.8.1

> <Gold.Id.Protein>
6NUR|6NUR_protein|mol2

> <Gold.PLP.Fitness>
42.8587

> <Gold.PLP.PLP>
-30.5690

> <Gold.PLP.part.hbond>
-3.8769

> <Gold.PLP.part.metal>
0.0000

> <Gold.PLP.part.buried>
-5.0528

> <Gold.PLP.part.nonpolar>
-22.0838

> <Gold.PLP.part.repulsive>
0.2405

> <Gold.PLP.ligand.clash>
0.0000

> <Gold.PLP.ligand.torsion>
1.2599

> <Gold.PLP.Chemscore.Hbond>
3.7840

> <Gold.PLP.Chemscore.CHOScore>
1.0000

> <Gold.PLP.Chemscore.Metal>
0.0000

> <Gold.Chemscore.Hbonds>
donor molecule, donor type, donor heavy atom, donor atom, acceptor molecule, acceptor atom, score
      L1  H     8    31       P1  7948  1.00
      L1  H    11    32       P1  7948  1.00
      P1  H  6934  6947       L1    17  0.59
      P1  H  7989  7998       L1    22  1.00
      L1  C     5    30       P1 10186  1.00

> <Gold.PLP.Chemscore.Internal.Correction>
0.4575

> <Gold.Rescore>
     Score         DG    S(hbond)    S(metal)    S(lipo)     H(rot)  DE(clash)    DE(int)     intcor
     19.37     -20.71       3.61        0.00      64.25       1.70       0.04       1.30       ----

> <Gold.Chemscore.Fitness>
19.3729

> <Gold.Chemscore.DG>
-20.7116

> <Gold.Chemscore.ZeroCoef>
-5.4800

> <Gold.Chemscore.Hbond>
3.6116

> <Gold.Chemscore.Metal>
0.0000

> <Gold.Chemscore.Lipo>
64.2516

> <Gold.Chemscore.Internal_Hbond>
0.0000

> <Gold.Chemscore.DEClash>
0.0354

> <Gold.Chemscore.DEInternal>
1.3033

> <Gold.Chemscore.Rot>
1.6986

> <Gold.Chemscore.Internal.Correction>
   9.000000E+99

> <Gold.Chemscore.Hbonds>
donor molecule, donor type, donor heavy atom, donor atom, acceptor molecule, acceptor atom, score
      L1  H     8    31       P1  7948  0.99
      L1  H    11    32       P1  7948  0.98
      P1  H  6934  6947       L1    17  0.07
      P1  H  7989  7998       L1    22  0.76

> <Gold.Chemscore.Hbond.Weighted>
-12.0627

> <Gold.Chemscore.Metal.Weighted>
-0.0000

> <Gold.Chemscore.Lipo.Weighted>
-7.5174

> <Gold.Chemscore.Internal_Hbond.Weighted>
0.0000

> <Gold.Chemscore.DEClash.Weighted>
0.0354

> <Gold.Chemscore.DEInternal.Weighted>
1.3033

> <Gold.Chemscore.Rot.Weighted>
4.3485

> <Gold.Chemscore.Internal.Correction.Weighted>
   9.000000E+99

> <Gold.Protein.RotatedTorsions>
[ 6907 6896 6895 6894 ] final   69.37 input  -60.11 | X-H torsion
[ 7974 7965 7964 7962 ] final   40.39 input  175.53 | X-H torsion
[ 8008 7997 7996 7995 ] final  123.66 input   59.86 | X-H torsion
[ 10167 10162 10161 10158 ] final  -75.44 input  -65.29 | X-H torsion
[ 10718 10713 10712 10709 ] final  -98.15 input   66.30 | X-H torsion
[ 10763 10752 10751 10750 ] final -125.03 input  -60.55 | X-H torsion
[ 11005 11000 10999 10996 ] final  -27.21 input  -57.11 | X-H torsion

> <Gold.Protein.ActiveResidues>
 VAL166  LYS551  ARG553  GLY616  TRP617  ASP618  TYR619  PRO620  LYS621  CYS622 
 ASP623  PHE694  ASN695  SER759  ASP760  ASP761  ALA762  ILE779  LEU786  VAL792 
 PHE793  MET794  SER795  GLU796  ALA797  LYS798  CYS799  TRP800  GLU811  SER814 

> <Gold.Protein.RotatedAtoms>
  152.4681  134.5026  159.9729 H   0  0  0  0  0  0  0  0  0  0  0  0  # atno 6907 bound_to 6896
  151.5059  133.3489  159.2884 H   0  0  0  0  0  0  0  0  0  0  0  0  # atno 6908 bound_to 6896
  150.8677  134.8072  159.7193 H   0  0  0  0  0  0  0  0  0  0  0  0  # atno 6909 bound_to 6896
  146.0909  139.5539  142.9476 H   0  0  0  0  0  0  0  0  0  0  0  0  # atno 7974 bound_to 7965
  156.2774  140.2757  156.1664 H   0  0  0  0  0  0  0  0  0  0  0  0  # atno 8008 bound_to 7997
  155.0700  140.0387  157.2623 H   0  0  0  0  0  0  0  0  0  0  0  0  # atno 8009 bound_to 7997
  154.7047  140.2656  155.6691 H   0  0  0  0  0  0  0  0  0  0  0  0  # atno 8010 bound_to 7997
  140.4942  143.2374  151.7858 H   0  0  0  0  0  0  0  0  0  0  0  0  # atno 10167 bound_to 10162
  156.0100  130.5225  150.6481 H   0  0  0  0  0  0  0  0  0  0  0  0  # atno 10718 bound_to 10713
  154.8731  135.4043  154.3203 H   0  0  0  0  0  0  0  0  0  0  0  0  # atno 10763 bound_to 10752
  153.4032  135.7018  153.6417 H   0  0  0  0  0  0  0  0  0  0  0  0  # atno 10764 bound_to 10752
  153.5150  135.3699  155.2576 H   0  0  0  0  0  0  0  0  0  0  0  0  # atno 10765 bound_to 10752
  140.9099  133.7468  156.0656 H   0  0  0  0  0  0  0  0  0  0  0  0  # atno 11005 bound_to 11000
  145.6041  141.0350  143.2002 LP  0  0  0  0  0  0  0  0  0  0  0  0  # atno 17320 bound_to 7965
  144.7359  139.7587  143.7329 LP  0  0  0  0  0  0  0  0  0  0  0  0  # atno 17321 bound_to 7965
  139.4857  144.4609  151.9542 LP  0  0  0  0  0  0  0  0  0  0  0  0  # atno 17342 bound_to 10162
  140.3696  144.2872  150.5922 LP  0  0  0  0  0  0  0  0  0  0  0  0  # atno 17343 bound_to 10162
  157.4248  131.0841  151.1096 LP  0  0  0  0  0  0  0  0  0  0  0  0  # atno 17370 bound_to 10713
  157.1687  130.6258  149.5634 LP  0  0  0  0  0  0  0  0  0  0  0  0  # atno 17371 bound_to 10713
  140.8124  134.3384  157.5408 LP  0  0  0  0  0  0  0  0  0  0  0  0  # atno 17394 bound_to 11000
  139.8755  134.9261  156.3393 LP  0  0  0  0  0  0  0  0  0  0  0  0  # atno 17395 bound_to 11000

$$$$
