AV-unprocessed.smi:2609|AV-procd|sdf|10207|dock7
  -GOLD-   2272014213D 1   1.00000     0.00000
 Structure written by MMmdl.
 24 25  0  0  0  0  0  0  0  0  2 V2000
  152.9972  137.7688  154.5714 O   0  0  0  0  0  0  0  0  0  0  0  0
  152.1973  138.6320  154.9265 C   0  0  0  0  0  0  0  0  0  0  0  0
  150.8847  138.7049  154.2857 C   0  0  0  0  0  0  0  0  0  0  0  0
  150.0270  139.6659  154.6984 C   0  0  0  0  0  0  0  0  0  0  0  0
  150.3607  140.5786  155.7091 N   0  0  0  0  0  0  0  0  0  0  0  0
  151.5196  140.4929  156.2554 C   0  0  0  0  0  0  0  0  0  0  0  0
  151.9049  141.4762  157.3580 C   0  0  0  0  0  0  0  0  0  0  0  0
  151.9558  140.8109  158.7454 C   0  0  0  0  0  0  0  0  0  0  0  0
  152.3068  141.8487  159.8241 C   0  0  0  0  0  0  0  0  0  0  0  0
  151.3664  142.9181  159.7977 O   0  0  0  0  0  0  0  0  0  0  0  0
  151.3677  143.6300  158.5639 C   0  0  0  0  0  0  0  0  0  0  0  0
  150.9636  142.6929  157.4139 C   0  0  0  0  0  0  0  0  0  0  0  0
  152.4663  139.5472  155.9045 N   0  5  0  0  0  0  0  0  0  0  0  0
  150.6096  138.0107  153.5054 H   0  0  0  0  0  0  0  0  0  0  0  0
  149.0437  139.7725  154.2657 H   0  0  0  0  0  0  0  0  0  0  0  0
  152.9072  141.8523  157.1430 H   0  0  0  0  0  0  0  0  0  0  0  0
  150.9922  140.3596  158.9869 H   0  0  0  0  0  0  0  0  0  0  0  0
  152.6903  140.0046  158.7529 H   0  0  0  0  0  0  0  0  0  0  0  0
  152.2849  141.3846  160.8103 H   0  0  0  0  0  0  0  0  0  0  0  0
  153.3165  142.2356  159.6781 H   0  0  0  0  0  0  0  0  0  0  0  0
  150.6639  144.4594  158.6350 H   0  0  0  0  0  0  0  0  0  0  0  0
  152.3524  144.0642  158.3844 H   0  0  0  0  0  0  0  0  0  0  0  0
  150.9874  143.2349  156.4676 H   0  0  0  0  0  0  0  0  0  0  0  0
  149.9323  142.3701  157.5647 H   0  0  0  0  0  0  0  0  0  0  0  0
  1  2  2  0  0  0  0
  2  3  1  0  0  0  0
  2 13  1  0  0  0  0
  3 14  1  0  0  0  0
  3  4  2  0  0  0  0
  4 15  1  0  0  0  0
  4  5  1  0  0  0  0
  5  6  2  0  0  0  0
  6  7  1  0  0  0  0
  6 13  1  0  0  0  0
  7 12  1  0  0  0  0
  7  8  1  0  0  0  0
  7 16  1  0  0  0  0
  8  9  1  0  0  0  0
  8 17  1  0  0  0  0
  8 18  1  0  0  0  0
  9 10  1  0  0  0  0
  9 19  1  0  0  0  0
  9 20  1  0  0  0  0
 10 11  1  0  0  0  0
 11 12  1  0  0  0  0
 11 21  1  0  0  0  0
 11 22  1  0  0  0  0
 12 23  1  0  0  0  0
 12 24  1  0  0  0  0
M  CHG  1  13  -1
M  END
> <s_m_source_file>
AV-unprocessed.smi

> <i_m_source_file_index>
2609

> <i_lp_mmshare_version>
43012

> <i_f3d_flags>
0

> <s_epik_input>
Tz1jMVtjSF1bY0hdW25IXWMobjEpW0NIXTJbQ0gyXVtDSDJdT1tDSDJdW0NIMl0y

> <s_epik_cmdline>
J2VwaWtfcHl0aG9uJywgJy1waCcsICc3LjAnLCAnLXRuJywgJzgnLCAnLW1hJywgJzIwMCcsICctbWV0YWxfYmluZGluZycsICctaW1hZScsICc8aW5maWxlLm1hZT4nLCAnLW9tYWUnLCAnPG91dGZpbGUubWFlPic=

> <r_lp_tautomer_probability>
0.839158

> <r_epik_Ionization_Penalty>
6.39496

> <r_epik_Ionization_Penalty_Charging>
1.06807e-07

> <r_epik_Ionization_Penalty_Neutral>
6.39496

> <r_epik_State_Penalty>
4.27873

> <r_epik_Charging_Adjusted_Penalty>
4.27873

> <i_epik_Tot_Q>
-1

> <i_epik_Tot_abs_Q>
1

> <r_epik_Metal_State_Penalty>
0.734171

> <b_epik_Metal_Only>
1

> <s_lp_Force_Field>
OPLS_2005

> <r_lp_Energy>
16.3076

> <b_lp_Chiralities_Consistent>
1

> <s_lp_Variant>
AV-unprocessed.smi:2609-3

> <Gold.Version>
5.8.1

> <Gold.Id.Protein>
6NUR|6NUR_protein|mol2

> <Gold.PLP.Fitness>
32.8906

> <Gold.PLP.PLP>
-26.7013

> <Gold.PLP.part.hbond>
-2.2887

> <Gold.PLP.part.metal>
0.0000

> <Gold.PLP.part.buried>
-5.6086

> <Gold.PLP.part.nonpolar>
-18.7907

> <Gold.PLP.part.repulsive>
0.1071

> <Gold.PLP.ligand.clash>
0.0000

> <Gold.PLP.ligand.torsion>
0.3101

> <Gold.PLP.Chemscore.Hbond>
2.2652

> <Gold.PLP.Chemscore.CHOScore>
0.0000

> <Gold.PLP.Chemscore.Metal>
0.0000

> <Gold.Chemscore.Hbonds>
donor molecule, donor type, donor heavy atom, donor atom, acceptor molecule, acceptor atom, score
      P1  H  7997  8009       L1    13  2.00
      P1  H 10752 10763       L1     1  0.27

> <Gold.PLP.Chemscore.Internal.Correction>
0.0139

> <Gold.Rescore>
     Score         DG    S(hbond)    S(metal)    S(lipo)     H(rot)  DE(clash)    DE(int)     intcor
     12.71     -14.36       1.17        0.00      64.39       1.00       1.44       0.21       ----

> <Gold.Chemscore.Fitness>
12.7069

> <Gold.Chemscore.DG>
-14.3558

> <Gold.Chemscore.ZeroCoef>
-5.4800

> <Gold.Chemscore.Hbond>
1.1682

> <Gold.Chemscore.Metal>
0.0000

> <Gold.Chemscore.Lipo>
64.3944

> <Gold.Chemscore.Internal_Hbond>
0.0000

> <Gold.Chemscore.DEClash>
1.4373

> <Gold.Chemscore.DEInternal>
0.2116

> <Gold.Chemscore.Rot>
1.0000

> <Gold.Chemscore.Internal.Correction>
   9.000000E+99

> <Gold.Chemscore.Hbonds>
donor molecule, donor type, donor heavy atom, donor atom, acceptor molecule, acceptor atom, score
      P1  H  7997  8009       L1    13  0.83
      P1  H 10752 10763       L1     1  0.26

> <Gold.Chemscore.Hbond.Weighted>
-3.9016

> <Gold.Chemscore.Metal.Weighted>
-0.0000

> <Gold.Chemscore.Lipo.Weighted>
-7.5341

> <Gold.Chemscore.Internal_Hbond.Weighted>
0.0000

> <Gold.Chemscore.DEClash.Weighted>
1.4373

> <Gold.Chemscore.DEInternal.Weighted>
0.2116

> <Gold.Chemscore.Rot.Weighted>
2.5600

> <Gold.Chemscore.Internal.Correction.Weighted>
   9.000000E+99

> <Gold.Protein.RotatedTorsions>
[ 6907 6896 6895 6894 ] final   75.65 input  -60.11 | X-H torsion
[ 7974 7965 7964 7962 ] final   81.71 input  175.53 | X-H torsion
[ 8008 7997 7996 7995 ] final -152.75 input   59.86 | X-H torsion
[ 10167 10162 10161 10158 ] final  140.09 input  -65.29 | X-H torsion
[ 10718 10713 10712 10709 ] final  127.03 input   66.30 | X-H torsion
[ 10763 10752 10751 10750 ] final   37.19 input  -60.55 | X-H torsion
[ 11005 11000 10999 10996 ] final -176.63 input  -57.11 | X-H torsion

> <Gold.Protein.ActiveResidues>
 VAL166  LYS551  ARG553  GLY616  TRP617  ASP618  TYR619  PRO620  LYS621  CYS622 
 ASP623  PHE694  ASN695  SER759  ASP760  ASP761  ALA762  ILE779  LEU786  VAL792 
 PHE793  MET794  SER795  GLU796  ALA797  LYS798  CYS799  TRP800  GLU811  SER814 

> <Gold.Protein.RotatedAtoms>
  152.5036  134.4088  159.9441 H   0  0  0  0  0  0  0  0  0  0  0  0  # atno 6907 bound_to 6896
  151.4055  133.3737  159.2745 H   0  0  0  0  0  0  0  0  0  0  0  0  # atno 6908 bound_to 6896
  150.9330  134.8765  159.7622 H   0  0  0  0  0  0  0  0  0  0  0  0  # atno 6909 bound_to 6896
  145.6345  139.2412  143.2065 H   0  0  0  0  0  0  0  0  0  0  0  0  # atno 7974 bound_to 7965
  155.6601  140.0721  157.2557 H   0  0  0  0  0  0  0  0  0  0  0  0  # atno 8008 bound_to 7997
  154.4144  140.1718  156.1818 H   0  0  0  0  0  0  0  0  0  0  0  0  # atno 8009 bound_to 7997
  155.9704  140.3362  155.6574 H   0  0  0  0  0  0  0  0  0  0  0  0  # atno 8010 bound_to 7997
  139.5059  144.6255  151.5947 H   0  0  0  0  0  0  0  0  0  0  0  0  # atno 10167 bound_to 10162
  157.5368  131.1097  150.8922 H   0  0  0  0  0  0  0  0  0  0  0  0  # atno 10718 bound_to 10713
  153.0047  135.6285  154.2105 H   0  0  0  0  0  0  0  0  0  0  0  0  # atno 10763 bound_to 10752
  154.1848  135.2811  155.3042 H   0  0  0  0  0  0  0  0  0  0  0  0  # atno 10764 bound_to 10752
  154.5806  135.5648  153.7241 H   0  0  0  0  0  0  0  0  0  0  0  0  # atno 10765 bound_to 10752
  140.4500  134.6352  157.4796 H   0  0  0  0  0  0  0  0  0  0  0  0  # atno 11005 bound_to 11000
  146.1330  140.7160  142.9403 LP  0  0  0  0  0  0  0  0  0  0  0  0  # atno 17320 bound_to 7965
  144.7181  140.4279  143.7029 LP  0  0  0  0  0  0  0  0  0  0  0  0  # atno 17321 bound_to 7965
  140.5971  143.9676  150.6361 LP  0  0  0  0  0  0  0  0  0  0  0  0  # atno 17342 bound_to 10162
  140.2876  143.3346  152.1093 LP  0  0  0  0  0  0  0  0  0  0  0  0  # atno 17343 bound_to 10162
  156.9487  130.5411  149.5282 LP  0  0  0  0  0  0  0  0  0  0  0  0  # atno 17370 bound_to 10713
  156.0465  130.5541  150.8893 LP  0  0  0  0  0  0  0  0  0  0  0  0  # atno 17371 bound_to 10713
  140.0013  134.6832  155.9525 LP  0  0  0  0  0  0  0  0  0  0  0  0  # atno 17394 bound_to 11000
  141.1668  133.6537  156.4509 LP  0  0  0  0  0  0  0  0  0  0  0  0  # atno 17395 bound_to 11000

$$$$
