AV-unprocessed.smi:23|AV-procd|sdf|174|dock2
  -GOLD-   2262015433D 1   1.00000     0.00000
 Structure written by MMmdl.
 53 56  0  0  0  0  0  0  0  0  1 V2000
  153.0036  131.2887  157.7850 C   0  0  0  0  0  0  0  0  0  0  0  0
  151.7491  131.0363  158.4071 O   0  0  0  0  0  0  0  0  0  0  0  0
  150.7027  130.4402  157.6330 C   0  0  2  0  0  0  0  0  0  0  0  0
  149.4957  130.5114  158.5904 C   0  0  0  0  0  0  0  0  0  0  0  0
  151.0493  128.9717  157.2752 C   0  0  0  0  0  0  0  0  0  0  0  0
  149.9720  128.3355  156.3788 C   0  0  0  0  0  0  0  0  0  0  0  0
  149.6943  129.2046  155.1408 C   0  0  0  0  0  0  0  0  0  0  0  0
  149.3840  130.5805  155.5306 N   0  0  0  0  0  0  0  0  0  0  0  0
  148.7686  131.3786  154.6228 C   0  0  0  0  0  0  0  0  0  0  0  0
  149.1044  132.6936  154.5369 N   0  0  0  0  0  0  0  0  0  0  0  0
  148.4927  133.4893  153.6547 C   0  0  0  0  0  0  0  0  0  0  0  0
  147.5387  133.1815  152.7742 N   0  0  0  0  0  0  0  0  0  0  0  0
  147.2056  131.8607  152.8461 C   0  0  0  0  0  0  0  0  0  0  0  0
  147.7623  130.8998  153.7370 C   0  0  0  0  0  0  0  0  0  0  0  0
  147.1727  129.6593  153.5231 N   0  0  0  0  0  0  0  0  0  0  0  0
  146.3054  129.8787  152.5728 C   0  0  0  0  0  0  0  0  0  0  0  0
  146.2798  131.1665  152.0863 N   0  0  0  0  0  0  0  0  0  0  0  0
  145.4025  131.6853  151.0774 C   0  0  0  0  0  0  0  0  0  0  0  0
  145.8159  132.8740  150.2038 C   0  0  0  0  0  0  0  0  0  0  0  0
  144.3648  133.4038  150.2157 C   0  0  0  0  0  0  0  0  0  0  0  0
  144.2206  134.9064  150.5020 C   0  0  0  0  0  0  0  0  0  0  0  0
  144.8302  135.6852  149.4923 O   0  0  0  0  0  0  0  0  0  0  0  0
  143.4894  133.0910  148.9813 C   0  0  0  0  0  0  0  0  0  0  0  0
  143.5870  134.0644  147.9615 O   0  0  0  0  0  0  0  0  0  0  0  0
  144.1584  132.4977  151.4503 C   0  0  0  0  0  0  0  0  0  0  0  0
  150.4062  131.2425  156.3418 C   0  0  0  0  0  0  0  0  0  0  0  0
  153.6856  131.6966  158.5309 H   0  0  0  0  0  0  0  0  0  0  0  0
  152.9259  132.0289  156.9894 H   0  0  0  0  0  0  0  0  0  0  0  0
  153.4669  130.3866  157.3887 H   0  0  0  0  0  0  0  0  0  0  0  0
  148.5857  130.1132  158.1426 H   0  0  0  0  0  0  0  0  0  0  0  0
  149.2855  131.5425  158.8767 H   0  0  0  0  0  0  0  0  0  0  0  0
  149.6844  129.9493  159.5056 H   0  0  0  0  0  0  0  0  0  0  0  0
  151.9928  128.9231  156.7337 H   0  0  0  0  0  0  0  0  0  0  0  0
  151.1852  128.3792  158.1806 H   0  0  0  0  0  0  0  0  0  0  0  0
  150.2880  127.3394  156.0678 H   0  0  0  0  0  0  0  0  0  0  0  0
  149.0499  128.1958  156.9431 H   0  0  0  0  0  0  0  0  0  0  0  0
  150.5646  129.2066  154.4832 H   0  0  0  0  0  0  0  0  0  0  0  0
  148.8647  128.7760  154.5768 H   0  0  0  0  0  0  0  0  0  0  0  0
  148.8145  134.5203  153.6535 H   0  0  0  0  0  0  0  0  0  0  0  0
  145.6617  129.0981  152.1940 H   0  0  0  0  0  0  0  0  0  0  0  0
  145.1307  130.8305  150.4571 H   0  0  0  0  0  0  0  0  0  0  0  0
  146.5110  133.5437  150.7133 H   0  0  0  0  0  0  0  0  0  0  0  0
  146.1938  132.5985  149.2189 H   0  0  0  0  0  0  0  0  0  0  0  0
  143.1721  135.1940  150.5867 H   0  0  0  0  0  0  0  0  0  0  0  0
  144.6890  135.1686  151.4511 H   0  0  0  0  0  0  0  0  0  0  0  0
  144.5550  136.5832  149.5976 H   0  0  0  0  0  0  0  0  0  0  0  0
  143.7654  132.1295  148.5471 H   0  0  0  0  0  0  0  0  0  0  0  0
  142.4373  133.0173  149.2576 H   0  0  0  0  0  0  0  0  0  0  0  0
  144.4967  134.1601  147.7237 H   0  0  0  0  0  0  0  0  0  0  0  0
  143.2312  131.9236  151.4495 H   0  0  0  0  0  0  0  0  0  0  0  0
  144.2822  133.0293  152.3953 H   0  0  0  0  0  0  0  0  0  0  0  0
  150.1242  132.2636  156.5976 H   0  0  0  0  0  0  0  0  0  0  0  0
  151.2983  131.3146  155.7201 H   0  0  0  0  0  0  0  0  0  0  0  0
  1  2  1  0  0  0  0
  1 27  1  0  0  0  0
  1 28  1  0  0  0  0
  1 29  1  0  0  0  0
  2  3  1  0  0  0  0
  3 26  1  0  0  0  0
  3  4  1  0  0  0  0
  3  5  1  0  0  0  0
  4 30  1  0  0  0  0
  4 31  1  0  0  0  0
  4 32  1  0  0  0  0
  5  6  1  0  0  0  0
  5 33  1  0  0  0  0
  5 34  1  0  0  0  0
  6  7  1  0  0  0  0
  6 35  1  0  0  0  0
  6 36  1  0  0  0  0
  7  8  1  0  0  0  0
  7 37  1  0  0  0  0
  7 38  1  0  0  0  0
  8  9  1  0  0  0  0
  8 26  1  0  0  0  0
  9 14  1  0  0  0  0
  9 10  2  0  0  0  0
 10 11  1  0  0  0  0
 11 12  2  0  0  0  0
 11 39  1  0  0  0  0
 12 13  1  0  0  0  0
 13 17  1  0  0  0  0
 13 14  2  0  0  0  0
 14 15  1  0  0  0  0
 15 16  2  0  0  0  0
 16 17  1  0  0  0  0
 16 40  1  0  0  0  0
 17 18  1  0  0  0  0
 18 25  1  0  0  0  0
 18 19  1  0  0  0  0
 18 41  1  0  0  0  0
 19 20  1  0  0  0  0
 19 42  1  0  0  0  0
 19 43  1  0  0  0  0
 20 21  1  0  0  0  0
 20 23  1  0  0  0  0
 20 25  1  0  0  0  0
 21 22  1  0  0  0  0
 21 44  1  0  0  0  0
 21 45  1  0  0  0  0
 22 46  1  0  0  0  0
 23 24  1  0  0  0  0
 23 47  1  0  0  0  0
 23 48  1  0  0  0  0
 24 49  1  0  0  0  0
 25 50  1  0  0  0  0
 25 51  1  0  0  0  0
 26 52  1  0  0  0  0
 26 53  1  0  0  0  0
M  END
> <s_m_source_file>
AV-unprocessed.smi

> <i_m_source_file_index>
23

> <i_lp_mmshare_version>
43012

> <i_f3d_flags>
0

> <s_epik_input>
W0NIM11PW0NAQF0xKFtDSDNdKVtDSDJdW0NIMl1bQ0gyXU4oW0NIMl0xKWMobltjSF1uMiljKGMyMyluW2NIXW4zW0NIXShbQ0gyXTQpW0NIMl1DNChbQ0gyXVtPSF0pW0NIMl1bT0hd

> <s_epik_cmdline>
J2VwaWtfcHl0aG9uJywgJy1waCcsICc3LjAnLCAnLXRuJywgJzgnLCAnLW1hJywgJzIwMCcsICctbWV0YWxfYmluZGluZycsICctaW1hZScsICc8aW5maWxlLm1hZT4nLCAnLW9tYWUnLCAnPG91dGZpbGUubWFlPic=

> <r_lp_tautomer_probability>
1

> <r_epik_Ionization_Penalty>
0.00233978

> <r_epik_Ionization_Penalty_Charging>
0

> <r_epik_Ionization_Penalty_Neutral>
0.00233978

> <r_epik_State_Penalty>
0.00146422

> <r_epik_Charging_Adjusted_Penalty>
0.00146422

> <i_epik_Tot_Q>
0

> <i_epik_Tot_abs_Q>
0

> <r_epik_Metal_State_Penalty>
-0

> <b_epik_Metal_Only>
0

> <s_lp_Force_Field>
OPLS_2005

> <r_lp_Energy>
49.2291

> <b_lp_Chiralities_Consistent>
1

> <s_lp_Variant>
AV-unprocessed.smi:23-2

> <Gold.Version>
5.8.1

> <Gold.Id.Protein>
6NUR|6NUR_protein|mol2

> <Gold.PLP.Fitness>
52.2384

> <Gold.PLP.PLP>
-39.0563

> <Gold.PLP.part.hbond>
-6.6324

> <Gold.PLP.part.metal>
0.0000

> <Gold.PLP.part.buried>
-1.6597

> <Gold.PLP.part.nonpolar>
-31.6291

> <Gold.PLP.part.repulsive>
0.3630

> <Gold.PLP.ligand.clash>
0.0000

> <Gold.PLP.ligand.torsion>
1.3427

> <Gold.PLP.Chemscore.Hbond>
3.9913

> <Gold.PLP.Chemscore.CHOScore>
1.0000

> <Gold.PLP.Chemscore.Metal>
0.0000

> <Gold.Chemscore.Hbonds>
donor molecule, donor type, donor heavy atom, donor atom, acceptor molecule, acceptor atom, score
      L1  H    22    46       P1 10171  0.83
      L1  H    24    49       P1  7921  1.00
      P1  H  6896  6908       L1     2  0.04
      P1  H 10192 10197       L1    24  0.88
      L1  C    11    39       P1  7948  1.00

> <Gold.PLP.Chemscore.Internal.Correction>
0.8939

> <Gold.Rescore>
     Score         DG    S(hbond)    S(metal)    S(lipo)     H(rot)  DE(clash)    DE(int)     intcor
     13.54     -17.90       3.48        0.00      80.89       3.38       2.05       2.30       ----

> <Gold.Chemscore.Fitness>
13.5442

> <Gold.Chemscore.DG>
-17.8958

> <Gold.Chemscore.ZeroCoef>
-5.4800

> <Gold.Chemscore.Hbond>
3.4771

> <Gold.Chemscore.Metal>
0.0000

> <Gold.Chemscore.Lipo>
80.8944

> <Gold.Chemscore.Internal_Hbond>
0.0000

> <Gold.Chemscore.DEClash>
2.0498

> <Gold.Chemscore.DEInternal>
2.3018

> <Gold.Chemscore.Rot>
3.3837

> <Gold.Chemscore.Internal.Correction>
   9.000000E+99

> <Gold.Chemscore.Hbonds>
donor molecule, donor type, donor heavy atom, donor atom, acceptor molecule, acceptor atom, score
      L1  H    22    46       P1 10171  0.82
      L1  H    24    49       P1  7921  1.00
      P1  H  6896  6908       L1     2  0.01
      P1  H 10192 10197       L1    24  0.85

> <Gold.Chemscore.Hbond.Weighted>
-11.6134

> <Gold.Chemscore.Metal.Weighted>
-0.0000

> <Gold.Chemscore.Lipo.Weighted>
-9.4646

> <Gold.Chemscore.Internal_Hbond.Weighted>
0.0000

> <Gold.Chemscore.DEClash.Weighted>
2.0498

> <Gold.Chemscore.DEInternal.Weighted>
2.3018

> <Gold.Chemscore.Rot.Weighted>
8.6622

> <Gold.Chemscore.Internal.Correction.Weighted>
   9.000000E+99

> <Gold.Protein.RotatedTorsions>
[ 6907 6896 6895 6894 ] final   64.03 input  -60.11 | X-H torsion
[ 7974 7965 7964 7962 ] final   -6.35 input  175.53 | X-H torsion
[ 8008 7997 7996 7995 ] final  -53.33 input   59.86 | X-H torsion
[ 10167 10162 10161 10158 ] final   78.94 input  -65.29 | X-H torsion
[ 10718 10713 10712 10709 ] final -168.15 input   66.30 | X-H torsion
[ 10763 10752 10751 10750 ] final  114.28 input  -60.55 | X-H torsion
[ 11005 11000 10999 10996 ] final -110.11 input  -57.11 | X-H torsion

> <Gold.Protein.ActiveResidues>
 VAL166  LYS551  ARG553  GLY616  TRP617  ASP618  TYR619  PRO620  LYS621  CYS622 
 ASP623  PHE694  ASN695  SER759  ASP760  ASP761  ALA762  ILE779  LEU786  VAL792 
 PHE793  MET794  SER795  GLU796  ALA797  LYS798  CYS799  TRP800  GLU811  SER814 

> <Gold.Protein.RotatedAtoms>
  152.4300  134.5796  159.9943 H   0  0  0  0  0  0  0  0  0  0  0  0  # atno 6907 bound_to 6896
  151.5922  133.3359  159.3038 H   0  0  0  0  0  0  0  0  0  0  0  0  # atno 6908 bound_to 6896
  150.8192  134.7427  159.6822 H   0  0  0  0  0  0  0  0  0  0  0  0  # atno 6909 bound_to 6896
  146.2333  140.2158  142.8336 H   0  0  0  0  0  0  0  0  0  0  0  0  # atno 7974 bound_to 7965
  154.4130  140.1202  156.5137 H   0  0  0  0  0  0  0  0  0  0  0  0  # atno 8008 bound_to 7997
  155.6773  140.3496  155.4822 H   0  0  0  0  0  0  0  0  0  0  0  0  # atno 8009 bound_to 7997
  155.9581  140.1118  157.0909 H   0  0  0  0  0  0  0  0  0  0  0  0  # atno 8010 bound_to 7997
  139.9656  144.5930  150.8032 H   0  0  0  0  0  0  0  0  0  0  0  0  # atno 10167 bound_to 10162
  156.6927  130.9166  151.3071 H   0  0  0  0  0  0  0  0  0  0  0  0  # atno 10718 bound_to 10713
  153.5049  135.3630  155.2558 H   0  0  0  0  0  0  0  0  0  0  0  0  # atno 10763 bound_to 10752
  154.8745  135.4009  154.3436 H   0  0  0  0  0  0  0  0  0  0  0  0  # atno 10764 bound_to 10752
  153.4078  135.7077  153.6447 H   0  0  0  0  0  0  0  0  0  0  0  0  # atno 10765 bound_to 10752
  141.0810  133.9220  157.2288 H   0  0  0  0  0  0  0  0  0  0  0  0  # atno 11005 bound_to 11000
  144.9671  140.8332  143.5478 LP  0  0  0  0  0  0  0  0  0  0  0  0  # atno 17320 bound_to 7965
  145.2135  139.2193  143.5130 LP  0  0  0  0  0  0  0  0  0  0  0  0  # atno 17321 bound_to 7965
  140.7539  143.3017  151.3064 LP  0  0  0  0  0  0  0  0  0  0  0  0  # atno 17342 bound_to 10162
  139.6520  144.0344  152.2633 LP  0  0  0  0  0  0  0  0  0  0  0  0  # atno 17343 bound_to 10162
  157.7003  130.9325  150.0764 LP  0  0  0  0  0  0  0  0  0  0  0  0  # atno 17370 bound_to 10713
  156.1786  130.3649  149.9067 LP  0  0  0  0  0  0  0  0  0  0  0  0  # atno 17371 bound_to 10713
  139.9624  135.0151  156.9297 LP  0  0  0  0  0  0  0  0  0  0  0  0  # atno 17394 bound_to 11000
  140.5468  134.0666  155.7357 LP  0  0  0  0  0  0  0  0  0  0  0  0  # atno 17395 bound_to 11000

$$$$
