AV-unprocessed.smi:1648|AV-procd|sdf|6633|dock9
  -GOLD-   22720 7333D 1   1.00000     0.00000
 Structure written by MMmdl.
 41 41  0  0  0  0  0  0  0  0  1 V2000
  150.6173  135.6506  155.7320 C   0  0  0  0  0  0  0  0  0  0  0  0
  149.4498  136.6319  155.8529 C   0  0  0  0  0  0  0  0  0  0  0  0
  149.2172  137.1628  156.9364 O   0  0  0  0  0  0  0  0  0  0  0  0
  148.6948  136.8939  154.7715 N   0  0  0  0  0  0  0  0  0  0  0  0
  147.5428  137.7962  154.6852 C   0  0  2  0  0  0  0  0  0  0  0  0
  146.3372  137.0055  154.1420 C   0  0  0  0  0  0  0  0  0  0  0  0
  145.2439  137.0619  154.7072 O   0  0  0  0  0  0  0  0  0  0  0  0
  146.5612  136.2649  153.0454 N   0  0  0  0  0  0  0  0  0  0  0  0
  145.5696  135.4423  152.3600 C   0  0  1  0  0  0  0  0  0  0  0  0
  145.3526  135.9599  150.9254 C   0  0  0  0  0  0  0  0  0  0  0  0
  146.0196  133.9686  152.4141 C   0  0  0  0  0  0  0  0  0  0  0  0
  145.2949  133.1223  151.4850 N   0  0  0  0  0  0  0  0  0  0  0  0
  143.9202  132.9360  151.4160 C   0  0  0  0  0  0  0  0  0  0  0  0
  143.6946  132.0542  150.3833 C   0  0  0  0  0  0  0  0  0  0  0  0
  144.9079  131.6915  149.8031 N   0  0  0  0  0  0  0  0  0  0  0  0
  145.8091  132.3651  150.5062 C   0  0  0  0  0  0  0  0  0  0  0  0
  147.8911  138.9636  153.7147 C   0  0  0  0  0  0  0  0  0  0  0  0
  148.7940  140.0186  154.3845 C   0  0  0  0  0  0  0  0  0  0  0  0
  146.6417  139.6643  153.1404 C   0  0  0  0  0  0  0  0  0  0  0  0
  150.2605  134.6588  155.4537 H   0  0  0  0  0  0  0  0  0  0  0  0
  151.1429  135.5611  156.6834 H   0  0  0  0  0  0  0  0  0  0  0  0
  151.3355  135.9889  154.9850 H   0  0  0  0  0  0  0  0  0  0  0  0
  148.9330  136.4037  153.9214 H   0  0  0  0  0  0  0  0  0  0  0  0
  147.3106  138.2086  155.6687 H   0  0  0  0  0  0  0  0  0  0  0  0
  147.4912  136.2755  152.6522 H   0  0  0  0  0  0  0  0  0  0  0  0
  144.6222  135.5198  152.8970 H   0  0  0  0  0  0  0  0  0  0  0  0
  144.5621  135.4082  150.4162 H   0  0  0  0  0  0  0  0  0  0  0  0
  146.2613  135.8669  150.3299 H   0  0  0  0  0  0  0  0  0  0  0  0
  145.0605  137.0106  150.9231 H   0  0  0  0  0  0  0  0  0  0  0  0
  147.0850  133.8893  152.1919 H   0  0  0  0  0  0  0  0  0  0  0  0
  145.8793  133.5675  153.4190 H   0  0  0  0  0  0  0  0  0  0  0  0
  143.2354  133.4295  152.0899 H   0  0  0  0  0  0  0  0  0  0  0  0
  142.7600  131.6574  150.0153 H   0  0  0  0  0  0  0  0  0  0  0  0
  146.8690  132.3041  150.3061 H   0  0  0  0  0  0  0  0  0  0  0  0
  148.4500  138.5569  152.8697 H   0  0  0  0  0  0  0  0  0  0  0  0
  148.3147  140.4453  155.2661 H   0  0  0  0  0  0  0  0  0  0  0  0
  149.0157  140.8375  153.6995 H   0  0  0  0  0  0  0  0  0  0  0  0
  149.7513  139.6001  154.6957 H   0  0  0  0  0  0  0  0  0  0  0  0
  146.0083  140.0562  153.9368 H   0  0  0  0  0  0  0  0  0  0  0  0
  146.0357  138.9939  152.5310 H   0  0  0  0  0  0  0  0  0  0  0  0
  146.9219  140.5017  152.5003 H   0  0  0  0  0  0  0  0  0  0  0  0
  1  2  1  0  0  0  0
  1 20  1  0  0  0  0
  1 21  1  0  0  0  0
  1 22  1  0  0  0  0
  2  3  2  0  0  0  0
  2  4  1  0  0  0  0
  4  5  1  0  0  0  0
  4 23  1  0  0  0  0
  5  6  1  0  0  0  0
  5 17  1  0  0  0  0
  5 24  1  0  0  0  0
  6  7  2  0  0  0  0
  6  8  1  0  0  0  0
  8  9  1  0  0  0  0
  8 25  1  0  0  0  0
  9 10  1  0  0  0  0
  9 11  1  0  0  0  0
  9 26  1  0  0  0  0
 10 27  1  0  0  0  0
 10 28  1  0  0  0  0
 10 29  1  0  0  0  0
 11 12  1  0  0  0  0
 11 30  1  0  0  0  0
 11 31  1  0  0  0  0
 12 16  1  0  0  0  0
 12 13  1  0  0  0  0
 13 14  2  0  0  0  0
 13 32  1  0  0  0  0
 14 15  1  0  0  0  0
 14 33  1  0  0  0  0
 15 16  2  0  0  0  0
 16 34  1  0  0  0  0
 17 18  1  0  0  0  0
 17 19  1  0  0  0  0
 17 35  1  0  0  0  0
 18 36  1  0  0  0  0
 18 37  1  0  0  0  0
 18 38  1  0  0  0  0
 19 39  1  0  0  0  0
 19 40  1  0  0  0  0
 19 41  1  0  0  0  0
M  END
> <s_m_source_file>
AV-unprocessed.smi

> <i_m_source_file_index>
1648

> <i_lp_mmshare_version>
43012

> <i_f3d_flags>
0

> <s_epik_input>
W0NIM11DKD1PKVtOSF1bQ0BASF0oW0NIXShbQ0gzXSlbQ0gzXSlDKD1PKVtOSF1bQ0BIXShbQ0gzXSlbQ0gyXW4xW2NIXVtjSF1uW2NIXTE=

> <s_epik_cmdline>
J2VwaWtfcHl0aG9uJywgJy1waCcsICc3LjAnLCAnLXRuJywgJzgnLCAnLW1hJywgJzIwMCcsICctbWV0YWxfYmluZGluZycsICctaW1hZScsICc8aW5maWxlLm1hZT4nLCAnLW9tYWUnLCAnPG91dGZpbGUubWFlPic=

> <r_lp_tautomer_probability>
1

> <r_epik_Ionization_Penalty>
0.628885

> <r_epik_Ionization_Penalty_Charging>
0.628884

> <r_epik_Ionization_Penalty_Neutral>
4.35155e-07

> <r_epik_State_Penalty>
0.64556

> <r_epik_Charging_Adjusted_Penalty>
1.27444

> <i_epik_Tot_Q>
0

> <i_epik_Tot_abs_Q>
0

> <r_epik_Metal_State_Penalty>
0.30874

> <b_epik_Metal_Only>
0

> <s_lp_Force_Field>
OPLS_2005

> <r_lp_Energy>
9.63914

> <b_lp_Chiralities_Consistent>
1

> <s_lp_Variant>
AV-unprocessed.smi:1648-7

> <Gold.Version>
5.8.1

> <Gold.Id.Protein>
6NUR|6NUR_protein|mol2

> <Gold.PLP.Fitness>
39.3452

> <Gold.PLP.PLP>
-28.7585

> <Gold.PLP.part.hbond>
-2.5984

> <Gold.PLP.part.metal>
0.0000

> <Gold.PLP.part.buried>
-3.7986

> <Gold.PLP.part.nonpolar>
-24.0392

> <Gold.PLP.part.repulsive>
0.2087

> <Gold.PLP.ligand.clash>
0.0000

> <Gold.PLP.ligand.torsion>
0.7185

> <Gold.PLP.Chemscore.Hbond>
1.9750

> <Gold.PLP.Chemscore.CHOScore>
2.0000

> <Gold.PLP.Chemscore.Metal>
0.0000

> <Gold.Chemscore.Hbonds>
donor molecule, donor type, donor heavy atom, donor atom, acceptor molecule, acceptor atom, score
      L1  H     4    23       P1  7948  0.94
      L1  H     8    25       P1  7948  1.00
      L1  C    14    33       P1 10952  1.00
      L1  C    16    34       P1 10747  0.96

> <Gold.PLP.Chemscore.Internal.Correction>
0.0986

> <Gold.Rescore>
     Score         DG    S(hbond)    S(metal)    S(lipo)     H(rot)  DE(clash)    DE(int)     intcor
     11.35     -12.50       1.94        0.00      59.89       2.52       0.50       0.65       ----

> <Gold.Chemscore.Fitness>
11.3505

> <Gold.Chemscore.DG>
-12.5016

> <Gold.Chemscore.ZeroCoef>
-5.4800

> <Gold.Chemscore.Hbond>
1.9371

> <Gold.Chemscore.Metal>
0.0000

> <Gold.Chemscore.Lipo>
59.8896

> <Gold.Chemscore.Internal_Hbond>
0.0000

> <Gold.Chemscore.DEClash>
0.4968

> <Gold.Chemscore.DEInternal>
0.6542

> <Gold.Chemscore.Rot>
2.5216

> <Gold.Chemscore.Internal.Correction>
   9.000000E+99

> <Gold.Chemscore.Hbonds>
donor molecule, donor type, donor heavy atom, donor atom, acceptor molecule, acceptor atom, score
      L1  H     4    23       P1  7948  0.87
      L1  H     8    25       P1  7948  1.00

> <Gold.Chemscore.Hbond.Weighted>
-6.4698

> <Gold.Chemscore.Metal.Weighted>
-0.0000

> <Gold.Chemscore.Lipo.Weighted>
-7.0071

> <Gold.Chemscore.Internal_Hbond.Weighted>
0.0000

> <Gold.Chemscore.DEClash.Weighted>
0.4968

> <Gold.Chemscore.DEInternal.Weighted>
0.6542

> <Gold.Chemscore.Rot.Weighted>
6.4553

> <Gold.Chemscore.Internal.Correction.Weighted>
   9.000000E+99

> <Gold.Protein.RotatedTorsions>
[ 6907 6896 6895 6894 ] final  -33.97 input  -60.11 | X-H torsion
[ 7974 7965 7964 7962 ] final  -23.38 input  175.53 | X-H torsion
[ 8008 7997 7996 7995 ] final   94.61 input   59.86 | X-H torsion
[ 10167 10162 10161 10158 ] final -102.11 input  -65.29 | X-H torsion
[ 10718 10713 10712 10709 ] final  -17.37 input   66.30 | X-H torsion
[ 10763 10752 10751 10750 ] final  -69.60 input  -60.55 | X-H torsion
[ 11005 11000 10999 10996 ] final  -26.32 input  -57.11 | X-H torsion

> <Gold.Protein.ActiveResidues>
 VAL166  LYS551  ARG553  GLY616  TRP617  ASP618  TYR619  PRO620  LYS621  CYS622 
 ASP623  PHE694  ASN695  SER759  ASP760  ASP761  ALA762  ILE779  LEU786  VAL792 
 PHE793  MET794  SER795  GLU796  ALA797  LYS798  CYS799  TRP800  GLU811  SER814 

> <Gold.Protein.RotatedAtoms>
  151.0586  134.9721  159.8248 H   0  0  0  0  0  0  0  0  0  0  0  0  # atno 6907 bound_to 6896
  152.5392  134.2446  159.8885 H   0  0  0  0  0  0  0  0  0  0  0  0  # atno 6908 bound_to 6896
  151.2465  133.4329  159.2643 H   0  0  0  0  0  0  0  0  0  0  0  0  # atno 6909 bound_to 6896
  146.1620  140.4608  142.8567 H   0  0  0  0  0  0  0  0  0  0  0  0  # atno 7974 bound_to 7965
  156.0599  140.3297  155.7449 H   0  0  0  0  0  0  0  0  0  0  0  0  # atno 8008 bound_to 7997
  155.5471  140.0607  157.2875 H   0  0  0  0  0  0  0  0  0  0  0  0  # atno 8009 bound_to 7997
  154.4476  140.1900  156.0638 H   0  0  0  0  0  0  0  0  0  0  0  0  # atno 8010 bound_to 7997
  140.2341  143.3585  152.0860 H   0  0  0  0  0  0  0  0  0  0  0  0  # atno 10167 bound_to 10162
  156.5745  130.4758  149.6348 H   0  0  0  0  0  0  0  0  0  0  0  0  # atno 10718 bound_to 10713
  154.4057  135.6020  153.5923 H   0  0  0  0  0  0  0  0  0  0  0  0  # atno 10763 bound_to 10752
  152.9789  135.5917  154.4130 H   0  0  0  0  0  0  0  0  0  0  0  0  # atno 10764 bound_to 10752
  154.3935  135.2842  155.2118 H   0  0  0  0  0  0  0  0  0  0  0  0  # atno 10765 bound_to 10752
  140.9018  133.7519  156.0554 H   0  0  0  0  0  0  0  0  0  0  0  0  # atno 11005 bound_to 11000
  144.8039  140.6264  143.6459 LP  0  0  0  0  0  0  0  0  0  0  0  0  # atno 17320 bound_to 7965
  145.4565  139.1517  143.3890 LP  0  0  0  0  0  0  0  0  0  0  0  0  # atno 17321 bound_to 7965
  139.5100  144.6876  151.5846 LP  0  0  0  0  0  0  0  0  0  0  0  0  # atno 17342 bound_to 10162
  140.6163  143.9342  150.6491 LP  0  0  0  0  0  0  0  0  0  0  0  0  # atno 17343 bound_to 10162
  156.2686  130.7003  151.1794 LP  0  0  0  0  0  0  0  0  0  0  0  0  # atno 17370 bound_to 10713
  157.7341  131.0585  150.5544 LP  0  0  0  0  0  0  0  0  0  0  0  0  # atno 17371 bound_to 10713
  140.8220  134.3278  157.5378 LP  0  0  0  0  0  0  0  0  0  0  0  0  # atno 17394 bound_to 11000
  139.8743  134.9314  156.3528 LP  0  0  0  0  0  0  0  0  0  0  0  0  # atno 17395 bound_to 11000

$$$$
