AV-unprocessed.smi:3006|AV-procd|sdf|11444|dock9
  -GOLD-   2272016373D 1   1.00000     0.00000
 Structure written by MMmdl.
 45 46  0  0  0  0  0  0  0  0  2 V2000
  154.0368  141.0019  161.2869 C   0  0  0  0  0  0  0  0  0  0  0  0
  153.2495  141.6855  160.2221 C   0  0  0  0  0  0  0  0  0  0  0  0
  152.5179  141.0374  159.3118 N   0  0  0  0  0  0  0  0  0  0  0  0
  151.8680  141.9040  158.4272 C   0  0  0  0  0  0  0  0  0  0  0  0
  150.9933  141.3498  157.3442 C   0  0  0  0  0  0  0  0  0  0  0  0
  150.8470  142.3236  156.1637 C   0  0  0  0  0  0  0  0  0  0  0  0
  149.6119  142.0887  155.4246 N   0  0  0  0  0  0  0  0  0  0  0  0
  149.3911  141.0559  154.5938 C   0  0  0  0  0  0  0  0  0  0  0  0
  150.2362  140.1826  154.3947 O   0  0  0  0  0  0  0  0  0  0  0  0
  148.1594  141.0369  154.0254 N   0  0  0  0  0  0  0  0  0  0  0  0
  147.6827  140.1009  153.0019 C   0  0  0  0  0  0  0  0  0  0  0  0
  146.7336  139.0821  153.6592 C   0  0  0  0  0  0  0  0  0  0  0  0
  145.6051  139.7367  154.3905 N   0  3  0  0  0  0  0  0  0  0  0  0
  144.7018  138.7592  155.0803 C   0  0  0  0  0  0  0  0  0  0  0  0
  144.1837  137.6634  154.1260 C   0  0  0  0  0  0  0  0  0  0  0  0
  143.4897  139.4425  155.7481 C   0  0  0  0  0  0  0  0  0  0  0  0
  146.0737  140.8409  155.2827 C   0  0  0  0  0  0  0  0  0  0  0  0
  147.0387  141.8034  154.5677 C   0  0  0  0  0  0  0  0  0  0  0  0
  152.1250  143.2285  158.6804 C   0  0  0  0  0  0  0  0  0  0  0  0
  153.1907  143.4348  160.0432 S   0  0  0  0  0  0  0  0  0  0  0  0
  153.9718  139.9188  161.1783 H   0  0  0  0  0  0  0  0  0  0  0  0
  153.6526  141.2782  162.2687 H   0  0  0  0  0  0  0  0  0  0  0  0
  155.0841  141.2972  161.2235 H   0  0  0  0  0  0  0  0  0  0  0  0
  151.4026  140.4029  156.9899 H   0  0  0  0  0  0  0  0  0  0  0  0
  150.0075  141.1154  157.7482 H   0  0  0  0  0  0  0  0  0  0  0  0
  150.8308  143.3511  156.5283 H   0  0  0  0  0  0  0  0  0  0  0  0
  151.7070  142.2466  155.4958 H   0  0  0  0  0  0  0  0  0  0  0  0
  148.8691  142.7597  155.5569 H   0  0  0  0  0  0  0  0  0  0  0  0
  147.1511  140.6576  152.2286 H   0  0  0  0  0  0  0  0  0  0  0  0
  148.4813  139.5756  152.4779 H   0  0  0  0  0  0  0  0  0  0  0  0
  146.3531  138.4343  152.8710 H   0  0  0  0  0  0  0  0  0  0  0  0
  147.2943  138.4512  154.3510 H   0  0  0  0  0  0  0  0  0  0  0  0
  145.2787  138.2688  155.8661 H   0  0  0  0  0  0  0  0  0  0  0  0
  143.4453  137.0304  154.6195 H   0  0  0  0  0  0  0  0  0  0  0  0
  144.9772  136.9949  153.7931 H   0  0  0  0  0  0  0  0  0  0  0  0
  143.7082  138.0954  153.2448 H   0  0  0  0  0  0  0  0  0  0  0  0
  142.7932  138.7036  156.1453 H   0  0  0  0  0  0  0  0  0  0  0  0
  142.9405  140.0625  155.0387 H   0  0  0  0  0  0  0  0  0  0  0  0
  143.7802  140.0656  156.5937 H   0  0  0  0  0  0  0  0  0  0  0  0
  145.2302  141.4295  155.6401 H   0  0  0  0  0  0  0  0  0  0  0  0
  146.5626  140.4127  156.1596 H   0  0  0  0  0  0  0  0  0  0  0  0
  147.3588  142.5892  155.2537 H   0  0  0  0  0  0  0  0  0  0  0  0
  146.5230  142.3173  153.7550 H   0  0  0  0  0  0  0  0  0  0  0  0
  151.7511  144.0925  158.1511 H   0  0  0  0  0  0  0  0  0  0  0  0
  145.0445  140.1844  153.6796 H   0  0  0  0  0  0  0  0  0  0  0  0
  1  2  1  0  0  0  0
  1 21  1  0  0  0  0
  1 22  1  0  0  0  0
  1 23  1  0  0  0  0
  2 20  1  0  0  0  0
  2  3  2  0  0  0  0
  3  4  1  0  0  0  0
  4  5  1  0  0  0  0
  4 19  2  0  0  0  0
  5  6  1  0  0  0  0
  5 24  1  0  0  0  0
  5 25  1  0  0  0  0
  6  7  1  0  0  0  0
  6 26  1  0  0  0  0
  6 27  1  0  0  0  0
  7  8  1  0  0  0  0
  7 28  1  0  0  0  0
  8  9  2  0  0  0  0
  8 10  1  0  0  0  0
 10 18  1  0  0  0  0
 10 11  1  0  0  0  0
 11 12  1  0  0  0  0
 11 29  1  0  0  0  0
 11 30  1  0  0  0  0
 12 13  1  0  0  0  0
 12 31  1  0  0  0  0
 12 32  1  0  0  0  0
 13 14  1  0  0  0  0
 13 17  1  0  0  0  0
 13 45  1  0  0  0  0
 14 15  1  0  0  0  0
 14 16  1  0  0  0  0
 14 33  1  0  0  0  0
 15 34  1  0  0  0  0
 15 35  1  0  0  0  0
 15 36  1  0  0  0  0
 16 37  1  0  0  0  0
 16 38  1  0  0  0  0
 16 39  1  0  0  0  0
 17 18  1  0  0  0  0
 17 40  1  0  0  0  0
 17 41  1  0  0  0  0
 18 42  1  0  0  0  0
 18 43  1  0  0  0  0
 19 20  1  0  0  0  0
 19 44  1  0  0  0  0
M  CHG  1  13   1
M  END
> <s_m_source_file>
AV-unprocessed.smi

> <i_m_source_file_index>
3006

> <i_lp_mmshare_version>
43012

> <i_f3d_flags>
0

> <s_epik_input>
W0NIM11jMW5jKFtjSF1zMSlbQ0gyXVtDSDJdW05IXUMoPU8pTjJbQ0gyXVtDSDJdTihbQ0hdKFtDSDNdKVtDSDNdKVtDSDJdW0NIMl0y

> <s_epik_cmdline>
J2VwaWtfcHl0aG9uJywgJy1waCcsICc3LjAnLCAnLXRuJywgJzgnLCAnLW1hJywgJzIwMCcsICctbWV0YWxfYmluZGluZycsICctaW1hZScsICc8aW5maWxlLm1hZT4nLCAnLW9tYWUnLCAnPG91dGZpbGUubWFlPic=

> <r_epik_Ionization_Penalty>
0.155723

> <r_epik_Ionization_Penalty_Charging>
0.153999

> <r_epik_Ionization_Penalty_Neutral>
0.00172372

> <r_epik_State_Penalty>
0.139716

> <r_epik_Charging_Adjusted_Penalty>
0.293715

> <i_epik_Tot_Q>
1

> <i_epik_Tot_abs_Q>
1

> <r_epik_Metal_State_Penalty>
0.138566

> <b_epik_Metal_Only>
0

> <s_lp_Force_Field>
OPLS_2005

> <r_lp_Energy>
45.5874

> <b_lp_Chiralities_Consistent>
1

> <s_lp_Variant>
AV-unprocessed.smi:3006-1

> <Gold.Version>
5.8.1

> <Gold.Id.Protein>
6NUR|6NUR_protein|mol2

> <Gold.PLP.Fitness>
44.5098

> <Gold.PLP.PLP>
-35.7634

> <Gold.PLP.part.hbond>
-3.0000

> <Gold.PLP.part.metal>
0.0000

> <Gold.PLP.part.buried>
-0.6294

> <Gold.PLP.part.nonpolar>
-32.3886

> <Gold.PLP.part.repulsive>
0.2831

> <Gold.PLP.ligand.clash>
0.8305

> <Gold.PLP.ligand.torsion>
0.6739

> <Gold.PLP.Chemscore.Hbond>
3.6080

> <Gold.PLP.Chemscore.CHOScore>
0.0000

> <Gold.PLP.Chemscore.Metal>
0.0000

> <Gold.Chemscore.Hbonds>
donor molecule, donor type, donor heavy atom, donor atom, acceptor molecule, acceptor atom, score
      L1  H     7    28       P1  8028  0.64
      L1  H    13    45       P1 10175  2.00
      P1  H  7989  7998       L1     9  1.00

> <Gold.PLP.Chemscore.Internal.Correction>
0.1006

> <Gold.Rescore>
     Score         DG    S(hbond)    S(metal)    S(lipo)     H(rot)  DE(clash)    DE(int)     intcor
     18.86     -19.72       2.31        0.00      86.89       1.42       0.17       0.69       ----

> <Gold.Chemscore.Fitness>
18.8591

> <Gold.Chemscore.DG>
-19.7192

> <Gold.Chemscore.ZeroCoef>
-5.4800

> <Gold.Chemscore.Hbond>
2.3101

> <Gold.Chemscore.Metal>
0.0000

> <Gold.Chemscore.Lipo>
86.8928

> <Gold.Chemscore.Internal_Hbond>
0.0000

> <Gold.Chemscore.DEClash>
0.1708

> <Gold.Chemscore.DEInternal>
0.6892

> <Gold.Chemscore.Rot>
1.4230

> <Gold.Chemscore.Internal.Correction>
   9.000000E+99

> <Gold.Chemscore.Hbonds>
donor molecule, donor type, donor heavy atom, donor atom, acceptor molecule, acceptor atom, score
      L1  H     7    28       P1  8028  0.63
      L1  H    13    45       P1 10175  1.00
      P1  H  7989  7998       L1     9  0.72

> <Gold.Chemscore.Hbond.Weighted>
-7.7157

> <Gold.Chemscore.Metal.Weighted>
-0.0000

> <Gold.Chemscore.Lipo.Weighted>
-10.1665

> <Gold.Chemscore.Internal_Hbond.Weighted>
0.0000

> <Gold.Chemscore.DEClash.Weighted>
0.1708

> <Gold.Chemscore.DEInternal.Weighted>
0.6892

> <Gold.Chemscore.Rot.Weighted>
3.6430

> <Gold.Chemscore.Internal.Correction.Weighted>
   9.000000E+99

> <Gold.Protein.RotatedTorsions>
[ 6907 6896 6895 6894 ] final  120.07 input  -60.11 | X-H torsion
[ 7974 7965 7964 7962 ] final -136.21 input  175.53 | X-H torsion
[ 8008 7997 7996 7995 ] final  -50.28 input   59.86 | X-H torsion
[ 10167 10162 10161 10158 ] final -165.66 input  -65.29 | X-H torsion
[ 10718 10713 10712 10709 ] final  -93.03 input   66.30 | X-H torsion
[ 10763 10752 10751 10750 ] final  -82.86 input  -60.55 | X-H torsion
[ 11005 11000 10999 10996 ] final   23.91 input  -57.11 | X-H torsion

> <Gold.Protein.ActiveResidues>
 VAL166  LYS551  ARG553  GLY616  TRP617  ASP618  TYR619  PRO620  LYS621  CYS622 
 ASP623  PHE694  ASN695  SER759  ASP760  ASP761  ALA762  ILE779  LEU786  VAL792 
 PHE793  MET794  SER795  GLU796  ALA797  LYS798  CYS799  TRP800  GLU811  SER814 

> <Gold.Protein.RotatedAtoms>
  152.4425  133.7475  159.6675 H   0  0  0  0  0  0  0  0  0  0  0  0  # atno 6907 bound_to 6896
  150.8319  133.8067  159.3101 H   0  0  0  0  0  0  0  0  0  0  0  0  # atno 6908 bound_to 6896
  151.5718  135.1064  160.0048 H   0  0  0  0  0  0  0  0  0  0  0  0  # atno 6909 bound_to 6896
  144.8947  140.6690  143.5123 H   0  0  0  0  0  0  0  0  0  0  0  0  # atno 7974 bound_to 7965
  154.4059  140.1276  156.4640 H   0  0  0  0  0  0  0  0  0  0  0  0  # atno 8008 bound_to 7997
  155.7245  140.3492  155.5011 H   0  0  0  0  0  0  0  0  0  0  0  0  # atno 8009 bound_to 7997
  155.9184  140.1048  157.1216 H   0  0  0  0  0  0  0  0  0  0  0  0  # atno 8010 bound_to 7997
  139.6167  144.0706  152.1894 H   0  0  0  0  0  0  0  0  0  0  0  0  # atno 10167 bound_to 10162
  156.0008  130.5010  150.5714 H   0  0  0  0  0  0  0  0  0  0  0  0  # atno 10718 bound_to 10713
  154.5808  135.5576  153.7184 H   0  0  0  0  0  0  0  0  0  0  0  0  # atno 10763 bound_to 10752
  153.0081  135.6319  154.1985 H   0  0  0  0  0  0  0  0  0  0  0  0  # atno 10764 bound_to 10752
  154.1925  135.2881  155.2997 H   0  0  0  0  0  0  0  0  0  0  0  0  # atno 10765 bound_to 10752
  140.3644  134.2090  155.7670 H   0  0  0  0  0  0  0  0  0  0  0  0  # atno 11005 bound_to 11000
  145.3722  139.1656  143.4326 LP  0  0  0  0  0  0  0  0  0  0  0  0  # atno 17320 bound_to 7965
  146.3074  140.3794  142.8682 LP  0  0  0  0  0  0  0  0  0  0  0  0  # atno 17321 bound_to 7965
  140.0338  144.6060  150.7466 LP  0  0  0  0  0  0  0  0  0  0  0  0  # atno 17342 bound_to 10162
  140.7355  143.2742  151.3794 LP  0  0  0  0  0  0  0  0  0  0  0  0  # atno 17343 bound_to 10162
  157.3609  131.0749  151.1637 LP  0  0  0  0  0  0  0  0  0  0  0  0  # atno 17370 bound_to 10713
  157.2423  130.6575  149.5895 LP  0  0  0  0  0  0  0  0  0  0  0  0  # atno 17371 bound_to 10713
  141.1974  133.8060  157.0629 LP  0  0  0  0  0  0  0  0  0  0  0  0  # atno 17394 bound_to 11000
  140.0601  134.9759  157.1289 LP  0  0  0  0  0  0  0  0  0  0  0  0  # atno 17395 bound_to 11000

$$$$
