AV-unprocessed.smi:899|AV-procd|sdf|4088|dock2
  -GOLD-   22720 1573D 1   1.00000     0.00000
 Structure written by MMmdl.
 32 33  0  0  0  0  0  0  0  0  2 V2000
  151.4349  145.3657  159.5254 N   0  0  0  0  0  0  0  0  0  0  0  0
  151.8596  144.2895  159.5477 C   0  0  0  0  0  0  0  0  0  0  0  0
  152.3996  142.9216  159.5765 C   0  0  0  0  0  0  0  0  0  0  0  0
  152.0144  142.1313  158.3430 C   0  0  0  0  0  0  0  0  0  0  0  0
  152.4375  140.7956  158.2000 C   0  0  0  0  0  0  0  0  0  0  0  0
  152.0778  140.0598  157.0548 C   0  0  0  0  0  0  0  0  0  0  0  0
  151.2920  140.6421  156.0390 C   0  0  0  0  0  0  0  0  0  0  0  0
  150.9824  139.8481  154.9555 O   0  0  0  0  0  0  0  0  0  0  0  0
  150.9822  138.4382  155.1327 C   0  0  0  0  0  0  0  0  0  0  0  0
  149.8456  138.0653  156.0955 C   0  0  0  0  0  0  0  0  0  0  0  0
  149.7678  136.6124  156.2958 N   0  0  0  0  0  0  0  0  0  0  0  0
  149.6397  135.8038  155.1537 C   0  0  0  0  0  0  0  0  0  0  0  0
  149.5550  134.4616  155.2338 C   0  0  0  0  0  0  0  0  0  0  0  0
  149.3977  133.4924  153.8122 Cl  0  0  0  0  0  0  0  0  0  0  0  0
  149.5969  133.8497  156.5605 C   0  0  0  0  0  0  0  0  0  0  0  0
  149.5257  132.6264  156.6694 O   0  0  0  0  0  0  0  0  0  0  0  0
  149.7140  134.6799  157.6382 N   0  5  0  0  0  0  0  0  0  0  0  0
  149.7961  136.0424  157.5370 C   0  0  0  0  0  0  0  0  0  0  0  0
  149.8922  136.7714  158.5247 O   0  0  0  0  0  0  0  0  0  0  0  0
  150.8714  141.9880  156.1885 C   0  0  0  0  0  0  0  0  0  0  0  0
  151.2316  142.7252  157.3334 C   0  0  0  0  0  0  0  0  0  0  0  0
  153.4857  142.9803  159.6529 H   0  0  0  0  0  0  0  0  0  0  0  0
  152.0332  142.4258  160.4760 H   0  0  0  0  0  0  0  0  0  0  0  0
  153.0393  140.3323  158.9681 H   0  0  0  0  0  0  0  0  0  0  0  0
  152.4071  139.0359  156.9549 H   0  0  0  0  0  0  0  0  0  0  0  0
  150.8362  137.9380  154.1739 H   0  0  0  0  0  0  0  0  0  0  0  0
  151.9384  138.1125  155.5458 H   0  0  0  0  0  0  0  0  0  0  0  0
  149.9992  138.5676  157.0515 H   0  0  0  0  0  0  0  0  0  0  0  0
  148.8959  138.4511  155.7207 H   0  0  0  0  0  0  0  0  0  0  0  0
  149.6110  136.3385  154.2155 H   0  0  0  0  0  0  0  0  0  0  0  0
  150.2700  142.4786  155.4382 H   0  0  0  0  0  0  0  0  0  0  0  0
  150.9033  143.7494  157.4341 H   0  0  0  0  0  0  0  0  0  0  0  0
  1  2  3  0  0  0  0
  2  3  1  0  0  0  0
  3  4  1  0  0  0  0
  3 22  1  0  0  0  0
  3 23  1  0  0  0  0
  4 21  1  0  0  0  0
  4  5  2  0  0  0  0
  5  6  1  0  0  0  0
  5 24  1  0  0  0  0
  6  7  2  0  0  0  0
  6 25  1  0  0  0  0
  7  8  1  0  0  0  0
  7 20  1  0  0  0  0
  8  9  1  0  0  0  0
  9 10  1  0  0  0  0
  9 26  1  0  0  0  0
  9 27  1  0  0  0  0
 10 11  1  0  0  0  0
 10 28  1  0  0  0  0
 10 29  1  0  0  0  0
 11 18  1  0  0  0  0
 11 12  1  0  0  0  0
 12 13  2  0  0  0  0
 12 30  1  0  0  0  0
 13 14  1  0  0  0  0
 13 15  1  0  0  0  0
 15 16  2  0  0  0  0
 15 17  1  0  0  0  0
 17 18  1  0  0  0  0
 18 19  2  0  0  0  0
 20 21  2  0  0  0  0
 20 31  1  0  0  0  0
 21 32  1  0  0  0  0
M  CHG  1  17  -1
M  END
> <s_m_source_file>
AV-unprocessed.smi

> <i_m_source_file_index>
899

> <i_lp_mmshare_version>
43012

> <i_f3d_flags>
0

> <s_epik_input>
TiNDW0NIMl1jMVtjSF1bY0hdYyhbY0hdW2NIXTEpT1tDSDJdW0NIMl1uMltjSF1jKENsKWMoPU8pW25IXWMyPU8=

> <s_epik_cmdline>
J2VwaWtfcHl0aG9uJywgJy1waCcsICc3LjAnLCAnLXRuJywgJzgnLCAnLW1hJywgJzIwMCcsICctbWV0YWxfYmluZGluZycsICctaW1hZScsICc8aW5maWxlLm1hZT4nLCAnLW9tYWUnLCAnPG91dGZpbGUubWFlPic=

> <r_lp_tautomer_probability>
1

> <r_epik_Ionization_Penalty>
1.54028

> <r_epik_Ionization_Penalty_Charging>
7.31917e-09

> <r_epik_Ionization_Penalty_Neutral>
1.54028

> <r_epik_State_Penalty>
1.63364

> <r_epik_Charging_Adjusted_Penalty>
1.63364

> <i_epik_Tot_Q>
-1

> <i_epik_Tot_abs_Q>
1

> <r_epik_Metal_State_Penalty>
0.00867927

> <b_epik_Metal_Only>
0

> <s_lp_Force_Field>
OPLS_2005

> <r_lp_Energy>
21.9466

> <b_lp_Chiralities_Consistent>
1

> <s_lp_Variant>
AV-unprocessed.smi:899-2

> <Gold.Version>
5.8.1

> <Gold.Id.Protein>
6NUR|6NUR_protein|mol2

> <Gold.PLP.Fitness>
46.5282

> <Gold.PLP.PLP>
-35.7751

> <Gold.PLP.part.hbond>
-2.0239

> <Gold.PLP.part.metal>
0.0000

> <Gold.PLP.part.buried>
-6.3548

> <Gold.PLP.part.nonpolar>
-27.2886

> <Gold.PLP.part.repulsive>
0.1955

> <Gold.PLP.ligand.clash>
0.2537

> <Gold.PLP.ligand.torsion>
0.3838

> <Gold.PLP.Chemscore.Hbond>
2.9200

> <Gold.PLP.Chemscore.CHOScore>
1.0000

> <Gold.PLP.Chemscore.Metal>
0.0000

> <Gold.Chemscore.Hbonds>
donor molecule, donor type, donor heavy atom, donor atom, acceptor molecule, acceptor atom, score
      P1  H  6896  6908       L1    17  2.00
      P1  H  7989  7998       L1     8  1.00
      L1  C    12    30       P1  7948  1.00

> <Gold.PLP.Chemscore.Internal.Correction>
0.0144

> <Gold.Rescore>
     Score         DG    S(hbond)    S(metal)    S(lipo)     H(rot)  DE(clash)    DE(int)     intcor
     14.82     -15.22       1.63        0.00      85.88       2.25       0.01       0.38       ----

> <Gold.Chemscore.Fitness>
14.8176

> <Gold.Chemscore.DG>
-15.2161

> <Gold.Chemscore.ZeroCoef>
-5.4800

> <Gold.Chemscore.Hbond>
1.6304

> <Gold.Chemscore.Metal>
0.0000

> <Gold.Chemscore.Lipo>
85.8828

> <Gold.Chemscore.Internal_Hbond>
0.0000

> <Gold.Chemscore.DEClash>
0.0144

> <Gold.Chemscore.DEInternal>
0.3842

> <Gold.Chemscore.Rot>
2.2491

> <Gold.Chemscore.Internal.Correction>
   9.000000E+99

> <Gold.Chemscore.Hbonds>
donor molecule, donor type, donor heavy atom, donor atom, acceptor molecule, acceptor atom, score
      P1  H  6896  6908       L1    17  0.53
      P1  H  7989  7998       L1     8  0.35

> <Gold.Chemscore.Hbond.Weighted>
-5.4454

> <Gold.Chemscore.Metal.Weighted>
-0.0000

> <Gold.Chemscore.Lipo.Weighted>
-10.0483

> <Gold.Chemscore.Internal_Hbond.Weighted>
0.0000

> <Gold.Chemscore.DEClash.Weighted>
0.0144

> <Gold.Chemscore.DEInternal.Weighted>
0.3842

> <Gold.Chemscore.Rot.Weighted>
5.7576

> <Gold.Chemscore.Internal.Correction.Weighted>
   9.000000E+99

> <Gold.Protein.RotatedTorsions>
[ 6907 6896 6895 6894 ] final  142.55 input  -60.11 | X-H torsion
[ 7974 7965 7964 7962 ] final  -32.36 input  175.53 | X-H torsion
[ 8008 7997 7996 7995 ] final  146.97 input   59.86 | X-H torsion
[ 10167 10162 10161 10158 ] final   31.26 input  -65.29 | X-H torsion
[ 10718 10713 10712 10709 ] final   70.55 input   66.30 | X-H torsion
[ 10763 10752 10751 10750 ] final -113.54 input  -60.55 | X-H torsion
[ 11005 11000 10999 10996 ] final -109.43 input  -57.11 | X-H torsion

> <Gold.Protein.ActiveResidues>
 VAL166  LYS551  ARG553  GLY616  TRP617  ASP618  TYR619  PRO620  LYS621  CYS622 
 ASP623  PHE694  ASN695  SER759  ASP760  ASP761  ALA762  ILE779  LEU786  VAL792 
 PHE793  MET794  SER795  GLU796  ALA797  LYS798  CYS799  TRP800  GLU811  SER814 

> <Gold.Protein.RotatedAtoms>
  152.2173  133.4957  159.5142 H   0  0  0  0  0  0  0  0  0  0  0  0  # atno 6907 bound_to 6896
  150.7004  134.1388  159.4106 H   0  0  0  0  0  0  0  0  0  0  0  0  # atno 6908 bound_to 6896
  151.9308  135.0257  160.0580 H   0  0  0  0  0  0  0  0  0  0  0  0  # atno 6909 bound_to 6896
  146.0996  140.5783  142.8827 H   0  0  0  0  0  0  0  0  0  0  0  0  # atno 7974 bound_to 7965
  156.2839  140.2168  156.5462 H   0  0  0  0  0  0  0  0  0  0  0  0  # atno 8008 bound_to 7997
  154.7329  140.0494  157.0765 H   0  0  0  0  0  0  0  0  0  0  0  0  # atno 8009 bound_to 7997
  155.0331  140.3137  155.4754 H   0  0  0  0  0  0  0  0  0  0  0  0  # atno 8010 bound_to 7997
  140.4604  144.0915  150.6211 H   0  0  0  0  0  0  0  0  0  0  0  0  # atno 10167 bound_to 10162
  157.6406  130.9483  150.0666 H   0  0  0  0  0  0  0  0  0  0  0  0  # atno 10718 bound_to 10713
  154.8400  135.4450  154.1365 H   0  0  0  0  0  0  0  0  0  0  0  0  # atno 10763 bound_to 10752
  153.2561  135.6931  153.7633 H   0  0  0  0  0  0  0  0  0  0  0  0  # atno 10764 bound_to 10752
  153.6927  135.3384  155.3181 H   0  0  0  0  0  0  0  0  0  0  0  0  # atno 10765 bound_to 10752
  141.0848  133.9158  157.2209 H   0  0  0  0  0  0  0  0  0  0  0  0  # atno 11005 bound_to 11000
  144.7422  140.4972  143.6861 LP  0  0  0  0  0  0  0  0  0  0  0  0  # atno 17320 bound_to 7965
  145.5881  139.1493  143.3198 LP  0  0  0  0  0  0  0  0  0  0  0  0  # atno 17321 bound_to 7965
  140.4100  143.2661  151.9844 LP  0  0  0  0  0  0  0  0  0  0  0  0  # atno 17342 bound_to 10162
  139.4805  144.5924  151.7749 LP  0  0  0  0  0  0  0  0  0  0  0  0  # atno 17343 bound_to 10162
  156.1683  130.3645  149.9201 LP  0  0  0  0  0  0  0  0  0  0  0  0  # atno 17370 bound_to 10713
  156.7183  130.8997  151.3616 LP  0  0  0  0  0  0  0  0  0  0  0  0  # atno 17371 bound_to 10713
  139.9665  135.0140  156.9401 LP  0  0  0  0  0  0  0  0  0  0  0  0  # atno 17394 bound_to 11000
  140.5387  134.0741  155.7335 LP  0  0  0  0  0  0  0  0  0  0  0  0  # atno 17395 bound_to 11000

$$$$
