AV-unprocessed.smi:1066|AV-procd|sdf|4671|dock5
  -GOLD-   22720 3183D 1   1.00000     0.00000
 Structure written by MMmdl.
 38 40  0  0  0  0  0  0  0  0  2 V2000
  149.7823  135.0435  156.9736 C   0  0  0  0  0  0  0  0  0  0  0  0
  149.9001  133.5840  156.6404 C   0  0  0  0  0  0  0  0  0  0  0  0
  150.0477  132.7010  157.6198 N   0  0  0  0  0  0  0  0  0  0  0  0
  150.1299  131.4442  157.0091 O   0  0  0  0  0  0  0  0  0  0  0  0
  150.0226  131.6445  155.6758 C   0  0  0  0  0  0  0  0  0  0  0  0
  150.0873  130.3518  154.5439 Cl  0  0  0  0  0  0  0  0  0  0  0  0
  149.8755  132.9639  155.3569 C   0  0  0  0  0  0  0  0  0  0  0  0
  149.7291  133.6160  154.0056 C   0  0  0  0  0  0  0  0  0  0  0  0
  148.4058  133.1879  153.3724 C   0  0  0  0  0  0  0  0  0  0  0  0
  148.0072  132.0305  153.4974 O   0  0  0  0  0  0  0  0  0  0  0  0
  147.7294  134.1341  152.7042 N   0  0  0  0  0  0  0  0  0  0  0  0
  146.4328  133.9401  152.0670 C   0  0  1  0  0  0  0  0  0  0  0  0
  145.6814  135.2297  151.7504 C   0  0  0  0  0  0  0  0  0  0  0  0
  144.6941  134.7825  150.6669 C   0  0  0  0  0  0  0  0  0  0  0  0
  145.3208  133.6342  149.9655 N   0  3  2  0  0  0  0  0  0  0  0  0
  144.4129  132.4790  149.7931 C   0  0  0  0  0  0  0  0  0  0  0  0
  143.3294  132.4012  150.8423 C   0  0  0  0  0  0  0  0  0  0  0  0
  144.5133  131.4605  150.9035 C   0  0  0  0  0  0  0  0  0  0  0  0
  146.5702  133.3023  150.6852 C   0  0  0  0  0  0  0  0  0  0  0  0
  150.2572  135.6608  156.2106 H   0  0  0  0  0  0  0  0  0  0  0  0
  150.2575  135.2771  157.9270 H   0  0  0  0  0  0  0  0  0  0  0  0
  148.7366  135.3442  157.0399 H   0  0  0  0  0  0  0  0  0  0  0  0
  149.7573  134.7039  154.0792 H   0  0  0  0  0  0  0  0  0  0  0  0
  150.5484  133.3384  153.3411 H   0  0  0  0  0  0  0  0  0  0  0  0
  148.1357  135.0574  152.6518 H   0  0  0  0  0  0  0  0  0  0  0  0
  145.8087  133.2990  152.6934 H   0  0  0  0  0  0  0  0  0  0  0  0
  145.1856  135.6605  152.6209 H   0  0  0  0  0  0  0  0  0  0  0  0
  146.3655  135.9778  151.3461 H   0  0  0  0  0  0  0  0  0  0  0  0
  143.7586  134.4723  151.1355 H   0  0  0  0  0  0  0  0  0  0  0  0
  144.4598  135.5869  149.9693 H   0  0  0  0  0  0  0  0  0  0  0  0
  144.2155  132.1646  148.7694 H   0  0  0  0  0  0  0  0  0  0  0  0
  143.2766  133.1926  151.5881 H   0  0  0  0  0  0  0  0  0  0  0  0
  142.3719  131.9781  150.5453 H   0  0  0  0  0  0  0  0  0  0  0  0
  144.3348  130.4182  150.6466 H   0  0  0  0  0  0  0  0  0  0  0  0
  145.2472  131.6262  151.6905 H   0  0  0  0  0  0  0  0  0  0  0  0
  147.3997  133.7542  150.1387 H   0  0  0  0  0  0  0  0  0  0  0  0
  146.7582  132.2288  150.7378 H   0  0  0  0  0  0  0  0  0  0  0  0
  145.5863  133.9439  149.0413 H   0  0  0  0  0  0  0  0  0  0  0  0
  1  2  1  0  0  0  0
  1 20  1  0  0  0  0
  1 21  1  0  0  0  0
  1 22  1  0  0  0  0
  2  7  1  0  0  0  0
  2  3  2  0  0  0  0
  3  4  1  0  0  0  0
  4  5  1  0  0  0  0
  5  6  1  0  0  0  0
  5  7  2  0  0  0  0
  7  8  1  0  0  0  0
  8  9  1  0  0  0  0
  8 23  1  0  0  0  0
  8 24  1  0  0  0  0
  9 10  2  0  0  0  0
  9 11  1  0  0  0  0
 11 12  1  0  0  0  0
 11 25  1  0  0  0  0
 12 19  1  0  0  0  0
 12 13  1  0  0  0  0
 12 26  1  0  0  0  0
 13 14  1  0  0  0  0
 13 27  1  0  0  0  0
 13 28  1  0  0  0  0
 14 15  1  0  0  0  0
 14 29  1  0  0  0  0
 14 30  1  0  0  0  0
 15 16  1  0  0  0  0
 15 19  1  0  0  0  0
 15 38  1  0  0  0  0
 16 18  1  0  0  0  0
 16 17  1  0  0  0  0
 16 31  1  0  0  0  0
 17 18  1  0  0  0  0
 17 32  1  0  0  0  0
 17 33  1  0  0  0  0
 18 34  1  0  0  0  0
 18 35  1  0  0  0  0
 19 36  1  0  0  0  0
 19 37  1  0  0  0  0
M  CHG  1  15   1
M  END
> <s_m_source_file>
AV-unprocessed.smi

> <i_m_source_file_index>
1066

> <i_lp_mmshare_version>
43012

> <i_f3d_flags>
0

> <s_epik_input>
W0NIM11jMW5vYyhDbCljMVtDSDJdQyg9TylbTkhdW0NAQEhdMltDSDJdW0NIMl1OKFtDSDJdMilbQ0hdM1tDSDJdW0NIMl0z

> <s_epik_cmdline>
J2VwaWtfcHl0aG9uJywgJy1waCcsICc3LjAnLCAnLXRuJywgJzgnLCAnLW1hJywgJzIwMCcsICctbWV0YWxfYmluZGluZycsICctaW1hZScsICc8aW5maWxlLm1hZT4nLCAnLW9tYWUnLCAnPG91dGZpbGUubWFlPic=

> <r_epik_Ionization_Penalty>
0.00108138

> <r_epik_Ionization_Penalty_Charging>
0.00108128

> <r_epik_Ionization_Penalty_Neutral>
9.66632e-08

> <r_epik_State_Penalty>
0.000708577

> <r_epik_Charging_Adjusted_Penalty>
0.00178986

> <i_epik_Tot_Q>
1

> <i_epik_Tot_abs_Q>
1

> <r_epik_Metal_State_Penalty>
-0

> <b_epik_Metal_Only>
0

> <s_lp_Force_Field>
OPLS_2005

> <r_lp_Energy>
31.8821

> <b_lp_Chiralities_Consistent>
1

> <s_lp_Variant>
AV-unprocessed.smi:1066-4

> <Gold.Version>
5.8.1

> <Gold.Id.Protein>
6NUR|6NUR_protein|mol2

> <Gold.PLP.Fitness>
43.2382

> <Gold.PLP.PLP>
-35.9259

> <Gold.PLP.part.hbond>
-2.9721

> <Gold.PLP.part.metal>
0.0000

> <Gold.PLP.part.buried>
-5.0173

> <Gold.PLP.part.nonpolar>
-28.6337

> <Gold.PLP.part.repulsive>
0.2057

> <Gold.PLP.ligand.clash>
0.0000

> <Gold.PLP.ligand.torsion>
1.4848

> <Gold.PLP.Chemscore.Hbond>
3.0000

> <Gold.PLP.Chemscore.CHOScore>
0.0000

> <Gold.PLP.Chemscore.Metal>
0.0000

> <Gold.Chemscore.Hbonds>
donor molecule, donor type, donor heavy atom, donor atom, acceptor molecule, acceptor atom, score
      L1  H    11    25       P1  7948  1.00
      L1  H    15    38       P1  7921  1.00
      P1  H  6896  6908       L1     3  0.98

> <Gold.PLP.Chemscore.Internal.Correction>
1.2820

> <Gold.Rescore>
     Score         DG    S(hbond)    S(metal)    S(lipo)     H(rot)  DE(clash)    DE(int)     intcor
     18.33     -20.10       2.77        0.00      80.16       1.57       0.12       1.66       ----

> <Gold.Chemscore.Fitness>
18.3270

> <Gold.Chemscore.DG>
-20.1028

> <Gold.Chemscore.ZeroCoef>
-5.4800

> <Gold.Chemscore.Hbond>
2.7743

> <Gold.Chemscore.Metal>
0.0000

> <Gold.Chemscore.Lipo>
80.1588

> <Gold.Chemscore.Internal_Hbond>
0.0000

> <Gold.Chemscore.DEClash>
0.1165

> <Gold.Chemscore.DEInternal>
1.6593

> <Gold.Chemscore.Rot>
1.5711

> <Gold.Chemscore.Internal.Correction>
   9.000000E+99

> <Gold.Chemscore.Hbonds>
donor molecule, donor type, donor heavy atom, donor atom, acceptor molecule, acceptor atom, score
      L1  H    11    25       P1  7948  0.82
      L1  H    15    38       P1  7921  0.60
      P1  H  6896  6908       L1     3  0.72

> <Gold.Chemscore.Hbond.Weighted>
-9.2663

> <Gold.Chemscore.Metal.Weighted>
-0.0000

> <Gold.Chemscore.Lipo.Weighted>
-9.3786

> <Gold.Chemscore.Internal_Hbond.Weighted>
0.0000

> <Gold.Chemscore.DEClash.Weighted>
0.1165

> <Gold.Chemscore.DEInternal.Weighted>
1.6593

> <Gold.Chemscore.Rot.Weighted>
4.0221

> <Gold.Chemscore.Internal.Correction.Weighted>
   9.000000E+99

> <Gold.Protein.RotatedTorsions>
[ 6907 6896 6895 6894 ] final   98.13 input  -60.11 | X-H torsion
[ 7974 7965 7964 7962 ] final   49.30 input  175.53 | X-H torsion
[ 8008 7997 7996 7995 ] final -176.87 input   59.86 | X-H torsion
[ 10167 10162 10161 10158 ] final -133.99 input  -65.29 | X-H torsion
[ 10718 10713 10712 10709 ] final   -7.54 input   66.30 | X-H torsion
[ 10763 10752 10751 10750 ] final    4.30 input  -60.55 | X-H torsion
[ 11005 11000 10999 10996 ] final  167.05 input  -57.11 | X-H torsion

> <Gold.Protein.ActiveResidues>
 VAL166  LYS551  ARG553  GLY616  TRP617  ASP618  TYR619  PRO620  LYS621  CYS622 
 ASP623  PHE694  ASN695  SER759  ASP760  ASP761  ALA762  ILE779  LEU786  VAL792 
 PHE793  MET794  SER795  GLU796  ALA797  LYS798  CYS799  TRP800  GLU811  SER814 

> <Gold.Protein.RotatedAtoms>
  152.5414  134.0628  159.8159 H   0  0  0  0  0  0  0  0  0  0  0  0  # atno 6907 bound_to 6896
  151.0753  133.5426  159.2631 H   0  0  0  0  0  0  0  0  0  0  0  0  # atno 6908 bound_to 6896
  151.2273  135.0549  159.9028 H   0  0  0  0  0  0  0  0  0  0  0  0  # atno 6909 bound_to 6896
  146.0122  139.4556  142.9949 H   0  0  0  0  0  0  0  0  0  0  0  0  # atno 7974 bound_to 7965
  156.0001  140.1218  157.0556 H   0  0  0  0  0  0  0  0  0  0  0  0  # atno 8008 bound_to 7997
  154.4239  140.1108  156.5753 H   0  0  0  0  0  0  0  0  0  0  0  0  # atno 8009 bound_to 7997
  155.6225  140.3472  155.4658 H   0  0  0  0  0  0  0  0  0  0  0  0  # atno 8010 bound_to 7997
  139.8927  143.6703  152.2609 H   0  0  0  0  0  0  0  0  0  0  0  0  # atno 10167 bound_to 10162
  156.7158  130.5135  149.5880 H   0  0  0  0  0  0  0  0  0  0  0  0  # atno 10718 bound_to 10713
  153.2730  135.6934  153.7462 H   0  0  0  0  0  0  0  0  0  0  0  0  # atno 10763 bound_to 10752
  153.6478  135.3382  155.3091 H   0  0  0  0  0  0  0  0  0  0  0  0  # atno 10764 bound_to 10752
  154.8470  135.4447  154.1758 H   0  0  0  0  0  0  0  0  0  0  0  0  # atno 10765 bound_to 10752
  140.2728  134.7813  157.3690 H   0  0  0  0  0  0  0  0  0  0  0  0  # atno 11005 bound_to 11000
  145.7324  141.0037  143.1344 LP  0  0  0  0  0  0  0  0  0  0  0  0  # atno 17320 bound_to 7965
  144.6957  139.9000  143.7458 LP  0  0  0  0  0  0  0  0  0  0  0  0  # atno 17321 bound_to 7965
  139.7096  144.7622  151.1135 LP  0  0  0  0  0  0  0  0  0  0  0  0  # atno 17342 bound_to 10162
  140.7723  143.5349  150.9380 LP  0  0  0  0  0  0  0  0  0  0  0  0  # atno 17343 bound_to 10162
  156.1629  130.6386  151.0742 LP  0  0  0  0  0  0  0  0  0  0  0  0  # atno 17370 bound_to 10713
  157.6918  131.0807  150.7085 LP  0  0  0  0  0  0  0  0  0  0  0  0  # atno 17371 bound_to 10713
  140.1357  134.5037  155.8070 LP  0  0  0  0  0  0  0  0  0  0  0  0  # atno 17394 bound_to 11000
  141.2175  133.6806  156.7119 LP  0  0  0  0  0  0  0  0  0  0  0  0  # atno 17395 bound_to 11000

$$$$
