AV-unprocessed.smi:236|AV-procd|sdf|1814|dock3
  -GOLD-   2262020403D 1   1.00000     0.00000
 Structure written by MMmdl.
 58 62  0  0  0  0  0  0  0  0  1 V2000
  147.4024  133.3130  152.2265 C   0  0  0  0  0  0  0  0  0  0  0  0
  146.1859  133.6964  151.3685 C   0  0  1  0  0  0  0  0  0  0  0  0
  146.0445  132.8039  150.2726 O   0  0  0  0  0  0  0  0  0  0  0  0
  144.7283  132.9647  149.7760 C   0  0  0  0  0  0  0  0  0  0  0  0
  143.8923  133.0034  151.0493 C   0  0  0  0  0  0  0  0  0  0  0  0
  144.7998  133.7014  152.0672 C   0  0  1  0  0  0  0  0  0  0  0  0
  144.8063  132.9272  153.2554 O   0  0  0  0  0  0  0  0  0  0  0  0
  144.2963  135.1238  152.4177 C   0  0  0  0  0  0  0  0  0  0  0  0
  145.1754  135.8446  153.3269 N   0  0  0  0  0  0  0  0  0  0  0  0
  145.4658  135.5118  154.6312 C   0  0  0  0  0  0  0  0  0  0  0  0
  146.2931  136.3159  155.2412 N   0  0  0  0  0  0  0  0  0  0  0  0
  146.5903  137.2822  154.2880 C   0  0  0  0  0  0  0  0  0  0  0  0
  147.4146  138.4426  154.2694 C   0  0  0  0  0  0  0  0  0  0  0  0
  148.1585  138.8779  155.3073 N   0  0  0  0  0  0  0  0  0  0  0  0
  147.4677  138.8431  156.5895 C   0  0  0  0  0  0  0  0  0  0  0  0
  148.4447  139.2153  157.7165 C   0  0  0  0  0  0  0  0  0  0  0  0
  149.0326  140.4823  157.4351 O   0  0  0  0  0  0  0  0  0  0  0  0
  149.7836  140.4775  156.2221 C   0  0  2  0  0  0  0  0  0  0  0  0
  150.4350  141.8557  156.0511 C   0  0  0  0  0  0  0  0  0  0  0  0
  150.8804  142.3140  157.3165 O   0  0  0  0  0  0  0  0  0  0  0  0
  150.9514  143.7292  157.3963 C   0  0  0  0  0  0  0  0  0  0  0  0
  151.9598  144.1757  158.4396 C   0  0  0  0  0  0  0  0  0  0  0  0
  151.6940  143.9807  159.9184 C   0  0  0  0  0  0  0  0  0  0  0  0
  151.6809  145.3670  159.3334 C   0  0  0  0  0  0  0  0  0  0  0  0
  148.8269  140.1487  155.0595 C   0  0  0  0  0  0  0  0  0  0  0  0
  147.4589  139.1749  153.1299 N   0  0  0  0  0  0  0  0  0  0  0  0
  146.7407  138.7991  152.0672 C   0  0  0  0  0  0  0  0  0  0  0  0
  145.9310  137.7460  151.9360 N   0  0  0  0  0  0  0  0  0  0  0  0
  145.8878  137.0059  153.0814 C   0  0  0  0  0  0  0  0  0  0  0  0
  147.5101  133.9840  153.0790 H   0  0  0  0  0  0  0  0  0  0  0  0
  148.3200  133.3731  151.6413 H   0  0  0  0  0  0  0  0  0  0  0  0
  147.3212  132.2940  152.6055 H   0  0  0  0  0  0  0  0  0  0  0  0
  146.3711  134.6766  150.9285 H   0  0  0  0  0  0  0  0  0  0  0  0
  144.6521  133.9050  149.2273 H   0  0  0  0  0  0  0  0  0  0  0  0
  144.4450  132.1503  149.1090 H   0  0  0  0  0  0  0  0  0  0  0  0
  142.9363  133.5064  150.8997 H   0  0  0  0  0  0  0  0  0  0  0  0
  143.6751  131.9783  151.3551 H   0  0  0  0  0  0  0  0  0  0  0  0
  143.9120  132.7415  153.4976 H   0  0  0  0  0  0  0  0  0  0  0  0
  144.1873  135.7150  151.5074 H   0  0  0  0  0  0  0  0  0  0  0  0
  143.3038  135.0768  152.8682 H   0  0  0  0  0  0  0  0  0  0  0  0
  145.0469  134.6432  155.1180 H   0  0  0  0  0  0  0  0  0  0  0  0
  146.6320  139.5435  156.5822 H   0  0  0  0  0  0  0  0  0  0  0  0
  147.0548  137.8484  156.7632 H   0  0  0  0  0  0  0  0  0  0  0  0
  147.9174  139.2708  158.6688 H   0  0  0  0  0  0  0  0  0  0  0  0
  149.2220  138.4574  157.8252 H   0  0  0  0  0  0  0  0  0  0  0  0
  150.5655  139.7173  156.2741 H   0  0  0  0  0  0  0  0  0  0  0  0
  151.2923  141.7786  155.3805 H   0  0  0  0  0  0  0  0  0  0  0  0
  149.7307  142.5596  155.6047 H   0  0  0  0  0  0  0  0  0  0  0  0
  151.2390  144.1469  156.4304 H   0  0  0  0  0  0  0  0  0  0  0  0
  149.9749  144.1392  157.6579 H   0  0  0  0  0  0  0  0  0  0  0  0
  152.9941  144.0502  158.1250 H   0  0  0  0  0  0  0  0  0  0  0  0
  150.7387  143.5532  160.2166 H   0  0  0  0  0  0  0  0  0  0  0  0
  152.5395  143.7107  160.5477 H   0  0  0  0  0  0  0  0  0  0  0  0
  152.5174  146.0207  159.5709 H   0  0  0  0  0  0  0  0  0  0  0  0
  150.7165  145.8629  159.2422 H   0  0  0  0  0  0  0  0  0  0  0  0
  149.3815  140.0952  154.1217 H   0  0  0  0  0  0  0  0  0  0  0  0
  148.0860  140.9423  154.9524 H   0  0  0  0  0  0  0  0  0  0  0  0
  146.8277  139.4327  151.1970 H   0  0  0  0  0  0  0  0  0  0  0  0
  1  2  1  0  0  0  0
  1 30  1  0  0  0  0
  1 31  1  0  0  0  0
  1 32  1  0  0  0  0
  2  6  1  0  0  0  0
  2  3  1  0  0  0  0
  2 33  1  0  0  0  0
  3  4  1  0  0  0  0
  4  5  1  0  0  0  0
  4 34  1  0  0  0  0
  4 35  1  0  0  0  0
  5  6  1  0  0  0  0
  5 36  1  0  0  0  0
  5 37  1  0  0  0  0
  6  7  1  0  0  0  0
  6  8  1  0  0  0  0
  7 38  1  0  0  0  0
  8  9  1  0  0  0  0
  8 39  1  0  0  0  0
  8 40  1  0  0  0  0
  9 29  1  0  0  0  0
  9 10  1  0  0  0  0
 10 11  2  0  0  0  0
 10 41  1  0  0  0  0
 11 12  1  0  0  0  0
 12 29  2  0  0  0  0
 12 13  1  0  0  0  0
 13 14  1  0  0  0  0
 13 26  2  0  0  0  0
 14 25  1  0  0  0  0
 14 15  1  0  0  0  0
 15 16  1  0  0  0  0
 15 42  1  0  0  0  0
 15 43  1  0  0  0  0
 16 17  1  0  0  0  0
 16 44  1  0  0  0  0
 16 45  1  0  0  0  0
 17 18  1  0  0  0  0
 18 19  1  0  0  0  0
 18 25  1  0  0  0  0
 18 46  1  0  0  0  0
 19 20  1  0  0  0  0
 19 47  1  0  0  0  0
 19 48  1  0  0  0  0
 20 21  1  0  0  0  0
 21 22  1  0  0  0  0
 21 49  1  0  0  0  0
 21 50  1  0  0  0  0
 22 24  1  0  0  0  0
 22 23  1  0  0  0  0
 22 51  1  0  0  0  0
 23 24  1  0  0  0  0
 23 52  1  0  0  0  0
 23 53  1  0  0  0  0
 24 54  1  0  0  0  0
 24 55  1  0  0  0  0
 25 56  1  0  0  0  0
 25 57  1  0  0  0  0
 26 27  1  0  0  0  0
 27 28  2  0  0  0  0
 27 58  1  0  0  0  0
 28 29  1  0  0  0  0
M  END
> <s_m_source_file>
AV-unprocessed.smi

> <i_m_source_file_index>
236

> <i_lp_mmshare_version>
43012

> <i_f3d_flags>
0

> <s_epik_input>
W0NIMl0xW0NIMl1PW0NAQEhdKFtDSDNdKVtDQEBdMShbT0hdKVtDSDJdbihbY0hdbjIpYyhjMjMpbltjSF1uYzNONFtDSDJdW0NIMl1PW0NASF0oW0NIMl00KVtDSDJdT1tDSDJdW0NIXTVbQ0gyXVtDSDJdNQ==

> <s_epik_cmdline>
J2VwaWtfcHl0aG9uJywgJy1waCcsICc3LjAnLCAnLXRuJywgJzgnLCAnLW1hJywgJzIwMCcsICctbWV0YWxfYmluZGluZycsICctaW1hZScsICc8aW5maWxlLm1hZT4nLCAnLW9tYWUnLCAnPG91dGZpbGUubWFlPic=

> <r_lp_tautomer_probability>
1

> <r_epik_Ionization_Penalty>
7.21838e-05

> <r_epik_Ionization_Penalty_Charging>
0

> <r_epik_Ionization_Penalty_Neutral>
7.21838e-05

> <r_epik_State_Penalty>
-0

> <r_epik_Charging_Adjusted_Penalty>
0

> <i_epik_Tot_Q>
0

> <i_epik_Tot_abs_Q>
0

> <r_epik_Metal_State_Penalty>
-0

> <b_epik_Metal_Only>
0

> <s_lp_Force_Field>
OPLS_2005

> <r_lp_Energy>
47.3448

> <b_lp_Chiralities_Consistent>
1

> <s_lp_Variant>
AV-unprocessed.smi:236-6

> <Gold.Version>
5.8.1

> <Gold.Id.Protein>
6NUR|6NUR_protein|mol2

> <Gold.PLP.Fitness>
44.5995

> <Gold.PLP.PLP>
-42.2664

> <Gold.PLP.part.hbond>
-1.0000

> <Gold.PLP.part.metal>
0.0000

> <Gold.PLP.part.buried>
-6.3213

> <Gold.PLP.part.nonpolar>
-36.5057

> <Gold.PLP.part.repulsive>
1.8358

> <Gold.PLP.ligand.clash>
0.0000

> <Gold.PLP.ligand.torsion>
1.0441

> <Gold.PLP.Chemscore.Hbond>
1.0000

> <Gold.PLP.Chemscore.CHOScore>
0.1799

> <Gold.PLP.Chemscore.Metal>
0.0000

> <Gold.Chemscore.Hbonds>
donor molecule, donor type, donor heavy atom, donor atom, acceptor molecule, acceptor atom, score
      L1  H     7    38       P1 10957  0.93
      L1  C    27    58       P1  7957  0.16

> <Gold.PLP.Chemscore.Internal.Correction>
0.8816

> <Gold.Rescore>
     Score         DG    S(hbond)    S(metal)    S(lipo)     H(rot)  DE(clash)    DE(int)     intcor
     11.15     -13.45       0.98        0.00     102.92       2.87       0.10       2.20       ----

> <Gold.Chemscore.Fitness>
11.1527

> <Gold.Chemscore.DG>
-13.4524

> <Gold.Chemscore.ZeroCoef>
-5.4800

> <Gold.Chemscore.Hbond>
0.9779

> <Gold.Chemscore.Metal>
0.0000

> <Gold.Chemscore.Lipo>
102.9245

> <Gold.Chemscore.Internal_Hbond>
0.0000

> <Gold.Chemscore.DEClash>
0.1024

> <Gold.Chemscore.DEInternal>
2.1974

> <Gold.Chemscore.Rot>
2.8655

> <Gold.Chemscore.Internal.Correction>
   9.000000E+99

> <Gold.Chemscore.Hbonds>
donor molecule, donor type, donor heavy atom, donor atom, acceptor molecule, acceptor atom, score
      L1  H     7    38       P1 10957  0.51

> <Gold.Chemscore.Hbond.Weighted>
-3.2660

> <Gold.Chemscore.Metal.Weighted>
-0.0000

> <Gold.Chemscore.Lipo.Weighted>
-12.0422

> <Gold.Chemscore.Internal_Hbond.Weighted>
0.0000

> <Gold.Chemscore.DEClash.Weighted>
0.1024

> <Gold.Chemscore.DEInternal.Weighted>
2.1974

> <Gold.Chemscore.Rot.Weighted>
7.3358

> <Gold.Chemscore.Internal.Correction.Weighted>
   9.000000E+99

> <Gold.Protein.RotatedTorsions>
[ 6907 6896 6895 6894 ] final  141.54 input  -60.11 | X-H torsion
[ 7974 7965 7964 7962 ] final  134.55 input  175.53 | X-H torsion
[ 8008 7997 7996 7995 ] final -168.77 input   59.86 | X-H torsion
[ 10167 10162 10161 10158 ] final   44.13 input  -65.29 | X-H torsion
[ 10718 10713 10712 10709 ] final   -1.03 input   66.30 | X-H torsion
[ 10763 10752 10751 10750 ] final  143.55 input  -60.55 | X-H torsion
[ 11005 11000 10999 10996 ] final -117.07 input  -57.11 | X-H torsion

> <Gold.Protein.ActiveResidues>
 VAL166  LYS551  ARG553  GLY616  TRP617  ASP618  TYR619  PRO620  LYS621  CYS622 
 ASP623  PHE694  ASN695  SER759  ASP760  ASP761  ALA762  ILE779  LEU786  VAL792 
 PHE793  MET794  SER795  GLU796  ALA797  LYS798  CYS799  TRP800  GLU811  SER814 

> <Gold.Protein.RotatedAtoms>
  152.2298  133.5049  159.5208 H   0  0  0  0  0  0  0  0  0  0  0  0  # atno 6907 bound_to 6896
  150.7034  134.1232  159.4051 H   0  0  0  0  0  0  0  0  0  0  0  0  # atno 6908 bound_to 6896
  151.9153  135.0321  160.0568 H   0  0  0  0  0  0  0  0  0  0  0  0  # atno 6909 bound_to 6896
  144.9752  139.4562  143.5413 H   0  0  0  0  0  0  0  0  0  0  0  0  # atno 7974 bound_to 7965
  155.8959  140.1032  157.1385 H   0  0  0  0  0  0  0  0  0  0  0  0  # atno 8008 bound_to 7997
  154.4020  140.1302  156.4438 H   0  0  0  0  0  0  0  0  0  0  0  0  # atno 8009 bound_to 7997
  155.7479  140.3465  155.5138 H   0  0  0  0  0  0  0  0  0  0  0  0  # atno 8010 bound_to 7997
  140.3374  144.2513  150.6160 H   0  0  0  0  0  0  0  0  0  0  0  0  # atno 10167 bound_to 10162
  156.8116  130.5426  149.5708 H   0  0  0  0  0  0  0  0  0  0  0  0  # atno 10718 bound_to 10713
  153.9741  135.2947  155.3425 H   0  0  0  0  0  0  0  0  0  0  0  0  # atno 10763 bound_to 10752
  154.7306  135.5069  153.8960 H   0  0  0  0  0  0  0  0  0  0  0  0  # atno 10764 bound_to 10752
  153.0886  135.6701  154.0013 H   0  0  0  0  0  0  0  0  0  0  0  0  # atno 10765 bound_to 10752
  141.0380  133.9880  157.3040 H   0  0  0  0  0  0  0  0  0  0  0  0  # atno 11005 bound_to 11000
  146.3393  139.8991  142.8797 LP  0  0  0  0  0  0  0  0  0  0  0  0  # atno 17320 bound_to 7965
  145.2500  141.0040  143.3886 LP  0  0  0  0  0  0  0  0  0  0  0  0  # atno 17321 bound_to 7965
  140.5341  143.2237  151.8192 LP  0  0  0  0  0  0  0  0  0  0  0  0  # atno 17342 bound_to 10162
  139.4846  144.4684  151.9456 LP  0  0  0  0  0  0  0  0  0  0  0  0  # atno 17343 bound_to 10162
  156.1041  130.5991  150.9942 LP  0  0  0  0  0  0  0  0  0  0  0  0  # atno 17370 bound_to 10713
  157.6503  131.0898  150.8066 LP  0  0  0  0  0  0  0  0  0  0  0  0  # atno 17371 bound_to 10713
  139.9254  135.0201  156.8217 LP  0  0  0  0  0  0  0  0  0  0  0  0  # atno 17394 bound_to 11000
  140.6287  133.9926  155.7652 LP  0  0  0  0  0  0  0  0  0  0  0  0  # atno 17395 bound_to 11000

$$$$
