AV-unprocessed.smi:2505|AV-procd|sdf|9855|dock5
  -GOLD-   2272013483D 1   1.00000     0.00000
 Structure written by MMmdl.
 48 52  0  0  0  0  0  0  0  0  1 V2000
  145.8859  138.6710  153.3293 O   0  0  0  0  0  0  0  0  0  0  0  0
  146.7759  137.8903  152.9993 C   0  0  0  0  0  0  0  0  0  0  0  0
  148.0814  138.0442  153.2922 N   0  0  0  0  0  0  0  0  0  0  0  0
  148.7047  139.0718  154.0479 C   0  0  0  0  0  0  0  0  0  0  0  0
  148.0279  140.1405  154.6859 C   0  0  0  0  0  0  0  0  0  0  0  0
  148.6924  141.0731  155.4024 N   0  0  0  0  0  0  0  0  0  0  0  0
  150.0200  140.9469  155.4789 C   0  0  0  0  0  0  0  0  0  0  0  0
  150.7454  141.9641  156.3042 C   0  0  0  0  0  0  0  0  0  0  0  0
  151.6110  141.5409  157.4736 C   0  0  0  0  0  0  0  0  0  0  0  0
  150.3147  142.2586  157.7268 C   0  0  0  0  0  0  0  0  0  0  0  0
  150.7593  139.9722  154.9420 N   0  0  0  0  0  0  0  0  0  0  0  0
  150.1034  139.0347  154.2253 C   0  0  0  0  0  0  0  0  0  0  0  0
  146.5100  136.8071  152.2497 N   0  0  0  0  0  0  0  0  0  0  0  0
  145.2020  136.3536  151.7600 C   0  0  2  0  0  0  0  0  0  0  0  0
  144.1679  136.0973  152.8838 C   0  0  2  0  0  0  0  0  0  0  0  0
  144.3671  136.5449  154.3121 C   0  0  0  0  0  0  0  0  0  0  0  0
  144.9324  135.2922  154.9881 C   0  0  0  0  0  0  0  0  0  0  0  0
  145.4412  134.4964  153.9200 O   0  0  0  0  0  0  0  0  0  0  0  0
  144.5491  134.6270  152.8164 C   0  0  2  0  0  0  0  0  0  0  0  0
  145.1963  134.8416  151.4333 C   0  0  0  0  0  0  0  0  0  0  0  0
  146.5041  134.1059  151.1385 C   0  0  0  0  0  0  0  0  0  0  0  0
  146.1235  132.7537  150.5332 C   0  0  0  0  0  0  0  0  0  0  0  0
  144.7436  132.9620  149.9023 C   0  0  0  0  0  0  0  0  0  0  0  0
  144.3415  134.4001  150.2456 C   0  0  0  0  0  0  0  0  0  0  0  0
  148.7072  137.3661  152.8826 H   0  0  0  0  0  0  0  0  0  0  0  0
  146.9560  140.2560  154.6546 H   0  0  0  0  0  0  0  0  0  0  0  0
  151.0893  142.7964  155.6932 H   0  0  0  0  0  0  0  0  0  0  0  0
  151.6526  140.4813  157.7184 H   0  0  0  0  0  0  0  0  0  0  0  0
  152.5329  142.0941  157.6402 H   0  0  0  0  0  0  0  0  0  0  0  0
  150.3689  143.2920  158.0630 H   0  0  0  0  0  0  0  0  0  0  0  0
  149.4938  141.6764  158.1411 H   0  0  0  0  0  0  0  0  0  0  0  0
  150.7028  138.2489  153.7887 H   0  0  0  0  0  0  0  0  0  0  0  0
  147.3045  136.2657  151.9402 H   0  0  0  0  0  0  0  0  0  0  0  0
  144.8027  136.9514  150.9389 H   0  0  0  0  0  0  0  0  0  0  0  0
  143.1532  136.2539  152.5144 H   0  0  0  0  0  0  0  0  0  0  0  0
  145.0575  137.3832  154.3923 H   0  0  0  0  0  0  0  0  0  0  0  0
  143.4318  136.8523  154.7806 H   0  0  0  0  0  0  0  0  0  0  0  0
  145.7079  135.5229  155.7185 H   0  0  0  0  0  0  0  0  0  0  0  0
  144.1394  134.7394  155.4939 H   0  0  0  0  0  0  0  0  0  0  0  0
  143.7012  133.9417  152.8546 H   0  0  0  0  0  0  0  0  0  0  0  0
  147.0921  134.6712  150.4138 H   0  0  0  0  0  0  0  0  0  0  0  0
  147.1305  133.9817  152.0223 H   0  0  0  0  0  0  0  0  0  0  0  0
  146.8631  132.4115  149.8089 H   0  0  0  0  0  0  0  0  0  0  0  0
  146.0584  131.9999  151.3189 H   0  0  0  0  0  0  0  0  0  0  0  0
  144.7619  132.8048  148.8234 H   0  0  0  0  0  0  0  0  0  0  0  0
  144.0302  132.2540  150.3256 H   0  0  0  0  0  0  0  0  0  0  0  0
  143.2725  134.4754  150.4481 H   0  0  0  0  0  0  0  0  0  0  0  0
  144.5414  135.0422  149.3867 H   0  0  0  0  0  0  0  0  0  0  0  0
  1  2  2  0  0  0  0
  2  3  1  0  0  0  0
  2 13  1  0  0  0  0
  3  4  1  0  0  0  0
  3 25  1  0  0  0  0
  4 12  1  0  0  0  0
  4  5  2  0  0  0  0
  5  6  1  0  0  0  0
  5 26  1  0  0  0  0
  6  7  2  0  0  0  0
  7  8  1  0  0  0  0
  7 11  1  0  0  0  0
  8 10  1  0  0  0  0
  8  9  1  0  0  0  0
  8 27  1  0  0  0  0
  9 10  1  0  0  0  0
  9 28  1  0  0  0  0
  9 29  1  0  0  0  0
 10 30  1  0  0  0  0
 10 31  1  0  0  0  0
 11 12  2  0  0  0  0
 12 32  1  0  0  0  0
 13 14  1  0  0  0  0
 13 33  1  0  0  0  0
 14 20  1  0  0  0  0
 14 15  1  0  0  0  0
 14 34  1  0  0  0  0
 15 19  1  0  0  0  0
 15 16  1  0  0  0  0
 15 35  1  0  0  0  0
 16 17  1  0  0  0  0
 16 36  1  0  0  0  0
 16 37  1  0  0  0  0
 17 18  1  0  0  0  0
 17 38  1  0  0  0  0
 17 39  1  0  0  0  0
 18 19  1  0  0  0  0
 19 20  1  0  0  0  0
 19 40  1  0  0  0  0
 20 24  1  0  0  0  0
 20 21  1  0  0  0  0
 21 22  1  0  0  0  0
 21 41  1  0  0  0  0
 21 42  1  0  0  0  0
 22 23  1  0  0  0  0
 22 43  1  0  0  0  0
 22 44  1  0  0  0  0
 23 24  1  0  0  0  0
 23 45  1  0  0  0  0
 23 46  1  0  0  0  0
 24 47  1  0  0  0  0
 24 48  1  0  0  0  0
M  END
> <s_m_source_file>
AV-unprocessed.smi

> <i_m_source_file_index>
2505

> <i_lp_mmshare_version>
43012

> <i_f3d_flags>
0

> <s_epik_input>
W0NIMl0xW0NIMl1bQ0hdMWMobltjSF0yKW5bY0hdYzJbTkhdQyg9TylbTkhdW0NAQEhdM1tDQEBIXShbQ0gyXVtDSDJdTzQpW0NASF00QzM1W0NIMl1bQ0gyXVtDSDJdW0NIMl01

> <s_epik_cmdline>
J2VwaWtfcHl0aG9uJywgJy1waCcsICc3LjAnLCAnLXRuJywgJzgnLCAnLW1hJywgJzIwMCcsICctbWV0YWxfYmluZGluZycsICctaW1hZScsICc8aW5maWxlLm1hZT4nLCAnLW9tYWUnLCAnPG91dGZpbGUubWFlPic=

> <r_lp_tautomer_probability>
1

> <r_epik_Ionization_Penalty>
2.6075e-05

> <r_epik_Ionization_Penalty_Charging>
0

> <r_epik_Ionization_Penalty_Neutral>
2.6075e-05

> <r_epik_State_Penalty>
-0

> <r_epik_Charging_Adjusted_Penalty>
0

> <i_epik_Tot_Q>
0

> <i_epik_Tot_abs_Q>
0

> <r_epik_Metal_State_Penalty>
-0

> <b_epik_Metal_Only>
0

> <s_lp_Force_Field>
OPLS_2005

> <r_lp_Energy>
63.7277

> <b_lp_Chiralities_Consistent>
1

> <s_lp_Variant>
AV-unprocessed.smi:2505-3

> <Gold.Version>
5.8.1

> <Gold.Id.Protein>
6NUR|6NUR_protein|mol2

> <Gold.PLP.Fitness>
43.0544

> <Gold.PLP.PLP>
-34.6126

> <Gold.PLP.part.hbond>
-2.9650

> <Gold.PLP.part.metal>
0.0000

> <Gold.PLP.part.buried>
-3.2978

> <Gold.PLP.part.nonpolar>
-28.5972

> <Gold.PLP.part.repulsive>
1.6878

> <Gold.PLP.ligand.clash>
0.0000

> <Gold.PLP.ligand.torsion>
0.2294

> <Gold.PLP.Chemscore.Hbond>
2.8620

> <Gold.PLP.Chemscore.CHOScore>
0.0000

> <Gold.PLP.Chemscore.Metal>
0.0000

> <Gold.Chemscore.Hbonds>
donor molecule, donor type, donor heavy atom, donor atom, acceptor molecule, acceptor atom, score
      L1  H     3    25       P1  7948  0.99
      L1  H    13    33       P1  7948  0.91
      P1  H  7989  7998       L1    11  0.95

> <Gold.PLP.Chemscore.Internal.Correction>
0.3147

> <Gold.Rescore>
     Score         DG    S(hbond)    S(metal)    S(lipo)     H(rot)  DE(clash)    DE(int)     intcor
     15.55     -19.42       2.07        0.00      85.65       1.17       0.46       3.41       ----

> <Gold.Chemscore.Fitness>
15.5525

> <Gold.Chemscore.DG>
-19.4226

> <Gold.Chemscore.ZeroCoef>
-5.4800

> <Gold.Chemscore.Hbond>
2.0742

> <Gold.Chemscore.Metal>
0.0000

> <Gold.Chemscore.Lipo>
85.6521

> <Gold.Chemscore.Internal_Hbond>
0.0000

> <Gold.Chemscore.DEClash>
0.4592

> <Gold.Chemscore.DEInternal>
3.4109

> <Gold.Chemscore.Rot>
1.1744

> <Gold.Chemscore.Internal.Correction>
   9.000000E+99

> <Gold.Chemscore.Hbonds>
donor molecule, donor type, donor heavy atom, donor atom, acceptor molecule, acceptor atom, score
      L1  H     3    25       P1  7948  0.88
      L1  H    13    33       P1  7948  0.88
      P1  H  7989  7998       L1    11  0.07

> <Gold.Chemscore.Hbond.Weighted>
-6.9277

> <Gold.Chemscore.Metal.Weighted>
-0.0000

> <Gold.Chemscore.Lipo.Weighted>
-10.0213

> <Gold.Chemscore.Internal_Hbond.Weighted>
0.0000

> <Gold.Chemscore.DEClash.Weighted>
0.4592

> <Gold.Chemscore.DEInternal.Weighted>
3.4109

> <Gold.Chemscore.Rot.Weighted>
3.0064

> <Gold.Chemscore.Internal.Correction.Weighted>
   9.000000E+99

> <Gold.Protein.RotatedTorsions>
[ 6907 6896 6895 6894 ] final    1.03 input  -60.11 | X-H torsion
[ 7974 7965 7964 7962 ] final   69.67 input  175.53 | X-H torsion
[ 8008 7997 7996 7995 ] final  118.69 input   59.86 | X-H torsion
[ 10167 10162 10161 10158 ] final -147.43 input  -65.29 | X-H torsion
[ 10718 10713 10712 10709 ] final  -47.08 input   66.30 | X-H torsion
[ 10763 10752 10751 10750 ] final  179.36 input  -60.55 | X-H torsion
[ 11005 11000 10999 10996 ] final   59.84 input  -57.11 | X-H torsion

> <Gold.Protein.ActiveResidues>
 VAL166  LYS551  ARG553  GLY616  TRP617  ASP618  TYR619  PRO620  LYS621  CYS622 
 ASP623  PHE694  ASN695  SER759  ASP760  ASP761  ALA762  ILE779  LEU786  VAL792 
 PHE793  MET794  SER795  GLU796  ALA797  LYS798  CYS799  TRP800  GLU811  SER814 

> <Gold.Protein.RotatedAtoms>
  151.5860  135.1056  160.0027 H   0  0  0  0  0  0  0  0  0  0  0  0  # atno 6907 bound_to 6896
  152.4330  133.7307  159.6596 H   0  0  0  0  0  0  0  0  0  0  0  0  # atno 6908 bound_to 6896
  150.8225  133.8158  159.3156 H   0  0  0  0  0  0  0  0  0  0  0  0  # atno 6909 bound_to 6896
  145.7875  139.2917  143.1229 H   0  0  0  0  0  0  0  0  0  0  0  0  # atno 7974 bound_to 7965
  156.2559  140.2869  156.0874 H   0  0  0  0  0  0  0  0  0  0  0  0  # atno 8008 bound_to 7997
  155.1500  140.0397  157.2836 H   0  0  0  0  0  0  0  0  0  0  0  0  # atno 8009 bound_to 7997
  154.6467  140.2535  155.7266 H   0  0  0  0  0  0  0  0  0  0  0  0  # atno 8010 bound_to 7997
  139.7622  143.8360  152.2609 H   0  0  0  0  0  0  0  0  0  0  0  0  # atno 10167 bound_to 10162
  156.2119  130.4161  149.9103 H   0  0  0  0  0  0  0  0  0  0  0  0  # atno 10718 bound_to 10713
  154.5196  135.2793  155.1273 H   0  0  0  0  0  0  0  0  0  0  0  0  # atno 10763 bound_to 10752
  154.2836  135.6280  153.5360 H   0  0  0  0  0  0  0  0  0  0  0  0  # atno 10764 bound_to 10752
  152.9934  135.5657  154.5682 H   0  0  0  0  0  0  0  0  0  0  0  0  # atno 10765 bound_to 10752
  140.0275  134.6062  155.9553 H   0  0  0  0  0  0  0  0  0  0  0  0  # atno 11005 bound_to 11000
  146.0011  140.8519  143.0018 LP  0  0  0  0  0  0  0  0  0  0  0  0  # atno 17320 bound_to 7965
  144.6787  140.2353  143.7350 LP  0  0  0  0  0  0  0  0  0  0  0  0  # atno 17321 bound_to 7965
  139.8369  144.7228  150.9379 LP  0  0  0  0  0  0  0  0  0  0  0  0  # atno 17342 bound_to 10162
  140.7808  143.4018  151.1136 LP  0  0  0  0  0  0  0  0  0  0  0  0  # atno 17343 bound_to 10162
  156.6778  130.8846  151.3571 LP  0  0  0  0  0  0  0  0  0  0  0  0  # atno 17370 bound_to 10713
  157.7043  130.9367  150.0882 LP  0  0  0  0  0  0  0  0  0  0  0  0  # atno 17371 bound_to 10713
  141.1811  133.6547  156.5025 LP  0  0  0  0  0  0  0  0  0  0  0  0  # atno 17394 bound_to 11000
  140.4282  134.7125  157.4927 LP  0  0  0  0  0  0  0  0  0  0  0  0  # atno 17395 bound_to 11000

$$$$
