AV-unprocessed.smi:3143|AV-procd|sdf|11974|dock6
  -GOLD-   2272017373D 1   1.00000     0.00000
 Structure written by MMmdl.
 38 39  0  0  0  0  0  0  0  0  2 V2000
  148.9559  141.8687  157.8833 C   0  0  0  0  0  0  0  0  0  0  0  0
  150.2584  142.1335  157.1116 C   0  0  2  0  0  0  0  0  0  0  0  0
  150.6053  143.5705  157.2081 N   0  3  0  0  0  0  0  0  0  0  0  0
  150.8295  144.0684  158.5819 C   0  0  0  0  0  0  0  0  0  0  0  0
  152.3132  144.3900  158.8142 C   0  0  0  0  0  0  0  0  0  0  0  0
  152.9593  143.3968  159.6513 N   0  0  0  0  0  0  0  0  0  0  0  0
  153.9202  142.4719  159.2997 C   0  0  0  0  0  0  0  0  0  0  0  0
  154.2136  141.7458  160.4183 C   0  0  0  0  0  0  0  0  0  0  0  0
  153.3646  142.3023  161.4154 C   0  0  0  0  0  0  0  0  0  0  0  0
  152.6125  143.2880  160.9521 N   0  0  0  0  0  0  0  0  0  0  0  0
  150.1010  141.6864  155.6441 C   0  0  0  0  0  0  0  0  0  0  0  0
  149.1608  142.1342  154.9857 O   0  0  0  0  0  0  0  0  0  0  0  0
  150.9838  140.8084  155.1208 N   0  0  0  0  0  0  0  0  0  0  0  0
  150.9164  140.3338  153.7393 C   0  0  0  0  0  0  0  0  0  0  0  0
  152.2270  139.5875  153.4909 C   0  0  0  0  0  0  0  0  0  0  0  0
  152.6564  139.1239  154.8752 C   0  0  0  0  0  0  0  0  0  0  0  0
  152.1243  140.2076  155.8132 C   0  0  0  0  0  0  0  0  0  0  0  0
  148.6760  140.8153  157.8485 H   0  0  0  0  0  0  0  0  0  0  0  0
  148.1242  142.4451  157.4757 H   0  0  0  0  0  0  0  0  0  0  0  0
  149.0624  142.1408  158.9337 H   0  0  0  0  0  0  0  0  0  0  0  0
  151.0599  141.5771  157.5975 H   0  0  0  0  0  0  0  0  0  0  0  0
  151.4360  143.7350  156.6566 H   0  0  0  0  0  0  0  0  0  0  0  0
  150.2263  144.9630  158.7417 H   0  0  0  0  0  0  0  0  0  0  0  0
  150.4926  143.3204  159.3005 H   0  0  0  0  0  0  0  0  0  0  0  0
  152.8476  144.4404  157.8644 H   0  0  0  0  0  0  0  0  0  0  0  0
  152.4189  145.3656  159.2906 H   0  0  0  0  0  0  0  0  0  0  0  0
  154.3123  142.4076  158.2952 H   0  0  0  0  0  0  0  0  0  0  0  0
  154.9243  140.9377  160.5098 H   0  0  0  0  0  0  0  0  0  0  0  0
  153.2722  142.0204  162.4539 H   0  0  0  0  0  0  0  0  0  0  0  0
  150.0665  139.6575  153.6374 H   0  0  0  0  0  0  0  0  0  0  0  0
  150.7864  141.1511  153.0281 H   0  0  0  0  0  0  0  0  0  0  0  0
  152.1186  138.7654  152.7827 H   0  0  0  0  0  0  0  0  0  0  0  0
  152.9707  140.2780  153.0904 H   0  0  0  0  0  0  0  0  0  0  0  0
  152.1765  138.1718  155.1059 H   0  0  0  0  0  0  0  0  0  0  0  0
  153.7344  138.9833  154.9595 H   0  0  0  0  0  0  0  0  0  0  0  0
  152.8851  140.9726  155.9756 H   0  0  0  0  0  0  0  0  0  0  0  0
  151.8512  139.7846  156.7804 H   0  0  0  0  0  0  0  0  0  0  0  0
  149.8441  144.1027  156.8118 H   0  0  0  0  0  0  0  0  0  0  0  0
  1  2  1  0  0  0  0
  1 18  1  0  0  0  0
  1 19  1  0  0  0  0
  1 20  1  0  0  0  0
  2  3  1  0  0  0  0
  2 11  1  0  0  0  0
  2 21  1  0  0  0  0
  3  4  1  0  0  0  0
  3 22  1  0  0  0  0
  3 38  1  0  0  0  0
  4  5  1  0  0  0  0
  4 23  1  0  0  0  0
  4 24  1  0  0  0  0
  5  6  1  0  0  0  0
  5 25  1  0  0  0  0
  5 26  1  0  0  0  0
  6 10  1  0  0  0  0
  6  7  1  0  0  0  0
  7  8  2  0  0  0  0
  7 27  1  0  0  0  0
  8  9  1  0  0  0  0
  8 28  1  0  0  0  0
  9 10  2  0  0  0  0
  9 29  1  0  0  0  0
 11 12  2  0  0  0  0
 11 13  1  0  0  0  0
 13 17  1  0  0  0  0
 13 14  1  0  0  0  0
 14 15  1  0  0  0  0
 14 30  1  0  0  0  0
 14 31  1  0  0  0  0
 15 16  1  0  0  0  0
 15 32  1  0  0  0  0
 15 33  1  0  0  0  0
 16 17  1  0  0  0  0
 16 34  1  0  0  0  0
 16 35  1  0  0  0  0
 17 36  1  0  0  0  0
 17 37  1  0  0  0  0
M  CHG  1   3   1
M  END
> <s_m_source_file>
AV-unprocessed.smi

> <i_m_source_file_index>
3143

> <i_lp_mmshare_version>
43012

> <i_f3d_flags>
0

> <s_epik_input>
W0NIMl0xW0NIMl1bQ0gyXVtDSDJdTjFDKD1PKVtDQEhdKFtDSDNdKVtOSF1bQ0gyXVtDSDJdbjJbY0hdW2NIXVtjSF1uMg==

> <s_epik_cmdline>
J2VwaWtfcHl0aG9uJywgJy1waCcsICc3LjAnLCAnLXRuJywgJzgnLCAnLW1hJywgJzIwMCcsICctbWV0YWxfYmluZGluZycsICctaW1hZScsICc8aW5maWxlLm1hZT4nLCAnLW9tYWUnLCAnPG91dGZpbGUubWFlPic=

> <r_lp_tautomer_probability>
1

> <r_epik_Ionization_Penalty>
0.203171

> <r_epik_Ionization_Penalty_Charging>
0.203168

> <r_epik_Ionization_Penalty_Neutral>
2.46932e-06

> <r_epik_State_Penalty>
0.193072

> <r_epik_Charging_Adjusted_Penalty>
0.39624

> <i_epik_Tot_Q>
1

> <i_epik_Tot_abs_Q>
1

> <r_epik_Metal_State_Penalty>
0.193323

> <b_epik_Metal_Only>
0

> <s_lp_Force_Field>
OPLS_2005

> <r_lp_Energy>
30.2015

> <b_lp_Chiralities_Consistent>
1

> <s_lp_Variant>
AV-unprocessed.smi:3143-1

> <Gold.Version>
5.8.1

> <Gold.Id.Protein>
6NUR|6NUR_protein|mol2

> <Gold.PLP.Fitness>
48.2531

> <Gold.PLP.PLP>
-43.8629

> <Gold.PLP.part.hbond>
-1.4835

> <Gold.PLP.part.metal>
0.0000

> <Gold.PLP.part.buried>
-3.3634

> <Gold.PLP.part.nonpolar>
-39.5794

> <Gold.PLP.part.repulsive>
0.2841

> <Gold.PLP.ligand.clash>
0.0000

> <Gold.PLP.ligand.torsion>
0.8217

> <Gold.PLP.Chemscore.Hbond>
2.0000

> <Gold.PLP.Chemscore.CHOScore>
0.0000

> <Gold.PLP.Chemscore.Metal>
0.0000

> <Gold.Chemscore.Hbonds>
donor molecule, donor type, donor heavy atom, donor atom, acceptor molecule, acceptor atom, score
      L1  H     3    38       P1  8028  2.00

> <Gold.PLP.Chemscore.Internal.Correction>
0.0336

> <Gold.Rescore>
     Score         DG    S(hbond)    S(metal)    S(lipo)     H(rot)  DE(clash)    DE(int)     intcor
     14.19     -15.07       0.99        0.00      94.02       1.84       0.05       0.83       ----

> <Gold.Chemscore.Fitness>
14.1903

> <Gold.Chemscore.DG>
-15.0701

> <Gold.Chemscore.ZeroCoef>
-5.4800

> <Gold.Chemscore.Hbond>
0.9886

> <Gold.Chemscore.Metal>
0.0000

> <Gold.Chemscore.Lipo>
94.0167

> <Gold.Chemscore.Internal_Hbond>
0.0000

> <Gold.Chemscore.DEClash>
0.0494

> <Gold.Chemscore.DEInternal>
0.8304

> <Gold.Chemscore.Rot>
1.8405

> <Gold.Chemscore.Internal.Correction>
   9.000000E+99

> <Gold.Chemscore.Hbonds>
donor molecule, donor type, donor heavy atom, donor atom, acceptor molecule, acceptor atom, score
      L1  H     3    38       P1  8028  0.91

> <Gold.Chemscore.Hbond.Weighted>
-3.3019

> <Gold.Chemscore.Metal.Weighted>
-0.0000

> <Gold.Chemscore.Lipo.Weighted>
-10.9999

> <Gold.Chemscore.Internal_Hbond.Weighted>
0.0000

> <Gold.Chemscore.DEClash.Weighted>
0.0494

> <Gold.Chemscore.DEInternal.Weighted>
0.8304

> <Gold.Chemscore.Rot.Weighted>
4.7117

> <Gold.Chemscore.Internal.Correction.Weighted>
   9.000000E+99

> <Gold.Protein.RotatedTorsions>
[ 6907 6896 6895 6894 ] final   28.80 input  -60.11 | X-H torsion
[ 7974 7965 7964 7962 ] final  135.98 input  175.53 | X-H torsion
[ 8008 7997 7996 7995 ] final -119.03 input   59.86 | X-H torsion
[ 10167 10162 10161 10158 ] final  115.43 input  -65.29 | X-H torsion
[ 10718 10713 10712 10709 ] final -121.74 input   66.30 | X-H torsion
[ 10763 10752 10751 10750 ] final -141.79 input  -60.55 | X-H torsion
[ 11005 11000 10999 10996 ] final -156.62 input  -57.11 | X-H torsion

> <Gold.Protein.ActiveResidues>
 VAL166  LYS551  ARG553  GLY616  TRP617  ASP618  TYR619  PRO620  LYS621  CYS622 
 ASP623  PHE694  ASN695  SER759  ASP760  ASP761  ALA762  ILE779  LEU786  VAL792 
 PHE793  MET794  SER795  GLU796  ALA797  LYS798  CYS799  TRP800  GLU811  SER814 

> <Gold.Protein.RotatedAtoms>
  152.0223  134.9816  160.0570 H   0  0  0  0  0  0  0  0  0  0  0  0  # atno 6907 bound_to 6896
  152.1325  133.4411  159.4736 H   0  0  0  0  0  0  0  0  0  0  0  0  # atno 6908 bound_to 6896
  150.6857  134.2321  159.4482 H   0  0  0  0  0  0  0  0  0  0  0  0  # atno 6909 bound_to 6896
  144.9610  139.4710  143.5479 H   0  0  0  0  0  0  0  0  0  0  0  0  # atno 7974 bound_to 7965
  155.1091  140.0397  157.2719 H   0  0  0  0  0  0  0  0  0  0  0  0  # atno 8008 bound_to 7997
  154.6699  140.2610  155.6993 H   0  0  0  0  0  0  0  0  0  0  0  0  # atno 8009 bound_to 7997
  156.2654  140.2800  156.1204 H   0  0  0  0  0  0  0  0  0  0  0  0  # atno 8010 bound_to 7997
  139.6318  144.7115  151.2417 H   0  0  0  0  0  0  0  0  0  0  0  0  # atno 10167 bound_to 10162
  156.1362  130.6432  150.9699 H   0  0  0  0  0  0  0  0  0  0  0  0  # atno 10718 bound_to 10713
  154.8532  135.3514  154.5924 H   0  0  0  0  0  0  0  0  0  0  0  0  # atno 10763 bound_to 10752
  153.6534  135.6993  153.5206 H   0  0  0  0  0  0  0  0  0  0  0  0  # atno 10764 bound_to 10752
  153.2875  135.4244  155.1094 H   0  0  0  0  0  0  0  0  0  0  0  0  # atno 10765 bound_to 10752
  140.6736  134.4221  157.5230 H   0  0  0  0  0  0  0  0  0  0  0  0  # atno 11005 bound_to 11000
  146.3353  139.8760  142.8832 LP  0  0  0  0  0  0  0  0  0  0  0  0  # atno 17320 bound_to 7965
  145.2700  141.0105  143.3777 LP  0  0  0  0  0  0  0  0  0  0  0  0  # atno 17321 bound_to 7965
  140.7443  143.6467  150.8285 LP  0  0  0  0  0  0  0  0  0  0  0  0  # atno 17342 bound_to 10162
  140.0093  143.5660  152.2845 LP  0  0  0  0  0  0  0  0  0  0  0  0  # atno 17343 bound_to 10162
  157.6534  131.0893  150.8001 LP  0  0  0  0  0  0  0  0  0  0  0  0  # atno 17370 bound_to 10713
  156.8080  130.4943  149.5360 LP  0  0  0  0  0  0  0  0  0  0  0  0  # atno 17371 bound_to 10713
  139.8974  134.8638  156.2047 LP  0  0  0  0  0  0  0  0  0  0  0  0  # atno 17394 bound_to 11000
  141.0373  133.6956  156.1535 LP  0  0  0  0  0  0  0  0  0  0  0  0  # atno 17395 bound_to 11000

$$$$
