AV-unprocessed.smi:1244|AV-procd|sdf|5229|dock2
  -GOLD-   22720 4333D 1   1.00000     0.00000
 Structure written by MMmdl.
 55 57  0  0  0  0  0  0  0  0  2 V2000
  147.8135  141.8711  154.8072 C   0  0  0  0  0  0  0  0  0  0  0  0
  149.2885  141.4586  154.8441 C   0  0  2  0  0  0  0  0  0  0  0  0
  149.4692  139.9305  154.7700 C   0  0  0  0  0  0  0  0  0  0  0  0
  150.8703  139.5434  154.8804 N   0  0  0  0  0  0  0  0  0  0  0  0
  151.0278  138.0917  154.7842 C   0  0  0  0  0  0  0  0  0  0  0  0
  149.9233  137.2638  155.4722 C   0  0  0  0  0  0  0  0  0  0  0  0
  149.3778  136.2435  154.5828 N   0  0  0  0  0  0  0  0  0  0  0  0
  149.4393  134.9226  154.7975 C   0  0  0  0  0  0  0  0  0  0  0  0
  150.0404  134.4104  155.7418 O   0  0  0  0  0  0  0  0  0  0  0  0
  148.7371  134.2480  153.8728 N   0  0  0  0  0  0  0  0  0  0  0  0
  148.4837  132.8490  153.8273 C   0  0  0  0  0  0  0  0  0  0  0  0
  149.4366  131.9030  154.2828 C   0  0  0  0  0  0  0  0  0  0  0  0
  149.1443  130.5272  154.2122 C   0  0  0  0  0  0  0  0  0  0  0  0
  147.9083  130.1188  153.6801 C   0  0  0  0  0  0  0  0  0  0  0  0
  147.0296  131.0444  153.2416 N   0  3  0  0  0  0  0  0  0  0  0  0
  147.2560  132.3805  153.2857 C   0  0  0  0  0  0  0  0  0  0  0  0
  146.2739  133.2574  152.7788 N   0  0  0  0  0  0  0  0  0  0  0  0
  146.0855  133.1730  151.3329 C   0  0  0  0  0  0  0  0  0  0  0  0
  144.5905  133.3773  151.0780 C   0  0  0  0  0  0  0  0  0  0  0  0
  143.9494  132.8950  152.3735 C   0  0  0  0  0  0  0  0  0  0  0  0
  144.9655  133.3325  153.4268 C   0  0  0  0  0  0  0  0  0  0  0  0
  151.4174  140.0882  156.1195 C   0  0  0  0  0  0  0  0  0  0  0  0
  151.2394  141.6165  156.2012 C   0  0  2  0  0  0  0  0  0  0  0  0
  151.7327  142.1870  157.5349 C   0  0  0  0  0  0  0  0  0  0  0  0
  149.8576  141.9352  156.0607 O   0  0  0  0  0  0  0  0  0  0  0  0
  147.3362  141.5393  153.8849 H   0  0  0  0  0  0  0  0  0  0  0  0
  147.7108  142.9551  154.8632 H   0  0  0  0  0  0  0  0  0  0  0  0
  147.2625  141.4406  155.6438 H   0  0  0  0  0  0  0  0  0  0  0  0
  149.8049  141.9282  154.0049 H   0  0  0  0  0  0  0  0  0  0  0  0
  148.8915  139.4556  155.5650 H   0  0  0  0  0  0  0  0  0  0  0  0
  149.0597  139.5657  153.8271 H   0  0  0  0  0  0  0  0  0  0  0  0
  151.1007  137.7966  153.7365 H   0  0  0  0  0  0  0  0  0  0  0  0
  151.9806  137.8115  155.2351 H   0  0  0  0  0  0  0  0  0  0  0  0
  150.3117  136.7712  156.3634 H   0  0  0  0  0  0  0  0  0  0  0  0
  149.1247  137.9219  155.8180 H   0  0  0  0  0  0  0  0  0  0  0  0
  148.8624  136.5738  153.7804 H   0  0  0  0  0  0  0  0  0  0  0  0
  148.2167  134.8091  153.2148 H   0  0  0  0  0  0  0  0  0  0  0  0
  150.3929  132.2135  154.6762 H   0  0  0  0  0  0  0  0  0  0  0  0
  149.8607  129.7966  154.5581 H   0  0  0  0  0  0  0  0  0  0  0  0
  147.6005  129.0876  153.5849 H   0  0  0  0  0  0  0  0  0  0  0  0
  146.6802  133.9245  150.8133 H   0  0  0  0  0  0  0  0  0  0  0  0
  146.3951  132.1910  150.9703 H   0  0  0  0  0  0  0  0  0  0  0  0
  144.3802  134.4386  150.9369 H   0  0  0  0  0  0  0  0  0  0  0  0
  144.2321  132.8421  150.1983 H   0  0  0  0  0  0  0  0  0  0  0  0
  142.9564  133.3130  152.5415 H   0  0  0  0  0  0  0  0  0  0  0  0
  143.8649  131.8073  152.3647 H   0  0  0  0  0  0  0  0  0  0  0  0
  144.8761  132.7485  154.3428 H   0  0  0  0  0  0  0  0  0  0  0  0
  144.7915  134.3740  153.6996 H   0  0  0  0  0  0  0  0  0  0  0  0
  150.9308  139.6175  156.9754 H   0  0  0  0  0  0  0  0  0  0  0  0
  152.4790  139.8553  156.1962 H   0  0  0  0  0  0  0  0  0  0  0  0
  151.7946  142.0913  155.3902 H   0  0  0  0  0  0  0  0  0  0  0  0
  152.7927  141.9794  157.6829 H   0  0  0  0  0  0  0  0  0  0  0  0
  151.1858  141.7564  158.3743 H   0  0  0  0  0  0  0  0  0  0  0  0
  151.5981  143.2683  157.5692 H   0  0  0  0  0  0  0  0  0  0  0  0
  146.1453  130.7184  152.8510 H   0  0  0  0  0  0  0  0  0  0  0  0
  1  2  1  0  0  0  0
  1 26  1  0  0  0  0
  1 27  1  0  0  0  0
  1 28  1  0  0  0  0
  2 25  1  0  0  0  0
  2  3  1  0  0  0  0
  2 29  1  0  0  0  0
  3  4  1  0  0  0  0
  3 30  1  0  0  0  0
  3 31  1  0  0  0  0
  4  5  1  0  0  0  0
  4 22  1  0  0  0  0
  5  6  1  0  0  0  0
  5 32  1  0  0  0  0
  5 33  1  0  0  0  0
  6  7  1  0  0  0  0
  6 34  1  0  0  0  0
  6 35  1  0  0  0  0
  7  8  1  0  0  0  0
  7 36  1  0  0  0  0
  8  9  2  0  0  0  0
  8 10  1  0  0  0  0
 10 11  1  0  0  0  0
 10 37  1  0  0  0  0
 11 16  1  0  0  0  0
 11 12  2  0  0  0  0
 12 13  1  0  0  0  0
 12 38  1  0  0  0  0
 13 14  2  0  0  0  0
 13 39  1  0  0  0  0
 14 15  1  0  0  0  0
 14 40  1  0  0  0  0
 15 16  2  0  0  0  0
 15 55  1  0  0  0  0
 16 17  1  0  0  0  0
 17 21  1  0  0  0  0
 17 18  1  0  0  0  0
 18 19  1  0  0  0  0
 18 41  1  0  0  0  0
 18 42  1  0  0  0  0
 19 20  1  0  0  0  0
 19 43  1  0  0  0  0
 19 44  1  0  0  0  0
 20 21  1  0  0  0  0
 20 45  1  0  0  0  0
 20 46  1  0  0  0  0
 21 47  1  0  0  0  0
 21 48  1  0  0  0  0
 22 23  1  0  0  0  0
 22 49  1  0  0  0  0
 22 50  1  0  0  0  0
 23 24  1  0  0  0  0
 23 25  1  0  0  0  0
 23 51  1  0  0  0  0
 24 52  1  0  0  0  0
 24 53  1  0  0  0  0
 24 54  1  0  0  0  0
M  CHG  1  15   1
M  END
> <s_m_source_file>
AV-unprocessed.smi

> <i_m_source_file_index>
1244

> <i_lp_mmshare_version>
43012

> <i_f3d_flags>
0

> <s_epik_input>
W0NIM11bQ0BASF0xW0NIMl1OKFtDSDJdW0NASF0oTzEpW0NIM10pW0NIMl1bQ0gyXVtOSF1DKD1PKVtOSF1jMltjSF1bY0hdW2NIXW5jMk4zW0NIMl1bQ0gyXVtDSDJdW0NIMl0z

> <s_epik_cmdline>
J2VwaWtfcHl0aG9uJywgJy1waCcsICc3LjAnLCAnLXRuJywgJzgnLCAnLW1hJywgJzIwMCcsICctbWV0YWxfYmluZGluZycsICctaW1hZScsICc8aW5maWxlLm1hZT4nLCAnLW9tYWUnLCAnPG91dGZpbGUubWFlPic=

> <r_epik_Ionization_Penalty>
1.38385

> <r_epik_Ionization_Penalty_Charging>
1.11784

> <r_epik_Ionization_Penalty_Neutral>
0.26601

> <r_epik_State_Penalty>
1.46794

> <r_epik_Charging_Adjusted_Penalty>
2.58578

> <i_epik_Tot_Q>
1

> <i_epik_Tot_abs_Q>
1

> <r_epik_Metal_State_Penalty>
1.54908

> <b_epik_Metal_Only>
0

> <s_lp_Force_Field>
OPLS_2005

> <r_lp_Energy>
57.7362

> <b_lp_Chiralities_Consistent>
1

> <s_lp_Variant>
AV-unprocessed.smi:1244-9

> <Gold.Version>
5.8.1

> <Gold.Id.Protein>
6NUR|6NUR_protein|mol2

> <Gold.PLP.Fitness>
50.9629

> <Gold.PLP.PLP>
-44.6088

> <Gold.PLP.part.hbond>
-3.9252

> <Gold.PLP.part.metal>
0.0000

> <Gold.PLP.part.buried>
-3.1007

> <Gold.PLP.part.nonpolar>
-38.6860

> <Gold.PLP.part.repulsive>
2.3110

> <Gold.PLP.ligand.clash>
0.0000

> <Gold.PLP.ligand.torsion>
0.9109

> <Gold.PLP.Chemscore.Hbond>
2.6620

> <Gold.PLP.Chemscore.CHOScore>
0.0000

> <Gold.PLP.Chemscore.Metal>
0.0000

> <Gold.Chemscore.Hbonds>
donor molecule, donor type, donor heavy atom, donor atom, acceptor molecule, acceptor atom, score
      L1  H     7    36       P1  7948  0.67
      L1  H    10    37       P1  7948  0.50
      P1  H  7989  7998       L1     4  0.83

> <Gold.PLP.Chemscore.Internal.Correction>
0.1900

> <Gold.Rescore>
     Score         DG    S(hbond)    S(metal)    S(lipo)     H(rot)  DE(clash)    DE(int)     intcor
     14.56     -16.73       1.10        0.00      99.27       1.58       0.13       2.04       ----

> <Gold.Chemscore.Fitness>
14.5602

> <Gold.Chemscore.DG>
-16.7276

> <Gold.Chemscore.ZeroCoef>
-5.4800

> <Gold.Chemscore.Hbond>
1.1009

> <Gold.Chemscore.Metal>
0.0000

> <Gold.Chemscore.Lipo>
99.2686

> <Gold.Chemscore.Internal_Hbond>
0.0000

> <Gold.Chemscore.DEClash>
0.1307

> <Gold.Chemscore.DEInternal>
2.0367

> <Gold.Chemscore.Rot>
1.5797

> <Gold.Chemscore.Internal.Correction>
   9.000000E+99

> <Gold.Chemscore.Hbonds>
donor molecule, donor type, donor heavy atom, donor atom, acceptor molecule, acceptor atom, score
      L1  H     7    36       P1  7948  0.65
      L1  H    10    37       P1  7948  0.40
      P1  H  7989  7998       L1     4  0.05

> <Gold.Chemscore.Hbond.Weighted>
-3.6771

> <Gold.Chemscore.Metal.Weighted>
-0.0000

> <Gold.Chemscore.Lipo.Weighted>
-11.6144

> <Gold.Chemscore.Internal_Hbond.Weighted>
0.0000

> <Gold.Chemscore.DEClash.Weighted>
0.1307

> <Gold.Chemscore.DEInternal.Weighted>
2.0367

> <Gold.Chemscore.Rot.Weighted>
4.0439

> <Gold.Chemscore.Internal.Correction.Weighted>
   9.000000E+99

> <Gold.Protein.RotatedTorsions>
[ 6907 6896 6895 6894 ] final -141.12 input  -60.11 | X-H torsion
[ 7974 7965 7964 7962 ] final  -95.24 input  175.53 | X-H torsion
[ 8008 7997 7996 7995 ] final   66.25 input   59.86 | X-H torsion
[ 10167 10162 10161 10158 ] final -146.11 input  -65.29 | X-H torsion
[ 10718 10713 10712 10709 ] final -150.02 input   66.30 | X-H torsion
[ 10763 10752 10751 10750 ] final  103.27 input  -60.55 | X-H torsion
[ 11005 11000 10999 10996 ] final  -97.83 input  -57.11 | X-H torsion

> <Gold.Protein.ActiveResidues>
 VAL166  LYS551  ARG553  GLY616  TRP617  ASP618  TYR619  PRO620  LYS621  CYS622 
 ASP623  PHE694  ASN695  SER759  ASP760  ASP761  ALA762  ILE779  LEU786  VAL792 
 PHE793  MET794  SER795  GLU796  ALA797  LYS798  CYS799  TRP800  GLU811  SER814 

> <Gold.Protein.RotatedAtoms>
  151.0696  133.5477  159.2627 H   0  0  0  0  0  0  0  0  0  0  0  0  # atno 6907 bound_to 6896
  151.2421  135.0592  159.9039 H   0  0  0  0  0  0  0  0  0  0  0  0  # atno 6908 bound_to 6896
  152.5409  134.0469  159.8146 H   0  0  0  0  0  0  0  0  0  0  0  0  # atno 6909 bound_to 6896
  145.3627  140.9494  143.2491 H   0  0  0  0  0  0  0  0  0  0  0  0  # atno 7974 bound_to 7965
  155.6744  140.3497  155.4831 H   0  0  0  0  0  0  0  0  0  0  0  0  # atno 8008 bound_to 7997
  155.9661  140.1146  157.0876 H   0  0  0  0  0  0  0  0  0  0  0  0  # atno 8009 bound_to 7997
  154.4154  140.1166  156.5230 H   0  0  0  0  0  0  0  0  0  0  0  0  # atno 8010 bound_to 7997
  139.7744  143.8191  152.2629 H   0  0  0  0  0  0  0  0  0  0  0  0  # atno 10167 bound_to 10162
  156.4407  130.8120  151.2350 H   0  0  0  0  0  0  0  0  0  0  0  0  # atno 10718 bound_to 10713
  153.3505  135.3982  155.1642 H   0  0  0  0  0  0  0  0  0  0  0  0  # atno 10763 bound_to 10752
  154.8661  135.3655  154.5228 H   0  0  0  0  0  0  0  0  0  0  0  0  # atno 10764 bound_to 10752
  153.5679  135.7079  153.5577 H   0  0  0  0  0  0  0  0  0  0  0  0  # atno 10765 bound_to 10752
  141.1366  133.8200  157.0758 H   0  0  0  0  0  0  0  0  0  0  0  0  # atno 11005 bound_to 11000
  144.8634  139.5143  143.6801 LP  0  0  0  0  0  0  0  0  0  0  0  0  # atno 17320 bound_to 7965
  146.2920  139.7167  142.9154 LP  0  0  0  0  0  0  0  0  0  0  0  0  # atno 17321 bound_to 7965
  139.8235  144.7285  150.9542 LP  0  0  0  0  0  0  0  0  0  0  0  0  # atno 17342 bound_to 10162
  140.7815  143.4136  151.0953 LP  0  0  0  0  0  0  0  0  0  0  0  0  # atno 17343 bound_to 10162
  157.7506  131.0169  150.3564 LP  0  0  0  0  0  0  0  0  0  0  0  0  # atno 17370 bound_to 10713
  156.3921  130.3900  149.7022 LP  0  0  0  0  0  0  0  0  0  0  0  0  # atno 17371 bound_to 10713
  140.0482  134.9819  157.1088 LP  0  0  0  0  0  0  0  0  0  0  0  0  # atno 17394 bound_to 11000
  140.4030  134.2062  155.7163 LP  0  0  0  0  0  0  0  0  0  0  0  0  # atno 17395 bound_to 11000

$$$$
