AV-unprocessed.smi:1295|AV-procd|sdf|5404|dock6
  -GOLD-   22720 4563D 1   1.00000     0.00000
 Structure written by MMmdl.
 43 44  0  0  0  0  0  0  0  0  1 V2000
  146.0751  138.2082  152.4406 C   0  0  0  0  0  0  0  0  0  0  0  0
  146.8590  139.3042  153.1310 C   0  0  0  0  0  0  0  0  0  0  0  0
  146.3505  140.4361  153.4922 N   0  0  0  0  0  0  0  0  0  0  0  0
  147.1784  141.3765  154.1211 C   0  0  0  0  0  0  0  0  0  0  0  0
  146.5096  142.6846  154.5079 C   0  0  0  0  0  0  0  0  0  0  0  0
  148.4981  141.1214  154.3616 C   0  0  0  0  0  0  0  0  0  0  0  0
  149.4248  142.1288  155.0402 C   0  0  0  0  0  0  0  0  0  0  0  0
  149.9343  141.7275  156.4264 C   0  0  0  0  0  0  0  0  0  0  0  0
  149.8862  140.5515  156.7869 O   0  0  0  0  0  0  0  0  0  0  0  0
  150.4251  142.7184  157.1870 N   0  0  0  0  0  0  0  0  0  0  0  0
  151.0042  142.5714  158.5215 C   0  0  1  0  0  0  0  0  0  0  0  0
  151.9716  141.3714  158.5073 C   0  0  0  0  0  0  0  0  0  0  0  0
  152.6726  141.1897  159.8610 C   0  0  0  0  0  0  0  0  0  0  0  0
  153.4043  142.4733  160.2750 C   0  0  0  0  0  0  0  0  0  0  0  0
  152.4407  143.6689  160.3106 C   0  0  0  0  0  0  0  0  0  0  0  0
  151.7236  143.8731  158.9603 C   0  0  2  0  0  0  0  0  0  0  0  0
  150.7724  145.0810  159.0352 C   0  0  0  0  0  0  0  0  0  0  0  0
  149.0675  139.8244  153.9474 C   0  0  0  0  0  0  0  0  0  0  0  0
  150.2403  139.4920  154.1119 O   0  0  0  0  0  0  0  0  0  0  0  0
  148.1979  138.9817  153.3462 N   0  0  0  0  0  0  0  0  0  0  0  0
  148.5400  138.0823  153.0411 H   0  0  0  0  0  0  0  0  0  0  0  0
  145.6672  138.5762  151.4989 H   0  0  0  0  0  0  0  0  0  0  0  0
  145.2460  137.8856  153.0711 H   0  0  0  0  0  0  0  0  0  0  0  0
  146.6992  137.3395  152.2260 H   0  0  0  0  0  0  0  0  0  0  0  0
  146.5351  142.8228  155.5888 H   0  0  0  0  0  0  0  0  0  0  0  0
  145.4653  142.7035  154.1939 H   0  0  0  0  0  0  0  0  0  0  0  0
  147.0131  143.5290  154.0373 H   0  0  0  0  0  0  0  0  0  0  0  0
  150.2788  142.3036  154.3847 H   0  0  0  0  0  0  0  0  0  0  0  0
  148.9397  143.1015  155.1267 H   0  0  0  0  0  0  0  0  0  0  0  0
  150.4155  143.6516  156.8017 H   0  0  0  0  0  0  0  0  0  0  0  0
  150.2202  142.3532  159.2493 H   0  0  0  0  0  0  0  0  0  0  0  0
  151.4304  140.4596  158.2509 H   0  0  0  0  0  0  0  0  0  0  0  0
  152.7237  141.5116  157.7293 H   0  0  0  0  0  0  0  0  0  0  0  0
  151.9383  140.9225  160.6220 H   0  0  0  0  0  0  0  0  0  0  0  0
  153.3778  140.3600  159.8063 H   0  0  0  0  0  0  0  0  0  0  0  0
  153.8667  142.3392  161.2534 H   0  0  0  0  0  0  0  0  0  0  0  0
  154.2149  142.6765  159.5742 H   0  0  0  0  0  0  0  0  0  0  0  0
  151.7026  143.5146  161.0990 H   0  0  0  0  0  0  0  0  0  0  0  0
  152.9928  144.5701  160.5794 H   0  0  0  0  0  0  0  0  0  0  0  0
  152.4873  144.1048  158.2162 H   0  0  0  0  0  0  0  0  0  0  0  0
  149.9557  144.8973  159.7341 H   0  0  0  0  0  0  0  0  0  0  0  0
  150.3334  145.3103  158.0642 H   0  0  0  0  0  0  0  0  0  0  0  0
  151.2998  145.9752  159.3682 H   0  0  0  0  0  0  0  0  0  0  0  0
  1  2  1  0  0  0  0
  1 22  1  0  0  0  0
  1 23  1  0  0  0  0
  1 24  1  0  0  0  0
  2 20  1  0  0  0  0
  2  3  2  0  0  0  0
  3  4  1  0  0  0  0
  4  5  1  0  0  0  0
  4  6  2  0  0  0  0
  5 25  1  0  0  0  0
  5 26  1  0  0  0  0
  5 27  1  0  0  0  0
  6  7  1  0  0  0  0
  6 18  1  0  0  0  0
  7  8  1  0  0  0  0
  7 28  1  0  0  0  0
  7 29  1  0  0  0  0
  8  9  2  0  0  0  0
  8 10  1  0  0  0  0
 10 11  1  0  0  0  0
 10 30  1  0  0  0  0
 11 16  1  0  0  0  0
 11 12  1  0  0  0  0
 11 31  1  0  0  0  0
 12 13  1  0  0  0  0
 12 32  1  0  0  0  0
 12 33  1  0  0  0  0
 13 14  1  0  0  0  0
 13 34  1  0  0  0  0
 13 35  1  0  0  0  0
 14 15  1  0  0  0  0
 14 36  1  0  0  0  0
 14 37  1  0  0  0  0
 15 16  1  0  0  0  0
 15 38  1  0  0  0  0
 15 39  1  0  0  0  0
 16 17  1  0  0  0  0
 16 40  1  0  0  0  0
 17 41  1  0  0  0  0
 17 42  1  0  0  0  0
 17 43  1  0  0  0  0
 18 19  2  0  0  0  0
 18 20  1  0  0  0  0
 20 21  1  0  0  0  0
M  END
> <s_m_source_file>
AV-unprocessed.smi

> <i_m_source_file_index>
1295

> <i_lp_mmshare_version>
43012

> <i_f3d_flags>
0

> <s_epik_input>
W0NIM11jMW5jKFtDSDNdKWMoYyg9TylbbkhdMSlbQ0gyXUMoPU8pW05IXVtDQEBIXTJbQ0gyXVtDSDJdW0NIMl1bQ0gyXVtDQEhdMltDSDNd

> <s_epik_cmdline>
J2VwaWtfcHl0aG9uJywgJy1waCcsICc3LjAnLCAnLXRuJywgJzgnLCAnLW1hJywgJzIwMCcsICctbWV0YWxfYmluZGluZycsICctaW1hZScsICc8aW5maWxlLm1hZT4nLCAnLW9tYWUnLCAnPG91dGZpbGUubWFlPic=

> <r_lp_tautomer_probability>
0.839158

> <r_epik_Ionization_Penalty>
0.00037085

> <r_epik_Ionization_Penalty_Charging>
0.000336002

> <r_epik_Ionization_Penalty_Neutral>
3.48485e-05

> <r_epik_State_Penalty>
0.09125

> <r_epik_Charging_Adjusted_Penalty>
0.091586

> <i_epik_Tot_Q>
0

> <i_epik_Tot_abs_Q>
0

> <r_epik_Metal_State_Penalty>
0.251445

> <b_epik_Metal_Only>
0

> <s_lp_Force_Field>
OPLS_2005

> <r_lp_Energy>
11.9106

> <b_lp_Chiralities_Consistent>
1

> <s_lp_Variant>
AV-unprocessed.smi:1295-4

> <Gold.Version>
5.8.1

> <Gold.Id.Protein>
6NUR|6NUR_protein|mol2

> <Gold.PLP.Fitness>
48.2265

> <Gold.PLP.PLP>
-42.3209

> <Gold.PLP.part.hbond>
-4.0000

> <Gold.PLP.part.metal>
0.0000

> <Gold.PLP.part.buried>
0.8978

> <Gold.PLP.part.nonpolar>
-40.7534

> <Gold.PLP.part.repulsive>
1.1624

> <Gold.PLP.ligand.clash>
0.0000

> <Gold.PLP.ligand.torsion>
0.4495

> <Gold.PLP.Chemscore.Hbond>
2.2668

> <Gold.PLP.Chemscore.CHOScore>
0.0000

> <Gold.PLP.Chemscore.Metal>
0.0000

> <Gold.Chemscore.Hbonds>
donor molecule, donor type, donor heavy atom, donor atom, acceptor molecule, acceptor atom, score
      L1  H    10    30       P1  8028  0.41
      L1  H    20    21       P1  7948  0.54
      P1  H  7989  7998       L1    19  0.98

> <Gold.PLP.Chemscore.Internal.Correction>
0.0042

> <Gold.Rescore>
     Score         DG    S(hbond)    S(metal)    S(lipo)     H(rot)  DE(clash)    DE(int)     intcor
     18.93     -22.77       2.70        0.00     103.18       1.48       1.90       1.94       ----

> <Gold.Chemscore.Fitness>
18.9321

> <Gold.Chemscore.DG>
-22.7665

> <Gold.Chemscore.ZeroCoef>
-5.4800

> <Gold.Chemscore.Hbond>
2.6956

> <Gold.Chemscore.Metal>
0.0000

> <Gold.Chemscore.Lipo>
103.1824

> <Gold.Chemscore.Internal_Hbond>
0.0000

> <Gold.Chemscore.DEClash>
1.8992

> <Gold.Chemscore.DEInternal>
1.9352

> <Gold.Chemscore.Rot>
1.4801

> <Gold.Chemscore.Internal.Correction>
   9.000000E+99

> <Gold.Chemscore.Hbonds>
donor molecule, donor type, donor heavy atom, donor atom, acceptor molecule, acceptor atom, score
      L1  H    10    30       P1  8028  0.41
      L1  H    20    21       P1  7948  0.54
      P1  H  7989  7998       L1    19  0.81

> <Gold.Chemscore.Hbond.Weighted>
-9.0033

> <Gold.Chemscore.Metal.Weighted>
-0.0000

> <Gold.Chemscore.Lipo.Weighted>
-12.0723

> <Gold.Chemscore.Internal_Hbond.Weighted>
0.0000

> <Gold.Chemscore.DEClash.Weighted>
1.8992

> <Gold.Chemscore.DEInternal.Weighted>
1.9352

> <Gold.Chemscore.Rot.Weighted>
3.7891

> <Gold.Chemscore.Internal.Correction.Weighted>
   9.000000E+99

> <Gold.Protein.RotatedTorsions>
[ 6907 6896 6895 6894 ] final   98.65 input  -60.11 | X-H torsion
[ 7974 7965 7964 7962 ] final  140.68 input  175.53 | X-H torsion
[ 8008 7997 7996 7995 ] final  103.61 input   59.86 | X-H torsion
[ 10167 10162 10161 10158 ] final -155.95 input  -65.29 | X-H torsion
[ 10718 10713 10712 10709 ] final  110.18 input   66.30 | X-H torsion
[ 10763 10752 10751 10750 ] final   91.95 input  -60.55 | X-H torsion
[ 11005 11000 10999 10996 ] final -157.93 input  -57.11 | X-H torsion

> <Gold.Protein.ActiveResidues>
 VAL166  LYS551  ARG553  GLY616  TRP617  ASP618  TYR619  PRO620  LYS621  CYS622 
 ASP623  PHE694  ASN695  SER759  ASP760  ASP761  ALA762  ILE779  LEU786  VAL792 
 PHE793  MET794  SER795  GLU796  ALA797  LYS798  CYS799  TRP800  GLU811  SER814 

> <Gold.Protein.RotatedAtoms>
  152.5405  134.0547  159.8125 H   0  0  0  0  0  0  0  0  0  0  0  0  # atno 6907 bound_to 6896
  151.0684  133.5479  159.2636 H   0  0  0  0  0  0  0  0  0  0  0  0  # atno 6908 bound_to 6896
  151.2351  135.0577  159.9057 H   0  0  0  0  0  0  0  0  0  0  0  0  # atno 6909 bound_to 6896
  144.9164  139.5225  143.5684 H   0  0  0  0  0  0  0  0  0  0  0  0  # atno 7974 bound_to 7965
  156.1499  140.3162  155.8631 H   0  0  0  0  0  0  0  0  0  0  0  0  # atno 8008 bound_to 7997
  155.3991  140.0498  157.3054 H   0  0  0  0  0  0  0  0  0  0  0  0  # atno 8009 bound_to 7997
  154.5049  140.2143  155.9283 H   0  0  0  0  0  0  0  0  0  0  0  0  # atno 8010 bound_to 7997
  139.6890  143.9453  152.2375 H   0  0  0  0  0  0  0  0  0  0  0  0  # atno 10167 bound_to 10162
  157.6506  131.0928  150.6563 H   0  0  0  0  0  0  0  0  0  0  0  0  # atno 10718 bound_to 10713
  153.2138  135.4379  155.0410 H   0  0  0  0  0  0  0  0  0  0  0  0  # atno 10763 bound_to 10752
  154.8214  135.3339  154.7029 H   0  0  0  0  0  0  0  0  0  0  0  0  # atno 10764 bound_to 10752
  153.7465  135.7001  153.5011 H   0  0  0  0  0  0  0  0  0  0  0  0  # atno 10765 bound_to 10752
  140.6592  134.4368  157.5234 H   0  0  0  0  0  0  0  0  0  0  0  0  # atno 11005 bound_to 11000
  146.3184  139.8010  142.8965 LP  0  0  0  0  0  0  0  0  0  0  0  0  # atno 17320 bound_to 7965
  145.3368  141.0279  143.3415 LP  0  0  0  0  0  0  0  0  0  0  0  0  # atno 17321 bound_to 7965
  139.9264  144.6768  150.8408 LP  0  0  0  0  0  0  0  0  0  0  0  0  # atno 17342 bound_to 10162
  140.7677  143.3339  151.2350 LP  0  0  0  0  0  0  0  0  0  0  0  0  # atno 17343 bound_to 10162
  156.6875  130.4585  149.5609 LP  0  0  0  0  0  0  0  0  0  0  0  0  # atno 17370 bound_to 10713
  156.1885  130.6545  151.1034 LP  0  0  0  0  0  0  0  0  0  0  0  0  # atno 17371 bound_to 10713
  139.9019  134.8537  156.1862 LP  0  0  0  0  0  0  0  0  0  0  0  0  # atno 17394 bound_to 11000
  141.0478  133.6904  156.1716 LP  0  0  0  0  0  0  0  0  0  0  0  0  # atno 17395 bound_to 11000

$$$$
