AV-unprocessed.smi:1130|AV-procd|sdf|4849|dock10
  -GOLD-   22720 3423D 1   1.00000     0.00000
 Structure written by MMmdl.
 36 37  0  0  0  0  0  0  0  0  1 V2000
  149.1290  140.9723  154.5902 C   0  0  0  0  0  0  0  0  0  0  0  0
  150.0224  139.7962  154.7921 C   0  0  0  0  0  0  0  0  0  0  0  0
  151.3440  139.9184  154.7677 N   0  0  0  0  0  0  0  0  0  0  0  0
  151.7938  138.6114  155.0045 O   0  0  0  0  0  0  0  0  0  0  0  0
  150.6778  137.8525  155.1239 C   0  0  0  0  0  0  0  0  0  0  0  0
  150.8222  136.4010  155.4353 C   0  0  0  0  0  0  0  0  0  0  0  0
  149.4646  135.7114  155.6474 C   0  0  0  0  0  0  0  0  0  0  0  0
  148.9070  135.2145  154.3945 N   0  0  0  0  0  0  0  0  0  0  0  0
  148.2940  134.0321  154.2445 C   0  0  0  0  0  0  0  0  0  0  0  0
  148.1219  133.2249  155.1580 O   0  0  0  0  0  0  0  0  0  0  0  0
  147.8900  133.8374  152.9815 N   0  0  0  0  0  0  0  0  0  0  0  0
  147.1680  132.6625  152.5063 C   0  0  0  0  0  0  0  0  0  0  0  0
  146.3068  132.9928  151.2767 C   0  0  1  0  0  0  0  0  0  0  0  0
  145.7488  131.7586  150.5718 C   0  0  0  0  0  0  0  0  0  0  0  0
  144.5610  132.3397  149.8395 C   0  0  0  0  0  0  0  0  0  0  0  0
  144.0340  133.3571  150.8483 C   0  0  0  0  0  0  0  0  0  0  0  0
  145.1528  133.7456  151.6417 O   0  0  0  0  0  0  0  0  0  0  0  0
  149.5444  138.5417  155.0170 N   0  0  0  0  0  0  0  0  0  0  0  0
  149.7086  141.8903  154.4878 H   0  0  0  0  0  0  0  0  0  0  0  0
  148.4556  141.0840  155.4401 H   0  0  0  0  0  0  0  0  0  0  0  0
  148.5310  140.8394  153.6883 H   0  0  0  0  0  0  0  0  0  0  0  0
  151.3683  135.9266  154.6190 H   0  0  0  0  0  0  0  0  0  0  0  0
  151.4410  136.2968  156.3275 H   0  0  0  0  0  0  0  0  0  0  0  0
  149.5806  134.8649  156.3246 H   0  0  0  0  0  0  0  0  0  0  0  0
  148.7594  136.3955  156.1227 H   0  0  0  0  0  0  0  0  0  0  0  0
  149.0002  135.8101  153.5847 H   0  0  0  0  0  0  0  0  0  0  0  0
  148.0800  134.5602  152.3030 H   0  0  0  0  0  0  0  0  0  0  0  0
  147.9072  131.9065  152.2412 H   0  0  0  0  0  0  0  0  0  0  0  0
  146.5570  132.2300  153.3004 H   0  0  0  0  0  0  0  0  0  0  0  0
  146.8811  133.5818  150.5595 H   0  0  0  0  0  0  0  0  0  0  0  0
  146.4715  131.2839  149.9078 H   0  0  0  0  0  0  0  0  0  0  0  0
  145.4127  131.0177  151.2987 H   0  0  0  0  0  0  0  0  0  0  0  0
  144.8943  132.8466  148.9329 H   0  0  0  0  0  0  0  0  0  0  0  0
  143.8184  131.5918  149.5605 H   0  0  0  0  0  0  0  0  0  0  0  0
  143.5737  134.2180  150.3628 H   0  0  0  0  0  0  0  0  0  0  0  0
  143.2900  132.9001  151.5015 H   0  0  0  0  0  0  0  0  0  0  0  0
  1  2  1  0  0  0  0
  1 19  1  0  0  0  0
  1 20  1  0  0  0  0
  1 21  1  0  0  0  0
  2 18  1  0  0  0  0
  2  3  2  0  0  0  0
  3  4  1  0  0  0  0
  4  5  1  0  0  0  0
  5  6  1  0  0  0  0
  5 18  2  0  0  0  0
  6  7  1  0  0  0  0
  6 22  1  0  0  0  0
  6 23  1  0  0  0  0
  7  8  1  0  0  0  0
  7 24  1  0  0  0  0
  7 25  1  0  0  0  0
  8  9  1  0  0  0  0
  8 26  1  0  0  0  0
  9 10  2  0  0  0  0
  9 11  1  0  0  0  0
 11 12  1  0  0  0  0
 11 27  1  0  0  0  0
 12 13  1  0  0  0  0
 12 28  1  0  0  0  0
 12 29  1  0  0  0  0
 13 17  1  0  0  0  0
 13 14  1  0  0  0  0
 13 30  1  0  0  0  0
 14 15  1  0  0  0  0
 14 31  1  0  0  0  0
 14 32  1  0  0  0  0
 15 16  1  0  0  0  0
 15 33  1  0  0  0  0
 15 34  1  0  0  0  0
 16 17  1  0  0  0  0
 16 35  1  0  0  0  0
 16 36  1  0  0  0  0
M  END
> <s_m_source_file>
AV-unprocessed.smi

> <i_m_source_file_index>
1130

> <i_lp_mmshare_version>
43012

> <i_f3d_flags>
0

> <s_epik_input>
W0NIM11jMW5vYyhuMSlbQ0gyXVtDSDJdW05IXUMoPU8pW05IXVtDSDJdW0NAQEhdMltDSDJdW0NIMl1bQ0gyXU8y

> <s_epik_cmdline>
J2VwaWtfcHl0aG9uJywgJy1waCcsICc3LjAnLCAnLXRuJywgJzgnLCAnLW1hJywgJzIwMCcsICctbWV0YWxfYmluZGluZycsICctaW1hZScsICc8aW5maWxlLm1hZT4nLCAnLW9tYWUnLCAnPG91dGZpbGUubWFlPic=

> <r_lp_tautomer_probability>
1

> <r_epik_Ionization_Penalty>
4.67036e-05

> <r_epik_Ionization_Penalty_Charging>
0

> <r_epik_Ionization_Penalty_Neutral>
4.67036e-05

> <r_epik_State_Penalty>
-0

> <r_epik_Charging_Adjusted_Penalty>
0

> <i_epik_Tot_Q>
0

> <i_epik_Tot_abs_Q>
0

> <r_epik_Metal_State_Penalty>
-0

> <b_epik_Metal_Only>
0

> <s_lp_Force_Field>
OPLS_2005

> <r_lp_Energy>
9.65739

> <b_lp_Chiralities_Consistent>
1

> <s_lp_Variant>
AV-unprocessed.smi:1130-2

> <Gold.Version>
5.8.1

> <Gold.Id.Protein>
6NUR|6NUR_protein|mol2

> <Gold.PLP.Fitness>
38.4323

> <Gold.PLP.PLP>
-30.5809

> <Gold.PLP.part.hbond>
-2.9871

> <Gold.PLP.part.metal>
0.0000

> <Gold.PLP.part.buried>
-5.2212

> <Gold.PLP.part.nonpolar>
-23.0238

> <Gold.PLP.part.repulsive>
0.3843

> <Gold.PLP.ligand.clash>
0.0000

> <Gold.PLP.ligand.torsion>
0.5721

> <Gold.PLP.Chemscore.Hbond>
2.9920

> <Gold.PLP.Chemscore.CHOScore>
0.0000

> <Gold.PLP.Chemscore.Metal>
0.0000

> <Gold.Chemscore.Hbonds>
donor molecule, donor type, donor heavy atom, donor atom, acceptor molecule, acceptor atom, score
      L1  H     8    26       P1  7948  1.00
      L1  H    11    27       P1  7948  0.99
      P1  H  7989  7998       L1     3  1.00

> <Gold.PLP.Chemscore.Internal.Correction>
0.0196

> <Gold.Rescore>
     Score         DG    S(hbond)    S(metal)    S(lipo)     H(rot)  DE(clash)    DE(int)     intcor
     14.21     -14.79       2.67        0.00      54.27       2.33       0.00       0.57       ----

> <Gold.Chemscore.Fitness>
14.2145

> <Gold.Chemscore.DG>
-14.7863

> <Gold.Chemscore.ZeroCoef>
-5.4800

> <Gold.Chemscore.Hbond>
2.6701

> <Gold.Chemscore.Metal>
0.0000

> <Gold.Chemscore.Lipo>
54.2725

> <Gold.Chemscore.Internal_Hbond>
0.0000

> <Gold.Chemscore.DEClash>
0.0000

> <Gold.Chemscore.DEInternal>
0.5718

> <Gold.Chemscore.Rot>
2.3288

> <Gold.Chemscore.Internal.Correction>
   9.000000E+99

> <Gold.Chemscore.Hbonds>
donor molecule, donor type, donor heavy atom, donor atom, acceptor molecule, acceptor atom, score
      L1  H     8    26       P1  7948  0.89
      L1  H    11    27       P1  7948  0.28
      P1  H  7989  7998       L1     3  0.49

> <Gold.Chemscore.Hbond.Weighted>
-8.9181

> <Gold.Chemscore.Metal.Weighted>
-0.0000

> <Gold.Chemscore.Lipo.Weighted>
-6.3499

> <Gold.Chemscore.Internal_Hbond.Weighted>
0.0000

> <Gold.Chemscore.DEClash.Weighted>
0.0000

> <Gold.Chemscore.DEInternal.Weighted>
0.5718

> <Gold.Chemscore.Rot.Weighted>
5.9617

> <Gold.Chemscore.Internal.Correction.Weighted>
   9.000000E+99

> <Gold.Protein.RotatedTorsions>
[ 6907 6896 6895 6894 ] final  -72.03 input  -60.11 | X-H torsion
[ 7974 7965 7964 7962 ] final    4.56 input  175.53 | X-H torsion
[ 8008 7997 7996 7995 ] final -144.05 input   59.86 | X-H torsion
[ 10167 10162 10161 10158 ] final  -87.45 input  -65.29 | X-H torsion
[ 10718 10713 10712 10709 ] final -179.38 input   66.30 | X-H torsion
[ 10763 10752 10751 10750 ] final   72.61 input  -60.55 | X-H torsion
[ 11005 11000 10999 10996 ] final -136.83 input  -57.11 | X-H torsion

> <Gold.Protein.ActiveResidues>
 VAL166  LYS551  ARG553  GLY616  TRP617  ASP618  TYR619  PRO620  LYS621  CYS622 
 ASP623  PHE694  ASN695  SER759  ASP760  ASP761  ALA762  ILE779  LEU786  VAL792 
 PHE793  MET794  SER795  GLU796  ALA797  LYS798  CYS799  TRP800  GLU811  SER814 

> <Gold.Protein.RotatedAtoms>
  150.7187  134.5222  159.5659 H   0  0  0  0  0  0  0  0  0  0  0  0  # atno 6907 bound_to 6896
  152.2775  134.7862  160.0412 H   0  0  0  0  0  0  0  0  0  0  0  0  # atno 6908 bound_to 6896
  151.8521  133.3406  159.3713 H   0  0  0  0  0  0  0  0  0  0  0  0  # atno 6909 bound_to 6896
  146.2443  140.0517  142.8374 H   0  0  0  0  0  0  0  0  0  0  0  0  # atno 7974 bound_to 7965
  155.5205  140.0591  157.2907 H   0  0  0  0  0  0  0  0  0  0  0  0  # atno 8008 bound_to 7997
  154.4519  140.1953  156.0440 H   0  0  0  0  0  0  0  0  0  0  0  0  # atno 8009 bound_to 7997
  156.0722  140.3258  155.7593 H   0  0  0  0  0  0  0  0  0  0  0  0  # atno 8010 bound_to 7997
  140.3843  143.2734  151.9344 H   0  0  0  0  0  0  0  0  0  0  0  0  # atno 10167 bound_to 10162
  156.8583  130.9743  151.3086 H   0  0  0  0  0  0  0  0  0  0  0  0  # atno 10718 bound_to 10713
  153.0470  135.5093  154.7770 H   0  0  0  0  0  0  0  0  0  0  0  0  # atno 10763 bound_to 10752
  154.6663  135.2946  154.9804 H   0  0  0  0  0  0  0  0  0  0  0  0  # atno 10764 bound_to 10752
  154.0637  135.6687  153.4868 H   0  0  0  0  0  0  0  0  0  0  0  0  # atno 10765 bound_to 10752
  140.8768  134.1981  157.4616 H   0  0  0  0  0  0  0  0  0  0  0  0  # atno 11005 bound_to 11000
  145.0979  140.9327  143.4730 LP  0  0  0  0  0  0  0  0  0  0  0  0  # atno 17320 bound_to 7965
  145.0703  139.3036  143.5835 LP  0  0  0  0  0  0  0  0  0  0  0  0  # atno 17321 bound_to 7965
  139.4793  144.5788  151.7967 LP  0  0  0  0  0  0  0  0  0  0  0  0  # atno 17342 bound_to 10162
  140.4905  144.1317  150.5949 LP  0  0  0  0  0  0  0  0  0  0  0  0  # atno 17343 bound_to 10162
  157.6264  130.8695  149.9198 LP  0  0  0  0  0  0  0  0  0  0  0  0  # atno 17370 bound_to 10713
  156.0790  130.3675  150.0618 LP  0  0  0  0  0  0  0  0  0  0  0  0  # atno 17371 bound_to 10713
  139.8716  134.9799  156.5056 LP  0  0  0  0  0  0  0  0  0  0  0  0  # atno 17394 bound_to 11000
  140.8508  133.8133  155.9167 LP  0  0  0  0  0  0  0  0  0  0  0  0  # atno 17395 bound_to 11000

$$$$
