AV-unprocessed.smi:2525|AV-procd|sdf|9932|dock1
  -GOLD-   2272013573D 1   1.00000     0.00000
 Structure written by MMmdl.
 44 45  0  0  0  0  0  0  0  0  1 V2000
  146.6994  142.6878  153.8753 C   0  0  0  0  0  0  0  0  0  0  0  0
  147.2052  141.2781  153.5150 C   0  0  0  0  0  0  0  0  0  0  0  0
  147.7412  140.4035  154.6844 C   0  0  0  0  0  0  0  0  0  0  0  0
  146.7121  140.4074  155.8356 C   0  0  0  0  0  0  0  0  0  0  0  0
  146.7187  141.6785  156.7006 C   0  0  0  0  0  0  0  0  0  0  0  0
  148.3353  139.0098  154.3359 C   0  0  1  0  0  0  0  0  0  0  0  0
  147.8275  138.3992  153.1137 N   0  0  0  0  0  0  0  0  0  0  0  0
  146.5349  138.1376  152.8685 C   0  0  0  0  0  0  0  0  0  0  0  0
  145.6254  138.4165  153.6491 O   0  0  0  0  0  0  0  0  0  0  0  0
  146.2165  137.4689  151.5301 C   0  0  0  0  0  0  0  0  0  0  0  0
  145.4800  136.2309  151.7196 N   0  0  0  0  0  0  0  0  0  0  0  0
  145.0307  135.3425  150.7642 C   0  0  0  0  0  0  0  0  0  0  0  0
  144.3992  134.3793  151.4978 C   0  0  0  0  0  0  0  0  0  0  0  0
  144.4894  134.7147  152.8475 N   0  0  0  0  0  0  0  0  0  0  0  0
  145.1415  135.8281  152.9685 N   0  0  0  0  0  0  0  0  0  0  0  0
  149.7063  139.6604  154.1303 C   0  0  2  0  0  0  0  0  0  0  0  0
  150.9697  138.8647  154.4351 C   0  0  0  0  0  0  0  0  0  0  0  0
  149.2023  140.7542  155.0895 C   0  0  2  0  0  0  0  0  0  0  0  0
  149.4709  140.4464  156.4537 O   0  0  0  0  0  0  0  0  0  0  0  0
  150.8041  140.7362  156.8373 C   0  0  0  0  0  0  0  0  0  0  0  0
  146.2317  143.1543  153.0082 H   0  0  0  0  0  0  0  0  0  0  0  0
  147.5116  143.3441  154.1860 H   0  0  0  0  0  0  0  0  0  0  0  0
  145.9588  142.6713  154.6724 H   0  0  0  0  0  0  0  0  0  0  0  0
  146.3891  140.7636  153.0087 H   0  0  0  0  0  0  0  0  0  0  0  0
  147.9739  141.3793  152.7486 H   0  0  0  0  0  0  0  0  0  0  0  0
  145.7063  140.2273  155.4580 H   0  0  0  0  0  0  0  0  0  0  0  0
  146.8979  139.5600  156.4962 H   0  0  0  0  0  0  0  0  0  0  0  0
  146.0206  141.5788  157.5319 H   0  0  0  0  0  0  0  0  0  0  0  0
  146.4209  142.5590  156.1321 H   0  0  0  0  0  0  0  0  0  0  0  0
  147.7058  141.8687  157.1221 H   0  0  0  0  0  0  0  0  0  0  0  0
  148.3488  138.3351  155.1957 H   0  0  0  0  0  0  0  0  0  0  0  0
  148.5078  138.1400  152.4139 H   0  0  0  0  0  0  0  0  0  0  0  0
  145.6202  138.1384  150.9088 H   0  0  0  0  0  0  0  0  0  0  0  0
  147.1424  137.2673  150.9887 H   0  0  0  0  0  0  0  0  0  0  0  0
  145.1886  135.4713  149.7034 H   0  0  0  0  0  0  0  0  0  0  0  0
  143.8914  133.4836  151.1713 H   0  0  0  0  0  0  0  0  0  0  0  0
  149.7731  140.0813  153.1254 H   0  0  0  0  0  0  0  0  0  0  0  0
  150.9405  138.4299  155.4345 H   0  0  0  0  0  0  0  0  0  0  0  0
  151.8579  139.4932  154.3707 H   0  0  0  0  0  0  0  0  0  0  0  0
  151.0953  138.0453  153.7269 H   0  0  0  0  0  0  0  0  0  0  0  0
  149.4915  141.7684  154.8078 H   0  0  0  0  0  0  0  0  0  0  0  0
  150.9573  140.4428  157.8758 H   0  0  0  0  0  0  0  0  0  0  0  0
  151.0086  141.8044  156.7569 H   0  0  0  0  0  0  0  0  0  0  0  0
  151.5263  140.1963  156.2247 H   0  0  0  0  0  0  0  0  0  0  0  0
  1  2  1  0  0  0  0
  1 21  1  0  0  0  0
  1 22  1  0  0  0  0
  1 23  1  0  0  0  0
  2  3  1  0  0  0  0
  2 24  1  0  0  0  0
  2 25  1  0  0  0  0
  3 18  1  0  0  0  0
  3  4  1  0  0  0  0
  3  6  1  0  0  0  0
  4  5  1  0  0  0  0
  4 26  1  0  0  0  0
  4 27  1  0  0  0  0
  5 28  1  0  0  0  0
  5 29  1  0  0  0  0
  5 30  1  0  0  0  0
  6  7  1  0  0  0  0
  6 16  1  0  0  0  0
  6 31  1  0  0  0  0
  7  8  1  0  0  0  0
  7 32  1  0  0  0  0
  8  9  2  0  0  0  0
  8 10  1  0  0  0  0
 10 11  1  0  0  0  0
 10 33  1  0  0  0  0
 10 34  1  0  0  0  0
 11 15  1  0  0  0  0
 11 12  1  0  0  0  0
 12 13  2  0  0  0  0
 12 35  1  0  0  0  0
 13 14  1  0  0  0  0
 13 36  1  0  0  0  0
 14 15  2  0  0  0  0
 16 17  1  0  0  0  0
 16 18  1  0  0  0  0
 16 37  1  0  0  0  0
 17 38  1  0  0  0  0
 17 39  1  0  0  0  0
 17 40  1  0  0  0  0
 18 19  1  0  0  0  0
 18 41  1  0  0  0  0
 19 20  1  0  0  0  0
 20 42  1  0  0  0  0
 20 43  1  0  0  0  0
 20 44  1  0  0  0  0
M  END
> <s_m_source_file>
AV-unprocessed.smi

> <i_m_source_file_index>
2525

> <i_lp_mmshare_version>
43012

> <i_f3d_flags>
0

> <s_epik_input>
W0NIM11PW0NAQEhdMVtDQEhdKFtDSDNdKVtDQEBIXShDMShbQ0gyXVtDSDNdKVtDSDJdW0NIM10pW05IXUMoPU8pW0NIMl1uMltjSF1bY0hdbm4y

> <s_epik_cmdline>
J2VwaWtfcHl0aG9uJywgJy1waCcsICc3LjAnLCAnLXRuJywgJzgnLCAnLW1hJywgJzIwMCcsICctbWV0YWxfYmluZGluZycsICctaW1hZScsICc8aW5maWxlLm1hZT4nLCAnLW9tYWUnLCAnPG91dGZpbGUubWFlPic=

> <r_lp_tautomer_probability>
1

> <r_epik_Ionization_Penalty>
1.18045e-06

> <r_epik_Ionization_Penalty_Charging>
0

> <r_epik_Ionization_Penalty_Neutral>
1.18045e-06

> <r_epik_State_Penalty>
-0

> <r_epik_Charging_Adjusted_Penalty>
0

> <i_epik_Tot_Q>
0

> <i_epik_Tot_abs_Q>
0

> <r_epik_Metal_State_Penalty>
-0

> <b_epik_Metal_Only>
0

> <s_lp_Force_Field>
OPLS_2005

> <r_lp_Energy>
28.9829

> <b_lp_Chiralities_Consistent>
1

> <s_lp_Variant>
AV-unprocessed.smi:2525-7

> <Gold.Version>
5.8.1

> <Gold.Id.Protein>
6NUR|6NUR_protein|mol2

> <Gold.PLP.Fitness>
33.7712

> <Gold.PLP.PLP>
-29.6760

> <Gold.PLP.part.hbond>
-1.7583

> <Gold.PLP.part.metal>
0.0000

> <Gold.PLP.part.buried>
-1.1801

> <Gold.PLP.part.nonpolar>
-28.1398

> <Gold.PLP.part.repulsive>
1.0442

> <Gold.PLP.ligand.clash>
0.0000

> <Gold.PLP.ligand.torsion>
0.7170

> <Gold.PLP.Chemscore.Hbond>
0.5600

> <Gold.PLP.Chemscore.CHOScore>
1.0000

> <Gold.PLP.Chemscore.Metal>
0.0000

> <Gold.Chemscore.Hbonds>
donor molecule, donor type, donor heavy atom, donor atom, acceptor molecule, acceptor atom, score
      L1  H     7    32       P1  7948  0.53
      L1  C    12    35       P1  7921  1.00

> <Gold.PLP.Chemscore.Internal.Correction>
0.8494

> <Gold.Rescore>
     Score         DG    S(hbond)    S(metal)    S(lipo)     H(rot)  DE(clash)    DE(int)     intcor
      7.06     -10.91       0.63        0.00      71.85       1.98       0.52       3.33       ----

> <Gold.Chemscore.Fitness>
7.0604

> <Gold.Chemscore.DG>
-10.9113

> <Gold.Chemscore.ZeroCoef>
-5.4800

> <Gold.Chemscore.Hbond>
0.6280

> <Gold.Chemscore.Metal>
0.0000

> <Gold.Chemscore.Lipo>
71.8535

> <Gold.Chemscore.Internal_Hbond>
0.0000

> <Gold.Chemscore.DEClash>
0.5248

> <Gold.Chemscore.DEInternal>
3.3260

> <Gold.Chemscore.Rot>
1.9817

> <Gold.Chemscore.Internal.Correction>
   9.000000E+99

> <Gold.Chemscore.Hbonds>
donor molecule, donor type, donor heavy atom, donor atom, acceptor molecule, acceptor atom, score
      L1  H     7    32       P1  7948  0.52

> <Gold.Chemscore.Hbond.Weighted>
-2.0975

> <Gold.Chemscore.Metal.Weighted>
-0.0000

> <Gold.Chemscore.Lipo.Weighted>
-8.4069

> <Gold.Chemscore.Internal_Hbond.Weighted>
0.0000

> <Gold.Chemscore.DEClash.Weighted>
0.5248

> <Gold.Chemscore.DEInternal.Weighted>
3.3260

> <Gold.Chemscore.Rot.Weighted>
5.0731

> <Gold.Chemscore.Internal.Correction.Weighted>
   9.000000E+99

> <Gold.Protein.RotatedTorsions>
[ 6907 6896 6895 6894 ] final  -54.30 input  -60.11 | X-H torsion
[ 7974 7965 7964 7962 ] final  155.44 input  175.53 | X-H torsion
[ 8008 7997 7996 7995 ] final  102.78 input   59.86 | X-H torsion
[ 10167 10162 10161 10158 ] final   41.32 input  -65.29 | X-H torsion
[ 10718 10713 10712 10709 ] final   12.70 input   66.30 | X-H torsion
[ 10763 10752 10751 10750 ] final -163.27 input  -60.55 | X-H torsion
[ 11005 11000 10999 10996 ] final   50.32 input  -57.11 | X-H torsion

> <Gold.Protein.ActiveResidues>
 VAL166  LYS551  ARG553  GLY616  TRP617  ASP618  TYR619  PRO620  LYS621  CYS622 
 ASP623  PHE694  ASN695  SER759  ASP760  ASP761  ALA762  ILE779  LEU786  VAL792 
 PHE793  MET794  SER795  GLU796  ALA797  LYS798  CYS799  TRP800  GLU811  SER814 

> <Gold.Protein.RotatedAtoms>
  150.8350  134.7619  159.6884 H   0  0  0  0  0  0  0  0  0  0  0  0  # atno 6907 bound_to 6896
  152.4448  134.5513  159.9877 H   0  0  0  0  0  0  0  0  0  0  0  0  # atno 6908 bound_to 6896
  151.5666  133.3358  159.3017 H   0  0  0  0  0  0  0  0  0  0  0  0  # atno 6909 bound_to 6896
  144.8025  139.7068  143.6176 H   0  0  0  0  0  0  0  0  0  0  0  0  # atno 7974 bound_to 7965
  156.1424  140.3175  155.8516 H   0  0  0  0  0  0  0  0  0  0  0  0  # atno 8008 bound_to 7997
  155.4129  140.0507  157.3047 H   0  0  0  0  0  0  0  0  0  0  0  0  # atno 8009 bound_to 7997
  154.4987  140.2121  155.9404 H   0  0  0  0  0  0  0  0  0  0  0  0  # atno 8010 bound_to 7997
  140.3654  144.2174  150.6135 H   0  0  0  0  0  0  0  0  0  0  0  0  # atno 10167 bound_to 10162
  157.0140  130.6128  149.5712 H   0  0  0  0  0  0  0  0  0  0  0  0  # atno 10718 bound_to 10713
  154.7138  135.3011  154.9155 H   0  0  0  0  0  0  0  0  0  0  0  0  # atno 10763 bound_to 10752
  154.0049  135.6702  153.4765 H   0  0  0  0  0  0  0  0  0  0  0  0  # atno 10764 bound_to 10752
  153.0777  135.5026  154.8352 H   0  0  0  0  0  0  0  0  0  0  0  0  # atno 10765 bound_to 10752
  140.1027  134.5059  155.8748 H   0  0  0  0  0  0  0  0  0  0  0  0  # atno 11005 bound_to 11000
  146.2309  139.5813  142.9555 LP  0  0  0  0  0  0  0  0  0  0  0  0  # atno 17320 bound_to 7965
  145.5518  141.0412  143.2274 LP  0  0  0  0  0  0  0  0  0  0  0  0  # atno 17321 bound_to 7965
  140.5085  143.2297  151.8571 LP  0  0  0  0  0  0  0  0  0  0  0  0  # atno 17342 bound_to 10162
  139.4809  144.4977  151.9102 LP  0  0  0  0  0  0  0  0  0  0  0  0  # atno 17343 bound_to 10162
  156.0126  130.5218  150.8035 LP  0  0  0  0  0  0  0  0  0  0  0  0  # atno 17370 bound_to 10713
  157.5299  131.0936  150.9968 LP  0  0  0  0  0  0  0  0  0  0  0  0  # atno 17371 bound_to 10713
  141.2110  133.6701  156.6550 LP  0  0  0  0  0  0  0  0  0  0  0  0  # atno 17394 bound_to 11000
  140.3198  134.8017  157.4243 LP  0  0  0  0  0  0  0  0  0  0  0  0  # atno 17395 bound_to 11000

$$$$
