AV-unprocessed.smi:565|AV-procd|sdf|2954|dock6
  -GOLD-   2262023453D 1   1.00000     0.00000
 Structure written by MMmdl.
 50 51  0  0  0  0  0  0  0  0  2 V2000
  152.7098  138.3317  154.6376 C   0  0  0  0  0  0  0  0  0  0  0  0
  151.8393  139.3582  155.3047 C   0  0  0  0  0  0  0  0  0  0  0  0
  152.3517  140.1247  156.2529 N   0  0  0  0  0  0  0  0  0  0  0  0
  151.3351  140.9203  156.6403 N   0  0  0  0  0  0  0  0  0  0  0  0
  151.5576  141.8978  157.6879 C   0  0  0  0  0  0  0  0  0  0  0  0
  150.1782  140.6592  155.9321 C   0  0  0  0  0  0  0  0  0  0  0  0
  148.9078  141.4074  156.1793 C   0  0  0  0  0  0  0  0  0  0  0  0
  150.4648  139.6453  155.0563 C   0  0  0  0  0  0  0  0  0  0  0  0
  149.5555  138.9686  154.0614 C   0  0  0  0  0  0  0  0  0  0  0  0
  148.4824  138.1797  154.8109 C   0  0  0  0  0  0  0  0  0  0  0  0
  147.8646  138.7030  155.7380 O   0  0  0  0  0  0  0  0  0  0  0  0
  148.2553  136.9264  154.3874 N   0  0  0  0  0  0  0  0  0  0  0  0
  147.2260  136.0413  154.9165 C   0  0  0  0  0  0  0  0  0  0  0  0
  147.2290  134.6856  154.1839 C   0  0  0  0  0  0  0  0  0  0  0  0
  146.7435  134.7951  152.7856 N   0  3  2  0  0  0  0  0  0  0  0  0
  145.6072  135.7437  152.6600 C   0  0  0  0  0  0  0  0  0  0  0  0
  145.2145  135.9454  151.1880 C   0  0  0  0  0  0  0  0  0  0  0  0
  144.8793  134.6055  150.5214 C   0  0  0  0  0  0  0  0  0  0  0  0
  146.0502  133.6214  150.6842 C   0  0  2  0  0  0  0  0  0  0  0  0
  145.7299  132.2604  150.0501 C   0  0  0  0  0  0  0  0  0  0  0  0
  146.4233  133.4769  152.1736 C   0  0  0  0  0  0  0  0  0  0  0  0
  152.1675  137.3991  154.4819 H   0  0  0  0  0  0  0  0  0  0  0  0
  153.5929  138.1018  155.2351 H   0  0  0  0  0  0  0  0  0  0  0  0
  153.0496  138.6847  153.6639 H   0  0  0  0  0  0  0  0  0  0  0  0
  150.7719  141.8181  158.4395 H   0  0  0  0  0  0  0  0  0  0  0  0
  151.5423  142.9008  157.2605 H   0  0  0  0  0  0  0  0  0  0  0  0
  152.5221  141.7326  158.1703 H   0  0  0  0  0  0  0  0  0  0  0  0
  148.1774  141.2193  155.3928 H   0  0  0  0  0  0  0  0  0  0  0  0
  149.0875  142.4823  156.2141 H   0  0  0  0  0  0  0  0  0  0  0  0
  148.4634  141.1073  157.1283 H   0  0  0  0  0  0  0  0  0  0  0  0
  149.0769  139.6875  153.3961 H   0  0  0  0  0  0  0  0  0  0  0  0
  150.1119  138.2880  153.4160 H   0  0  0  0  0  0  0  0  0  0  0  0
  148.8144  136.5763  153.6227 H   0  0  0  0  0  0  0  0  0  0  0  0
  147.4226  135.8903  155.9782 H   0  0  0  0  0  0  0  0  0  0  0  0
  146.2570  136.5359  154.8470 H   0  0  0  0  0  0  0  0  0  0  0  0
  148.2226  134.2350  154.1899 H   0  0  0  0  0  0  0  0  0  0  0  0
  146.5822  134.0046  154.7392 H   0  0  0  0  0  0  0  0  0  0  0  0
  144.7552  135.3711  153.2310 H   0  0  0  0  0  0  0  0  0  0  0  0
  145.8805  136.7082  153.0900 H   0  0  0  0  0  0  0  0  0  0  0  0
  144.3604  136.6198  151.1191 H   0  0  0  0  0  0  0  0  0  0  0  0
  146.0334  136.4275  150.6521 H   0  0  0  0  0  0  0  0  0  0  0  0
  143.9763  134.1888  150.9699 H   0  0  0  0  0  0  0  0  0  0  0  0
  144.6591  134.7617  149.4647 H   0  0  0  0  0  0  0  0  0  0  0  0
  146.9138  134.0327  150.1587 H   0  0  0  0  0  0  0  0  0  0  0  0
  144.8719  131.7902  150.5318 H   0  0  0  0  0  0  0  0  0  0  0  0
  146.5756  131.5775  150.1358 H   0  0  0  0  0  0  0  0  0  0  0  0
  145.4993  132.3658  148.9896 H   0  0  0  0  0  0  0  0  0  0  0  0
  147.2780  132.8070  152.2601 H   0  0  0  0  0  0  0  0  0  0  0  0
  145.6039  133.0111  152.7240 H   0  0  0  0  0  0  0  0  0  0  0  0
  147.5014  135.1936  152.2500 H   0  0  0  0  0  0  0  0  0  0  0  0
  1  2  1  0  0  0  0
  1 22  1  0  0  0  0
  1 23  1  0  0  0  0
  1 24  1  0  0  0  0
  2  8  1  0  0  0  0
  2  3  2  0  0  0  0
  3  4  1  0  0  0  0
  4  5  1  0  0  0  0
  4  6  1  0  0  0  0
  5 25  1  0  0  0  0
  5 26  1  0  0  0  0
  5 27  1  0  0  0  0
  6  7  1  0  0  0  0
  6  8  2  0  0  0  0
  7 28  1  0  0  0  0
  7 29  1  0  0  0  0
  7 30  1  0  0  0  0
  8  9  1  0  0  0  0
  9 10  1  0  0  0  0
  9 31  1  0  0  0  0
  9 32  1  0  0  0  0
 10 11  2  0  0  0  0
 10 12  1  0  0  0  0
 12 13  1  0  0  0  0
 12 33  1  0  0  0  0
 13 14  1  0  0  0  0
 13 34  1  0  0  0  0
 13 35  1  0  0  0  0
 14 15  1  0  0  0  0
 14 36  1  0  0  0  0
 14 37  1  0  0  0  0
 15 21  1  0  0  0  0
 15 16  1  0  0  0  0
 15 50  1  0  0  0  0
 16 17  1  0  0  0  0
 16 38  1  0  0  0  0
 16 39  1  0  0  0  0
 17 18  1  0  0  0  0
 17 40  1  0  0  0  0
 17 41  1  0  0  0  0
 18 19  1  0  0  0  0
 18 42  1  0  0  0  0
 18 43  1  0  0  0  0
 19 20  1  0  0  0  0
 19 21  1  0  0  0  0
 19 44  1  0  0  0  0
 20 45  1  0  0  0  0
 20 46  1  0  0  0  0
 20 47  1  0  0  0  0
 21 48  1  0  0  0  0
 21 49  1  0  0  0  0
M  CHG  1  15   1
M  END
> <s_m_source_file>
AV-unprocessed.smi

> <i_m_source_file_index>
565

> <i_lp_mmshare_version>
43012

> <i_f3d_flags>
0

> <s_epik_input>
W0NIM11jMW5uKFtDSDNdKWMoW0NIM10pYzFbQ0gyXUMoPU8pW05IXVtDSDJdW0NIMl1OMltDSDJdW0NIMl1bQ0gyXVtDQEBIXShbQ0gzXSlbQ0gyXTI=

> <s_epik_cmdline>
J2VwaWtfcHl0aG9uJywgJy1waCcsICc3LjAnLCAnLXRuJywgJzgnLCAnLW1hJywgJzIwMCcsICctbWV0YWxfYmluZGluZycsICctaW1hZScsICc8aW5maWxlLm1hZT4nLCAnLW9tYWUnLCAnPG91dGZpbGUubWFlPic=

> <r_lp_tautomer_probability>
1

> <r_epik_Ionization_Penalty>
0.00411138

> <r_epik_Ionization_Penalty_Charging>
0.0019503

> <r_epik_Ionization_Penalty_Neutral>
0.00216107

> <r_epik_State_Penalty>
-0

> <r_epik_Charging_Adjusted_Penalty>
0.0019503

> <i_epik_Tot_Q>
1

> <i_epik_Tot_abs_Q>
1

> <r_epik_Metal_State_Penalty>
-0

> <b_epik_Metal_Only>
0

> <s_lp_Force_Field>
OPLS_2005

> <r_lp_Energy>
10.1844

> <b_lp_Chiralities_Consistent>
1

> <s_lp_Variant>
AV-unprocessed.smi:565-4

> <Gold.Version>
5.8.1

> <Gold.Id.Protein>
6NUR|6NUR_protein|mol2

> <Gold.PLP.Fitness>
47.8746

> <Gold.PLP.PLP>
-36.7660

> <Gold.PLP.part.hbond>
-3.0000

> <Gold.PLP.part.metal>
0.0000

> <Gold.PLP.part.buried>
-0.6245

> <Gold.PLP.part.nonpolar>
-32.7283

> <Gold.PLP.part.repulsive>
0.0143

> <Gold.PLP.ligand.clash>
0.0000

> <Gold.PLP.ligand.torsion>
0.3774

> <Gold.PLP.Chemscore.Hbond>
3.9440

> <Gold.PLP.Chemscore.CHOScore>
0.0000

> <Gold.PLP.Chemscore.Metal>
0.0000

> <Gold.Chemscore.Hbonds>
donor molecule, donor type, donor heavy atom, donor atom, acceptor molecule, acceptor atom, score
      L1  H    12    33       P1  7948  0.99
      L1  H    15    50       P1  7948  2.00
      P1  H  7997  8009       L1     3  1.00

> <Gold.PLP.Chemscore.Internal.Correction>
0.0313

> <Gold.Rescore>
     Score         DG    S(hbond)    S(metal)    S(lipo)     H(rot)  DE(clash)    DE(int)     intcor
     20.60     -21.85       2.90        0.00      92.37       1.61       0.74       0.51       ----

> <Gold.Chemscore.Fitness>
20.5979

> <Gold.Chemscore.DG>
-21.8536

> <Gold.Chemscore.ZeroCoef>
-5.4800

> <Gold.Chemscore.Hbond>
2.9038

> <Gold.Chemscore.Metal>
0.0000

> <Gold.Chemscore.Lipo>
92.3704

> <Gold.Chemscore.Internal_Hbond>
0.0000

> <Gold.Chemscore.DEClash>
0.7435

> <Gold.Chemscore.DEInternal>
0.5122

> <Gold.Chemscore.Rot>
1.6142

> <Gold.Chemscore.Internal.Correction>
   9.000000E+99

> <Gold.Chemscore.Hbonds>
donor molecule, donor type, donor heavy atom, donor atom, acceptor molecule, acceptor atom, score
      L1  H    12    33       P1  7948  0.93
      L1  H    15    50       P1  7948  0.99
      P1  H  7997  8009       L1     3  0.91

> <Gold.Chemscore.Hbond.Weighted>
-9.6987

> <Gold.Chemscore.Metal.Weighted>
-0.0000

> <Gold.Chemscore.Lipo.Weighted>
-10.8073

> <Gold.Chemscore.Internal_Hbond.Weighted>
0.0000

> <Gold.Chemscore.DEClash.Weighted>
0.7435

> <Gold.Chemscore.DEInternal.Weighted>
0.5122

> <Gold.Chemscore.Rot.Weighted>
4.1324

> <Gold.Chemscore.Internal.Correction.Weighted>
   9.000000E+99

> <Gold.Protein.RotatedTorsions>
[ 6907 6896 6895 6894 ] final   70.09 input  -60.11 | X-H torsion
[ 7974 7965 7964 7962 ] final  -94.71 input  175.53 | X-H torsion
[ 8008 7997 7996 7995 ] final -167.48 input   59.86 | X-H torsion
[ 10167 10162 10161 10158 ] final   98.01 input  -65.29 | X-H torsion
[ 10718 10713 10712 10709 ] final -142.66 input   66.30 | X-H torsion
[ 10763 10752 10751 10750 ] final  -75.57 input  -60.55 | X-H torsion
[ 11005 11000 10999 10996 ] final -147.10 input  -57.11 | X-H torsion

> <Gold.Protein.ActiveResidues>
 VAL166  LYS551  ARG553  GLY616  TRP617  ASP618  TYR619  PRO620  LYS621  CYS622 
 ASP623  PHE694  ASN695  SER759  ASP760  ASP761  ALA762  ILE779  LEU786  VAL792 
 PHE793  MET794  SER795  GLU796  ALA797  LYS798  CYS799  TRP800  GLU811  SER814 

> <Gold.Protein.RotatedAtoms>
  152.4728  134.4919  159.9697 H   0  0  0  0  0  0  0  0  0  0  0  0  # atno 6907 bound_to 6896
  151.4942  133.3512  159.2866 H   0  0  0  0  0  0  0  0  0  0  0  0  # atno 6908 bound_to 6896
  150.8748  134.8156  159.7243 H   0  0  0  0  0  0  0  0  0  0  0  0  # atno 6909 bound_to 6896
  145.3697  140.9503  143.2454 H   0  0  0  0  0  0  0  0  0  0  0  0  # atno 7974 bound_to 7965
  155.8783  140.1004  157.1503 H   0  0  0  0  0  0  0  0  0  0  0  0  # atno 8008 bound_to 7997
  154.4003  140.1334  156.4227 H   0  0  0  0  0  0  0  0  0  0  0  0  # atno 8009 bound_to 7997
  155.7672  140.3461  155.5231 H   0  0  0  0  0  0  0  0  0  0  0  0  # atno 8010 bound_to 7997
  139.7748  144.6909  151.0104 H   0  0  0  0  0  0  0  0  0  0  0  0  # atno 10167 bound_to 10162
  156.3486  130.7676  151.1825 H   0  0  0  0  0  0  0  0  0  0  0  0  # atno 10718 bound_to 10713
  154.4884  135.5826  153.6441 H   0  0  0  0  0  0  0  0  0  0  0  0  # atno 10763 bound_to 10752
  152.9858  135.6106  154.3157 H   0  0  0  0  0  0  0  0  0  0  0  0  # atno 10764 bound_to 10752
  154.3054  135.2846  155.2570 H   0  0  0  0  0  0  0  0  0  0  0  0  # atno 10765 bound_to 10752
  140.7752  134.3143  157.5063 H   0  0  0  0  0  0  0  0  0  0  0  0  # atno 11005 bound_to 11000
  144.8585  139.5213  143.6823 LP  0  0  0  0  0  0  0  0  0  0  0  0  # atno 17320 bound_to 7965
  146.2891  139.7087  142.9174 LP  0  0  0  0  0  0  0  0  0  0  0  0  # atno 17321 bound_to 7965
  140.7816  143.4548  151.0362 LP  0  0  0  0  0  0  0  0  0  0  0  0  # atno 17342 bound_to 10162
  139.8230  143.7794  152.3177 LP  0  0  0  0  0  0  0  0  0  0  0  0  # atno 17343 bound_to 10162
  157.7458  131.0434  150.4741 LP  0  0  0  0  0  0  0  0  0  0  0  0  # atno 17370 bound_to 10713
  156.4933  130.4100  149.6394 LP  0  0  0  0  0  0  0  0  0  0  0  0  # atno 17371 bound_to 10713
  139.8750  134.9285  156.3452 LP  0  0  0  0  0  0  0  0  0  0  0  0  # atno 17394 bound_to 11000
  140.9536  133.7435  156.0305 LP  0  0  0  0  0  0  0  0  0  0  0  0  # atno 17395 bound_to 11000

$$$$
