AV-unprocessed.smi:3132|AV-procd|sdf|11936|dock4
  -GOLD-   2272017323D 1   1.00000     0.00000
 Structure written by MMmdl.
 33 34  0  0  0  0  0  0  0  0  1 V2000
  154.0314  140.8054  161.4519 C   0  0  0  0  0  0  0  0  0  0  0  0
  153.0560  141.6095  160.5798 C   0  0  1  0  0  0  0  0  0  0  0  0
  153.7022  142.9032  160.0494 C   0  0  0  0  0  0  0  0  0  0  0  0
  152.7346  143.7773  159.4120 N   0  0  0  0  0  0  0  0  0  0  0  0
  152.4750  143.8924  158.0525 C   0  0  0  0  0  0  0  0  0  0  0  0
  151.4794  144.8339  157.9211 C   0  0  0  0  0  0  0  0  0  0  0  0
  151.1158  145.3106  159.1784 N   0  0  0  0  0  0  0  0  0  0  0  0
  151.9013  144.6393  160.0108 C   0  0  0  0  0  0  0  0  0  0  0  0
  152.5989  140.7861  159.4622 N   0  0  0  0  0  0  0  0  0  0  0  0
  153.3609  139.9458  158.7459 C   0  0  0  0  0  0  0  0  0  0  0  0
  154.5667  139.7906  158.9416 O   0  0  0  0  0  0  0  0  0  0  0  0
  152.6384  139.1483  157.6541 C   0  0  1  0  0  0  0  0  0  0  0  0
  151.2011  139.6219  157.3659 C   0  0  0  0  0  0  0  0  0  0  0  0
  151.3029  140.2604  155.9948 C   0  0  0  0  0  0  0  0  0  0  0  0
  152.4375  139.4655  155.3649 C   0  0  0  0  0  0  0  0  0  0  0  0
  153.3584  139.3181  156.4343 O   0  0  0  0  0  0  0  0  0  0  0  0
  154.3733  141.3953  162.3027 H   0  0  0  0  0  0  0  0  0  0  0  0
  154.9109  140.4986  160.8851 H   0  0  0  0  0  0  0  0  0  0  0  0
  153.5570  139.9062  161.8463 H   0  0  0  0  0  0  0  0  0  0  0  0
  152.2038  141.8911  161.2014 H   0  0  0  0  0  0  0  0  0  0  0  0
  154.1668  143.4555  160.8674 H   0  0  0  0  0  0  0  0  0  0  0  0
  154.4955  142.6755  159.3358 H   0  0  0  0  0  0  0  0  0  0  0  0
  153.0016  143.3085  157.3122 H   0  0  0  0  0  0  0  0  0  0  0  0
  151.0008  145.2017  157.0256 H   0  0  0  0  0  0  0  0  0  0  0  0
  151.8677  144.7752  161.0819 H   0  0  0  0  0  0  0  0  0  0  0  0
  151.6174  140.8398  159.2319 H   0  0  0  0  0  0  0  0  0  0  0  0
  152.6265  138.0884  157.9143 H   0  0  0  0  0  0  0  0  0  0  0  0
  150.5338  138.7602  157.3259 H   0  0  0  0  0  0  0  0  0  0  0  0
  150.7959  140.3094  158.1095 H   0  0  0  0  0  0  0  0  0  0  0  0
  150.3745  140.2055  155.4258 H   0  0  0  0  0  0  0  0  0  0  0  0
  151.5881  141.3091  156.0885 H   0  0  0  0  0  0  0  0  0  0  0  0
  152.0923  138.4823  155.0410 H   0  0  0  0  0  0  0  0  0  0  0  0
  152.8887  139.9735  154.5122 H   0  0  0  0  0  0  0  0  0  0  0  0
  1  2  1  0  0  0  0
  1 17  1  0  0  0  0
  1 18  1  0  0  0  0
  1 19  1  0  0  0  0
  2  3  1  0  0  0  0
  2  9  1  0  0  0  0
  2 20  1  0  0  0  0
  3  4  1  0  0  0  0
  3 21  1  0  0  0  0
  3 22  1  0  0  0  0
  4  8  1  0  0  0  0
  4  5  1  0  0  0  0
  5  6  2  0  0  0  0
  5 23  1  0  0  0  0
  6  7  1  0  0  0  0
  6 24  1  0  0  0  0
  7  8  2  0  0  0  0
  8 25  1  0  0  0  0
  9 10  1  0  0  0  0
  9 26  1  0  0  0  0
 10 11  2  0  0  0  0
 10 12  1  0  0  0  0
 12 16  1  0  0  0  0
 12 13  1  0  0  0  0
 12 27  1  0  0  0  0
 13 14  1  0  0  0  0
 13 28  1  0  0  0  0
 13 29  1  0  0  0  0
 14 15  1  0  0  0  0
 14 30  1  0  0  0  0
 14 31  1  0  0  0  0
 15 16  1  0  0  0  0
 15 32  1  0  0  0  0
 15 33  1  0  0  0  0
M  END
> <s_m_source_file>
AV-unprocessed.smi

> <i_m_source_file_index>
3132

> <i_lp_mmshare_version>
43012

> <i_f3d_flags>
0

> <s_epik_input>
W2NIXTFuW2NIXVtjSF1uMVtDSDJdW0NAQEhdKFtDSDNdKVtOSF1DKD1PKVtDQEBIXTJbQ0gyXVtDSDJdW0NIMl1PMg==

> <s_epik_cmdline>
J2VwaWtfcHl0aG9uJywgJy1waCcsICc3LjAnLCAnLXRuJywgJzgnLCAnLW1hJywgJzIwMCcsICctbWV0YWxfYmluZGluZycsICctaW1hZScsICc8aW5maWxlLm1hZT4nLCAnLW9tYWUnLCAnPG91dGZpbGUubWFlPic=

> <r_lp_tautomer_probability>
1

> <r_epik_Ionization_Penalty>
0.630322

> <r_epik_Ionization_Penalty_Charging>
0.630322

> <r_epik_Ionization_Penalty_Neutral>
3.82652e-08

> <r_epik_State_Penalty>
0.647117

> <r_epik_Charging_Adjusted_Penalty>
1.27744

> <i_epik_Tot_Q>
0

> <i_epik_Tot_abs_Q>
0

> <r_epik_Metal_State_Penalty>
0.309095

> <b_epik_Metal_Only>
0

> <s_lp_Force_Field>
OPLS_2005

> <r_lp_Energy>
20.0706

> <b_lp_Chiralities_Consistent>
1

> <s_lp_Variant>
AV-unprocessed.smi:3132-8

> <Gold.Version>
5.8.1

> <Gold.Id.Protein>
6NUR|6NUR_protein|mol2

> <Gold.PLP.Fitness>
42.3282

> <Gold.PLP.PLP>
-36.6383

> <Gold.PLP.part.hbond>
-2.2065

> <Gold.PLP.part.metal>
0.0000

> <Gold.PLP.part.buried>
-4.4282

> <Gold.PLP.part.nonpolar>
-29.7679

> <Gold.PLP.part.repulsive>
0.3004

> <Gold.PLP.ligand.clash>
0.0000

> <Gold.PLP.ligand.torsion>
0.8148

> <Gold.PLP.Chemscore.Hbond>
1.4560

> <Gold.PLP.Chemscore.CHOScore>
0.9785

> <Gold.PLP.Chemscore.Metal>
0.0000

> <Gold.Chemscore.Hbonds>
donor molecule, donor type, donor heavy atom, donor atom, acceptor molecule, acceptor atom, score
      P1  H  7997  8008       L1    16  0.44
      P1  H  7997  8010       L1    11  0.98
      L1  C     6    24       P1  8028  1.00

> <Gold.PLP.Chemscore.Internal.Correction>
0.0160

> <Gold.Rescore>
     Score         DG    S(hbond)    S(metal)    S(lipo)     H(rot)  DE(clash)    DE(int)     intcor
     12.65     -14.76       1.45        0.00      78.79       1.86       0.03       2.07       ----

> <Gold.Chemscore.Fitness>
12.6514

> <Gold.Chemscore.DG>
-14.7575

> <Gold.Chemscore.ZeroCoef>
-5.4800

> <Gold.Chemscore.Hbond>
1.4460

> <Gold.Chemscore.Metal>
0.0000

> <Gold.Chemscore.Lipo>
78.7928

> <Gold.Chemscore.Internal_Hbond>
0.0000

> <Gold.Chemscore.DEClash>
0.0317

> <Gold.Chemscore.DEInternal>
2.0743

> <Gold.Chemscore.Rot>
1.8636

> <Gold.Chemscore.Internal.Correction>
   9.000000E+99

> <Gold.Chemscore.Hbonds>
donor molecule, donor type, donor heavy atom, donor atom, acceptor molecule, acceptor atom, score
      P1  H  7997  8008       L1    16  0.10
      P1  H  7997  8010       L1    11  0.47

> <Gold.Chemscore.Hbond.Weighted>
-4.8296

> <Gold.Chemscore.Metal.Weighted>
-0.0000

> <Gold.Chemscore.Lipo.Weighted>
-9.2188

> <Gold.Chemscore.Internal_Hbond.Weighted>
0.0000

> <Gold.Chemscore.DEClash.Weighted>
0.0317

> <Gold.Chemscore.DEInternal.Weighted>
2.0743

> <Gold.Chemscore.Rot.Weighted>
4.7709

> <Gold.Chemscore.Internal.Correction.Weighted>
   9.000000E+99

> <Gold.Protein.RotatedTorsions>
[ 6907 6896 6895 6894 ] final -115.54 input  -60.11 | X-H torsion
[ 7974 7965 7964 7962 ] final   47.85 input  175.53 | X-H torsion
[ 8008 7997 7996 7995 ] final  -12.59 input   59.86 | X-H torsion
[ 10167 10162 10161 10158 ] final   68.01 input  -65.29 | X-H torsion
[ 10718 10713 10712 10709 ] final -102.27 input   66.30 | X-H torsion
[ 10763 10752 10751 10750 ] final  -95.39 input  -60.55 | X-H torsion
[ 11005 11000 10999 10996 ] final -129.41 input  -57.11 | X-H torsion

> <Gold.Protein.ActiveResidues>
 VAL166  LYS551  ARG553  GLY616  TRP617  ASP618  TYR619  PRO620  LYS621  CYS622 
 ASP623  PHE694  ASN695  SER759  ASP760  ASP761  ALA762  ILE779  LEU786  VAL792 
 PHE793  MET794  SER795  GLU796  ALA797  LYS798  CYS799  TRP800  GLU811  SER814 

> <Gold.Protein.RotatedAtoms>
  150.7986  133.8643  159.3240 H   0  0  0  0  0  0  0  0  0  0  0  0  # atno 6907 bound_to 6896
  151.6462  135.1005  160.0161 H   0  0  0  0  0  0  0  0  0  0  0  0  # atno 6908 bound_to 6896
  152.4071  133.6866  159.6400 H   0  0  0  0  0  0  0  0  0  0  0  0  # atno 6909 bound_to 6896
  146.0259  139.4706  142.9868 H   0  0  0  0  0  0  0  0  0  0  0  0  # atno 7974 bound_to 7965
  154.5364  140.2272  155.8715 H   0  0  0  0  0  0  0  0  0  0  0  0  # atno 8008 bound_to 7997
  156.1816  140.3099  155.9122 H   0  0  0  0  0  0  0  0  0  0  0  0  # atno 8009 bound_to 7997
  155.3346  140.0447  157.3034 H   0  0  0  0  0  0  0  0  0  0  0  0  # atno 8010 bound_to 7997
  140.0833  144.5051  150.7147 H   0  0  0  0  0  0  0  0  0  0  0  0  # atno 10167 bound_to 10162
  156.0223  130.5412  150.7084 H   0  0  0  0  0  0  0  0  0  0  0  0  # atno 10718 bound_to 10713
  154.7144  135.5122  153.8715 H   0  0  0  0  0  0  0  0  0  0  0  0  # atno 10763 bound_to 10752
  153.0807  135.6630  154.0059 H   0  0  0  0  0  0  0  0  0  0  0  0  # atno 10764 bound_to 10752
  153.9895  135.3021  155.3392 H   0  0  0  0  0  0  0  0  0  0  0  0  # atno 10765 bound_to 10752
  140.9434  134.1162  157.4129 H   0  0  0  0  0  0  0  0  0  0  0  0  # atno 11005 bound_to 11000
  145.7118  141.0103  143.1449 LP  0  0  0  0  0  0  0  0  0  0  0  0  # atno 17320 bound_to 7965
  144.7009  139.8766  143.7444 LP  0  0  0  0  0  0  0  0  0  0  0  0  # atno 17321 bound_to 7965
  140.7066  143.2473  151.4707 LP  0  0  0  0  0  0  0  0  0  0  0  0  # atno 17342 bound_to 10162
  139.5767  144.1804  152.1912 LP  0  0  0  0  0  0  0  0  0  0  0  0  # atno 17343 bound_to 10162
  157.4728  131.0895  151.0624 LP  0  0  0  0  0  0  0  0  0  0  0  0  # atno 17370 bound_to 10713
  157.1079  130.6009  149.5475 LP  0  0  0  0  0  0  0  0  0  0  0  0  # atno 17371 bound_to 10713
  139.8826  135.0044  156.6245 LP  0  0  0  0  0  0  0  0  0  0  0  0  # atno 17394 bound_to 11000
  140.7702  133.8744  155.8486 LP  0  0  0  0  0  0  0  0  0  0  0  0  # atno 17395 bound_to 11000

$$$$
