AV-unprocessed.smi:66|AV-procd|sdf|628|dock1
  -GOLD-   2262016523D 1   1.00000     0.00000
 Structure written by MMmdl.
 27 29  0  0  0  0  0  0  0  0  3 V2000
  151.3939  141.0578  159.3020 O   0  0  0  0  0  0  0  0  0  0  0  0
  152.6397  141.1268  159.2171 C   0  0  0  0  0  0  0  0  0  0  0  0
  153.3728  140.2826  158.6546 O   0  5  0  0  0  0  0  0  0  0  0  0
  153.3125  142.3439  159.8733 C   0  0  1  0  0  0  0  0  0  0  0  0
  152.7438  143.6770  159.3571 C   0  0  0  0  0  0  0  0  0  0  0  0
  151.7001  144.0566  160.4066 C   0  0  2  0  0  0  0  0  0  0  0  0
  151.4556  145.4472  160.4472 O   0  0  0  0  0  0  0  0  0  0  0  0
  152.3099  143.5328  161.7080 C   0  0  0  0  0  0  0  0  0  0  0  0
  153.0906  142.3648  161.3222 N   0  0  0  0  0  0  0  0  0  0  0  0
  153.9429  141.6767  162.2199 C   0  0  0  0  0  0  0  0  0  0  0  0
  154.3786  140.4468  161.8422 N   0  0  0  0  0  0  0  0  0  0  0  0
  155.1820  139.7748  162.6721 C   0  0  0  0  0  0  0  0  0  0  0  0
  155.6265  140.1814  163.8634 N   0  0  0  0  0  0  0  0  0  0  0  0
  155.2068  141.3995  164.2600 C   0  0  0  0  0  0  0  0  0  0  0  0
  155.4425  142.0983  165.3587 N   0  5  0  0  0  0  0  0  0  0  0  0
  154.7640  143.2673  165.2463 C   0  0  0  0  0  0  0  0  0  0  0  0
  154.0738  143.3785  164.0940 N   0  0  0  0  0  0  0  0  0  0  0  0
  154.3629  142.1919  163.4787 C   0  0  0  0  0  0  0  0  0  0  0  0
  154.3801  142.3132  159.6508 H   0  0  0  0  0  0  0  0  0  0  0  0
  153.5428  144.4196  159.3365 H   0  0  0  0  0  0  0  0  0  0  0  0
  152.3259  143.6181  158.3511 H   0  0  0  0  0  0  0  0  0  0  0  0
  150.7653  143.5335  160.2007 H   0  0  0  0  0  0  0  0  0  0  0  0
  151.5654  145.7922  159.5746 H   0  0  0  0  0  0  0  0  0  0  0  0
  152.9741  144.2730  162.1571 H   0  0  0  0  0  0  0  0  0  0  0  0
  151.5274  143.2810  162.4241 H   0  0  0  0  0  0  0  0  0  0  0  0
  155.5091  138.8000  162.3420 H   0  0  0  0  0  0  0  0  0  0  0  0
  154.8138  143.9978  166.0444 H   0  0  0  0  0  0  0  0  0  0  0  0
  1  2  2  0  0  0  0
  2  3  1  0  0  0  0
  2  4  1  0  0  0  0
  4  5  1  0  0  0  0
  4 19  1  0  0  0  0
  4  9  1  0  0  0  0
  5  6  1  0  0  0  0
  5 20  1  0  0  0  0
  5 21  1  0  0  0  0
  6  7  1  0  0  0  0
  6  8  1  0  0  0  0
  6 22  1  0  0  0  0
  7 23  1  0  0  0  0
  8 24  1  0  0  0  0
  8 25  1  0  0  0  0
  8  9  1  0  0  0  0
  9 10  1  0  0  0  0
 10 11  1  0  0  0  0
 10 18  2  0  0  0  0
 11 12  2  0  0  0  0
 12 26  1  0  0  0  0
 12 13  1  0  0  0  0
 13 14  2  0  0  0  0
 14 15  1  0  0  0  0
 14 18  1  0  0  0  0
 15 16  1  0  0  0  0
 16 17  2  0  0  0  0
 16 27  1  0  0  0  0
 17 18  1  0  0  0  0
M  CHG  1   3  -1
M  CHG  1  15  -1
M  END
> <s_m_source_file>
AV-unprocessed.smi

> <i_m_source_file_index>
66

> <i_lp_mmshare_version>
43012

> <i_f3d_flags>
0

> <s_epik_input>
Tz1DKFtPSF0pW0NAQEhdMVtDSDJdW0NAQEhdKFtPSF0pW0NIMl1OMWMobltjSF1uMiljKGMyMylbbkhdW2NIXW4z

> <s_epik_cmdline>
J2VwaWtfcHl0aG9uJywgJy1waCcsICc3LjAnLCAnLXRuJywgJzgnLCAnLW1hJywgJzIwMCcsICctbWV0YWxfYmluZGluZycsICctaW1hZScsICc8aW5maWxlLm1hZT4nLCAnLW9tYWUnLCAnPG91dGZpbGUubWFlPic=

> <r_lp_tautomer_probability>
0.955585

> <r_epik_Ionization_Penalty>
7.65809

> <r_epik_Ionization_Penalty_Charging>
3.4974

> <r_epik_Ionization_Penalty_Neutral>
4.16069

> <r_epik_State_Penalty>
3.51624

> <r_epik_Charging_Adjusted_Penalty>
7.01364

> <i_epik_Tot_Q>
-2

> <i_epik_Tot_abs_Q>
2

> <r_epik_Metal_State_Penalty>
0.522662

> <b_epik_Metal_Only>
1

> <s_lp_Force_Field>
OPLS_2005

> <r_lp_Energy>
43.3227

> <b_lp_Chiralities_Consistent>
1

> <s_lp_Variant>
AV-unprocessed.smi:66-12

> <Gold.Version>
5.8.1

> <Gold.Id.Protein>
6NUR|6NUR_protein|mol2

> <Gold.PLP.Fitness>
42.4077

> <Gold.PLP.PLP>
-37.5641

> <Gold.PLP.part.hbond>
-1.5014

> <Gold.PLP.part.metal>
0.0000

> <Gold.PLP.part.buried>
-0.1942

> <Gold.PLP.part.nonpolar>
-34.0751

> <Gold.PLP.part.repulsive>
0.0699

> <Gold.PLP.ligand.clash>
0.0000

> <Gold.PLP.ligand.torsion>
0.3914

> <Gold.PLP.Chemscore.Hbond>
1.8240

> <Gold.PLP.Chemscore.CHOScore>
0.0000

> <Gold.PLP.Chemscore.Metal>
0.0000

> <Gold.Chemscore.Hbonds>
donor molecule, donor type, donor heavy atom, donor atom, acceptor molecule, acceptor atom, score
      P1  H  7997  8010       L1     3  1.82

> <Gold.PLP.Chemscore.Internal.Correction>
0.1544

> <Gold.Rescore>
     Score         DG    S(hbond)    S(metal)    S(lipo)     H(rot)  DE(clash)    DE(int)     intcor
      9.01     -10.65       0.89        0.00      57.52       1.78       0.10       1.53       ----

> <Gold.Chemscore.Fitness>
9.0134

> <Gold.Chemscore.DG>
-10.6457

> <Gold.Chemscore.ZeroCoef>
-5.4800

> <Gold.Chemscore.Hbond>
0.8924

> <Gold.Chemscore.Metal>
0.0000

> <Gold.Chemscore.Lipo>
57.5221

> <Gold.Chemscore.Internal_Hbond>
0.0000

> <Gold.Chemscore.DEClash>
0.0996

> <Gold.Chemscore.DEInternal>
1.5326

> <Gold.Chemscore.Rot>
1.7754

> <Gold.Chemscore.Internal.Correction>
   9.000000E+99

> <Gold.Chemscore.Hbonds>
donor molecule, donor type, donor heavy atom, donor atom, acceptor molecule, acceptor atom, score
      P1  H  7997  8010       L1     3  0.82

> <Gold.Chemscore.Hbond.Weighted>
-2.9806

> <Gold.Chemscore.Metal.Weighted>
-0.0000

> <Gold.Chemscore.Lipo.Weighted>
-6.7301

> <Gold.Chemscore.Internal_Hbond.Weighted>
0.0000

> <Gold.Chemscore.DEClash.Weighted>
0.0996

> <Gold.Chemscore.DEInternal.Weighted>
1.5326

> <Gold.Chemscore.Rot.Weighted>
4.5451

> <Gold.Chemscore.Internal.Correction.Weighted>
   9.000000E+99

> <Gold.Protein.RotatedTorsions>
[ 6907 6896 6895 6894 ] final   32.92 input  -60.11 | X-H torsion
[ 7974 7965 7964 7962 ] final  174.46 input  175.53 | X-H torsion
[ 8008 7997 7996 7995 ] final   27.74 input   59.86 | X-H torsion
[ 10167 10162 10161 10158 ] final  128.81 input  -65.29 | X-H torsion
[ 10718 10713 10712 10709 ] final   -8.36 input   66.30 | X-H torsion
[ 10763 10752 10751 10750 ] final  -77.27 input  -60.55 | X-H torsion
[ 11005 11000 10999 10996 ] final   33.49 input  -57.11 | X-H torsion

> <Gold.Protein.ActiveResidues>
 VAL166  LYS551  ARG553  GLY616  TRP617  ASP618  TYR619  PRO620  LYS621  CYS622 
 ASP623  PHE694  ASN695  SER759  ASP760  ASP761  ALA762  ILE779  LEU786  VAL792 
 PHE793  MET794  SER795  GLU796  ALA797  LYS798  CYS799  TRP800  GLU811  SER814 

> <Gold.Protein.RotatedAtoms>
  152.0812  134.9470  160.0573 H   0  0  0  0  0  0  0  0  0  0  0  0  # atno 6907 bound_to 6896
  152.0757  133.4123  159.4487 H   0  0  0  0  0  0  0  0  0  0  0  0  # atno 6908 bound_to 6896
  150.6836  134.2959  159.4730 H   0  0  0  0  0  0  0  0  0  0  0  0  # atno 6909 bound_to 6896
  144.7221  139.9801  143.6438 H   0  0  0  0  0  0  0  0  0  0  0  0  # atno 7974 bound_to 7965
  155.0476  140.3176  155.4703 H   0  0  0  0  0  0  0  0  0  0  0  0  # atno 8008 bound_to 7997
  156.2841  140.2152  156.5545 H   0  0  0  0  0  0  0  0  0  0  0  0  # atno 8009 bound_to 7997
  154.7237  140.0487  157.0651 H   0  0  0  0  0  0  0  0  0  0  0  0  # atno 8010 bound_to 7997
  139.5509  144.6812  151.4328 H   0  0  0  0  0  0  0  0  0  0  0  0  # atno 10167 bound_to 10162
  156.7037  130.5101  149.5910 H   0  0  0  0  0  0  0  0  0  0  0  0  # atno 10718 bound_to 10713
  154.5108  135.5769  153.6603 H   0  0  0  0  0  0  0  0  0  0  0  0  # atno 10763 bound_to 10752
  152.9897  135.6158  154.2881 H   0  0  0  0  0  0  0  0  0  0  0  0  # atno 10764 bound_to 10752
  154.2796  135.2851  155.2682 H   0  0  0  0  0  0  0  0  0  0  0  0  # atno 10765 bound_to 10752
  140.2626  134.3174  155.7853 H   0  0  0  0  0  0  0  0  0  0  0  0  # atno 11005 bound_to 11000
  146.0494  139.3497  143.0648 LP  0  0  0  0  0  0  0  0  0  0  0  0  # atno 17320 bound_to 7965
  145.8234  140.9668  143.0887 LP  0  0  0  0  0  0  0  0  0  0  0  0  # atno 17321 bound_to 7965
  140.6771  143.8166  150.7072 LP  0  0  0  0  0  0  0  0  0  0  0  0  # atno 17342 bound_to 10162
  140.1608  143.4277  152.2068 LP  0  0  0  0  0  0  0  0  0  0  0  0  # atno 17343 bound_to 10162
  156.1710  130.6437  151.0837 LP  0  0  0  0  0  0  0  0  0  0  0  0  # atno 17370 bound_to 10713
  157.6963  131.0793  150.6959 LP  0  0  0  0  0  0  0  0  0  0  0  0  # atno 17371 bound_to 10713
  141.2188  133.7418  156.9210 LP  0  0  0  0  0  0  0  0  0  0  0  0  # atno 17394 bound_to 11000
  140.1450  134.9268  157.2517 LP  0  0  0  0  0  0  0  0  0  0  0  0  # atno 17395 bound_to 11000

$$$$
