AV-unprocessed.smi:1525|AV-procd|sdf|6144|dock1
  -GOLD-   22720 6293D 1   1.00000     0.00000
 Structure written by MMmdl.
 50 52  0  0  0  0  0  0  0  0  3 V2000
  145.0071  138.2467  154.1736 O   0  0  0  0  0  0  0  0  0  0  0  0
  145.6750  137.5170  153.4414 C   0  0  0  0  0  0  0  0  0  0  0  0
  146.9552  137.7598  153.1262 N   0  0  0  0  0  0  0  0  0  0  0  0
  147.7269  138.9037  153.5989 C   0  0  0  0  0  0  0  0  0  0  0  0
  148.3025  138.6548  155.0066 C   0  0  0  0  0  0  0  0  0  0  0  0
  149.6596  139.2312  155.1783 N   0  3  0  0  0  0  0  0  0  0  0  0
  149.8754  139.8668  156.5022 C   0  0  0  0  0  0  0  0  0  0  0  0
  151.2906  140.4638  156.5885 C   0  0  0  0  0  0  0  0  0  0  0  0
  152.2551  139.4491  156.3389 O   0  0  0  0  0  0  0  0  0  0  0  0
  152.1162  138.8936  155.0374 C   0  0  0  0  0  0  0  0  0  0  0  0
  150.7295  138.2426  154.9012 C   0  0  0  0  0  0  0  0  0  0  0  0
  145.2368  136.3813  152.8722 N   0  0  0  0  0  0  0  0  0  0  0  0
  143.9515  135.7795  152.9933 C   0  0  0  0  0  0  0  0  0  0  0  0
  142.8847  136.4192  153.6751 C   0  0  0  0  0  0  0  0  0  0  0  0
  141.6196  135.8035  153.7318 C   0  0  0  0  0  0  0  0  0  0  0  0
  141.4365  134.5619  153.0980 C   0  0  0  0  0  0  0  0  0  0  0  0
  142.4670  133.9862  152.4446 N   0  3  0  0  0  0  0  0  0  0  0  0
  143.7048  134.5325  152.3552 C   0  0  0  0  0  0  0  0  0  0  0  0
  144.7123  133.8277  151.6624 N   0  0  0  0  0  0  0  0  0  0  0  0
  145.1168  132.5771  152.2994 C   0  0  0  0  0  0  0  0  0  0  0  0
  145.4359  131.5984  151.1674 C   0  0  0  0  0  0  0  0  0  0  0  0
  144.5619  132.0972  150.0235 C   0  0  0  0  0  0  0  0  0  0  0  0
  144.5916  133.6117  150.2211 C   0  0  0  0  0  0  0  0  0  0  0  0
  147.4324  137.1068  152.5217 H   0  0  0  0  0  0  0  0  0  0  0  0
  148.5267  139.1331  152.8924 H   0  0  0  0  0  0  0  0  0  0  0  0
  147.0575  139.7633  153.6000 H   0  0  0  0  0  0  0  0  0  0  0  0
  147.6336  139.0485  155.7735 H   0  0  0  0  0  0  0  0  0  0  0  0
  148.3596  137.5776  155.1709 H   0  0  0  0  0  0  0  0  0  0  0  0
  149.1458  140.6575  156.6715 H   0  0  0  0  0  0  0  0  0  0  0  0
  149.7354  139.1268  157.2918 H   0  0  0  0  0  0  0  0  0  0  0  0
  151.4124  141.2821  155.8770 H   0  0  0  0  0  0  0  0  0  0  0  0
  151.4631  140.8780  157.5821 H   0  0  0  0  0  0  0  0  0  0  0  0
  152.2610  139.6661  154.2805 H   0  0  0  0  0  0  0  0  0  0  0  0
  152.8978  138.1488  154.8858 H   0  0  0  0  0  0  0  0  0  0  0  0
  150.6411  137.4037  155.5936 H   0  0  0  0  0  0  0  0  0  0  0  0
  150.6131  137.8409  153.8938 H   0  0  0  0  0  0  0  0  0  0  0  0
  145.9258  135.8384  152.3723 H   0  0  0  0  0  0  0  0  0  0  0  0
  143.0098  137.3839  154.1428 H   0  0  0  0  0  0  0  0  0  0  0  0
  140.8002  136.2814  154.2488 H   0  0  0  0  0  0  0  0  0  0  0  0
  140.5034  134.0174  153.0897 H   0  0  0  0  0  0  0  0  0  0  0  0
  145.9803  132.7241  152.9481 H   0  0  0  0  0  0  0  0  0  0  0  0
  144.3013  132.1871  152.9110 H   0  0  0  0  0  0  0  0  0  0  0  0
  146.4875  131.6823  150.8896 H   0  0  0  0  0  0  0  0  0  0  0  0
  145.2398  130.5599  151.4356 H   0  0  0  0  0  0  0  0  0  0  0  0
  144.9233  131.7892  149.0422 H   0  0  0  0  0  0  0  0  0  0  0  0
  143.5435  131.7248  150.1438 H   0  0  0  0  0  0  0  0  0  0  0  0
  143.7330  134.0949  149.7558 H   0  0  0  0  0  0  0  0  0  0  0  0
  145.4815  134.0291  149.7492 H   0  0  0  0  0  0  0  0  0  0  0  0
  149.7575  139.9560  154.4817 H   0  0  0  0  0  0  0  0  0  0  0  0
  142.3050  133.0851  151.9944 H   0  0  0  0  0  0  0  0  0  0  0  0
  1  2  2  0  0  0  0
  2  3  1  0  0  0  0
  2 12  1  0  0  0  0
  3  4  1  0  0  0  0
  3 24  1  0  0  0  0
  4  5  1  0  0  0  0
  4 25  1  0  0  0  0
  4 26  1  0  0  0  0
  5  6  1  0  0  0  0
  5 27  1  0  0  0  0
  5 28  1  0  0  0  0
  6 11  1  0  0  0  0
  6  7  1  0  0  0  0
  6 49  1  0  0  0  0
  7  8  1  0  0  0  0
  7 29  1  0  0  0  0
  7 30  1  0  0  0  0
  8  9  1  0  0  0  0
  8 31  1  0  0  0  0
  8 32  1  0  0  0  0
  9 10  1  0  0  0  0
 10 11  1  0  0  0  0
 10 33  1  0  0  0  0
 10 34  1  0  0  0  0
 11 35  1  0  0  0  0
 11 36  1  0  0  0  0
 12 13  1  0  0  0  0
 12 37  1  0  0  0  0
 13 18  1  0  0  0  0
 13 14  2  0  0  0  0
 14 15  1  0  0  0  0
 14 38  1  0  0  0  0
 15 16  2  0  0  0  0
 15 39  1  0  0  0  0
 16 17  1  0  0  0  0
 16 40  1  0  0  0  0
 17 18  2  0  0  0  0
 17 50  1  0  0  0  0
 18 19  1  0  0  0  0
 19 23  1  0  0  0  0
 19 20  1  0  0  0  0
 20 21  1  0  0  0  0
 20 41  1  0  0  0  0
 20 42  1  0  0  0  0
 21 22  1  0  0  0  0
 21 43  1  0  0  0  0
 21 44  1  0  0  0  0
 22 23  1  0  0  0  0
 22 45  1  0  0  0  0
 22 46  1  0  0  0  0
 23 47  1  0  0  0  0
 23 48  1  0  0  0  0
M  CHG  1   6   1
M  CHG  1  17   1
M  END
> <s_m_source_file>
AV-unprocessed.smi

> <i_m_source_file_index>
1525

> <i_lp_mmshare_version>
43012

> <i_f3d_flags>
0

> <s_epik_input>
W0NIMl0xW0NIMl1PW0NIMl1bQ0gyXU4xW0NIMl1bQ0gyXVtOSF1DKD1PKVtOSF1jMltjSF1bY0hdW2NIXW5jMk4zW0NIMl1bQ0gyXVtDSDJdW0NIMl0z

> <s_epik_cmdline>
J2VwaWtfcHl0aG9uJywgJy1waCcsICc3LjAnLCAnLXRuJywgJzgnLCAnLW1hJywgJzIwMCcsICctbWV0YWxfYmluZGluZycsICctaW1hZScsICc8aW5maWxlLm1hZT4nLCAnLW9tYWUnLCAnPG91dGZpbGUubWFlPic=

> <r_lp_tautomer_probability>
0.999994

> <r_epik_Ionization_Penalty>
1.81601

> <r_epik_Ionization_Penalty_Charging>
1.81599

> <r_epik_Ionization_Penalty_Neutral>
2.02981e-05

> <r_epik_State_Penalty>
1.85672

> <r_epik_Charging_Adjusted_Penalty>
3.6727

> <i_epik_Tot_Q>
2

> <i_epik_Tot_abs_Q>
2

> <r_epik_Metal_State_Penalty>
1.93796

> <b_epik_Metal_Only>
0

> <s_lp_Force_Field>
OPLS_2005

> <r_lp_Energy>
52.6706

> <b_lp_Chiralities_Consistent>
1

> <s_lp_Variant>
AV-unprocessed.smi:1525-4

> <Gold.Version>
5.8.1

> <Gold.Id.Protein>
6NUR|6NUR_protein|mol2

> <Gold.PLP.Fitness>
41.0125

> <Gold.PLP.PLP>
-36.8328

> <Gold.PLP.part.hbond>
-2.4076

> <Gold.PLP.part.metal>
0.0000

> <Gold.PLP.part.buried>
-6.1822

> <Gold.PLP.part.nonpolar>
-28.0431

> <Gold.PLP.part.repulsive>
0.6021

> <Gold.PLP.ligand.clash>
0.0000

> <Gold.PLP.ligand.torsion>
1.0110

> <Gold.PLP.Chemscore.Hbond>
2.0000

> <Gold.PLP.Chemscore.CHOScore>
0.0000

> <Gold.PLP.Chemscore.Metal>
0.0000

> <Gold.Chemscore.Hbonds>
donor molecule, donor type, donor heavy atom, donor atom, acceptor molecule, acceptor atom, score
      L1  H     3    24       P1  7948  1.00
      P1  H  7997  8010       L1     9  0.59

> <Gold.PLP.Chemscore.Internal.Correction>
0.2017

> <Gold.Rescore>
     Score         DG    S(hbond)    S(metal)    S(lipo)     H(rot)  DE(clash)    DE(int)     intcor
     13.72     -16.12       1.60        0.00      82.40       1.70       0.60       1.81       ----

> <Gold.Chemscore.Fitness>
13.7169

> <Gold.Chemscore.DG>
-16.1196

> <Gold.Chemscore.ZeroCoef>
-5.4800

> <Gold.Chemscore.Hbond>
1.5982

> <Gold.Chemscore.Metal>
0.0000

> <Gold.Chemscore.Lipo>
82.4033

> <Gold.Chemscore.Internal_Hbond>
0.0000

> <Gold.Chemscore.DEClash>
0.5951

> <Gold.Chemscore.DEInternal>
1.8076

> <Gold.Chemscore.Rot>
1.6952

> <Gold.Chemscore.Internal.Correction>
   9.000000E+99

> <Gold.Chemscore.Hbonds>
donor molecule, donor type, donor heavy atom, donor atom, acceptor molecule, acceptor atom, score
      L1  H     3    24       P1  7948  0.98
      P1  H  7997  8010       L1     9  0.16

> <Gold.Chemscore.Hbond.Weighted>
-5.3380

> <Gold.Chemscore.Metal.Weighted>
-0.0000

> <Gold.Chemscore.Lipo.Weighted>
-9.6412

> <Gold.Chemscore.Internal_Hbond.Weighted>
0.0000

> <Gold.Chemscore.DEClash.Weighted>
0.5951

> <Gold.Chemscore.DEInternal.Weighted>
1.8076

> <Gold.Chemscore.Rot.Weighted>
4.3397

> <Gold.Chemscore.Internal.Correction.Weighted>
   9.000000E+99

> <Gold.Protein.RotatedTorsions>
[ 6907 6896 6895 6894 ] final -101.34 input  -60.11 | X-H torsion
[ 7974 7965 7964 7962 ] final  -35.87 input  175.53 | X-H torsion
[ 8008 7997 7996 7995 ] final   82.06 input   59.86 | X-H torsion
[ 10167 10162 10161 10158 ] final   -6.73 input  -65.29 | X-H torsion
[ 10718 10713 10712 10709 ] final  134.01 input   66.30 | X-H torsion
[ 10763 10752 10751 10750 ] final  109.40 input  -60.55 | X-H torsion
[ 11005 11000 10999 10996 ] final  -50.16 input  -57.11 | X-H torsion

> <Gold.Protein.ActiveResidues>
 VAL166  LYS551  ARG553  GLY616  TRP617  ASP618  TYR619  PRO620  LYS621  CYS622 
 ASP623  PHE694  ASN695  SER759  ASP760  ASP761  ALA762  ILE779  LEU786  VAL792 
 PHE793  MET794  SER795  GLU796  ALA797  LYS798  CYS799  TRP800  GLU811  SER814 

> <Gold.Protein.RotatedAtoms>
  150.7151  134.0749  159.3877 H   0  0  0  0  0  0  0  0  0  0  0  0  # atno 6907 bound_to 6896
  151.8732  135.0479  160.0490 H   0  0  0  0  0  0  0  0  0  0  0  0  # atno 6908 bound_to 6896
  152.2626  133.5275  159.5427 H   0  0  0  0  0  0  0  0  0  0  0  0  # atno 6909 bound_to 6896
  146.0710  140.6211  142.8952 H   0  0  0  0  0  0  0  0  0  0  0  0  # atno 7974 bound_to 7965
  155.9056  140.3430  155.6059 H   0  0  0  0  0  0  0  0  0  0  0  0  # atno 8008 bound_to 7997
  155.7449  140.0812  157.2247 H   0  0  0  0  0  0  0  0  0  0  0  0  # atno 8009 bound_to 7997
  154.4049  140.1564  156.2645 H   0  0  0  0  0  0  0  0  0  0  0  0  # atno 8010 bound_to 7997
  140.7006  143.6160  150.8658 H   0  0  0  0  0  0  0  0  0  0  0  0  # atno 10167 bound_to 10162
  157.4716  131.1080  150.9796 H   0  0  0  0  0  0  0  0  0  0  0  0  # atno 10718 bound_to 10713
  153.4342  135.3781  155.2189 H   0  0  0  0  0  0  0  0  0  0  0  0  # atno 10763 bound_to 10752
  154.8751  135.3847  154.4231 H   0  0  0  0  0  0  0  0  0  0  0  0  # atno 10764 bound_to 10752
  153.4768  135.7088  153.6024 H   0  0  0  0  0  0  0  0  0  0  0  0  # atno 10765 bound_to 10752
  141.0800  133.6656  156.3690 H   0  0  0  0  0  0  0  0  0  0  0  0  # atno 11005 bound_to 11000
  144.7231  140.4439  143.6993 LP  0  0  0  0  0  0  0  0  0  0  0  0  # atno 17320 bound_to 7965
  145.6392  139.1547  143.2925 LP  0  0  0  0  0  0  0  0  0  0  0  0  # atno 17321 bound_to 7965
  139.9882  143.5876  152.2919 LP  0  0  0  0  0  0  0  0  0  0  0  0  # atno 17342 bound_to 10162
  139.6521  144.7661  151.2127 LP  0  0  0  0  0  0  0  0  0  0  0  0  # atno 17343 bound_to 10162
  157.0559  130.5806  149.5378 LP  0  0  0  0  0  0  0  0  0  0  0  0  # atno 17370 bound_to 10713
  156.0076  130.5164  150.7882 LP  0  0  0  0  0  0  0  0  0  0  0  0  # atno 17371 bound_to 10713
  140.5489  134.6047  157.5402 LP  0  0  0  0  0  0  0  0  0  0  0  0  # atno 17394 bound_to 11000
  139.9613  134.7447  156.0230 LP  0  0  0  0  0  0  0  0  0  0  0  0  # atno 17395 bound_to 11000

$$$$
