AV-unprocessed.smi:1555|AV-procd|sdf|6267|dock8
  -GOLD-   22720 6453D 1   1.00000     0.00000
 Structure written by MMmdl.
 41 42  0  0  0  0  0  0  0  0  1 V2000
  151.8606  139.8165  158.4166 C   0  0  0  0  0  0  0  0  0  0  0  0
  151.0315  141.1095  158.4642 C   0  0  1  0  0  0  0  0  0  0  0  0
  151.9254  142.3434  158.6922 C   0  0  0  0  0  0  0  0  0  0  0  0
  152.4187  142.4231  160.0549 N   0  0  0  0  0  0  0  0  0  0  0  0
  153.2634  141.5253  160.6950 C   0  0  0  0  0  0  0  0  0  0  0  0
  153.4598  142.0104  161.9680 C   0  0  0  0  0  0  0  0  0  0  0  0
  152.7488  143.1967  162.1328 N   0  0  0  0  0  0  0  0  0  0  0  0
  152.1566  143.3764  160.9592 C   0  0  0  0  0  0  0  0  0  0  0  0
  150.2749  141.2678  157.2244 N   0  0  0  0  0  0  0  0  0  0  0  0
  148.9419  141.4060  157.1277 C   0  0  0  0  0  0  0  0  0  0  0  0
  148.2062  141.3632  158.1147 O   0  0  0  0  0  0  0  0  0  0  0  0
  148.4830  141.5914  155.8639 N   0  0  0  0  0  0  0  0  0  0  0  0
  149.2661  141.4763  154.6219 C   0  0  0  0  0  0  0  0  0  0  0  0
  148.8308  140.1997  153.8810 C   0  0  0  0  0  0  0  0  0  0  0  0
  147.3140  140.2104  153.5877 C   0  0  0  0  0  0  0  0  0  0  0  0
  146.8649  138.8908  152.9343 C   0  0  0  0  0  0  0  0  0  0  0  0
  147.5612  138.6678  151.7260 O   0  0  0  0  0  0  0  0  0  0  0  0
  146.5149  140.5309  154.8729 C   0  0  0  0  0  0  0  0  0  0  0  0
  147.0582  141.7900  155.5731 C   0  0  0  0  0  0  0  0  0  0  0  0
  152.4218  139.6777  159.3410 H   0  0  0  0  0  0  0  0  0  0  0  0
  152.5747  139.8325  157.5928 H   0  0  0  0  0  0  0  0  0  0  0  0
  151.2227  138.9414  158.2873 H   0  0  0  0  0  0  0  0  0  0  0  0
  150.3341  141.0371  159.3010 H   0  0  0  0  0  0  0  0  0  0  0  0
  152.7867  142.3136  158.0235 H   0  0  0  0  0  0  0  0  0  0  0  0
  151.3817  143.2608  158.4613 H   0  0  0  0  0  0  0  0  0  0  0  0
  153.6459  140.6420  160.2048 H   0  0  0  0  0  0  0  0  0  0  0  0
  154.0533  141.6002  162.7716 H   0  0  0  0  0  0  0  0  0  0  0  0
  151.5199  144.2236  160.7506 H   0  0  0  0  0  0  0  0  0  0  0  0
  150.8109  141.3079  156.3699 H   0  0  0  0  0  0  0  0  0  0  0  0
  149.0757  142.3505  153.9975 H   0  0  0  0  0  0  0  0  0  0  0  0
  150.3452  141.4665  154.7754 H   0  0  0  0  0  0  0  0  0  0  0  0
  149.3901  140.1068  152.9495 H   0  0  0  0  0  0  0  0  0  0  0  0
  149.0866  139.3273  154.4843 H   0  0  0  0  0  0  0  0  0  0  0  0
  147.1324  141.0161  152.8741 H   0  0  0  0  0  0  0  0  0  0  0  0
  147.0652  138.0505  153.5997 H   0  0  0  0  0  0  0  0  0  0  0  0
  145.7922  138.8980  152.7382 H   0  0  0  0  0  0  0  0  0  0  0  0
  148.1681  139.3798  151.5928 H   0  0  0  0  0  0  0  0  0  0  0  0
  145.4602  140.6726  154.6359 H   0  0  0  0  0  0  0  0  0  0  0  0
  146.5656  139.6855  155.5604 H   0  0  0  0  0  0  0  0  0  0  0  0
  146.4684  141.9991  156.4667 H   0  0  0  0  0  0  0  0  0  0  0  0
  146.9362  142.6614  154.9285 H   0  0  0  0  0  0  0  0  0  0  0  0
  1  2  1  0  0  0  0
  1 20  1  0  0  0  0
  1 21  1  0  0  0  0
  1 22  1  0  0  0  0
  2  3  1  0  0  0  0
  2  9  1  0  0  0  0
  2 23  1  0  0  0  0
  3  4  1  0  0  0  0
  3 24  1  0  0  0  0
  3 25  1  0  0  0  0
  4  8  1  0  0  0  0
  4  5  1  0  0  0  0
  5  6  2  0  0  0  0
  5 26  1  0  0  0  0
  6  7  1  0  0  0  0
  6 27  1  0  0  0  0
  7  8  2  0  0  0  0
  8 28  1  0  0  0  0
  9 10  1  0  0  0  0
  9 29  1  0  0  0  0
 10 11  2  0  0  0  0
 10 12  1  0  0  0  0
 12 19  1  0  0  0  0
 12 13  1  0  0  0  0
 13 14  1  0  0  0  0
 13 30  1  0  0  0  0
 13 31  1  0  0  0  0
 14 15  1  0  0  0  0
 14 32  1  0  0  0  0
 14 33  1  0  0  0  0
 15 16  1  0  0  0  0
 15 18  1  0  0  0  0
 15 34  1  0  0  0  0
 16 17  1  0  0  0  0
 16 35  1  0  0  0  0
 16 36  1  0  0  0  0
 17 37  1  0  0  0  0
 18 19  1  0  0  0  0
 18 38  1  0  0  0  0
 18 39  1  0  0  0  0
 19 40  1  0  0  0  0
 19 41  1  0  0  0  0
M  END
> <s_m_source_file>
AV-unprocessed.smi

> <i_m_source_file_index>
1555

> <i_lp_mmshare_version>
43012

> <i_f3d_flags>
0

> <s_epik_input>
W2NIXTFuW2NIXVtjSF1uMVtDSDJdW0NAQEhdKFtDSDNdKVtOSF1DKD1PKU4yW0NIMl1bQ0gyXVtDSF0oW0NIMl1bT0hdKVtDSDJdW0NIMl0y

> <s_epik_cmdline>
J2VwaWtfcHl0aG9uJywgJy1waCcsICc3LjAnLCAnLXRuJywgJzgnLCAnLW1hJywgJzIwMCcsICctbWV0YWxfYmluZGluZycsICctaW1hZScsICc8aW5maWxlLm1hZT4nLCAnLW9tYWUnLCAnPG91dGZpbGUubWFlPic=

> <r_lp_tautomer_probability>
1

> <r_epik_Ionization_Penalty>
0.625883

> <r_epik_Ionization_Penalty_Charging>
0.625812

> <r_epik_Ionization_Penalty_Neutral>
7.07114e-05

> <r_epik_State_Penalty>
0.642234

> <r_epik_Charging_Adjusted_Penalty>
1.26805

> <i_epik_Tot_Q>
0

> <i_epik_Tot_abs_Q>
0

> <r_epik_Metal_State_Penalty>
0.307949

> <b_epik_Metal_Only>
0

> <s_lp_Force_Field>
OPLS_2005

> <r_lp_Energy>
32.573

> <b_lp_Chiralities_Consistent>
1

> <s_lp_Variant>
AV-unprocessed.smi:1555-4

> <Gold.Version>
5.8.1

> <Gold.Id.Protein>
6NUR|6NUR_protein|mol2

> <Gold.PLP.Fitness>
42.7750

> <Gold.PLP.PLP>
-38.5674

> <Gold.PLP.part.hbond>
-3.0609

> <Gold.PLP.part.metal>
0.0000

> <Gold.PLP.part.buried>
-1.1148

> <Gold.PLP.part.nonpolar>
-33.4307

> <Gold.PLP.part.repulsive>
0.1986

> <Gold.PLP.ligand.clash>
0.0000

> <Gold.PLP.ligand.torsion>
0.1642

> <Gold.PLP.Chemscore.Hbond>
1.4976

> <Gold.PLP.Chemscore.CHOScore>
0.0000

> <Gold.PLP.Chemscore.Metal>
0.0000

> <Gold.Chemscore.Hbonds>
donor molecule, donor type, donor heavy atom, donor atom, acceptor molecule, acceptor atom, score
      L1  H    17    37       P1  7957  1.00
      P1  H  7954  7966       L1    17  0.34

> <Gold.PLP.Chemscore.Internal.Correction>
0.0432

> <Gold.Rescore>
     Score         DG    S(hbond)    S(metal)    S(lipo)     H(rot)  DE(clash)    DE(int)     intcor
     10.88     -11.13       0.98        0.00      74.68       2.49       0.05       0.21       ----

> <Gold.Chemscore.Fitness>
10.8767

> <Gold.Chemscore.DG>
-11.1301

> <Gold.Chemscore.ZeroCoef>
-5.4800

> <Gold.Chemscore.Hbond>
0.9815

> <Gold.Chemscore.Metal>
0.0000

> <Gold.Chemscore.Lipo>
74.6819

> <Gold.Chemscore.Internal_Hbond>
0.0000

> <Gold.Chemscore.DEClash>
0.0456

> <Gold.Chemscore.DEInternal>
0.2078

> <Gold.Chemscore.Rot>
2.4867

> <Gold.Chemscore.Internal.Correction>
   9.000000E+99

> <Gold.Chemscore.Hbonds>
donor molecule, donor type, donor heavy atom, donor atom, acceptor molecule, acceptor atom, score
      L1  H    17    37       P1  7957  0.95
      P1  H  7954  7966       L1    17  0.01

> <Gold.Chemscore.Hbond.Weighted>
-3.2784

> <Gold.Chemscore.Metal.Weighted>
-0.0000

> <Gold.Chemscore.Lipo.Weighted>
-8.7378

> <Gold.Chemscore.Internal_Hbond.Weighted>
0.0000

> <Gold.Chemscore.DEClash.Weighted>
0.0456

> <Gold.Chemscore.DEInternal.Weighted>
0.2078

> <Gold.Chemscore.Rot.Weighted>
6.3660

> <Gold.Chemscore.Internal.Correction.Weighted>
   9.000000E+99

> <Gold.Protein.RotatedTorsions>
[ 6907 6896 6895 6894 ] final  -35.95 input  -60.11 | X-H torsion
[ 7974 7965 7964 7962 ] final  -34.97 input  175.53 | X-H torsion
[ 8008 7997 7996 7995 ] final   78.97 input   59.86 | X-H torsion
[ 10167 10162 10161 10158 ] final -152.74 input  -65.29 | X-H torsion
[ 10718 10713 10712 10709 ] final   30.23 input   66.30 | X-H torsion
[ 10763 10752 10751 10750 ] final  165.74 input  -60.55 | X-H torsion
[ 11005 11000 10999 10996 ] final   -9.99 input  -57.11 | X-H torsion

> <Gold.Protein.ActiveResidues>
 VAL166  LYS551  ARG553  GLY616  TRP617  ASP618  TYR619  PRO620  LYS621  CYS622 
 ASP623  PHE694  ASN695  SER759  ASP760  ASP761  ALA762  ILE779  LEU786  VAL792 
 PHE793  MET794  SER795  GLU796  ALA797  LYS798  CYS799  TRP800  GLU811  SER814 

> <Gold.Protein.RotatedAtoms>
  151.0333  134.9555  159.8122 H   0  0  0  0  0  0  0  0  0  0  0  0  # atno 6907 bound_to 6896
  152.5350  134.2751  159.8996 H   0  0  0  0  0  0  0  0  0  0  0  0  # atno 6908 bound_to 6896
  151.2761  133.4189  159.2658 H   0  0  0  0  0  0  0  0  0  0  0  0  # atno 6909 bound_to 6896
  146.0786  140.6102  142.8919 H   0  0  0  0  0  0  0  0  0  0  0  0  # atno 7974 bound_to 7965
  155.8632  140.3452  155.5770 H   0  0  0  0  0  0  0  0  0  0  0  0  # atno 8008 bound_to 7997
  155.7910  140.0871  157.2028 H   0  0  0  0  0  0  0  0  0  0  0  0  # atno 8009 bound_to 7997
  154.4013  140.1483  156.3150 H   0  0  0  0  0  0  0  0  0  0  0  0  # atno 8010 bound_to 7997
  139.7156  143.9038  152.2485 H   0  0  0  0  0  0  0  0  0  0  0  0  # atno 10167 bound_to 10162
  157.2568  130.7142  149.6433 H   0  0  0  0  0  0  0  0  0  0  0  0  # atno 10718 bound_to 10713
  154.3285  135.2755  155.2484 H   0  0  0  0  0  0  0  0  0  0  0  0  # atno 10763 bound_to 10752
  154.4806  135.5859  153.6390 H   0  0  0  0  0  0  0  0  0  0  0  0  # atno 10764 bound_to 10752
  152.9869  135.6110  154.3475 H   0  0  0  0  0  0  0  0  0  0  0  0  # atno 10765 bound_to 10752
  140.7400  133.8678  155.8960 H   0  0  0  0  0  0  0  0  0  0  0  0  # atno 11005 bound_to 11000
  144.7278  140.4578  143.6960 LP  0  0  0  0  0  0  0  0  0  0  0  0  # atno 17320 bound_to 7965
  145.6261  139.1530  143.2995 LP  0  0  0  0  0  0  0  0  0  0  0  0  # atno 17321 bound_to 7965
  139.8920  144.6960  150.8760 LP  0  0  0  0  0  0  0  0  0  0  0  0  # atno 17342 bound_to 10162
  140.7743  143.3579  151.1885 LP  0  0  0  0  0  0  0  0  0  0  0  0  # atno 17343 bound_to 10162
  155.9665  130.4410  150.5322 LP  0  0  0  0  0  0  0  0  0  0  0  0  # atno 17370 bound_to 10713
  157.3218  131.0683  151.1926 LP  0  0  0  0  0  0  0  0  0  0  0  0  # atno 17371 bound_to 10713
  140.9845  134.1361  157.4464 LP  0  0  0  0  0  0  0  0  0  0  0  0  # atno 17394 bound_to 11000
  139.8808  135.0021  156.6107 LP  0  0  0  0  0  0  0  0  0  0  0  0  # atno 17395 bound_to 11000

$$$$
