AV-unprocessed.smi:3278|AV-procd|sdf|12543|dock8
  -GOLD-   2272018463D 1   1.00000     0.00000
 Structure written by MMmdl.
 39 40  0  0  0  0  0  0  0  0  2 V2000
  147.5143  136.7381  157.6334 C   0  0  0  0  0  0  0  0  0  0  0  0
  147.9472  138.0565  157.2224 N   0  0  0  0  0  0  0  0  0  0  0  0
  148.6693  138.4160  156.1060 C   0  0  0  0  0  0  0  0  0  0  0  0
  148.8374  139.7735  156.1389 C   0  0  0  0  0  0  0  0  0  0  0  0
  149.5494  140.6585  155.1376 C   0  0  2  0  0  0  0  0  0  0  0  0
  148.5541  141.6542  154.5175 C   0  0  0  0  0  0  0  0  0  0  0  0
  150.0798  139.9138  154.0566 O   0  0  0  0  0  0  0  0  0  0  0  0
  150.7258  141.4080  155.8002 C   0  0  0  0  0  0  0  0  0  0  0  0
  150.2596  142.3201  156.8698 N   0  3  0  0  0  0  0  0  0  0  0  0
  151.3172  142.8770  157.7413 C   0  0  1  0  0  0  0  0  0  0  0  0
  150.8189  144.1374  158.4833 C   0  0  0  0  0  0  0  0  0  0  0  0
  151.9025  144.7785  159.3664 C   0  0  0  0  0  0  0  0  0  0  0  0
  152.4094  143.8298  160.4608 C   0  0  0  0  0  0  0  0  0  0  0  0
  153.1761  142.3548  159.7394 S   0  0  0  0  0  0  0  0  0  0  0  0
  151.7763  141.7929  158.7330 C   0  0  0  0  0  0  0  0  0  0  0  0
  148.1742  140.1511  157.3438 C   0  0  0  0  0  0  0  0  0  0  0  0
  147.6394  139.1249  157.9842 N   0  0  0  0  0  0  0  0  0  0  0  0
  147.8401  135.9938  156.9061 H   0  0  0  0  0  0  0  0  0  0  0  0
  146.4265  136.7119  157.7045 H   0  0  0  0  0  0  0  0  0  0  0  0
  147.9436  136.4950  158.6059 H   0  0  0  0  0  0  0  0  0  0  0  0
  148.9994  137.6838  155.3838 H   0  0  0  0  0  0  0  0  0  0  0  0
  148.1119  142.2998  155.2773 H   0  0  0  0  0  0  0  0  0  0  0  0
  147.7373  141.1356  154.0135 H   0  0  0  0  0  0  0  0  0  0  0  0
  149.0378  142.2992  153.7828 H   0  0  0  0  0  0  0  0  0  0  0  0
  150.0531  138.9950  154.2780 H   0  0  0  0  0  0  0  0  0  0  0  0
  151.4439  140.6997  156.2162 H   0  0  0  0  0  0  0  0  0  0  0  0
  151.2582  141.9838  155.0433 H   0  0  0  0  0  0  0  0  0  0  0  0
  149.7419  143.0812  156.4539 H   0  0  0  0  0  0  0  0  0  0  0  0
  152.1691  143.1403  157.1123 H   0  0  0  0  0  0  0  0  0  0  0  0
  150.4788  144.8870  157.7696 H   0  0  0  0  0  0  0  0  0  0  0  0
  149.9510  143.8876  159.0953 H   0  0  0  0  0  0  0  0  0  0  0  0
  152.7387  145.1046  158.7467 H   0  0  0  0  0  0  0  0  0  0  0  0
  151.4997  145.6785  159.8317 H   0  0  0  0  0  0  0  0  0  0  0  0
  153.1443  144.3346  161.0883 H   0  0  0  0  0  0  0  0  0  0  0  0
  151.5893  143.5241  161.1113 H   0  0  0  0  0  0  0  0  0  0  0  0
  150.9590  141.5057  159.3958 H   0  0  0  0  0  0  0  0  0  0  0  0
  152.0843  140.8936  158.1983 H   0  0  0  0  0  0  0  0  0  0  0  0
  148.0607  141.1384  157.7674 H   0  0  0  0  0  0  0  0  0  0  0  0
  149.6268  141.7893  157.4514 H   0  0  0  0  0  0  0  0  0  0  0  0
  1  2  1  0  0  0  0
  1 18  1  0  0  0  0
  1 19  1  0  0  0  0
  1 20  1  0  0  0  0
  2 17  1  0  0  0  0
  2  3  1  0  0  0  0
  3  4  2  0  0  0  0
  3 21  1  0  0  0  0
  4  5  1  0  0  0  0
  4 16  1  0  0  0  0
  5  6  1  0  0  0  0
  5  7  1  0  0  0  0
  5  8  1  0  0  0  0
  6 22  1  0  0  0  0
  6 23  1  0  0  0  0
  6 24  1  0  0  0  0
  7 25  1  0  0  0  0
  8  9  1  0  0  0  0
  8 26  1  0  0  0  0
  8 27  1  0  0  0  0
  9 10  1  0  0  0  0
  9 28  1  0  0  0  0
  9 39  1  0  0  0  0
 10 15  1  0  0  0  0
 10 11  1  0  0  0  0
 10 29  1  0  0  0  0
 11 12  1  0  0  0  0
 11 30  1  0  0  0  0
 11 31  1  0  0  0  0
 12 13  1  0  0  0  0
 12 32  1  0  0  0  0
 12 33  1  0  0  0  0
 13 14  1  0  0  0  0
 13 34  1  0  0  0  0
 13 35  1  0  0  0  0
 14 15  1  0  0  0  0
 15 36  1  0  0  0  0
 15 37  1  0  0  0  0
 16 17  2  0  0  0  0
 16 38  1  0  0  0  0
M  CHG  1   9   1
M  END
> <s_m_source_file>
AV-unprocessed.smi

> <i_m_source_file_index>
3278

> <i_lp_mmshare_version>
43012

> <i_f3d_flags>
0

> <s_epik_input>
W0NIM11uMVtjSF1jKFtjSF1uMSlbQ0BAXShbQ0gzXSkoW09IXSlbQ0gyXVtOSF1bQ0BASF0yW0NIMl1bQ0gyXVtDSDJdU1tDSDJdMg==

> <s_epik_cmdline>
J2VwaWtfcHl0aG9uJywgJy1waCcsICc3LjAnLCAnLXRuJywgJzgnLCAnLW1hJywgJzIwMCcsICctbWV0YWxfYmluZGluZycsICctaW1hZScsICc8aW5maWxlLm1hZT4nLCAnLW9tYWUnLCAnPG91dGZpbGUubWFlPic=

> <r_lp_tautomer_probability>
1

> <r_epik_Ionization_Penalty>
0.0185703

> <r_epik_Ionization_Penalty_Charging>
0.0185619

> <r_epik_Ionization_Penalty_Neutral>
8.47286e-06

> <r_epik_State_Penalty>
0.0147768

> <r_epik_Charging_Adjusted_Penalty>
0.0333386

> <i_epik_Tot_Q>
1

> <i_epik_Tot_abs_Q>
1

> <r_epik_Metal_State_Penalty>
0.0147782

> <b_epik_Metal_Only>
0

> <s_lp_Force_Field>
OPLS_2005

> <r_lp_Energy>
8.58851

> <b_lp_Chiralities_Consistent>
1

> <s_lp_Variant>
AV-unprocessed.smi:3278-4

> <Gold.Version>
5.8.1

> <Gold.Id.Protein>
6NUR|6NUR_protein|mol2

> <Gold.PLP.Fitness>
42.6006

> <Gold.PLP.PLP>
-33.9720

> <Gold.PLP.part.hbond>
-3.8946

> <Gold.PLP.part.metal>
0.0000

> <Gold.PLP.part.buried>
-3.6401

> <Gold.PLP.part.nonpolar>
-26.0833

> <Gold.PLP.part.repulsive>
0.0392

> <Gold.PLP.ligand.clash>
0.0000

> <Gold.PLP.ligand.torsion>
0.1992

> <Gold.PLP.Chemscore.Hbond>
3.0000

> <Gold.PLP.Chemscore.CHOScore>
0.0000

> <Gold.PLP.Chemscore.Metal>
0.0000

> <Gold.Chemscore.Hbonds>
donor molecule, donor type, donor heavy atom, donor atom, acceptor molecule, acceptor atom, score
      L1  H     9    28       P1  8028  2.00
      P1  H  7989  7998       L1     7  0.98

> <Gold.PLP.Chemscore.Internal.Correction>
0.0270

> <Gold.Rescore>
     Score         DG    S(hbond)    S(metal)    S(lipo)     H(rot)  DE(clash)    DE(int)     intcor
     16.98     -17.21       1.76        0.00      93.91       2.00       0.12       0.11       ----

> <Gold.Chemscore.Fitness>
16.9770

> <Gold.Chemscore.DG>
-17.2068

> <Gold.Chemscore.ZeroCoef>
-5.4800

> <Gold.Chemscore.Hbond>
1.7571

> <Gold.Chemscore.Metal>
0.0000

> <Gold.Chemscore.Lipo>
93.9109

> <Gold.Chemscore.Internal_Hbond>
0.0000

> <Gold.Chemscore.DEClash>
0.1210

> <Gold.Chemscore.DEInternal>
0.1088

> <Gold.Chemscore.Rot>
2.0038

> <Gold.Chemscore.Internal.Correction>
   9.000000E+99

> <Gold.Chemscore.Hbonds>
donor molecule, donor type, donor heavy atom, donor atom, acceptor molecule, acceptor atom, score
      L1  H     9    28       P1  8028  0.95
      P1  H  7989  7998       L1     7  0.51

> <Gold.Chemscore.Hbond.Weighted>
-5.8688

> <Gold.Chemscore.Metal.Weighted>
-0.0000

> <Gold.Chemscore.Lipo.Weighted>
-10.9876

> <Gold.Chemscore.Internal_Hbond.Weighted>
0.0000

> <Gold.Chemscore.DEClash.Weighted>
0.1210

> <Gold.Chemscore.DEInternal.Weighted>
0.1088

> <Gold.Chemscore.Rot.Weighted>
5.1296

> <Gold.Chemscore.Internal.Correction.Weighted>
   9.000000E+99

> <Gold.Protein.RotatedTorsions>
[ 6907 6896 6895 6894 ] final  131.77 input  -60.11 | X-H torsion
[ 7974 7965 7964 7962 ] final   -6.03 input  175.53 | X-H torsion
[ 8008 7997 7996 7995 ] final -112.96 input   59.86 | X-H torsion
[ 10167 10162 10161 10158 ] final  -68.92 input  -65.29 | X-H torsion
[ 10718 10713 10712 10709 ] final   93.12 input   66.30 | X-H torsion
[ 10763 10752 10751 10750 ] final  165.43 input  -60.55 | X-H torsion
[ 11005 11000 10999 10996 ] final -160.83 input  -57.11 | X-H torsion

> <Gold.Protein.ActiveResidues>
 VAL166  LYS551  ARG553  GLY616  TRP617  ASP618  TYR619  PRO620  LYS621  CYS622 
 ASP623  PHE694  ASN695  SER759  ASP760  ASP761  ALA762  ILE779  LEU786  VAL792 
 PHE793  MET794  SER795  GLU796  ALA797  LYS798  CYS799  TRP800  GLU811  SER814 

> <Gold.Protein.RotatedAtoms>
  152.3393  133.6048  159.5864 H   0  0  0  0  0  0  0  0  0  0  0  0  # atno 6907 bound_to 6896
  150.7469  133.9748  159.3566 H   0  0  0  0  0  0  0  0  0  0  0  0  # atno 6908 bound_to 6896
  151.7614  135.0810  160.0397 H   0  0  0  0  0  0  0  0  0  0  0  0  # atno 6909 bound_to 6896
  146.2340  140.2110  142.8335 H   0  0  0  0  0  0  0  0  0  0  0  0  # atno 7974 bound_to 7965
  155.0134  140.0393  157.2408 H   0  0  0  0  0  0  0  0  0  0  0  0  # atno 8008 bound_to 7997
  154.7441  140.2754  155.6325 H   0  0  0  0  0  0  0  0  0  0  0  0  # atno 8009 bound_to 7997
  156.2871  140.2660  156.2176 H   0  0  0  0  0  0  0  0  0  0  0  0  # atno 8010 bound_to 7997
  140.5471  143.2313  151.6982 H   0  0  0  0  0  0  0  0  0  0  0  0  # atno 10167 bound_to 10162
  157.6956  131.0467  150.3986 H   0  0  0  0  0  0  0  0  0  0  0  0  # atno 10718 bound_to 10713
  154.3238  135.2755  155.2506 H   0  0  0  0  0  0  0  0  0  0  0  0  # atno 10763 bound_to 10752
  154.4848  135.5849  153.6419 H   0  0  0  0  0  0  0  0  0  0  0  0  # atno 10764 bound_to 10752
  152.9873  135.6120  154.3425 H   0  0  0  0  0  0  0  0  0  0  0  0  # atno 10765 bound_to 10752
  140.6271  134.4690  157.5227 H   0  0  0  0  0  0  0  0  0  0  0  0  # atno 11005 bound_to 11000
  144.9707  140.8365  143.5457 LP  0  0  0  0  0  0  0  0  0  0  0  0  # atno 17320 bound_to 7965
  145.2091  139.2213  143.5152 LP  0  0  0  0  0  0  0  0  0  0  0  0  # atno 17321 bound_to 7965
  139.5012  144.3878  152.0311 LP  0  0  0  0  0  0  0  0  0  0  0  0  # atno 17342 bound_to 10162
  140.2991  144.3666  150.6065 LP  0  0  0  0  0  0  0  0  0  0  0  0  # atno 17343 bound_to 10162
  156.4382  130.3986  149.6715 LP  0  0  0  0  0  0  0  0  0  0  0  0  # atno 17370 bound_to 10713
  156.3908  130.7626  151.2627 LP  0  0  0  0  0  0  0  0  0  0  0  0  # atno 17371 bound_to 10713
  139.9130  134.8304  156.1461 LP  0  0  0  0  0  0  0  0  0  0  0  0  # atno 17394 bound_to 11000
  141.0702  133.6800  156.2124 LP  0  0  0  0  0  0  0  0  0  0  0  0  # atno 17395 bound_to 11000

$$$$
