AV-unprocessed.smi:1005|AV-procd|sdf|4367|dock2
  -GOLD-   22720 2273D 1   1.00000     0.00000
 Structure written by MMmdl.
 57 59  0  0  0  0  0  0  0  0  3 V2000
  151.7368  143.9650  161.4715 C   0  0  0  0  0  0  0  0  0  0  0  0
  151.5223  143.2400  160.1547 C   0  0  0  0  0  0  0  0  0  0  0  0
  152.1301  141.9797  159.9570 C   0  0  0  0  0  0  0  0  0  0  0  0
  151.9543  141.2727  158.7474 C   0  0  0  0  0  0  0  0  0  0  0  0
  152.4450  140.0422  158.3454 N   0  0  0  0  0  0  0  0  0  0  0  0
  151.9302  139.9337  157.1244 C   0  0  0  0  0  0  0  0  0  0  0  0
  151.1586  140.9478  156.6876 N   0  0  0  0  0  0  0  0  0  0  0  0
  150.4914  141.0459  155.4010 C   0  0  0  0  0  0  0  0  0  0  0  0
  149.6650  139.7888  155.0656 C   0  0  1  0  0  0  0  0  0  0  0  0
  148.9049  140.0218  153.8950 O   0  0  0  0  0  0  0  0  0  0  0  0
  150.5662  138.5597  154.8301 C   0  0  0  0  0  0  0  0  0  0  0  0
  149.8257  137.2750  154.9251 N   0  3  1  0  0  0  0  0  0  0  0  0
  150.6992  136.1430  155.3141 C   0  0  0  0  0  0  0  0  0  0  0  0
  149.9006  134.8295  155.3249 C   0  0  0  0  0  0  0  0  0  0  0  0
  148.7853  134.9568  156.1988 O   0  0  0  0  0  0  0  0  0  0  0  0
  147.8851  135.9794  155.7846 C   0  0  1  0  0  0  0  0  0  0  0  0
  146.6838  135.9782  156.7492 C   0  0  0  0  0  0  0  0  0  0  0  0
  147.0591  136.3277  158.1439 N   0  3  0  0  0  0  0  0  0  0  0  0
  147.8781  135.2902  158.8133 C   0  0  0  0  0  0  0  0  0  0  0  0
  145.8804  136.6941  158.9603 C   0  0  0  0  0  0  0  0  0  0  0  0
  148.6314  137.3290  155.8045 C   0  0  0  0  0  0  0  0  0  0  0  0
  151.1483  141.8663  157.7324 C   0  0  0  0  0  0  0  0  0  0  0  0
  150.5404  143.1208  157.9164 C   0  0  0  0  0  0  0  0  0  0  0  0
  150.7245  143.8126  159.1317 C   0  0  0  0  0  0  0  0  0  0  0  0
  150.0615  145.1653  159.3214 C   0  0  0  0  0  0  0  0  0  0  0  0
  152.3954  143.4025  162.1340 H   0  0  0  0  0  0  0  0  0  0  0  0
  150.7869  144.1088  161.9870 H   0  0  0  0  0  0  0  0  0  0  0  0
  152.1900  144.9417  161.3006 H   0  0  0  0  0  0  0  0  0  0  0  0
  152.7380  141.5434  160.7362 H   0  0  0  0  0  0  0  0  0  0  0  0
  152.1235  139.0651  156.5120 H   0  0  0  0  0  0  0  0  0  0  0  0
  149.8592  141.9350  155.4032 H   0  0  0  0  0  0  0  0  0  0  0  0
  151.2516  141.2085  154.6358 H   0  0  0  0  0  0  0  0  0  0  0  0
  148.9754  139.6031  155.8885 H   0  0  0  0  0  0  0  0  0  0  0  0
  149.4782  139.9527  153.1457 H   0  0  0  0  0  0  0  0  0  0  0  0
  151.0107  138.6452  153.8369 H   0  0  0  0  0  0  0  0  0  0  0  0
  151.3980  138.5523  155.5363 H   0  0  0  0  0  0  0  0  0  0  0  0
  151.5320  136.0580  154.6148 H   0  0  0  0  0  0  0  0  0  0  0  0
  151.1256  136.3305  156.3011 H   0  0  0  0  0  0  0  0  0  0  0  0
  149.5638  134.5687  154.3203 H   0  0  0  0  0  0  0  0  0  0  0  0
  150.5297  134.0097  155.6721 H   0  0  0  0  0  0  0  0  0  0  0  0
  147.5489  135.7821  154.7663 H   0  0  0  0  0  0  0  0  0  0  0  0
  145.9499  136.6968  156.3806 H   0  0  0  0  0  0  0  0  0  0  0  0
  146.1893  135.0056  156.7445 H   0  0  0  0  0  0  0  0  0  0  0  0
  147.3332  134.3480  158.8862 H   0  0  0  0  0  0  0  0  0  0  0  0
  148.1431  135.6050  159.8232 H   0  0  0  0  0  0  0  0  0  0  0  0
  148.8103  135.1061  158.2811 H   0  0  0  0  0  0  0  0  0  0  0  0
  145.1923  135.8529  159.0531 H   0  0  0  0  0  0  0  0  0  0  0  0
  145.3421  137.5293  158.5115 H   0  0  0  0  0  0  0  0  0  0  0  0
  146.1832  137.0003  159.9624 H   0  0  0  0  0  0  0  0  0  0  0  0
  148.9386  137.5774  156.8219 H   0  0  0  0  0  0  0  0  0  0  0  0
  147.9542  138.1160  155.4751 H   0  0  0  0  0  0  0  0  0  0  0  0
  149.9350  143.5457  157.1296 H   0  0  0  0  0  0  0  0  0  0  0  0
  149.4593  145.4382  158.4545 H   0  0  0  0  0  0  0  0  0  0  0  0
  150.8136  145.9413  159.4646 H   0  0  0  0  0  0  0  0  0  0  0  0
  149.4060  145.1527  160.1925 H   0  0  0  0  0  0  0  0  0  0  0  0
  147.6269  137.1616  158.0902 H   0  0  0  0  0  0  0  0  0  0  0  0
  149.4999  137.0726  153.9901 H   0  0  0  0  0  0  0  0  0  0  0  0
  1  2  1  0  0  0  0
  1 26  1  0  0  0  0
  1 27  1  0  0  0  0
  1 28  1  0  0  0  0
  2 24  1  0  0  0  0
  2  3  2  0  0  0  0
  3  4  1  0  0  0  0
  3 29  1  0  0  0  0
  4 22  2  0  0  0  0
  4  5  1  0  0  0  0
  5  6  2  0  0  0  0
  6  7  1  0  0  0  0
  6 30  1  0  0  0  0
  7  8  1  0  0  0  0
  7 22  1  0  0  0  0
  8  9  1  0  0  0  0
  8 31  1  0  0  0  0
  8 32  1  0  0  0  0
  9 10  1  0  0  0  0
  9 11  1  0  0  0  0
  9 33  1  0  0  0  0
 10 34  1  0  0  0  0
 11 12  1  0  0  0  0
 11 35  1  0  0  0  0
 11 36  1  0  0  0  0
 12 21  1  0  0  0  0
 12 13  1  0  0  0  0
 12 57  1  0  0  0  0
 13 14  1  0  0  0  0
 13 37  1  0  0  0  0
 13 38  1  0  0  0  0
 14 15  1  0  0  0  0
 14 39  1  0  0  0  0
 14 40  1  0  0  0  0
 15 16  1  0  0  0  0
 16 17  1  0  0  0  0
 16 21  1  0  0  0  0
 16 41  1  0  0  0  0
 17 18  1  0  0  0  0
 17 42  1  0  0  0  0
 17 43  1  0  0  0  0
 18 19  1  0  0  0  0
 18 20  1  0  0  0  0
 18 56  1  0  0  0  0
 19 44  1  0  0  0  0
 19 45  1  0  0  0  0
 19 46  1  0  0  0  0
 20 47  1  0  0  0  0
 20 48  1  0  0  0  0
 20 49  1  0  0  0  0
 21 50  1  0  0  0  0
 21 51  1  0  0  0  0
 22 23  1  0  0  0  0
 23 24  2  0  0  0  0
 23 52  1  0  0  0  0
 24 25  1  0  0  0  0
 25 53  1  0  0  0  0
 25 54  1  0  0  0  0
 25 55  1  0  0  0  0
M  CHG  1  12   1
M  CHG  1  18   1
M  END
> <s_m_source_file>
AV-unprocessed.smi

> <i_m_source_file_index>
1005

> <i_lp_mmshare_version>
43012

> <i_f3d_flags>
0

> <s_epik_input>
W0NIM11jKFtjSF0xKWMoW0NIM10pW2NIXWMoYzEyKW4oW2NIXW4yKVtDSDJdW0NASF0oW09IXSlbQ0gyXU4zW0NIMl1bQ0gyXU9bQ0BIXShbQ0gyXTMpW0NIMl1OKFtDSDNdKVtDSDNd

> <s_epik_cmdline>
J2VwaWtfcHl0aG9uJywgJy1waCcsICc3LjAnLCAnLXRuJywgJzgnLCAnLW1hJywgJzIwMCcsICctbWV0YWxfYmluZGluZycsICctaW1hZScsICc8aW5maWxlLm1hZT4nLCAnLW9tYWUnLCAnPG91dGZpbGUubWFlPic=

> <r_epik_Ionization_Penalty>
1.0968

> <r_epik_Ionization_Penalty_Charging>
1.0096

> <r_epik_Ionization_Penalty_Neutral>
0.0871956

> <r_epik_State_Penalty>
1.31185

> <r_epik_Charging_Adjusted_Penalty>
2.32145

> <i_epik_Tot_Q>
2

> <i_epik_Tot_abs_Q>
2

> <r_epik_Metal_State_Penalty>
1.22442

> <b_epik_Metal_Only>
0

> <s_lp_Force_Field>
OPLS_2005

> <r_lp_Energy>
33.8035

> <b_lp_Chiralities_Consistent>
1

> <s_lp_Variant>
AV-unprocessed.smi:1005-6

> <Gold.Version>
5.8.1

> <Gold.Id.Protein>
6NUR|6NUR_protein|mol2

> <Gold.PLP.Fitness>
51.4243

> <Gold.PLP.PLP>
-40.7272

> <Gold.PLP.part.hbond>
-3.0000

> <Gold.PLP.part.metal>
0.0000

> <Gold.PLP.part.buried>
-2.3370

> <Gold.PLP.part.nonpolar>
-34.1337

> <Gold.PLP.part.repulsive>
0.0696

> <Gold.PLP.ligand.clash>
0.0000

> <Gold.PLP.ligand.torsion>
0.7109

> <Gold.PLP.Chemscore.Hbond>
4.0000

> <Gold.PLP.Chemscore.CHOScore>
0.0000

> <Gold.PLP.Chemscore.Metal>
0.0000

> <Gold.Chemscore.Hbonds>
donor molecule, donor type, donor heavy atom, donor atom, acceptor molecule, acceptor atom, score
      L1  H    10    34       P1  7957  0.91
      L1  H    12    57       P1  7948  0.52

> <Gold.PLP.Chemscore.Internal.Correction>
0.1189

> <Gold.Rescore>
     Score         DG    S(hbond)    S(metal)    S(lipo)     H(rot)  DE(clash)    DE(int)     intcor
     16.46     -20.27       2.44        0.00     111.06       2.48       0.54       3.27       ----

> <Gold.Chemscore.Fitness>
16.4642

> <Gold.Chemscore.DG>
-20.2734

> <Gold.Chemscore.ZeroCoef>
-5.4800

> <Gold.Chemscore.Hbond>
2.4407

> <Gold.Chemscore.Metal>
0.0000

> <Gold.Chemscore.Lipo>
111.0566

> <Gold.Chemscore.Internal_Hbond>
0.0000

> <Gold.Chemscore.DEClash>
0.5434

> <Gold.Chemscore.DEInternal>
3.2658

> <Gold.Chemscore.Rot>
2.4814

> <Gold.Chemscore.Internal.Correction>
   9.000000E+99

> <Gold.Chemscore.Hbonds>
donor molecule, donor type, donor heavy atom, donor atom, acceptor molecule, acceptor atom, score
      L1  H    10    34       P1  7957  0.87
      L1  H    12    57       P1  7948  0.25

> <Gold.Chemscore.Hbond.Weighted>
-8.1521

> <Gold.Chemscore.Metal.Weighted>
-0.0000

> <Gold.Chemscore.Lipo.Weighted>
-12.9936

> <Gold.Chemscore.Internal_Hbond.Weighted>
0.0000

> <Gold.Chemscore.DEClash.Weighted>
0.5434

> <Gold.Chemscore.DEInternal.Weighted>
3.2658

> <Gold.Chemscore.Rot.Weighted>
6.3524

> <Gold.Chemscore.Internal.Correction.Weighted>
   9.000000E+99

> <Gold.Protein.RotatedTorsions>
[ 6907 6896 6895 6894 ] final  -19.52 input  -60.11 | X-H torsion
[ 7974 7965 7964 7962 ] final -153.85 input  175.53 | X-H torsion
[ 8008 7997 7996 7995 ] final  155.93 input   59.86 | X-H torsion
[ 10167 10162 10161 10158 ] final  120.58 input  -65.29 | X-H torsion
[ 10718 10713 10712 10709 ] final -177.04 input   66.30 | X-H torsion
[ 10763 10752 10751 10750 ] final   91.71 input  -60.55 | X-H torsion
[ 11005 11000 10999 10996 ] final -169.66 input  -57.11 | X-H torsion

> <Gold.Protein.ActiveResidues>
 VAL166  LYS551  ARG553  GLY616  TRP617  ASP618  TYR619  PRO620  LYS621  CYS622 
 ASP623  PHE694  ASN695  SER759  ASP760  ASP761  ALA762  ILE779  LEU786  VAL792 
 PHE793  MET794  SER795  GLU796  ALA797  LYS798  CYS799  TRP800  GLU811  SER814 

> <Gold.Protein.RotatedAtoms>
  151.2619  135.0656  159.9101 H   0  0  0  0  0  0  0  0  0  0  0  0  # atno 6907 bound_to 6896
  152.5364  134.0222  159.7997 H   0  0  0  0  0  0  0  0  0  0  0  0  # atno 6908 bound_to 6896
  151.0446  133.5626  159.2679 H   0  0  0  0  0  0  0  0  0  0  0  0  # atno 6909 bound_to 6896
  144.7719  140.4469  143.5901 H   0  0  0  0  0  0  0  0  0  0  0  0  # atno 7974 bound_to 7965
  156.2451  140.1926  156.6877 H   0  0  0  0  0  0  0  0  0  0  0  0  # atno 8008 bound_to 7997
  154.6275  140.0600  156.9717 H   0  0  0  0  0  0  0  0  0  0  0  0  # atno 8009 bound_to 7997
  155.1763  140.3272  155.4386 H   0  0  0  0  0  0  0  0  0  0  0  0  # atno 8010 bound_to 7997
  139.5973  144.7046  151.3146 H   0  0  0  0  0  0  0  0  0  0  0  0  # atno 10167 bound_to 10162
  156.8235  130.9628  151.3110 H   0  0  0  0  0  0  0  0  0  0  0  0  # atno 10718 bound_to 10713
  153.2113  135.4387  155.0382 H   0  0  0  0  0  0  0  0  0  0  0  0  # atno 10763 bound_to 10752
  154.8201  135.3333  154.7065 H   0  0  0  0  0  0  0  0  0  0  0  0  # atno 10764 bound_to 10752
  153.7503  135.6998  153.5003 H   0  0  0  0  0  0  0  0  0  0  0  0  # atno 10765 bound_to 10752
  140.5283  134.5641  157.5067 H   0  0  0  0  0  0  0  0  0  0  0  0  # atno 11005 bound_to 11000
  145.6298  139.1535  143.2975 LP  0  0  0  0  0  0  0  0  0  0  0  0  # atno 17320 bound_to 7965
  146.1872  140.6403  142.9162 LP  0  0  0  0  0  0  0  0  0  0  0  0  # atno 17321 bound_to 7965
  140.7222  143.7104  150.7774 LP  0  0  0  0  0  0  0  0  0  0  0  0  # atno 17342 bound_to 10162
  140.0673  143.5095  152.2597 LP  0  0  0  0  0  0  0  0  0  0  0  0  # atno 17343 bound_to 10162
  157.6444  130.8832  149.9510 LP  0  0  0  0  0  0  0  0  0  0  0  0  # atno 17370 bound_to 10713
  156.0975  130.3658  150.0280 LP  0  0  0  0  0  0  0  0  0  0  0  0  # atno 17371 bound_to 10713
  139.9568  134.7521  156.0324 LP  0  0  0  0  0  0  0  0  0  0  0  0  # atno 17394 bound_to 11000
  141.1296  133.6590  156.3428 LP  0  0  0  0  0  0  0  0  0  0  0  0  # atno 17395 bound_to 11000

$$$$
