AV-unprocessed.smi:234|AV-procd|sdf|1800|dock10
  -GOLD-   2262020373D 1   1.00000     0.00000
 Structure written by MMmdl.
 59 62  0  0  0  0  0  0  0  0  1 V2000
  150.8163  142.3632  157.1571 C   0  0  0  0  0  0  0  0  0  0  0  0
  150.9533  140.9239  156.6563 C   0  0  0  0  0  0  0  0  0  0  0  0
  149.8753  140.1565  157.1658 O   0  0  0  0  0  0  0  0  0  0  0  0
  150.0715  138.7587  157.0183 C   0  0  1  0  0  0  0  0  0  0  0  0
  148.7661  137.9760  157.1498 C   0  0  0  0  0  0  0  0  0  0  0  0
  149.2495  137.0945  155.9818 C   0  0  2  0  0  0  0  0  0  0  0  0
  149.9181  135.8314  156.3440 N   0  0  0  0  0  0  0  0  0  0  0  0
  150.9484  135.8183  157.3728 C   0  0  0  0  0  0  0  0  0  0  0  0
  149.4861  134.6180  155.9351 C   0  0  0  0  0  0  0  0  0  0  0  0
  150.1689  133.5119  156.3246 N   0  0  0  0  0  0  0  0  0  0  0  0
  149.7637  132.3029  155.9239 C   0  0  0  0  0  0  0  0  0  0  0  0
  148.7323  131.9861  155.1375 N   0  0  0  0  0  0  0  0  0  0  0  0
  148.0580  133.0996  154.7299 C   0  0  0  0  0  0  0  0  0  0  0  0
  148.3666  134.4436  155.0782 C   0  0  0  0  0  0  0  0  0  0  0  0
  147.4659  135.3125  154.4757 N   0  0  0  0  0  0  0  0  0  0  0  0
  146.6639  134.5245  153.8126 C   0  0  0  0  0  0  0  0  0  0  0  0
  146.9532  133.1805  153.9003 N   0  0  0  0  0  0  0  0  0  0  0  0
  146.2340  132.0900  153.2588 C   0  0  0  0  0  0  0  0  0  0  0  0
  146.0463  132.2893  151.7316 C   0  0  2  0  0  0  0  0  0  0  0  0
  147.3092  132.6007  151.1680 O   0  0  0  0  0  0  0  0  0  0  0  0
  145.0855  133.4251  151.3819 C   0  0  0  0  0  0  0  0  0  0  0  0
  144.4612  132.9641  150.0738 C   0  0  0  0  0  0  0  0  0  0  0  0
  144.2960  131.5752  150.2942 O   0  0  0  0  0  0  0  0  0  0  0  0
  145.4637  131.0815  150.9434 C   0  0  2  0  0  0  0  0  0  0  0  0
  145.0704  129.8395  151.7584 C   0  0  0  0  0  0  0  0  0  0  0  0
  150.2007  138.2564  155.5575 C   0  0  0  0  0  0  0  0  0  0  0  0
  149.5998  139.1733  154.4822 C   0  0  0  0  0  0  0  0  0  0  0  0
  151.6199  137.9220  155.0817 C   0  0  0  0  0  0  0  0  0  0  0  0
  151.6337  142.9830  156.7881 H   0  0  0  0  0  0  0  0  0  0  0  0
  150.8321  142.4020  158.2464 H   0  0  0  0  0  0  0  0  0  0  0  0
  149.8797  142.8064  156.8184 H   0  0  0  0  0  0  0  0  0  0  0  0
  150.9510  140.9108  155.5664 H   0  0  0  0  0  0  0  0  0  0  0  0
  151.9029  140.5024  156.9889 H   0  0  0  0  0  0  0  0  0  0  0  0
  150.8393  138.3613  157.6846 H   0  0  0  0  0  0  0  0  0  0  0  0
  148.6128  137.5073  158.1193 H   0  0  0  0  0  0  0  0  0  0  0  0
  147.8949  138.5739  156.8787 H   0  0  0  0  0  0  0  0  0  0  0  0
  148.4528  136.9330  155.2548 H   0  0  0  0  0  0  0  0  0  0  0  0
  151.8180  135.2547  157.0334 H   0  0  0  0  0  0  0  0  0  0  0  0
  150.5796  135.3609  158.2912 H   0  0  0  0  0  0  0  0  0  0  0  0
  151.2738  136.8323  157.6062 H   0  0  0  0  0  0  0  0  0  0  0  0
  150.3504  131.4705  156.2838 H   0  0  0  0  0  0  0  0  0  0  0  0
  145.8366  134.9057  153.2317 H   0  0  0  0  0  0  0  0  0  0  0  0
  146.7706  131.1619  153.4610 H   0  0  0  0  0  0  0  0  0  0  0  0
  145.2661  132.0014  153.7525 H   0  0  0  0  0  0  0  0  0  0  0  0
  147.7985  131.7986  151.0661 H   0  0  0  0  0  0  0  0  0  0  0  0
  144.2982  133.4956  152.1335 H   0  0  0  0  0  0  0  0  0  0  0  0
  145.5627  134.4036  151.3090 H   0  0  0  0  0  0  0  0  0  0  0  0
  143.5114  133.4552  149.8617 H   0  0  0  0  0  0  0  0  0  0  0  0
  145.1363  133.1302  149.2327 H   0  0  0  0  0  0  0  0  0  0  0  0
  146.1593  130.7701  150.1616 H   0  0  0  0  0  0  0  0  0  0  0  0
  145.9312  129.4126  152.2732 H   0  0  0  0  0  0  0  0  0  0  0  0
  144.6656  129.0662  151.1054 H   0  0  0  0  0  0  0  0  0  0  0  0
  144.3060  130.0706  152.5004 H   0  0  0  0  0  0  0  0  0  0  0  0
  149.5498  138.6721  153.5151 H   0  0  0  0  0  0  0  0  0  0  0  0
  150.1881  140.0815  154.3490 H   0  0  0  0  0  0  0  0  0  0  0  0
  148.5857  139.4849  154.7327 H   0  0  0  0  0  0  0  0  0  0  0  0
  151.6066  137.3296  154.1666 H   0  0  0  0  0  0  0  0  0  0  0  0
  152.1802  137.3612  155.8286 H   0  0  0  0  0  0  0  0  0  0  0  0
  152.1975  138.8230  154.8738 H   0  0  0  0  0  0  0  0  0  0  0  0
  1  2  1  0  0  0  0
  1 29  1  0  0  0  0
  1 30  1  0  0  0  0
  1 31  1  0  0  0  0
  2  3  1  0  0  0  0
  2 32  1  0  0  0  0
  2 33  1  0  0  0  0
  3  4  1  0  0  0  0
  4 26  1  0  0  0  0
  4  5  1  0  0  0  0
  4 34  1  0  0  0  0
  5  6  1  0  0  0  0
  5 35  1  0  0  0  0
  5 36  1  0  0  0  0
  6  7  1  0  0  0  0
  6 26  1  0  0  0  0
  6 37  1  0  0  0  0
  7  8  1  0  0  0  0
  7  9  1  0  0  0  0
  8 38  1  0  0  0  0
  8 39  1  0  0  0  0
  8 40  1  0  0  0  0
  9 14  1  0  0  0  0
  9 10  2  0  0  0  0
 10 11  1  0  0  0  0
 11 12  2  0  0  0  0
 11 41  1  0  0  0  0
 12 13  1  0  0  0  0
 13 17  1  0  0  0  0
 13 14  2  0  0  0  0
 14 15  1  0  0  0  0
 15 16  2  0  0  0  0
 16 17  1  0  0  0  0
 16 42  1  0  0  0  0
 17 18  1  0  0  0  0
 18 19  1  0  0  0  0
 18 43  1  0  0  0  0
 18 44  1  0  0  0  0
 19 24  1  0  0  0  0
 19 20  1  0  0  0  0
 19 21  1  0  0  0  0
 20 45  1  0  0  0  0
 21 22  1  0  0  0  0
 21 46  1  0  0  0  0
 21 47  1  0  0  0  0
 22 23  1  0  0  0  0
 22 48  1  0  0  0  0
 22 49  1  0  0  0  0
 23 24  1  0  0  0  0
 24 25  1  0  0  0  0
 24 50  1  0  0  0  0
 25 51  1  0  0  0  0
 25 52  1  0  0  0  0
 25 53  1  0  0  0  0
 26 27  1  0  0  0  0
 26 28  1  0  0  0  0
 27 54  1  0  0  0  0
 27 55  1  0  0  0  0
 27 56  1  0  0  0  0
 28 57  1  0  0  0  0
 28 58  1  0  0  0  0
 28 59  1  0  0  0  0
M  END
> <s_m_source_file>
AV-unprocessed.smi

> <i_m_source_file_index>
234

> <i_lp_mmshare_version>
43012

> <i_f3d_flags>
0

> <s_epik_input>
W0NIM11bQ0gyXU9bQ0BASF0oQzEoW0NIM10pW0NIM10pW0NIMl1bQ0BIXTFOKFtDSDNdKWMobltjSF1uMiljKGMyMyluW2NIXW4zW0NIMl1bQ0BAXTQoW09IXSlbQ0gyXVtDSDJdT1tDQEhdNFtDSDNd

> <s_epik_cmdline>
J2VwaWtfcHl0aG9uJywgJy1waCcsICc3LjAnLCAnLXRuJywgJzgnLCAnLW1hJywgJzIwMCcsICctbWV0YWxfYmluZGluZycsICctaW1hZScsICc8aW5maWxlLm1hZT4nLCAnLW9tYWUnLCAnPG91dGZpbGUubWFlPic=

> <r_lp_tautomer_probability>
1

> <r_epik_Ionization_Penalty>
0.00349132

> <r_epik_Ionization_Penalty_Charging>
0

> <r_epik_Ionization_Penalty_Neutral>
0.00349132

> <r_epik_State_Penalty>
0.00242418

> <r_epik_Charging_Adjusted_Penalty>
0.00242418

> <i_epik_Tot_Q>
0

> <i_epik_Tot_abs_Q>
0

> <r_epik_Metal_State_Penalty>
-0

> <b_epik_Metal_Only>
0

> <s_lp_Force_Field>
OPLS_2005

> <r_lp_Energy>
53.0859

> <b_lp_Chiralities_Consistent>
1

> <s_lp_Variant>
AV-unprocessed.smi:234-16

> <Gold.Version>
5.8.1

> <Gold.Id.Protein>
6NUR|6NUR_protein|mol2

> <Gold.PLP.Fitness>
44.4014

> <Gold.PLP.PLP>
-41.4288

> <Gold.PLP.part.hbond>
-1.7073

> <Gold.PLP.part.metal>
0.0000

> <Gold.PLP.part.buried>
-7.8912

> <Gold.PLP.part.nonpolar>
-33.9684

> <Gold.PLP.part.repulsive>
1.9468

> <Gold.PLP.ligand.clash>
0.0000

> <Gold.PLP.ligand.torsion>
0.4730

> <Gold.PLP.Chemscore.Hbond>
1.0889

> <Gold.PLP.Chemscore.CHOScore>
0.0000

> <Gold.PLP.Chemscore.Metal>
0.0000

> <Gold.Chemscore.Hbonds>
donor molecule, donor type, donor heavy atom, donor atom, acceptor molecule, acceptor atom, score
      L1  H    20    45       P1 10747  1.00
      P1  H 10785 10796       L1    23  0.10

> <Gold.PLP.Chemscore.Internal.Correction>
0.6518

> <Gold.Rescore>
     Score         DG    S(hbond)    S(metal)    S(lipo)     H(rot)  DE(clash)    DE(int)     intcor
     11.77     -14.49       1.02        0.00      99.63       2.37       0.56       2.16       ----

> <Gold.Chemscore.Fitness>
11.7680

> <Gold.Chemscore.DG>
-14.4909

> <Gold.Chemscore.ZeroCoef>
-5.4800

> <Gold.Chemscore.Hbond>
1.0225

> <Gold.Chemscore.Metal>
0.0000

> <Gold.Chemscore.Lipo>
99.6303

> <Gold.Chemscore.Internal_Hbond>
0.0000

> <Gold.Chemscore.DEClash>
0.5613

> <Gold.Chemscore.DEInternal>
2.1617

> <Gold.Chemscore.Rot>
2.3676

> <Gold.Chemscore.Internal.Correction>
   9.000000E+99

> <Gold.Chemscore.Hbonds>
donor molecule, donor type, donor heavy atom, donor atom, acceptor molecule, acceptor atom, score
      L1  H    20    45       P1 10747  0.95
      P1  H 10785 10796       L1    23  0.10

> <Gold.Chemscore.Hbond.Weighted>
-3.4152

> <Gold.Chemscore.Metal.Weighted>
-0.0000

> <Gold.Chemscore.Lipo.Weighted>
-11.6567

> <Gold.Chemscore.Internal_Hbond.Weighted>
0.0000

> <Gold.Chemscore.DEClash.Weighted>
0.5613

> <Gold.Chemscore.DEInternal.Weighted>
2.1617

> <Gold.Chemscore.Rot.Weighted>
6.0610

> <Gold.Chemscore.Internal.Correction.Weighted>
   9.000000E+99

> <Gold.Protein.RotatedTorsions>
[ 6907 6896 6895 6894 ] final  170.17 input  -60.11 | X-H torsion
[ 7974 7965 7964 7962 ] final  -35.30 input  175.53 | X-H torsion
[ 8008 7997 7996 7995 ] final  -41.75 input   59.86 | X-H torsion
[ 10167 10162 10161 10158 ] final -175.60 input  -65.29 | X-H torsion
[ 10718 10713 10712 10709 ] final   71.38 input   66.30 | X-H torsion
[ 10763 10752 10751 10750 ] final   40.25 input  -60.55 | X-H torsion
[ 11005 11000 10999 10996 ] final  124.20 input  -57.11 | X-H torsion

> <Gold.Protein.ActiveResidues>
 VAL166  LYS551  ARG553  GLY616  TRP617  ASP618  TYR619  PRO620  LYS621  CYS622 
 ASP623  PHE694  ASN695  SER759  ASP760  ASP761  ALA762  ILE779  LEU786  VAL792 
 PHE793  MET794  SER795  GLU796  ALA797  LYS798  CYS799  TRP800  GLU811  SER814 

> <Gold.Protein.RotatedAtoms>
  151.8204  133.3394  159.3582 H   0  0  0  0  0  0  0  0  0  0  0  0  # atno 6907 bound_to 6896
  150.7296  134.5579  159.5837 H   0  0  0  0  0  0  0  0  0  0  0  0  # atno 6908 bound_to 6896
  152.3010  134.7612  160.0409 H   0  0  0  0  0  0  0  0  0  0  0  0  # atno 6909 bound_to 6896
  146.0758  140.6143  142.8931 H   0  0  0  0  0  0  0  0  0  0  0  0  # atno 7974 bound_to 7965
  154.4002  140.1491  156.3243 H   0  0  0  0  0  0  0  0  0  0  0  0  # atno 8008 bound_to 7997
  155.8501  140.3458  155.5666 H   0  0  0  0  0  0  0  0  0  0  0  0  # atno 8009 bound_to 7997
  155.7993  140.0868  157.1956 H   0  0  0  0  0  0  0  0  0  0  0  0  # atno 8010 bound_to 7997
  139.5572  144.1959  152.1180 H   0  0  0  0  0  0  0  0  0  0  0  0  # atno 10167 bound_to 10162
  157.6448  130.9525  150.0781 H   0  0  0  0  0  0  0  0  0  0  0  0  # atno 10718 bound_to 10713
  152.9942  135.6197  154.2596 H   0  0  0  0  0  0  0  0  0  0  0  0  # atno 10763 bound_to 10752
  154.2332  135.2791  155.2883 H   0  0  0  0  0  0  0  0  0  0  0  0  # atno 10764 bound_to 10752
  154.5432  135.5755  153.6915 H   0  0  0  0  0  0  0  0  0  0  0  0  # atno 10765 bound_to 10752
  139.9347  134.9640  156.8373 H   0  0  0  0  0  0  0  0  0  0  0  0  # atno 11005 bound_to 11000
  144.7260  140.4527  143.6972 LP  0  0  0  0  0  0  0  0  0  0  0  0  # atno 17320 bound_to 7965
  145.6309  139.1536  143.2969 LP  0  0  0  0  0  0  0  0  0  0  0  0  # atno 17321 bound_to 7965
  140.1465  144.5154  150.6713 LP  0  0  0  0  0  0  0  0  0  0  0  0  # atno 17342 bound_to 10162
  140.6847  143.2344  151.5292 LP  0  0  0  0  0  0  0  0  0  0  0  0  # atno 17343 bound_to 10162
  156.1765  130.3648  149.9093 LP  0  0  0  0  0  0  0  0  0  0  0  0  # atno 17370 bound_to 10713
  156.7056  130.8950  151.3604 LP  0  0  0  0  0  0  0  0  0  0  0  0  # atno 17371 bound_to 10713
  140.6106  134.0086  155.7575 LP  0  0  0  0  0  0  0  0  0  0  0  0  # atno 17394 bound_to 11000
  141.0955  133.9850  157.3167 LP  0  0  0  0  0  0  0  0  0  0  0  0  # atno 17395 bound_to 11000

$$$$
