AV-unprocessed.smi:1958|AV-procd|sdf|7906|dock7
  -GOLD-   2272010 63D 1   1.00000     0.00000
 Structure written by MMmdl.
 47 48  0  0  0  0  0  0  0  0  1 V2000
  151.6048  144.1977  157.9394 C   0  0  0  0  0  0  0  0  0  0  0  0
  151.4239  143.0844  158.7965 O   0  0  0  0  0  0  0  0  0  0  0  0
  150.5661  142.1021  158.2386 C   0  0  0  0  0  0  0  0  0  0  0  0
  151.3230  141.3187  157.1534 C   0  0  0  0  0  0  0  0  0  0  0  0
  150.6157  140.0903  156.7746 N   0  0  0  0  0  0  0  0  0  0  0  0
  150.4622  139.1865  157.8123 N   0  0  0  0  0  0  0  0  0  0  0  0
  149.8720  138.0534  157.6067 C   0  0  0  0  0  0  0  0  0  0  0  0
  149.6925  137.0531  158.6949 C   0  0  0  0  0  0  0  0  0  0  0  0
  150.5658  136.8451  159.5389 O   0  0  0  0  0  0  0  0  0  0  0  0
  148.5193  136.3957  158.6785 N   0  0  0  0  0  0  0  0  0  0  0  0
  148.1128  135.3374  159.6001 C   0  0  0  0  0  0  0  0  0  0  0  0
  147.1873  135.8612  160.7302 C   0  0  2  0  0  0  0  0  0  0  0  0
  148.0701  136.4330  161.8624 C   0  0  0  0  0  0  0  0  0  0  0  0
  146.1938  134.8706  161.1999 N   0  0  0  0  0  0  0  0  0  0  0  0
  145.2407  135.4410  162.1567 C   0  0  0  0  0  0  0  0  0  0  0  0
  144.2133  134.4091  162.6522 C   0  0  0  0  0  0  0  0  0  0  0  0
  144.8902  133.3026  163.2335 O   0  0  0  0  0  0  0  0  0  0  0  0
  145.7800  132.6751  162.3193 C   0  0  0  0  0  0  0  0  0  0  0  0
  146.8158  133.6969  161.8190 C   0  0  0  0  0  0  0  0  0  0  0  0
  149.3555  137.7116  156.2923 C   0  0  0  0  0  0  0  0  0  0  0  0
  149.5124  138.6036  155.2896 C   0  0  0  0  0  0  0  0  0  0  0  0
  150.1821  139.8890  155.4937 C   0  0  0  0  0  0  0  0  0  0  0  0
  150.3454  140.7131  154.5943 O   0  0  0  0  0  0  0  0  0  0  0  0
  152.2662  144.9223  158.4145 H   0  0  0  0  0  0  0  0  0  0  0  0
  150.6560  144.6940  157.7318 H   0  0  0  0  0  0  0  0  0  0  0  0
  152.0579  143.8980  156.9935 H   0  0  0  0  0  0  0  0  0  0  0  0
  150.2419  141.4165  159.0224 H   0  0  0  0  0  0  0  0  0  0  0  0
  149.6698  142.5669  157.8252 H   0  0  0  0  0  0  0  0  0  0  0  0
  151.4739  141.9559  156.2800 H   0  0  0  0  0  0  0  0  0  0  0  0
  152.3263  141.0759  157.5079 H   0  0  0  0  0  0  0  0  0  0  0  0
  147.8644  136.6296  157.9461 H   0  0  0  0  0  0  0  0  0  0  0  0
  147.6310  134.5192  159.0625 H   0  0  0  0  0  0  0  0  0  0  0  0
  149.0152  134.8928  160.0187 H   0  0  0  0  0  0  0  0  0  0  0  0
  146.6430  136.7088  160.3106 H   0  0  0  0  0  0  0  0  0  0  0  0
  148.8647  137.0641  161.4641 H   0  0  0  0  0  0  0  0  0  0  0  0
  148.5406  135.6393  162.4435 H   0  0  0  0  0  0  0  0  0  0  0  0
  147.5006  137.0595  162.5481 H   0  0  0  0  0  0  0  0  0  0  0  0
  145.7778  135.8553  163.0112 H   0  0  0  0  0  0  0  0  0  0  0  0
  144.6877  136.2623  161.7038 H   0  0  0  0  0  0  0  0  0  0  0  0
  143.5569  134.8566  163.3987 H   0  0  0  0  0  0  0  0  0  0  0  0
  143.5801  134.0692  161.8312 H   0  0  0  0  0  0  0  0  0  0  0  0
  146.2786  131.8454  162.8205 H   0  0  0  0  0  0  0  0  0  0  0  0
  145.2182  132.2543  161.4839 H   0  0  0  0  0  0  0  0  0  0  0  0
  147.4606  133.1855  161.1058 H   0  0  0  0  0  0  0  0  0  0  0  0
  147.4491  134.0089  162.6508 H   0  0  0  0  0  0  0  0  0  0  0  0
  148.8570  136.7701  156.1126 H   0  0  0  0  0  0  0  0  0  0  0  0
  149.1337  138.3624  154.3071 H   0  0  0  0  0  0  0  0  0  0  0  0
  1  2  1  0  0  0  0
  1 24  1  0  0  0  0
  1 25  1  0  0  0  0
  1 26  1  0  0  0  0
  2  3  1  0  0  0  0
  3  4  1  0  0  0  0
  3 27  1  0  0  0  0
  3 28  1  0  0  0  0
  4  5  1  0  0  0  0
  4 29  1  0  0  0  0
  4 30  1  0  0  0  0
  5 22  1  0  0  0  0
  5  6  1  0  0  0  0
  6  7  2  0  0  0  0
  7  8  1  0  0  0  0
  7 20  1  0  0  0  0
  8  9  2  0  0  0  0
  8 10  1  0  0  0  0
 10 11  1  0  0  0  0
 10 31  1  0  0  0  0
 11 12  1  0  0  0  0
 11 32  1  0  0  0  0
 11 33  1  0  0  0  0
 12 13  1  0  0  0  0
 12 14  1  0  0  0  0
 12 34  1  0  0  0  0
 13 35  1  0  0  0  0
 13 36  1  0  0  0  0
 13 37  1  0  0  0  0
 14 19  1  0  0  0  0
 14 15  1  0  0  0  0
 15 16  1  0  0  0  0
 15 38  1  0  0  0  0
 15 39  1  0  0  0  0
 16 17  1  0  0  0  0
 16 40  1  0  0  0  0
 16 41  1  0  0  0  0
 17 18  1  0  0  0  0
 18 19  1  0  0  0  0
 18 42  1  0  0  0  0
 18 43  1  0  0  0  0
 19 44  1  0  0  0  0
 19 45  1  0  0  0  0
 20 21  2  0  0  0  0
 20 46  1  0  0  0  0
 21 22  1  0  0  0  0
 21 47  1  0  0  0  0
 22 23  2  0  0  0  0
M  END
> <s_m_source_file>
AV-unprocessed.smi

> <i_m_source_file_index>
1958

> <i_lp_mmshare_version>
43012

> <i_f3d_flags>
0

> <s_epik_input>
W0NIM11PW0NIMl1bQ0gyXW4xbmMoW2NIXVtjSF1jMT1PKUMoPU8pW05IXVtDSDJdW0NASF0oW0NIM10pTjJbQ0gyXVtDSDJdT1tDSDJdW0NIMl0y

> <s_epik_cmdline>
J2VwaWtfcHl0aG9uJywgJy1waCcsICc3LjAnLCAnLXRuJywgJzgnLCAnLW1hJywgJzIwMCcsICctbWV0YWxfYmluZGluZycsICctaW1hZScsICc8aW5maWxlLm1hZT4nLCAnLW9tYWUnLCAnPG91dGZpbGUubWFlPic=

> <r_lp_tautomer_probability>
1

> <r_epik_Ionization_Penalty>
0.206669

> <r_epik_Ionization_Penalty_Charging>
5.75808e-09

> <r_epik_Ionization_Penalty_Neutral>
0.206669

> <r_epik_State_Penalty>
0.196651

> <r_epik_Charging_Adjusted_Penalty>
0.196651

> <i_epik_Tot_Q>
0

> <i_epik_Tot_abs_Q>
0

> <r_epik_Metal_State_Penalty>
0.198415

> <b_epik_Metal_Only>
0

> <s_lp_Force_Field>
OPLS_2005

> <r_lp_Energy>
53.7992

> <b_lp_Chiralities_Consistent>
1

> <s_lp_Variant>
AV-unprocessed.smi:1958-1

> <Gold.Version>
5.8.1

> <Gold.Id.Protein>
6NUR|6NUR_protein|mol2

> <Gold.PLP.Fitness>
36.1501

> <Gold.PLP.PLP>
-32.8062

> <Gold.PLP.part.hbond>
-2.7842

> <Gold.PLP.part.metal>
0.0000

> <Gold.PLP.part.buried>
-3.3924

> <Gold.PLP.part.nonpolar>
-26.6601

> <Gold.PLP.part.repulsive>
0.3768

> <Gold.PLP.ligand.clash>
0.0000

> <Gold.PLP.ligand.torsion>
1.1887

> <Gold.PLP.Chemscore.Hbond>
1.8640

> <Gold.PLP.Chemscore.CHOScore>
0.0000

> <Gold.PLP.Chemscore.Metal>
0.0000

> <Gold.Chemscore.Hbonds>
donor molecule, donor type, donor heavy atom, donor atom, acceptor molecule, acceptor atom, score
      P1  H  6896  6908       L1     9  1.00
      P1  H  7989  7998       L1    23  0.85

> <Gold.PLP.Chemscore.Internal.Correction>
0.1294

> <Gold.Rescore>
     Score         DG    S(hbond)    S(metal)    S(lipo)     H(rot)  DE(clash)    DE(int)     intcor
     14.45     -15.84       1.95        0.00      77.64       2.04       0.16       1.22       ----

> <Gold.Chemscore.Fitness>
14.4529

> <Gold.Chemscore.DG>
-15.8382

> <Gold.Chemscore.ZeroCoef>
-5.4800

> <Gold.Chemscore.Hbond>
1.9460

> <Gold.Chemscore.Metal>
0.0000

> <Gold.Chemscore.Lipo>
77.6428

> <Gold.Chemscore.Internal_Hbond>
0.0000

> <Gold.Chemscore.DEClash>
0.1627

> <Gold.Chemscore.DEInternal>
1.2226

> <Gold.Chemscore.Rot>
2.0413

> <Gold.Chemscore.Internal.Correction>
   9.000000E+99

> <Gold.Chemscore.Hbonds>
donor molecule, donor type, donor heavy atom, donor atom, acceptor molecule, acceptor atom, score
      P1  H  6896  6908       L1     9  0.75
      P1  H  7989  7998       L1    23  0.83

> <Gold.Chemscore.Hbond.Weighted>
-6.4996

> <Gold.Chemscore.Metal.Weighted>
-0.0000

> <Gold.Chemscore.Lipo.Weighted>
-9.0842

> <Gold.Chemscore.Internal_Hbond.Weighted>
0.0000

> <Gold.Chemscore.DEClash.Weighted>
0.1627

> <Gold.Chemscore.DEInternal.Weighted>
1.2226

> <Gold.Chemscore.Rot.Weighted>
5.2257

> <Gold.Chemscore.Internal.Correction.Weighted>
   9.000000E+99

> <Gold.Protein.RotatedTorsions>
[ 6907 6896 6895 6894 ] final -165.03 input  -60.11 | X-H torsion
[ 7974 7965 7964 7962 ] final    6.69 input  175.53 | X-H torsion
[ 8008 7997 7996 7995 ] final  178.23 input   59.86 | X-H torsion
[ 10167 10162 10161 10158 ] final   86.16 input  -65.29 | X-H torsion
[ 10718 10713 10712 10709 ] final   15.16 input   66.30 | X-H torsion
[ 10763 10752 10751 10750 ] final -164.01 input  -60.55 | X-H torsion
[ 11005 11000 10999 10996 ] final  169.66 input  -57.11 | X-H torsion

> <Gold.Protein.ActiveResidues>
 VAL166  LYS551  ARG553  GLY616  TRP617  ASP618  TYR619  PRO620  LYS621  CYS622 
 ASP623  PHE694  ASN695  SER759  ASP760  ASP761  ALA762  ILE779  LEU786  VAL792 
 PHE793  MET794  SER795  GLU796  ALA797  LYS798  CYS799  TRP800  GLU811  SER814 

> <Gold.Protein.RotatedAtoms>
  151.4213  133.3697  159.2756 H   0  0  0  0  0  0  0  0  0  0  0  0  # atno 6907 bound_to 6896
  150.9292  134.8709  159.7550 H   0  0  0  0  0  0  0  0  0  0  0  0  # atno 6908 bound_to 6896
  152.5019  134.4156  159.9515 H   0  0  0  0  0  0  0  0  0  0  0  0  # atno 6909 bound_to 6896
  146.2433  140.0196  142.8399 H   0  0  0  0  0  0  0  0  0  0  0  0  # atno 7974 bound_to 7965
  156.0570  140.1339  156.9985 H   0  0  0  0  0  0  0  0  0  0  0  0  # atno 8008 bound_to 7997
  154.4462  140.0999  156.6531 H   0  0  0  0  0  0  0  0  0  0  0  0  # atno 8009 bound_to 7997
  155.5436  140.3461  155.4454 H   0  0  0  0  0  0  0  0  0  0  0  0  # atno 8010 bound_to 7997
  139.8903  144.6389  150.8746 H   0  0  0  0  0  0  0  0  0  0  0  0  # atno 10167 bound_to 10162
  157.0496  130.6264  149.5765 H   0  0  0  0  0  0  0  0  0  0  0  0  # atno 10718 bound_to 10713
  154.7069  135.2998  154.9257 H   0  0  0  0  0  0  0  0  0  0  0  0  # atno 10763 bound_to 10752
  154.0171  135.6687  153.4773 H   0  0  0  0  0  0  0  0  0  0  0  0  # atno 10764 bound_to 10752
  153.0724  135.5053  154.8244 H   0  0  0  0  0  0  0  0  0  0  0  0  # atno 10765 bound_to 10752
  140.3001  134.7602  157.3909 H   0  0  0  0  0  0  0  0  0  0  0  0  # atno 11005 bound_to 11000
  145.1253  140.9486  143.4576 LP  0  0  0  0  0  0  0  0  0  0  0  0  # atno 17320 bound_to 7965
  145.0441  139.3236  143.5962 LP  0  0  0  0  0  0  0  0  0  0  0  0  # atno 17321 bound_to 7965
  140.7728  143.3515  151.2005 LP  0  0  0  0  0  0  0  0  0  0  0  0  # atno 17342 bound_to 10162
  139.7115  143.9368  152.2949 LP  0  0  0  0  0  0  0  0  0  0  0  0  # atno 17343 bound_to 10162
  156.0012  130.5091  150.7669 LP  0  0  0  0  0  0  0  0  0  0  0  0  # atno 17370 bound_to 10713
  157.5041  131.0921  151.0279 LP  0  0  0  0  0  0  0  0  0  0  0  0  # atno 17371 bound_to 10713
  140.1117  134.5337  155.8260 LP  0  0  0  0  0  0  0  0  0  0  0  0  # atno 17394 bound_to 11000
  141.2129  133.6726  156.6701 LP  0  0  0  0  0  0  0  0  0  0  0  0  # atno 17395 bound_to 11000

$$$$
