AV-unprocessed.smi:2703|AV-procd|sdf|10440|dock2
  -GOLD-   2272014483D 1   1.00000     0.00000
 Structure written by MMmdl.
 43 45  0  0  0  0  0  0  0  0  4 V2000
  153.2348  143.5245  162.6456 C   0  0  0  0  0  0  0  0  0  0  0  0
  152.8235  142.9050  161.3208 C   0  0  0  0  0  0  0  0  0  0  0  0
  153.1115  141.5400  161.0960 C   0  0  0  0  0  0  0  0  0  0  0  0
  152.7249  141.0029  159.8739 C   0  0  0  0  0  0  0  0  0  0  0  0
  152.8674  139.7140  159.3563 N   0  3  0  0  0  0  0  0  0  0  0  0
  152.3300  139.6643  158.1064 C   0  0  0  0  0  0  0  0  0  0  0  0
  151.8438  140.9019  157.8183 N   0  0  0  0  0  0  0  0  0  0  0  0
  151.1699  141.3830  156.6035 C   0  0  0  0  0  0  0  0  0  0  0  0
  150.5292  140.2448  155.7853 C   0  0  2  0  0  0  0  0  0  0  0  0
  151.4102  139.8349  154.7567 O   0  0  0  0  0  0  0  0  0  0  0  0
  149.1879  140.6707  155.1664 C   0  0  0  0  0  0  0  0  0  0  0  0
  148.0234  141.2958  156.4131 S   0  0  0  0  0  0  0  0  0  0  0  0
  146.7811  142.2553  155.5800 C   0  0  0  0  0  0  0  0  0  0  0  0
  146.8279  142.4997  154.1894 C   0  0  0  0  0  0  0  0  0  0  0  0
  145.8200  143.2648  153.5826 C   0  0  0  0  0  0  0  0  0  0  0  0
  144.7825  143.7719  154.3784 C   0  0  0  0  0  0  0  0  0  0  0  0
  144.7760  143.5041  155.7606 C   0  0  0  0  0  0  0  0  0  0  0  0
  145.7596  142.7583  156.3521 N   0  3  0  0  0  0  0  0  0  0  0  0
  145.7088  142.5430  157.6205 O   0  5  0  0  0  0  0  0  0  0  0  0
  152.0699  141.7719  158.8920 C   0  0  0  0  0  0  0  0  0  0  0  0
  151.7792  143.1189  159.0980 C   0  0  0  0  0  0  0  0  0  0  0  0
  152.1670  143.6846  160.3337 C   0  0  0  0  0  0  0  0  0  0  0  0
  151.8657  145.1524  160.5843 C   0  0  0  0  0  0  0  0  0  0  0  0
  153.7128  142.7927  163.2975 H   0  0  0  0  0  0  0  0  0  0  0  0
  152.3648  143.9194  163.1710 H   0  0  0  0  0  0  0  0  0  0  0  0
  153.9415  144.3385  162.4839 H   0  0  0  0  0  0  0  0  0  0  0  0
  153.6125  140.9409  161.8424 H   0  0  0  0  0  0  0  0  0  0  0  0
  152.2963  138.7993  157.4598 H   0  0  0  0  0  0  0  0  0  0  0  0
  150.3996  142.0850  156.9251 H   0  0  0  0  0  0  0  0  0  0  0  0
  151.8733  141.9591  156.0021 H   0  0  0  0  0  0  0  0  0  0  0  0
  150.3626  139.3903  156.4423 H   0  0  0  0  0  0  0  0  0  0  0  0
  151.7785  138.9969  154.9904 H   0  0  0  0  0  0  0  0  0  0  0  0
  149.3571  141.4625  154.4361 H   0  0  0  0  0  0  0  0  0  0  0  0
  148.7324  139.8335  154.6360 H   0  0  0  0  0  0  0  0  0  0  0  0
  147.6270  142.1104  153.5783 H   0  0  0  0  0  0  0  0  0  0  0  0
  145.8436  143.4607  152.5204 H   0  0  0  0  0  0  0  0  0  0  0  0
  143.9951  144.3639  153.9357 H   0  0  0  0  0  0  0  0  0  0  0  0
  144.0116  143.8612  156.4357 H   0  0  0  0  0  0  0  0  0  0  0  0
  151.2830  143.7152  158.3472 H   0  0  0  0  0  0  0  0  0  0  0  0
  151.3654  145.6089  159.7297 H   0  0  0  0  0  0  0  0  0  0  0  0
  152.7866  145.7071  160.7657 H   0  0  0  0  0  0  0  0  0  0  0  0
  151.2147  145.2672  161.4513 H   0  0  0  0  0  0  0  0  0  0  0  0
  153.3009  138.9250  159.8186 H   0  0  0  0  0  0  0  0  0  0  0  0
  1  2  1  0  0  0  0
  1 24  1  0  0  0  0
  1 25  1  0  0  0  0
  1 26  1  0  0  0  0
  2 22  1  0  0  0  0
  2  3  2  0  0  0  0
  3  4  1  0  0  0  0
  3 27  1  0  0  0  0
  4 20  2  0  0  0  0
  4  5  1  0  0  0  0
  5  6  2  0  0  0  0
  5 43  1  0  0  0  0
  6  7  1  0  0  0  0
  6 28  1  0  0  0  0
  7  8  1  0  0  0  0
  7 20  1  0  0  0  0
  8  9  1  0  0  0  0
  8 29  1  0  0  0  0
  8 30  1  0  0  0  0
  9 10  1  0  0  0  0
  9 11  1  0  0  0  0
  9 31  1  0  0  0  0
 10 32  1  0  0  0  0
 11 12  1  0  0  0  0
 11 33  1  0  0  0  0
 11 34  1  0  0  0  0
 12 13  1  0  0  0  0
 13 18  1  0  0  0  0
 13 14  2  0  0  0  0
 14 15  1  0  0  0  0
 14 35  1  0  0  0  0
 15 16  2  0  0  0  0
 15 36  1  0  0  0  0
 16 17  1  0  0  0  0
 16 37  1  0  0  0  0
 17 18  2  0  0  0  0
 17 38  1  0  0  0  0
 18 19  1  0  0  0  0
 20 21  1  0  0  0  0
 21 22  2  0  0  0  0
 21 39  1  0  0  0  0
 22 23  1  0  0  0  0
 23 40  1  0  0  0  0
 23 41  1  0  0  0  0
 23 42  1  0  0  0  0
M  CHG  1   5   1
M  CHG  1  18   1
M  CHG  1  19  -1
M  END
> <s_m_source_file>
AV-unprocessed.smi

> <i_m_source_file_index>
2703

> <i_lp_mmshare_version>
43012

> <i_f3d_flags>
0

> <s_epik_input>
W0NIM11jKFtjSF0xKWMoW0NIM10pW2NIXWMoYzEyKW4oW2NIXW4yKVtDSDJdW0NASF0oW09IXSlbQ0gyXVNjM1tjSF1bY0hdW2NIXVtjSF1bbitdM1tPLV0=

> <s_epik_cmdline>
J2VwaWtfcHl0aG9uJywgJy1waCcsICc3LjAnLCAnLXRuJywgJzgnLCAnLW1hJywgJzIwMCcsICctbWV0YWxfYmluZGluZycsICctaW1hZScsICc8aW5maWxlLm1hZT4nLCAnLW9tYWUnLCAnPG91dGZpbGUubWFlPic=

> <r_epik_Ionization_Penalty>
1.07182

> <r_epik_Ionization_Penalty_Charging>
1.07181

> <r_epik_Ionization_Penalty_Neutral>
2.88913e-06

> <r_epik_State_Penalty>
1.12646

> <r_epik_Charging_Adjusted_Penalty>
2.19828

> <i_epik_Tot_Q>
1

> <i_epik_Tot_abs_Q>
3

> <r_epik_Metal_State_Penalty>
5.12345

> <b_epik_Metal_Only>
0

> <s_lp_Force_Field>
OPLS_2005

> <r_lp_Energy>
22.2033

> <b_lp_Chiralities_Consistent>
1

> <s_lp_Variant>
AV-unprocessed.smi:2703-3

> <Gold.Version>
5.8.1

> <Gold.Id.Protein>
6NUR|6NUR_protein|mol2

> <Gold.PLP.Fitness>
52.3267

> <Gold.PLP.PLP>
-51.1117

> <Gold.PLP.part.hbond>
-0.9554

> <Gold.PLP.part.metal>
0.0000

> <Gold.PLP.part.buried>
-7.2179

> <Gold.PLP.part.nonpolar>
-42.7718

> <Gold.PLP.part.repulsive>
0.1956

> <Gold.PLP.ligand.clash>
0.0000

> <Gold.PLP.ligand.torsion>
0.9312

> <Gold.PLP.Chemscore.Hbond>
1.0000

> <Gold.PLP.Chemscore.CHOScore>
0.0000

> <Gold.PLP.Chemscore.Metal>
0.0000

> <Gold.Chemscore.Hbonds>
donor molecule, donor type, donor heavy atom, donor atom, acceptor molecule, acceptor atom, score
      P1  H  7989  7998       L1    10  1.00

> <Gold.PLP.Chemscore.Internal.Correction>
0.0774

> <Gold.Rescore>
     Score         DG    S(hbond)    S(metal)    S(lipo)     H(rot)  DE(clash)    DE(int)     intcor
     17.27     -18.32       0.97        0.00     133.04       2.33       0.05       1.00       ----

> <Gold.Chemscore.Fitness>
17.2743

> <Gold.Chemscore.DG>
-18.3242

> <Gold.Chemscore.ZeroCoef>
-5.4800

> <Gold.Chemscore.Hbond>
0.9692

> <Gold.Chemscore.Metal>
0.0000

> <Gold.Chemscore.Lipo>
133.0371

> <Gold.Chemscore.Internal_Hbond>
0.0000

> <Gold.Chemscore.DEClash>
0.0480

> <Gold.Chemscore.DEInternal>
1.0019

> <Gold.Chemscore.Rot>
2.3274

> <Gold.Chemscore.Internal.Correction>
   9.000000E+99

> <Gold.Chemscore.Hbonds>
donor molecule, donor type, donor heavy atom, donor atom, acceptor molecule, acceptor atom, score
      P1  H  7989  7998       L1    10  0.95

> <Gold.Chemscore.Hbond.Weighted>
-3.2372

> <Gold.Chemscore.Metal.Weighted>
-0.0000

> <Gold.Chemscore.Lipo.Weighted>
-15.5653

> <Gold.Chemscore.Internal_Hbond.Weighted>
0.0000

> <Gold.Chemscore.DEClash.Weighted>
0.0480

> <Gold.Chemscore.DEInternal.Weighted>
1.0019

> <Gold.Chemscore.Rot.Weighted>
5.9583

> <Gold.Chemscore.Internal.Correction.Weighted>
   9.000000E+99

> <Gold.Protein.RotatedTorsions>
[ 6907 6896 6895 6894 ] final  141.68 input  -60.11 | X-H torsion
[ 7974 7965 7964 7962 ] final -138.46 input  175.53 | X-H torsion
[ 8008 7997 7996 7995 ] final  -90.91 input   59.86 | X-H torsion
[ 10167 10162 10161 10158 ] final   67.65 input  -65.29 | X-H torsion
[ 10718 10713 10712 10709 ] final -162.70 input   66.30 | X-H torsion
[ 10763 10752 10751 10750 ] final  -70.95 input  -60.55 | X-H torsion
[ 11005 11000 10999 10996 ] final  -19.22 input  -57.11 | X-H torsion

> <Gold.Protein.ActiveResidues>
 VAL166  LYS551  ARG553  GLY616  TRP617  ASP618  TYR619  PRO620  LYS621  CYS622 
 ASP623  PHE694  ASN695  SER759  ASP760  ASP761  ALA762  ILE779  LEU786  VAL792 
 PHE793  MET794  SER795  GLU796  ALA797  LYS798  CYS799  TRP800  GLU811  SER814 

> <Gold.Protein.RotatedAtoms>
  152.2281  133.5036  159.5199 H   0  0  0  0  0  0  0  0  0  0  0  0  # atno 6907 bound_to 6896
  150.7030  134.1254  159.4059 H   0  0  0  0  0  0  0  0  0  0  0  0  # atno 6908 bound_to 6896
  151.9175  135.0312  160.0570 H   0  0  0  0  0  0  0  0  0  0  0  0  # atno 6909 bound_to 6896
  144.8757  140.6433  143.5238 H   0  0  0  0  0  0  0  0  0  0  0  0  # atno 7974 bound_to 7965
  154.7042  140.0525  157.0488 H   0  0  0  0  0  0  0  0  0  0  0  0  # atno 8008 bound_to 7997
  155.0642  140.3193  155.4632 H   0  0  0  0  0  0  0  0  0  0  0  0  # atno 8009 bound_to 7997
  156.2769  140.2093  156.5770 H   0  0  0  0  0  0  0  0  0  0  0  0  # atno 8010 bound_to 7997
  140.0873  144.5019  150.7122 H   0  0  0  0  0  0  0  0  0  0  0  0  # atno 10167 bound_to 10162
  156.6142  130.8863  151.2943 H   0  0  0  0  0  0  0  0  0  0  0  0  # atno 10718 bound_to 10713
  154.4249  135.5978  153.6032 H   0  0  0  0  0  0  0  0  0  0  0  0  # atno 10763 bound_to 10752
  152.9795  135.5961  154.3910 H   0  0  0  0  0  0  0  0  0  0  0  0  # atno 10764 bound_to 10752
  154.3741  135.2841  155.2228 H   0  0  0  0  0  0  0  0  0  0  0  0  # atno 10765 bound_to 10752
  140.8345  133.7972  155.9794 H   0  0  0  0  0  0  0  0  0  0  0  0  # atno 11005 bound_to 11000
  145.4047  139.1591  143.4158 LP  0  0  0  0  0  0  0  0  0  0  0  0  # atno 17320 bound_to 7965
  146.2961  140.4147  142.8721 LP  0  0  0  0  0  0  0  0  0  0  0  0  # atno 17321 bound_to 7965
  140.7047  143.2459  151.4762 LP  0  0  0  0  0  0  0  0  0  0  0  0  # atno 17342 bound_to 10162
  139.5745  144.1851  152.1883 LP  0  0  0  0  0  0  0  0  0  0  0  0  # atno 17343 bound_to 10162
  157.7246  130.9604  150.1579 LP  0  0  0  0  0  0  0  0  0  0  0  0  # atno 17370 bound_to 10713
  156.2365  130.3687  149.8385 LP  0  0  0  0  0  0  0  0  0  0  0  0  # atno 17371 bound_to 10713
  140.8962  134.2434  157.5067 LP  0  0  0  0  0  0  0  0  0  0  0  0  # atno 17394 bound_to 11000
  139.8704  134.9685  156.4634 LP  0  0  0  0  0  0  0  0  0  0  0  0  # atno 17395 bound_to 11000

$$$$
