AV-unprocessed.smi:3342|AV-procd|sdf|12890|dock10
  -GOLD-   2272019293D 1   1.00000     0.00000
 Structure written by MMmdl.
 41 42  0  0  0  0  0  0  0  0  1 V2000
  151.0690  143.7227  157.7839 C   0  0  0  0  0  0  0  0  0  0  0  0
  151.1976  142.3152  157.1809 C   0  0  1  0  0  0  0  0  0  0  0  0
  151.2098  141.2322  158.2762 C   0  0  0  0  0  0  0  0  0  0  0  0
  152.3100  141.4019  159.2076 N   0  0  0  0  0  0  0  0  0  0  0  0
  153.4004  140.5590  159.3800 C   0  0  0  0  0  0  0  0  0  0  0  0
  154.1807  141.1229  160.3640 C   0  0  0  0  0  0  0  0  0  0  0  0
  153.5925  142.3044  160.8094 N   0  0  0  0  0  0  0  0  0  0  0  0
  152.4889  142.4034  160.0797 C   0  0  0  0  0  0  0  0  0  0  0  0
  150.0992  142.0669  156.2502 N   0  0  0  0  0  0  0  0  0  0  0  0
  150.0622  141.1047  155.3132 C   0  0  0  0  0  0  0  0  0  0  0  0
  151.0081  140.3387  155.1240 O   0  0  0  0  0  0  0  0  0  0  0  0
  148.9053  141.0481  154.6057 N   0  0  0  0  0  0  0  0  0  0  0  0
  148.3355  139.8559  153.9547 C   0  0  0  0  0  0  0  0  0  0  0  0
  147.1063  139.3949  154.7578 C   0  0  0  0  0  0  0  0  0  0  0  0
  146.0612  140.5295  154.8743 C   0  0  0  0  0  0  0  0  0  0  0  0
  144.8970  140.1152  155.7843 C   0  0  0  0  0  0  0  0  0  0  0  0
  143.6722  140.1340  155.2527 N   0  0  0  0  0  0  0  0  0  0  0  0
  145.0974  139.7816  156.9508 O   0  0  0  0  0  0  0  0  0  0  0  0
  146.7212  141.8363  155.3744 C   0  0  0  0  0  0  0  0  0  0  0  0
  147.9724  142.1800  154.5453 C   0  0  0  0  0  0  0  0  0  0  0  0
  151.8894  143.9304  158.4710 H   0  0  0  0  0  0  0  0  0  0  0  0
  150.1357  143.8341  158.3370 H   0  0  0  0  0  0  0  0  0  0  0  0
  151.0901  144.4893  157.0086 H   0  0  0  0  0  0  0  0  0  0  0  0
  152.1452  142.2609  156.6412 H   0  0  0  0  0  0  0  0  0  0  0  0
  150.2795  141.2614  158.8450 H   0  0  0  0  0  0  0  0  0  0  0  0
  151.2749  140.2371  157.8334 H   0  0  0  0  0  0  0  0  0  0  0  0
  153.5288  139.6552  158.8027 H   0  0  0  0  0  0  0  0  0  0  0  0
  155.1128  140.7721  160.7821 H   0  0  0  0  0  0  0  0  0  0  0  0
  151.7953  143.2255  160.1800 H   0  0  0  0  0  0  0  0  0  0  0  0
  149.2864  142.6583  156.3429 H   0  0  0  0  0  0  0  0  0  0  0  0
  148.0384  140.1132  152.9370 H   0  0  0  0  0  0  0  0  0  0  0  0
  149.0381  139.0297  153.8452 H   0  0  0  0  0  0  0  0  0  0  0  0
  146.6596  138.5236  154.2772 H   0  0  0  0  0  0  0  0  0  0  0  0
  147.4286  139.0706  155.7488 H   0  0  0  0  0  0  0  0  0  0  0  0
  145.6666  140.7202  153.8747 H   0  0  0  0  0  0  0  0  0  0  0  0
  142.8747  139.8680  155.8118 H   0  0  0  0  0  0  0  0  0  0  0  0
  143.5488  140.4134  154.2904 H   0  0  0  0  0  0  0  0  0  0  0  0
  146.0082  142.6598  155.3203 H   0  0  0  0  0  0  0  0  0  0  0  0
  147.0047  141.7422  156.4242 H   0  0  0  0  0  0  0  0  0  0  0  0
  148.4116  143.1108  154.9067 H   0  0  0  0  0  0  0  0  0  0  0  0
  147.6961  142.3683  153.5068 H   0  0  0  0  0  0  0  0  0  0  0  0
  1  2  1  0  0  0  0
  1 21  1  0  0  0  0
  1 22  1  0  0  0  0
  1 23  1  0  0  0  0
  2  3  1  0  0  0  0
  2  9  1  0  0  0  0
  2 24  1  0  0  0  0
  3  4  1  0  0  0  0
  3 25  1  0  0  0  0
  3 26  1  0  0  0  0
  4  8  1  0  0  0  0
  4  5  1  0  0  0  0
  5  6  2  0  0  0  0
  5 27  1  0  0  0  0
  6  7  1  0  0  0  0
  6 28  1  0  0  0  0
  7  8  2  0  0  0  0
  8 29  1  0  0  0  0
  9 10  1  0  0  0  0
  9 30  1  0  0  0  0
 10 11  2  0  0  0  0
 10 12  1  0  0  0  0
 12 20  1  0  0  0  0
 12 13  1  0  0  0  0
 13 14  1  0  0  0  0
 13 31  1  0  0  0  0
 13 32  1  0  0  0  0
 14 15  1  0  0  0  0
 14 33  1  0  0  0  0
 14 34  1  0  0  0  0
 15 16  1  0  0  0  0
 15 19  1  0  0  0  0
 15 35  1  0  0  0  0
 16 17  1  0  0  0  0
 16 18  2  0  0  0  0
 17 36  1  0  0  0  0
 17 37  1  0  0  0  0
 19 20  1  0  0  0  0
 19 38  1  0  0  0  0
 19 39  1  0  0  0  0
 20 40  1  0  0  0  0
 20 41  1  0  0  0  0
M  END
> <s_m_source_file>
AV-unprocessed.smi

> <i_m_source_file_index>
3342

> <i_lp_mmshare_version>
43012

> <i_f3d_flags>
0

> <s_epik_input>
W2NIXTFuW2NIXVtjSF1uMVtDSDJdW0NAQEhdKFtDSDNdKVtOSF1DKD1PKU4yW0NIMl1bQ0gyXVtDSF0oQyg9TylbTkgyXSlbQ0gyXVtDSDJdMg==

> <s_epik_cmdline>
J2VwaWtfcHl0aG9uJywgJy1waCcsICc3LjAnLCAnLXRuJywgJzgnLCAnLW1hJywgJzIwMCcsICctbWV0YWxfYmluZGluZycsICctaW1hZScsICc8aW5maWxlLm1hZT4nLCAnLW9tYWUnLCAnPG91dGZpbGUubWFlPic=

> <r_lp_tautomer_probability>
1

> <r_epik_Ionization_Penalty>
0.624431

> <r_epik_Ionization_Penalty_Charging>
0.624374

> <r_epik_Ionization_Penalty_Neutral>
5.67186e-05

> <r_epik_State_Penalty>
0.640677

> <r_epik_Charging_Adjusted_Penalty>
1.26505

> <i_epik_Tot_Q>
0

> <i_epik_Tot_abs_Q>
0

> <r_epik_Metal_State_Penalty>
0.307574

> <b_epik_Metal_Only>
0

> <s_lp_Force_Field>
OPLS_2005

> <r_lp_Energy>
30.3525

> <b_lp_Chiralities_Consistent>
1

> <s_lp_Variant>
AV-unprocessed.smi:3342-4

> <Gold.Version>
5.8.1

> <Gold.Id.Protein>
6NUR|6NUR_protein|mol2

> <Gold.PLP.Fitness>
40.0016

> <Gold.PLP.PLP>
-34.1381

> <Gold.PLP.part.hbond>
-2.9962

> <Gold.PLP.part.metal>
0.0000

> <Gold.PLP.part.buried>
0.4577

> <Gold.PLP.part.nonpolar>
-31.3844

> <Gold.PLP.part.repulsive>
0.1539

> <Gold.PLP.ligand.clash>
0.7904

> <Gold.PLP.ligand.torsion>
0.5149

> <Gold.PLP.Chemscore.Hbond>
2.5360

> <Gold.PLP.Chemscore.CHOScore>
0.0000

> <Gold.PLP.Chemscore.Metal>
0.0000

> <Gold.Chemscore.Hbonds>
donor molecule, donor type, donor heavy atom, donor atom, acceptor molecule, acceptor atom, score
      L1  H     9    30       P1  8028  0.35
      L1  H    17    37       P1 10175  1.00
      P1  H  7989  7998       L1    11  1.00

> <Gold.PLP.Chemscore.Internal.Correction>
0.0756

> <Gold.Rescore>
     Score         DG    S(hbond)    S(metal)    S(lipo)     H(rot)  DE(clash)    DE(int)     intcor
     12.29     -13.51       1.77        0.00      67.85       2.28       0.71       0.51       ----

> <Gold.Chemscore.Fitness>
12.2879

> <Gold.Chemscore.DG>
-13.5093

> <Gold.Chemscore.ZeroCoef>
-5.4800

> <Gold.Chemscore.Hbond>
1.7714

> <Gold.Chemscore.Metal>
0.0000

> <Gold.Chemscore.Lipo>
67.8524

> <Gold.Chemscore.Internal_Hbond>
0.0000

> <Gold.Chemscore.DEClash>
0.7126

> <Gold.Chemscore.DEInternal>
0.5088

> <Gold.Chemscore.Rot>
2.2757

> <Gold.Chemscore.Internal.Correction>
   9.000000E+99

> <Gold.Chemscore.Hbonds>
donor molecule, donor type, donor heavy atom, donor atom, acceptor molecule, acceptor atom, score
      L1  H     9    30       P1  8028  0.36
      L1  H    17    37       P1 10175  1.00
      P1  H  7989  7998       L1    11  0.39

> <Gold.Chemscore.Hbond.Weighted>
-5.9165

> <Gold.Chemscore.Metal.Weighted>
-0.0000

> <Gold.Chemscore.Lipo.Weighted>
-7.9387

> <Gold.Chemscore.Internal_Hbond.Weighted>
0.0000

> <Gold.Chemscore.DEClash.Weighted>
0.7126

> <Gold.Chemscore.DEInternal.Weighted>
0.5088

> <Gold.Chemscore.Rot.Weighted>
5.8259

> <Gold.Chemscore.Internal.Correction.Weighted>
   9.000000E+99

> <Gold.Protein.RotatedTorsions>
[ 6907 6896 6895 6894 ] final   72.31 input  -60.11 | X-H torsion
[ 7974 7965 7964 7962 ] final  -48.85 input  175.53 | X-H torsion
[ 8008 7997 7996 7995 ] final  173.72 input   59.86 | X-H torsion
[ 10167 10162 10161 10158 ] final -136.12 input  -65.29 | X-H torsion
[ 10718 10713 10712 10709 ] final  -74.31 input   66.30 | X-H torsion
[ 10763 10752 10751 10750 ] final   37.45 input  -60.55 | X-H torsion
[ 11005 11000 10999 10996 ] final   -5.07 input  -57.11 | X-H torsion

> <Gold.Protein.ActiveResidues>
 VAL166  LYS551  ARG553  GLY616  TRP617  ASP618  TYR619  PRO620  LYS621  CYS622 
 ASP623  PHE694  ASN695  SER759  ASP760  ASP761  ALA762  ILE779  LEU786  VAL792 
 PHE793  MET794  SER795  GLU796  ALA797  LYS798  CYS799  TRP800  GLU811  SER814 

> <Gold.Protein.RotatedAtoms>
  152.4861  134.4590  159.9598 H   0  0  0  0  0  0  0  0  0  0  0  0  # atno 6907 bound_to 6896
  151.4586  133.3592  159.2813 H   0  0  0  0  0  0  0  0  0  0  0  0  # atno 6908 bound_to 6896
  150.8972  134.8406  159.7395 H   0  0  0  0  0  0  0  0  0  0  0  0  # atno 6909 bound_to 6896
  145.9468  140.7610  142.9525 H   0  0  0  0  0  0  0  0  0  0  0  0  # atno 7974 bound_to 7965
  156.1047  140.1453  156.9420 H   0  0  0  0  0  0  0  0  0  0  0  0  # atno 8008 bound_to 7997
  154.4726  140.0905  156.7226 H   0  0  0  0  0  0  0  0  0  0  0  0  # atno 8009 bound_to 7997
  155.4700  140.3441  155.4326 H   0  0  0  0  0  0  0  0  0  0  0  0  # atno 8010 bound_to 7997
  139.8710  143.6958  152.2640 H   0  0  0  0  0  0  0  0  0  0  0  0  # atno 10167 bound_to 10162
  156.0247  130.4414  150.2873 H   0  0  0  0  0  0  0  0  0  0  0  0  # atno 10718 bound_to 10713
  153.0037  135.6277  154.2147 H   0  0  0  0  0  0  0  0  0  0  0  0  # atno 10763 bound_to 10752
  154.1890  135.2809  155.3029 H   0  0  0  0  0  0  0  0  0  0  0  0  # atno 10764 bound_to 10752
  154.5774  135.5658  153.7212 H   0  0  0  0  0  0  0  0  0  0  0  0  # atno 10765 bound_to 10752
  140.6872  133.9103  155.8594 H   0  0  0  0  0  0  0  0  0  0  0  0  # atno 11005 bound_to 11000
  144.6788  140.2369  143.7348 LP  0  0  0  0  0  0  0  0  0  0  0  0  # atno 17320 bound_to 7965
  145.8226  139.2050  143.1929 LP  0  0  0  0  0  0  0  0  0  0  0  0  # atno 17321 bound_to 7965
  139.7284  144.7588  151.0841 LP  0  0  0  0  0  0  0  0  0  0  0  0  # atno 17342 bound_to 10162
  140.7760  143.5119  150.9642 LP  0  0  0  0  0  0  0  0  0  0  0  0  # atno 17343 bound_to 10162
  157.0976  131.0187  151.3098 LP  0  0  0  0  0  0  0  0  0  0  0  0  # atno 17370 bound_to 10713
  157.4805  130.7762  149.7409 LP  0  0  0  0  0  0  0  0  0  0  0  0  # atno 17371 bound_to 10713
  141.0271  134.0808  157.4056 LP  0  0  0  0  0  0  0  0  0  0  0  0  # atno 17394 bound_to 11000
  139.8934  135.0130  156.6897 LP  0  0  0  0  0  0  0  0  0  0  0  0  # atno 17395 bound_to 11000

$$$$
