AV-unprocessed.smi:33|AV-procd|sdf|213|dock8
  -GOLD-   2262015523D 1   1.00000     0.00000
 Structure written by MMmdl.
 67 72  0  0  0  0  0  0  0  0  1 V2000
  153.2766  140.4518  158.2904 O   0  0  0  0  0  0  0  0  0  0  0  0
  152.5178  141.4190  158.3837 C   0  0  0  0  0  0  0  0  0  0  0  0
  151.5826  141.7279  157.4634 O   0  0  0  0  0  0  0  0  0  0  0  0
  151.2127  140.7821  156.4729 C   0  0  0  0  0  0  0  0  0  0  0  0
  149.6925  140.8404  156.2646 C   0  0  2  0  0  0  0  0  0  0  0  0
  149.1243  139.5891  156.6592 O   0  0  0  0  0  0  0  0  0  0  0  0
  148.5751  138.9216  155.5643 C   0  0  2  0  0  0  0  0  0  0  0  0
  148.9186  137.4645  155.6246 N   0  0  0  0  0  0  0  0  0  0  0  0
  150.1677  136.9162  155.8145 C   0  0  0  0  0  0  0  0  0  0  0  0
  150.2107  135.6119  155.8450 N   0  0  0  0  0  0  0  0  0  0  0  0
  148.8886  135.2297  155.6603 C   0  0  0  0  0  0  0  0  0  0  0  0
  148.2245  133.9750  155.5920 C   0  0  0  0  0  0  0  0  0  0  0  0
  148.8713  132.7929  155.7253 N   0  0  0  0  0  0  0  0  0  0  0  0
  148.3498  131.6560  154.9524 C   0  0  0  0  0  0  0  0  0  0  0  0
  148.5584  130.5065  155.3453 O   0  0  0  0  0  0  0  0  0  0  0  0
  147.5296  131.8877  153.7149 C   0  0  0  0  0  0  0  0  0  0  0  0
  147.8748  132.9256  152.8217 C   0  0  0  0  0  0  0  0  0  0  0  0
  147.1003  133.1565  151.6682 C   0  0  0  0  0  0  0  0  0  0  0  0
  145.9650  132.3647  151.4110 C   0  0  0  0  0  0  0  0  0  0  0  0
  145.5986  131.3474  152.3124 C   0  0  0  0  0  0  0  0  0  0  0  0
  146.3735  131.1144  153.4649 C   0  0  0  0  0  0  0  0  0  0  0  0
  150.0339  132.7562  156.6248 C   0  0  0  0  0  0  0  0  0  0  0  0
  150.1183  133.5756  157.5415 O   0  0  0  0  0  0  0  0  0  0  0  0
  151.0852  131.6934  156.4714 C   0  0  0  0  0  0  0  0  0  0  0  0
  151.9400  131.3848  157.5522 C   0  0  0  0  0  0  0  0  0  0  0  0
  152.9366  130.3996  157.4109 C   0  0  0  0  0  0  0  0  0  0  0  0
  153.0962  129.7294  156.1833 C   0  0  0  0  0  0  0  0  0  0  0  0
  152.2656  130.0516  155.0934 C   0  0  0  0  0  0  0  0  0  0  0  0
  151.2695  131.0371  155.2334 C   0  0  0  0  0  0  0  0  0  0  0  0
  146.8814  133.9737  155.3899 N   0  0  0  0  0  0  0  0  0  0  0  0
  146.2290  135.1328  155.2661 C   0  0  0  0  0  0  0  0  0  0  0  0
  146.7181  136.3735  155.3140 N   0  0  0  0  0  0  0  0  0  0  0  0
  148.0675  136.3815  155.5139 C   0  0  0  0  0  0  0  0  0  0  0  0
  149.0931  139.6058  154.2936 C   0  0  2  0  0  0  0  0  0  0  0  0
  150.2842  139.0429  153.7731 O   0  0  0  0  0  0  0  0  0  0  0  0
  149.3129  141.0219  154.7899 C   0  0  1  0  0  0  0  0  0  0  0  0
  148.1658  141.6987  154.7074 F   0  0  0  0  0  0  0  0  0  0  0  0
  152.5346  142.3681  159.5337 C   0  0  0  0  0  0  0  0  0  0  0  0
  153.0274  141.9314  160.7857 C   0  0  0  0  0  0  0  0  0  0  0  0
  153.0575  142.8059  161.8894 C   0  0  0  0  0  0  0  0  0  0  0  0
  152.5949  144.1280  161.7546 C   0  0  0  0  0  0  0  0  0  0  0  0
  152.1003  144.5740  160.5152 C   0  0  0  0  0  0  0  0  0  0  0  0
  152.0687  143.7007  159.4105 C   0  0  0  0  0  0  0  0  0  0  0  0
  151.7296  141.0308  155.5457 H   0  0  0  0  0  0  0  0  0  0  0  0
  151.5184  139.7735  156.7515 H   0  0  0  0  0  0  0  0  0  0  0  0
  149.2753  141.6475  156.8683 H   0  0  0  0  0  0  0  0  0  0  0  0
  147.4876  138.9564  155.6425 H   0  0  0  0  0  0  0  0  0  0  0  0
  151.0544  137.5213  155.9370 H   0  0  0  0  0  0  0  0  0  0  0  0
  148.7437  133.5399  153.0092 H   0  0  0  0  0  0  0  0  0  0  0  0
  147.3769  133.9425  150.9812 H   0  0  0  0  0  0  0  0  0  0  0  0
  145.3713  132.5424  150.5264 H   0  0  0  0  0  0  0  0  0  0  0  0
  144.7220  130.7459  152.1212 H   0  0  0  0  0  0  0  0  0  0  0  0
  146.0802  130.3337  154.1520 H   0  0  0  0  0  0  0  0  0  0  0  0
  151.8258  131.8923  158.4993 H   0  0  0  0  0  0  0  0  0  0  0  0
  153.5790  130.1589  158.2450 H   0  0  0  0  0  0  0  0  0  0  0  0
  153.8603  128.9738  156.0754 H   0  0  0  0  0  0  0  0  0  0  0  0
  152.3932  129.5436  154.1491 H   0  0  0  0  0  0  0  0  0  0  0  0
  150.6422  131.2800  154.3879 H   0  0  0  0  0  0  0  0  0  0  0  0
  145.1632  135.0571  155.1081 H   0  0  0  0  0  0  0  0  0  0  0  0
  148.3304  139.5550  153.5157 H   0  0  0  0  0  0  0  0  0  0  0  0
  150.3967  139.3484  152.8857 H   0  0  0  0  0  0  0  0  0  0  0  0
  150.0493  141.5813  154.2113 H   0  0  0  0  0  0  0  0  0  0  0  0
  153.3871  140.9206  160.9132 H   0  0  0  0  0  0  0  0  0  0  0  0
  153.4361  142.4612  162.8401 H   0  0  0  0  0  0  0  0  0  0  0  0
  152.6186  144.7986  162.6009 H   0  0  0  0  0  0  0  0  0  0  0  0
  151.7441  145.5882  160.4105 H   0  0  0  0  0  0  0  0  0  0  0  0
  151.6817  144.0748  158.4739 H   0  0  0  0  0  0  0  0  0  0  0  0
  1  2  2  0  0  0  0
  2  3  1  0  0  0  0
  2 38  1  0  0  0  0
  3  4  1  0  0  0  0
  4  5  1  0  0  0  0
  4 44  1  0  0  0  0
  4 45  1  0  0  0  0
  5 36  1  0  0  0  0
  5  6  1  0  0  0  0
  5 46  1  0  0  0  0
  6  7  1  0  0  0  0
  7  8  1  0  0  0  0
  7 34  1  0  0  0  0
  7 47  1  0  0  0  0
  8 33  1  0  0  0  0
  8  9  1  0  0  0  0
  9 10  2  0  0  0  0
  9 48  1  0  0  0  0
 10 11  1  0  0  0  0
 11 33  2  0  0  0  0
 11 12  1  0  0  0  0
 12 13  1  0  0  0  0
 12 30  2  0  0  0  0
 13 14  1  0  0  0  0
 13 22  1  0  0  0  0
 14 15  2  0  0  0  0
 14 16  1  0  0  0  0
 16 21  1  0  0  0  0
 16 17  2  0  0  0  0
 17 18  1  0  0  0  0
 17 49  1  0  0  0  0
 18 19  2  0  0  0  0
 18 50  1  0  0  0  0
 19 20  1  0  0  0  0
 19 51  1  0  0  0  0
 20 21  2  0  0  0  0
 20 52  1  0  0  0  0
 21 53  1  0  0  0  0
 22 23  2  0  0  0  0
 22 24  1  0  0  0  0
 24 29  1  0  0  0  0
 24 25  2  0  0  0  0
 25 26  1  0  0  0  0
 25 54  1  0  0  0  0
 26 27  2  0  0  0  0
 26 55  1  0  0  0  0
 27 28  1  0  0  0  0
 27 56  1  0  0  0  0
 28 29  2  0  0  0  0
 28 57  1  0  0  0  0
 29 58  1  0  0  0  0
 30 31  1  0  0  0  0
 31 32  2  0  0  0  0
 31 59  1  0  0  0  0
 32 33  1  0  0  0  0
 34 35  1  0  0  0  0
 34 36  1  0  0  0  0
 34 60  1  0  0  0  0
 35 61  1  0  0  0  0
 36 37  1  0  0  0  0
 36 62  1  0  0  0  0
 38 43  1  0  0  0  0
 38 39  2  0  0  0  0
 39 40  1  0  0  0  0
 39 63  1  0  0  0  0
 40 41  2  0  0  0  0
 40 64  1  0  0  0  0
 41 42  1  0  0  0  0
 41 65  1  0  0  0  0
 42 43  2  0  0  0  0
 42 66  1  0  0  0  0
 43 67  1  0  0  0  0
M  END
> <s_m_source_file>
AV-unprocessed.smi

> <i_m_source_file_index>
33

> <i_lp_mmshare_version>
43012

> <i_f3d_flags>
0

> <s_epik_input>
W2NIXTFbY0hdW2NIXVtjSF1bY0hdYzFDKD1PKU9bQ0gyXVtDQEBIXTJPW0NASF0oW0NAQEhdKFtPSF0pW0NAQEhdMkYpbihbY0hdbjMpYyhjMzQpbltjSF1uYzROKEMoPU8pYzVbY0hdW2NIXVtjSF1bY0hdW2NIXTUpQyg9TyljNltjSF1bY0hdW2NIXVtjSF1bY0hdNg==

> <s_epik_cmdline>
J2VwaWtfcHl0aG9uJywgJy1waCcsICc3LjAnLCAnLXRuJywgJzgnLCAnLW1hJywgJzIwMCcsICctbWV0YWxfYmluZGluZycsICctaW1hZScsICc8aW5maWxlLm1hZT4nLCAnLW9tYWUnLCAnPG91dGZpbGUubWFlPic=

> <r_lp_tautomer_probability>
1

> <r_epik_Ionization_Penalty>
0.00067664

> <r_epik_Ionization_Penalty_Charging>
0

> <r_epik_Ionization_Penalty_Neutral>
0.00067664

> <r_epik_State_Penalty>
0.000428095

> <r_epik_Charging_Adjusted_Penalty>
0.000428095

> <i_epik_Tot_Q>
0

> <i_epik_Tot_abs_Q>
0

> <r_epik_Metal_State_Penalty>
-0

> <b_epik_Metal_Only>
0

> <s_epik_Chemistry_Notes>
This compound has an ester and may undergo hydrolysis at high or low pH. This compound contains an acetal/aminal-like group ( X-CH(R)-Y where X, Y are N, S, or O) that may be acid/base labile, releasing an aldehyde.

> <s_lp_Force_Field>
OPLS_2005

> <r_lp_Energy>
74.9187

> <b_lp_Chiralities_Consistent>
1

> <s_lp_Variant>
AV-unprocessed.smi:33-15

> <Gold.Version>
5.8.1

> <Gold.Id.Protein>
6NUR|6NUR_protein|mol2

> <Gold.PLP.Fitness>
67.3390

> <Gold.PLP.PLP>
-64.0021

> <Gold.PLP.part.hbond>
-3.6307

> <Gold.PLP.part.metal>
0.0000

> <Gold.PLP.part.buried>
-5.4635

> <Gold.PLP.part.nonpolar>
-53.9596

> <Gold.PLP.part.repulsive>
0.1968

> <Gold.PLP.ligand.clash>
2.2831

> <Gold.PLP.ligand.torsion>
3.3875

> <Gold.PLP.Chemscore.Hbond>
2.5107

> <Gold.PLP.Chemscore.CHOScore>
0.0000

> <Gold.PLP.Chemscore.Metal>
0.0000

> <Gold.Chemscore.Hbonds>
donor molecule, donor type, donor heavy atom, donor atom, acceptor molecule, acceptor atom, score
      L1  H    35    61       P1  7957  1.00
      P1  H  6896  6908       L1    23  1.00
      P1  H  7997  8010       L1     1  0.51

> <Gold.PLP.Chemscore.Internal.Correction>
4.8628

> <Gold.Rescore>
     Score         DG    S(hbond)    S(metal)    S(lipo)     H(rot)  DE(clash)    DE(int)     intcor
     12.65     -25.51       2.36        0.00     159.19       2.52       0.11      12.75       ----

> <Gold.Chemscore.Fitness>
12.6545

> <Gold.Chemscore.DG>
-25.5106

> <Gold.Chemscore.ZeroCoef>
-5.4800

> <Gold.Chemscore.Hbond>
2.3559

> <Gold.Chemscore.Metal>
0.0000

> <Gold.Chemscore.Lipo>
159.1907

> <Gold.Chemscore.Internal_Hbond>
0.0000

> <Gold.Chemscore.DEClash>
0.1081

> <Gold.Chemscore.DEInternal>
12.7480

> <Gold.Chemscore.Rot>
2.5247

> <Gold.Chemscore.Internal.Correction>
   9.000000E+99

> <Gold.Chemscore.Hbonds>
donor molecule, donor type, donor heavy atom, donor atom, acceptor molecule, acceptor atom, score
      L1  H    35    61       P1  7957  0.72
      P1  H  6896  6908       L1    23  0.98
      P1  H  7997  8010       L1     1  0.50

> <Gold.Chemscore.Hbond.Weighted>
-7.8686

> <Gold.Chemscore.Metal.Weighted>
-0.0000

> <Gold.Chemscore.Lipo.Weighted>
-18.6253

> <Gold.Chemscore.Internal_Hbond.Weighted>
0.0000

> <Gold.Chemscore.DEClash.Weighted>
0.1081

> <Gold.Chemscore.DEInternal.Weighted>
12.7480

> <Gold.Chemscore.Rot.Weighted>
6.4633

> <Gold.Chemscore.Internal.Correction.Weighted>
   9.000000E+99

> <Gold.Protein.RotatedTorsions>
[ 6907 6896 6895 6894 ] final  115.75 input  -60.11 | X-H torsion
[ 7974 7965 7964 7962 ] final   53.29 input  175.53 | X-H torsion
[ 8008 7997 7996 7995 ] final   60.85 input   59.86 | X-H torsion
[ 10167 10162 10161 10158 ] final  148.36 input  -65.29 | X-H torsion
[ 10718 10713 10712 10709 ] final  121.49 input   66.30 | X-H torsion
[ 10763 10752 10751 10750 ] final   34.89 input  -60.55 | X-H torsion
[ 11005 11000 10999 10996 ] final   93.75 input  -57.11 | X-H torsion

> <Gold.Protein.ActiveResidues>
 VAL166  LYS551  ARG553  GLY616  TRP617  ASP618  TYR619  PRO620  LYS621  CYS622 
 ASP623  PHE694  ASN695  SER759  ASP760  ASP761  ALA762  ILE779  LEU786  VAL792 
 PHE793  MET794  SER795  GLU796  ALA797  LYS798  CYS799  TRP800  GLU811  SER814 

> <Gold.Protein.RotatedAtoms>
  152.4722  133.8055  159.6975 H   0  0  0  0  0  0  0  0  0  0  0  0  # atno 6907 bound_to 6896
  150.8717  133.7486  159.2965 H   0  0  0  0  0  0  0  0  0  0  0  0  # atno 6908 bound_to 6896
  151.5019  135.1065  159.9883 H   0  0  0  0  0  0  0  0  0  0  0  0  # atno 6909 bound_to 6896
  145.9727  139.4164  143.0180 H   0  0  0  0  0  0  0  0  0  0  0  0  # atno 7974 bound_to 7965
  155.5890  140.3492  155.4561 H   0  0  0  0  0  0  0  0  0  0  0  0  # atno 8008 bound_to 7997
  156.0316  140.1276  157.0277 H   0  0  0  0  0  0  0  0  0  0  0  0  # atno 8009 bound_to 7997
  154.4354  140.1042  156.6093 H   0  0  0  0  0  0  0  0  0  0  0  0  # atno 8010 bound_to 7997
  139.4876  144.5685  151.7099 H   0  0  0  0  0  0  0  0  0  0  0  0  # atno 10167 bound_to 10162
  157.5813  131.1074  150.8181 H   0  0  0  0  0  0  0  0  0  0  0  0  # atno 10718 bound_to 10713
  153.0143  135.6348  154.1740 H   0  0  0  0  0  0  0  0  0  0  0  0  # atno 10763 bound_to 10752
  154.1480  135.2830  155.3145 H   0  0  0  0  0  0  0  0  0  0  0  0  # atno 10764 bound_to 10752
  154.6075  135.5567  153.7499 H   0  0  0  0  0  0  0  0  0  0  0  0  # atno 10765 bound_to 10752
  139.8806  134.8807  156.3764 H   0  0  0  0  0  0  0  0  0  0  0  0  # atno 11005 bound_to 11000
  145.7883  140.9825  143.1062 LP  0  0  0  0  0  0  0  0  0  0  0  0  # atno 17320 bound_to 7965
  144.6841  139.9651  143.7481 LP  0  0  0  0  0  0  0  0  0  0  0  0  # atno 17321 bound_to 7965
  140.5268  144.0793  150.6040 LP  0  0  0  0  0  0  0  0  0  0  0  0  # atno 17342 bound_to 10162
  140.3769  143.2823  152.0214 LP  0  0  0  0  0  0  0  0  0  0  0  0  # atno 17343 bound_to 10162
  156.8626  130.5118  149.5302 LP  0  0  0  0  0  0  0  0  0  0  0  0  # atno 17370 bound_to 10713
  156.0859  130.5858  150.9648 LP  0  0  0  0  0  0  0  0  0  0  0  0  # atno 17371 bound_to 10713
  140.9429  133.7502  156.0170 LP  0  0  0  0  0  0  0  0  0  0  0  0  # atno 17394 bound_to 11000
  140.8198  134.3303  157.5385 LP  0  0  0  0  0  0  0  0  0  0  0  0  # atno 17395 bound_to 11000

$$$$
