AV-unprocessed.smi:2061|AV-procd|sdf|8363|dock2
  -GOLD-   2272011 33D 1   1.00000     0.00000
 Structure written by MMmdl.
 45 46  0  0  0  0  0  0  0  0  1 V2000
  144.2245  132.2345  149.8266 C   0  0  0  0  0  0  0  0  0  0  0  0
  144.5984  133.3602  150.7286 C   0  0  0  0  0  0  0  0  0  0  0  0
  145.7616  134.0517  150.9194 C   0  0  0  0  0  0  0  0  0  0  0  0
  145.4144  134.9885  151.9290 C   0  0  0  0  0  0  0  0  0  0  0  0
  146.3694  135.9141  152.4214 N   0  0  0  0  0  0  0  0  0  0  0  0
  146.1805  136.8752  153.3416 C   0  0  0  0  0  0  0  0  0  0  0  0
  145.1140  137.1113  153.9095 O   0  0  0  0  0  0  0  0  0  0  0  0
  147.3117  137.5601  153.5658 N   0  0  0  0  0  0  0  0  0  0  0  0
  147.4643  138.6715  154.5025 C   0  0  0  0  0  0  0  0  0  0  0  0
  148.1771  139.9012  153.8711 C   0  0  1  0  0  0  0  0  0  0  0  0
  147.1629  141.0683  153.7587 C   0  0  0  0  0  0  0  0  0  0  0  0
  149.4175  140.2868  154.5861 N   0  0  0  0  0  0  0  0  0  0  0  0
  150.4608  139.2599  154.5045 C   0  0  0  0  0  0  0  0  0  0  0  0
  151.7596  139.6678  155.2227 C   0  0  2  0  0  0  0  0  0  0  0  0
  152.8084  138.5508  155.1940 C   0  0  0  0  0  0  0  0  0  0  0  0
  151.4749  139.9691  156.5843 O   0  0  0  0  0  0  0  0  0  0  0  0
  150.4671  140.9587  156.7773 C   0  0  1  0  0  0  0  0  0  0  0  0
  150.9806  142.3723  156.4540 C   0  0  0  0  0  0  0  0  0  0  0  0
  149.1868  140.5821  156.0051 C   0  0  0  0  0  0  0  0  0  0  0  0
  144.1537  134.8787  152.3192 N   0  0  0  0  0  0  0  0  0  0  0  0
  143.6246  133.8339  151.5524 O   0  0  0  0  0  0  0  0  0  0  0  0
  144.9771  132.0917  149.0509 H   0  0  0  0  0  0  0  0  0  0  0  0
  143.2690  132.4290  149.3388 H   0  0  0  0  0  0  0  0  0  0  0  0
  144.1356  131.3041  150.3875 H   0  0  0  0  0  0  0  0  0  0  0  0
  146.7064  133.9079  150.4162 H   0  0  0  0  0  0  0  0  0  0  0  0
  147.2968  135.8351  152.0312 H   0  0  0  0  0  0  0  0  0  0  0  0
  148.1360  137.2931  153.0480 H   0  0  0  0  0  0  0  0  0  0  0  0
  146.5059  138.9750  154.9272 H   0  0  0  0  0  0  0  0  0  0  0  0
  148.0443  138.2542  155.3230 H   0  0  0  0  0  0  0  0  0  0  0  0
  148.4510  139.6210  152.8527 H   0  0  0  0  0  0  0  0  0  0  0  0
  146.2341  140.7699  153.2745 H   0  0  0  0  0  0  0  0  0  0  0  0
  147.5411  141.8897  153.1521 H   0  0  0  0  0  0  0  0  0  0  0  0
  146.9061  141.4629  154.7424 H   0  0  0  0  0  0  0  0  0  0  0  0
  150.0890  138.3221  154.9204 H   0  0  0  0  0  0  0  0  0  0  0  0
  150.7253  139.0629  153.4675 H   0  0  0  0  0  0  0  0  0  0  0  0
  152.1839  140.5462  154.7357 H   0  0  0  0  0  0  0  0  0  0  0  0
  153.0705  138.2835  154.1700 H   0  0  0  0  0  0  0  0  0  0  0  0
  152.4417  137.6526  155.6917 H   0  0  0  0  0  0  0  0  0  0  0  0
  153.7227  138.8621  155.6998 H   0  0  0  0  0  0  0  0  0  0  0  0
  150.2289  140.9455  157.8412 H   0  0  0  0  0  0  0  0  0  0  0  0
  150.2389  143.1242  156.7244 H   0  0  0  0  0  0  0  0  0  0  0  0
  151.1982  142.4985  155.3936 H   0  0  0  0  0  0  0  0  0  0  0  0
  151.8912  142.5922  157.0116 H   0  0  0  0  0  0  0  0  0  0  0  0
  148.4892  141.4084  156.1245 H   0  0  0  0  0  0  0  0  0  0  0  0
  148.7289  139.7147  156.4832 H   0  0  0  0  0  0  0  0  0  0  0  0
  1  2  1  0  0  0  0
  1 22  1  0  0  0  0
  1 23  1  0  0  0  0
  1 24  1  0  0  0  0
  2 21  1  0  0  0  0
  2  3  2  0  0  0  0
  3  4  1  0  0  0  0
  3 25  1  0  0  0  0
  4  5  1  0  0  0  0
  4 20  2  0  0  0  0
  5  6  1  0  0  0  0
  5 26  1  0  0  0  0
  6  7  2  0  0  0  0
  6  8  1  0  0  0  0
  8  9  1  0  0  0  0
  8 27  1  0  0  0  0
  9 10  1  0  0  0  0
  9 28  1  0  0  0  0
  9 29  1  0  0  0  0
 10 11  1  0  0  0  0
 10 12  1  0  0  0  0
 10 30  1  0  0  0  0
 11 31  1  0  0  0  0
 11 32  1  0  0  0  0
 11 33  1  0  0  0  0
 12 19  1  0  0  0  0
 12 13  1  0  0  0  0
 13 14  1  0  0  0  0
 13 34  1  0  0  0  0
 13 35  1  0  0  0  0
 14 15  1  0  0  0  0
 14 16  1  0  0  0  0
 14 36  1  0  0  0  0
 15 37  1  0  0  0  0
 15 38  1  0  0  0  0
 15 39  1  0  0  0  0
 16 17  1  0  0  0  0
 17 18  1  0  0  0  0
 17 19  1  0  0  0  0
 17 40  1  0  0  0  0
 18 41  1  0  0  0  0
 18 42  1  0  0  0  0
 18 43  1  0  0  0  0
 19 44  1  0  0  0  0
 19 45  1  0  0  0  0
 20 21  1  0  0  0  0
M  END
> <s_m_source_file>
AV-unprocessed.smi

> <i_m_source_file_index>
2061

> <i_lp_mmshare_version>
43012

> <i_f3d_flags>
0

> <s_epik_input>
W0NIM11jMVtjSF1jKG5vMSlbTkhdQyg9TylbTkhdW0NIMl1bQ0BIXShbQ0gzXSlOMltDSDJdW0NAQEhdKFtDSDNdKU9bQ0BASF0oW0NIM10pW0NIMl0y

> <s_epik_cmdline>
J2VwaWtfcHl0aG9uJywgJy1waCcsICc3LjAnLCAnLXRuJywgJzgnLCAnLW1hJywgJzIwMCcsICctbWV0YWxfYmluZGluZycsICctaW1hZScsICc8aW5maWxlLm1hZT4nLCAnLW9tYWUnLCAnPG91dGZpbGUubWFlPic=

> <r_epik_Ionization_Penalty>
0.214073

> <r_epik_Ionization_Penalty_Charging>
0

> <r_epik_Ionization_Penalty_Neutral>
0.214073

> <r_epik_State_Penalty>
0.204211

> <r_epik_Charging_Adjusted_Penalty>
0.204211

> <i_epik_Tot_Q>
0

> <i_epik_Tot_abs_Q>
0

> <r_epik_Metal_State_Penalty>
0.217067

> <b_epik_Metal_Only>
0

> <s_lp_Force_Field>
OPLS_2005

> <r_lp_Energy>
29.4213

> <b_lp_Chiralities_Consistent>
1

> <s_lp_Variant>
AV-unprocessed.smi:2061-4

> <Gold.Version>
5.8.1

> <Gold.Id.Protein>
6NUR|6NUR_protein|mol2

> <Gold.PLP.Fitness>
37.8055

> <Gold.PLP.PLP>
-33.4545

> <Gold.PLP.part.hbond>
-2.0000

> <Gold.PLP.part.metal>
0.0000

> <Gold.PLP.part.buried>
-3.7172

> <Gold.PLP.part.nonpolar>
-27.4739

> <Gold.PLP.part.repulsive>
0.5862

> <Gold.PLP.ligand.clash>
0.0000

> <Gold.PLP.ligand.torsion>
0.8377

> <Gold.PLP.Chemscore.Hbond>
2.0000

> <Gold.PLP.Chemscore.CHOScore>
0.0000

> <Gold.PLP.Chemscore.Metal>
0.0000

> <Gold.Chemscore.Hbonds>
donor molecule, donor type, donor heavy atom, donor atom, acceptor molecule, acceptor atom, score
      L1  H     5    26       P1  7948  1.00
      L1  H     8    27       P1  7948  1.00

> <Gold.PLP.Chemscore.Internal.Correction>
0.0264

> <Gold.Rescore>
     Score         DG    S(hbond)    S(metal)    S(lipo)     H(rot)  DE(clash)    DE(int)     intcor
     15.47     -17.57       1.94        0.00      81.77       1.55       0.04       2.06       ----

> <Gold.Chemscore.Fitness>
15.4742

> <Gold.Chemscore.DG>
-17.5731

> <Gold.Chemscore.ZeroCoef>
-5.4800

> <Gold.Chemscore.Hbond>
1.9422

> <Gold.Chemscore.Metal>
0.0000

> <Gold.Chemscore.Lipo>
81.7737

> <Gold.Chemscore.Internal_Hbond>
0.0000

> <Gold.Chemscore.DEClash>
0.0407

> <Gold.Chemscore.DEInternal>
2.0583

> <Gold.Chemscore.Rot>
1.5474

> <Gold.Chemscore.Internal.Correction>
   9.000000E+99

> <Gold.Chemscore.Hbonds>
donor molecule, donor type, donor heavy atom, donor atom, acceptor molecule, acceptor atom, score
      L1  H     5    26       P1  7948  0.99
      L1  H     8    27       P1  7948  0.95

> <Gold.Chemscore.Hbond.Weighted>
-6.4868

> <Gold.Chemscore.Metal.Weighted>
-0.0000

> <Gold.Chemscore.Lipo.Weighted>
-9.5675

> <Gold.Chemscore.Internal_Hbond.Weighted>
0.0000

> <Gold.Chemscore.DEClash.Weighted>
0.0407

> <Gold.Chemscore.DEInternal.Weighted>
2.0583

> <Gold.Chemscore.Rot.Weighted>
3.9612

> <Gold.Chemscore.Internal.Correction.Weighted>
   9.000000E+99

> <Gold.Protein.RotatedTorsions>
[ 6907 6896 6895 6894 ] final  -53.30 input  -60.11 | X-H torsion
[ 7974 7965 7964 7962 ] final    1.74 input  175.53 | X-H torsion
[ 8008 7997 7996 7995 ] final  -45.07 input   59.86 | X-H torsion
[ 10167 10162 10161 10158 ] final  119.97 input  -65.29 | X-H torsion
[ 10718 10713 10712 10709 ] final -166.92 input   66.30 | X-H torsion
[ 10763 10752 10751 10750 ] final  131.22 input  -60.55 | X-H torsion
[ 11005 11000 10999 10996 ] final   34.95 input  -57.11 | X-H torsion

> <Gold.Protein.ActiveResidues>
 VAL166  LYS551  ARG553  GLY616  TRP617  ASP618  TYR619  PRO620  LYS621  CYS622 
 ASP623  PHE694  ASN695  SER759  ASP760  ASP761  ALA762  ILE779  LEU786  VAL792 
 PHE793  MET794  SER795  GLU796  ALA797  LYS798  CYS799  TRP800  GLU811  SER814 

> <Gold.Protein.RotatedAtoms>
  150.8439  134.7741  159.6954 H   0  0  0  0  0  0  0  0  0  0  0  0  # atno 6907 bound_to 6896
  152.4521  134.5369  159.9837 H   0  0  0  0  0  0  0  0  0  0  0  0  # atno 6908 bound_to 6896
  151.5503  133.3380  159.2987 H   0  0  0  0  0  0  0  0  0  0  0  0  # atno 6909 bound_to 6896
  146.2441  140.0941  142.8350 H   0  0  0  0  0  0  0  0  0  0  0  0  # atno 7974 bound_to 7965
  154.3999  140.1406  156.3787 H   0  0  0  0  0  0  0  0  0  0  0  0  # atno 8008 bound_to 7997
  155.8024  140.3475  155.5389 H   0  0  0  0  0  0  0  0  0  0  0  0  # atno 8009 bound_to 7997
  155.8470  140.0935  157.1689 H   0  0  0  0  0  0  0  0  0  0  0  0  # atno 8010 bound_to 7997
  139.6011  144.7057  151.3059 H   0  0  0  0  0  0  0  0  0  0  0  0  # atno 10167 bound_to 10162
  156.6748  130.9098  151.3049 H   0  0  0  0  0  0  0  0  0  0  0  0  # atno 10718 bound_to 10713
  153.7708  135.3182  155.3351 H   0  0  0  0  0  0  0  0  0  0  0  0  # atno 10763 bound_to 10752
  154.8197  135.4612  154.0746 H   0  0  0  0  0  0  0  0  0  0  0  0  # atno 10764 bound_to 10752
  153.2005  135.6922  153.8321 H   0  0  0  0  0  0  0  0  0  0  0  0  # atno 10765 bound_to 10752
  140.2476  134.3341  155.7902 H   0  0  0  0  0  0  0  0  0  0  0  0  # atno 11005 bound_to 11000
  145.0625  140.9097  143.4930 LP  0  0  0  0  0  0  0  0  0  0  0  0  # atno 17320 bound_to 7965
  145.1059  139.2790  143.5662 LP  0  0  0  0  0  0  0  0  0  0  0  0  # atno 17321 bound_to 7965
  140.7250  143.7028  150.7831 LP  0  0  0  0  0  0  0  0  0  0  0  0  # atno 17342 bound_to 10162
  140.0604  143.5160  152.2630 LP  0  0  0  0  0  0  0  0  0  0  0  0  # atno 17343 bound_to 10162
  157.7064  130.9390  150.0946 LP  0  0  0  0  0  0  0  0  0  0  0  0  # atno 17370 bound_to 10713
  156.1911  130.3655  149.8908 LP  0  0  0  0  0  0  0  0  0  0  0  0  # atno 17371 bound_to 10713
  141.2204  133.7335  156.8986 LP  0  0  0  0  0  0  0  0  0  0  0  0  # atno 17394 bound_to 11000
  140.1590  134.9178  157.2690 LP  0  0  0  0  0  0  0  0  0  0  0  0  # atno 17395 bound_to 11000

$$$$
