AV-unprocessed.smi:218|AV-procd|sdf|1673|dock7
  -GOLD-   2262020 93D 1   1.00000     0.00000
 Structure written by MMmdl.
 54 57  0  0  0  0  0  0  0  0  1 V2000
  152.0176  144.1193  157.6907 C   0  0  0  0  0  0  0  0  0  0  0  0
  151.6073  143.1156  158.7748 C   0  0  0  0  0  0  0  0  0  0  0  0
  151.9729  143.6310  160.1776 C   0  0  0  0  0  0  0  0  0  0  0  0
  152.3020  141.8984  158.4966 O   0  0  0  0  0  0  0  0  0  0  0  0
  151.9100  141.1007  157.4388 C   0  0  0  0  0  0  0  0  0  0  0  0
  150.7982  141.5069  156.6733 C   0  0  0  0  0  0  0  0  0  0  0  0
  150.3855  140.7044  155.5888 C   0  0  0  0  0  0  0  0  0  0  0  0
  149.1945  141.0973  154.7298 C   0  0  0  0  0  0  0  0  0  0  0  0
  148.8012  140.1109  153.7285 N   0  0  0  0  0  0  0  0  0  0  0  0
  148.2286  138.9444  154.0996 C   0  0  0  0  0  0  0  0  0  0  0  0
  148.5146  138.3714  155.2980 N   0  0  0  0  0  0  0  0  0  0  0  0
  147.9320  137.2195  155.6431 C   0  0  0  0  0  0  0  0  0  0  0  0
  147.0486  136.4928  154.9555 N   0  0  0  0  0  0  0  0  0  0  0  0
  146.7528  137.0665  153.7533 C   0  0  0  0  0  0  0  0  0  0  0  0
  147.2986  138.2831  153.2564 C   0  0  0  0  0  0  0  0  0  0  0  0
  146.7723  138.5580  152.0010 N   0  0  0  0  0  0  0  0  0  0  0  0
  145.9612  137.5598  151.7740 C   0  0  0  0  0  0  0  0  0  0  0  0
  145.8858  136.6190  152.7769 N   0  0  0  0  0  0  0  0  0  0  0  0
  145.0430  135.3856  152.8042 C   0  0  1  0  0  0  0  0  0  0  0  0
  145.3163  134.6451  151.6573 O   0  0  0  0  0  0  0  0  0  0  0  0
  145.2446  133.2646  151.9761 C   0  0  1  0  0  0  0  0  0  0  0  0
  145.9479  132.4173  150.9013 C   0  0  0  0  0  0  0  0  0  0  0  0
  147.3430  132.6300  150.9429 O   0  0  0  0  0  0  0  0  0  0  0  0
  145.8008  133.1837  153.4066 C   0  0  1  0  0  0  0  0  0  0  0  0
  147.2095  133.0533  153.4206 O   0  0  0  0  0  0  0  0  0  0  0  0
  145.3800  134.5141  154.0282 C   0  0  2  0  0  0  0  0  0  0  0  0
  144.2376  134.3136  154.8365 O   0  0  0  0  0  0  0  0  0  0  0  0
  151.0974  139.5185  155.3201 C   0  0  0  0  0  0  0  0  0  0  0  0
  152.1944  139.1947  156.1414 C   0  0  0  0  0  0  0  0  0  0  0  0
  152.5961  139.9601  157.1780 N   0  0  0  0  0  0  0  0  0  0  0  0
  144.0128  135.7453  152.7908 H   0  0  0  0  0  0  0  0  0  0  0  0
  144.1851  133.0027  152.0011 H   0  0  0  0  0  0  0  0  0  0  0  0
  145.3909  132.3235  153.9384 H   0  0  0  0  0  0  0  0  0  0  0  0
  146.1713  134.9638  154.6310 H   0  0  0  0  0  0  0  0  0  0  0  0
  151.5192  145.0784  157.8333 H   0  0  0  0  0  0  0  0  0  0  0  0
  151.7512  143.7521  156.6993 H   0  0  0  0  0  0  0  0  0  0  0  0
  153.0936  144.2961  157.7015 H   0  0  0  0  0  0  0  0  0  0  0  0
  150.5276  142.9796  158.6961 H   0  0  0  0  0  0  0  0  0  0  0  0
  151.4822  144.5825  160.3836 H   0  0  0  0  0  0  0  0  0  0  0  0
  153.0482  143.7837  160.2718 H   0  0  0  0  0  0  0  0  0  0  0  0
  151.6694  142.9331  160.9574 H   0  0  0  0  0  0  0  0  0  0  0  0
  150.2765  142.4212  156.9151 H   0  0  0  0  0  0  0  0  0  0  0  0
  148.3385  141.3270  155.3656 H   0  0  0  0  0  0  0  0  0  0  0  0
  149.4445  142.0223  154.2099 H   0  0  0  0  0  0  0  0  0  0  0  0
  149.1313  140.2836  152.7899 H   0  0  0  0  0  0  0  0  0  0  0  0
  148.2119  136.8243  156.6084 H   0  0  0  0  0  0  0  0  0  0  0  0
  145.3859  137.4845  150.8627 H   0  0  0  0  0  0  0  0  0  0  0  0
  145.7572  131.3592  151.0815 H   0  0  0  0  0  0  0  0  0  0  0  0
  145.5694  132.6400  149.9033 H   0  0  0  0  0  0  0  0  0  0  0  0
  147.7725  131.8787  150.5625 H   0  0  0  0  0  0  0  0  0  0  0  0
  147.4240  132.1338  153.3792 H   0  0  0  0  0  0  0  0  0  0  0  0
  143.8982  133.4489  154.6630 H   0  0  0  0  0  0  0  0  0  0  0  0
  150.8159  138.8732  154.5010 H   0  0  0  0  0  0  0  0  0  0  0  0
  152.7645  138.2953  155.9615 H   0  0  0  0  0  0  0  0  0  0  0  0
  1  2  1  0  0  0  0
  1 35  1  0  0  0  0
  1 36  1  0  0  0  0
  1 37  1  0  0  0  0
  2  3  1  0  0  0  0
  2  4  1  0  0  0  0
  2 38  1  0  0  0  0
  3 39  1  0  0  0  0
  3 40  1  0  0  0  0
  3 41  1  0  0  0  0
  4  5  1  0  0  0  0
  5 30  1  0  0  0  0
  5  6  2  0  0  0  0
  6  7  1  0  0  0  0
  6 42  1  0  0  0  0
  7  8  1  0  0  0  0
  7 28  2  0  0  0  0
  8  9  1  0  0  0  0
  8 43  1  0  0  0  0
  8 44  1  0  0  0  0
  9 10  1  0  0  0  0
  9 45  1  0  0  0  0
 10 15  1  0  0  0  0
 10 11  2  0  0  0  0
 11 12  1  0  0  0  0
 12 13  2  0  0  0  0
 12 46  1  0  0  0  0
 13 14  1  0  0  0  0
 14 18  1  0  0  0  0
 14 15  2  0  0  0  0
 15 16  1  0  0  0  0
 16 17  2  0  0  0  0
 17 18  1  0  0  0  0
 17 47  1  0  0  0  0
 18 19  1  0  0  0  0
 19 31  1  0  0  0  0
 19 26  1  0  0  0  0
 19 20  1  0  0  0  0
 20 21  1  0  0  0  0
 21 32  1  0  0  0  0
 21 22  1  0  0  0  0
 21 24  1  0  0  0  0
 22 23  1  0  0  0  0
 22 48  1  0  0  0  0
 22 49  1  0  0  0  0
 23 50  1  0  0  0  0
 24 33  1  0  0  0  0
 24 25  1  0  0  0  0
 24 26  1  0  0  0  0
 25 51  1  0  0  0  0
 26 34  1  0  0  0  0
 26 27  1  0  0  0  0
 27 52  1  0  0  0  0
 28 29  1  0  0  0  0
 28 53  1  0  0  0  0
 29 30  2  0  0  0  0
 29 54  1  0  0  0  0
M  END
> <s_m_source_file>
AV-unprocessed.smi

> <i_m_source_file_index>
218

> <i_lp_mmshare_version>
43012

> <i_f3d_flags>
0

> <s_epik_input>
W0NIM11bQ0hdKFtDSDNdKU9jMVtjSF1jKFtjSF1bY0hdbjEpW0NIMl1bTkhdYyhuW2NIXW4yKWMoYzIzKW5bY0hdbjNbQ0BASF00T1tDQEhdKFtDSDJdW09IXSlbQ0BASF0oW09IXSlbQ0BIXTRbT0hd

> <s_epik_cmdline>
J2VwaWtfcHl0aG9uJywgJy1waCcsICc3LjAnLCAnLXRuJywgJzgnLCAnLW1hJywgJzIwMCcsICctbWV0YWxfYmluZGluZycsICctaW1hZScsICc8aW5maWxlLm1hZT4nLCAnLW9tYWUnLCAnPG91dGZpbGUubWFlPic=

> <r_lp_tautomer_probability>
1

> <r_epik_Ionization_Penalty>
0.00457014

> <r_epik_Ionization_Penalty_Charging>
0

> <r_epik_Ionization_Penalty_Neutral>
0.00457014

> <r_epik_State_Penalty>
-0

> <r_epik_Charging_Adjusted_Penalty>
0

> <i_epik_Tot_Q>
0

> <i_epik_Tot_abs_Q>
0

> <r_epik_Metal_State_Penalty>
-0

> <b_epik_Metal_Only>
0

> <s_epik_Chemistry_Notes>
This compound contains an acetal/aminal-like group ( X-CH(R)-Y where X, Y are N, S, or O) that may be acid/base labile, releasing an aldehyde.

> <s_lp_Force_Field>
OPLS_2005

> <r_lp_Energy>
38.5835

> <b_lp_Chiralities_Consistent>
1

> <s_lp_Variant>
AV-unprocessed.smi:218-12

> <Gold.Version>
5.8.1

> <Gold.Id.Protein>
6NUR|6NUR_protein|mol2

> <Gold.PLP.Fitness>
55.1541

> <Gold.PLP.PLP>
-41.0266

> <Gold.PLP.part.hbond>
-4.0000

> <Gold.PLP.part.metal>
0.0000

> <Gold.PLP.part.buried>
-4.1165

> <Gold.PLP.part.nonpolar>
-35.0888

> <Gold.PLP.part.repulsive>
0.7341

> <Gold.PLP.ligand.clash>
0.0198

> <Gold.PLP.ligand.torsion>
0.4967

> <Gold.PLP.Chemscore.Hbond>
3.9750

> <Gold.PLP.Chemscore.CHOScore>
1.0000

> <Gold.PLP.Chemscore.Metal>
0.0000

> <Gold.Chemscore.Hbonds>
donor molecule, donor type, donor heavy atom, donor atom, acceptor molecule, acceptor atom, score
      L1  H     9    45       P1  7957  1.00
      L1  H    23    50       P1 10747  1.00
      L1  H    27    52       P1 10957  0.86
      P1  H  7997  8009       L1    30  0.95
      L1  C    17    47       P1 10171  1.00

> <Gold.PLP.Chemscore.Internal.Correction>
0.2158

> <Gold.Rescore>
     Score         DG    S(hbond)    S(metal)    S(lipo)     H(rot)  DE(clash)    DE(int)     intcor
     10.81     -15.77       3.60        0.00      92.60       4.90       0.59       4.38       ----

> <Gold.Chemscore.Fitness>
10.8072

> <Gold.Chemscore.DG>
-15.7748

> <Gold.Chemscore.ZeroCoef>
-5.4800

> <Gold.Chemscore.Hbond>
3.5965

> <Gold.Chemscore.Metal>
0.0000

> <Gold.Chemscore.Lipo>
92.5976

> <Gold.Chemscore.Internal_Hbond>
0.0000

> <Gold.Chemscore.DEClash>
0.5861

> <Gold.Chemscore.DEInternal>
4.3815

> <Gold.Chemscore.Rot>
4.9029

> <Gold.Chemscore.Internal.Correction>
   9.000000E+99

> <Gold.Chemscore.Hbonds>
donor molecule, donor type, donor heavy atom, donor atom, acceptor molecule, acceptor atom, score
      L1  H     9    45       P1  7957  1.00
      L1  H    23    50       P1 10747  0.98
      L1  H    27    52       P1 10957  0.84
      P1  H  7997  8009       L1    30  0.21

> <Gold.Chemscore.Hbond.Weighted>
-12.0124

> <Gold.Chemscore.Metal.Weighted>
-0.0000

> <Gold.Chemscore.Lipo.Weighted>
-10.8339

> <Gold.Chemscore.Internal_Hbond.Weighted>
0.0000

> <Gold.Chemscore.DEClash.Weighted>
0.5861

> <Gold.Chemscore.DEInternal.Weighted>
4.3815

> <Gold.Chemscore.Rot.Weighted>
12.5515

> <Gold.Chemscore.Internal.Correction.Weighted>
   9.000000E+99

> <Gold.Protein.RotatedTorsions>
[ 6907 6896 6895 6894 ] final  178.97 input  -60.11 | X-H torsion
[ 7974 7965 7964 7962 ] final  -14.47 input  175.53 | X-H torsion
[ 8008 7997 7996 7995 ] final  173.29 input   59.86 | X-H torsion
[ 10167 10162 10161 10158 ] final  170.69 input  -65.29 | X-H torsion
[ 10718 10713 10712 10709 ] final  166.11 input   66.30 | X-H torsion
[ 10763 10752 10751 10750 ] final  128.97 input  -60.55 | X-H torsion
[ 11005 11000 10999 10996 ] final  -30.07 input  -57.11 | X-H torsion

> <Gold.Protein.ActiveResidues>
 VAL166  LYS551  ARG553  GLY616  TRP617  ASP618  TYR619  PRO620  LYS621  CYS622 
 ASP623  PHE694  ASN695  SER759  ASP760  ASP761  ALA762  ILE779  LEU786  VAL792 
 PHE793  MET794  SER795  GLU796  ALA797  LYS798  CYS799  TRP800  GLU811  SER814 

> <Gold.Protein.RotatedAtoms>
  151.6792  133.3312  159.3214 H   0  0  0  0  0  0  0  0  0  0  0  0  # atno 6907 bound_to 6896
  150.7831  134.6796  159.6446 H   0  0  0  0  0  0  0  0  0  0  0  0  # atno 6908 bound_to 6896
  152.3894  134.6469  160.0165 H   0  0  0  0  0  0  0  0  0  0  0  0  # atno 6909 bound_to 6896
  146.2073  140.3353  142.8403 H   0  0  0  0  0  0  0  0  0  0  0  0  # atno 7974 bound_to 7965
  156.1090  140.1464  156.9365 H   0  0  0  0  0  0  0  0  0  0  0  0  # atno 8008 bound_to 7997
  154.4753  140.0896  156.7291 H   0  0  0  0  0  0  0  0  0  0  0  0  # atno 8009 bound_to 7997
  155.4630  140.3439  155.4317 H   0  0  0  0  0  0  0  0  0  0  0  0  # atno 8010 bound_to 7997
  139.5025  144.3569  151.9865 H   0  0  0  0  0  0  0  0  0  0  0  0  # atno 10167 bound_to 10162
  157.0705  131.0365  151.2613 H   0  0  0  0  0  0  0  0  0  0  0  0  # atno 10718 bound_to 10713
  153.7342  135.3234  155.3292 H   0  0  0  0  0  0  0  0  0  0  0  0  # atno 10763 bound_to 10752
  154.8316  135.4529  154.1091 H   0  0  0  0  0  0  0  0  0  0  0  0  # atno 10764 bound_to 10752
  153.2247  135.6952  153.8040 H   0  0  0  0  0  0  0  0  0  0  0  0  # atno 10765 bound_to 10752
  140.9351  133.7314  156.0993 H   0  0  0  0  0  0  0  0  0  0  0  0  # atno 11005 bound_to 11000
  144.8823  140.7417  143.5978 LP  0  0  0  0  0  0  0  0  0  0  0  0  # atno 17320 bound_to 7965
  145.3274  139.1770  143.4555 LP  0  0  0  0  0  0  0  0  0  0  0  0  # atno 17321 bound_to 7965
  140.3005  144.3652  150.6061 LP  0  0  0  0  0  0  0  0  0  0  0  0  # atno 17342 bound_to 10162
  140.5877  143.2169  151.7311 LP  0  0  0  0  0  0  0  0  0  0  0  0  # atno 17343 bound_to 10162
  157.4882  130.7806  149.7481 LP  0  0  0  0  0  0  0  0  0  0  0  0  # atno 17370 bound_to 10713
  155.9952  130.3913  150.2829 LP  0  0  0  0  0  0  0  0  0  0  0  0  # atno 17371 bound_to 10713
  140.7810  134.3725  157.5487 LP  0  0  0  0  0  0  0  0  0  0  0  0  # atno 17394 bound_to 11000
  139.8806  134.9081  156.2961 LP  0  0  0  0  0  0  0  0  0  0  0  0  # atno 17395 bound_to 11000

$$$$
