AV-unprocessed.smi:2610|AV-procd|sdf|10208|dock5
  -GOLD-   2272014213D 1   1.00000     0.00000
 Structure written by MMmdl.
 45 47  0  0  0  0  0  0  0  0  1 V2000
  154.1241  137.0364  159.6355 C   0  0  0  0  0  0  0  0  0  0  0  0
  152.9317  137.7633  160.2667 C   0  0  0  0  0  0  0  0  0  0  0  0
  151.8446  138.1107  159.2403 C   0  0  0  0  0  0  0  0  0  0  0  0
  152.3512  139.0589  158.1439 C   0  0  0  0  0  0  0  0  0  0  0  0
  152.1781  140.5030  158.5113 C   0  0  0  0  0  0  0  0  0  0  0  0
  152.5551  140.9624  159.7048 N   0  0  0  0  0  0  0  0  0  0  0  0
  152.3078  142.3161  159.6029 C   0  0  0  0  0  0  0  0  0  0  0  0
  152.5055  143.3560  160.5390 C   0  0  0  0  0  0  0  0  0  0  0  0
  152.1957  144.6893  160.2009 C   0  0  0  0  0  0  0  0  0  0  0  0
  151.6880  145.0011  158.9235 C   0  0  0  0  0  0  0  0  0  0  0  0
  151.4811  143.9793  157.9773 C   0  0  0  0  0  0  0  0  0  0  0  0
  151.7825  142.6473  158.3218 C   0  0  0  0  0  0  0  0  0  0  0  0
  151.6903  141.4315  157.6468 N   0  0  0  0  0  0  0  0  0  0  0  0
  151.2057  141.2343  156.2822 C   0  0  0  0  0  0  0  0  0  0  0  0
  149.6618  141.2949  156.1245 C   0  0  0  0  0  0  0  0  0  0  0  0
  149.1912  142.4736  156.7531 O   0  0  0  0  0  0  0  0  0  0  0  0
  149.2064  141.3276  154.6495 C   0  0  0  0  0  0  0  0  0  0  0  0
  147.6812  141.1779  154.5090 C   0  0  0  0  0  0  0  0  0  0  0  0
  147.2463  139.9884  155.1560 O   0  0  0  0  0  0  0  0  0  0  0  0
  147.4956  140.0017  156.5562 C   0  0  0  0  0  0  0  0  0  0  0  0
  149.0095  140.0841  156.8229 C   0  0  0  0  0  0  0  0  0  0  0  0
  154.8763  136.7988  160.3879 H   0  0  0  0  0  0  0  0  0  0  0  0
  154.6002  137.6508  158.8708 H   0  0  0  0  0  0  0  0  0  0  0  0
  153.8133  136.1011  159.1692 H   0  0  0  0  0  0  0  0  0  0  0  0
  152.5066  137.1383  161.0529 H   0  0  0  0  0  0  0  0  0  0  0  0
  153.2819  138.6749  160.7523 H   0  0  0  0  0  0  0  0  0  0  0  0
  151.4686  137.1940  158.7840 H   0  0  0  0  0  0  0  0  0  0  0  0
  150.9983  138.5699  159.7529 H   0  0  0  0  0  0  0  0  0  0  0  0
  153.3948  138.8466  157.9205 H   0  0  0  0  0  0  0  0  0  0  0  0
  151.8059  138.8716  157.2179 H   0  0  0  0  0  0  0  0  0  0  0  0
  152.9008  143.1275  161.5177 H   0  0  0  0  0  0  0  0  0  0  0  0
  152.3531  145.4770  160.9231 H   0  0  0  0  0  0  0  0  0  0  0  0
  151.4582  146.0257  158.6699 H   0  0  0  0  0  0  0  0  0  0  0  0
  151.0963  144.2197  156.9980 H   0  0  0  0  0  0  0  0  0  0  0  0
  151.6673  141.9947  155.6512 H   0  0  0  0  0  0  0  0  0  0  0  0
  151.5860  140.2834  155.9085 H   0  0  0  0  0  0  0  0  0  0  0  0
  149.2729  143.1915  156.1440 H   0  0  0  0  0  0  0  0  0  0  0  0
  149.5300  142.2476  154.1617 H   0  0  0  0  0  0  0  0  0  0  0  0
  149.6786  140.5068  154.1097 H   0  0  0  0  0  0  0  0  0  0  0  0
  147.1600  142.0427  154.9222 H   0  0  0  0  0  0  0  0  0  0  0  0
  147.4096  141.1218  153.4547 H   0  0  0  0  0  0  0  0  0  0  0  0
  146.9669  140.8336  157.0238 H   0  0  0  0  0  0  0  0  0  0  0  0
  147.0910  139.0879  156.9916 H   0  0  0  0  0  0  0  0  0  0  0  0
  149.4732  139.1655  156.4606 H   0  0  0  0  0  0  0  0  0  0  0  0
  149.1969  140.1160  157.8971 H   0  0  0  0  0  0  0  0  0  0  0  0
  1  2  1  0  0  0  0
  1 22  1  0  0  0  0
  1 23  1  0  0  0  0
  1 24  1  0  0  0  0
  2  3  1  0  0  0  0
  2 25  1  0  0  0  0
  2 26  1  0  0  0  0
  3  4  1  0  0  0  0
  3 27  1  0  0  0  0
  3 28  1  0  0  0  0
  4  5  1  0  0  0  0
  4 29  1  0  0  0  0
  4 30  1  0  0  0  0
  5 13  1  0  0  0  0
  5  6  2  0  0  0  0
  6  7  1  0  0  0  0
  7 12  2  0  0  0  0
  7  8  1  0  0  0  0
  8  9  2  0  0  0  0
  8 31  1  0  0  0  0
  9 10  1  0  0  0  0
  9 32  1  0  0  0  0
 10 11  2  0  0  0  0
 10 33  1  0  0  0  0
 11 12  1  0  0  0  0
 11 34  1  0  0  0  0
 12 13  1  0  0  0  0
 13 14  1  0  0  0  0
 14 15  1  0  0  0  0
 14 35  1  0  0  0  0
 14 36  1  0  0  0  0
 15 21  1  0  0  0  0
 15 16  1  0  0  0  0
 15 17  1  0  0  0  0
 16 37  1  0  0  0  0
 17 18  1  0  0  0  0
 17 38  1  0  0  0  0
 17 39  1  0  0  0  0
 18 19  1  0  0  0  0
 18 40  1  0  0  0  0
 18 41  1  0  0  0  0
 19 20  1  0  0  0  0
 20 21  1  0  0  0  0
 20 42  1  0  0  0  0
 20 43  1  0  0  0  0
 21 44  1  0  0  0  0
 21 45  1  0  0  0  0
M  END
> <s_m_source_file>
AV-unprocessed.smi

> <i_m_source_file_index>
2610

> <i_lp_mmshare_version>
43012

> <i_f3d_flags>
0

> <s_epik_input>
W0NIM11bQ0gyXVtDSDJdW0NIMl1jKG4xKW4oYyhjMTIpW2NIXVtjSF1bY0hdW2NIXTIpW0NIMl1DMyhbT0hdKVtDSDJdW0NIMl1PW0NIMl1bQ0gyXTM=

> <s_epik_cmdline>
J2VwaWtfcHl0aG9uJywgJy1waCcsICc3LjAnLCAnLXRuJywgJzgnLCAnLW1hJywgJzIwMCcsICctbWV0YWxfYmluZGluZycsICctaW1hZScsICc8aW5maWxlLm1hZT4nLCAnLW9tYWUnLCAnPG91dGZpbGUubWFlPic=

> <r_epik_Ionization_Penalty>
0.224246

> <r_epik_Ionization_Penalty_Charging>
0

> <r_epik_Ionization_Penalty_Neutral>
0.224246

> <r_epik_State_Penalty>
0.214696

> <r_epik_Charging_Adjusted_Penalty>
0.214696

> <i_epik_Tot_Q>
0

> <i_epik_Tot_abs_Q>
0

> <r_epik_Metal_State_Penalty>
0.000258695

> <b_epik_Metal_Only>
0

> <s_lp_Force_Field>
OPLS_2005

> <r_lp_Energy>
13.1565

> <b_lp_Chiralities_Consistent>
1

> <s_lp_Variant>
AV-unprocessed.smi:2610-1

> <Gold.Version>
5.8.1

> <Gold.Id.Protein>
6NUR|6NUR_protein|mol2

> <Gold.PLP.Fitness>
45.3825

> <Gold.PLP.PLP>
-43.2891

> <Gold.PLP.part.hbond>
-0.6404

> <Gold.PLP.part.metal>
0.0000

> <Gold.PLP.part.buried>
-6.3645

> <Gold.PLP.part.nonpolar>
-36.4563

> <Gold.PLP.part.repulsive>
0.0491

> <Gold.PLP.ligand.clash>
0.0000

> <Gold.PLP.ligand.torsion>
0.6092

> <Gold.PLP.Chemscore.Hbond>
1.0000

> <Gold.PLP.Chemscore.CHOScore>
0.0000

> <Gold.PLP.Chemscore.Metal>
0.0000

> <Gold.Chemscore.Hbonds>
donor molecule, donor type, donor heavy atom, donor atom, acceptor molecule, acceptor atom, score
      L1  H    16    37       P1  8028  1.00

> <Gold.PLP.Chemscore.Internal.Correction>
0.3119

> <Gold.Rescore>
     Score         DG    S(hbond)    S(metal)    S(lipo)     H(rot)  DE(clash)    DE(int)     intcor
     17.50     -18.04       1.00        0.00     120.61       1.91       0.15       0.39       ----

> <Gold.Chemscore.Fitness>
17.4963

> <Gold.Chemscore.DG>
-18.0396

> <Gold.Chemscore.ZeroCoef>
-5.4800

> <Gold.Chemscore.Hbond>
0.9961

> <Gold.Chemscore.Metal>
0.0000

> <Gold.Chemscore.Lipo>
120.6132

> <Gold.Chemscore.Internal_Hbond>
0.0000

> <Gold.Chemscore.DEClash>
0.1528

> <Gold.Chemscore.DEInternal>
0.3905

> <Gold.Chemscore.Rot>
1.9059

> <Gold.Chemscore.Internal.Correction>
   9.000000E+99

> <Gold.Chemscore.Hbonds>
donor molecule, donor type, donor heavy atom, donor atom, acceptor molecule, acceptor atom, score
      L1  H    16    37       P1  8028  0.95

> <Gold.Chemscore.Hbond.Weighted>
-3.3268

> <Gold.Chemscore.Metal.Weighted>
-0.0000

> <Gold.Chemscore.Lipo.Weighted>
-14.1117

> <Gold.Chemscore.Internal_Hbond.Weighted>
0.0000

> <Gold.Chemscore.DEClash.Weighted>
0.1528

> <Gold.Chemscore.DEInternal.Weighted>
0.3905

> <Gold.Chemscore.Rot.Weighted>
4.8790

> <Gold.Chemscore.Internal.Correction.Weighted>
   9.000000E+99

> <Gold.Protein.RotatedTorsions>
[ 6907 6896 6895 6894 ] final  172.98 input  -60.11 | X-H torsion
[ 7974 7965 7964 7962 ] final -112.66 input  175.53 | X-H torsion
[ 8008 7997 7996 7995 ] final  148.25 input   59.86 | X-H torsion
[ 10167 10162 10161 10158 ] final   94.82 input  -65.29 | X-H torsion
[ 10718 10713 10712 10709 ] final -142.66 input   66.30 | X-H torsion
[ 10763 10752 10751 10750 ] final  -23.34 input  -60.55 | X-H torsion
[ 11005 11000 10999 10996 ] final   36.35 input  -57.11 | X-H torsion

> <Gold.Protein.ActiveResidues>
 VAL166  LYS551  ARG553  GLY616  TRP617  ASP618  TYR619  PRO620  LYS621  CYS622 
 ASP623  PHE694  ASN695  SER759  ASP760  ASP761  ALA762  ILE779  LEU786  VAL792 
 PHE793  MET794  SER795  GLU796  ALA797  LYS798  CYS799  TRP800  GLU811  SER814 

> <Gold.Protein.RotatedAtoms>
  151.7756  133.3345  159.3456 H   0  0  0  0  0  0  0  0  0  0  0  0  # atno 6907 bound_to 6896
  150.7445  134.5978  159.6030 H   0  0  0  0  0  0  0  0  0  0  0  0  # atno 6908 bound_to 6896
  152.3311  134.7259  160.0340 H   0  0  0  0  0  0  0  0  0  0  0  0  # atno 6909 bound_to 6896
  145.1413  140.8779  143.3700 H   0  0  0  0  0  0  0  0  0  0  0  0  # atno 7974 bound_to 7965
  156.2798  140.2134  156.5668 H   0  0  0  0  0  0  0  0  0  0  0  0  # atno 8008 bound_to 7997
  154.7168  140.0507  157.0625 H   0  0  0  0  0  0  0  0  0  0  0  0  # atno 8009 bound_to 7997
  155.0531  140.3158  155.4688 H   0  0  0  0  0  0  0  0  0  0  0  0  # atno 8010 bound_to 7997
  139.8047  144.6799  150.9718 H   0  0  0  0  0  0  0  0  0  0  0  0  # atno 10167 bound_to 10162
  156.3486  130.7676  151.1825 H   0  0  0  0  0  0  0  0  0  0  0  0  # atno 10718 bound_to 10713
  153.6662  135.6974  153.5161 H   0  0  0  0  0  0  0  0  0  0  0  0  # atno 10763 bound_to 10752
  153.2593  135.4250  155.0877 H   0  0  0  0  0  0  0  0  0  0  0  0  # atno 10764 bound_to 10752
  154.8439  135.3551  154.6207 H   0  0  0  0  0  0  0  0  0  0  0  0  # atno 10765 bound_to 10752
  140.2334  134.3500  155.7954 H   0  0  0  0  0  0  0  0  0  0  0  0  # atno 11005 bound_to 11000
  145.0529  139.3167  143.5919 LP  0  0  0  0  0  0  0  0  0  0  0  0  # atno 17320 bound_to 7965
  146.3505  139.9943  142.8682 LP  0  0  0  0  0  0  0  0  0  0  0  0  # atno 17321 bound_to 7965
  140.7819  143.4245  151.0789 LP  0  0  0  0  0  0  0  0  0  0  0  0  # atno 17342 bound_to 10162
  139.7915  143.8211  152.3152 LP  0  0  0  0  0  0  0  0  0  0  0  0  # atno 17343 bound_to 10162
  157.7458  131.0434  150.4742 LP  0  0  0  0  0  0  0  0  0  0  0  0  # atno 17370 bound_to 10713
  156.4933  130.4100  149.6394 LP  0  0  0  0  0  0  0  0  0  0  0  0  # atno 17371 bound_to 10713
  141.2216  133.7258  156.8769 LP  0  0  0  0  0  0  0  0  0  0  0  0  # atno 17394 bound_to 11000
  140.1727  134.9089  157.2853 LP  0  0  0  0  0  0  0  0  0  0  0  0  # atno 17395 bound_to 11000

$$$$
