AV-unprocessed.smi:46|AV-procd|sdf|420|dock2
  -GOLD-   2262016293D 1   1.00000     0.00000
 Structure written by MMmdl.
 35 36  0  0  0  0  0  0  0  0  2 V2000
  153.9498  141.5452  160.3297 C   0  0  0  0  0  0  0  0  0  0  0  0
  153.0888  142.8160  160.2776 C   0  0  0  0  0  0  0  0  0  0  0  0
  152.6752  143.2919  161.6787 C   0  0  0  0  0  0  0  0  0  0  0  0
  151.9228  142.6125  159.4311 N   0  0  0  0  0  0  0  0  0  0  0  0
  151.4594  141.4426  158.8656 C   0  0  0  0  0  0  0  0  0  0  0  0
  150.3416  141.7444  158.1361 C   0  0  0  0  0  0  0  0  0  0  0  0
  149.4389  140.8441  157.3180 C   0  0  1  0  0  0  0  0  0  0  0  0
  148.1907  141.5594  156.7855 C   0  0  0  0  0  0  0  0  0  0  0  0
  148.5768  142.1650  155.4979 N   0  3  0  0  0  0  0  0  0  0  0  0
  149.7914  141.4802  155.0131 C   0  0  0  0  0  0  0  0  0  0  0  0
  150.0956  140.3536  156.0153 C   0  0  1  0  0  0  0  0  0  0  0  0
  151.5895  139.9829  156.1031 C   0  0  0  0  0  0  0  0  0  0  0  0
  152.0656  139.5985  154.8313 O   0  0  0  0  0  0  0  0  0  0  0  0
  150.2081  143.1508  158.3186 C   0  0  0  0  0  0  0  0  0  0  0  0
  151.1508  143.6651  159.0895 N   0  0  0  0  0  0  0  0  0  0  0  0
  149.1371  139.9880  157.9232 H   0  0  0  0  0  0  0  0  0  0  0  0
  149.5383  139.4715  155.6931 H   0  0  0  0  0  0  0  0  0  0  0  0
  154.8551  141.7099  160.9147 H   0  0  0  0  0  0  0  0  0  0  0  0
  154.2567  141.2387  159.3291 H   0  0  0  0  0  0  0  0  0  0  0  0
  153.4092  140.7132  160.7818 H   0  0  0  0  0  0  0  0  0  0  0  0
  153.6940  143.6062  159.8289 H   0  0  0  0  0  0  0  0  0  0  0  0
  153.5510  143.5001  162.2941 H   0  0  0  0  0  0  0  0  0  0  0  0
  152.0772  142.5425  162.1979 H   0  0  0  0  0  0  0  0  0  0  0  0
  152.0870  144.2086  161.6230 H   0  0  0  0  0  0  0  0  0  0  0  0
  151.9620  140.5011  159.0295 H   0  0  0  0  0  0  0  0  0  0  0  0
  147.4121  140.8246  156.5765 H   0  0  0  0  0  0  0  0  0  0  0  0
  147.7743  142.2885  157.4814 H   0  0  0  0  0  0  0  0  0  0  0  0
  147.8234  142.0723  154.8314 H   0  0  0  0  0  0  0  0  0  0  0  0
  149.6508  141.0987  154.0014 H   0  0  0  0  0  0  0  0  0  0  0  0
  150.6032  142.2078  154.9853 H   0  0  0  0  0  0  0  0  0  0  0  0
  152.1908  140.8157  156.4691 H   0  0  0  0  0  0  0  0  0  0  0  0
  151.7327  139.1498  156.7920 H   0  0  0  0  0  0  0  0  0  0  0  0
  152.7006  138.9069  154.9434 H   0  0  0  0  0  0  0  0  0  0  0  0
  149.4529  143.8100  157.9161 H   0  0  0  0  0  0  0  0  0  0  0  0
  148.7900  143.1425  155.6360 H   0  0  0  0  0  0  0  0  0  0  0  0
  1  2  1  0  0  0  0
  1 18  1  0  0  0  0
  1 19  1  0  0  0  0
  1 20  1  0  0  0  0
  2  3  1  0  0  0  0
  2  4  1  0  0  0  0
  2 21  1  0  0  0  0
  3 22  1  0  0  0  0
  3 23  1  0  0  0  0
  3 24  1  0  0  0  0
  4 15  1  0  0  0  0
  4  5  1  0  0  0  0
  5  6  2  0  0  0  0
  5 25  1  0  0  0  0
  6  7  1  0  0  0  0
  6 14  1  0  0  0  0
  7 16  1  0  0  0  0
  7 11  1  0  0  0  0
  7  8  1  0  0  0  0
  8  9  1  0  0  0  0
  8 26  1  0  0  0  0
  8 27  1  0  0  0  0
  9 10  1  0  0  0  0
  9 28  1  0  0  0  0
  9 35  1  0  0  0  0
 10 11  1  0  0  0  0
 10 29  1  0  0  0  0
 10 30  1  0  0  0  0
 11 17  1  0  0  0  0
 11 12  1  0  0  0  0
 12 13  1  0  0  0  0
 12 31  1  0  0  0  0
 12 32  1  0  0  0  0
 13 33  1  0  0  0  0
 14 15  2  0  0  0  0
 14 34  1  0  0  0  0
M  CHG  1   9   1
M  END
> <s_m_source_file>
AV-unprocessed.smi

> <i_m_source_file_index>
46

> <i_lp_mmshare_version>
43012

> <i_f3d_flags>
0

> <s_epik_input>
W0NIM11bQ0hdKFtDSDNdKW4xW2NIXWMoW2NIXW4xKVtDQEBIXTJbQ0gyXVtOSF1bQ0gyXVtDQEhdMltDSDJdW09IXQ==

> <s_epik_cmdline>
J2VwaWtfcHl0aG9uJywgJy1waCcsICc3LjAnLCAnLXRuJywgJzgnLCAnLW1hJywgJzIwMCcsICctbWV0YWxfYmluZGluZycsICctaW1hZScsICc8aW5maWxlLm1hZT4nLCAnLW9tYWUnLCAnPG91dGZpbGUubWFlPic=

> <r_lp_tautomer_probability>
1

> <r_epik_Ionization_Penalty>
0.000236226

> <r_epik_Ionization_Penalty_Charging>
0.00021985

> <r_epik_Ionization_Penalty_Neutral>
1.63752e-05

> <r_epik_State_Penalty>
-0

> <r_epik_Charging_Adjusted_Penalty>
0.00021985

> <i_epik_Tot_Q>
1

> <i_epik_Tot_abs_Q>
1

> <r_epik_Metal_State_Penalty>
-0

> <b_epik_Metal_Only>
0

> <s_lp_Force_Field>
OPLS_2005

> <r_lp_Energy>
33.3547

> <b_lp_Chiralities_Consistent>
1

> <s_lp_Variant>
AV-unprocessed.smi:46-2

> <Gold.Version>
5.8.1

> <Gold.Id.Protein>
6NUR|6NUR_protein|mol2

> <Gold.PLP.Fitness>
43.0758

> <Gold.PLP.PLP>
-31.6402

> <Gold.PLP.part.hbond>
-2.0000

> <Gold.PLP.part.metal>
0.0000

> <Gold.PLP.part.buried>
-4.6144

> <Gold.PLP.part.nonpolar>
-24.8846

> <Gold.PLP.part.repulsive>
0.2005

> <Gold.PLP.ligand.clash>
0.0000

> <Gold.PLP.ligand.torsion>
0.2792

> <Gold.PLP.Chemscore.Hbond>
2.8800

> <Gold.PLP.Chemscore.CHOScore>
1.0994

> <Gold.PLP.Chemscore.Metal>
0.0000

> <Gold.Chemscore.Hbonds>
donor molecule, donor type, donor heavy atom, donor atom, acceptor molecule, acceptor atom, score
      L1  H     9    35       P1  8028  2.00
      P1  H  7989  7998       L1    13  0.88
      L1  C    14    34       P1  8028  0.90
      L1  C    14    34       P1  8029  0.20

> <Gold.PLP.Chemscore.Internal.Correction>
0.0558

> <Gold.Rescore>
     Score         DG    S(hbond)    S(metal)    S(lipo)     H(rot)  DE(clash)    DE(int)     intcor
     15.85     -16.14       1.92        0.00      77.89       1.90       0.00       0.28       ----

> <Gold.Chemscore.Fitness>
15.8484

> <Gold.Chemscore.DG>
-16.1358

> <Gold.Chemscore.ZeroCoef>
-5.4800

> <Gold.Chemscore.Hbond>
1.9163

> <Gold.Chemscore.Metal>
0.0000

> <Gold.Chemscore.Lipo>
77.8917

> <Gold.Chemscore.Internal_Hbond>
0.0000

> <Gold.Chemscore.DEClash>
0.0047

> <Gold.Chemscore.DEInternal>
0.2828

> <Gold.Chemscore.Rot>
1.8976

> <Gold.Chemscore.Internal.Correction>
   9.000000E+99

> <Gold.Chemscore.Hbonds>
donor molecule, donor type, donor heavy atom, donor atom, acceptor molecule, acceptor atom, score
      L1  H     9    35       P1  8028  0.97
      P1  H  7989  7998       L1    13  0.74

> <Gold.Chemscore.Hbond.Weighted>
-6.4004

> <Gold.Chemscore.Metal.Weighted>
-0.0000

> <Gold.Chemscore.Lipo.Weighted>
-9.1133

> <Gold.Chemscore.Internal_Hbond.Weighted>
0.0000

> <Gold.Chemscore.DEClash.Weighted>
0.0047

> <Gold.Chemscore.DEInternal.Weighted>
0.2828

> <Gold.Chemscore.Rot.Weighted>
4.8579

> <Gold.Chemscore.Internal.Correction.Weighted>
   9.000000E+99

> <Gold.Protein.RotatedTorsions>
[ 6907 6896 6895 6894 ] final   73.04 input  -60.11 | X-H torsion
[ 7974 7965 7964 7962 ] final  -21.64 input  175.53 | X-H torsion
[ 8008 7997 7996 7995 ] final  141.52 input   59.86 | X-H torsion
[ 10167 10162 10161 10158 ] final -102.16 input  -65.29 | X-H torsion
[ 10718 10713 10712 10709 ] final   57.10 input   66.30 | X-H torsion
[ 10763 10752 10751 10750 ] final   93.01 input  -60.55 | X-H torsion
[ 11005 11000 10999 10996 ] final  -86.60 input  -57.11 | X-H torsion

> <Gold.Protein.ActiveResidues>
 VAL166  LYS551  ARG553  GLY616  TRP617  ASP618  TYR619  PRO620  LYS621  CYS622 
 ASP623  PHE694  ASN695  SER759  ASP760  ASP761  ALA762  ILE779  LEU786  VAL792 
 PHE793  MET794  SER795  GLU796  ALA797  LYS798  CYS799  TRP800  GLU811  SER814 

> <Gold.Protein.RotatedAtoms>
  152.4901  134.4481  159.9565 H   0  0  0  0  0  0  0  0  0  0  0  0  # atno 6907 bound_to 6896
  151.4470  133.3622  159.2797 H   0  0  0  0  0  0  0  0  0  0  0  0  # atno 6908 bound_to 6896
  150.9048  134.8486  159.7445 H   0  0  0  0  0  0  0  0  0  0  0  0  # atno 6909 bound_to 6896
  146.1722  140.4368  142.8528 H   0  0  0  0  0  0  0  0  0  0  0  0  # atno 7974 bound_to 7965
  156.2964  140.2313  156.4578 H   0  0  0  0  0  0  0  0  0  0  0  0  # atno 8008 bound_to 7997
  154.8045  140.0446  157.1318 H   0  0  0  0  0  0  0  0  0  0  0  0  # atno 8009 bound_to 7997
  154.9495  140.3040  155.5085 H   0  0  0  0  0  0  0  0  0  0  0  0  # atno 8010 bound_to 7997
  140.2336  143.3589  152.0865 H   0  0  0  0  0  0  0  0  0  0  0  0  # atno 10167 bound_to 10162
  157.5486  130.8749  149.8929 H   0  0  0  0  0  0  0  0  0  0  0  0  # atno 10718 bound_to 10713
  153.2255  135.4341  155.0537 H   0  0  0  0  0  0  0  0  0  0  0  0  # atno 10763 bound_to 10752
  154.8271  135.3367  154.6864 H   0  0  0  0  0  0  0  0  0  0  0  0  # atno 10764 bound_to 10752
  153.7294  135.7012  153.5049 H   0  0  0  0  0  0  0  0  0  0  0  0  # atno 10765 bound_to 10752
  141.1628  133.7464  156.9185 H   0  0  0  0  0  0  0  0  0  0  0  0  # atno 11005 bound_to 11000
  144.8180  140.6501  143.6372 LP  0  0  0  0  0  0  0  0  0  0  0  0  # atno 17320 bound_to 7965
  145.4310  139.1549  143.4022 LP  0  0  0  0  0  0  0  0  0  0  0  0  # atno 17321 bound_to 7965
  139.5101  144.6879  151.5838 LP  0  0  0  0  0  0  0  0  0  0  0  0  # atno 17342 bound_to 10162
  140.6167  143.9336  150.6494 LP  0  0  0  0  0  0  0  0  0  0  0  0  # atno 17343 bound_to 10162
  156.0557  130.3709  150.1097 LP  0  0  0  0  0  0  0  0  0  0  0  0  # atno 17370 bound_to 10713
  156.9271  130.9702  151.3539 LP  0  0  0  0  0  0  0  0  0  0  0  0  # atno 17371 bound_to 10713
  140.1468  134.9257  157.2540 LP  0  0  0  0  0  0  0  0  0  0  0  0  # atno 17394 bound_to 11000
  140.2771  134.3393  155.7355 LP  0  0  0  0  0  0  0  0  0  0  0  0  # atno 17395 bound_to 11000

$$$$
