AV-unprocessed.smi:1014|AV-procd|sdf|4431|dock3
  -GOLD-   22720 2383D 1   1.00000     0.00000
 Structure written by MMmdl.
 34 34  0  0  0  0  0  0  0  0  2 V2000
  146.2528  143.1228  154.0159 C   0  0  0  0  0  0  0  0  0  0  0  0
  146.5952  141.6884  154.4490 C   0  0  0  0  0  0  0  0  0  0  0  0
  147.9876  141.1922  154.0004 C   0  0  1  0  0  0  0  0  0  0  0  0
  149.0283  141.8716  154.8068 N   0  3  0  0  0  0  0  0  0  0  0  0
  149.3837  141.2011  156.0759 C   0  0  0  0  0  0  0  0  0  0  0  0
  150.9072  141.0677  156.2155 C   0  0  0  0  0  0  0  0  0  0  0  0
  151.4219  141.8522  157.3213 N   0  0  0  0  0  0  0  0  0  0  0  0
  151.4033  143.2210  157.4861 C   0  0  0  0  0  0  0  0  0  0  0  0
  151.9889  143.4982  158.6889 C   0  0  0  0  0  0  0  0  0  0  0  0
  152.2152  144.8342  159.3358 C   0  0  0  0  0  0  0  0  0  0  0  0
  152.3337  142.2120  159.1934 C   0  0  0  0  0  0  0  0  0  0  0  0
  151.9914  141.2303  158.3752 N   0  0  0  0  0  0  0  0  0  0  0  0
  148.1048  139.6640  154.1254 C   0  0  0  0  0  0  0  0  0  0  0  0
  148.4854  138.9878  153.0384 N   0  0  0  0  0  0  0  0  0  0  0  0
  147.8462  139.1014  155.1879 O   0  0  0  0  0  0  0  0  0  0  0  0
  145.2919  143.4296  154.4297 H   0  0  0  0  0  0  0  0  0  0  0  0
  146.1816  143.2129  152.9319 H   0  0  0  0  0  0  0  0  0  0  0  0
  147.0042  143.8313  154.3651 H   0  0  0  0  0  0  0  0  0  0  0  0
  146.5408  141.6457  155.5378 H   0  0  0  0  0  0  0  0  0  0  0  0
  145.8216  141.0097  154.0863 H   0  0  0  0  0  0  0  0  0  0  0  0
  148.1317  141.4801  152.9574 H   0  0  0  0  0  0  0  0  0  0  0  0
  149.8669  141.9275  154.2471 H   0  0  0  0  0  0  0  0  0  0  0  0
  148.9817  141.7716  156.9140 H   0  0  0  0  0  0  0  0  0  0  0  0
  148.9205  140.2139  156.1054 H   0  0  0  0  0  0  0  0  0  0  0  0
  151.1834  140.0241  156.3725 H   0  0  0  0  0  0  0  0  0  0  0  0
  151.4057  141.3943  155.3016 H   0  0  0  0  0  0  0  0  0  0  0  0
  150.9786  143.8794  156.7425 H   0  0  0  0  0  0  0  0  0  0  0  0
  152.8219  144.7506  160.2378 H   0  0  0  0  0  0  0  0  0  0  0  0
  151.2753  145.3053  159.6241 H   0  0  0  0  0  0  0  0  0  0  0  0
  152.7294  145.5239  158.6664 H   0  0  0  0  0  0  0  0  0  0  0  0
  152.8184  141.9642  160.1263 H   0  0  0  0  0  0  0  0  0  0  0  0
  148.5843  137.9834  153.0721 H   0  0  0  0  0  0  0  0  0  0  0  0
  148.6816  139.4872  152.1825 H   0  0  0  0  0  0  0  0  0  0  0  0
  148.7114  142.8097  155.0074 H   0  0  0  0  0  0  0  0  0  0  0  0
  1  2  1  0  0  0  0
  1 16  1  0  0  0  0
  1 17  1  0  0  0  0
  1 18  1  0  0  0  0
  2  3  1  0  0  0  0
  2 19  1  0  0  0  0
  2 20  1  0  0  0  0
  3  4  1  0  0  0  0
  3 13  1  0  0  0  0
  3 21  1  0  0  0  0
  4  5  1  0  0  0  0
  4 22  1  0  0  0  0
  4 34  1  0  0  0  0
  5  6  1  0  0  0  0
  5 23  1  0  0  0  0
  5 24  1  0  0  0  0
  6  7  1  0  0  0  0
  6 25  1  0  0  0  0
  6 26  1  0  0  0  0
  7 12  1  0  0  0  0
  7  8  1  0  0  0  0
  8  9  2  0  0  0  0
  8 27  1  0  0  0  0
  9 10  1  0  0  0  0
  9 11  1  0  0  0  0
 10 28  1  0  0  0  0
 10 29  1  0  0  0  0
 10 30  1  0  0  0  0
 11 12  2  0  0  0  0
 11 31  1  0  0  0  0
 13 14  1  0  0  0  0
 13 15  2  0  0  0  0
 14 32  1  0  0  0  0
 14 33  1  0  0  0  0
M  CHG  1   4   1
M  END
> <s_m_source_file>
AV-unprocessed.smi

> <i_m_source_file_index>
1014

> <i_lp_mmshare_version>
43012

> <i_f3d_flags>
0

> <s_epik_input>
W0NIM11bQ0gyXVtDQEBIXShDKD1PKVtOSDJdKVtOSF1bQ0gyXVtDSDJdbjFbY0hdYyhbQ0gzXSlbY0hdbjE=

> <s_epik_cmdline>
J2VwaWtfcHl0aG9uJywgJy1waCcsICc3LjAnLCAnLXRuJywgJzgnLCAnLW1hJywgJzIwMCcsICctbWV0YWxfYmluZGluZycsICctaW1hZScsICc8aW5maWxlLm1hZT4nLCAnLW9tYWUnLCAnPG91dGZpbGUubWFlPic=

> <r_lp_tautomer_probability>
1

> <r_epik_Ionization_Penalty>
0.19042

> <r_epik_Ionization_Penalty_Charging>
0.190412

> <r_epik_Ionization_Penalty_Neutral>
7.5834e-06

> <r_epik_State_Penalty>
0.180404

> <r_epik_Charging_Adjusted_Penalty>
0.370816

> <i_epik_Tot_Q>
1

> <i_epik_Tot_abs_Q>
1

> <r_epik_Metal_State_Penalty>
0.180563

> <b_epik_Metal_Only>
0

> <s_lp_Force_Field>
OPLS_2005

> <r_lp_Energy>
2.60817

> <b_lp_Chiralities_Consistent>
1

> <s_lp_Variant>
AV-unprocessed.smi:1014-2

> <Gold.Version>
5.8.1

> <Gold.Id.Protein>
6NUR|6NUR_protein|mol2

> <Gold.PLP.Fitness>
46.0584

> <Gold.PLP.PLP>
-34.9489

> <Gold.PLP.part.hbond>
-2.7804

> <Gold.PLP.part.metal>
0.0000

> <Gold.PLP.part.buried>
-6.1051

> <Gold.PLP.part.nonpolar>
-28.1214

> <Gold.PLP.part.repulsive>
0.3442

> <Gold.PLP.ligand.clash>
0.0103

> <Gold.PLP.ligand.torsion>
1.2443

> <Gold.PLP.Chemscore.Hbond>
3.5113

> <Gold.PLP.Chemscore.CHOScore>
1.0000

> <Gold.PLP.Chemscore.Metal>
0.0000

> <Gold.Chemscore.Hbonds>
donor molecule, donor type, donor heavy atom, donor atom, acceptor molecule, acceptor atom, score
      L1  H     4    34       P1  8028  2.00
      L1  H    14    32       P1  7948  0.61
      L1  H    14    33       P1  7957  0.86
      L1  C     8    27       P1  8028  1.00

> <Gold.PLP.Chemscore.Internal.Correction>
0.0746

> <Gold.Rescore>
     Score         DG    S(hbond)    S(metal)    S(lipo)     H(rot)  DE(clash)    DE(int)     intcor
     13.68     -16.32       2.40        0.00      80.66       2.59       0.05       2.59       ----

> <Gold.Chemscore.Fitness>
13.6844

> <Gold.Chemscore.DG>
-16.3242

> <Gold.Chemscore.ZeroCoef>
-5.4800

> <Gold.Chemscore.Hbond>
2.4047

> <Gold.Chemscore.Metal>
0.0000

> <Gold.Chemscore.Lipo>
80.6610

> <Gold.Chemscore.Internal_Hbond>
0.0000

> <Gold.Chemscore.DEClash>
0.0515

> <Gold.Chemscore.DEInternal>
2.5883

> <Gold.Chemscore.Rot>
2.5878

> <Gold.Chemscore.Internal.Correction>
   9.000000E+99

> <Gold.Chemscore.Hbonds>
donor molecule, donor type, donor heavy atom, donor atom, acceptor molecule, acceptor atom, score
      L1  H     4    34       P1  8028  0.94
      L1  H    14    32       P1  7948  0.62
      L1  H    14    33       P1  7957  0.81

> <Gold.Chemscore.Hbond.Weighted>
-8.0316

> <Gold.Chemscore.Metal.Weighted>
-0.0000

> <Gold.Chemscore.Lipo.Weighted>
-9.4373

> <Gold.Chemscore.Internal_Hbond.Weighted>
0.0000

> <Gold.Chemscore.DEClash.Weighted>
0.0515

> <Gold.Chemscore.DEInternal.Weighted>
2.5883

> <Gold.Chemscore.Rot.Weighted>
6.6247

> <Gold.Chemscore.Internal.Correction.Weighted>
   9.000000E+99

> <Gold.Protein.RotatedTorsions>
[ 6907 6896 6895 6894 ] final  -29.92 input  -60.11 | X-H torsion
[ 7974 7965 7964 7962 ] final  -79.31 input  175.53 | X-H torsion
[ 8008 7997 7996 7995 ] final  -75.43 input   59.86 | X-H torsion
[ 10167 10162 10161 10158 ] final  -27.33 input  -65.29 | X-H torsion
[ 10718 10713 10712 10709 ] final  173.06 input   66.30 | X-H torsion
[ 10763 10752 10751 10750 ] final    2.90 input  -60.55 | X-H torsion
[ 11005 11000 10999 10996 ] final  122.30 input  -57.11 | X-H torsion

> <Gold.Protein.ActiveResidues>
 VAL166  LYS551  ARG553  GLY616  TRP617  ASP618  TYR619  PRO620  LYS621  CYS622 
 ASP623  PHE694  ASN695  SER759  ASP760  ASP761  ALA762  ILE779  LEU786  VAL792 
 PHE793  MET794  SER795  GLU796  ALA797  LYS798  CYS799  TRP800  GLU811  SER814 

> <Gold.Protein.RotatedAtoms>
  151.1127  135.0035  159.8501 H   0  0  0  0  0  0  0  0  0  0  0  0  # atno 6907 bound_to 6896
  152.5444  134.1817  159.8648 H   0  0  0  0  0  0  0  0  0  0  0  0  # atno 6908 bound_to 6896
  151.1869  133.4646  159.2627 H   0  0  0  0  0  0  0  0  0  0  0  0  # atno 6909 bound_to 6896
  145.5749  140.9459  143.1375 H   0  0  0  0  0  0  0  0  0  0  0  0  # atno 7974 bound_to 7965
  154.5416  140.0744  156.8519 H   0  0  0  0  0  0  0  0  0  0  0  0  # atno 8008 bound_to 7997
  155.3170  140.3394  155.4224 H   0  0  0  0  0  0  0  0  0  0  0  0  # atno 8009 bound_to 7997
  156.1879  140.1675  156.8135 H   0  0  0  0  0  0  0  0  0  0  0  0  # atno 8010 bound_to 7997
  140.7278  143.4102  151.1117 H   0  0  0  0  0  0  0  0  0  0  0  0  # atno 10167 bound_to 10162
  156.9698  131.0086  151.2908 H   0  0  0  0  0  0  0  0  0  0  0  0  # atno 10718 bound_to 10713
  153.2899  135.6947  153.7303 H   0  0  0  0  0  0  0  0  0  0  0  0  # atno 10763 bound_to 10752
  153.6258  135.3419  155.3026 H   0  0  0  0  0  0  0  0  0  0  0  0  # atno 10764 bound_to 10752
  154.8521  135.4397  154.1978 H   0  0  0  0  0  0  0  0  0  0  0  0  # atno 10765 bound_to 10752
  139.9262  134.9641  156.8089 H   0  0  0  0  0  0  0  0  0  0  0  0  # atno 11005 bound_to 11000
  144.7420  139.7422  143.7307 LP  0  0  0  0  0  0  0  0  0  0  0  0  # atno 17320 bound_to 7965
  146.1758  139.4927  142.9898 LP  0  0  0  0  0  0  0  0  0  0  0  0  # atno 17321 bound_to 7965
  139.7735  143.8460  152.3125 LP  0  0  0  0  0  0  0  0  0  0  0  0  # atno 17342 bound_to 10162
  139.8386  144.7220  150.9359 LP  0  0  0  0  0  0  0  0  0  0  0  0  # atno 17343 bound_to 10162
  157.5600  130.8239  149.8253 LP  0  0  0  0  0  0  0  0  0  0  0  0  # atno 17370 bound_to 10713
  156.0287  130.3771  150.1748 LP  0  0  0  0  0  0  0  0  0  0  0  0  # atno 17371 bound_to 10713
  140.6329  133.9889  155.7670 LP  0  0  0  0  0  0  0  0  0  0  0  0  # atno 17394 bound_to 11000
  141.0822  134.0045  157.3369 LP  0  0  0  0  0  0  0  0  0  0  0  0  # atno 17395 bound_to 11000

$$$$
