AV-unprocessed.smi:1877|AV-procd|sdf|7624|dock2
  -GOLD-   22720 9353D 1   1.00000     0.00000
 Structure written by MMmdl.
 33 35  0  0  0  0  0  0  0  0  2 V2000
  150.0474  139.8947  157.7968 O   0  0  0  0  0  0  0  0  0  0  0  0
  150.5580  141.0631  157.1883 C   0  0  2  0  0  0  0  0  0  0  0  0
  151.2875  140.6465  155.8950 C   0  0  0  0  0  0  0  0  0  0  0  0
  150.4204  139.9034  154.9721 N   0  0  0  0  0  0  0  0  0  0  0  0
  150.5809  138.6684  154.4235 C   0  0  0  0  0  0  0  0  0  0  0  0
  149.5101  138.4359  153.6148 N   0  3  0  0  0  0  0  0  0  0  0  0
  148.6503  139.5361  153.6515 C   0  0  0  0  0  0  0  0  0  0  0  0
  147.4420  139.7720  153.0031 C   0  0  0  0  0  0  0  0  0  0  0  0
  146.8155  141.0091  153.2627 C   0  0  0  0  0  0  0  0  0  0  0  0
  147.3901  141.9551  154.1367 C   0  0  0  0  0  0  0  0  0  0  0  0
  148.6161  141.7056  154.7880 C   0  0  0  0  0  0  0  0  0  0  0  0
  149.2281  140.4811  154.5252 C   0  0  0  0  0  0  0  0  0  0  0  0
  151.4586  141.8603  158.1253 C   0  0  0  0  0  0  0  0  0  0  0  0
  151.2789  143.2541  158.2705 C   0  0  0  0  0  0  0  0  0  0  0  0
  152.0969  143.9904  159.1489 C   0  0  0  0  0  0  0  0  0  0  0  0
  151.9170  145.3256  159.2817 F   0  0  0  0  0  0  0  0  0  0  0  0
  153.0991  143.3381  159.8913 C   0  0  0  0  0  0  0  0  0  0  0  0
  153.2809  141.9487  159.7561 C   0  0  0  0  0  0  0  0  0  0  0  0
  152.4636  141.2100  158.8782 C   0  0  0  0  0  0  0  0  0  0  0  0
  152.6437  139.8714  158.7722 F   0  0  0  0  0  0  0  0  0  0  0  0
  149.2988  140.1320  158.3230 H   0  0  0  0  0  0  0  0  0  0  0  0
  149.6891  141.6692  156.9320 H   0  0  0  0  0  0  0  0  0  0  0  0
  151.6613  141.5239  155.3650 H   0  0  0  0  0  0  0  0  0  0  0  0
  152.1560  140.0249  156.1179 H   0  0  0  0  0  0  0  0  0  0  0  0
  151.4127  137.9993  154.5910 H   0  0  0  0  0  0  0  0  0  0  0  0
  146.9993  139.0495  152.3331 H   0  0  0  0  0  0  0  0  0  0  0  0
  145.8751  141.2366  152.7821 H   0  0  0  0  0  0  0  0  0  0  0  0
  146.8806  142.8916  154.3112 H   0  0  0  0  0  0  0  0  0  0  0  0
  149.0496  142.4361  155.4549 H   0  0  0  0  0  0  0  0  0  0  0  0
  150.5085  143.7643  157.7112 H   0  0  0  0  0  0  0  0  0  0  0  0
  153.7259  143.9024  160.5660 H   0  0  0  0  0  0  0  0  0  0  0  0
  154.0474  141.4482  160.3292 H   0  0  0  0  0  0  0  0  0  0  0  0
  149.3786  137.5882  153.0778 H   0  0  0  0  0  0  0  0  0  0  0  0
  1  2  1  0  0  0  0
  1 21  1  0  0  0  0
  2  3  1  0  0  0  0
  2 13  1  0  0  0  0
  2 22  1  0  0  0  0
  3  4  1  0  0  0  0
  3 23  1  0  0  0  0
  3 24  1  0  0  0  0
  4 12  1  0  0  0  0
  4  5  1  0  0  0  0
  5  6  2  0  0  0  0
  5 25  1  0  0  0  0
  6  7  1  0  0  0  0
  6 33  1  0  0  0  0
  7 12  2  0  0  0  0
  7  8  1  0  0  0  0
  8  9  2  0  0  0  0
  8 26  1  0  0  0  0
  9 10  1  0  0  0  0
  9 27  1  0  0  0  0
 10 11  2  0  0  0  0
 10 28  1  0  0  0  0
 11 12  1  0  0  0  0
 11 29  1  0  0  0  0
 13 19  1  0  0  0  0
 13 14  2  0  0  0  0
 14 15  1  0  0  0  0
 14 30  1  0  0  0  0
 15 16  1  0  0  0  0
 15 17  2  0  0  0  0
 17 18  1  0  0  0  0
 17 31  1  0  0  0  0
 18 19  2  0  0  0  0
 18 32  1  0  0  0  0
 19 20  1  0  0  0  0
M  CHG  1   6   1
M  END
> <s_m_source_file>
AV-unprocessed.smi

> <i_m_source_file_index>
1877

> <i_lp_mmshare_version>
43012

> <i_f3d_flags>
0

> <s_epik_input>
RmMxW2NIXVtjSF1jKEYpW2NIXWMxW0NASF0oW09IXSlbQ0gyXW4oW2NIXW4yKWMoYzIzKVtjSF1bY0hdW2NIXVtjSF0z

> <s_epik_cmdline>
J2VwaWtfcHl0aG9uJywgJy1waCcsICc3LjAnLCAnLXRuJywgJzgnLCAnLW1hJywgJzIwMCcsICctbWV0YWxfYmluZGluZycsICctaW1hZScsICc8aW5maWxlLm1hZT4nLCAnLW9tYWUnLCAnPG91dGZpbGUubWFlPic=

> <r_epik_Ionization_Penalty>
1.3029

> <r_epik_Ionization_Penalty_Charging>
1.3029

> <r_epik_Ionization_Penalty_Neutral>
3.53208e-06

> <r_epik_State_Penalty>
1.377

> <r_epik_Charging_Adjusted_Penalty>
2.6799

> <i_epik_Tot_Q>
1

> <i_epik_Tot_abs_Q>
1

> <r_epik_Metal_State_Penalty>
5.40879

> <b_epik_Metal_Only>
0

> <s_lp_Force_Field>
OPLS_2005

> <r_lp_Energy>
17.5281

> <b_lp_Chiralities_Consistent>
1

> <s_lp_Variant>
AV-unprocessed.smi:1877-3

> <Gold.Version>
5.8.1

> <Gold.Id.Protein>
6NUR|6NUR_protein|mol2

> <Gold.PLP.Fitness>
54.6324

> <Gold.PLP.PLP>
-49.2891

> <Gold.PLP.part.hbond>
-2.0000

> <Gold.PLP.part.metal>
0.0000

> <Gold.PLP.part.buried>
1.8587

> <Gold.PLP.part.nonpolar>
-48.9861

> <Gold.PLP.part.repulsive>
0.0670

> <Gold.PLP.ligand.clash>
0.0000

> <Gold.PLP.ligand.torsion>
0.3349

> <Gold.PLP.Chemscore.Hbond>
2.0000

> <Gold.PLP.Chemscore.CHOScore>
0.0000

> <Gold.PLP.Chemscore.Metal>
0.0000

> <Gold.Chemscore.Hbonds>
donor molecule, donor type, donor heavy atom, donor atom, acceptor molecule, acceptor atom, score
      L1  H     6    33       P1  7948  2.00

> <Gold.PLP.Chemscore.Internal.Correction>
0.0132

> <Gold.Rescore>
     Score         DG    S(hbond)    S(metal)    S(lipo)     H(rot)  DE(clash)    DE(int)     intcor
     15.25     -16.88       0.98        0.00     114.47       2.06       0.12       1.52       ----

> <Gold.Chemscore.Fitness>
15.2480

> <Gold.Chemscore.DG>
-16.8842

> <Gold.Chemscore.ZeroCoef>
-5.4800

> <Gold.Chemscore.Hbond>
0.9833

> <Gold.Chemscore.Metal>
0.0000

> <Gold.Chemscore.Lipo>
114.4668

> <Gold.Chemscore.Internal_Hbond>
0.0000

> <Gold.Chemscore.DEClash>
0.1178

> <Gold.Chemscore.DEInternal>
1.5185

> <Gold.Chemscore.Rot>
2.0597

> <Gold.Chemscore.Internal.Correction>
   9.000000E+99

> <Gold.Chemscore.Hbonds>
donor molecule, donor type, donor heavy atom, donor atom, acceptor molecule, acceptor atom, score
      L1  H     6    33       P1  7948  0.94

> <Gold.Chemscore.Hbond.Weighted>
-3.2844

> <Gold.Chemscore.Metal.Weighted>
-0.0000

> <Gold.Chemscore.Lipo.Weighted>
-13.3926

> <Gold.Chemscore.Internal_Hbond.Weighted>
0.0000

> <Gold.Chemscore.DEClash.Weighted>
0.1178

> <Gold.Chemscore.DEInternal.Weighted>
1.5185

> <Gold.Chemscore.Rot.Weighted>
5.2728

> <Gold.Chemscore.Internal.Correction.Weighted>
   9.000000E+99

> <Gold.Protein.RotatedTorsions>
[ 6907 6896 6895 6894 ] final   67.67 input  -60.11 | X-H torsion
[ 7974 7965 7964 7962 ] final   62.13 input  175.53 | X-H torsion
[ 8008 7997 7996 7995 ] final   59.40 input   59.86 | X-H torsion
[ 10167 10162 10161 10158 ] final   57.46 input  -65.29 | X-H torsion
[ 10718 10713 10712 10709 ] final -110.90 input   66.30 | X-H torsion
[ 10763 10752 10751 10750 ] final  173.10 input  -60.55 | X-H torsion
[ 11005 11000 10999 10996 ] final  -92.32 input  -57.11 | X-H torsion

> <Gold.Protein.ActiveResidues>
 VAL166  LYS551  ARG553  GLY616  TRP617  ASP618  TYR619  PRO620  LYS621  CYS622 
 ASP623  PHE694  ASN695  SER759  ASP760  ASP761  ALA762  ILE779  LEU786  VAL792 
 PHE793  MET794  SER795  GLU796  ALA797  LYS798  CYS799  TRP800  GLU811  SER814 

> <Gold.Protein.RotatedAtoms>
  152.4568  134.5274  159.9800 H   0  0  0  0  0  0  0  0  0  0  0  0  # atno 6907 bound_to 6896
  151.5332  133.3439  159.2930 H   0  0  0  0  0  0  0  0  0  0  0  0  # atno 6908 bound_to 6896
  150.8515  134.7872  159.7075 H   0  0  0  0  0  0  0  0  0  0  0  0  # atno 6909 bound_to 6896
  145.8768  139.3416  143.0729 H   0  0  0  0  0  0  0  0  0  0  0  0  # atno 7974 bound_to 7965
  155.5657  140.3489  155.4502 H   0  0  0  0  0  0  0  0  0  0  0  0  # atno 8008 bound_to 7997
  156.0482  140.1311  157.0106 H   0  0  0  0  0  0  0  0  0  0  0  0  # atno 8009 bound_to 7997
  154.4422  140.1010  156.6322 H   0  0  0  0  0  0  0  0  0  0  0  0  # atno 8010 bound_to 7997
  140.1978  144.4019  150.6542 H   0  0  0  0  0  0  0  0  0  0  0  0  # atno 10167 bound_to 10162
  156.0617  130.5839  150.8301 H   0  0  0  0  0  0  0  0  0  0  0  0  # atno 10718 bound_to 10713
  154.4353  135.2761  155.1885 H   0  0  0  0  0  0  0  0  0  0  0  0  # atno 10763 bound_to 10752
  154.3773  135.6095  153.5776 H   0  0  0  0  0  0  0  0  0  0  0  0  # atno 10764 bound_to 10752
  152.9838  135.5872  154.4671 H   0  0  0  0  0  0  0  0  0  0  0  0  # atno 10765 bound_to 10752
  141.1524  133.7813  157.0003 H   0  0  0  0  0  0  0  0  0  0  0  0  # atno 11005 bound_to 11000
  145.9071  140.9205  143.0473 LP  0  0  0  0  0  0  0  0  0  0  0  0  # atno 17320 bound_to 7965
  144.6726  140.1110  143.7455 LP  0  0  0  0  0  0  0  0  0  0  0  0  # atno 17321 bound_to 7965
  140.6411  143.2204  151.6287 LP  0  0  0  0  0  0  0  0  0  0  0  0  # atno 17342 bound_to 10162
  139.5229  144.3148  152.0962 LP  0  0  0  0  0  0  0  0  0  0  0  0  # atno 17343 bound_to 10162
  157.5630  131.0946  150.9531 LP  0  0  0  0  0  0  0  0  0  0  0  0  # atno 17370 bound_to 10713
  156.9765  130.5510  149.5293 LP  0  0  0  0  0  0  0  0  0  0  0  0  # atno 17371 bound_to 10713
  140.0944  134.9573  157.1827 LP  0  0  0  0  0  0  0  0  0  0  0  0  # atno 17394 bound_to 11000
  140.3402  134.2712  155.7213 LP  0  0  0  0  0  0  0  0  0  0  0  0  # atno 17395 bound_to 11000

$$$$
