AV-unprocessed.smi:1848|AV-procd|sdf|7519|dock8
  -GOLD-   22720 9223D 1   1.00000     0.00000
 Structure written by MMmdl.
 31 31  0  0  0  0  0  0  0  0  1 V2000
  145.6718  143.8509  153.3227 C   0  0  0  0  0  0  0  0  0  0  0  0
  146.1488  143.0494  154.1109 C   0  0  0  0  0  0  0  0  0  0  0  0
  146.7285  142.0956  155.0719 C   0  0  0  0  0  0  0  0  0  0  0  0
  148.1447  142.3386  155.3228 N   0  0  0  0  0  0  0  0  0  0  0  0
  149.1189  141.4196  155.2324 C   0  0  0  0  0  0  0  0  0  0  0  0
  148.9105  140.2432  154.9325 O   0  0  0  0  0  0  0  0  0  0  0  0
  150.5375  141.9110  155.5544 C   0  0  0  0  0  0  0  0  0  0  0  0
  151.3155  140.9550  156.3608 N   0  0  0  0  0  0  0  0  0  0  0  0
  151.7222  141.3795  157.6417 C   0  0  0  0  0  0  0  0  0  0  0  0
  152.4348  140.5856  158.4715 C   0  0  0  0  0  0  0  0  0  0  0  0
  152.8657  140.9929  159.8121 C   0  0  0  0  0  0  0  0  0  0  0  0
  153.7151  140.3970  160.4760 O   0  0  0  0  0  0  0  0  0  0  0  0
  152.2510  142.0928  160.2806 N   0  0  0  0  0  0  0  0  0  0  0  0
  152.5057  142.6884  161.5836 C   0  0  0  0  0  0  0  0  0  0  0  0
  152.7763  139.2603  157.9914 C   0  0  0  0  0  0  0  0  0  0  0  0
  152.3854  138.8465  156.7702 C   0  0  0  0  0  0  0  0  0  0  0  0
  151.6068  139.7092  155.8777 C   0  0  0  0  0  0  0  0  0  0  0  0
  151.2391  139.3349  154.7638 O   0  0  0  0  0  0  0  0  0  0  0  0
  145.2528  144.5530  152.6375 H   0  0  0  0  0  0  0  0  0  0  0  0
  146.1494  142.1338  155.9959 H   0  0  0  0  0  0  0  0  0  0  0  0
  146.6106  141.0926  154.6617 H   0  0  0  0  0  0  0  0  0  0  0  0
  148.4042  143.2792  155.5826 H   0  0  0  0  0  0  0  0  0  0  0  0
  151.0629  142.1354  154.6241 H   0  0  0  0  0  0  0  0  0  0  0  0
  150.4558  142.8686  156.0704 H   0  0  0  0  0  0  0  0  0  0  0  0
  151.4020  142.3817  157.8884 H   0  0  0  0  0  0  0  0  0  0  0  0
  151.5608  142.5406  159.6954 H   0  0  0  0  0  0  0  0  0  0  0  0
  151.8742  143.5661  161.7206 H   0  0  0  0  0  0  0  0  0  0  0  0
  153.5472  143.0000  161.6713 H   0  0  0  0  0  0  0  0  0  0  0  0
  152.2841  141.9811  162.3838 H   0  0  0  0  0  0  0  0  0  0  0  0
  153.3489  138.5848  158.6109 H   0  0  0  0  0  0  0  0  0  0  0  0
  152.6518  137.8536  156.4390 H   0  0  0  0  0  0  0  0  0  0  0  0
  1  2  3  0  0  0  0
  1 19  1  0  0  0  0
  2  3  1  0  0  0  0
  3  4  1  0  0  0  0
  3 20  1  0  0  0  0
  3 21  1  0  0  0  0
  4  5  1  0  0  0  0
  4 22  1  0  0  0  0
  5  6  2  0  0  0  0
  5  7  1  0  0  0  0
  7  8  1  0  0  0  0
  7 23  1  0  0  0  0
  7 24  1  0  0  0  0
  8 17  1  0  0  0  0
  8  9  1  0  0  0  0
  9 10  2  0  0  0  0
  9 25  1  0  0  0  0
 10 11  1  0  0  0  0
 10 15  1  0  0  0  0
 11 12  2  0  0  0  0
 11 13  1  0  0  0  0
 13 14  1  0  0  0  0
 13 26  1  0  0  0  0
 14 27  1  0  0  0  0
 14 28  1  0  0  0  0
 14 29  1  0  0  0  0
 15 16  2  0  0  0  0
 15 30  1  0  0  0  0
 16 17  1  0  0  0  0
 16 31  1  0  0  0  0
 17 18  2  0  0  0  0
M  END
> <s_m_source_file>
AV-unprocessed.smi

> <i_m_source_file_index>
1848

> <i_lp_mmshare_version>
43012

> <i_f3d_flags>
0

> <s_epik_input>
W0NIXSNDW0NIMl1bTkhdQyg9TylbQ0gyXW4xW2NIXWMoQyg9TylbTkhdW0NIM10pW2NIXVtjSF1jMT1P

> <s_epik_cmdline>
J2VwaWtfcHl0aG9uJywgJy1waCcsICc3LjAnLCAnLXRuJywgJzgnLCAnLW1hJywgJzIwMCcsICctbWV0YWxfYmluZGluZycsICctaW1hZScsICc8aW5maWxlLm1hZT4nLCAnLW9tYWUnLCAnPG91dGZpbGUubWFlPic=

> <r_lp_tautomer_probability>
1

> <r_epik_Ionization_Penalty>
5.04952e-07

> <r_epik_Ionization_Penalty_Charging>
3.86163e-08

> <r_epik_Ionization_Penalty_Neutral>
4.66336e-07

> <r_epik_State_Penalty>
-0

> <r_epik_Charging_Adjusted_Penalty>
3.86163e-08

> <i_epik_Tot_Q>
0

> <i_epik_Tot_abs_Q>
0

> <r_epik_Metal_State_Penalty>
-0

> <b_epik_Metal_Only>
0

> <s_lp_Force_Field>
OPLS_2005

> <r_lp_Energy>
14.316

> <b_lp_Chiralities_Consistent>
1

> <s_lp_Variant>
AV-unprocessed.smi:1848-1

> <Gold.Version>
5.8.1

> <Gold.Id.Protein>
6NUR|6NUR_protein|mol2

> <Gold.PLP.Fitness>
39.9364

> <Gold.PLP.PLP>
-34.6966

> <Gold.PLP.part.hbond>
-2.0000

> <Gold.PLP.part.metal>
0.0000

> <Gold.PLP.part.buried>
-5.2123

> <Gold.PLP.part.nonpolar>
-27.2324

> <Gold.PLP.part.repulsive>
0.3823

> <Gold.PLP.ligand.clash>
0.0000

> <Gold.PLP.ligand.torsion>
0.3928

> <Gold.PLP.Chemscore.Hbond>
2.0000

> <Gold.PLP.Chemscore.CHOScore>
0.0000

> <Gold.PLP.Chemscore.Metal>
0.0000

> <Gold.Chemscore.Hbonds>
donor molecule, donor type, donor heavy atom, donor atom, acceptor molecule, acceptor atom, score
      L1  H     4    22       P1  8028  0.94
      P1  H  7989  7998       L1    18  1.00

> <Gold.PLP.Chemscore.Internal.Correction>
0.0255

> <Gold.Rescore>
     Score         DG    S(hbond)    S(metal)    S(lipo)     H(rot)  DE(clash)    DE(int)     intcor
     11.44     -14.73       1.84        0.00      62.04       1.62       0.26       3.03       ----

> <Gold.Chemscore.Fitness>
11.4356

> <Gold.Chemscore.DG>
-14.7286

> <Gold.Chemscore.ZeroCoef>
-5.4800

> <Gold.Chemscore.Hbond>
1.8400

> <Gold.Chemscore.Metal>
0.0000

> <Gold.Chemscore.Lipo>
62.0390

> <Gold.Chemscore.Internal_Hbond>
0.0000

> <Gold.Chemscore.DEClash>
0.2645

> <Gold.Chemscore.DEInternal>
3.0286

> <Gold.Chemscore.Rot>
1.6233

> <Gold.Chemscore.Internal.Correction>
   9.000000E+99

> <Gold.Chemscore.Hbonds>
donor molecule, donor type, donor heavy atom, donor atom, acceptor molecule, acceptor atom, score
      L1  H     4    22       P1  8028  0.88
      P1  H  7989  7998       L1    18  0.52

> <Gold.Chemscore.Hbond.Weighted>
-6.1457

> <Gold.Chemscore.Metal.Weighted>
-0.0000

> <Gold.Chemscore.Lipo.Weighted>
-7.2586

> <Gold.Chemscore.Internal_Hbond.Weighted>
0.0000

> <Gold.Chemscore.DEClash.Weighted>
0.2645

> <Gold.Chemscore.DEInternal.Weighted>
3.0286

> <Gold.Chemscore.Rot.Weighted>
4.1557

> <Gold.Chemscore.Internal.Correction.Weighted>
   9.000000E+99

> <Gold.Protein.RotatedTorsions>
[ 6907 6896 6895 6894 ] final  103.50 input  -60.11 | X-H torsion
[ 7974 7965 7964 7962 ] final  112.27 input  175.53 | X-H torsion
[ 8008 7997 7996 7995 ] final   40.14 input   59.86 | X-H torsion
[ 10167 10162 10161 10158 ] final  175.26 input  -65.29 | X-H torsion
[ 10718 10713 10712 10709 ] final  -85.07 input   66.30 | X-H torsion
[ 10763 10752 10751 10750 ] final   97.56 input  -60.55 | X-H torsion
[ 11005 11000 10999 10996 ] final  152.65 input  -57.11 | X-H torsion

> <Gold.Protein.ActiveResidues>
 VAL166  LYS551  ARG553  GLY616  TRP617  ASP618  TYR619  PRO620  LYS621  CYS622 
 ASP623  PHE694  ASN695  SER759  ASP760  ASP761  ALA762  ILE779  LEU786  VAL792 
 PHE793  MET794  SER795  GLU796  ALA797  LYS798  CYS799  TRP800  GLU811  SER814 

> <Gold.Protein.RotatedAtoms>
  152.5293  133.9817  159.7809 H   0  0  0  0  0  0  0  0  0  0  0  0  # atno 6907 bound_to 6896
  151.0069  133.5994  159.2694 H   0  0  0  0  0  0  0  0  0  0  0  0  # atno 6908 bound_to 6896
  151.3082  135.0794  159.9316 H   0  0  0  0  0  0  0  0  0  0  0  0  # atno 6909 bound_to 6896
  145.2317  139.2817  143.4165 H   0  0  0  0  0  0  0  0  0  0  0  0  # atno 7974 bound_to 7965
  155.2483  140.3350  155.4285 H   0  0  0  0  0  0  0  0  0  0  0  0  # atno 8008 bound_to 7997
  156.2227  140.1816  156.7483 H   0  0  0  0  0  0  0  0  0  0  0  0  # atno 8009 bound_to 7997
  154.5850  140.0647  156.9143 H   0  0  0  0  0  0  0  0  0  0  0  0  # atno 8010 bound_to 7997
  139.5171  144.3052  152.0342 H   0  0  0  0  0  0  0  0  0  0  0  0  # atno 10167 bound_to 10162
  156.0000  130.4719  150.4506 H   0  0  0  0  0  0  0  0  0  0  0  0  # atno 10718 bound_to 10713
  153.2784  135.4179  155.1055 H   0  0  0  0  0  0  0  0  0  0  0  0  # atno 10763 bound_to 10752
  154.8480  135.3489  154.6147 H   0  0  0  0  0  0  0  0  0  0  0  0  # atno 10764 bound_to 10752
  153.6567  135.7050  153.5248 H   0  0  0  0  0  0  0  0  0  0  0  0  # atno 10765 bound_to 10752
  140.1327  134.8791  157.2225 H   0  0  0  0  0  0  0  0  0  0  0  0  # atno 11005 bound_to 11000
  146.3351  140.2653  142.8603 LP  0  0  0  0  0  0  0  0  0  0  0  0  # atno 17320 bound_to 7965
  144.9671  140.8332  143.5478 LP  0  0  0  0  0  0  0  0  0  0  0  0  # atno 17321 bound_to 7965
  140.2498  144.4181  150.6226 LP  0  0  0  0  0  0  0  0  0  0  0  0  # atno 17342 bound_to 10162
  140.6233  143.2178  151.6650 LP  0  0  0  0  0  0  0  0  0  0  0  0  # atno 17343 bound_to 10162
  157.2539  131.0552  151.2362 LP  0  0  0  0  0  0  0  0  0  0  0  0  # atno 17370 bound_to 10713
  157.3501  130.7078  149.6435 LP  0  0  0  0  0  0  0  0  0  0  0  0  # atno 17371 bound_to 10713
  140.2822  134.3337  155.7340 LP  0  0  0  0  0  0  0  0  0  0  0  0  # atno 17394 bound_to 11000
  141.2173  133.7485  156.9380 LP  0  0  0  0  0  0  0  0  0  0  0  0  # atno 17395 bound_to 11000

$$$$
