AV-unprocessed.smi:64|AV-procd|sdf|610|dock10
  -GOLD-   2262016503D 1   1.00000     0.00000
 Structure written by MMmdl.
 31 32  0  0  0  0  0  0  0  0  2 V2000
  154.3101  141.3725  161.4134 C   0  0  0  0  0  0  0  0  0  0  0  0
  153.3598  142.5602  161.3253 C   0  0  0  0  0  0  0  0  0  0  0  0
  153.0823  143.2332  162.3181 O   0  0  0  0  0  0  0  0  0  0  0  0
  152.8919  142.7574  160.0826 O   0  0  0  0  0  0  0  0  0  0  0  0
  152.5559  144.0698  159.6612 C   0  0  0  0  0  0  0  0  0  0  0  0
  152.4277  144.1042  158.1354 C   0  0  0  0  0  0  0  0  0  0  0  0
  151.0702  143.9005  157.7799 O   0  0  0  0  0  0  0  0  0  0  0  0
  150.5847  142.6681  158.1954 C   0  0  0  0  0  0  0  0  0  0  0  0
  150.9036  141.6977  157.1676 N   0  0  0  0  0  0  0  0  0  0  0  0
  150.4038  141.6422  155.9179 C   0  0  0  0  0  0  0  0  0  0  0  0
  150.8604  140.6424  155.1646 N   0  0  0  0  0  0  0  0  0  0  0  0
  151.7408  140.0042  156.0315 C   0  0  0  0  0  0  0  0  0  0  0  0
  152.6030  138.8095  155.8600 C   0  0  0  0  0  0  0  0  0  0  0  0
  152.5959  138.2154  154.7834 O   0  0  0  0  0  0  0  0  0  0  0  0
  153.3526  138.4641  156.9512 N   0  5  0  0  0  0  0  0  0  0  0  0
  153.2800  139.2188  158.1307 C   0  0  0  0  0  0  0  0  0  0  0  0
  154.1012  138.7341  159.1253 N   0  0  0  0  0  0  0  0  0  0  0  0
  152.5429  140.2796  158.3527 N   0  0  0  0  0  0  0  0  0  0  0  0
  151.7847  140.6264  157.2498 C   0  0  0  0  0  0  0  0  0  0  0  0
  154.4116  140.8804  160.4456 H   0  0  0  0  0  0  0  0  0  0  0  0
  153.9347  140.6440  162.1320 H   0  0  0  0  0  0  0  0  0  0  0  0
  155.2967  141.7023  161.7390 H   0  0  0  0  0  0  0  0  0  0  0  0
  151.6281  144.4009  160.1297 H   0  0  0  0  0  0  0  0  0  0  0  0
  153.3453  144.7533  159.9770 H   0  0  0  0  0  0  0  0  0  0  0  0
  152.7517  145.0797  157.7703 H   0  0  0  0  0  0  0  0  0  0  0  0
  153.0721  143.3520  157.6774 H   0  0  0  0  0  0  0  0  0  0  0  0
  151.0541  142.3586  159.1307 H   0  0  0  0  0  0  0  0  0  0  0  0
  149.5018  142.7019  158.3243 H   0  0  0  0  0  0  0  0  0  0  0  0
  149.6824  142.3566  155.5495 H   0  0  0  0  0  0  0  0  0  0  0  0
  154.6912  137.9228  159.0156 H   0  0  0  0  0  0  0  0  0  0  0  0
  154.1673  139.1571  160.0394 H   0  0  0  0  0  0  0  0  0  0  0  0
  1  2  1  0  0  0  0
  1 20  1  0  0  0  0
  1 21  1  0  0  0  0
  1 22  1  0  0  0  0
  2  3  2  0  0  0  0
  2  4  1  0  0  0  0
  4  5  1  0  0  0  0
  5  6  1  0  0  0  0
  5 23  1  0  0  0  0
  5 24  1  0  0  0  0
  6  7  1  0  0  0  0
  6 25  1  0  0  0  0
  6 26  1  0  0  0  0
  7  8  1  0  0  0  0
  8  9  1  0  0  0  0
  8 27  1  0  0  0  0
  8 28  1  0  0  0  0
  9 19  1  0  0  0  0
  9 10  1  0  0  0  0
 10 11  2  0  0  0  0
 10 29  1  0  0  0  0
 11 12  1  0  0  0  0
 12 19  2  0  0  0  0
 12 13  1  0  0  0  0
 13 14  2  0  0  0  0
 13 15  1  0  0  0  0
 15 16  1  0  0  0  0
 16 17  1  0  0  0  0
 16 18  2  0  0  0  0
 17 30  1  0  0  0  0
 17 31  1  0  0  0  0
 18 19  1  0  0  0  0
M  CHG  1  15  -1
M  END
> <s_m_source_file>
AV-unprocessed.smi

> <i_m_source_file_index>
64

> <i_lp_mmshare_version>
43012

> <i_f3d_flags>
0

> <s_epik_input>
W0NIM11DKD1PKU9bQ0gyXVtDSDJdT1tDSDJdbihbY0hdbjEpYyhjMTIpbmMoW05IMl0pW25IXWMyPU8=

> <s_epik_cmdline>
J2VwaWtfcHl0aG9uJywgJy1waCcsICc3LjAnLCAnLXRuJywgJzgnLCAnLW1hJywgJzIwMCcsICctbWV0YWxfYmluZGluZycsICctaW1hZScsICc8aW5maWxlLm1hZT4nLCAnLW9tYWUnLCAnPG91dGZpbGUubWFlPic=

> <r_lp_tautomer_probability>
1

> <r_epik_Ionization_Penalty>
3.5586

> <r_epik_Ionization_Penalty_Charging>
1.23364e-10

> <r_epik_Ionization_Penalty_Neutral>
3.5586

> <r_epik_State_Penalty>
3.54828

> <r_epik_Charging_Adjusted_Penalty>
3.54828

> <i_epik_Tot_Q>
-1

> <i_epik_Tot_abs_Q>
1

> <r_epik_Metal_State_Penalty>
0.517613

> <b_epik_Metal_Only>
1

> <s_epik_Chemistry_Notes>
This compound has an ester and may undergo hydrolysis at high or low pH. This compound contains an acetal/aminal-like group ( X-CH(R)-Y where X, Y are N, S, or O) that may be acid/base labile, releasing an aldehyde.

> <s_lp_Force_Field>
OPLS_2005

> <r_lp_Energy>
20.1337

> <b_lp_Chiralities_Consistent>
1

> <s_lp_Variant>
AV-unprocessed.smi:64-2

> <Gold.Version>
5.8.1

> <Gold.Id.Protein>
6NUR|6NUR_protein|mol2

> <Gold.PLP.Fitness>
40.0453

> <Gold.PLP.PLP>
-35.9387

> <Gold.PLP.part.hbond>
-2.2022

> <Gold.PLP.part.metal>
0.0000

> <Gold.PLP.part.buried>
-6.0393

> <Gold.PLP.part.nonpolar>
-28.2868

> <Gold.PLP.part.repulsive>
0.4622

> <Gold.PLP.ligand.clash>
0.0000

> <Gold.PLP.ligand.torsion>
0.8609

> <Gold.PLP.Chemscore.Hbond>
0.9280

> <Gold.PLP.Chemscore.CHOScore>
1.0000

> <Gold.PLP.Chemscore.Metal>
0.0000

> <Gold.Chemscore.Hbonds>
donor molecule, donor type, donor heavy atom, donor atom, acceptor molecule, acceptor atom, score
      P1  H  7989  7998       L1    11  0.91
      L1  C    10    29       P1  8028  1.00

> <Gold.PLP.Chemscore.Internal.Correction>
0.0445

> <Gold.Rescore>
     Score         DG    S(hbond)    S(metal)    S(lipo)     H(rot)  DE(clash)    DE(int)     intcor
      3.25      -4.19       1.22        0.00      40.13       3.93       0.02       0.91       ----

> <Gold.Chemscore.Fitness>
3.2516

> <Gold.Chemscore.DG>
-4.1854

> <Gold.Chemscore.ZeroCoef>
-5.4800

> <Gold.Chemscore.Hbond>
1.2222

> <Gold.Chemscore.Metal>
0.0000

> <Gold.Chemscore.Lipo>
40.1264

> <Gold.Chemscore.Internal_Hbond>
0.0000

> <Gold.Chemscore.DEClash>
0.0217

> <Gold.Chemscore.DEInternal>
0.9121

> <Gold.Chemscore.Rot>
3.9343

> <Gold.Chemscore.Internal.Correction>
   9.000000E+99

> <Gold.Chemscore.Hbonds>
donor molecule, donor type, donor heavy atom, donor atom, acceptor molecule, acceptor atom, score
      P1  H  7989  7998       L1    11  0.70

> <Gold.Chemscore.Hbond.Weighted>
-4.0823

> <Gold.Chemscore.Metal.Weighted>
-0.0000

> <Gold.Chemscore.Lipo.Weighted>
-4.6948

> <Gold.Chemscore.Internal_Hbond.Weighted>
0.0000

> <Gold.Chemscore.DEClash.Weighted>
0.0217

> <Gold.Chemscore.DEInternal.Weighted>
0.9121

> <Gold.Chemscore.Rot.Weighted>
10.0717

> <Gold.Chemscore.Internal.Correction.Weighted>
   9.000000E+99

> <Gold.Protein.RotatedTorsions>
[ 6907 6896 6895 6894 ] final  -35.74 input  -60.11 | X-H torsion
[ 7974 7965 7964 7962 ] final  110.94 input  175.53 | X-H torsion
[ 8008 7997 7996 7995 ] final  -24.20 input   59.86 | X-H torsion
[ 10167 10162 10161 10158 ] final -165.91 input  -65.29 | X-H torsion
[ 10718 10713 10712 10709 ] final   72.51 input   66.30 | X-H torsion
[ 10763 10752 10751 10750 ] final  163.64 input  -60.55 | X-H torsion
[ 11005 11000 10999 10996 ] final  -75.34 input  -57.11 | X-H torsion

> <Gold.Protein.ActiveResidues>
 VAL166  LYS551  ARG553  GLY616  TRP617  ASP618  TYR619  PRO620  LYS621  CYS622 
 ASP623  PHE694  ASN695  SER759  ASP760  ASP761  ALA762  ILE779  LEU786  VAL792 
 PHE793  MET794  SER795  GLU796  ALA797  LYS798  CYS799  TRP800  GLU811  SER814 

> <Gold.Protein.RotatedAtoms>
  151.0360  134.9573  159.8136 H   0  0  0  0  0  0  0  0  0  0  0  0  # atno 6907 bound_to 6896
  152.5355  134.2719  159.8984 H   0  0  0  0  0  0  0  0  0  0  0  0  # atno 6908 bound_to 6896
  151.2729  133.4204  159.2656 H   0  0  0  0  0  0  0  0  0  0  0  0  # atno 6909 bound_to 6896
  145.2485  139.2749  143.4080 H   0  0  0  0  0  0  0  0  0  0  0  0  # atno 7974 bound_to 7965
  154.4542  140.1960  156.0428 H   0  0  0  0  0  0  0  0  0  0  0  0  # atno 8008 bound_to 7997
  156.0712  140.3284  155.7550 H   0  0  0  0  0  0  0  0  0  0  0  0  # atno 8009 bound_to 7997
  155.5260  140.0574  157.2888 H   0  0  0  0  0  0  0  0  0  0  0  0  # atno 8010 bound_to 7997
  139.6150  144.0737  152.1879 H   0  0  0  0  0  0  0  0  0  0  0  0  # atno 10167 bound_to 10162
  157.6504  130.9582  150.0938 H   0  0  0  0  0  0  0  0  0  0  0  0  # atno 10718 bound_to 10713
  154.2968  135.2760  155.2629 H   0  0  0  0  0  0  0  0  0  0  0  0  # atno 10763 bound_to 10752
  154.5084  135.5789  153.6589 H   0  0  0  0  0  0  0  0  0  0  0  0  # atno 10764 bound_to 10752
  152.9906  135.6175  154.3136 H   0  0  0  0  0  0  0  0  0  0  0  0  # atno 10765 bound_to 10752
  141.1644  133.6943  156.7501 H   0  0  0  0  0  0  0  0  0  0  0  0  # atno 11005 bound_to 11000
  146.3309  140.2869  142.8613 LP  0  0  0  0  0  0  0  0  0  0  0  0  # atno 17320 bound_to 7965
  144.9524  140.8192  143.5563 LP  0  0  0  0  0  0  0  0  0  0  0  0  # atno 17321 bound_to 7965
  140.0365  144.6040  150.7445 LP  0  0  0  0  0  0  0  0  0  0  0  0  # atno 17342 bound_to 10162
  140.7345  143.2729  151.3830 LP  0  0  0  0  0  0  0  0  0  0  0  0  # atno 17343 bound_to 10162
  156.1880  130.3653  149.8947 LP  0  0  0  0  0  0  0  0  0  0  0  0  # atno 17370 bound_to 10713
  156.6883  130.8885  151.3585 LP  0  0  0  0  0  0  0  0  0  0  0  0  # atno 17371 bound_to 10713
  140.2610  134.8467  157.3758 LP  0  0  0  0  0  0  0  0  0  0  0  0  # atno 17394 bound_to 11000
  140.1611  134.4727  155.7894 LP  0  0  0  0  0  0  0  0  0  0  0  0  # atno 17395 bound_to 11000

$$$$
