AV-unprocessed.smi:1982|AV-procd|sdf|8022|dock2
  -GOLD-   2272010213D 1   1.00000     0.00000
 Structure written by MMmdl.
 36 37  0  0  0  0  0  0  0  0  1 V2000
  153.3212  141.9864  160.9438 C   0  0  0  0  0  0  0  0  0  0  0  0
  152.9543  142.4967  159.5379 C   0  0  2  0  0  0  0  0  0  0  0  0
  152.6638  144.0099  159.5994 C   0  0  0  0  0  0  0  0  0  0  0  0
  152.3214  144.5828  158.2198 C   0  0  0  0  0  0  0  0  0  0  0  0
  151.1219  143.8480  157.6142 C   0  0  0  0  0  0  0  0  0  0  0  0
  151.3823  142.3331  157.5230 C   0  0  2  0  0  0  0  0  0  0  0  0
  150.1927  141.6721  156.9934 N   0  0  0  0  0  0  0  0  0  0  0  0
  150.1655  140.8024  155.9714 C   0  0  0  0  0  0  0  0  0  0  0  0
  151.1520  140.5166  155.2939 O   0  0  0  0  0  0  0  0  0  0  0  0
  148.8168  140.1448  155.6736 C   0  0  0  0  0  0  0  0  0  0  0  0
  147.8800  141.1036  155.1148 N   0  0  0  0  0  0  0  0  0  0  0  0
  147.6668  141.4909  153.8554 C   0  0  0  0  0  0  0  0  0  0  0  0
  146.6891  142.3805  153.7765 N   0  0  0  0  0  0  0  0  0  0  0  0
  146.2950  142.5329  155.0952 N   0  0  0  0  0  0  0  0  0  0  0  0
  146.9983  141.7783  155.8940 N   0  0  0  0  0  0  0  0  0  0  0  0
  151.7660  141.7234  158.8987 C   0  0  1  0  0  0  0  0  0  0  0  0
  152.0575  140.2111  158.7718 C   0  0  0  0  0  0  0  0  0  0  0  0
  152.4607  142.0131  161.6130 H   0  0  0  0  0  0  0  0  0  0  0  0
  154.1052  142.5988  161.3902 H   0  0  0  0  0  0  0  0  0  0  0  0
  153.6990  140.9650  160.9213 H   0  0  0  0  0  0  0  0  0  0  0  0
  153.8292  142.3565  158.9010 H   0  0  0  0  0  0  0  0  0  0  0  0
  151.8383  144.2000  160.2868 H   0  0  0  0  0  0  0  0  0  0  0  0
  153.5272  144.5401  160.0030 H   0  0  0  0  0  0  0  0  0  0  0  0
  152.1025  145.6477  158.3023 H   0  0  0  0  0  0  0  0  0  0  0  0
  153.1833  144.4924  157.5575 H   0  0  0  0  0  0  0  0  0  0  0  0
  150.2359  144.0368  158.2224 H   0  0  0  0  0  0  0  0  0  0  0  0
  150.9091  144.2530  156.6240 H   0  0  0  0  0  0  0  0  0  0  0  0
  152.2195  142.1690  156.8412 H   0  0  0  0  0  0  0  0  0  0  0  0
  149.3263  141.8486  157.4818 H   0  0  0  0  0  0  0  0  0  0  0  0
  148.9554  139.3172  154.9763 H   0  0  0  0  0  0  0  0  0  0  0  0
  148.3888  139.7318  156.5878 H   0  0  0  0  0  0  0  0  0  0  0  0
  148.2155  141.1163  153.0039 H   0  0  0  0  0  0  0  0  0  0  0  0
  150.9057  141.8344  159.5613 H   0  0  0  0  0  0  0  0  0  0  0  0
  152.9393  140.0300  158.1564 H   0  0  0  0  0  0  0  0  0  0  0  0
  151.2257  139.6704  158.3203 H   0  0  0  0  0  0  0  0  0  0  0  0
  152.2264  139.7469  159.7425 H   0  0  0  0  0  0  0  0  0  0  0  0
  1  2  1  0  0  0  0
  1 18  1  0  0  0  0
  1 19  1  0  0  0  0
  1 20  1  0  0  0  0
  2 16  1  0  0  0  0
  2  3  1  0  0  0  0
  2 21  1  0  0  0  0
  3  4  1  0  0  0  0
  3 22  1  0  0  0  0
  3 23  1  0  0  0  0
  4  5  1  0  0  0  0
  4 24  1  0  0  0  0
  4 25  1  0  0  0  0
  5  6  1  0  0  0  0
  5 26  1  0  0  0  0
  5 27  1  0  0  0  0
  6  7  1  0  0  0  0
  6 16  1  0  0  0  0
  6 28  1  0  0  0  0
  7  8  1  0  0  0  0
  7 29  1  0  0  0  0
  8  9  2  0  0  0  0
  8 10  1  0  0  0  0
 10 11  1  0  0  0  0
 10 30  1  0  0  0  0
 10 31  1  0  0  0  0
 11 15  1  0  0  0  0
 11 12  1  0  0  0  0
 12 13  2  0  0  0  0
 12 32  1  0  0  0  0
 13 14  1  0  0  0  0
 14 15  2  0  0  0  0
 16 17  1  0  0  0  0
 16 33  1  0  0  0  0
 17 34  1  0  0  0  0
 17 35  1  0  0  0  0
 17 36  1  0  0  0  0
M  END
> <s_m_source_file>
AV-unprocessed.smi

> <i_m_source_file_index>
1982

> <i_lp_mmshare_version>
43012

> <i_f3d_flags>
0

> <s_epik_input>
W0NIM11bQ0BASF0xW0NIMl1bQ0gyXVtDSDJdW0NASF0oW0NASF0xW0NIM10pW05IXUMoPU8pW0NIMl1uMltjSF1ubm4y

> <s_epik_cmdline>
J2VwaWtfcHl0aG9uJywgJy1waCcsICc3LjAnLCAnLXRuJywgJzgnLCAnLW1hJywgJzIwMCcsICctbWV0YWxfYmluZGluZycsICctaW1hZScsICc8aW5maWxlLm1hZT4nLCAnLW9tYWUnLCAnPG91dGZpbGUubWFlPic=

> <r_lp_tautomer_probability>
1

> <r_epik_Ionization_Penalty>
5.03816e-07

> <r_epik_Ionization_Penalty_Charging>
0

> <r_epik_Ionization_Penalty_Neutral>
5.03816e-07

> <r_epik_State_Penalty>
-0

> <r_epik_Charging_Adjusted_Penalty>
0

> <i_epik_Tot_Q>
0

> <i_epik_Tot_abs_Q>
0

> <r_epik_Metal_State_Penalty>
-0

> <b_epik_Metal_Only>
0

> <s_lp_Force_Field>
OPLS_2005

> <r_lp_Energy>
13.7929

> <b_lp_Chiralities_Consistent>
1

> <s_lp_Variant>
AV-unprocessed.smi:1982-3

> <Gold.Version>
5.8.1

> <Gold.Id.Protein>
6NUR|6NUR_protein|mol2

> <Gold.PLP.Fitness>
39.0695

> <Gold.PLP.PLP>
-34.3641

> <Gold.PLP.part.hbond>
-1.0000

> <Gold.PLP.part.metal>
0.0000

> <Gold.PLP.part.buried>
-3.8812

> <Gold.PLP.part.nonpolar>
-30.3702

> <Gold.PLP.part.repulsive>
0.5373

> <Gold.PLP.ligand.clash>
0.0000

> <Gold.PLP.ligand.torsion>
0.5698

> <Gold.PLP.Chemscore.Hbond>
0.9440

> <Gold.PLP.Chemscore.CHOScore>
1.0000

> <Gold.PLP.Chemscore.Metal>
0.0000

> <Gold.Chemscore.Hbonds>
donor molecule, donor type, donor heavy atom, donor atom, acceptor molecule, acceptor atom, score
      P1  H  7989  7998       L1     9  0.93
      L1  C    12    32       P1  7957  0.98

> <Gold.PLP.Chemscore.Internal.Correction>
0.0129

> <Gold.Rescore>
     Score         DG    S(hbond)    S(metal)    S(lipo)     H(rot)  DE(clash)    DE(int)     intcor
     13.73     -14.18       0.94        0.00      89.11       1.91       0.08       0.37       ----

> <Gold.Chemscore.Fitness>
13.7281

> <Gold.Chemscore.DG>
-14.1755

> <Gold.Chemscore.ZeroCoef>
-5.4800

> <Gold.Chemscore.Hbond>
0.9427

> <Gold.Chemscore.Metal>
0.0000

> <Gold.Chemscore.Lipo>
89.1089

> <Gold.Chemscore.Internal_Hbond>
0.0000

> <Gold.Chemscore.DEClash>
0.0777

> <Gold.Chemscore.DEInternal>
0.3698

> <Gold.Chemscore.Rot>
1.9058

> <Gold.Chemscore.Internal.Correction>
   9.000000E+99

> <Gold.Chemscore.Hbonds>
donor molecule, donor type, donor heavy atom, donor atom, acceptor molecule, acceptor atom, score
      P1  H  7989  7998       L1     9  0.91

> <Gold.Chemscore.Hbond.Weighted>
-3.1486

> <Gold.Chemscore.Metal.Weighted>
-0.0000

> <Gold.Chemscore.Lipo.Weighted>
-10.4257

> <Gold.Chemscore.Internal_Hbond.Weighted>
0.0000

> <Gold.Chemscore.DEClash.Weighted>
0.0777

> <Gold.Chemscore.DEInternal.Weighted>
0.3698

> <Gold.Chemscore.Rot.Weighted>
4.8788

> <Gold.Chemscore.Internal.Correction.Weighted>
   9.000000E+99

> <Gold.Protein.RotatedTorsions>
[ 6907 6896 6895 6894 ] final  -85.08 input  -60.11 | X-H torsion
[ 7974 7965 7964 7962 ] final   47.85 input  175.53 | X-H torsion
[ 8008 7997 7996 7995 ] final  -70.61 input   59.86 | X-H torsion
[ 10167 10162 10161 10158 ] final  -49.24 input  -65.29 | X-H torsion
[ 10718 10713 10712 10709 ] final   57.91 input   66.30 | X-H torsion
[ 10763 10752 10751 10750 ] final   15.11 input  -60.55 | X-H torsion
[ 11005 11000 10999 10996 ] final  111.86 input  -57.11 | X-H torsion

> <Gold.Protein.ActiveResidues>
 VAL166  LYS551  ARG553  GLY616  TRP617  ASP618  TYR619  PRO620  LYS621  CYS622 
 ASP623  PHE694  ASN695  SER759  ASP760  ASP761  ALA762  ILE779  LEU786  VAL792 
 PHE793  MET794  SER795  GLU796  ALA797  LYS798  CYS799  TRP800  GLU811  SER814 

> <Gold.Protein.RotatedAtoms>
  150.6872  134.3260  159.4806 H   0  0  0  0  0  0  0  0  0  0  0  0  # atno 6907 bound_to 6896
  152.1130  134.9258  160.0575 H   0  0  0  0  0  0  0  0  0  0  0  0  # atno 6908 bound_to 6896
  152.0493  133.3977  159.4407 H   0  0  0  0  0  0  0  0  0  0  0  0  # atno 6909 bound_to 6896
  146.0259  139.4706  142.9868 H   0  0  0  0  0  0  0  0  0  0  0  0  # atno 7974 bound_to 7965
  154.5025  140.0831  156.7826 H   0  0  0  0  0  0  0  0  0  0  0  0  # atno 8008 bound_to 7997
  155.3970  140.3435  155.4236 H   0  0  0  0  0  0  0  0  0  0  0  0  # atno 8009 bound_to 7997
  156.1474  140.1548  156.8812 H   0  0  0  0  0  0  0  0  0  0  0  0  # atno 8010 bound_to 7997
  140.6694  143.2706  151.4187 H   0  0  0  0  0  0  0  0  0  0  0  0  # atno 10167 bound_to 10162
  157.5554  130.8796  149.9027 H   0  0  0  0  0  0  0  0  0  0  0  0  # atno 10718 bound_to 10713
  153.1557  135.6786  153.8816 H   0  0  0  0  0  0  0  0  0  0  0  0  # atno 10763 bound_to 10752
  153.8228  135.3128  155.3413 H   0  0  0  0  0  0  0  0  0  0  0  0  # atno 10764 bound_to 10752
  154.7895  135.4842  154.0109 H   0  0  0  0  0  0  0  0  0  0  0  0  # atno 10765 bound_to 10752
  139.8913  134.9517  156.6497 H   0  0  0  0  0  0  0  0  0  0  0  0  # atno 11005 bound_to 11000
  145.7118  141.0103  143.1449 LP  0  0  0  0  0  0  0  0  0  0  0  0  # atno 17320 bound_to 7965
  144.7009  139.8766  143.7444 LP  0  0  0  0  0  0  0  0  0  0  0  0  # atno 17321 bound_to 7965
  139.5956  144.1405  152.2139 LP  0  0  0  0  0  0  0  0  0  0  0  0  # atno 17342 bound_to 10162
  140.0773  144.5729  150.7147 LP  0  0  0  0  0  0  0  0  0  0  0  0  # atno 17343 bound_to 10162
  156.0613  130.3699  150.0975 LP  0  0  0  0  0  0  0  0  0  0  0  0  # atno 17370 bound_to 10713
  156.9144  130.9662  151.3558 LP  0  0  0  0  0  0  0  0  0  0  0  0  # atno 17371 bound_to 10713
  140.7530  133.8881  155.8361 LP  0  0  0  0  0  0  0  0  0  0  0  0  # atno 17394 bound_to 11000
  140.9985  134.1183  157.4340 LP  0  0  0  0  0  0  0  0  0  0  0  0  # atno 17395 bound_to 11000

$$$$
