AV-unprocessed.smi:1606|AV-procd|sdf|6462|dock3
  -GOLD-   22720 7113D 1   1.00000     0.00000
 Structure written by MMmdl.
 36 37  0  0  0  0  0  0  0  0  2 V2000
  148.7224  140.0591  154.3389 O   0  0  0  0  0  0  0  0  0  0  0  0
  148.5143  141.2263  154.6702 C   0  0  0  0  0  0  0  0  0  0  0  0
  149.4080  141.9685  155.3419 N   0  0  0  0  0  0  0  0  0  0  0  0
  150.7263  141.5146  155.7766 C   0  0  0  0  0  0  0  0  0  0  0  0
  150.8528  141.3394  157.3054 C   0  0  0  0  0  0  0  0  0  0  0  0
  151.3887  142.5640  158.0276 C   0  0  0  0  0  0  0  0  0  0  0  0
  152.3354  142.4652  159.0702 C   0  0  0  0  0  0  0  0  0  0  0  0
  152.7830  143.6411  159.7082 C   0  0  0  0  0  0  0  0  0  0  0  0
  152.2741  144.8892  159.2923 C   0  0  0  0  0  0  0  0  0  0  0  0
  151.3296  144.9302  158.2465 C   0  0  0  0  0  0  0  0  0  0  0  0
  150.9270  143.7820  157.6598 N   0  3  0  0  0  0  0  0  0  0  0  0
  147.1943  141.9152  154.3008 C   0  0  0  0  0  0  0  0  0  0  0  0
  147.4266  143.1182  153.3685 C   0  0  0  0  0  0  0  0  0  0  0  0
  146.1031  143.8512  153.0946 C   0  0  0  0  0  0  0  0  0  0  0  0
  145.5097  144.2590  154.3231 O   0  0  0  0  0  0  0  0  0  0  0  0
  145.1764  143.1653  155.1711 C   0  0  0  0  0  0  0  0  0  0  0  0
  146.4491  142.3952  155.5591 C   0  0  0  0  0  0  0  0  0  0  0  0
  149.1527  142.9168  155.5775 H   0  0  0  0  0  0  0  0  0  0  0  0
  150.9107  140.5561  155.2906 H   0  0  0  0  0  0  0  0  0  0  0  0
  151.4944  142.1969  155.4090 H   0  0  0  0  0  0  0  0  0  0  0  0
  149.8792  141.0803  157.7229 H   0  0  0  0  0  0  0  0  0  0  0  0
  151.5037  140.4925  157.5270 H   0  0  0  0  0  0  0  0  0  0  0  0
  152.7129  141.5015  159.3801 H   0  0  0  0  0  0  0  0  0  0  0  0
  153.5070  143.5864  160.5080 H   0  0  0  0  0  0  0  0  0  0  0  0
  152.6037  145.8011  159.7688 H   0  0  0  0  0  0  0  0  0  0  0  0
  150.8868  145.8386  157.8645 H   0  0  0  0  0  0  0  0  0  0  0  0
  146.5589  141.1966  153.7794 H   0  0  0  0  0  0  0  0  0  0  0  0
  148.1334  143.8184  153.8170 H   0  0  0  0  0  0  0  0  0  0  0  0
  147.8684  142.7892  152.4270 H   0  0  0  0  0  0  0  0  0  0  0  0
  146.2848  144.7343  152.4821 H   0  0  0  0  0  0  0  0  0  0  0  0
  145.4129  143.2147  152.5386 H   0  0  0  0  0  0  0  0  0  0  0  0
  144.6846  143.5501  156.0647 H   0  0  0  0  0  0  0  0  0  0  0  0
  144.4609  142.5095  154.6725 H   0  0  0  0  0  0  0  0  0  0  0  0
  146.1871  141.5460  156.1916 H   0  0  0  0  0  0  0  0  0  0  0  0
  147.0905  143.0446  156.1574 H   0  0  0  0  0  0  0  0  0  0  0  0
  150.2412  143.8341  156.9059 H   0  0  0  0  0  0  0  0  0  0  0  0
  1  2  2  0  0  0  0
  2  3  1  0  0  0  0
  2 12  1  0  0  0  0
  3  4  1  0  0  0  0
  3 18  1  0  0  0  0
  4  5  1  0  0  0  0
  4 19  1  0  0  0  0
  4 20  1  0  0  0  0
  5  6  1  0  0  0  0
  5 21  1  0  0  0  0
  5 22  1  0  0  0  0
  6 11  1  0  0  0  0
  6  7  2  0  0  0  0
  7  8  1  0  0  0  0
  7 23  1  0  0  0  0
  8  9  2  0  0  0  0
  8 24  1  0  0  0  0
  9 10  1  0  0  0  0
  9 25  1  0  0  0  0
 10 11  2  0  0  0  0
 10 26  1  0  0  0  0
 11 36  1  0  0  0  0
 12 17  1  0  0  0  0
 12 13  1  0  0  0  0
 12 27  1  0  0  0  0
 13 14  1  0  0  0  0
 13 28  1  0  0  0  0
 13 29  1  0  0  0  0
 14 15  1  0  0  0  0
 14 30  1  0  0  0  0
 14 31  1  0  0  0  0
 15 16  1  0  0  0  0
 16 17  1  0  0  0  0
 16 32  1  0  0  0  0
 16 33  1  0  0  0  0
 17 34  1  0  0  0  0
 17 35  1  0  0  0  0
M  CHG  1  11   1
M  END
> <s_m_source_file>
AV-unprocessed.smi

> <i_m_source_file_index>
1606

> <i_lp_mmshare_version>
43012

> <i_f3d_flags>
0

> <s_epik_input>
W0NIMl0xW0NIMl1PW0NIMl1bQ0gyXVtDSF0xQyg9TylbTkhdW0NIMl1bQ0gyXWMyW2NIXVtjSF1bY0hdW2NIXW4y

> <s_epik_cmdline>
J2VwaWtfcHl0aG9uJywgJy1waCcsICc3LjAnLCAnLXRuJywgJzgnLCAnLW1hJywgJzIwMCcsICctbWV0YWxfYmluZGluZycsICctaW1hZScsICc8aW5maWxlLm1hZT4nLCAnLW9tYWUnLCAnPG91dGZpbGUubWFlPic=

> <r_epik_Ionization_Penalty>
1.82741

> <r_epik_Ionization_Penalty_Charging>
1.82741

> <r_epik_Ionization_Penalty_Neutral>
1.59153e-08

> <r_epik_State_Penalty>
1.94311

> <r_epik_Charging_Adjusted_Penalty>
3.77052

> <i_epik_Tot_Q>
1

> <i_epik_Tot_abs_Q>
1

> <r_epik_Metal_State_Penalty>
1.96982

> <b_epik_Metal_Only>
0

> <s_lp_Force_Field>
OPLS_2005

> <r_lp_Energy>
14.6238

> <b_lp_Chiralities_Consistent>
1

> <s_lp_Variant>
AV-unprocessed.smi:1606-2

> <Gold.Version>
5.8.1

> <Gold.Id.Protein>
6NUR|6NUR_protein|mol2

> <Gold.PLP.Fitness>
45.3935

> <Gold.PLP.PLP>
-37.4720

> <Gold.PLP.part.hbond>
-2.0000

> <Gold.PLP.part.metal>
0.0000

> <Gold.PLP.part.buried>
-5.6996

> <Gold.PLP.part.nonpolar>
-30.4177

> <Gold.PLP.part.repulsive>
0.4229

> <Gold.PLP.ligand.clash>
0.0000

> <Gold.PLP.ligand.torsion>
0.5174

> <Gold.PLP.Chemscore.Hbond>
2.9760

> <Gold.PLP.Chemscore.CHOScore>
0.0000

> <Gold.PLP.Chemscore.Metal>
0.0000

> <Gold.Chemscore.Hbonds>
donor molecule, donor type, donor heavy atom, donor atom, acceptor molecule, acceptor atom, score
      L1  H     3    18       P1  8028  1.00
      L1  H    11    36       P1  8028  2.00

> <Gold.PLP.Chemscore.Internal.Correction>
0.0284

> <Gold.Rescore>
     Score         DG    S(hbond)    S(metal)    S(lipo)     H(rot)  DE(clash)    DE(int)     intcor
     18.18     -19.02       1.86        0.00      96.67       1.56       0.14       0.70       ----

> <Gold.Chemscore.Fitness>
18.1806

> <Gold.Chemscore.DG>
-19.0232

> <Gold.Chemscore.ZeroCoef>
-5.4800

> <Gold.Chemscore.Hbond>
1.8620

> <Gold.Chemscore.Metal>
0.0000

> <Gold.Chemscore.Lipo>
96.6661

> <Gold.Chemscore.Internal_Hbond>
0.0000

> <Gold.Chemscore.DEClash>
0.1440

> <Gold.Chemscore.DEInternal>
0.6986

> <Gold.Chemscore.Rot>
1.5569

> <Gold.Chemscore.Internal.Correction>
   9.000000E+99

> <Gold.Chemscore.Hbonds>
donor molecule, donor type, donor heavy atom, donor atom, acceptor molecule, acceptor atom, score
      L1  H     3    18       P1  8028  1.00
      L1  H    11    36       P1  8028  0.91

> <Gold.Chemscore.Hbond.Weighted>
-6.2190

> <Gold.Chemscore.Metal.Weighted>
-0.0000

> <Gold.Chemscore.Lipo.Weighted>
-11.3099

> <Gold.Chemscore.Internal_Hbond.Weighted>
0.0000

> <Gold.Chemscore.DEClash.Weighted>
0.1440

> <Gold.Chemscore.DEInternal.Weighted>
0.6986

> <Gold.Chemscore.Rot.Weighted>
3.9857

> <Gold.Chemscore.Internal.Correction.Weighted>
   9.000000E+99

> <Gold.Protein.RotatedTorsions>
[ 6907 6896 6895 6894 ] final  -54.57 input  -60.11 | X-H torsion
[ 7974 7965 7964 7962 ] final  126.38 input  175.53 | X-H torsion
[ 8008 7997 7996 7995 ] final   56.03 input   59.86 | X-H torsion
[ 10167 10162 10161 10158 ] final  -91.09 input  -65.29 | X-H torsion
[ 10718 10713 10712 10709 ] final  130.65 input   66.30 | X-H torsion
[ 10763 10752 10751 10750 ] final -165.96 input  -60.55 | X-H torsion
[ 11005 11000 10999 10996 ] final   82.44 input  -57.11 | X-H torsion

> <Gold.Protein.ActiveResidues>
 VAL166  LYS551  ARG553  GLY616  TRP617  ASP618  TYR619  PRO620  LYS621  CYS622 
 ASP623  PHE694  ASN695  SER759  ASP760  ASP761  ALA762  ILE779  LEU786  VAL792 
 PHE793  MET794  SER795  GLU796  ALA797  LYS798  CYS799  TRP800  GLU811  SER814 

> <Gold.Protein.RotatedAtoms>
  150.8327  134.7586  159.6866 H   0  0  0  0  0  0  0  0  0  0  0  0  # atno 6907 bound_to 6896
  152.4429  134.5552  159.9888 H   0  0  0  0  0  0  0  0  0  0  0  0  # atno 6908 bound_to 6896
  151.5709  133.3352  159.3025 H   0  0  0  0  0  0  0  0  0  0  0  0  # atno 6909 bound_to 6896
  145.0624  139.3794  143.4999 H   0  0  0  0  0  0  0  0  0  0  0  0  # atno 7974 bound_to 7965
  155.5107  140.3477  155.4388 H   0  0  0  0  0  0  0  0  0  0  0  0  # atno 8008 bound_to 7997
  156.0851  140.1396  156.9691 H   0  0  0  0  0  0  0  0  0  0  0  0  # atno 8009 bound_to 7997
  154.4602  140.0938  156.6848 H   0  0  0  0  0  0  0  0  0  0  0  0  # atno 8010 bound_to 7997
  140.3484  143.2904  151.9755 H   0  0  0  0  0  0  0  0  0  0  0  0  # atno 10167 bound_to 10162
  157.5042  131.1095  150.9384 H   0  0  0  0  0  0  0  0  0  0  0  0  # atno 10718 bound_to 10713
  154.6881  135.2966  154.9519 H   0  0  0  0  0  0  0  0  0  0  0  0  # atno 10763 bound_to 10752
  154.0491  135.6647  153.4802 H   0  0  0  0  0  0  0  0  0  0  0  0  # atno 10764 bound_to 10752
  153.0593  135.5125  154.7958 H   0  0  0  0  0  0  0  0  0  0  0  0  # atno 10765 bound_to 10752
  139.9064  134.8071  156.2174 H   0  0  0  0  0  0  0  0  0  0  0  0  # atno 11005 bound_to 11000
  146.3525  140.0329  142.8649 LP  0  0  0  0  0  0  0  0  0  0  0  0  # atno 17320 bound_to 7965
  145.1392  140.9562  143.4498 LP  0  0  0  0  0  0  0  0  0  0  0  0  # atno 17321 bound_to 7965
  139.4830  144.6097  151.7456 LP  0  0  0  0  0  0  0  0  0  0  0  0  # atno 17342 bound_to 10162
  140.5242  144.0831  150.6032 LP  0  0  0  0  0  0  0  0  0  0  0  0  # atno 17343 bound_to 10162
  157.0045  130.5613  149.5314 LP  0  0  0  0  0  0  0  0  0  0  0  0  # atno 17370 bound_to 10713
  156.0248  130.5342  150.8376 LP  0  0  0  0  0  0  0  0  0  0  0  0  # atno 17371 bound_to 10713
  141.0427  133.6929  156.1627 LP  0  0  0  0  0  0  0  0  0  0  0  0  # atno 17394 bound_to 11000
  140.6931  134.4644  157.5588 LP  0  0  0  0  0  0  0  0  0  0  0  0  # atno 17395 bound_to 11000

$$$$
