AV-unprocessed.smi:3062|AV-procd|sdf|11684|dock9
  -GOLD-   2272017 93D 1   1.00000     0.00000
 Structure written by MMmdl.
 39 40  0  0  0  0  0  0  0  0  1 V2000
  152.3992  144.1854  159.1553 C   0  0  0  0  0  0  0  0  0  0  0  0
  152.0926  142.7320  158.9129 C   0  0  0  0  0  0  0  0  0  0  0  0
  151.1110  142.4711  158.1135 N   0  0  0  0  0  0  0  0  0  0  0  0
  150.7480  141.1717  157.8203 N   0  0  0  0  0  0  0  0  0  0  0  0
  149.6116  141.0657  156.8975 C   0  0  0  0  0  0  0  0  0  0  0  0
  150.0221  141.3293  155.4317 C   0  0  1  0  0  0  0  0  0  0  0  0
  151.1154  140.5096  155.0705 O   0  0  0  0  0  0  0  0  0  0  0  0
  148.8857  141.0576  154.4325 C   0  0  0  0  0  0  0  0  0  0  0  0
  147.7282  141.7825  154.8151 O   0  0  0  0  0  0  0  0  0  0  0  0
  146.6684  141.6713  153.8798 C   0  0  0  0  0  0  0  0  0  0  0  0
  145.7287  142.8147  154.1061 C   0  0  0  0  0  0  0  0  0  0  0  0
  145.4296  143.8158  153.2172 C   0  0  0  0  0  0  0  0  0  0  0  0
  144.5002  144.7683  153.7299 C   0  0  0  0  0  0  0  0  0  0  0  0
  144.1013  144.4857  155.0089 C   0  0  0  0  0  0  0  0  0  0  0  0
  144.8646  143.0406  155.6115 S   0  0  0  0  0  0  0  0  0  0  0  0
  151.3625  140.0618  158.3201 C   0  0  0  0  0  0  0  0  0  0  0  0
  151.0038  138.9190  158.0312 O   0  0  0  0  0  0  0  0  0  0  0  0
  152.4737  140.3640  159.2254 C   0  0  0  0  0  0  0  0  0  0  0  0
  153.1477  139.2297  159.7700 C   0  0  0  0  0  0  0  0  0  0  0  0
  153.6789  138.3073  160.2256 N   0  0  0  0  0  0  0  0  0  0  0  0
  152.8375  141.6360  159.5248 C   0  0  0  0  0  0  0  0  0  0  0  0
  153.9841  142.0024  160.4572 C   0  0  0  0  0  0  0  0  0  0  0  0
  153.4419  144.4051  158.9262 H   0  0  0  0  0  0  0  0  0  0  0  0
  152.2178  144.4493  160.1973 H   0  0  0  0  0  0  0  0  0  0  0  0
  151.7834  144.8403  158.5366 H   0  0  0  0  0  0  0  0  0  0  0  0
  149.1276  140.0910  156.9876 H   0  0  0  0  0  0  0  0  0  0  0  0
  148.8485  141.7856  157.1987 H   0  0  0  0  0  0  0  0  0  0  0  0
  150.3369  142.3658  155.3061 H   0  0  0  0  0  0  0  0  0  0  0  0
  151.6242  140.3339  155.8474 H   0  0  0  0  0  0  0  0  0  0  0  0
  149.1957  141.3865  153.4395 H   0  0  0  0  0  0  0  0  0  0  0  0
  148.6727  139.9893  154.3648 H   0  0  0  0  0  0  0  0  0  0  0  0
  147.0558  141.7040  152.8607 H   0  0  0  0  0  0  0  0  0  0  0  0
  146.1452  140.7229  154.0107 H   0  0  0  0  0  0  0  0  0  0  0  0
  145.8425  143.8962  152.2224 H   0  0  0  0  0  0  0  0  0  0  0  0
  144.1619  145.6152  153.1512 H   0  0  0  0  0  0  0  0  0  0  0  0
  143.4104  145.0351  155.6314 H   0  0  0  0  0  0  0  0  0  0  0  0
  154.4152  141.1280  160.9442 H   0  0  0  0  0  0  0  0  0  0  0  0
  153.6428  142.6757  161.2442 H   0  0  0  0  0  0  0  0  0  0  0  0
  154.7811  142.4977  159.9017 H   0  0  0  0  0  0  0  0  0  0  0  0
  1  2  1  0  0  0  0
  1 23  1  0  0  0  0
  1 24  1  0  0  0  0
  1 25  1  0  0  0  0
  2 21  1  0  0  0  0
  2  3  2  0  0  0  0
  3  4  1  0  0  0  0
  4  5  1  0  0  0  0
  4 16  1  0  0  0  0
  5  6  1  0  0  0  0
  5 26  1  0  0  0  0
  5 27  1  0  0  0  0
  6  7  1  0  0  0  0
  6  8  1  0  0  0  0
  6 28  1  0  0  0  0
  7 29  1  0  0  0  0
  8  9  1  0  0  0  0
  8 30  1  0  0  0  0
  8 31  1  0  0  0  0
  9 10  1  0  0  0  0
 10 11  1  0  0  0  0
 10 32  1  0  0  0  0
 10 33  1  0  0  0  0
 11 15  1  0  0  0  0
 11 12  2  0  0  0  0
 12 13  1  0  0  0  0
 12 34  1  0  0  0  0
 13 14  2  0  0  0  0
 13 35  1  0  0  0  0
 14 15  1  0  0  0  0
 14 36  1  0  0  0  0
 16 17  2  0  0  0  0
 16 18  1  0  0  0  0
 18 19  1  0  0  0  0
 18 21  2  0  0  0  0
 19 20  3  0  0  0  0
 21 22  1  0  0  0  0
 22 37  1  0  0  0  0
 22 38  1  0  0  0  0
 22 39  1  0  0  0  0
M  END
> <s_m_source_file>
AV-unprocessed.smi

> <i_m_source_file_index>
3062

> <i_lp_mmshare_version>
43012

> <i_f3d_flags>
0

> <s_epik_input>
TiNDYyhjMVtDSDNdKWMoPU8pbihuYzFbQ0gzXSlbQ0gyXVtDQEhdKFtPSF0pW0NIMl1PW0NIMl1jMltjSF1bY0hdW2NIXXMy

> <s_epik_cmdline>
J2VwaWtfcHl0aG9uJywgJy1waCcsICc3LjAnLCAnLXRuJywgJzgnLCAnLW1hJywgJzIwMCcsICctbWV0YWxfYmluZGluZycsICctaW1hZScsICc8aW5maWxlLm1hZT4nLCAnLW9tYWUnLCAnPG91dGZpbGUubWFlPic=

> <r_lp_tautomer_probability>
1

> <r_epik_Ionization_Penalty>
6.86395e-08

> <r_epik_Ionization_Penalty_Charging>
2.24757e-10

> <r_epik_Ionization_Penalty_Neutral>
6.84147e-08

> <r_epik_State_Penalty>
-0

> <r_epik_Charging_Adjusted_Penalty>
2.24757e-10

> <i_epik_Tot_Q>
0

> <i_epik_Tot_abs_Q>
0

> <r_epik_Metal_State_Penalty>
-0

> <b_epik_Metal_Only>
0

> <s_lp_Force_Field>
OPLS_2005

> <r_lp_Energy>
25.5383

> <b_lp_Chiralities_Consistent>
1

> <s_lp_Variant>
AV-unprocessed.smi:3062-2

> <Gold.Version>
5.8.1

> <Gold.Id.Protein>
6NUR|6NUR_protein|mol2

> <Gold.PLP.Fitness>
49.4771

> <Gold.PLP.PLP>
-47.2037

> <Gold.PLP.part.hbond>
-1.0000

> <Gold.PLP.part.metal>
0.0000

> <Gold.PLP.part.buried>
-6.7224

> <Gold.PLP.part.nonpolar>
-38.1021

> <Gold.PLP.part.repulsive>
0.2557

> <Gold.PLP.ligand.clash>
0.0000

> <Gold.PLP.ligand.torsion>
0.3877

> <Gold.PLP.Chemscore.Hbond>
0.9920

> <Gold.PLP.Chemscore.CHOScore>
0.0000

> <Gold.PLP.Chemscore.Metal>
0.0000

> <Gold.Chemscore.Hbonds>
donor molecule, donor type, donor heavy atom, donor atom, acceptor molecule, acceptor atom, score
      P1  H  7989  7998       L1     7  0.98

> <Gold.PLP.Chemscore.Internal.Correction>
0.0727

> <Gold.Rescore>
     Score         DG    S(hbond)    S(metal)    S(lipo)     H(rot)  DE(clash)    DE(int)     intcor
     14.12     -14.34       0.90        0.00     105.00       2.51       0.01       0.22       ----

> <Gold.Chemscore.Fitness>
14.1164

> <Gold.Chemscore.DG>
-14.3442

> <Gold.Chemscore.ZeroCoef>
-5.4800

> <Gold.Chemscore.Hbond>
0.9013

> <Gold.Chemscore.Metal>
0.0000

> <Gold.Chemscore.Lipo>
104.9952

> <Gold.Chemscore.Internal_Hbond>
0.0000

> <Gold.Chemscore.DEClash>
0.0103

> <Gold.Chemscore.DEInternal>
0.2174

> <Gold.Chemscore.Rot>
2.5119

> <Gold.Chemscore.Internal.Correction>
   9.000000E+99

> <Gold.Chemscore.Hbonds>
donor molecule, donor type, donor heavy atom, donor atom, acceptor molecule, acceptor atom, score
      P1  H  7989  7998       L1     7  0.69

> <Gold.Chemscore.Hbond.Weighted>
-3.0102

> <Gold.Chemscore.Metal.Weighted>
-0.0000

> <Gold.Chemscore.Lipo.Weighted>
-12.2844

> <Gold.Chemscore.Internal_Hbond.Weighted>
0.0000

> <Gold.Chemscore.DEClash.Weighted>
0.0103

> <Gold.Chemscore.DEInternal.Weighted>
0.2174

> <Gold.Chemscore.Rot.Weighted>
6.4305

> <Gold.Chemscore.Internal.Correction.Weighted>
   9.000000E+99

> <Gold.Protein.RotatedTorsions>
[ 6907 6896 6895 6894 ] final  -72.02 input  -60.11 | X-H torsion
[ 7974 7965 7964 7962 ] final   66.62 input  175.53 | X-H torsion
[ 8008 7997 7996 7995 ] final  128.69 input   59.86 | X-H torsion
[ 10167 10162 10161 10158 ] final -112.11 input  -65.29 | X-H torsion
[ 10718 10713 10712 10709 ] final  -88.27 input   66.30 | X-H torsion
[ 10763 10752 10751 10750 ] final  -66.45 input  -60.55 | X-H torsion
[ 11005 11000 10999 10996 ] final   78.33 input  -57.11 | X-H torsion

> <Gold.Protein.ActiveResidues>
 VAL166  LYS551  ARG553  GLY616  TRP617  ASP618  TYR619  PRO620  LYS621  CYS622 
 ASP623  PHE694  ASN695  SER759  ASP760  ASP761  ALA762  ILE779  LEU786  VAL792 
 PHE793  MET794  SER795  GLU796  ALA797  LYS798  CYS799  TRP800  GLU811  SER814 

> <Gold.Protein.RotatedAtoms>
  150.7187  134.5224  159.5659 H   0  0  0  0  0  0  0  0  0  0  0  0  # atno 6907 bound_to 6896
  152.2776  134.7861  160.0412 H   0  0  0  0  0  0  0  0  0  0  0  0  # atno 6908 bound_to 6896
  151.8519  133.3406  159.3713 H   0  0  0  0  0  0  0  0  0  0  0  0  # atno 6909 bound_to 6896
  145.8244  139.3103  143.1024 H   0  0  0  0  0  0  0  0  0  0  0  0  # atno 7974 bound_to 7965
  156.2920  140.2638  156.2477 H   0  0  0  0  0  0  0  0  0  0  0  0  # atno 8008 bound_to 7997
  154.9914  140.0388  157.2339 H   0  0  0  0  0  0  0  0  0  0  0  0  # atno 8009 bound_to 7997
  154.7683  140.2773  155.6163 H   0  0  0  0  0  0  0  0  0  0  0  0  # atno 8010 bound_to 7997
  140.1263  143.4399  152.1657 H   0  0  0  0  0  0  0  0  0  0  0  0  # atno 10167 bound_to 10162
  155.9984  130.4830  150.4994 H   0  0  0  0  0  0  0  0  0  0  0  0  # atno 10718 bound_to 10713
  154.3600  135.6118  153.5686 H   0  0  0  0  0  0  0  0  0  0  0  0  # atno 10763 bound_to 10752
  152.9794  135.5813  154.4644 H   0  0  0  0  0  0  0  0  0  0  0  0  # atno 10764 bound_to 10752
  154.4380  135.2849  155.1844 H   0  0  0  0  0  0  0  0  0  0  0  0  # atno 10765 bound_to 10752
  139.9217  134.7754  156.1635 H   0  0  0  0  0  0  0  0  0  0  0  0  # atno 11005 bound_to 11000
  145.9640  140.8813  143.0196 LP  0  0  0  0  0  0  0  0  0  0  0  0  # atno 17320 bound_to 7965
  144.6745  140.1852  143.7402 LP  0  0  0  0  0  0  0  0  0  0  0  0  # atno 17321 bound_to 7965
  139.5543  144.7361  151.4342 LP  0  0  0  0  0  0  0  0  0  0  0  0  # atno 17342 bound_to 10162
  140.6843  143.8010  150.7164 LP  0  0  0  0  0  0  0  0  0  0  0  0  # atno 17343 bound_to 10162
  157.2980  131.0639  151.2088 LP  0  0  0  0  0  0  0  0  0  0  0  0  # atno 17370 bound_to 10713
  157.3077  130.6874  149.6198 LP  0  0  0  0  0  0  0  0  0  0  0  0  # atno 17371 bound_to 10713
  141.0743  133.6782  156.2204 LP  0  0  0  0  0  0  0  0  0  0  0  0  # atno 17394 bound_to 11000
  140.6454  134.5122  157.5573 LP  0  0  0  0  0  0  0  0  0  0  0  0  # atno 17395 bound_to 11000

$$$$
