AV-unprocessed.smi:573|AV-procd|sdf|2968|dock9
  -GOLD-   2262023473D 1   1.00000     0.00000
 Structure written by MMmdl.
 45 47  0  0  0  0  0  0  0  0  2 V2000
  146.7254  142.4285  153.8418 C   0  0  0  0  0  0  0  0  0  0  0  0
  147.5902  141.1898  154.1081 C   0  0  1  0  0  0  0  0  0  0  0  0
  147.5339  140.3840  152.9487 O   0  0  0  0  0  0  0  0  0  0  0  0
  149.0535  141.5720  154.4017 C   0  0  0  0  0  0  0  0  0  0  0  0
  149.6027  140.8451  155.5380 N   0  0  0  0  0  0  0  0  0  0  0  0
  150.3376  141.5425  156.5041 C   0  0  0  0  0  0  0  0  0  0  0  0
  150.3115  142.8853  156.7173 N   0  3  0  0  0  0  0  0  0  0  0  0
  151.1997  143.1838  157.7537 C   0  0  0  0  0  0  0  0  0  0  0  0
  151.5369  144.4019  158.3354 C   0  0  0  0  0  0  0  0  0  0  0  0
  152.4907  144.3658  159.3734 C   0  0  0  0  0  0  0  0  0  0  0  0
  153.0728  143.1529  159.7951 C   0  0  0  0  0  0  0  0  0  0  0  0
  152.7252  141.9223  159.1999 C   0  0  0  0  0  0  0  0  0  0  0  0
  151.7772  141.9622  158.1774 C   0  0  0  0  0  0  0  0  0  0  0  0
  151.2021  140.9655  157.3770 N   0  0  0  0  0  0  0  0  0  0  0  0
  151.5909  139.5587  157.5511 C   0  0  0  0  0  0  0  0  0  0  0  0
  150.3918  138.6714  157.9225 C   0  0  2  0  0  0  0  0  0  0  0  0
  150.6589  137.8414  159.1923 C   0  0  0  0  0  0  0  0  0  0  0  0
  149.4650  136.9304  159.4990 C   0  0  0  0  0  0  0  0  0  0  0  0
  149.1199  136.0956  158.2609 C   0  0  0  0  0  0  0  0  0  0  0  0
  148.9373  137.0053  157.0353 C   0  0  0  0  0  0  0  0  0  0  0  0
  150.1075  137.7922  156.8354 O   0  0  0  0  0  0  0  0  0  0  0  0
  146.7044  143.0849  154.7120 H   0  0  0  0  0  0  0  0  0  0  0  0
  145.6954  142.1493  153.6169 H   0  0  0  0  0  0  0  0  0  0  0  0
  147.1063  143.0067  152.9990 H   0  0  0  0  0  0  0  0  0  0  0  0
  147.1651  140.6373  154.9474 H   0  0  0  0  0  0  0  0  0  0  0  0
  148.3297  140.5129  152.4556 H   0  0  0  0  0  0  0  0  0  0  0  0
  149.6788  141.4623  153.5147 H   0  0  0  0  0  0  0  0  0  0  0  0
  149.0963  142.6281  154.6687 H   0  0  0  0  0  0  0  0  0  0  0  0
  149.7482  139.8501  155.4419 H   0  0  0  0  0  0  0  0  0  0  0  0
  151.0958  145.3335  158.0119 H   0  0  0  0  0  0  0  0  0  0  0  0
  152.7841  145.2880  159.8540 H   0  0  0  0  0  0  0  0  0  0  0  0
  153.8029  143.1660  160.5915 H   0  0  0  0  0  0  0  0  0  0  0  0
  153.1842  141.0015  159.5278 H   0  0  0  0  0  0  0  0  0  0  0  0
  152.0789  139.2047  156.6431 H   0  0  0  0  0  0  0  0  0  0  0  0
  152.3448  139.5213  158.3381 H   0  0  0  0  0  0  0  0  0  0  0  0
  149.5257  139.3151  158.0878 H   0  0  0  0  0  0  0  0  0  0  0  0
  151.5543  137.2340  159.0530 H   0  0  0  0  0  0  0  0  0  0  0  0
  150.8544  138.4976  160.0409 H   0  0  0  0  0  0  0  0  0  0  0  0
  149.6888  136.2812  160.3459 H   0  0  0  0  0  0  0  0  0  0  0  0
  148.6044  137.5362  159.7856 H   0  0  0  0  0  0  0  0  0  0  0  0
  149.9199  135.3799  158.0668 H   0  0  0  0  0  0  0  0  0  0  0  0
  148.2151  135.5137  158.4386 H   0  0  0  0  0  0  0  0  0  0  0  0
  148.7625  136.4026  156.1440 H   0  0  0  0  0  0  0  0  0  0  0  0
  148.0673  137.6529  157.1561 H   0  0  0  0  0  0  0  0  0  0  0  0
  149.7421  143.5386  156.1950 H   0  0  0  0  0  0  0  0  0  0  0  0
  1  2  1  0  0  0  0
  1 22  1  0  0  0  0
  1 23  1  0  0  0  0
  1 24  1  0  0  0  0
  2  3  1  0  0  0  0
  2  4  1  0  0  0  0
  2 25  1  0  0  0  0
  3 26  1  0  0  0  0
  4  5  1  0  0  0  0
  4 27  1  0  0  0  0
  4 28  1  0  0  0  0
  5  6  1  0  0  0  0
  5 29  1  0  0  0  0
  6 14  1  0  0  0  0
  6  7  2  0  0  0  0
  7  8  1  0  0  0  0
  7 45  1  0  0  0  0
  8 13  2  0  0  0  0
  8  9  1  0  0  0  0
  9 10  2  0  0  0  0
  9 30  1  0  0  0  0
 10 11  1  0  0  0  0
 10 31  1  0  0  0  0
 11 12  2  0  0  0  0
 11 32  1  0  0  0  0
 12 13  1  0  0  0  0
 12 33  1  0  0  0  0
 13 14  1  0  0  0  0
 14 15  1  0  0  0  0
 15 16  1  0  0  0  0
 15 34  1  0  0  0  0
 15 35  1  0  0  0  0
 16 21  1  0  0  0  0
 16 17  1  0  0  0  0
 16 36  1  0  0  0  0
 17 18  1  0  0  0  0
 17 37  1  0  0  0  0
 17 38  1  0  0  0  0
 18 19  1  0  0  0  0
 18 39  1  0  0  0  0
 18 40  1  0  0  0  0
 19 20  1  0  0  0  0
 19 41  1  0  0  0  0
 19 42  1  0  0  0  0
 20 21  1  0  0  0  0
 20 43  1  0  0  0  0
 20 44  1  0  0  0  0
M  CHG  1   7   1
M  END
> <s_m_source_file>
AV-unprocessed.smi

> <i_m_source_file_index>
573

> <i_lp_mmshare_version>
43012

> <i_f3d_flags>
0

> <s_epik_input>
W0NIM11bQ0BIXShbT0hdKVtDSDJdW05IXWMobjEpbihjKGMxMilbY0hdW2NIXVtjSF1bY0hdMilbQ0gyXVtDQEBIXTNbQ0gyXVtDSDJdW0NIMl1bQ0gyXU8z

> <s_epik_cmdline>
J2VwaWtfcHl0aG9uJywgJy1waCcsICc3LjAnLCAnLXRuJywgJzgnLCAnLW1hJywgJzIwMCcsICctbWV0YWxfYmluZGluZycsICctaW1hZScsICc8aW5maWxlLm1hZT4nLCAnLW9tYWUnLCAnPG91dGZpbGUubWFlPic=

> <r_epik_Ionization_Penalty>
0.0692245

> <r_epik_Ionization_Penalty_Charging>
0.0692223

> <r_epik_Ionization_Penalty_Neutral>
2.1869e-06

> <r_epik_State_Penalty>
0.0606215

> <r_epik_Charging_Adjusted_Penalty>
0.129844

> <i_epik_Tot_Q>
1

> <i_epik_Tot_abs_Q>
1

> <r_epik_Metal_State_Penalty>
2.77811

> <b_epik_Metal_Only>
0

> <s_lp_Force_Field>
OPLS_2005

> <r_lp_Energy>
22.2685

> <b_lp_Chiralities_Consistent>
1

> <s_lp_Variant>
AV-unprocessed.smi:573-2

> <Gold.Version>
5.8.1

> <Gold.Id.Protein>
6NUR|6NUR_protein|mol2

> <Gold.PLP.Fitness>
49.5160

> <Gold.PLP.PLP>
-43.4099

> <Gold.PLP.part.hbond>
-2.0000

> <Gold.PLP.part.metal>
0.0000

> <Gold.PLP.part.buried>
-5.8536

> <Gold.PLP.part.nonpolar>
-36.2980

> <Gold.PLP.part.repulsive>
0.1522

> <Gold.PLP.ligand.clash>
0.0000

> <Gold.PLP.ligand.torsion>
1.4546

> <Gold.PLP.Chemscore.Hbond>
3.0000

> <Gold.PLP.Chemscore.CHOScore>
0.0000

> <Gold.PLP.Chemscore.Metal>
0.0000

> <Gold.Chemscore.Hbonds>
donor molecule, donor type, donor heavy atom, donor atom, acceptor molecule, acceptor atom, score
      L1  H     3    26       P1  7957  1.00
      L1  H     7    45       P1  8028  2.00

> <Gold.PLP.Chemscore.Internal.Correction>
0.0152

> <Gold.Rescore>
     Score         DG    S(hbond)    S(metal)    S(lipo)     H(rot)  DE(clash)    DE(int)     intcor
     18.49     -19.96       1.96        0.00     113.07       2.07       0.04       1.43       ----

> <Gold.Chemscore.Fitness>
18.4922

> <Gold.Chemscore.DG>
-19.9559

> <Gold.Chemscore.ZeroCoef>
-5.4800

> <Gold.Chemscore.Hbond>
1.9599

> <Gold.Chemscore.Metal>
0.0000

> <Gold.Chemscore.Lipo>
113.0667

> <Gold.Chemscore.Internal_Hbond>
0.0000

> <Gold.Chemscore.DEClash>
0.0385

> <Gold.Chemscore.DEInternal>
1.4251

> <Gold.Chemscore.Rot>
2.0699

> <Gold.Chemscore.Internal.Correction>
   9.000000E+99

> <Gold.Chemscore.Hbonds>
donor molecule, donor type, donor heavy atom, donor atom, acceptor molecule, acceptor atom, score
      L1  H     3    26       P1  7957  0.98
      L1  H     7    45       P1  8028  0.95

> <Gold.Chemscore.Hbond.Weighted>
-6.5461

> <Gold.Chemscore.Metal.Weighted>
-0.0000

> <Gold.Chemscore.Lipo.Weighted>
-13.2288

> <Gold.Chemscore.Internal_Hbond.Weighted>
0.0000

> <Gold.Chemscore.DEClash.Weighted>
0.0385

> <Gold.Chemscore.DEInternal.Weighted>
1.4251

> <Gold.Chemscore.Rot.Weighted>
5.2991

> <Gold.Chemscore.Internal.Correction.Weighted>
   9.000000E+99

> <Gold.Protein.RotatedTorsions>
[ 6907 6896 6895 6894 ] final   17.46 input  -60.11 | X-H torsion
[ 7974 7965 7964 7962 ] final  -29.63 input  175.53 | X-H torsion
[ 8008 7997 7996 7995 ] final -100.71 input   59.86 | X-H torsion
[ 10167 10162 10161 10158 ] final  -99.65 input  -65.29 | X-H torsion
[ 10718 10713 10712 10709 ] final -141.04 input   66.30 | X-H torsion
[ 10763 10752 10751 10750 ] final   81.24 input  -60.55 | X-H torsion
[ 11005 11000 10999 10996 ] final  147.52 input  -57.11 | X-H torsion

> <Gold.Protein.ActiveResidues>
 VAL166  LYS551  ARG553  GLY616  TRP617  ASP618  TYR619  PRO620  LYS621  CYS622 
 ASP623  PHE694  ASN695  SER759  ASP760  ASP761  ALA762  ILE779  LEU786  VAL792 
 PHE793  MET794  SER795  GLU796  ALA797  LYS798  CYS799  TRP800  GLU811  SER814 

> <Gold.Protein.RotatedAtoms>
  151.8500  135.0561  160.0457 H   0  0  0  0  0  0  0  0  0  0  0  0  # atno 6907 bound_to 6896
  152.2743  133.5407  159.5467 H   0  0  0  0  0  0  0  0  0  0  0  0  # atno 6908 bound_to 6896
  150.7164  134.0569  159.3860 H   0  0  0  0  0  0  0  0  0  0  0  0  # atno 6909 bound_to 6896
  146.1202  140.5437  142.8739 H   0  0  0  0  0  0  0  0  0  0  0  0  # atno 7974 bound_to 7965
  154.8325  140.0439  157.1486 H   0  0  0  0  0  0  0  0  0  0  0  0  # atno 8008 bound_to 7997
  154.9137  140.3017  155.5232 H   0  0  0  0  0  0  0  0  0  0  0  0  # atno 8009 bound_to 7997
  156.2988  140.2353  156.4179 H   0  0  0  0  0  0  0  0  0  0  0  0  # atno 8010 bound_to 7997
  140.2602  143.3413  152.0633 H   0  0  0  0  0  0  0  0  0  0  0  0  # atno 10167 bound_to 10162
  156.3294  130.7577  151.1692 H   0  0  0  0  0  0  0  0  0  0  0  0  # atno 10718 bound_to 10713
  153.1100  135.4773  154.9019 H   0  0  0  0  0  0  0  0  0  0  0  0  # atno 10763 bound_to 10752
  154.7471  135.3096  154.8628 H   0  0  0  0  0  0  0  0  0  0  0  0  # atno 10764 bound_to 10752
  153.9219  135.6854  153.4801 H   0  0  0  0  0  0  0  0  0  0  0  0  # atno 10765 bound_to 10752
  140.0883  134.9056  157.1610 H   0  0  0  0  0  0  0  0  0  0  0  0  # atno 11005 bound_to 11000
  144.7590  140.5377  143.6748 LP  0  0  0  0  0  0  0  0  0  0  0  0  # atno 17320 bound_to 7965
  145.5481  139.1476  143.3409 LP  0  0  0  0  0  0  0  0  0  0  0  0  # atno 17321 bound_to 7965
  139.5019  144.6724  151.6211 LP  0  0  0  0  0  0  0  0  0  0  0  0  # atno 17342 bound_to 10162
  140.5972  143.9675  150.6362 LP  0  0  0  0  0  0  0  0  0  0  0  0  # atno 17343 bound_to 10162
  157.7427  131.0485  150.5001 LP  0  0  0  0  0  0  0  0  0  0  0  0  # atno 17370 bound_to 10713
  156.5165  130.4151  149.6273 LP  0  0  0  0  0  0  0  0  0  0  0  0  # atno 17371 bound_to 10713
  140.3389  134.2726  155.7215 LP  0  0  0  0  0  0  0  0  0  0  0  0  # atno 17394 bound_to 11000
  141.2069  133.7819  157.0147 LP  0  0  0  0  0  0  0  0  0  0  0  0  # atno 17395 bound_to 11000

$$$$
