AV-unprocessed.smi:1982|AV-procd|sdf|8021|dock6
  -GOLD-   2272010213D 1   1.00000     0.00000
 Structure written by MMmdl.
 36 37  0  0  0  0  0  0  0  0  1 V2000
  151.8654  145.8851  160.0693 C   0  0  0  0  0  0  0  0  0  0  0  0
  152.2667  144.4416  159.7228 C   0  0  1  0  0  0  0  0  0  0  0  0
  152.3103  143.5436  160.9754 C   0  0  0  0  0  0  0  0  0  0  0  0
  152.8152  142.1325  160.6368 C   0  0  0  0  0  0  0  0  0  0  0  0
  151.9867  141.4914  159.5138 C   0  0  0  0  0  0  0  0  0  0  0  0
  151.9460  142.3912  158.2635 C   0  0  1  0  0  0  0  0  0  0  0  0
  151.1680  141.7395  157.2138 N   0  0  0  0  0  0  0  0  0  0  0  0
  151.4472  140.5486  156.6612 C   0  0  0  0  0  0  0  0  0  0  0  0
  152.3796  139.8315  157.0228 O   0  0  0  0  0  0  0  0  0  0  0  0
  150.5452  140.1079  155.5090 C   0  0  0  0  0  0  0  0  0  0  0  0
  150.7795  138.7146  155.1789 N   0  0  0  0  0  0  0  0  0  0  0  0
  151.8872  138.0803  154.7893 C   0  0  0  0  0  0  0  0  0  0  0  0
  151.6610  136.7946  154.5663 N   0  0  0  0  0  0  0  0  0  0  0  0
  150.3116  136.6588  154.8473 N   0  0  0  0  0  0  0  0  0  0  0  0
  149.7829  137.7948  155.2111 N   0  0  0  0  0  0  0  0  0  0  0  0
  151.4062  143.8104  158.5956 C   0  0  1  0  0  0  0  0  0  0  0  0
  149.8868  143.8320  158.8885 C   0  0  0  0  0  0  0  0  0  0  0  0
  150.8922  145.9302  160.5580 H   0  0  0  0  0  0  0  0  0  0  0  0
  151.8234  146.5075  159.1753 H   0  0  0  0  0  0  0  0  0  0  0  0
  152.5896  146.3359  160.7483 H   0  0  0  0  0  0  0  0  0  0  0  0
  153.2873  144.4984  159.3408 H   0  0  0  0  0  0  0  0  0  0  0  0
  152.9623  143.9877  161.7283 H   0  0  0  0  0  0  0  0  0  0  0  0
  151.3210  143.4819  161.4293 H   0  0  0  0  0  0  0  0  0  0  0  0
  153.8613  142.1844  160.3317 H   0  0  0  0  0  0  0  0  0  0  0  0
  152.7851  141.5034  161.5268 H   0  0  0  0  0  0  0  0  0  0  0  0
  152.4125  140.5199  159.2604 H   0  0  0  0  0  0  0  0  0  0  0  0
  150.9752  141.2964  159.8722 H   0  0  0  0  0  0  0  0  0  0  0  0
  152.9727  142.4917  157.9051 H   0  0  0  0  0  0  0  0  0  0  0  0
  150.3804  142.2555  156.8486 H   0  0  0  0  0  0  0  0  0  0  0  0
  149.4967  140.2318  155.7827 H   0  0  0  0  0  0  0  0  0  0  0  0
  150.7269  140.7283  154.6302 H   0  0  0  0  0  0  0  0  0  0  0  0
  152.8480  138.5575  154.6638 H   0  0  0  0  0  0  0  0  0  0  0  0
  151.5513  144.4254  157.7061 H   0  0  0  0  0  0  0  0  0  0  0  0
  149.6320  143.2572  159.7783 H   0  0  0  0  0  0  0  0  0  0  0  0
  149.3107  143.4226  158.0586 H   0  0  0  0  0  0  0  0  0  0  0  0
  149.5235  144.8480  159.0379 H   0  0  0  0  0  0  0  0  0  0  0  0
  1  2  1  0  0  0  0
  1 18  1  0  0  0  0
  1 19  1  0  0  0  0
  1 20  1  0  0  0  0
  2 16  1  0  0  0  0
  2  3  1  0  0  0  0
  2 21  1  0  0  0  0
  3  4  1  0  0  0  0
  3 22  1  0  0  0  0
  3 23  1  0  0  0  0
  4  5  1  0  0  0  0
  4 24  1  0  0  0  0
  4 25  1  0  0  0  0
  5  6  1  0  0  0  0
  5 26  1  0  0  0  0
  5 27  1  0  0  0  0
  6  7  1  0  0  0  0
  6 16  1  0  0  0  0
  6 28  1  0  0  0  0
  7  8  1  0  0  0  0
  7 29  1  0  0  0  0
  8  9  2  0  0  0  0
  8 10  1  0  0  0  0
 10 11  1  0  0  0  0
 10 30  1  0  0  0  0
 10 31  1  0  0  0  0
 11 15  1  0  0  0  0
 11 12  1  0  0  0  0
 12 13  2  0  0  0  0
 12 32  1  0  0  0  0
 13 14  1  0  0  0  0
 14 15  2  0  0  0  0
 16 17  1  0  0  0  0
 16 33  1  0  0  0  0
 17 34  1  0  0  0  0
 17 35  1  0  0  0  0
 17 36  1  0  0  0  0
M  END
> <s_m_source_file>
AV-unprocessed.smi

> <i_m_source_file_index>
1982

> <i_lp_mmshare_version>
43012

> <i_f3d_flags>
0

> <s_epik_input>
W0NIM11bQ0BASF0xW0NIMl1bQ0gyXVtDSDJdW0NASF0oW0NASF0xW0NIM10pW05IXUMoPU8pW0NIMl1uMltjSF1ubm4y

> <s_epik_cmdline>
J2VwaWtfcHl0aG9uJywgJy1waCcsICc3LjAnLCAnLXRuJywgJzgnLCAnLW1hJywgJzIwMCcsICctbWV0YWxfYmluZGluZycsICctaW1hZScsICc8aW5maWxlLm1hZT4nLCAnLW9tYWUnLCAnPG91dGZpbGUubWFlPic=

> <r_lp_tautomer_probability>
1

> <r_epik_Ionization_Penalty>
5.03816e-07

> <r_epik_Ionization_Penalty_Charging>
0

> <r_epik_Ionization_Penalty_Neutral>
5.03816e-07

> <r_epik_State_Penalty>
-0

> <r_epik_Charging_Adjusted_Penalty>
0

> <i_epik_Tot_Q>
0

> <i_epik_Tot_abs_Q>
0

> <r_epik_Metal_State_Penalty>
-0

> <b_epik_Metal_Only>
0

> <s_lp_Force_Field>
OPLS_2005

> <r_lp_Energy>
14.9892

> <b_lp_Chiralities_Consistent>
1

> <s_lp_Variant>
AV-unprocessed.smi:1982-2

> <Gold.Version>
5.8.1

> <Gold.Id.Protein>
6NUR|6NUR_protein|mol2

> <Gold.PLP.Fitness>
44.2464

> <Gold.PLP.PLP>
-38.5040

> <Gold.PLP.part.hbond>
-2.0000

> <Gold.PLP.part.metal>
0.0000

> <Gold.PLP.part.buried>
-5.1682

> <Gold.PLP.part.nonpolar>
-32.4440

> <Gold.PLP.part.repulsive>
0.5507

> <Gold.PLP.ligand.clash>
0.0000

> <Gold.PLP.ligand.torsion>
0.1358

> <Gold.PLP.Chemscore.Hbond>
2.0000

> <Gold.PLP.Chemscore.CHOScore>
0.0000

> <Gold.PLP.Chemscore.Metal>
0.0000

> <Gold.Chemscore.Hbonds>
donor molecule, donor type, donor heavy atom, donor atom, acceptor molecule, acceptor atom, score
      P1  H  7997  8009       L1     9  0.96
      P1  H 10752 10763       L1    13  1.00

> <Gold.PLP.Chemscore.Internal.Correction>
0.0140

> <Gold.Rescore>
     Score         DG    S(hbond)    S(metal)    S(lipo)     H(rot)  DE(clash)    DE(int)     intcor
     16.13     -17.76       1.98        0.00      90.27       1.91       0.01       1.62       ----

> <Gold.Chemscore.Fitness>
16.1304

> <Gold.Chemscore.DG>
-17.7641

> <Gold.Chemscore.ZeroCoef>
-5.4800

> <Gold.Chemscore.Hbond>
1.9763

> <Gold.Chemscore.Metal>
0.0000

> <Gold.Chemscore.Lipo>
90.2746

> <Gold.Chemscore.Internal_Hbond>
0.0000

> <Gold.Chemscore.DEClash>
0.0122

> <Gold.Chemscore.DEInternal>
1.6216

> <Gold.Chemscore.Rot>
1.9058

> <Gold.Chemscore.Internal.Correction>
   9.000000E+99

> <Gold.Chemscore.Hbonds>
donor molecule, donor type, donor heavy atom, donor atom, acceptor molecule, acceptor atom, score
      P1  H  7997  8009       L1     9  0.91
      P1  H 10752 10763       L1    13  0.99

> <Gold.Chemscore.Hbond.Weighted>
-6.6008

> <Gold.Chemscore.Metal.Weighted>
-0.0000

> <Gold.Chemscore.Lipo.Weighted>
-10.5621

> <Gold.Chemscore.Internal_Hbond.Weighted>
0.0000

> <Gold.Chemscore.DEClash.Weighted>
0.0122

> <Gold.Chemscore.DEInternal.Weighted>
1.6216

> <Gold.Chemscore.Rot.Weighted>
4.8788

> <Gold.Chemscore.Internal.Correction.Weighted>
   9.000000E+99

> <Gold.Protein.RotatedTorsions>
[ 6907 6896 6895 6894 ] final   81.66 input  -60.11 | X-H torsion
[ 7974 7965 7964 7962 ] final   13.84 input  175.53 | X-H torsion
[ 8008 7997 7996 7995 ] final -173.06 input   59.86 | X-H torsion
[ 10167 10162 10161 10158 ] final  154.05 input  -65.29 | X-H torsion
[ 10718 10713 10712 10709 ] final  124.51 input   66.30 | X-H torsion
[ 10763 10752 10751 10750 ] final   46.01 input  -60.55 | X-H torsion
[ 11005 11000 10999 10996 ] final  -61.13 input  -57.11 | X-H torsion

> <Gold.Protein.ActiveResidues>
 VAL166  LYS551  ARG553  GLY616  TRP617  ASP618  TYR619  PRO620  LYS621  CYS622 
 ASP623  PHE694  ASN695  SER759  ASP760  ASP761  ALA762  ILE779  LEU786  VAL792 
 PHE793  MET794  SER795  GLU796  ALA797  LYS798  CYS799  TRP800  GLU811  SER814 

> <Gold.Protein.RotatedAtoms>
  152.5275  134.3169  159.9133 H   0  0  0  0  0  0  0  0  0  0  0  0  # atno 6907 bound_to 6896
  151.3118  133.4071  159.2655 H   0  0  0  0  0  0  0  0  0  0  0  0  # atno 6908 bound_to 6896
  151.0032  134.9355  159.8023 H   0  0  0  0  0  0  0  0  0  0  0  0  # atno 6909 bound_to 6896
  146.2319  139.9129  142.8521 H   0  0  0  0  0  0  0  0  0  0  0  0  # atno 7974 bound_to 7965
  155.9526  140.1129  157.0964 H   0  0  0  0  0  0  0  0  0  0  0  0  # atno 8008 bound_to 7997
  154.4113  140.1197  156.5139 H   0  0  0  0  0  0  0  0  0  0  0  0  # atno 8009 bound_to 7997
  155.6823  140.3473  155.4862 H   0  0  0  0  0  0  0  0  0  0  0  0  # atno 8010 bound_to 7997
  139.4824  144.5220  151.7861 H   0  0  0  0  0  0  0  0  0  0  0  0  # atno 10167 bound_to 10162
  157.5579  131.1091  150.8589 H   0  0  0  0  0  0  0  0  0  0  0  0  # atno 10718 bound_to 10713
  152.9816  135.6021  154.3530 H   0  0  0  0  0  0  0  0  0  0  0  0  # atno 10763 bound_to 10752
  154.3218  135.2769  155.2518 H   0  0  0  0  0  0  0  0  0  0  0  0  # atno 10764 bound_to 10752
  154.4681  135.5949  153.6358 H   0  0  0  0  0  0  0  0  0  0  0  0  # atno 10765 bound_to 10752
  141.1313  133.6627  156.5329 H   0  0  0  0  0  0  0  0  0  0  0  0  # atno 11005 bound_to 11000
  145.2212  140.9936  143.4044 LP  0  0  0  0  0  0  0  0  0  0  0  0  # atno 17320 bound_to 7965
  144.9608  139.3981  143.6356 LP  0  0  0  0  0  0  0  0  0  0  0  0  # atno 17321 bound_to 7965
  140.4735  144.1552  150.5921 LP  0  0  0  0  0  0  0  0  0  0  0  0  # atno 17342 bound_to 10162
  140.4356  143.2549  151.9540 LP  0  0  0  0  0  0  0  0  0  0  0  0  # atno 17343 bound_to 10162
  156.9095  130.5275  149.5280 LP  0  0  0  0  0  0  0  0  0  0  0  0  # atno 17370 bound_to 10713
  156.0636  130.5683  150.9242 LP  0  0  0  0  0  0  0  0  0  0  0  0  # atno 17371 bound_to 10713
  140.4201  134.7194  157.4885 LP  0  0  0  0  0  0  0  0  0  0  0  0  # atno 17394 bound_to 11000
  140.0365  134.6329  155.9036 LP  0  0  0  0  0  0  0  0  0  0  0  0  # atno 17395 bound_to 11000

$$$$
