AV-unprocessed.smi:1417|AV-procd|sdf|5768|dock10
  -GOLD-   22720 5413D 1   1.00000     0.00000
 Structure written by MMmdl.
 38 39  0  0  0  0  0  0  0  0  2 V2000
  154.1111  141.3839  160.7529 C   0  0  0  0  0  0  0  0  0  0  0  0
  152.9482  141.9763  160.0328 C   0  0  0  0  0  0  0  0  0  0  0  0
  152.5436  141.9295  158.7289 C   0  0  0  0  0  0  0  0  0  0  0  0
  151.3608  142.7184  158.7267 C   0  0  0  0  0  0  0  0  0  0  0  0
  150.5809  142.9668  157.6632 N   0  5  0  0  0  0  0  0  0  0  0  0
  150.4340  142.0339  156.6939 C   0  0  0  0  0  0  0  0  0  0  0  0
  151.0982  141.0026  156.5659 O   0  0  0  0  0  0  0  0  0  0  0  0
  149.4558  142.3127  155.8197 N   0  0  0  0  0  0  0  0  0  0  0  0
  149.0649  141.4903  154.6776 C   0  0  0  0  0  0  0  0  0  0  0  0
  147.6947  141.9216  154.1314 C   0  0  0  0  0  0  0  0  0  0  0  0
  147.2186  140.9783  153.0119 C   0  0  0  0  0  0  0  0  0  0  0  0
  147.1535  139.5892  153.4920 N   0  0  0  0  0  0  0  0  0  0  0  0
  146.6491  138.6574  152.4571 C   0  0  0  0  0  0  0  0  0  0  0  0
  145.9587  137.4039  153.0062 C   0  0  0  0  0  0  0  0  0  0  0  0
  146.5247  136.2272  152.7259 N   0  0  0  0  0  0  0  0  0  0  0  0
  144.9268  137.4978  153.6671 O   0  0  0  0  0  0  0  0  0  0  0  0
  148.4790  139.1427  153.9341 C   0  0  0  0  0  0  0  0  0  0  0  0
  148.9895  140.0156  155.0935 C   0  0  0  0  0  0  0  0  0  0  0  0
  151.0637  143.1867  159.9274 N   0  0  0  0  0  0  0  0  0  0  0  0
  152.0807  142.7210  160.7695 O   0  0  0  0  0  0  0  0  0  0  0  0
  154.0857  140.2957  160.6958 H   0  0  0  0  0  0  0  0  0  0  0  0
  154.1083  141.6671  161.8058 H   0  0  0  0  0  0  0  0  0  0  0  0
  155.0492  141.7244  160.3145 H   0  0  0  0  0  0  0  0  0  0  0  0
  153.0193  141.4178  157.9060 H   0  0  0  0  0  0  0  0  0  0  0  0
  148.9406  143.1692  155.9620 H   0  0  0  0  0  0  0  0  0  0  0  0
  149.8128  141.5851  153.8877 H   0  0  0  0  0  0  0  0  0  0  0  0
  146.9585  141.9294  154.9368 H   0  0  0  0  0  0  0  0  0  0  0  0
  147.7466  142.9428  153.7519 H   0  0  0  0  0  0  0  0  0  0  0  0
  146.2397  141.3211  152.6769 H   0  0  0  0  0  0  0  0  0  0  0  0
  147.8872  141.0474  152.1520 H   0  0  0  0  0  0  0  0  0  0  0  0
  145.9578  139.1821  151.7947 H   0  0  0  0  0  0  0  0  0  0  0  0
  147.4790  138.3222  151.8332 H   0  0  0  0  0  0  0  0  0  0  0  0
  146.0995  135.3745  153.0599 H   0  0  0  0  0  0  0  0  0  0  0  0
  147.3698  136.1948  152.1746 H   0  0  0  0  0  0  0  0  0  0  0  0
  148.4267  138.1070  154.2720 H   0  0  0  0  0  0  0  0  0  0  0  0
  149.1862  139.1696  153.1031 H   0  0  0  0  0  0  0  0  0  0  0  0
  149.9728  139.6669  155.4113 H   0  0  0  0  0  0  0  0  0  0  0  0
  148.3276  139.9018  155.9537 H   0  0  0  0  0  0  0  0  0  0  0  0
  1  2  1  0  0  0  0
  1 21  1  0  0  0  0
  1 22  1  0  0  0  0
  1 23  1  0  0  0  0
  2 20  1  0  0  0  0
  2  3  2  0  0  0  0
  3  4  1  0  0  0  0
  3 24  1  0  0  0  0
  4  5  1  0  0  0  0
  4 19  2  0  0  0  0
  5  6  1  0  0  0  0
  6  7  2  0  0  0  0
  6  8  1  0  0  0  0
  8  9  1  0  0  0  0
  8 25  1  0  0  0  0
  9 18  1  0  0  0  0
  9 10  1  0  0  0  0
  9 26  1  0  0  0  0
 10 11  1  0  0  0  0
 10 27  1  0  0  0  0
 10 28  1  0  0  0  0
 11 12  1  0  0  0  0
 11 29  1  0  0  0  0
 11 30  1  0  0  0  0
 12 13  1  0  0  0  0
 12 17  1  0  0  0  0
 13 14  1  0  0  0  0
 13 31  1  0  0  0  0
 13 32  1  0  0  0  0
 14 15  1  0  0  0  0
 14 16  2  0  0  0  0
 15 33  1  0  0  0  0
 15 34  1  0  0  0  0
 17 18  1  0  0  0  0
 17 35  1  0  0  0  0
 17 36  1  0  0  0  0
 18 37  1  0  0  0  0
 18 38  1  0  0  0  0
 19 20  1  0  0  0  0
M  CHG  1   5  -1
M  END
> <s_m_source_file>
AV-unprocessed.smi

> <i_m_source_file_index>
1417

> <i_lp_mmshare_version>
43012

> <i_f3d_flags>
0

> <s_epik_input>
W0NIM11jMVtjSF1jKG5vMSlbTkhdQyg9TylbTkhdW0NIXTJbQ0gyXVtDSDJdTihbQ0gyXVtDSDJdMilbQ0gyXUMoPU8pW05IMl0=

> <s_epik_cmdline>
J2VwaWtfcHl0aG9uJywgJy1waCcsICc3LjAnLCAnLXRuJywgJzgnLCAnLW1hJywgJzIwMCcsICctbWV0YWxfYmluZGluZycsICctaW1hZScsICc8aW5maWxlLm1hZT4nLCAnLW9tYWUnLCAnPG91dGZpbGUubWFlPic=

> <r_epik_Ionization_Penalty>
6.76533

> <r_epik_Ionization_Penalty_Charging>
6.59228

> <r_epik_Ionization_Penalty_Neutral>
0.17305

> <r_epik_State_Penalty>
6.73737

> <r_epik_Charging_Adjusted_Penalty>
13.3296

> <i_epik_Tot_Q>
-1

> <i_epik_Tot_abs_Q>
1

> <r_epik_Metal_State_Penalty>
2.67929

> <b_epik_Metal_Only>
1

> <s_lp_Force_Field>
OPLS_2005

> <r_lp_Energy>
4.40981

> <b_lp_Chiralities_Consistent>
1

> <s_lp_Variant>
AV-unprocessed.smi:1417-4

> <Gold.Version>
5.8.1

> <Gold.Id.Protein>
6NUR|6NUR_protein|mol2

> <Gold.PLP.Fitness>
39.3084

> <Gold.PLP.PLP>
-34.9375

> <Gold.PLP.part.hbond>
-3.3931

> <Gold.PLP.part.metal>
0.0000

> <Gold.PLP.part.buried>
-5.4206

> <Gold.PLP.part.nonpolar>
-27.3133

> <Gold.PLP.part.repulsive>
0.7725

> <Gold.PLP.ligand.clash>
0.0000

> <Gold.PLP.ligand.torsion>
0.7478

> <Gold.PLP.Chemscore.Hbond>
1.9440

> <Gold.PLP.Chemscore.CHOScore>
0.0000

> <Gold.PLP.Chemscore.Metal>
0.0000

> <Gold.Chemscore.Hbonds>
donor molecule, donor type, donor heavy atom, donor atom, acceptor molecule, acceptor atom, score
      L1  H     8    25       P1  8028  0.91
      L1  H    15    34       P1  7948  1.00

> <Gold.PLP.Chemscore.Internal.Correction>
0.0345

> <Gold.Rescore>
     Score         DG    S(hbond)    S(metal)    S(lipo)     H(rot)  DE(clash)    DE(int)     intcor
     11.37     -15.01       1.91        0.00      70.72       2.00       0.00       3.64       ----

> <Gold.Chemscore.Fitness>
11.3692

> <Gold.Chemscore.DG>
-15.0132

> <Gold.Chemscore.ZeroCoef>
-5.4800

> <Gold.Chemscore.Hbond>
1.9076

> <Gold.Chemscore.Metal>
0.0000

> <Gold.Chemscore.Lipo>
70.7245

> <Gold.Chemscore.Internal_Hbond>
0.0000

> <Gold.Chemscore.DEClash>
0.0000

> <Gold.Chemscore.DEInternal>
3.6440

> <Gold.Chemscore.Rot>
1.9973

> <Gold.Chemscore.Internal.Correction>
   9.000000E+99

> <Gold.Chemscore.Hbonds>
donor molecule, donor type, donor heavy atom, donor atom, acceptor molecule, acceptor atom, score
      L1  H     8    25       P1  8028  0.87
      L1  H    15    34       P1  7948  0.98

> <Gold.Chemscore.Hbond.Weighted>
-6.3715

> <Gold.Chemscore.Metal.Weighted>
-0.0000

> <Gold.Chemscore.Lipo.Weighted>
-8.2748

> <Gold.Chemscore.Internal_Hbond.Weighted>
0.0000

> <Gold.Chemscore.DEClash.Weighted>
0.0000

> <Gold.Chemscore.DEInternal.Weighted>
3.6440

> <Gold.Chemscore.Rot.Weighted>
5.1131

> <Gold.Chemscore.Internal.Correction.Weighted>
   9.000000E+99

> <Gold.Protein.RotatedTorsions>
[ 6907 6896 6895 6894 ] final   25.85 input  -60.11 | X-H torsion
[ 7974 7965 7964 7962 ] final  161.30 input  175.53 | X-H torsion
[ 8008 7997 7996 7995 ] final   99.22 input   59.86 | X-H torsion
[ 10167 10162 10161 10158 ] final  139.69 input  -65.29 | X-H torsion
[ 10718 10713 10712 10709 ] final -139.33 input   66.30 | X-H torsion
[ 10763 10752 10751 10750 ] final -131.56 input  -60.55 | X-H torsion
[ 11005 11000 10999 10996 ] final  114.34 input  -57.11 | X-H torsion

> <Gold.Protein.ActiveResidues>
 VAL166  LYS551  ARG553  GLY616  TRP617  ASP618  TYR619  PRO620  LYS621  CYS622 
 ASP623  PHE694  ASN695  SER759  ASP760  ASP761  ALA762  ILE779  LEU786  VAL792 
 PHE793  MET794  SER795  GLU796  ALA797  LYS798  CYS799  TRP800  GLU811  SER814 

> <Gold.Protein.RotatedAtoms>
  151.9787  135.0039  160.0556 H   0  0  0  0  0  0  0  0  0  0  0  0  # atno 6907 bound_to 6896
  152.1716  133.4643  159.4920 H   0  0  0  0  0  0  0  0  0  0  0  0  # atno 6908 bound_to 6896
  150.6902  134.1863  159.4311 H   0  0  0  0  0  0  0  0  0  0  0  0  # atno 6909 bound_to 6896
  144.7693  139.7879  143.6303 H   0  0  0  0  0  0  0  0  0  0  0  0  # atno 7974 bound_to 7965
  156.1083  140.3232  155.8037 H   0  0  0  0  0  0  0  0  0  0  0  0  # atno 8008 bound_to 7997
  155.4717  140.0547  157.2996 H   0  0  0  0  0  0  0  0  0  0  0  0  # atno 8009 bound_to 7997
  154.4743  140.2025  155.9932 H   0  0  0  0  0  0  0  0  0  0  0  0  # atno 8010 bound_to 7997
  139.5071  144.6279  151.5891 H   0  0  0  0  0  0  0  0  0  0  0  0  # atno 10167 bound_to 10162
  156.3096  130.7474  151.1546 H   0  0  0  0  0  0  0  0  0  0  0  0  # atno 10718 bound_to 10713
  154.8750  135.3826  154.4266 H   0  0  0  0  0  0  0  0  0  0  0  0  # atno 10763 bound_to 10752
  153.4964  135.7030  153.5861 H   0  0  0  0  0  0  0  0  0  0  0  0  # atno 10764 bound_to 10752
  153.4212  135.3901  155.2079 H   0  0  0  0  0  0  0  0  0  0  0  0  # atno 10765 bound_to 10752
  139.8978  134.9566  156.6878 H   0  0  0  0  0  0  0  0  0  0  0  0  # atno 11005 bound_to 11000
  146.1826  139.5026  142.9857 LP  0  0  0  0  0  0  0  0  0  0  0  0  # atno 17320 bound_to 7965
  145.6374  141.0291  143.1830 LP  0  0  0  0  0  0  0  0  0  0  0  0  # atno 17321 bound_to 7965
  140.6002  143.9623  150.6381 LP  0  0  0  0  0  0  0  0  0  0  0  0  # atno 17342 bound_to 10162
  140.2832  143.3375  152.1131 LP  0  0  0  0  0  0  0  0  0  0  0  0  # atno 17343 bound_to 10162
  157.7388  131.0537  150.5274 LP  0  0  0  0  0  0  0  0  0  0  0  0  # atno 17370 bound_to 10713
  156.5412  130.4208  149.6153 LP  0  0  0  0  0  0  0  0  0  0  0  0  # atno 17371 bound_to 10713
  140.7249  133.9109  155.8172 LP  0  0  0  0  0  0  0  0  0  0  0  0  # atno 17394 bound_to 11000
  141.0199  134.0904  157.4132 LP  0  0  0  0  0  0  0  0  0  0  0  0  # atno 17395 bound_to 11000

$$$$
