AV-unprocessed.smi:155|AV-procd|sdf|1284|dock2
  -GOLD-   2262018553D 1   1.00000     0.00000
 Structure written by MMmdl.
 64 67  0  0  0  0  0  0  0  0  3 V2000
  145.3604  131.9386  150.9956 C   0  0  0  0  0  0  0  0  0  0  0  0
  146.4347  131.3882  151.8546 N   0  3  0  0  0  0  0  0  0  0  0  0
  146.0838  130.0441  152.3657 C   0  0  0  0  0  0  0  0  0  0  0  0
  146.8483  132.3087  152.9446 C   0  0  0  0  0  0  0  0  0  0  0  0
  148.1640  133.0563  152.6247 C   0  0  0  0  0  0  0  0  0  0  0  0
  148.4101  134.2428  153.4878 N   0  3  1  0  0  0  0  0  0  0  0  0
  147.1718  134.7893  154.0958 C   0  0  0  0  0  0  0  0  0  0  0  0
  147.3212  136.2586  154.5120 C   0  0  0  0  0  0  0  0  0  0  0  0
  148.3632  136.5022  155.6141 C   0  0  0  0  0  0  0  0  0  0  0  0
  149.7292  136.5069  155.0837 N   0  0  0  0  0  0  0  0  0  0  0  0
  150.5770  137.4801  155.5072 C   0  0  0  0  0  0  0  0  0  0  0  0
  151.8599  137.1604  155.8248 N   0  0  0  0  0  0  0  0  0  0  0  0
  152.7138  138.1076  156.2248 C   0  0  0  0  0  0  0  0  0  0  0  0
  152.4985  139.4159  156.3736 N   0  0  0  0  0  0  0  0  0  0  0  0
  151.2141  139.7440  156.0566 C   0  0  0  0  0  0  0  0  0  0  0  0
  150.1978  138.8488  155.6172 C   0  0  0  0  0  0  0  0  0  0  0  0
  149.0159  139.5485  155.4006 N   0  0  0  0  0  0  0  0  0  0  0  0
  149.3179  140.7852  155.6882 C   0  0  0  0  0  0  0  0  0  0  0  0
  150.6191  140.9924  156.0852 N   0  0  0  0  0  0  0  0  0  0  0  0
  151.2239  142.2581  156.4597 C   0  0  0  0  0  0  0  0  0  0  0  0
  150.9779  142.6302  157.9370 C   0  0  2  0  0  0  0  0  0  0  0  0
  150.3824  143.9123  157.9560 O   0  0  0  0  0  0  0  0  0  0  0  0
  152.2542  142.6164  158.8101 C   0  0  1  0  0  0  0  0  0  0  0  0
  152.1269  143.1620  160.2357 C   0  0  0  0  0  0  0  0  0  0  0  0
  153.2780  142.4609  160.9214 C   0  0  0  0  0  0  0  0  0  0  0  0
  153.2383  141.0832  160.2643 C   0  0  0  0  0  0  0  0  0  0  0  0
  152.7808  141.2982  158.9317 O   0  0  0  0  0  0  0  0  0  0  0  0
  150.3968  135.2876  154.6197 C   0  0  0  0  0  0  0  0  0  0  0  0
  149.5030  134.0441  154.4743 C   0  0  0  0  0  0  0  0  0  0  0  0
  144.4602  132.1430  151.5769 H   0  0  0  0  0  0  0  0  0  0  0  0
  145.1004  131.2323  150.2063 H   0  0  0  0  0  0  0  0  0  0  0  0
  145.6721  132.8618  150.5081 H   0  0  0  0  0  0  0  0  0  0  0  0
  145.2262  130.0932  153.0381 H   0  0  0  0  0  0  0  0  0  0  0  0
  146.9207  129.6032  152.9086 H   0  0  0  0  0  0  0  0  0  0  0  0
  145.8354  129.3706  151.5446 H   0  0  0  0  0  0  0  0  0  0  0  0
  146.0400  133.0099  153.1568 H   0  0  0  0  0  0  0  0  0  0  0  0
  146.9890  131.7172  153.8501 H   0  0  0  0  0  0  0  0  0  0  0  0
  149.0114  132.3762  152.7244 H   0  0  0  0  0  0  0  0  0  0  0  0
  148.1696  133.3874  151.5860 H   0  0  0  0  0  0  0  0  0  0  0  0
  146.3610  134.7293  153.3683 H   0  0  0  0  0  0  0  0  0  0  0  0
  146.8643  134.1813  154.9480 H   0  0  0  0  0  0  0  0  0  0  0  0
  147.5394  136.8817  153.6433 H   0  0  0  0  0  0  0  0  0  0  0  0
  146.3530  136.5972  154.8823 H   0  0  0  0  0  0  0  0  0  0  0  0
  148.1319  137.4693  156.0623 H   0  0  0  0  0  0  0  0  0  0  0  0
  148.2703  135.7661  156.4133 H   0  0  0  0  0  0  0  0  0  0  0  0
  153.7129  137.7690  156.4575 H   0  0  0  0  0  0  0  0  0  0  0  0
  148.5961  141.5857  155.6138 H   0  0  0  0  0  0  0  0  0  0  0  0
  152.2943  142.1998  156.2573 H   0  0  0  0  0  0  0  0  0  0  0  0
  150.8252  143.0325  155.8030 H   0  0  0  0  0  0  0  0  0  0  0  0
  150.2604  141.9247  158.3578 H   0  0  0  0  0  0  0  0  0  0  0  0
  150.1019  144.1259  157.0794 H   0  0  0  0  0  0  0  0  0  0  0  0
  153.0412  143.1780  158.3053 H   0  0  0  0  0  0  0  0  0  0  0  0
  152.1996  144.2487  160.2816 H   0  0  0  0  0  0  0  0  0  0  0  0
  151.1878  142.8625  160.7017 H   0  0  0  0  0  0  0  0  0  0  0  0
  154.2175  142.9632  160.6864 H   0  0  0  0  0  0  0  0  0  0  0  0
  153.1726  142.4198  162.0058 H   0  0  0  0  0  0  0  0  0  0  0  0
  154.2082  140.5856  160.2787 H   0  0  0  0  0  0  0  0  0  0  0  0
  152.5207  140.4402  160.7754 H   0  0  0  0  0  0  0  0  0  0  0  0
  150.8557  135.4878  153.6519 H   0  0  0  0  0  0  0  0  0  0  0  0
  151.2137  135.0530  155.3042 H   0  0  0  0  0  0  0  0  0  0  0  0
  149.1057  133.7277  155.4400 H   0  0  0  0  0  0  0  0  0  0  0  0
  150.1488  133.2295  154.1437 H   0  0  0  0  0  0  0  0  0  0  0  0
  147.2423  131.2564  151.2618 H   0  0  0  0  0  0  0  0  0  0  0  0
  148.7439  134.9537  152.8519 H   0  0  0  0  0  0  0  0  0  0  0  0
  1  2  1  0  0  0  0
  1 30  1  0  0  0  0
  1 31  1  0  0  0  0
  1 32  1  0  0  0  0
  2  3  1  0  0  0  0
  2  4  1  0  0  0  0
  2 63  1  0  0  0  0
  3 33  1  0  0  0  0
  3 34  1  0  0  0  0
  3 35  1  0  0  0  0
  4  5  1  0  0  0  0
  4 36  1  0  0  0  0
  4 37  1  0  0  0  0
  5  6  1  0  0  0  0
  5 38  1  0  0  0  0
  5 39  1  0  0  0  0
  6 29  1  0  0  0  0
  6  7  1  0  0  0  0
  6 64  1  0  0  0  0
  7  8  1  0  0  0  0
  7 40  1  0  0  0  0
  7 41  1  0  0  0  0
  8  9  1  0  0  0  0
  8 42  1  0  0  0  0
  8 43  1  0  0  0  0
  9 10  1  0  0  0  0
  9 44  1  0  0  0  0
  9 45  1  0  0  0  0
 10 11  1  0  0  0  0
 10 28  1  0  0  0  0
 11 16  1  0  0  0  0
 11 12  2  0  0  0  0
 12 13  1  0  0  0  0
 13 14  2  0  0  0  0
 13 46  1  0  0  0  0
 14 15  1  0  0  0  0
 15 19  1  0  0  0  0
 15 16  2  0  0  0  0
 16 17  1  0  0  0  0
 17 18  2  0  0  0  0
 18 19  1  0  0  0  0
 18 47  1  0  0  0  0
 19 20  1  0  0  0  0
 20 21  1  0  0  0  0
 20 48  1  0  0  0  0
 20 49  1  0  0  0  0
 21 22  1  0  0  0  0
 21 23  1  0  0  0  0
 21 50  1  0  0  0  0
 22 51  1  0  0  0  0
 23 27  1  0  0  0  0
 23 24  1  0  0  0  0
 23 52  1  0  0  0  0
 24 25  1  0  0  0  0
 24 53  1  0  0  0  0
 24 54  1  0  0  0  0
 25 26  1  0  0  0  0
 25 55  1  0  0  0  0
 25 56  1  0  0  0  0
 26 27  1  0  0  0  0
 26 57  1  0  0  0  0
 26 58  1  0  0  0  0
 28 29  1  0  0  0  0
 28 59  1  0  0  0  0
 28 60  1  0  0  0  0
 29 61  1  0  0  0  0
 29 62  1  0  0  0  0
M  CHG  1   2   1
M  CHG  1   6   1
M  END
> <s_m_source_file>
AV-unprocessed.smi

> <i_m_source_file_index>
155

> <i_lp_mmshare_version>
43012

> <i_f3d_flags>
0

> <s_epik_input>
W0NIM11OKFtDSDNdKVtDSDJdW0NIMl1OMVtDSDJdW0NIMl1bQ0gyXU4oW0NIMl1bQ0gyXTEpYyhuW2NIXW4yKWMoYzIzKW5bY0hdbjNbQ0gyXVtDQEhdKFtPSF0pW0NAQEhdNFtDSDJdW0NIMl1bQ0gyXU80

> <s_epik_cmdline>
J2VwaWtfcHl0aG9uJywgJy1waCcsICc3LjAnLCAnLXRuJywgJzgnLCAnLW1hJywgJzIwMCcsICctbWV0YWxfYmluZGluZycsICctaW1hZScsICc8aW5maWxlLm1hZT4nLCAnLW9tYWUnLCAnPG91dGZpbGUubWFlPic=

> <r_lp_tautomer_probability>
1

> <r_epik_Ionization_Penalty>
3.0333

> <r_epik_Ionization_Penalty_Charging>
3.03317

> <r_epik_Ionization_Penalty_Neutral>
0.000131872

> <r_epik_State_Penalty>
1.99939

> <r_epik_Charging_Adjusted_Penalty>
5.03256

> <i_epik_Tot_Q>
2

> <i_epik_Tot_abs_Q>
2

> <r_epik_Metal_State_Penalty>
2.00021

> <b_epik_Metal_Only>
0

> <s_lp_Force_Field>
OPLS_2005

> <r_lp_Energy>
68.1254

> <b_lp_Chiralities_Consistent>
1

> <s_lp_Variant>
AV-unprocessed.smi:155-18

> <Gold.Version>
5.8.1

> <Gold.Id.Protein>
6NUR|6NUR_protein|mol2

> <Gold.PLP.Fitness>
59.1154

> <Gold.PLP.PLP>
-47.6148

> <Gold.PLP.part.hbond>
-4.9405

> <Gold.PLP.part.metal>
0.0000

> <Gold.PLP.part.buried>
-6.1057

> <Gold.PLP.part.nonpolar>
-38.0059

> <Gold.PLP.part.repulsive>
0.0571

> <Gold.PLP.ligand.clash>
0.0000

> <Gold.PLP.ligand.torsion>
2.8632

> <Gold.PLP.Chemscore.Hbond>
5.6413

> <Gold.PLP.Chemscore.CHOScore>
0.0000

> <Gold.PLP.Chemscore.Metal>
0.0000

> <Gold.Chemscore.Hbonds>
donor molecule, donor type, donor heavy atom, donor atom, acceptor molecule, acceptor atom, score
      L1  H     2    63       P1 10747  0.99
      L1  H     6    64       P1  7948  2.00
      L1  H    22    51       P1  8028  1.00
      P1  H  7997  8010       L1    14  1.00
      P1  H 10752 10763       L1    12  0.54

> <Gold.PLP.Chemscore.Internal.Correction>
0.3033

> <Gold.Rescore>
     Score         DG    S(hbond)    S(metal)    S(lipo)     H(rot)  DE(clash)    DE(int)     intcor
     18.15     -21.49       2.95        0.00     112.72       2.75       0.32       3.02       ----

> <Gold.Chemscore.Fitness>
18.1458

> <Gold.Chemscore.DG>
-21.4871

> <Gold.Chemscore.ZeroCoef>
-5.4800

> <Gold.Chemscore.Hbond>
2.9511

> <Gold.Chemscore.Metal>
0.0000

> <Gold.Chemscore.Lipo>
112.7240

> <Gold.Chemscore.Internal_Hbond>
0.0000

> <Gold.Chemscore.DEClash>
0.3239

> <Gold.Chemscore.DEInternal>
3.0175

> <Gold.Chemscore.Rot>
2.7493

> <Gold.Chemscore.Internal.Correction>
   9.000000E+99

> <Gold.Chemscore.Hbonds>
donor molecule, donor type, donor heavy atom, donor atom, acceptor molecule, acceptor atom, score
      L1  H     2    63       P1 10747  0.92
      L1  H     6    64       P1  7948  0.25
      L1  H    22    51       P1  8028  0.86
      P1  H  7997  8010       L1    14  0.29
      P1  H 10752 10763       L1    12  0.34

> <Gold.Chemscore.Hbond.Weighted>
-9.8567

> <Gold.Chemscore.Metal.Weighted>
-0.0000

> <Gold.Chemscore.Lipo.Weighted>
-13.1887

> <Gold.Chemscore.Internal_Hbond.Weighted>
0.0000

> <Gold.Chemscore.DEClash.Weighted>
0.3239

> <Gold.Chemscore.DEInternal.Weighted>
3.0175

> <Gold.Chemscore.Rot.Weighted>
7.0383

> <Gold.Chemscore.Internal.Correction.Weighted>
   9.000000E+99

> <Gold.Protein.RotatedTorsions>
[ 6907 6896 6895 6894 ] final -144.96 input  -60.11 | X-H torsion
[ 7974 7965 7964 7962 ] final -109.34 input  175.53 | X-H torsion
[ 8008 7997 7996 7995 ] final   83.61 input   59.86 | X-H torsion
[ 10167 10162 10161 10158 ] final  147.63 input  -65.29 | X-H torsion
[ 10718 10713 10712 10709 ] final   96.35 input   66.30 | X-H torsion
[ 10763 10752 10751 10750 ] final   72.93 input  -60.55 | X-H torsion
[ 11005 11000 10999 10996 ] final  -41.88 input  -57.11 | X-H torsion

> <Gold.Protein.ActiveResidues>
 VAL166  LYS551  ARG553  GLY616  TRP617  ASP618  TYR619  PRO620  LYS621  CYS622 
 ASP623  PHE694  ASN695  SER759  ASP760  ASP761  ALA762  ILE779  LEU786  VAL792 
 PHE793  MET794  SER795  GLU796  ALA797  LYS798  CYS799  TRP800  GLU811  SER814 

> <Gold.Protein.RotatedAtoms>
  151.1212  133.5103  159.2601 H   0  0  0  0  0  0  0  0  0  0  0  0  # atno 6907 bound_to 6896
  151.1859  135.0381  159.8822 H   0  0  0  0  0  0  0  0  0  0  0  0  # atno 6908 bound_to 6896
  152.5456  134.1058  159.8391 H   0  0  0  0  0  0  0  0  0  0  0  0  # atno 6909 bound_to 6896
  145.1817  140.8974  143.3476 H   0  0  0  0  0  0  0  0  0  0  0  0  # atno 7974 bound_to 7965
  155.9261  140.3418  155.6212 H   0  0  0  0  0  0  0  0  0  0  0  0  # atno 8008 bound_to 7997
  155.7214  140.0784  157.2347 H   0  0  0  0  0  0  0  0  0  0  0  0  # atno 8009 bound_to 7997
  154.4077  140.1605  156.2393 H   0  0  0  0  0  0  0  0  0  0  0  0  # atno 8010 bound_to 7997
  139.4887  144.5741  151.6999 H   0  0  0  0  0  0  0  0  0  0  0  0  # atno 10167 bound_to 10162
  157.6928  131.0575  150.4477 H   0  0  0  0  0  0  0  0  0  0  0  0  # atno 10718 bound_to 10713
  153.0489  135.5081  154.7818 H   0  0  0  0  0  0  0  0  0  0  0  0  # atno 10763 bound_to 10752
  154.6695  135.2951  154.9763 H   0  0  0  0  0  0  0  0  0  0  0  0  # atno 10764 bound_to 10752
  154.0586  135.6694  153.4861 H   0  0  0  0  0  0  0  0  0  0  0  0  # atno 10765 bound_to 10752
  141.0277  133.6834  156.2518 H   0  0  0  0  0  0  0  0  0  0  0  0  # atno 11005 bound_to 11000
  145.0129  139.3493  143.6111 LP  0  0  0  0  0  0  0  0  0  0  0  0  # atno 17320 bound_to 7965
  146.3452  139.9399  142.8742 LP  0  0  0  0  0  0  0  0  0  0  0  0  # atno 17321 bound_to 7965
  140.5334  144.0695  150.6061 LP  0  0  0  0  0  0  0  0  0  0  0  0  # atno 17342 bound_to 10162
  140.3692  143.2864  152.0297 LP  0  0  0  0  0  0  0  0  0  0  0  0  # atno 17343 bound_to 10162
  156.4831  130.4078  149.6450 LP  0  0  0  0  0  0  0  0  0  0  0  0  # atno 17370 bound_to 10713
  156.3488  130.7421  151.2377 LP  0  0  0  0  0  0  0  0  0  0  0  0  # atno 17371 bound_to 10713
  140.6463  134.5114  157.5574 LP  0  0  0  0  0  0  0  0  0  0  0  0  # atno 17394 bound_to 11000
  139.9187  134.8194  156.1283 LP  0  0  0  0  0  0  0  0  0  0  0  0  # atno 17395 bound_to 11000

$$$$
