AV-unprocessed.smi:2562|AV-procd|sdf|10052|dock4
  -GOLD-   2272014 93D 1   1.00000     0.00000
 Structure written by MMmdl.
 30 31  0  0  0  0  0  0  0  0  3 V2000
  153.5183  142.0817  160.3448 C   0  0  0  0  0  0  0  0  0  0  0  0
  152.7854  141.9699  159.0036 C   0  0  0  0  0  0  0  0  0  0  0  0
  152.3501  140.5322  158.6881 C   0  0  0  0  0  0  0  0  0  0  0  0
  151.6372  140.4300  157.3568 C   0  0  0  0  0  0  0  0  0  0  0  0
  152.2112  140.6539  156.1648 N   0  0  0  0  0  0  0  0  0  0  0  0
  151.2661  140.4326  155.2739 N   0  5  0  0  0  0  0  0  0  0  0  0
  150.1347  140.0562  155.8949 C   0  0  0  0  0  0  0  0  0  0  0  0
  148.8158  139.7500  155.2175 C   0  0  2  0  0  0  0  0  0  0  0  0
  148.9822  138.6400  154.1613 C   0  0  0  0  0  0  0  0  0  0  0  0
  147.6931  138.3681  153.4969 N   0  3  0  0  0  0  0  0  0  0  0  0
  147.1050  139.5968  152.9295 C   0  0  0  0  0  0  0  0  0  0  0  0
  146.9918  140.6764  154.0186 C   0  0  0  0  0  0  0  0  0  0  0  0
  148.2729  140.9108  154.5912 O   0  0  0  0  0  0  0  0  0  0  0  0
  150.3580  140.0591  157.2056 N   0  0  0  0  0  0  0  0  0  0  0  0
  153.8265  143.1101  160.5341 H   0  0  0  0  0  0  0  0  0  0  0  0
  154.4128  141.4583  160.3569 H   0  0  0  0  0  0  0  0  0  0  0  0
  152.8785  141.7680  161.1701 H   0  0  0  0  0  0  0  0  0  0  0  0
  151.9118  142.6229  159.0144 H   0  0  0  0  0  0  0  0  0  0  0  0
  153.4349  142.3363  158.2075 H   0  0  0  0  0  0  0  0  0  0  0  0
  153.2181  139.8722  158.6706 H   0  0  0  0  0  0  0  0  0  0  0  0
  151.6878  140.1590  159.4704 H   0  0  0  0  0  0  0  0  0  0  0  0
  148.1242  139.4170  155.9937 H   0  0  0  0  0  0  0  0  0  0  0  0
  149.7166  138.9372  153.4111 H   0  0  0  0  0  0  0  0  0  0  0  0
  149.3475  137.7221  154.6229 H   0  0  0  0  0  0  0  0  0  0  0  0
  147.8316  137.6890  152.7621 H   0  0  0  0  0  0  0  0  0  0  0  0
  147.7335  139.9514  152.1115 H   0  0  0  0  0  0  0  0  0  0  0  0
  146.1253  139.3694  152.5090 H   0  0  0  0  0  0  0  0  0  0  0  0
  146.6210  141.6071  153.5885 H   0  0  0  0  0  0  0  0  0  0  0  0
  146.2830  140.3786  154.7928 H   0  0  0  0  0  0  0  0  0  0  0  0
  147.0539  137.9896  154.1812 H   0  0  0  0  0  0  0  0  0  0  0  0
  1  2  1  0  0  0  0
  1 15  1  0  0  0  0
  1 16  1  0  0  0  0
  1 17  1  0  0  0  0
  2  3  1  0  0  0  0
  2 18  1  0  0  0  0
  2 19  1  0  0  0  0
  3  4  1  0  0  0  0
  3 20  1  0  0  0  0
  3 21  1  0  0  0  0
  4 14  1  0  0  0  0
  4  5  2  0  0  0  0
  5  6  1  0  0  0  0
  6  7  1  0  0  0  0
  7  8  1  0  0  0  0
  7 14  2  0  0  0  0
  8 13  1  0  0  0  0
  8  9  1  0  0  0  0
  8 22  1  0  0  0  0
  9 10  1  0  0  0  0
  9 23  1  0  0  0  0
  9 24  1  0  0  0  0
 10 11  1  0  0  0  0
 10 25  1  0  0  0  0
 10 30  1  0  0  0  0
 11 12  1  0  0  0  0
 11 26  1  0  0  0  0
 11 27  1  0  0  0  0
 12 13  1  0  0  0  0
 12 28  1  0  0  0  0
 12 29  1  0  0  0  0
M  CHG  1   6  -1
M  CHG  1  10   1
M  END
> <s_m_source_file>
AV-unprocessed.smi

> <i_m_source_file_index>
2562

> <i_lp_mmshare_version>
43012

> <i_f3d_flags>
0

> <s_epik_input>
W0NIM11bQ0gyXVtDSDJdYzFuW25IXWMobjEpW0NAQEhdMltDSDJdW05IXVtDSDJdW0NIMl1PMg==

> <s_epik_cmdline>
J2VwaWtfcHl0aG9uJywgJy1waCcsICc3LjAnLCAnLXRuJywgJzgnLCAnLW1hJywgJzIwMCcsICctbWV0YWxfYmluZGluZycsICctaW1hZScsICc8aW5maWxlLm1hZT4nLCAnLW9tYWUnLCAnPG91dGZpbGUubWFlPic=

> <r_epik_Ionization_Penalty>
3.5188

> <r_epik_Ionization_Penalty_Charging>
3.5188

> <r_epik_Ionization_Penalty_Neutral>
2.11677e-13

> <r_epik_State_Penalty>
2.51144

> <r_epik_Charging_Adjusted_Penalty>
6.03025

> <i_epik_Tot_Q>
0

> <i_epik_Tot_abs_Q>
2

> <r_epik_Metal_State_Penalty>
0.975833

> <b_epik_Metal_Only>
0

> <s_lp_Force_Field>
OPLS_2005

> <r_lp_Energy>
5.22198

> <b_lp_Chiralities_Consistent>
1

> <s_lp_Variant>
AV-unprocessed.smi:2562-11

> <Gold.Version>
5.8.1

> <Gold.Id.Protein>
6NUR|6NUR_protein|mol2

> <Gold.PLP.Fitness>
33.1561

> <Gold.PLP.PLP>
-21.3789

> <Gold.PLP.part.hbond>
-3.5472

> <Gold.PLP.part.metal>
0.0000

> <Gold.PLP.part.buried>
2.3010

> <Gold.PLP.part.nonpolar>
-20.3166

> <Gold.PLP.part.repulsive>
0.2019

> <Gold.PLP.ligand.clash>
0.0000

> <Gold.PLP.ligand.torsion>
0.0952

> <Gold.PLP.Chemscore.Hbond>
3.9833

> <Gold.PLP.Chemscore.CHOScore>
0.0000

> <Gold.PLP.Chemscore.Metal>
0.0000

> <Gold.Chemscore.Hbonds>
donor molecule, donor type, donor heavy atom, donor atom, acceptor molecule, acceptor atom, score
      L1  H    10    25       P1  7948  1.98
      P1  H  7989  7998       L1     6  0.96
      P1  H  7997  8009       L1     5  0.55

> <Gold.PLP.Chemscore.Internal.Correction>
0.0179

> <Gold.Rescore>
     Score         DG    S(hbond)    S(metal)    S(lipo)     H(rot)  DE(clash)    DE(int)     intcor
     14.90     -17.26       2.71        0.00      55.68       1.48       2.19       0.17       ----

> <Gold.Chemscore.Fitness>
14.8969

> <Gold.Chemscore.DG>
-17.2573

> <Gold.Chemscore.ZeroCoef>
-5.4800

> <Gold.Chemscore.Hbond>
2.7103

> <Gold.Chemscore.Metal>
0.0000

> <Gold.Chemscore.Lipo>
55.6805

> <Gold.Chemscore.Internal_Hbond>
0.0000

> <Gold.Chemscore.DEClash>
2.1918

> <Gold.Chemscore.DEInternal>
0.1686

> <Gold.Chemscore.Rot>
1.4804

> <Gold.Chemscore.Internal.Correction>
   9.000000E+99

> <Gold.Chemscore.Hbonds>
donor molecule, donor type, donor heavy atom, donor atom, acceptor molecule, acceptor atom, score
      L1  H    10    25       P1  7948  0.88
      P1  H  7989  7998       L1     6  0.87
      P1  H  7997  8009       L1     5  0.36

> <Gold.Chemscore.Hbond.Weighted>
-9.0526

> <Gold.Chemscore.Metal.Weighted>
-0.0000

> <Gold.Chemscore.Lipo.Weighted>
-6.5146

> <Gold.Chemscore.Internal_Hbond.Weighted>
0.0000

> <Gold.Chemscore.DEClash.Weighted>
2.1918

> <Gold.Chemscore.DEInternal.Weighted>
0.1686

> <Gold.Chemscore.Rot.Weighted>
3.7899

> <Gold.Chemscore.Internal.Correction.Weighted>
   9.000000E+99

> <Gold.Protein.RotatedTorsions>
[ 6907 6896 6895 6894 ] final  -81.43 input  -60.11 | X-H torsion
[ 7974 7965 7964 7962 ] final -127.63 input  175.53 | X-H torsion
[ 8008 7997 7996 7995 ] final -162.86 input   59.86 | X-H torsion
[ 10167 10162 10161 10158 ] final  -73.52 input  -65.29 | X-H torsion
[ 10718 10713 10712 10709 ] final -103.00 input   66.30 | X-H torsion
[ 10763 10752 10751 10750 ] final  120.40 input  -60.55 | X-H torsion
[ 11005 11000 10999 10996 ] final  -87.26 input  -57.11 | X-H torsion

> <Gold.Protein.ActiveResidues>
 VAL166  LYS551  ARG553  GLY616  TRP617  ASP618  TYR619  PRO620  LYS621  CYS622 
 ASP623  PHE694  ASN695  SER759  ASP760  ASP761  ALA762  ILE779  LEU786  VAL792 
 PHE793  MET794  SER795  GLU796  ALA797  LYS798  CYS799  TRP800  GLU811  SER814 

> <Gold.Protein.RotatedAtoms>
  150.6912  134.3819  159.5037 H   0  0  0  0  0  0  0  0  0  0  0  0  # atno 6907 bound_to 6896
  152.1620  134.8902  160.0550 H   0  0  0  0  0  0  0  0  0  0  0  0  # atno 6908 bound_to 6896
  151.9960  133.3773  159.4200 H   0  0  0  0  0  0  0  0  0  0  0  0  # atno 6909 bound_to 6896
  144.9751  140.7585  143.4646 H   0  0  0  0  0  0  0  0  0  0  0  0  # atno 7974 bound_to 7965
  155.8129  140.0908  157.1893 H   0  0  0  0  0  0  0  0  0  0  0  0  # atno 8008 bound_to 7997
  154.3979  140.1451  156.3468 H   0  0  0  0  0  0  0  0  0  0  0  0  # atno 8009 bound_to 7997
  155.8346  140.3441  155.5596 H   0  0  0  0  0  0  0  0  0  0  0  0  # atno 8010 bound_to 7997
  140.5104  143.2346  151.7603 H   0  0  0  0  0  0  0  0  0  0  0  0  # atno 10167 bound_to 10162
  156.0249  130.5447  150.7190 H   0  0  0  0  0  0  0  0  0  0  0  0  # atno 10718 bound_to 10713
  153.5979  135.3453  155.2934 H   0  0  0  0  0  0  0  0  0  0  0  0  # atno 10763 bound_to 10752
  154.8641  135.4220  154.2445 H   0  0  0  0  0  0  0  0  0  0  0  0  # atno 10764 bound_to 10752
  153.3267  135.7041  153.7054 H   0  0  0  0  0  0  0  0  0  0  0  0  # atno 10765 bound_to 10752
  141.1619  133.7501  156.9281 H   0  0  0  0  0  0  0  0  0  0  0  0  # atno 11005 bound_to 11000
  145.2502  139.2035  143.4946 LP  0  0  0  0  0  0  0  0  0  0  0  0  # atno 17320 bound_to 7965
  146.3393  140.2413  142.8596 LP  0  0  0  0  0  0  0  0  0  0  0  0  # atno 17321 bound_to 7965
  139.4894  144.4399  151.9776 LP  0  0  0  0  0  0  0  0  0  0  0  0  # atno 17342 bound_to 10162
  140.3491  144.3111  150.5952 LP  0  0  0  0  0  0  0  0  0  0  0  0  # atno 17343 bound_to 10162
  157.4810  131.0902  151.0536 LP  0  0  0  0  0  0  0  0  0  0  0  0  # atno 17370 bound_to 10713
  157.0969  130.5965  149.5451 LP  0  0  0  0  0  0  0  0  0  0  0  0  # atno 17371 bound_to 10713
  140.1405  134.9296  157.2460 LP  0  0  0  0  0  0  0  0  0  0  0  0  # atno 17394 bound_to 11000
  140.2842  134.3314  155.7334 LP  0  0  0  0  0  0  0  0  0  0  0  0  # atno 17395 bound_to 11000

$$$$
