AV-unprocessed.smi:3282|AV-procd|sdf|12561|dock3
  -GOLD-   2272018483D 1   1.00000     0.00000
 Structure written by MMmdl.
 34 35  0  0  0  0  0  0  0  0  1 V2000
  151.7200  141.0255  157.3396 C   0  0  0  0  0  0  0  0  0  0  0  0
  150.3617  141.3516  156.6979 C   0  0  0  0  0  0  0  0  0  0  0  0
  150.1007  140.5982  155.3828 C   0  0  0  0  0  0  0  0  0  0  0  0
  150.9949  139.9181  154.8770 O   0  0  0  0  0  0  0  0  0  0  0  0
  148.8813  140.7097  154.8157 N   0  0  0  0  0  0  0  0  0  0  0  0
  147.7602  141.4805  155.3493 C   0  0  0  0  0  0  0  0  0  0  0  0
  146.5561  141.1322  154.4741 C   0  0  0  0  0  0  0  0  0  0  0  0
  147.1609  140.6544  153.1543 C   0  0  2  0  0  0  0  0  0  0  0  0
  146.3291  139.6617  152.4820 N   0  0  0  0  0  0  0  0  0  0  0  0
  145.9604  138.4870  153.0127 C   0  0  0  0  0  0  0  0  0  0  0  0
  146.2985  138.1136  154.1364 O   0  0  0  0  0  0  0  0  0  0  0  0
  145.1876  137.7882  152.1644 N   0  0  0  0  0  0  0  0  0  0  0  0
  144.5953  136.5188  152.3830 C   0  0  0  0  0  0  0  0  0  0  0  0
  144.6831  135.7807  153.4906 N   0  0  0  0  0  0  0  0  0  0  0  0
  143.9370  134.6443  153.2138 C   0  0  0  0  0  0  0  0  0  0  0  0
  143.4359  134.7610  151.9426 C   0  0  0  0  0  0  0  0  0  0  0  0
  143.8466  135.9497  151.4015 O   0  0  0  0  0  0  0  0  0  0  0  0
  148.5170  140.0651  153.5565 C   0  0  0  0  0  0  0  0  0  0  0  0
  151.8551  141.5908  158.2618 H   0  0  0  0  0  0  0  0  0  0  0  0
  152.5464  141.2795  156.6745 H   0  0  0  0  0  0  0  0  0  0  0  0
  151.7998  139.9670  157.5891 H   0  0  0  0  0  0  0  0  0  0  0  0
  149.5660  141.1114  157.4036 H   0  0  0  0  0  0  0  0  0  0  0  0
  150.3088  142.4244  156.5101 H   0  0  0  0  0  0  0  0  0  0  0  0
  147.5609  141.2504  156.3968 H   0  0  0  0  0  0  0  0  0  0  0  0
  147.9894  142.5441  155.2708 H   0  0  0  0  0  0  0  0  0  0  0  0
  145.9957  140.3231  154.9454 H   0  0  0  0  0  0  0  0  0  0  0  0
  145.8742  141.9731  154.3437 H   0  0  0  0  0  0  0  0  0  0  0  0
  147.3317  141.5139  152.5030 H   0  0  0  0  0  0  0  0  0  0  0  0
  146.0073  139.8901  151.5527 H   0  0  0  0  0  0  0  0  0  0  0  0
  144.9947  138.2121  151.2691 H   0  0  0  0  0  0  0  0  0  0  0  0
  143.8207  133.8497  153.9359 H   0  0  0  0  0  0  0  0  0  0  0  0
  142.8143  134.1335  151.3211 H   0  0  0  0  0  0  0  0  0  0  0  0
  149.2651  140.2337  152.7801 H   0  0  0  0  0  0  0  0  0  0  0  0
  148.4480  138.9893  153.7285 H   0  0  0  0  0  0  0  0  0  0  0  0
  1  2  1  0  0  0  0
  1 19  1  0  0  0  0
  1 20  1  0  0  0  0
  1 21  1  0  0  0  0
  2  3  1  0  0  0  0
  2 22  1  0  0  0  0
  2 23  1  0  0  0  0
  3  4  2  0  0  0  0
  3  5  1  0  0  0  0
  5 18  1  0  0  0  0
  5  6  1  0  0  0  0
  6  7  1  0  0  0  0
  6 24  1  0  0  0  0
  6 25  1  0  0  0  0
  7  8  1  0  0  0  0
  7 26  1  0  0  0  0
  7 27  1  0  0  0  0
  8  9  1  0  0  0  0
  8 18  1  0  0  0  0
  8 28  1  0  0  0  0
  9 10  1  0  0  0  0
  9 29  1  0  0  0  0
 10 11  2  0  0  0  0
 10 12  1  0  0  0  0
 12 13  1  0  0  0  0
 12 30  1  0  0  0  0
 13 17  1  0  0  0  0
 13 14  2  0  0  0  0
 14 15  1  0  0  0  0
 15 16  2  0  0  0  0
 15 31  1  0  0  0  0
 16 17  1  0  0  0  0
 16 32  1  0  0  0  0
 18 33  1  0  0  0  0
 18 34  1  0  0  0  0
M  END
> <s_m_source_file>
AV-unprocessed.smi

> <i_m_source_file_index>
3282

> <i_lp_mmshare_version>
43012

> <i_f3d_flags>
0

> <s_epik_input>
W0NIM11bQ0gyXUMoPU8pTjFbQ0gyXVtDSDJdW0NASF0oW0NIMl0xKVtOSF1DKD1PKVtOSF1jMm5bY0hdW2NIXW8y

> <s_epik_cmdline>
J2VwaWtfcHl0aG9uJywgJy1waCcsICc3LjAnLCAnLXRuJywgJzgnLCAnLW1hJywgJzIwMCcsICctbWV0YWxfYmluZGluZycsICctaW1hZScsICc8aW5maWxlLm1hZT4nLCAnLW9tYWUnLCAnPG91dGZpbGUubWFlPic=

> <r_lp_tautomer_probability>
0.785861

> <r_epik_Ionization_Penalty>
4.35681e-05

> <r_epik_Ionization_Penalty_Charging>
0

> <r_epik_Ionization_Penalty_Neutral>
4.35681e-05

> <r_epik_State_Penalty>
0.0212547

> <r_epik_Charging_Adjusted_Penalty>
0.0212547

> <i_epik_Tot_Q>
0

> <i_epik_Tot_abs_Q>
0

> <r_epik_Metal_State_Penalty>
0.00779955

> <b_epik_Metal_Only>
0

> <s_lp_Force_Field>
OPLS_2005

> <r_lp_Energy>
25.4049

> <b_lp_Chiralities_Consistent>
1

> <s_lp_Variant>
AV-unprocessed.smi:3282-2

> <Gold.Version>
5.8.1

> <Gold.Id.Protein>
6NUR|6NUR_protein|mol2

> <Gold.PLP.Fitness>
36.1251

> <Gold.PLP.PLP>
-24.2618

> <Gold.PLP.part.hbond>
-3.8569

> <Gold.PLP.part.metal>
0.0000

> <Gold.PLP.part.buried>
-0.7444

> <Gold.PLP.part.nonpolar>
-22.0593

> <Gold.PLP.part.repulsive>
0.8807

> <Gold.PLP.ligand.clash>
0.0000

> <Gold.PLP.ligand.torsion>
0.0492

> <Gold.PLP.Chemscore.Hbond>
2.0000

> <Gold.PLP.Chemscore.CHOScore>
1.9847

> <Gold.PLP.Chemscore.Metal>
0.0000

> <Gold.Chemscore.Hbonds>
donor molecule, donor type, donor heavy atom, donor atom, acceptor molecule, acceptor atom, score
      L1  H    12    30       P1 10171  1.00
      P1  H  7989  7998       L1     4  1.00
      L1  C    15    31       P1 10957  1.00
      L1  C    16    32       P1 10186  0.98

> <Gold.PLP.Chemscore.Internal.Correction>
0.0077

> <Gold.Rescore>
     Score         DG    S(hbond)    S(metal)    S(lipo)     H(rot)  DE(clash)    DE(int)     intcor
     10.44     -14.19       1.98        0.00      46.86       1.32       1.31       2.44       ----

> <Gold.Chemscore.Fitness>
10.4416

> <Gold.Chemscore.DG>
-14.1937

> <Gold.Chemscore.ZeroCoef>
-5.4800

> <Gold.Chemscore.Hbond>
1.9790

> <Gold.Chemscore.Metal>
0.0000

> <Gold.Chemscore.Lipo>
46.8620

> <Gold.Chemscore.Internal_Hbond>
0.0000

> <Gold.Chemscore.DEClash>
1.3148

> <Gold.Chemscore.DEInternal>
2.4374

> <Gold.Chemscore.Rot>
1.3199

> <Gold.Chemscore.Internal.Correction>
   9.000000E+99

> <Gold.Chemscore.Hbonds>
donor molecule, donor type, donor heavy atom, donor atom, acceptor molecule, acceptor atom, score
      L1  H    12    30       P1 10171  0.97
      P1  H  7989  7998       L1     4  0.55

> <Gold.Chemscore.Hbond.Weighted>
-6.6098

> <Gold.Chemscore.Metal.Weighted>
-0.0000

> <Gold.Chemscore.Lipo.Weighted>
-5.4829

> <Gold.Chemscore.Internal_Hbond.Weighted>
0.0000

> <Gold.Chemscore.DEClash.Weighted>
1.3148

> <Gold.Chemscore.DEInternal.Weighted>
2.4374

> <Gold.Chemscore.Rot.Weighted>
3.3789

> <Gold.Chemscore.Internal.Correction.Weighted>
   9.000000E+99

> <Gold.Protein.RotatedTorsions>
[ 6907 6896 6895 6894 ] final  -93.70 input  -60.11 | X-H torsion
[ 7974 7965 7964 7962 ] final  -62.19 input  175.53 | X-H torsion
[ 8008 7997 7996 7995 ] final  167.81 input   59.86 | X-H torsion
[ 10167 10162 10161 10158 ] final -162.87 input  -65.29 | X-H torsion
[ 10718 10713 10712 10709 ] final  142.83 input   66.30 | X-H torsion
[ 10763 10752 10751 10750 ] final  125.37 input  -60.55 | X-H torsion
[ 11005 11000 10999 10996 ] final  -82.02 input  -57.11 | X-H torsion

> <Gold.Protein.ActiveResidues>
 VAL166  LYS551  ARG553  GLY616  TRP617  ASP618  TYR619  PRO620  LYS621  CYS622 
 ASP623  PHE694  ASN695  SER759  ASP760  ASP761  ALA762  ILE779  LEU786  VAL792 
 PHE793  MET794  SER795  GLU796  ALA797  LYS798  CYS799  TRP800  GLU811  SER814 

> <Gold.Protein.RotatedAtoms>
  150.6927  134.1926  159.4290 H   0  0  0  0  0  0  0  0  0  0  0  0  # atno 6907 bound_to 6896
  151.9896  134.9984  160.0570 H   0  0  0  0  0  0  0  0  0  0  0  0  # atno 6908 bound_to 6896
  152.1680  133.4590  159.4931 H   0  0  0  0  0  0  0  0  0  0  0  0  # atno 6909 bound_to 6896
  145.7943  140.8692  143.0264 H   0  0  0  0  0  0  0  0  0  0  0  0  # atno 7974 bound_to 7965
  156.1601  140.1607  156.8626 H   0  0  0  0  0  0  0  0  0  0  0  0  # atno 8008 bound_to 7997
  154.5153  140.0791  156.8104 H   0  0  0  0  0  0  0  0  0  0  0  0  # atno 8009 bound_to 7997
  155.3724  140.3401  155.4246 H   0  0  0  0  0  0  0  0  0  0  0  0  # atno 8010 bound_to 7997
  139.6361  144.0347  152.2055 H   0  0  0  0  0  0  0  0  0  0  0  0  # atno 10167 bound_to 10162
  157.3760  131.0985  151.0784 H   0  0  0  0  0  0  0  0  0  0  0  0  # atno 10718 bound_to 10713
  153.6763  135.3322  155.3166 H   0  0  0  0  0  0  0  0  0  0  0  0  # atno 10763 bound_to 10752
  154.8478  135.4398  154.1653 H   0  0  0  0  0  0  0  0  0  0  0  0  # atno 10764 bound_to 10752
  153.2657  135.6995  153.7608 H   0  0  0  0  0  0  0  0  0  0  0  0  # atno 10765 bound_to 10752
  141.1664  133.7224  156.8509 H   0  0  0  0  0  0  0  0  0  0  0  0  # atno 11005 bound_to 11000
  144.6777  140.0168  143.7484 LP  0  0  0  0  0  0  0  0  0  0  0  0  # atno 17320 bound_to 7965
  145.9944  139.3041  143.0965 LP  0  0  0  0  0  0  0  0  0  0  0  0  # atno 17321 bound_to 7965
  140.0025  144.6283  150.7718 LP  0  0  0  0  0  0  0  0  0  0  0  0  # atno 17342 bound_to 10162
  140.7466  143.2893  151.3374 LP  0  0  0  0  0  0  0  0  0  0  0  0  # atno 17343 bound_to 10162
  157.1870  130.6335  149.5691 LP  0  0  0  0  0  0  0  0  0  0  0  0  # atno 17370 bound_to 10713
  155.9765  130.4734  150.6534 LP  0  0  0  0  0  0  0  0  0  0  0  0  # atno 17371 bound_to 10713
  140.1916  134.8961  157.3067 LP  0  0  0  0  0  0  0  0  0  0  0  0  # atno 17394 bound_to 11000
  140.2284  134.3939  155.7533 LP  0  0  0  0  0  0  0  0  0  0  0  0  # atno 17395 bound_to 11000

$$$$
