AV-unprocessed.smi:876|AV-procd|sdf|4023|dock3
  -GOLD-   22720 1513D 1   1.00000     0.00000
 Structure written by MMmdl.
 40 41  0  0  0  0  0  0  0  0  1 V2000
  151.1398  142.8143  156.8465 C   0  0  0  0  0  0  0  0  0  0  0  0
  151.2494  141.3611  156.8129 N   0  0  0  0  0  0  0  0  0  0  0  0
  152.2268  140.6855  157.6603 C   0  0  0  0  0  0  0  0  0  0  0  0
  150.4342  140.6062  155.9387 C   0  0  0  0  0  0  0  0  0  0  0  0
  149.3257  141.1870  155.2742 C   0  0  0  0  0  0  0  0  0  0  0  0
  148.5428  140.3945  154.4128 C   0  0  0  0  0  0  0  0  0  0  0  0
  148.8877  139.0360  154.2263 C   0  0  0  0  0  0  0  0  0  0  0  0
  148.1703  138.1267  153.4019 N   0  0  0  0  0  0  0  0  0  0  0  0
  146.8418  138.0106  153.2332 C   0  0  0  0  0  0  0  0  0  0  0  0
  145.9894  138.7263  153.7583 O   0  0  0  0  0  0  0  0  0  0  0  0
  146.5471  137.0107  152.3906 N   0  0  0  0  0  0  0  0  0  0  0  0
  145.1968  136.6262  151.9945 C   0  0  2  0  0  0  0  0  0  0  0  0
  144.5462  135.7971  153.0678 C   0  0  0  0  0  0  0  0  0  0  0  0
  144.0926  134.6317  152.6121 C   0  0  0  0  0  0  0  0  0  0  0  0
  144.3530  134.4382  151.1400 C   0  0  2  0  0  0  0  0  0  0  0  0
  145.0791  133.1185  150.8262 C   0  0  0  0  0  0  0  0  0  0  0  0
  145.0991  132.8808  149.4340 O   0  0  0  0  0  0  0  0  0  0  0  0
  145.1737  135.6951  150.7536 C   0  0  0  0  0  0  0  0  0  0  0  0
  149.9990  138.5444  154.9383 C   0  0  0  0  0  0  0  0  0  0  0  0
  150.7519  139.3001  155.7642 N   0  0  0  0  0  0  0  0  0  0  0  0
  144.5826  137.5131  151.8288 H   0  0  0  0  0  0  0  0  0  0  0  0
  143.3913  134.4601  150.6252 H   0  0  0  0  0  0  0  0  0  0  0  0
  150.1392  143.1152  157.1589 H   0  0  0  0  0  0  0  0  0  0  0  0
  151.3414  143.2375  155.8619 H   0  0  0  0  0  0  0  0  0  0  0  0
  151.8518  143.2508  157.5472 H   0  0  0  0  0  0  0  0  0  0  0  0
  152.9612  140.1570  157.0514 H   0  0  0  0  0  0  0  0  0  0  0  0
  151.7343  139.9640  158.3135 H   0  0  0  0  0  0  0  0  0  0  0  0
  152.7634  141.3936  158.2918 H   0  0  0  0  0  0  0  0  0  0  0  0
  149.0549  142.2229  155.4114 H   0  0  0  0  0  0  0  0  0  0  0  0
  147.6901  140.8440  153.9288 H   0  0  0  0  0  0  0  0  0  0  0  0
  148.7421  137.5128  152.8404 H   0  0  0  0  0  0  0  0  0  0  0  0
  147.3077  136.4760  151.9970 H   0  0  0  0  0  0  0  0  0  0  0  0
  144.4546  136.1430  154.0870 H   0  0  0  0  0  0  0  0  0  0  0  0
  143.5791  133.8908  153.2072 H   0  0  0  0  0  0  0  0  0  0  0  0
  146.1082  133.1596  151.1839 H   0  0  0  0  0  0  0  0  0  0  0  0
  144.5954  132.2795  151.3275 H   0  0  0  0  0  0  0  0  0  0  0  0
  145.2891  133.6947  148.9928 H   0  0  0  0  0  0  0  0  0  0  0  0
  144.7352  136.2018  149.8931 H   0  0  0  0  0  0  0  0  0  0  0  0
  146.1872  135.4122  150.4638 H   0  0  0  0  0  0  0  0  0  0  0  0
  150.2987  137.5110  154.8421 H   0  0  0  0  0  0  0  0  0  0  0  0
  1  2  1  0  0  0  0
  1 23  1  0  0  0  0
  1 24  1  0  0  0  0
  1 25  1  0  0  0  0
  2  3  1  0  0  0  0
  2  4  1  0  0  0  0
  3 26  1  0  0  0  0
  3 27  1  0  0  0  0
  3 28  1  0  0  0  0
  4 20  1  0  0  0  0
  4  5  2  0  0  0  0
  5  6  1  0  0  0  0
  5 29  1  0  0  0  0
  6  7  2  0  0  0  0
  6 30  1  0  0  0  0
  7  8  1  0  0  0  0
  7 19  1  0  0  0  0
  8  9  1  0  0  0  0
  8 31  1  0  0  0  0
  9 10  2  0  0  0  0
  9 11  1  0  0  0  0
 11 12  1  0  0  0  0
 11 32  1  0  0  0  0
 12 21  1  0  0  0  0
 12 18  1  0  0  0  0
 12 13  1  0  0  0  0
 13 14  2  0  0  0  0
 13 33  1  0  0  0  0
 14 15  1  0  0  0  0
 14 34  1  0  0  0  0
 15 22  1  0  0  0  0
 15 16  1  0  0  0  0
 15 18  1  0  0  0  0
 16 17  1  0  0  0  0
 16 35  1  0  0  0  0
 16 36  1  0  0  0  0
 17 37  1  0  0  0  0
 18 38  1  0  0  0  0
 18 39  1  0  0  0  0
 19 20  2  0  0  0  0
 19 40  1  0  0  0  0
M  END
> <s_m_source_file>
AV-unprocessed.smi

> <i_m_source_file_index>
876

> <i_lp_mmshare_version>
43012

> <i_f3d_flags>
0

> <s_epik_input>
W0NIM11OKFtDSDNdKWMxW2NIXVtjSF1jKFtjSF1uMSlbTkhdQyg9TylbTkhdW0NAQEhdMltDSF09W0NIXVtDQEBIXShbQ0gyXTIpW0NIMl1bT0hd

> <s_epik_cmdline>
J2VwaWtfcHl0aG9uJywgJy1waCcsICc3LjAnLCAnLXRuJywgJzgnLCAnLW1hJywgJzIwMCcsICctbWV0YWxfYmluZGluZycsICctaW1hZScsICc8aW5maWxlLm1hZT4nLCAnLW9tYWUnLCAnPG91dGZpbGUubWFlPic=

> <r_lp_tautomer_probability>
1

> <r_epik_Ionization_Penalty>
0.617998

> <r_epik_Ionization_Penalty_Charging>
0

> <r_epik_Ionization_Penalty_Neutral>
0.617998

> <r_epik_State_Penalty>
0.632637

> <r_epik_Charging_Adjusted_Penalty>
0.632637

> <i_epik_Tot_Q>
0

> <i_epik_Tot_abs_Q>
0

> <r_epik_Metal_State_Penalty>
0.305596

> <b_epik_Metal_Only>
0

> <s_lp_Force_Field>
OPLS_2005

> <r_lp_Energy>
21.6673

> <b_lp_Chiralities_Consistent>
1

> <s_lp_Variant>
AV-unprocessed.smi:876-5

> <Gold.Version>
5.8.1

> <Gold.Id.Protein>
6NUR|6NUR_protein|mol2

> <Gold.PLP.Fitness>
39.5485

> <Gold.PLP.PLP>
-31.8560

> <Gold.PLP.part.hbond>
-3.1951

> <Gold.PLP.part.metal>
0.0000

> <Gold.PLP.part.buried>
-4.5766

> <Gold.PLP.part.nonpolar>
-25.6960

> <Gold.PLP.part.repulsive>
0.2607

> <Gold.PLP.ligand.clash>
0.0000

> <Gold.PLP.ligand.torsion>
0.6614

> <Gold.PLP.Chemscore.Hbond>
3.0000

> <Gold.PLP.Chemscore.CHOScore>
0.0000

> <Gold.PLP.Chemscore.Metal>
0.0000

> <Gold.Chemscore.Hbonds>
donor molecule, donor type, donor heavy atom, donor atom, acceptor molecule, acceptor atom, score
      L1  H     8    31       P1  7948  1.00
      L1  H    11    32       P1  7948  0.99
      L1  H    17    37       P1  7921  1.00

> <Gold.PLP.Chemscore.Internal.Correction>
0.0154

> <Gold.Rescore>
     Score         DG    S(hbond)    S(metal)    S(lipo)     H(rot)  DE(clash)    DE(int)     intcor
     17.73     -18.54       2.81        0.00      70.69       1.80       0.07       0.74       ----

> <Gold.Chemscore.Fitness>
17.7294

> <Gold.Chemscore.DG>
-18.5419

> <Gold.Chemscore.ZeroCoef>
-5.4800

> <Gold.Chemscore.Hbond>
2.8127

> <Gold.Chemscore.Metal>
0.0000

> <Gold.Chemscore.Lipo>
70.6866

> <Gold.Chemscore.Internal_Hbond>
0.0000

> <Gold.Chemscore.DEClash>
0.0725

> <Gold.Chemscore.DEInternal>
0.7401

> <Gold.Chemscore.Rot>
1.7980

> <Gold.Chemscore.Internal.Correction>
   9.000000E+99

> <Gold.Chemscore.Hbonds>
donor molecule, donor type, donor heavy atom, donor atom, acceptor molecule, acceptor atom, score
      L1  H     8    31       P1  7948  0.97
      L1  H    11    32       P1  7948  0.94
      L1  H    17    37       P1  7921  0.68

> <Gold.Chemscore.Hbond.Weighted>
-9.3945

> <Gold.Chemscore.Metal.Weighted>
-0.0000

> <Gold.Chemscore.Lipo.Weighted>
-8.2703

> <Gold.Chemscore.Internal_Hbond.Weighted>
0.0000

> <Gold.Chemscore.DEClash.Weighted>
0.0725

> <Gold.Chemscore.DEInternal.Weighted>
0.7401

> <Gold.Chemscore.Rot.Weighted>
4.6029

> <Gold.Chemscore.Internal.Correction.Weighted>
   9.000000E+99

> <Gold.Protein.RotatedTorsions>
[ 6907 6896 6895 6894 ] final  -20.01 input  -60.11 | X-H torsion
[ 7974 7965 7964 7962 ] final  -83.84 input  175.53 | X-H torsion
[ 8008 7997 7996 7995 ] final -148.55 input   59.86 | X-H torsion
[ 10167 10162 10161 10158 ] final  130.27 input  -65.29 | X-H torsion
[ 10718 10713 10712 10709 ] final -106.29 input   66.30 | X-H torsion
[ 10763 10752 10751 10750 ] final  168.28 input  -60.55 | X-H torsion
[ 11005 11000 10999 10996 ] final   19.50 input  -57.11 | X-H torsion

> <Gold.Protein.ActiveResidues>
 VAL166  LYS551  ARG553  GLY616  TRP617  ASP618  TYR619  PRO620  LYS621  CYS622 
 ASP623  PHE694  ASN695  SER759  ASP760  ASP761  ALA762  ILE779  LEU786  VAL792 
 PHE793  MET794  SER795  GLU796  ALA797  LYS798  CYS799  TRP800  GLU811  SER814 

> <Gold.Protein.RotatedAtoms>
  151.2545  135.0633  159.9074 H   0  0  0  0  0  0  0  0  0  0  0  0  # atno 6907 bound_to 6896
  152.5375  134.0297  159.8029 H   0  0  0  0  0  0  0  0  0  0  0  0  # atno 6908 bound_to 6896
  151.0510  133.5575  159.2673 H   0  0  0  0  0  0  0  0  0  0  0  0  # atno 6909 bound_to 6896
  145.5145  140.9537  143.1689 H   0  0  0  0  0  0  0  0  0  0  0  0  # atno 7974 bound_to 7965
  155.5934  140.0655  157.2752 H   0  0  0  0  0  0  0  0  0  0  0  0  # atno 8008 bound_to 7997
  154.4299  140.1831  156.1145 H   0  0  0  0  0  0  0  0  0  0  0  0  # atno 8009 bound_to 7997
  156.0215  140.3316  155.7047 H   0  0  0  0  0  0  0  0  0  0  0  0  # atno 8010 bound_to 7997
  139.5438  144.6755  151.4539 H   0  0  0  0  0  0  0  0  0  0  0  0  # atno 10167 bound_to 10162
  156.0383  130.5605  150.7660 H   0  0  0  0  0  0  0  0  0  0  0  0  # atno 10718 bound_to 10713
  154.3662  135.2753  155.2292 H   0  0  0  0  0  0  0  0  0  0  0  0  # atno 10763 bound_to 10752
  154.4459  135.5943  153.6163 H   0  0  0  0  0  0  0  0  0  0  0  0  # atno 10764 bound_to 10752
  152.9840  135.6030  154.3888 H   0  0  0  0  0  0  0  0  0  0  0  0  # atno 10765 bound_to 10752
  140.4130  134.1598  155.7668 H   0  0  0  0  0  0  0  0  0  0  0  0  # atno 11005 bound_to 11000
  144.7709  139.6737  143.7195 LP  0  0  0  0  0  0  0  0  0  0  0  0  # atno 17320 bound_to 7965
  146.2145  139.5525  142.9659 LP  0  0  0  0  0  0  0  0  0  0  0  0  # atno 17321 bound_to 7965
  140.6678  143.8359  150.6963 LP  0  0  0  0  0  0  0  0  0  0  0  0  # atno 17342 bound_to 10162
  140.1774  143.4144  152.1958 LP  0  0  0  0  0  0  0  0  0  0  0  0  # atno 17343 bound_to 10162
  157.5166  131.0929  151.0131 LP  0  0  0  0  0  0  0  0  0  0  0  0  # atno 17370 bound_to 10713
  157.0472  130.5773  149.5365 LP  0  0  0  0  0  0  0  0  0  0  0  0  # atno 17371 bound_to 10713
  141.1814  133.8406  157.1245 LP  0  0  0  0  0  0  0  0  0  0  0  0  # atno 17394 bound_to 11000
  140.0254  134.9926  157.0675 LP  0  0  0  0  0  0  0  0  0  0  0  0  # atno 17395 bound_to 11000

$$$$
