AV-unprocessed.smi:2458|AV-procd|sdf|9708|dock5
  -GOLD-   2272013343D 1   1.00000     0.00000
 Structure written by MMmdl.
 47 48  0  0  0  0  0  0  0  0  1 V2000
  150.7766  145.1006  159.5519 C   0  0  0  0  0  0  0  0  0  0  0  0
  151.9854  144.1681  159.3412 C   0  0  0  0  0  0  0  0  0  0  0  0
  152.8101  144.6903  158.1487 C   0  0  0  0  0  0  0  0  0  0  0  0
  151.5726  142.6749  159.1799 C   0  0  1  0  0  0  0  0  0  0  0  0
  150.6344  142.4498  157.9682 C   0  0  0  0  0  0  0  0  0  0  0  0
  150.2373  140.9747  157.7954 C   0  0  0  0  0  0  0  0  0  0  0  0
  151.4759  140.0720  157.6535 C   0  0  2  0  0  0  0  0  0  0  0  0
  151.0703  138.6008  157.4882 C   0  0  0  0  0  0  0  0  0  0  0  0
  151.4649  137.7522  158.2885 O   0  0  0  0  0  0  0  0  0  0  0  0
  150.2816  138.3110  156.4436 N   0  0  0  0  0  0  0  0  0  0  0  0
  149.7920  136.9762  156.1252 C   0  0  0  0  0  0  0  0  0  0  0  0
  150.9367  136.0705  155.6370 C   0  0  2  0  0  0  0  0  0  0  0  0
  151.4380  136.5915  154.4217 O   0  0  0  0  0  0  0  0  0  0  0  0
  150.4723  134.6321  155.4733 C   0  0  0  0  0  0  0  0  0  0  0  0
  151.0002  133.5955  156.2734 C   0  0  0  0  0  0  0  0  0  0  0  0
  150.5411  132.2795  156.0734 C   0  0  0  0  0  0  0  0  0  0  0  0
  149.5706  132.0523  155.0776 C   0  0  0  0  0  0  0  0  0  0  0  0
  149.0587  133.0335  154.3041 N   0  0  0  0  0  0  0  0  0  0  0  0
  149.5044  134.2928  154.5025 C   0  0  0  0  0  0  0  0  0  0  0  0
  152.3942  140.2619  158.8745 C   0  0  0  0  0  0  0  0  0  0  0  0
  152.7970  141.7347  159.0532 C   0  0  0  0  0  0  0  0  0  0  0  0
  151.0256  142.3836  160.0780 H   0  0  0  0  0  0  0  0  0  0  0  0
  152.0245  140.3808  156.7617 H   0  0  0  0  0  0  0  0  0  0  0  0
  150.0479  144.9935  158.7478 H   0  0  0  0  0  0  0  0  0  0  0  0
  151.0856  146.1460  159.5789 H   0  0  0  0  0  0  0  0  0  0  0  0
  150.2697  144.9070  160.4965 H   0  0  0  0  0  0  0  0  0  0  0  0
  152.6145  144.2514  160.2286 H   0  0  0  0  0  0  0  0  0  0  0  0
  152.2800  144.5468  157.2067 H   0  0  0  0  0  0  0  0  0  0  0  0
  153.7776  144.1958  158.0718 H   0  0  0  0  0  0  0  0  0  0  0  0
  153.0179  145.7559  158.2506 H   0  0  0  0  0  0  0  0  0  0  0  0
  149.7176  143.0279  158.0768 H   0  0  0  0  0  0  0  0  0  0  0  0
  151.1182  142.8045  157.0570 H   0  0  0  0  0  0  0  0  0  0  0  0
  149.6374  140.6622  158.6517 H   0  0  0  0  0  0  0  0  0  0  0  0
  149.5973  140.8724  156.9178 H   0  0  0  0  0  0  0  0  0  0  0  0
  149.9947  139.0636  155.8345 H   0  0  0  0  0  0  0  0  0  0  0  0
  149.3648  136.5613  157.0398 H   0  0  0  0  0  0  0  0  0  0  0  0
  148.9861  137.0203  155.3903 H   0  0  0  0  0  0  0  0  0  0  0  0
  151.7505  136.0856  156.3638 H   0  0  0  0  0  0  0  0  0  0  0  0
  150.7473  137.0743  153.9939 H   0  0  0  0  0  0  0  0  0  0  0  0
  151.7463  133.8031  157.0263 H   0  0  0  0  0  0  0  0  0  0  0  0
  150.9246  131.4635  156.6678 H   0  0  0  0  0  0  0  0  0  0  0  0
  149.1970  131.0553  154.8968 H   0  0  0  0  0  0  0  0  0  0  0  0
  149.0750  135.0509  153.8642 H   0  0  0  0  0  0  0  0  0  0  0  0
  151.8949  139.9163  159.7812 H   0  0  0  0  0  0  0  0  0  0  0  0
  153.2919  139.6514  158.7661 H   0  0  0  0  0  0  0  0  0  0  0  0
  153.4163  142.0470  158.2113 H   0  0  0  0  0  0  0  0  0  0  0  0
  153.4258  141.7992  159.9402 H   0  0  0  0  0  0  0  0  0  0  0  0
  1  2  1  0  0  0  0
  1 24  1  0  0  0  0
  1 25  1  0  0  0  0
  1 26  1  0  0  0  0
  2  3  1  0  0  0  0
  2  4  1  0  0  0  0
  2 27  1  0  0  0  0
  3 28  1  0  0  0  0
  3 29  1  0  0  0  0
  3 30  1  0  0  0  0
  4 22  1  0  0  0  0
  4 21  1  0  0  0  0
  4  5  1  0  0  0  0
  5  6  1  0  0  0  0
  5 31  1  0  0  0  0
  5 32  1  0  0  0  0
  6  7  1  0  0  0  0
  6 33  1  0  0  0  0
  6 34  1  0  0  0  0
  7 23  1  0  0  0  0
  7  8  1  0  0  0  0
  7 20  1  0  0  0  0
  8  9  2  0  0  0  0
  8 10  1  0  0  0  0
 10 11  1  0  0  0  0
 10 35  1  0  0  0  0
 11 12  1  0  0  0  0
 11 36  1  0  0  0  0
 11 37  1  0  0  0  0
 12 13  1  0  0  0  0
 12 14  1  0  0  0  0
 12 38  1  0  0  0  0
 13 39  1  0  0  0  0
 14 19  1  0  0  0  0
 14 15  2  0  0  0  0
 15 16  1  0  0  0  0
 15 40  1  0  0  0  0
 16 17  2  0  0  0  0
 16 41  1  0  0  0  0
 17 18  1  0  0  0  0
 17 42  1  0  0  0  0
 18 19  2  0  0  0  0
 19 43  1  0  0  0  0
 20 21  1  0  0  0  0
 20 44  1  0  0  0  0
 20 45  1  0  0  0  0
 21 46  1  0  0  0  0
 21 47  1  0  0  0  0
M  END
> <s_m_source_file>
AV-unprocessed.smi

> <i_m_source_file_index>
2458

> <i_lp_mmshare_version>
43012

> <i_f3d_flags>
0

> <s_epik_input>
W0NIM11bQ0hdKFtDSDNdKVtDQEhdMVtDSDJdW0NIMl1bQ0BASF0oW0NIMl1bQ0gyXTEpQyg9TylbTkhdW0NIMl1bQ0BIXShbT0hdKWMyW2NIXVtjSF1bY0hdbltjSF0y

> <s_epik_cmdline>
J2VwaWtfcHl0aG9uJywgJy1waCcsICc3LjAnLCAnLXRuJywgJzgnLCAnLW1hJywgJzIwMCcsICctbWV0YWxfYmluZGluZycsICctaW1hZScsICc8aW5maWxlLm1hZT4nLCAnLW9tYWUnLCAnPG91dGZpbGUubWFlPic=

> <r_epik_Ionization_Penalty>
0.00169206

> <r_epik_Ionization_Penalty_Charging>
0

> <r_epik_Ionization_Penalty_Neutral>
0.00169206

> <r_epik_State_Penalty>
0.0011427

> <r_epik_Charging_Adjusted_Penalty>
0.0011427

> <i_epik_Tot_Q>
0

> <i_epik_Tot_abs_Q>
0

> <r_epik_Metal_State_Penalty>
-0

> <b_epik_Metal_Only>
0

> <s_lp_Force_Field>
OPLS_2005

> <r_lp_Energy>
18.0059

> <b_lp_Chiralities_Consistent>
1

> <s_lp_Variant>
AV-unprocessed.smi:2458-1

> <Gold.Version>
5.8.1

> <Gold.Id.Protein>
6NUR|6NUR_protein|mol2

> <Gold.PLP.Fitness>
45.3688

> <Gold.PLP.PLP>
-39.5396

> <Gold.PLP.part.hbond>
-2.0000

> <Gold.PLP.part.metal>
0.0000

> <Gold.PLP.part.buried>
-5.9905

> <Gold.PLP.part.nonpolar>
-32.0347

> <Gold.PLP.part.repulsive>
0.0995

> <Gold.PLP.ligand.clash>
0.0000

> <Gold.PLP.ligand.torsion>
0.1090

> <Gold.PLP.Chemscore.Hbond>
1.0000

> <Gold.PLP.Chemscore.CHOScore>
1.0000

> <Gold.PLP.Chemscore.Metal>
0.0000

> <Gold.Chemscore.Hbonds>
donor molecule, donor type, donor heavy atom, donor atom, acceptor molecule, acceptor atom, score
      P1  H 10752 10763       L1    13  1.00
      L1  C    19    43       P1  7948  1.00

> <Gold.PLP.Chemscore.Internal.Correction>
0.0471

> <Gold.Rescore>
     Score         DG    S(hbond)    S(metal)    S(lipo)     H(rot)  DE(clash)    DE(int)     intcor
     16.81     -16.92       0.88        0.00     117.72       2.06       0.02       0.08       ----

> <Gold.Chemscore.Fitness>
16.8136

> <Gold.Chemscore.DG>
-16.9190

> <Gold.Chemscore.ZeroCoef>
-5.4800

> <Gold.Chemscore.Hbond>
0.8790

> <Gold.Chemscore.Metal>
0.0000

> <Gold.Chemscore.Lipo>
117.7236

> <Gold.Chemscore.Internal_Hbond>
0.0000

> <Gold.Chemscore.DEClash>
0.0211

> <Gold.Chemscore.DEInternal>
0.0843

> <Gold.Chemscore.Rot>
2.0588

> <Gold.Chemscore.Internal.Correction>
   9.000000E+99

> <Gold.Chemscore.Hbonds>
donor molecule, donor type, donor heavy atom, donor atom, acceptor molecule, acceptor atom, score
      P1  H 10752 10763       L1    13  0.49

> <Gold.Chemscore.Hbond.Weighted>
-2.9359

> <Gold.Chemscore.Metal.Weighted>
-0.0000

> <Gold.Chemscore.Lipo.Weighted>
-13.7737

> <Gold.Chemscore.Internal_Hbond.Weighted>
0.0000

> <Gold.Chemscore.DEClash.Weighted>
0.0211

> <Gold.Chemscore.DEInternal.Weighted>
0.0843

> <Gold.Chemscore.Rot.Weighted>
5.2705

> <Gold.Chemscore.Internal.Correction.Weighted>
   9.000000E+99

> <Gold.Protein.RotatedTorsions>
[ 6907 6896 6895 6894 ] final -128.53 input  -60.11 | X-H torsion
[ 7974 7965 7964 7962 ] final  119.59 input  175.53 | X-H torsion
[ 8008 7997 7996 7995 ] final  -32.72 input   59.86 | X-H torsion
[ 10167 10162 10161 10158 ] final  -30.13 input  -65.29 | X-H torsion
[ 10718 10713 10712 10709 ] final -102.62 input   66.30 | X-H torsion
[ 10763 10752 10751 10750 ] final   30.43 input  -60.55 | X-H torsion
[ 11005 11000 10999 10996 ] final   -7.48 input  -57.11 | X-H torsion

> <Gold.Protein.ActiveResidues>
 VAL166  LYS551  ARG553  GLY616  TRP617  ASP618  TYR619  PRO620  LYS621  CYS622 
 ASP623  PHE694  ASN695  SER759  ASP760  ASP761  ALA762  ILE779  LEU786  VAL792 
 PHE793  MET794  SER795  GLU796  ALA797  LYS798  CYS799  TRP800  GLU811  SER814 

> <Gold.Protein.RotatedAtoms>
  150.9189  133.6904  159.2836 H   0  0  0  0  0  0  0  0  0  0  0  0  # atno 6907 bound_to 6896
  151.4366  135.1014  159.9667 H   0  0  0  0  0  0  0  0  0  0  0  0  # atno 6908 bound_to 6896
  152.4969  133.8607  159.7304 H   0  0  0  0  0  0  0  0  0  0  0  0  # atno 6909 bound_to 6896
  145.1413  139.3266  143.4615 H   0  0  0  0  0  0  0  0  0  0  0  0  # atno 7974 bound_to 7965
  154.4171  140.1730  156.1772 H   0  0  0  0  0  0  0  0  0  0  0  0  # atno 8008 bound_to 7997
  155.9711  140.3385  155.6553 H   0  0  0  0  0  0  0  0  0  0  0  0  # atno 8009 bound_to 7997
  155.6623  140.0702  157.2540 H   0  0  0  0  0  0  0  0  0  0  0  0  # atno 8010 bound_to 7997
  140.7253  143.3873  151.1493 H   0  0  0  0  0  0  0  0  0  0  0  0  # atno 10167 bound_to 10162
  156.0235  130.5429  150.7135 H   0  0  0  0  0  0  0  0  0  0  0  0  # atno 10718 bound_to 10713
  153.0372  135.6464  154.1044 H   0  0  0  0  0  0  0  0  0  0  0  0  # atno 10763 bound_to 10752
  154.0757  135.2877  155.3301 H   0  0  0  0  0  0  0  0  0  0  0  0  # atno 10764 bound_to 10752
  154.6564  135.5407  153.8028 H   0  0  0  0  0  0  0  0  0  0  0  0  # atno 10765 bound_to 10752
  140.7132  133.8891  155.8766 H   0  0  0  0  0  0  0  0  0  0  0  0  # atno 11005 bound_to 11000
  146.3505  140.1450  142.8593 LP  0  0  0  0  0  0  0  0  0  0  0  0  # atno 17320 bound_to 7965
  145.0530  140.9031  143.4984 LP  0  0  0  0  0  0  0  0  0  0  0  0  # atno 17321 bound_to 7965
  139.7472  143.8834  152.3067 LP  0  0  0  0  0  0  0  0  0  0  0  0  # atno 17342 bound_to 10162
  139.8675  144.7085  150.9026 LP  0  0  0  0  0  0  0  0  0  0  0  0  # atno 17343 bound_to 10162
  157.4767  131.0898  151.0582 LP  0  0  0  0  0  0  0  0  0  0  0  0  # atno 17370 bound_to 10713
  157.1026  130.5988  149.5463 LP  0  0  0  0  0  0  0  0  0  0  0  0  # atno 17371 bound_to 10713
  141.0066  134.1077  157.4264 LP  0  0  0  0  0  0  0  0  0  0  0  0  # atno 17394 bound_to 11000
  139.8866  135.0083  156.6510 LP  0  0  0  0  0  0  0  0  0  0  0  0  # atno 17395 bound_to 11000

$$$$
