AV-unprocessed.smi:3141|AV-procd|sdf|11968|dock3
  -GOLD-   2272017363D 1   1.00000     0.00000
 Structure written by MMmdl.
 35 37  0  0  0  0  0  0  0  0  1 V2000
  150.4855  140.4272  154.5452 O   0  0  0  0  0  0  0  0  0  0  0  0
  150.0959  141.2998  155.3215 C   0  0  0  0  0  0  0  0  0  0  0  0
  149.0002  142.0462  155.1305 N   0  0  0  0  0  0  0  0  0  0  0  0
  148.1199  141.9499  154.0118 C   0  0  0  0  0  0  0  0  0  0  0  0
  146.6326  141.9174  154.2882 C   0  0  0  0  0  0  0  0  0  0  0  0
  147.3373  140.6659  153.8432 C   0  0  0  0  0  0  0  0  0  0  0  0
  150.7192  141.6197  156.4632 N   0  0  0  0  0  0  0  0  0  0  0  0
  151.9586  141.0085  156.9473 C   0  0  2  0  0  0  0  0  0  0  0  0
  151.7858  139.4827  157.1021 C   0  0  0  0  0  0  0  0  0  0  0  0
  151.7681  139.1868  158.6095 C   0  0  0  0  0  0  0  0  0  0  0  0
  151.6089  140.5426  159.2975 C   0  0  0  0  0  0  0  0  0  0  0  0
  152.3336  141.5109  158.3570 C   0  0  2  0  0  0  0  0  0  0  0  0
  152.0731  142.9283  158.5915 N   0  0  0  0  0  0  0  0  0  0  0  0
  151.2093  143.4580  159.5435 C   0  0  0  0  0  0  0  0  0  0  0  0
  151.2410  144.8255  159.3950 C   0  0  0  0  0  0  0  0  0  0  0  0
  152.0902  145.1612  158.3449 N   0  0  0  0  0  0  0  0  0  0  0  0
  152.5343  143.9893  157.9098 C   0  0  0  0  0  0  0  0  0  0  0  0
  148.7699  142.7372  155.8295 H   0  0  0  0  0  0  0  0  0  0  0  0
  148.4238  142.4481  153.0924 H   0  0  0  0  0  0  0  0  0  0  0  0
  146.3057  141.9683  155.3251 H   0  0  0  0  0  0  0  0  0  0  0  0
  145.9785  142.4077  153.5698 H   0  0  0  0  0  0  0  0  0  0  0  0
  147.1545  140.3208  152.8277 H   0  0  0  0  0  0  0  0  0  0  0  0
  147.4805  139.8807  154.5830 H   0  0  0  0  0  0  0  0  0  0  0  0
  150.3214  142.3518  157.0333 H   0  0  0  0  0  0  0  0  0  0  0  0
  152.7674  141.2378  156.2511 H   0  0  0  0  0  0  0  0  0  0  0  0
  150.8692  139.1281  156.6280 H   0  0  0  0  0  0  0  0  0  0  0  0
  152.6104  138.9513  156.6258 H   0  0  0  0  0  0  0  0  0  0  0  0
  150.9775  138.4893  158.8872 H   0  0  0  0  0  0  0  0  0  0  0  0
  152.7183  138.7388  158.9032 H   0  0  0  0  0  0  0  0  0  0  0  0
  150.5488  140.7926  159.3618 H   0  0  0  0  0  0  0  0  0  0  0  0
  152.0186  140.5477  160.3081 H   0  0  0  0  0  0  0  0  0  0  0  0
  153.4062  141.3618  158.4928 H   0  0  0  0  0  0  0  0  0  0  0  0
  150.6631  142.8335  160.2354 H   0  0  0  0  0  0  0  0  0  0  0  0
  150.7130  145.5862  159.9511 H   0  0  0  0  0  0  0  0  0  0  0  0
  153.2140  143.9093  157.0744 H   0  0  0  0  0  0  0  0  0  0  0  0
  1  2  2  0  0  0  0
  2  3  1  0  0  0  0
  2  7  1  0  0  0  0
  3  4  1  0  0  0  0
  3 18  1  0  0  0  0
  4  6  1  0  0  0  0
  4  5  1  0  0  0  0
  4 19  1  0  0  0  0
  5  6  1  0  0  0  0
  5 20  1  0  0  0  0
  5 21  1  0  0  0  0
  6 22  1  0  0  0  0
  6 23  1  0  0  0  0
  7  8  1  0  0  0  0
  7 24  1  0  0  0  0
  8 12  1  0  0  0  0
  8  9  1  0  0  0  0
  8 25  1  0  0  0  0
  9 10  1  0  0  0  0
  9 26  1  0  0  0  0
  9 27  1  0  0  0  0
 10 11  1  0  0  0  0
 10 28  1  0  0  0  0
 10 29  1  0  0  0  0
 11 12  1  0  0  0  0
 11 30  1  0  0  0  0
 11 31  1  0  0  0  0
 12 13  1  0  0  0  0
 12 32  1  0  0  0  0
 13 17  1  0  0  0  0
 13 14  1  0  0  0  0
 14 15  2  0  0  0  0
 14 33  1  0  0  0  0
 15 16  1  0  0  0  0
 15 34  1  0  0  0  0
 16 17  2  0  0  0  0
 17 35  1  0  0  0  0
M  END
> <s_m_source_file>
AV-unprocessed.smi

> <i_m_source_file_index>
3141

> <i_lp_mmshare_version>
43012

> <i_f3d_flags>
0

> <s_epik_input>
W0NIMl0xW0NIMl1bQ0hdMVtOSF1DKD1PKVtOSF1bQ0BASF0yW0NIMl1bQ0gyXVtDSDJdW0NASF0ybjNbY0hdW2NIXW5bY0hdMw==

> <s_epik_cmdline>
J2VwaWtfcHl0aG9uJywgJy1waCcsICc3LjAnLCAnLXRuJywgJzgnLCAnLW1hJywgJzIwMCcsICctbWV0YWxfYmluZGluZycsICctaW1hZScsICc8aW5maWxlLm1hZT4nLCAnLW9tYWUnLCAnPG91dGZpbGUubWFlPic=

> <r_lp_tautomer_probability>
1

> <r_epik_Ionization_Penalty>
0.728419

> <r_epik_Ionization_Penalty_Charging>
0.728357

> <r_epik_Ionization_Penalty_Neutral>
6.27871e-05

> <r_epik_State_Penalty>
0.753408

> <r_epik_Charging_Adjusted_Penalty>
1.48176

> <i_epik_Tot_Q>
0

> <i_epik_Tot_abs_Q>
0

> <r_epik_Metal_State_Penalty>
0.332413

> <b_epik_Metal_Only>
0

> <s_lp_Force_Field>
OPLS_2005

> <r_lp_Energy>
36.3958

> <b_lp_Chiralities_Consistent>
1

> <s_lp_Variant>
AV-unprocessed.smi:3141-7

> <Gold.Version>
5.8.1

> <Gold.Id.Protein>
6NUR|6NUR_protein|mol2

> <Gold.PLP.Fitness>
36.4270

> <Gold.PLP.PLP>
-32.1393

> <Gold.PLP.part.hbond>
-2.0000

> <Gold.PLP.part.metal>
0.0000

> <Gold.PLP.part.buried>
-3.9353

> <Gold.PLP.part.nonpolar>
-24.5108

> <Gold.PLP.part.repulsive>
0.4352

> <Gold.PLP.ligand.clash>
0.0000

> <Gold.PLP.ligand.torsion>
0.1199

> <Gold.PLP.Chemscore.Hbond>
1.4880

> <Gold.PLP.Chemscore.CHOScore>
0.0000

> <Gold.PLP.Chemscore.Metal>
0.0000

> <Gold.Chemscore.Hbonds>
donor molecule, donor type, donor heavy atom, donor atom, acceptor molecule, acceptor atom, score
      L1  H     3    18       P1  8028  0.54
      P1  H  7989  7998       L1     1  1.00

> <Gold.PLP.Chemscore.Internal.Correction>
0.0636

> <Gold.Rescore>
     Score         DG    S(hbond)    S(metal)    S(lipo)     H(rot)  DE(clash)    DE(int)     intcor
     13.30     -14.56       1.45        0.00      70.65       1.57       0.27       0.99       ----

> <Gold.Chemscore.Fitness>
13.3032

> <Gold.Chemscore.DG>
-14.5576

> <Gold.Chemscore.ZeroCoef>
-5.4800

> <Gold.Chemscore.Hbond>
1.4469

> <Gold.Chemscore.Metal>
0.0000

> <Gold.Chemscore.Lipo>
70.6463

> <Gold.Chemscore.Internal_Hbond>
0.0000

> <Gold.Chemscore.DEClash>
0.2659

> <Gold.Chemscore.DEInternal>
0.9885

> <Gold.Chemscore.Rot>
1.5705

> <Gold.Chemscore.Internal.Correction>
   9.000000E+99

> <Gold.Chemscore.Hbonds>
donor molecule, donor type, donor heavy atom, donor atom, acceptor molecule, acceptor atom, score
      L1  H     3    18       P1  8028  0.53
      P1  H  7989  7998       L1     1  0.88

> <Gold.Chemscore.Hbond.Weighted>
-4.8326

> <Gold.Chemscore.Metal.Weighted>
-0.0000

> <Gold.Chemscore.Lipo.Weighted>
-8.2656

> <Gold.Chemscore.Internal_Hbond.Weighted>
0.0000

> <Gold.Chemscore.DEClash.Weighted>
0.2659

> <Gold.Chemscore.DEInternal.Weighted>
0.9885

> <Gold.Chemscore.Rot.Weighted>
4.0206

> <Gold.Chemscore.Internal.Correction.Weighted>
   9.000000E+99

> <Gold.Protein.RotatedTorsions>
[ 6907 6896 6895 6894 ] final  158.06 input  -60.11 | X-H torsion
[ 7974 7965 7964 7962 ] final  152.64 input  175.53 | X-H torsion
[ 8008 7997 7996 7995 ] final  -56.30 input   59.86 | X-H torsion
[ 10167 10162 10161 10158 ] final -105.49 input  -65.29 | X-H torsion
[ 10718 10713 10712 10709 ] final   61.63 input   66.30 | X-H torsion
[ 10763 10752 10751 10750 ] final    7.63 input  -60.55 | X-H torsion
[ 11005 11000 10999 10996 ] final   77.86 input  -57.11 | X-H torsion

> <Gold.Protein.ActiveResidues>
 VAL166  LYS551  ARG553  GLY616  TRP617  ASP618  TYR619  PRO620  LYS621  CYS622 
 ASP623  PHE694  ASN695  SER759  ASP760  ASP761  ALA762  ILE779  LEU786  VAL792 
 PHE793  MET794  SER795  GLU796  ALA797  LYS798  CYS799  TRP800  GLU811  SER814 

> <Gold.Protein.RotatedAtoms>
  152.0060  133.3843  159.4200 H   0  0  0  0  0  0  0  0  0  0  0  0  # atno 6907 bound_to 6896
  150.6904  134.3782  159.5031 H   0  0  0  0  0  0  0  0  0  0  0  0  # atno 6908 bound_to 6896
  152.1536  134.8968  160.0597 H   0  0  0  0  0  0  0  0  0  0  0  0  # atno 6909 bound_to 6896
  144.8208  139.6695  143.6101 H   0  0  0  0  0  0  0  0  0  0  0  0  # atno 7974 bound_to 7965
  154.4225  140.1133  156.5616 H   0  0  0  0  0  0  0  0  0  0  0  0  # atno 8008 bound_to 7997
  155.6306  140.3495  155.4662 H   0  0  0  0  0  0  0  0  0  0  0  0  # atno 8009 bound_to 7997
  155.9951  140.1187  157.0591 H   0  0  0  0  0  0  0  0  0  0  0  0  # atno 8010 bound_to 7997
  140.1980  143.3840  152.1152 H   0  0  0  0  0  0  0  0  0  0  0  0  # atno 10167 bound_to 10162
  157.5842  130.9005  149.9485 H   0  0  0  0  0  0  0  0  0  0  0  0  # atno 10718 bound_to 10713
  153.2341  135.6896  153.7857 H   0  0  0  0  0  0  0  0  0  0  0  0  # atno 10763 bound_to 10752
  153.7011  135.3297  155.3226 H   0  0  0  0  0  0  0  0  0  0  0  0  # atno 10764 bound_to 10752
  154.8327  135.4568  154.1237 H   0  0  0  0  0  0  0  0  0  0  0  0  # atno 10765 bound_to 10752
  139.9237  134.7717  156.1576 H   0  0  0  0  0  0  0  0  0  0  0  0  # atno 11005 bound_to 11000
  146.2513  139.6207  142.9425 LP  0  0  0  0  0  0  0  0  0  0  0  0  # atno 17320 bound_to 7965
  145.5109  141.0435  143.2488 LP  0  0  0  0  0  0  0  0  0  0  0  0  # atno 17321 bound_to 7965
  139.5229  144.7064  151.5341 LP  0  0  0  0  0  0  0  0  0  0  0  0  # atno 17342 bound_to 10162
  140.6410  143.8889  150.6692 LP  0  0  0  0  0  0  0  0  0  0  0  0  # atno 17343 bound_to 10162
  156.0889  130.3665  150.0433 LP  0  0  0  0  0  0  0  0  0  0  0  0  # atno 17370 bound_to 10713
  156.8567  130.9477  151.3621 LP  0  0  0  0  0  0  0  0  0  0  0  0  # atno 17371 bound_to 10713
  141.0778  133.6768  156.2272 LP  0  0  0  0  0  0  0  0  0  0  0  0  # atno 17394 bound_to 11000
  140.6400  134.5176  157.5568 LP  0  0  0  0  0  0  0  0  0  0  0  0  # atno 17395 bound_to 11000

$$$$
