AV-unprocessed.smi:480|AV-procd|sdf|2677|dock3
  -GOLD-   2262023 93D 1   1.00000     0.00000
 Structure written by MMmdl.
 46 48  0  0  0  0  0  0  0  0  1 V2000
  149.2371  141.0999  155.3134 C   0  0  0  0  0  0  0  0  0  0  0  0
  150.1524  140.1044  156.0352 C   0  0  0  0  0  0  0  0  0  0  0  0
  150.9216  140.7360  157.1564 C   0  0  0  0  0  0  0  0  0  0  0  0
  150.7227  142.0062  157.5105 N   0  0  0  0  0  0  0  0  0  0  0  0
  151.5962  142.1687  158.5679 C   0  0  0  0  0  0  0  0  0  0  0  0
  151.8628  143.2981  159.3745 C   0  0  0  0  0  0  0  0  0  0  0  0
  152.8100  143.2233  160.4167 C   0  0  0  0  0  0  0  0  0  0  0  0
  153.5024  142.0209  160.6670 C   0  0  0  0  0  0  0  0  0  0  0  0
  153.2520  140.8840  159.8747 C   0  0  0  0  0  0  0  0  0  0  0  0
  152.3065  140.9645  158.8349 C   0  0  0  0  0  0  0  0  0  0  0  0
  151.8357  140.0543  157.8940 N   0  0  0  0  0  0  0  0  0  0  0  0
  152.2566  138.6646  157.7712 C   0  0  0  0  0  0  0  0  0  0  0  0
  152.4083  137.9597  159.1350 C   0  0  1  0  0  0  0  0  0  0  0  0
  151.4305  136.9417  159.1878 O   0  0  0  0  0  0  0  0  0  0  0  0
  153.7887  137.3164  159.3585 C   0  0  0  0  0  0  0  0  0  0  0  0
  153.8365  136.7912  160.6783 O   0  0  0  0  0  0  0  0  0  0  0  0
  154.4881  137.5220  161.6483 C   0  0  0  0  0  0  0  0  0  0  0  0
  154.6333  136.9178  162.9141 C   0  0  0  0  0  0  0  0  0  0  0  0
  155.2892  137.5892  163.9633 C   0  0  0  0  0  0  0  0  0  0  0  0
  155.8091  138.8818  163.7584 C   0  0  0  0  0  0  0  0  0  0  0  0
  156.5205  139.6016  164.8850 C   0  0  0  0  0  0  0  0  0  0  0  0
  156.9602  140.9472  164.4865 C   0  0  0  0  0  0  0  0  0  0  0  0
  157.3060  142.0059  164.1727 N   0  0  0  0  0  0  0  0  0  0  0  0
  155.6675  139.4973  162.4992 C   0  0  0  0  0  0  0  0  0  0  0  0
  155.0117  138.8247  161.4497 C   0  0  0  0  0  0  0  0  0  0  0  0
  148.7001  140.6140  154.4988 H   0  0  0  0  0  0  0  0  0  0  0  0
  149.8112  141.9244  154.8893 H   0  0  0  0  0  0  0  0  0  0  0  0
  148.4979  141.5224  155.9942 H   0  0  0  0  0  0  0  0  0  0  0  0
  149.5769  139.2571  156.4067 H   0  0  0  0  0  0  0  0  0  0  0  0
  150.8631  139.6870  155.3209 H   0  0  0  0  0  0  0  0  0  0  0  0
  151.3368  144.2236  159.1919 H   0  0  0  0  0  0  0  0  0  0  0  0
  153.0052  144.0924  161.0277 H   0  0  0  0  0  0  0  0  0  0  0  0
  154.2253  141.9712  161.4680 H   0  0  0  0  0  0  0  0  0  0  0  0
  153.7800  139.9613  160.0639 H   0  0  0  0  0  0  0  0  0  0  0  0
  151.5101  138.1450  157.1689 H   0  0  0  0  0  0  0  0  0  0  0  0
  153.1850  138.6080  157.2039 H   0  0  0  0  0  0  0  0  0  0  0  0
  152.2077  138.6780  159.9311 H   0  0  0  0  0  0  0  0  0  0  0  0
  151.1921  136.7116  158.3025 H   0  0  0  0  0  0  0  0  0  0  0  0
  153.9807  136.5464  158.6090 H   0  0  0  0  0  0  0  0  0  0  0  0
  154.5714  138.0703  159.2721 H   0  0  0  0  0  0  0  0  0  0  0  0
  154.2397  135.9259  163.0815 H   0  0  0  0  0  0  0  0  0  0  0  0
  155.3951  137.1089  164.9250 H   0  0  0  0  0  0  0  0  0  0  0  0
  155.8632  139.6951  165.7498 H   0  0  0  0  0  0  0  0  0  0  0  0
  157.3949  139.0307  165.1975 H   0  0  0  0  0  0  0  0  0  0  0  0
  156.0643  140.4882  162.3333 H   0  0  0  0  0  0  0  0  0  0  0  0
  154.9240  139.3311  160.5005 H   0  0  0  0  0  0  0  0  0  0  0  0
  1  2  1  0  0  0  0
  1 26  1  0  0  0  0
  1 27  1  0  0  0  0
  1 28  1  0  0  0  0
  2  3  1  0  0  0  0
  2 29  1  0  0  0  0
  2 30  1  0  0  0  0
  3 11  1  0  0  0  0
  3  4  2  0  0  0  0
  4  5  1  0  0  0  0
  5 10  2  0  0  0  0
  5  6  1  0  0  0  0
  6  7  2  0  0  0  0
  6 31  1  0  0  0  0
  7  8  1  0  0  0  0
  7 32  1  0  0  0  0
  8  9  2  0  0  0  0
  8 33  1  0  0  0  0
  9 10  1  0  0  0  0
  9 34  1  0  0  0  0
 10 11  1  0  0  0  0
 11 12  1  0  0  0  0
 12 13  1  0  0  0  0
 12 35  1  0  0  0  0
 12 36  1  0  0  0  0
 13 14  1  0  0  0  0
 13 15  1  0  0  0  0
 13 37  1  0  0  0  0
 14 38  1  0  0  0  0
 15 16  1  0  0  0  0
 15 39  1  0  0  0  0
 15 40  1  0  0  0  0
 16 17  1  0  0  0  0
 17 25  1  0  0  0  0
 17 18  2  0  0  0  0
 18 19  1  0  0  0  0
 18 41  1  0  0  0  0
 19 20  2  0  0  0  0
 19 42  1  0  0  0  0
 20 21  1  0  0  0  0
 20 24  1  0  0  0  0
 21 22  1  0  0  0  0
 21 43  1  0  0  0  0
 21 44  1  0  0  0  0
 22 23  3  0  0  0  0
 24 25  2  0  0  0  0
 24 45  1  0  0  0  0
 25 46  1  0  0  0  0
M  END
> <s_m_source_file>
AV-unprocessed.smi

> <i_m_source_file_index>
480

> <i_lp_mmshare_version>
43012

> <i_f3d_flags>
0

> <s_epik_input>
W2NIXTFbY0hdW2NIXVtjSF1jKGMxMiluKGMobjIpW0NIMl1bQ0gzXSlbQ0gyXVtDQEhdKFtPSF0pW0NIMl1PYzNbY0hdW2NIXWMoW0NIMl1DI04pW2NIXVtjSF0z

> <s_epik_cmdline>
J2VwaWtfcHl0aG9uJywgJy1waCcsICc3LjAnLCAnLXRuJywgJzgnLCAnLW1hJywgJzIwMCcsICctbWV0YWxfYmluZGluZycsICctaW1hZScsICc8aW5maWxlLm1hZT4nLCAnLW9tYWUnLCAnPG91dGZpbGUubWFlPic=

> <r_lp_tautomer_probability>
1

> <r_epik_Ionization_Penalty>
0.114213

> <r_epik_Ionization_Penalty_Charging>
0

> <r_epik_Ionization_Penalty_Neutral>
0.114213

> <r_epik_State_Penalty>
0.103875

> <r_epik_Charging_Adjusted_Penalty>
0.103875

> <i_epik_Tot_Q>
0

> <i_epik_Tot_abs_Q>
0

> <r_epik_Metal_State_Penalty>
0.000113526

> <b_epik_Metal_Only>
0

> <s_lp_Force_Field>
OPLS_2005

> <r_lp_Energy>
15.7981

> <b_lp_Chiralities_Consistent>
1

> <s_lp_Variant>
AV-unprocessed.smi:480-2

> <Gold.Version>
5.8.1

> <Gold.Id.Protein>
6NUR|6NUR_protein|mol2

> <Gold.PLP.Fitness>
50.8596

> <Gold.PLP.PLP>
-50.3893

> <Gold.PLP.part.hbond>
-2.5654

> <Gold.PLP.part.metal>
0.0000

> <Gold.PLP.part.buried>
-6.8897

> <Gold.PLP.part.nonpolar>
-42.3123

> <Gold.PLP.part.repulsive>
0.0641

> <Gold.PLP.ligand.clash>
0.0000

> <Gold.PLP.ligand.torsion>
1.3337

> <Gold.PLP.Chemscore.Hbond>
1.0000

> <Gold.PLP.Chemscore.CHOScore>
0.0000

> <Gold.PLP.Chemscore.Metal>
0.0000

> <Gold.Chemscore.Hbonds>
donor molecule, donor type, donor heavy atom, donor atom, acceptor molecule, acceptor atom, score
      P1  H  6896  6908       L1    14  0.95

> <Gold.PLP.Chemscore.Internal.Correction>
0.1377

> <Gold.Rescore>
     Score         DG    S(hbond)    S(metal)    S(lipo)     H(rot)  DE(clash)    DE(int)     intcor
     16.05     -17.59       0.90        0.00     134.28       2.58       0.00       1.54       ----

> <Gold.Chemscore.Fitness>
16.0524

> <Gold.Chemscore.DG>
-17.5935

> <Gold.Chemscore.ZeroCoef>
-5.4800

> <Gold.Chemscore.Hbond>
0.8973

> <Gold.Chemscore.Metal>
0.0000

> <Gold.Chemscore.Lipo>
134.2807

> <Gold.Chemscore.Internal_Hbond>
0.0000

> <Gold.Chemscore.DEClash>
0.0004

> <Gold.Chemscore.DEInternal>
1.5406

> <Gold.Chemscore.Rot>
2.5759

> <Gold.Chemscore.Internal.Correction>
   9.000000E+99

> <Gold.Chemscore.Hbonds>
donor molecule, donor type, donor heavy atom, donor atom, acceptor molecule, acceptor atom, score
      P1  H  6896  6908       L1    14  0.21

> <Gold.Chemscore.Hbond.Weighted>
-2.9970

> <Gold.Chemscore.Metal.Weighted>
-0.0000

> <Gold.Chemscore.Lipo.Weighted>
-15.7108

> <Gold.Chemscore.Internal_Hbond.Weighted>
0.0000

> <Gold.Chemscore.DEClash.Weighted>
0.0004

> <Gold.Chemscore.DEInternal.Weighted>
1.5406

> <Gold.Chemscore.Rot.Weighted>
6.5943

> <Gold.Chemscore.Internal.Correction.Weighted>
   9.000000E+99

> <Gold.Protein.RotatedTorsions>
[ 6907 6896 6895 6894 ] final -124.46 input  -60.11 | X-H torsion
[ 7974 7965 7964 7962 ] final  165.84 input  175.53 | X-H torsion
[ 8008 7997 7996 7995 ] final -178.05 input   59.86 | X-H torsion
[ 10167 10162 10161 10158 ] final   60.98 input  -65.29 | X-H torsion
[ 10718 10713 10712 10709 ] final  -98.80 input   66.30 | X-H torsion
[ 10763 10752 10751 10750 ] final  107.08 input  -60.55 | X-H torsion
[ 11005 11000 10999 10996 ] final -172.93 input  -57.11 | X-H torsion

> <Gold.Protein.ActiveResidues>
 VAL166  LYS551  ARG553  GLY616  TRP617  ASP618  TYR619  PRO620  LYS621  CYS622 
 ASP623  PHE694  ASN695  SER759  ASP760  ASP761  ALA762  ILE779  LEU786  VAL792 
 PHE793  MET794  SER795  GLU796  ALA797  LYS798  CYS799  TRP800  GLU811  SER814 

> <Gold.Protein.RotatedAtoms>
  150.8770  133.7425  159.2943 H   0  0  0  0  0  0  0  0  0  0  0  0  # atno 6907 bound_to 6896
  151.5019  135.1060  159.9840 H   0  0  0  0  0  0  0  0  0  0  0  0  # atno 6908 bound_to 6896
  152.4734  133.8037  159.7022 H   0  0  0  0  0  0  0  0  0  0  0  0  # atno 6909 bound_to 6896
  144.7486  139.8529  143.6374 H   0  0  0  0  0  0  0  0  0  0  0  0  # atno 7974 bound_to 7965
  156.0143  140.1247  157.0423 H   0  0  0  0  0  0  0  0  0  0  0  0  # atno 8008 bound_to 7997
  154.4287  140.1081  156.5943 H   0  0  0  0  0  0  0  0  0  0  0  0  # atno 8009 bound_to 7997
  155.6036  140.3471  155.4603 H   0  0  0  0  0  0  0  0  0  0  0  0  # atno 8010 bound_to 7997
  140.1598  144.4382  150.6715 H   0  0  0  0  0  0  0  0  0  0  0  0  # atno 10167 bound_to 10162
  156.0117  130.5254  150.6576 H   0  0  0  0  0  0  0  0  0  0  0  0  # atno 10718 bound_to 10713
  153.4018  135.3856  155.1992 H   0  0  0  0  0  0  0  0  0  0  0  0  # atno 10763 bound_to 10752
  154.8730  135.3773  154.4609 H   0  0  0  0  0  0  0  0  0  0  0  0  # atno 10764 bound_to 10752
  153.5107  135.7087  153.5844 H   0  0  0  0  0  0  0  0  0  0  0  0  # atno 10765 bound_to 10752
  140.4914  134.5981  157.4956 H   0  0  0  0  0  0  0  0  0  0  0  0  # atno 11005 bound_to 11000
  146.1403  139.4459  143.0113 LP  0  0  0  0  0  0  0  0  0  0  0  0  # atno 17320 bound_to 7965
  145.7028  141.0131  143.1495 LP  0  0  0  0  0  0  0  0  0  0  0  0  # atno 17321 bound_to 7965
  140.6650  143.2265  151.5764 LP  0  0  0  0  0  0  0  0  0  0  0  0  # atno 17342 bound_to 10162
  139.5387  144.2709  152.1305 LP  0  0  0  0  0  0  0  0  0  0  0  0  # atno 17343 bound_to 10162
  157.4325  131.0851  151.1024 LP  0  0  0  0  0  0  0  0  0  0  0  0  # atno 17370 bound_to 10713
  157.1593  130.6218  149.5606 LP  0  0  0  0  0  0  0  0  0  0  0  0  # atno 17371 bound_to 10713
  139.9767  134.7204  155.9937 LP  0  0  0  0  0  0  0  0  0  0  0  0  # atno 17394 bound_to 11000
  141.1482  133.6552  156.3932 LP  0  0  0  0  0  0  0  0  0  0  0  0  # atno 17395 bound_to 11000

$$$$
