AV-unprocessed.smi:240|AV-procd|sdf|1826|dock5
  -GOLD-   2262020423D 1   1.00000     0.00000
 Structure written by MMmdl.
 55 59  0  0  0  0  0  0  0  0  1 V2000
  149.3878  139.3773  157.4534 O   0  0  0  0  0  0  0  0  0  0  0  0
  149.4894  138.0661  156.9373 C   0  0  2  0  0  0  0  0  0  0  0  0
  150.7535  137.3896  157.5007 C   0  0  0  0  0  0  0  0  0  0  0  0
  151.4145  136.6840  156.3153 C   0  0  0  0  0  0  0  0  0  0  0  0
  151.0629  137.5682  155.1217 C   0  0  0  0  0  0  0  0  0  0  0  0
  149.6095  137.9793  155.3929 C   0  0  2  0  0  0  0  0  0  0  0  0
  149.0441  139.1387  154.5107 C   0  0  2  0  0  0  0  0  0  0  0  0
  149.8035  140.4838  154.6587 C   0  0  0  0  0  0  0  0  0  0  0  0
  149.2352  141.4708  153.8055 O   0  0  0  0  0  0  0  0  0  0  0  0
  147.8764  141.7329  154.1271 C   0  0  0  0  0  0  0  0  0  0  0  0
  147.0613  140.4531  153.9049 C   0  0  0  0  0  0  0  0  0  0  0  0
  147.6040  139.3619  154.7049 N   0  0  0  0  0  0  0  0  0  0  0  0
  146.7921  138.2820  154.6512 C   0  0  0  0  0  0  0  0  0  0  0  0
  146.4960  137.6801  155.8291 N   0  0  0  0  0  0  0  0  0  0  0  0
  145.6971  136.6092  155.8492 C   0  0  0  0  0  0  0  0  0  0  0  0
  145.0973  135.9956  154.8270 N   0  0  0  0  0  0  0  0  0  0  0  0
  145.3881  136.6042  153.6412 C   0  0  0  0  0  0  0  0  0  0  0  0
  146.2158  137.7482  153.4635 C   0  0  0  0  0  0  0  0  0  0  0  0
  146.2656  138.0914  152.1179 N   0  0  0  0  0  0  0  0  0  0  0  0
  145.5161  137.1976  151.5332 C   0  0  0  0  0  0  0  0  0  0  0  0
  144.9569  136.2598  152.3718 N   0  0  0  0  0  0  0  0  0  0  0  0
  144.0848  135.1583  151.9929 C   0  0  0  0  0  0  0  0  0  0  0  0
  144.6344  134.3036  150.8263 C   0  0  1  0  0  0  0  0  0  0  0  0
  144.4480  135.0043  149.6086 O   0  0  0  0  0  0  0  0  0  0  0  0
  146.1167  133.9856  150.9737 C   0  0  0  0  0  0  0  0  0  0  0  0
  146.2510  132.6625  150.2326 C   0  0  0  0  0  0  0  0  0  0  0  0
  145.0667  131.9729  150.5951 O   0  0  0  0  0  0  0  0  0  0  0  0
  143.9944  132.9068  150.6884 C   0  0  0  0  0  0  0  0  0  0  0  0
  149.0967  139.3226  158.3512 H   0  0  0  0  0  0  0  0  0  0  0  0
  148.6017  137.5192  157.2578 H   0  0  0  0  0  0  0  0  0  0  0  0
  151.4457  138.1376  157.8912 H   0  0  0  0  0  0  0  0  0  0  0  0
  150.5276  136.7025  158.3166 H   0  0  0  0  0  0  0  0  0  0  0  0
  152.4901  136.5627  156.4459 H   0  0  0  0  0  0  0  0  0  0  0  0
  150.9790  135.6926  156.1836 H   0  0  0  0  0  0  0  0  0  0  0  0
  151.7283  138.4304  155.1214 H   0  0  0  0  0  0  0  0  0  0  0  0
  151.1812  137.0511  154.1691 H   0  0  0  0  0  0  0  0  0  0  0  0
  149.0395  137.0896  155.1212 H   0  0  0  0  0  0  0  0  0  0  0  0
  149.1826  138.8389  153.4719 H   0  0  0  0  0  0  0  0  0  0  0  0
  149.8025  140.8529  155.6833 H   0  0  0  0  0  0  0  0  0  0  0  0
  150.8459  140.3732  154.3649 H   0  0  0  0  0  0  0  0  0  0  0  0
  147.7889  142.0816  155.1575 H   0  0  0  0  0  0  0  0  0  0  0  0
  147.5056  142.5313  153.4846 H   0  0  0  0  0  0  0  0  0  0  0  0
  146.0181  140.6310  154.1705 H   0  0  0  0  0  0  0  0  0  0  0  0
  147.0826  140.1783  152.8491 H   0  0  0  0  0  0  0  0  0  0  0  0
  145.5119  136.1826  156.8239 H   0  0  0  0  0  0  0  0  0  0  0  0
  145.3505  137.1995  150.4657 H   0  0  0  0  0  0  0  0  0  0  0  0
  143.9195  134.5336  152.8716 H   0  0  0  0  0  0  0  0  0  0  0  0
  143.1119  135.5739  151.7270 H   0  0  0  0  0  0  0  0  0  0  0  0
  145.2688  135.0170  149.1407 H   0  0  0  0  0  0  0  0  0  0  0  0
  146.7747  134.7646  150.5858 H   0  0  0  0  0  0  0  0  0  0  0  0
  146.3687  133.8317  152.0241 H   0  0  0  0  0  0  0  0  0  0  0  0
  146.2694  132.8180  149.1528 H   0  0  0  0  0  0  0  0  0  0  0  0
  147.1442  132.1062  150.5173 H   0  0  0  0  0  0  0  0  0  0  0  0
  143.3967  132.6395  151.5592 H   0  0  0  0  0  0  0  0  0  0  0  0
  143.3478  132.8312  149.8129 H   0  0  0  0  0  0  0  0  0  0  0  0
  1  2  1  0  0  0  0
  1 29  1  0  0  0  0
  2  6  1  0  0  0  0
  2  3  1  0  0  0  0
  2 30  1  0  0  0  0
  3  4  1  0  0  0  0
  3 31  1  0  0  0  0
  3 32  1  0  0  0  0
  4  5  1  0  0  0  0
  4 33  1  0  0  0  0
  4 34  1  0  0  0  0
  5  6  1  0  0  0  0
  5 35  1  0  0  0  0
  5 36  1  0  0  0  0
  6  7  1  0  0  0  0
  6 37  1  0  0  0  0
  7 12  1  0  0  0  0
  7  8  1  0  0  0  0
  7 38  1  0  0  0  0
  8  9  1  0  0  0  0
  8 39  1  0  0  0  0
  8 40  1  0  0  0  0
  9 10  1  0  0  0  0
 10 11  1  0  0  0  0
 10 41  1  0  0  0  0
 10 42  1  0  0  0  0
 11 12  1  0  0  0  0
 11 43  1  0  0  0  0
 11 44  1  0  0  0  0
 12 13  1  0  0  0  0
 13 18  1  0  0  0  0
 13 14  2  0  0  0  0
 14 15  1  0  0  0  0
 15 16  2  0  0  0  0
 15 45  1  0  0  0  0
 16 17  1  0  0  0  0
 17 21  1  0  0  0  0
 17 18  2  0  0  0  0
 18 19  1  0  0  0  0
 19 20  2  0  0  0  0
 20 21  1  0  0  0  0
 20 46  1  0  0  0  0
 21 22  1  0  0  0  0
 22 23  1  0  0  0  0
 22 47  1  0  0  0  0
 22 48  1  0  0  0  0
 23 28  1  0  0  0  0
 23 24  1  0  0  0  0
 23 25  1  0  0  0  0
 24 49  1  0  0  0  0
 25 26  1  0  0  0  0
 25 50  1  0  0  0  0
 25 51  1  0  0  0  0
 26 27  1  0  0  0  0
 26 52  1  0  0  0  0
 26 53  1  0  0  0  0
 27 28  1  0  0  0  0
 28 54  1  0  0  0  0
 28 55  1  0  0  0  0
M  END
> <s_m_source_file>
AV-unprocessed.smi

> <i_m_source_file_index>
240

> <i_lp_mmshare_version>
43012

> <i_f3d_flags>
0

> <s_epik_input>
W09IXVtDQEBIXTFbQ0gyXVtDSDJdW0NIMl1bQ0BIXTFbQ0BASF0yW0NIMl1PW0NIMl1bQ0gyXU4yYyhuW2NIXW4zKWMoYzM0KW5bY0hdbjRbQ0gyXVtDQEBdNShbT0hdKVtDSDJdW0NIMl1PW0NIMl01

> <s_epik_cmdline>
J2VwaWtfcHl0aG9uJywgJy1waCcsICc3LjAnLCAnLXRuJywgJzgnLCAnLW1hJywgJzIwMCcsICctbWV0YWxfYmluZGluZycsICctaW1hZScsICc8aW5maWxlLm1hZT4nLCAnLW9tYWUnLCAnPG91dGZpbGUubWFlPic=

> <r_lp_tautomer_probability>
1

> <r_epik_Ionization_Penalty>
0.000130618

> <r_epik_Ionization_Penalty_Charging>
0

> <r_epik_Ionization_Penalty_Neutral>
0.000130618

> <r_epik_State_Penalty>
-0

> <r_epik_Charging_Adjusted_Penalty>
0

> <i_epik_Tot_Q>
0

> <i_epik_Tot_abs_Q>
0

> <r_epik_Metal_State_Penalty>
-0

> <b_epik_Metal_Only>
0

> <s_lp_Force_Field>
OPLS_2005

> <r_lp_Energy>
64.3211

> <b_lp_Chiralities_Consistent>
1

> <s_lp_Variant>
AV-unprocessed.smi:240-3

> <Gold.Version>
5.8.1

> <Gold.Id.Protein>
6NUR|6NUR_protein|mol2

> <Gold.PLP.Fitness>
39.9721

> <Gold.PLP.PLP>
-33.8352

> <Gold.PLP.part.hbond>
-3.0000

> <Gold.PLP.part.metal>
0.0000

> <Gold.PLP.part.buried>
-4.4329

> <Gold.PLP.part.nonpolar>
-28.1920

> <Gold.PLP.part.repulsive>
1.4871

> <Gold.PLP.ligand.clash>
0.0000

> <Gold.PLP.ligand.torsion>
0.8522

> <Gold.PLP.Chemscore.Hbond>
1.7680

> <Gold.PLP.Chemscore.CHOScore>
0.7655

> <Gold.PLP.Chemscore.Metal>
0.0000

> <Gold.Chemscore.Hbonds>
donor molecule, donor type, donor heavy atom, donor atom, acceptor molecule, acceptor atom, score
      L1  H    24    49       P1  7921  0.98
      P1  H  8011  8017       L1     9  0.75
      L1  C    20    46       P1 10171  0.70

> <Gold.PLP.Chemscore.Internal.Correction>
0.2406

> <Gold.Rescore>
     Score         DG    S(hbond)    S(metal)    S(lipo)     H(rot)  DE(clash)    DE(int)     intcor
     11.17     -13.45       1.73        0.00      84.46       3.00       1.50       0.78       ----

> <Gold.Chemscore.Fitness>
11.1730

> <Gold.Chemscore.DG>
-13.4473

> <Gold.Chemscore.ZeroCoef>
-5.4800

> <Gold.Chemscore.Hbond>
1.7292

> <Gold.Chemscore.Metal>
0.0000

> <Gold.Chemscore.Lipo>
84.4582

> <Gold.Chemscore.Internal_Hbond>
0.0000

> <Gold.Chemscore.DEClash>
1.4971

> <Gold.Chemscore.DEInternal>
0.7773

> <Gold.Chemscore.Rot>
3.0039

> <Gold.Chemscore.Internal.Correction>
   9.000000E+99

> <Gold.Chemscore.Hbonds>
donor molecule, donor type, donor heavy atom, donor atom, acceptor molecule, acceptor atom, score
      L1  H    24    49       P1  7921  0.93
      P1  H  8011  8017       L1     9  0.62

> <Gold.Chemscore.Hbond.Weighted>
-5.7756

> <Gold.Chemscore.Metal.Weighted>
-0.0000

> <Gold.Chemscore.Lipo.Weighted>
-9.8816

> <Gold.Chemscore.Internal_Hbond.Weighted>
0.0000

> <Gold.Chemscore.DEClash.Weighted>
1.4971

> <Gold.Chemscore.DEInternal.Weighted>
0.7773

> <Gold.Chemscore.Rot.Weighted>
7.6899

> <Gold.Chemscore.Internal.Correction.Weighted>
   9.000000E+99

> <Gold.Protein.RotatedTorsions>
[ 6907 6896 6895 6894 ] final  -26.71 input  -60.11 | X-H torsion
[ 7974 7965 7964 7962 ] final  102.34 input  175.53 | X-H torsion
[ 8008 7997 7996 7995 ] final   71.77 input   59.86 | X-H torsion
[ 10167 10162 10161 10158 ] final   79.31 input  -65.29 | X-H torsion
[ 10718 10713 10712 10709 ] final  167.52 input   66.30 | X-H torsion
[ 10763 10752 10751 10750 ] final   79.85 input  -60.55 | X-H torsion
[ 11005 11000 10999 10996 ] final  132.68 input  -57.11 | X-H torsion

> <Gold.Protein.ActiveResidues>
 VAL166  LYS551  ARG553  GLY616  TRP617  ASP618  TYR619  PRO620  LYS621  CYS622 
 ASP623  PHE694  ASN695  SER759  ASP760  ASP761  ALA762  ILE779  LEU786  VAL792 
 PHE793  MET794  SER795  GLU796  ALA797  LYS798  CYS799  TRP800  GLU811  SER814 

> <Gold.Protein.RotatedAtoms>
  151.1571  135.0255  159.8693 H   0  0  0  0  0  0  0  0  0  0  0  0  # atno 6907 bound_to 6896
  152.5452  134.1322  159.8454 H   0  0  0  0  0  0  0  0  0  0  0  0  # atno 6908 bound_to 6896
  151.1413  133.4923  159.2629 H   0  0  0  0  0  0  0  0  0  0  0  0  # atno 6909 bound_to 6896
  145.3604  139.2419  143.3510 H   0  0  0  0  0  0  0  0  0  0  0  0  # atno 7974 bound_to 7965
  155.7589  140.3487  155.5188 H   0  0  0  0  0  0  0  0  0  0  0  0  # atno 8008 bound_to 7997
  155.8933  140.1021  157.1424 H   0  0  0  0  0  0  0  0  0  0  0  0  # atno 8009 bound_to 7997
  154.4036  140.1300  156.4330 H   0  0  0  0  0  0  0  0  0  0  0  0  # atno 8010 bound_to 7997
  139.9617  144.5956  150.8066 H   0  0  0  0  0  0  0  0  0  0  0  0  # atno 10167 bound_to 10162
  157.0503  131.0311  151.2683 H   0  0  0  0  0  0  0  0  0  0  0  0  # atno 10718 bound_to 10713
  153.0986  135.4824  154.8825 H   0  0  0  0  0  0  0  0  0  0  0  0  # atno 10763 bound_to 10752
  154.7353  135.3069  154.8825 H   0  0  0  0  0  0  0  0  0  0  0  0  # atno 10764 bound_to 10752
  153.9448  135.6830  153.4797 H   0  0  0  0  0  0  0  0  0  0  0  0  # atno 10765 bound_to 10752
  139.9805  134.9550  156.9616 H   0  0  0  0  0  0  0  0  0  0  0  0  # atno 11005 bound_to 11000
  146.2930  140.4237  142.8732 LP  0  0  0  0  0  0  0  0  0  0  0  0  # atno 17320 bound_to 7965
  144.8651  140.7194  143.6083 LP  0  0  0  0  0  0  0  0  0  0  0  0  # atno 17321 bound_to 7965
  140.7551  143.3039  151.3010 LP  0  0  0  0  0  0  0  0  0  0  0  0  # atno 17342 bound_to 10162
  139.6549  144.0295  152.2652 LP  0  0  0  0  0  0  0  0  0  0  0  0  # atno 17343 bound_to 10162
  157.5035  130.7894  149.7629 LP  0  0  0  0  0  0  0  0  0  0  0  0  # atno 17370 bound_to 10713
  156.0010  130.3880  150.2608 LP  0  0  0  0  0  0  0  0  0  0  0  0  # atno 17371 bound_to 10713
  140.5107  134.1005  155.7269 LP  0  0  0  0  0  0  0  0  0  0  0  0  # atno 17394 bound_to 11000
  141.1477  133.9025  157.2174 LP  0  0  0  0  0  0  0  0  0  0  0  0  # atno 17395 bound_to 11000

$$$$
