AV-unprocessed.smi:1194|AV-procd|sdf|4990|dock10
  -GOLD-   22720 3593D 1   1.00000     0.00000
 Structure written by MMmdl.
 47 48  0  0  0  0  0  0  0  0  1 V2000
  154.5121  132.2696  162.5665 C   0  0  0  0  0  0  0  0  0  0  0  0
  155.5056  132.2773  161.4000 C   0  0  0  0  0  0  0  0  0  0  0  0
  156.1027  133.6750  161.1473 C   0  0  0  0  0  0  0  0  0  0  0  0
  155.0512  134.7947  161.0362 C   0  0  0  0  0  0  0  0  0  0  0  0
  154.2209  134.7288  160.1280 O   0  0  0  0  0  0  0  0  0  0  0  0
  155.0767  135.8276  161.9205 N   0  0  0  0  0  0  0  0  0  0  0  0
  156.0331  135.9298  163.0452 C   0  0  0  0  0  0  0  0  0  0  0  0
  155.2816  136.0342  164.3829 C   0  0  0  0  0  0  0  0  0  0  0  0
  154.2762  137.1935  164.3661 C   0  0  0  0  0  0  0  0  0  0  0  0
  153.3408  137.0673  163.1542 C   0  0  0  0  0  0  0  0  0  0  0  0
  154.1153  136.9564  161.8173 C   0  0  1  0  0  0  0  0  0  0  0  0
  154.7734  138.2825  161.3724 C   0  0  0  0  0  0  0  0  0  0  0  0
  155.9857  138.4532  161.4998 O   0  0  0  0  0  0  0  0  0  0  0  0
  153.9583  139.2210  160.8689 N   0  0  0  0  0  0  0  0  0  0  0  0
  154.3498  140.5448  160.4045 C   0  0  0  0  0  0  0  0  0  0  0  0
  153.9419  141.6269  161.4205 C   0  0  0  0  0  0  0  0  0  0  0  0
  153.2767  142.8363  160.7824 C   0  0  0  0  0  0  0  0  0  0  0  0
  153.3258  143.0379  159.3877 C   0  0  0  0  0  0  0  0  0  0  0  0
  152.7174  144.1868  158.8464 C   0  0  0  0  0  0  0  0  0  0  0  0
  152.0802  145.0855  159.7248 C   0  0  0  0  0  0  0  0  0  0  0  0
  152.0219  144.8999  161.0609 N   0  0  0  0  0  0  0  0  0  0  0  0
  152.6101  143.7978  161.5723 C   0  0  0  0  0  0  0  0  0  0  0  0
  154.1028  131.2712  162.7217 H   0  0  0  0  0  0  0  0  0  0  0  0
  153.6783  132.9466  162.3783 H   0  0  0  0  0  0  0  0  0  0  0  0
  154.9938  132.5793  163.4947 H   0  0  0  0  0  0  0  0  0  0  0  0
  156.3037  131.5650  161.6145 H   0  0  0  0  0  0  0  0  0  0  0  0
  155.0023  131.9198  160.5007 H   0  0  0  0  0  0  0  0  0  0  0  0
  156.7987  133.9237  161.9493 H   0  0  0  0  0  0  0  0  0  0  0  0
  156.6742  133.6368  160.2204 H   0  0  0  0  0  0  0  0  0  0  0  0
  156.7279  135.0965  163.1204 H   0  0  0  0  0  0  0  0  0  0  0  0
  156.6611  136.8105  162.9076 H   0  0  0  0  0  0  0  0  0  0  0  0
  154.7567  135.0979  164.5779 H   0  0  0  0  0  0  0  0  0  0  0  0
  155.9904  136.1682  165.2006 H   0  0  0  0  0  0  0  0  0  0  0  0
  153.6957  137.2000  165.2889 H   0  0  0  0  0  0  0  0  0  0  0  0
  154.8097  138.1442  164.3297 H   0  0  0  0  0  0  0  0  0  0  0  0
  152.7217  136.1773  163.2769 H   0  0  0  0  0  0  0  0  0  0  0  0
  152.6446  137.9066  163.1327 H   0  0  0  0  0  0  0  0  0  0  0  0
  153.3590  136.7659  161.0550 H   0  0  0  0  0  0  0  0  0  0  0  0
  152.9744  139.0008  160.8119 H   0  0  0  0  0  0  0  0  0  0  0  0
  155.4331  140.5455  160.2800 H   0  0  0  0  0  0  0  0  0  0  0  0
  153.9165  140.7686  159.4283 H   0  0  0  0  0  0  0  0  0  0  0  0
  153.2691  141.2020  162.1661 H   0  0  0  0  0  0  0  0  0  0  0  0
  154.8265  141.9601  161.9652 H   0  0  0  0  0  0  0  0  0  0  0  0
  153.8281  142.3302  158.7446 H   0  0  0  0  0  0  0  0  0  0  0  0
  152.7406  144.3764  157.7835 H   0  0  0  0  0  0  0  0  0  0  0  0
  151.6060  145.9783  159.3452 H   0  0  0  0  0  0  0  0  0  0  0  0
  152.5561  143.6882  162.6455 H   0  0  0  0  0  0  0  0  0  0  0  0
  1  2  1  0  0  0  0
  1 23  1  0  0  0  0
  1 24  1  0  0  0  0
  1 25  1  0  0  0  0
  2  3  1  0  0  0  0
  2 26  1  0  0  0  0
  2 27  1  0  0  0  0
  3  4  1  0  0  0  0
  3 28  1  0  0  0  0
  3 29  1  0  0  0  0
  4  5  2  0  0  0  0
  4  6  1  0  0  0  0
  6 11  1  0  0  0  0
  6  7  1  0  0  0  0
  7  8  1  0  0  0  0
  7 30  1  0  0  0  0
  7 31  1  0  0  0  0
  8  9  1  0  0  0  0
  8 32  1  0  0  0  0
  8 33  1  0  0  0  0
  9 10  1  0  0  0  0
  9 34  1  0  0  0  0
  9 35  1  0  0  0  0
 10 11  1  0  0  0  0
 10 36  1  0  0  0  0
 10 37  1  0  0  0  0
 11 12  1  0  0  0  0
 11 38  1  0  0  0  0
 12 13  2  0  0  0  0
 12 14  1  0  0  0  0
 14 15  1  0  0  0  0
 14 39  1  0  0  0  0
 15 16  1  0  0  0  0
 15 40  1  0  0  0  0
 15 41  1  0  0  0  0
 16 17  1  0  0  0  0
 16 42  1  0  0  0  0
 16 43  1  0  0  0  0
 17 22  1  0  0  0  0
 17 18  2  0  0  0  0
 18 19  1  0  0  0  0
 18 44  1  0  0  0  0
 19 20  2  0  0  0  0
 19 45  1  0  0  0  0
 20 21  1  0  0  0  0
 20 46  1  0  0  0  0
 21 22  2  0  0  0  0
 22 47  1  0  0  0  0
M  END
> <s_m_source_file>
AV-unprocessed.smi

> <i_m_source_file_index>
1194

> <i_lp_mmshare_version>
43012

> <i_f3d_flags>
0

> <s_epik_input>
W0NIM11bQ0gyXVtDSDJdQyg9TylOMVtDSDJdW0NIMl1bQ0gyXVtDSDJdW0NASF0xQyg9TylbTkhdW0NIMl1bQ0gyXWMyW2NIXVtjSF1bY0hdbltjSF0y

> <s_epik_cmdline>
J2VwaWtfcHl0aG9uJywgJy1waCcsICc3LjAnLCAnLXRuJywgJzgnLCAnLW1hJywgJzIwMCcsICctbWV0YWxfYmluZGluZycsICctaW1hZScsICc8aW5maWxlLm1hZT4nLCAnLW9tYWUnLCAnPG91dGZpbGUubWFlPic=

> <r_epik_Ionization_Penalty>
0.0130932

> <r_epik_Ionization_Penalty_Charging>
0

> <r_epik_Ionization_Penalty_Neutral>
0.0130932

> <r_epik_State_Penalty>
0.0101714

> <r_epik_Charging_Adjusted_Penalty>
0.0101714

> <i_epik_Tot_Q>
0

> <i_epik_Tot_abs_Q>
0

> <r_epik_Metal_State_Penalty>
0.00995056

> <b_epik_Metal_Only>
0

> <s_lp_Force_Field>
OPLS_2005

> <r_lp_Energy>
24.5515

> <b_lp_Chiralities_Consistent>
1

> <s_lp_Variant>
AV-unprocessed.smi:1194-1

> <Gold.Version>
5.8.1

> <Gold.Id.Protein>
6NUR|6NUR_protein|mol2

> <Gold.PLP.Fitness>
45.5838

> <Gold.PLP.PLP>
-44.6464

> <Gold.PLP.part.hbond>
-1.0000

> <Gold.PLP.part.metal>
0.0000

> <Gold.PLP.part.buried>
-5.2974

> <Gold.PLP.part.nonpolar>
-38.7430

> <Gold.PLP.part.repulsive>
0.2190

> <Gold.PLP.ligand.clash>
0.0000

> <Gold.PLP.ligand.torsion>
1.0762

> <Gold.PLP.Chemscore.Hbond>
1.0000

> <Gold.PLP.Chemscore.CHOScore>
0.0000

> <Gold.PLP.Chemscore.Metal>
0.0000

> <Gold.Chemscore.Hbonds>
donor molecule, donor type, donor heavy atom, donor atom, acceptor molecule, acceptor atom, score
      P1  H  6896  6909       L1     5  1.00

> <Gold.PLP.Chemscore.Internal.Correction>
0.0897

> <Gold.Rescore>
     Score         DG    S(hbond)    S(metal)    S(lipo)     H(rot)  DE(clash)    DE(int)     intcor
     17.44     -19.61       1.00        0.00     128.99       1.68       0.12       2.05       ----

> <Gold.Chemscore.Fitness>
17.4434

> <Gold.Chemscore.DG>
-19.6051

> <Gold.Chemscore.ZeroCoef>
-5.4800

> <Gold.Chemscore.Hbond>
1.0000

> <Gold.Chemscore.Metal>
0.0000

> <Gold.Chemscore.Lipo>
128.9904

> <Gold.Chemscore.Internal_Hbond>
0.0000

> <Gold.Chemscore.DEClash>
0.1160

> <Gold.Chemscore.DEInternal>
2.0457

> <Gold.Chemscore.Rot>
1.6823

> <Gold.Chemscore.Internal.Correction>
   9.000000E+99

> <Gold.Chemscore.Hbonds>
donor molecule, donor type, donor heavy atom, donor atom, acceptor molecule, acceptor atom, score
      P1  H  6896  6909       L1     5  1.00

> <Gold.Chemscore.Hbond.Weighted>
-3.3400

> <Gold.Chemscore.Metal.Weighted>
-0.0000

> <Gold.Chemscore.Lipo.Weighted>
-15.0919

> <Gold.Chemscore.Internal_Hbond.Weighted>
0.0000

> <Gold.Chemscore.DEClash.Weighted>
0.1160

> <Gold.Chemscore.DEInternal.Weighted>
2.0457

> <Gold.Chemscore.Rot.Weighted>
4.3068

> <Gold.Chemscore.Internal.Correction.Weighted>
   9.000000E+99

> <Gold.Protein.RotatedTorsions>
[ 6907 6896 6895 6894 ] final -170.10 input  -60.11 | X-H torsion
[ 7974 7965 7964 7962 ] final   45.22 input  175.53 | X-H torsion
[ 8008 7997 7996 7995 ] final   36.40 input   59.86 | X-H torsion
[ 10167 10162 10161 10158 ] final   94.01 input  -65.29 | X-H torsion
[ 10718 10713 10712 10709 ] final   -4.87 input   66.30 | X-H torsion
[ 10763 10752 10751 10750 ] final   99.57 input  -60.55 | X-H torsion
[ 11005 11000 10999 10996 ] final  174.49 input  -57.11 | X-H torsion

> <Gold.Protein.ActiveResidues>
 VAL166  LYS551  ARG553  GLY616  TRP617  ASP618  TYR619  PRO620  LYS621  CYS622 
 ASP623  PHE694  ASN695  SER759  ASP760  ASP761  ALA762  ILE779  LEU786  VAL792 
 PHE793  MET794  SER795  GLU796  ALA797  LYS798  CYS799  TRP800  GLU811  SER814 

> <Gold.Protein.RotatedAtoms>
  151.5022  133.3502  159.2870 H   0  0  0  0  0  0  0  0  0  0  0  0  # atno 6907 bound_to 6896
  150.8766  134.8151  159.7205 H   0  0  0  0  0  0  0  0  0  0  0  0  # atno 6908 bound_to 6896
  152.4734  134.4914  159.9748 H   0  0  0  0  0  0  0  0  0  0  0  0  # atno 6909 bound_to 6896
  146.0499  139.4988  142.9725 H   0  0  0  0  0  0  0  0  0  0  0  0  # atno 7974 bound_to 7965
  155.1867  140.3304  155.4365 H   0  0  0  0  0  0  0  0  0  0  0  0  # atno 8008 bound_to 7997
  156.2457  140.1917  156.6913 H   0  0  0  0  0  0  0  0  0  0  0  0  # atno 8009 bound_to 7997
  154.6234  140.0592  156.9629 H   0  0  0  0  0  0  0  0  0  0  0  0  # atno 8010 bound_to 7997
  139.8125  144.6767  150.9622 H   0  0  0  0  0  0  0  0  0  0  0  0  # atno 10167 bound_to 10162
  156.7549  130.5251  149.5796 H   0  0  0  0  0  0  0  0  0  0  0  0  # atno 10718 bound_to 10713
  153.3031  135.4109  155.1270 H   0  0  0  0  0  0  0  0  0  0  0  0  # atno 10763 bound_to 10752
  154.8555  135.3546  154.5824 H   0  0  0  0  0  0  0  0  0  0  0  0  # atno 10764 bound_to 10752
  153.6250  135.7063  153.5354 H   0  0  0  0  0  0  0  0  0  0  0  0  # atno 10765 bound_to 10752
  140.3519  134.7188  157.4273 H   0  0  0  0  0  0  0  0  0  0  0  0  # atno 11005 bound_to 11000
  145.6742  141.0208  143.1641 LP  0  0  0  0  0  0  0  0  0  0  0  0  # atno 17320 bound_to 7965
  144.7117  139.8346  143.7412 LP  0  0  0  0  0  0  0  0  0  0  0  0  # atno 17321 bound_to 7965
  140.7817  143.4171  151.0900 LP  0  0  0  0  0  0  0  0  0  0  0  0  # atno 17342 bound_to 10162
  139.7837  143.8318  152.3141 LP  0  0  0  0  0  0  0  0  0  0  0  0  # atno 17343 bound_to 10162
  156.1377  130.6222  151.0423 LP  0  0  0  0  0  0  0  0  0  0  0  0  # atno 17370 bound_to 10713
  157.6760  131.0850  150.7492 LP  0  0  0  0  0  0  0  0  0  0  0  0  # atno 17371 bound_to 10713
  140.0696  134.5881  155.8656 LP  0  0  0  0  0  0  0  0  0  0  0  0  # atno 17394 bound_to 11000
  141.2010  133.6615  156.5925 LP  0  0  0  0  0  0  0  0  0  0  0  0  # atno 17395 bound_to 11000

$$$$
