AV-unprocessed.smi:298|AV-procd|sdf|2263|dock5
  -GOLD-   2262022153D 1   1.00000     0.00000
 Structure written by MMmdl.
 39 41  0  0  0  0  0  0  0  0  2 V2000
  152.1439  144.3822  160.9655 C   0  0  0  0  0  0  0  0  0  0  0  0
  152.0200  143.3669  159.8422 C   0  0  0  0  0  0  0  0  0  0  0  0
  151.1978  143.6819  158.7366 C   0  0  0  0  0  0  0  0  0  0  0  0
  151.1030  142.7325  157.7262 C   0  0  0  0  0  0  0  0  0  0  0  0
  150.3876  142.7402  156.5268 N   0  3  0  0  0  0  0  0  0  0  0  0
  150.6096  141.5747  155.8579 C   0  0  0  0  0  0  0  0  0  0  0  0
  151.4576  140.8244  156.6126 N   0  0  0  0  0  0  0  0  0  0  0  0
  152.0227  139.4928  156.3593 C   0  0  0  0  0  0  0  0  0  0  0  0
  151.0181  138.3568  156.6311 C   0  0  2  0  0  0  0  0  0  0  0  0
  150.0865  138.2817  155.5674 O   0  0  0  0  0  0  0  0  0  0  0  0
  150.2746  138.5532  157.9655 C   0  0  0  0  0  0  0  0  0  0  0  0
  149.6543  137.3307  158.4415 N   0  0  0  0  0  0  0  0  0  0  0  0
  149.5822  136.1172  157.8850 C   0  0  0  0  0  0  0  0  0  0  0  0
  148.9288  135.2253  158.6194 N   0  0  0  0  0  0  0  0  0  0  0  0
  148.6085  136.0202  159.6817 C   0  0  0  0  0  0  0  0  0  0  0  0
  147.8578  135.5063  160.8147 C   0  0  0  0  0  0  0  0  0  0  0  0
  147.2602  135.0971  161.7173 N   0  0  0  0  0  0  0  0  0  0  0  0
  149.0126  137.2880  159.6341 N   0  0  0  0  0  0  0  0  0  0  0  0
  151.7916  141.5058  157.7873 C   0  0  0  0  0  0  0  0  0  0  0  0
  152.6075  141.1799  158.8675 C   0  0  0  0  0  0  0  0  0  0  0  0
  152.7167  142.1322  159.9061 C   0  0  0  0  0  0  0  0  0  0  0  0
  153.5986  141.8044  161.0990 C   0  0  0  0  0  0  0  0  0  0  0  0
  151.5170  145.2560  160.7852 H   0  0  0  0  0  0  0  0  0  0  0  0
  153.1748  144.7250  161.0583 H   0  0  0  0  0  0  0  0  0  0  0  0
  151.8367  143.9437  161.9153 H   0  0  0  0  0  0  0  0  0  0  0  0
  150.6661  144.6203  158.6803 H   0  0  0  0  0  0  0  0  0  0  0  0
  150.1930  141.2982  154.9001 H   0  0  0  0  0  0  0  0  0  0  0  0
  152.3799  139.4607  155.3291 H   0  0  0  0  0  0  0  0  0  0  0  0
  152.9022  139.3836  156.9955 H   0  0  0  0  0  0  0  0  0  0  0  0
  151.5549  137.4077  156.6634 H   0  0  0  0  0  0  0  0  0  0  0  0
  150.5129  137.8912  154.8200 H   0  0  0  0  0  0  0  0  0  0  0  0
  150.9642  138.9075  158.7329 H   0  0  0  0  0  0  0  0  0  0  0  0
  149.5020  139.3167  157.8639 H   0  0  0  0  0  0  0  0  0  0  0  0
  150.0186  135.8808  156.9255 H   0  0  0  0  0  0  0  0  0  0  0  0
  153.1381  140.2403  158.9145 H   0  0  0  0  0  0  0  0  0  0  0  0
  154.0955  140.8417  160.9754 H   0  0  0  0  0  0  0  0  0  0  0  0
  153.0041  141.7587  162.0118 H   0  0  0  0  0  0  0  0  0  0  0  0
  154.3715  142.5629  161.2257 H   0  0  0  0  0  0  0  0  0  0  0  0
  149.7928  143.4850  156.1864 H   0  0  0  0  0  0  0  0  0  0  0  0
  1  2  1  0  0  0  0
  1 23  1  0  0  0  0
  1 24  1  0  0  0  0
  1 25  1  0  0  0  0
  2 21  1  0  0  0  0
  2  3  2  0  0  0  0
  3  4  1  0  0  0  0
  3 26  1  0  0  0  0
  4 19  2  0  0  0  0
  4  5  1  0  0  0  0
  5  6  2  0  0  0  0
  5 39  1  0  0  0  0
  6  7  1  0  0  0  0
  6 27  1  0  0  0  0
  7  8  1  0  0  0  0
  7 19  1  0  0  0  0
  8  9  1  0  0  0  0
  8 28  1  0  0  0  0
  8 29  1  0  0  0  0
  9 10  1  0  0  0  0
  9 11  1  0  0  0  0
  9 30  1  0  0  0  0
 10 31  1  0  0  0  0
 11 12  1  0  0  0  0
 11 32  1  0  0  0  0
 11 33  1  0  0  0  0
 12 18  1  0  0  0  0
 12 13  1  0  0  0  0
 13 14  2  0  0  0  0
 13 34  1  0  0  0  0
 14 15  1  0  0  0  0
 15 16  1  0  0  0  0
 15 18  2  0  0  0  0
 16 17  3  0  0  0  0
 19 20  1  0  0  0  0
 20 21  2  0  0  0  0
 20 35  1  0  0  0  0
 21 22  1  0  0  0  0
 22 36  1  0  0  0  0
 22 37  1  0  0  0  0
 22 38  1  0  0  0  0
M  CHG  1   5   1
M  END
> <s_m_source_file>
AV-unprocessed.smi

> <i_m_source_file_index>
298

> <i_lp_mmshare_version>
43012

> <i_f3d_flags>
0

> <s_epik_input>
W0NIM11jKFtjSF0xKWMoW0NIM10pW2NIXWMoYzEyKW4oW2NIXW4yKVtDSDJdW0NASF0oW09IXSlbQ0gyXW4zW2NIXW5jKG4zKUMjTg==

> <s_epik_cmdline>
J2VwaWtfcHl0aG9uJywgJy1waCcsICc3LjAnLCAnLXRuJywgJzgnLCAnLW1hJywgJzIwMCcsICctbWV0YWxfYmluZGluZycsICctaW1hZScsICc8aW5maWxlLm1hZT4nLCAnLW9tYWUnLCAnPG91dGZpbGUubWFlPic=

> <r_epik_Ionization_Penalty>
1.12076

> <r_epik_Ionization_Penalty_Charging>
1.12075

> <r_epik_Ionization_Penalty_Neutral>
1.54565e-06

> <r_epik_State_Penalty>
1.17957

> <r_epik_Charging_Adjusted_Penalty>
2.30033

> <i_epik_Tot_Q>
1

> <i_epik_Tot_abs_Q>
1

> <r_epik_Metal_State_Penalty>
1.26402

> <b_epik_Metal_Only>
0

> <s_lp_Force_Field>
OPLS_2005

> <r_lp_Energy>
16.3626

> <b_lp_Chiralities_Consistent>
1

> <s_lp_Variant>
AV-unprocessed.smi:298-3

> <Gold.Version>
5.8.1

> <Gold.Id.Protein>
6NUR|6NUR_protein|mol2

> <Gold.PLP.Fitness>
51.4371

> <Gold.PLP.PLP>
-43.4903

> <Gold.PLP.part.hbond>
-3.5631

> <Gold.PLP.part.metal>
0.0000

> <Gold.PLP.part.buried>
-6.7920

> <Gold.PLP.part.nonpolar>
-32.4378

> <Gold.PLP.part.repulsive>
0.0693

> <Gold.PLP.ligand.clash>
0.0000

> <Gold.PLP.ligand.torsion>
0.4983

> <Gold.PLP.Chemscore.Hbond>
2.9732

> <Gold.PLP.Chemscore.CHOScore>
0.0000

> <Gold.PLP.Chemscore.Metal>
0.0000

> <Gold.Chemscore.Hbonds>
donor molecule, donor type, donor heavy atom, donor atom, acceptor molecule, acceptor atom, score
      L1  H     5    39       P1  8028  2.00
      P1  H  6896  6907       L1    14  0.50

> <Gold.PLP.Chemscore.Internal.Correction>
0.0238

> <Gold.Rescore>
     Score         DG    S(hbond)    S(metal)    S(lipo)     H(rot)  DE(clash)    DE(int)     intcor
     12.93     -13.49       1.36        0.00      97.19       3.09       0.09       0.47       ----

> <Gold.Chemscore.Fitness>
12.9334

> <Gold.Chemscore.DG>
-13.4909

> <Gold.Chemscore.ZeroCoef>
-5.4800

> <Gold.Chemscore.Hbond>
1.3616

> <Gold.Chemscore.Metal>
0.0000

> <Gold.Chemscore.Lipo>
97.1936

> <Gold.Chemscore.Internal_Hbond>
0.0000

> <Gold.Chemscore.DEClash>
0.0868

> <Gold.Chemscore.DEInternal>
0.4707

> <Gold.Chemscore.Rot>
3.0892

> <Gold.Chemscore.Internal.Correction>
   9.000000E+99

> <Gold.Chemscore.Hbonds>
donor molecule, donor type, donor heavy atom, donor atom, acceptor molecule, acceptor atom, score
      L1  H     5    39       P1  8028  0.99
      P1  H  6896  6907       L1    14  0.01
      P1  H  6931  6943       L1    18  0.02

> <Gold.Chemscore.Hbond.Weighted>
-4.5476

> <Gold.Chemscore.Metal.Weighted>
-0.0000

> <Gold.Chemscore.Lipo.Weighted>
-11.3717

> <Gold.Chemscore.Internal_Hbond.Weighted>
0.0000

> <Gold.Chemscore.DEClash.Weighted>
0.0868

> <Gold.Chemscore.DEInternal.Weighted>
0.4707

> <Gold.Chemscore.Rot.Weighted>
7.9084

> <Gold.Chemscore.Internal.Correction.Weighted>
   9.000000E+99

> <Gold.Protein.RotatedTorsions>
[ 6907 6896 6895 6894 ] final  -79.13 input  -60.11 | X-H torsion
[ 7974 7965 7964 7962 ] final  -82.94 input  175.53 | X-H torsion
[ 8008 7997 7996 7995 ] final -167.27 input   59.86 | X-H torsion
[ 10167 10162 10161 10158 ] final   93.85 input  -65.29 | X-H torsion
[ 10718 10713 10712 10709 ] final  -65.86 input   66.30 | X-H torsion
[ 10763 10752 10751 10750 ] final -158.94 input  -60.55 | X-H torsion
[ 11005 11000 10999 10996 ] final  129.56 input  -57.11 | X-H torsion

> <Gold.Protein.ActiveResidues>
 VAL166  LYS551  ARG553  GLY616  TRP617  ASP618  TYR619  PRO620  LYS621  CYS622 
 ASP623  PHE694  ASN695  SER759  ASP760  ASP761  ALA762  ILE779  LEU786  VAL792 
 PHE793  MET794  SER795  GLU796  ALA797  LYS798  CYS799  TRP800  GLU811  SER814 

> <Gold.Protein.RotatedAtoms>
  150.6957  134.4168  159.5186 H   0  0  0  0  0  0  0  0  0  0  0  0  # atno 6907 bound_to 6896
  152.1917  134.8663  160.0526 H   0  0  0  0  0  0  0  0  0  0  0  0  # atno 6908 bound_to 6896
  151.9616  133.3662  159.4074 H   0  0  0  0  0  0  0  0  0  0  0  0  # atno 6909 bound_to 6896
  145.5266  140.9526  143.1626 H   0  0  0  0  0  0  0  0  0  0  0  0  # atno 7974 bound_to 7965
  155.8754  140.1000  157.1522 H   0  0  0  0  0  0  0  0  0  0  0  0  # atno 8008 bound_to 7997
  154.4000  140.1339  156.4193 H   0  0  0  0  0  0  0  0  0  0  0  0  # atno 8009 bound_to 7997
  155.7704  140.3461  155.5246 H   0  0  0  0  0  0  0  0  0  0  0  0  # atno 8010 bound_to 7997
  139.8140  144.6761  150.9604 H   0  0  0  0  0  0  0  0  0  0  0  0  # atno 10167 bound_to 10162
  156.0645  130.4253  150.1626 H   0  0  0  0  0  0  0  0  0  0  0  0  # atno 10718 bound_to 10713
  154.7516  135.3094  154.8547 H   0  0  0  0  0  0  0  0  0  0  0  0  # atno 10763 bound_to 10752
  153.9332  135.6783  153.4749 H   0  0  0  0  0  0  0  0  0  0  0  0  # atno 10764 bound_to 10752
  153.1112  135.4865  154.8967 H   0  0  0  0  0  0  0  0  0  0  0  0  # atno 10765 bound_to 10752
  139.9623  134.9599  156.9167 H   0  0  0  0  0  0  0  0  0  0  0  0  # atno 11005 bound_to 11000
  144.7648  139.6872  143.7219 LP  0  0  0  0  0  0  0  0  0  0  0  0  # atno 17320 bound_to 7965
  146.2071  139.5403  142.9705 LP  0  0  0  0  0  0  0  0  0  0  0  0  # atno 17321 bound_to 7965
  140.7816  143.4157  151.0921 LP  0  0  0  0  0  0  0  0  0  0  0  0  # atno 17342 bound_to 10162
  139.7822  143.8339  152.3139 LP  0  0  0  0  0  0  0  0  0  0  0  0  # atno 17343 bound_to 10162
  156.9688  130.9828  151.3463 LP  0  0  0  0  0  0  0  0  0  0  0  0  # atno 17370 bound_to 10713
  157.5677  130.8289  149.8349 LP  0  0  0  0  0  0  0  0  0  0  0  0  # atno 17371 bound_to 10713
  140.5474  134.0661  155.7359 LP  0  0  0  0  0  0  0  0  0  0  0  0  # atno 17394 bound_to 11000
  141.1300  133.9317  157.2555 LP  0  0  0  0  0  0  0  0  0  0  0  0  # atno 17395 bound_to 11000

$$$$
