AV-unprocessed.smi:3217|AV-procd|sdf|12289|dock8
  -GOLD-   2272018133D 1   1.00000     0.00000
 Structure written by MMmdl.
 34 35  0  0  0  0  0  0  0  0  1 V2000
  148.1816  141.2909  153.8274 C   0  0  0  0  0  0  0  0  0  0  0  0
  149.1051  140.8137  154.9589 C   0  0  2  0  0  0  0  0  0  0  0  0
  149.5486  141.9767  155.7247 N   0  0  0  0  0  0  0  0  0  0  0  0
  150.1410  141.9486  156.9272 C   0  0  0  0  0  0  0  0  0  0  0  0
  150.3727  140.9135  157.5508 O   0  0  0  0  0  0  0  0  0  0  0  0
  150.4215  143.1924  157.3528 N   0  0  0  0  0  0  0  0  0  0  0  0
  151.0424  143.5982  158.5654 C   0  0  0  0  0  0  0  0  0  0  0  0
  151.0439  144.9737  158.8762 C   0  0  0  0  0  0  0  0  0  0  0  0
  151.6644  145.4096  160.0623 C   0  0  0  0  0  0  0  0  0  0  0  0
  152.2712  144.4476  160.8925 C   0  0  0  0  0  0  0  0  0  0  0  0
  152.2927  143.1295  160.6037 N   0  0  0  0  0  0  0  0  0  0  0  0
  151.6939  142.7180  159.4651 C   0  0  0  0  0  0  0  0  0  0  0  0
  150.3359  140.0511  154.4315 C   0  0  2  0  0  0  0  0  0  0  0  0
  150.0751  138.5888  154.0631 C   0  0  0  0  0  0  0  0  0  0  0  0
  151.4238  137.9129  154.2637 C   0  0  0  0  0  0  0  0  0  0  0  0
  152.2599  138.9579  155.0055 C   0  0  0  0  0  0  0  0  0  0  0  0
  151.3212  139.9272  155.4462 O   0  0  0  0  0  0  0  0  0  0  0  0
  147.7927  140.4516  153.2505 H   0  0  0  0  0  0  0  0  0  0  0  0
  148.7065  141.9539  153.1388 H   0  0  0  0  0  0  0  0  0  0  0  0
  147.3244  141.8350  154.2253 H   0  0  0  0  0  0  0  0  0  0  0  0
  148.5310  140.1377  155.5949 H   0  0  0  0  0  0  0  0  0  0  0  0
  149.4000  142.8782  155.2957 H   0  0  0  0  0  0  0  0  0  0  0  0
  150.1035  143.9438  156.7587 H   0  0  0  0  0  0  0  0  0  0  0  0
  150.5728  145.6886  158.2172 H   0  0  0  0  0  0  0  0  0  0  0  0
  151.6760  146.4560  160.3289 H   0  0  0  0  0  0  0  0  0  0  0  0
  152.7570  144.7458  161.8098 H   0  0  0  0  0  0  0  0  0  0  0  0
  151.7673  141.6581  159.2790 H   0  0  0  0  0  0  0  0  0  0  0  0
  150.7739  140.5748  153.5790 H   0  0  0  0  0  0  0  0  0  0  0  0
  149.3462  138.1504  154.7460 H   0  0  0  0  0  0  0  0  0  0  0  0
  149.6937  138.4755  153.0479 H   0  0  0  0  0  0  0  0  0  0  0  0
  151.3120  137.0015  154.8520 H   0  0  0  0  0  0  0  0  0  0  0  0
  151.8896  137.6453  153.3147 H   0  0  0  0  0  0  0  0  0  0  0  0
  152.8161  138.5353  155.8423 H   0  0  0  0  0  0  0  0  0  0  0  0
  152.9713  139.4320  154.3276 H   0  0  0  0  0  0  0  0  0  0  0  0
  1  2  1  0  0  0  0
  1 18  1  0  0  0  0
  1 19  1  0  0  0  0
  1 20  1  0  0  0  0
  2  3  1  0  0  0  0
  2 13  1  0  0  0  0
  2 21  1  0  0  0  0
  3  4  1  0  0  0  0
  3 22  1  0  0  0  0
  4  5  2  0  0  0  0
  4  6  1  0  0  0  0
  6  7  1  0  0  0  0
  6 23  1  0  0  0  0
  7 12  1  0  0  0  0
  7  8  2  0  0  0  0
  8  9  1  0  0  0  0
  8 24  1  0  0  0  0
  9 10  2  0  0  0  0
  9 25  1  0  0  0  0
 10 11  1  0  0  0  0
 10 26  1  0  0  0  0
 11 12  2  0  0  0  0
 12 27  1  0  0  0  0
 13 17  1  0  0  0  0
 13 14  1  0  0  0  0
 13 28  1  0  0  0  0
 14 15  1  0  0  0  0
 14 29  1  0  0  0  0
 14 30  1  0  0  0  0
 15 16  1  0  0  0  0
 15 31  1  0  0  0  0
 15 32  1  0  0  0  0
 16 17  1  0  0  0  0
 16 33  1  0  0  0  0
 16 34  1  0  0  0  0
M  END
> <s_m_source_file>
AV-unprocessed.smi

> <i_m_source_file_index>
3217

> <i_lp_mmshare_version>
43012

> <i_f3d_flags>
0

> <s_epik_input>
TzFbQ0gyXVtDSDJdW0NIMl1bQ0BIXTFbQ0BIXShbQ0gzXSlbTkhdQyg9TylbTkhdYzJbY0hdW2NIXVtjSF1uW2NIXTI=

> <s_epik_cmdline>
J2VwaWtfcHl0aG9uJywgJy1waCcsICc3LjAnLCAnLXRuJywgJzgnLCAnLW1hJywgJzIwMCcsICctbWV0YWxfYmluZGluZycsICctaW1hZScsICc8aW5maWxlLm1hZT4nLCAnLW9tYWUnLCAnPG91dGZpbGUubWFlPic=

> <r_epik_Ionization_Penalty>
0.00475451

> <r_epik_Ionization_Penalty_Charging>
0

> <r_epik_Ionization_Penalty_Neutral>
0.00475451

> <r_epik_State_Penalty>
0.00341814

> <r_epik_Charging_Adjusted_Penalty>
0.00341814

> <i_epik_Tot_Q>
0

> <i_epik_Tot_abs_Q>
0

> <r_epik_Metal_State_Penalty>
-0

> <b_epik_Metal_Only>
0

> <s_lp_Force_Field>
OPLS_2005

> <r_lp_Energy>
20.3997

> <b_lp_Chiralities_Consistent>
1

> <s_lp_Variant>
AV-unprocessed.smi:3217-1

> <Gold.Version>
5.8.1

> <Gold.Id.Protein>
6NUR|6NUR_protein|mol2

> <Gold.PLP.Fitness>
43.8335

> <Gold.PLP.PLP>
-39.0766

> <Gold.PLP.part.hbond>
-2.7245

> <Gold.PLP.part.metal>
0.0000

> <Gold.PLP.part.buried>
-3.1901

> <Gold.PLP.part.nonpolar>
-33.8060

> <Gold.PLP.part.repulsive>
0.2369

> <Gold.PLP.ligand.clash>
0.0000

> <Gold.PLP.ligand.torsion>
0.4760

> <Gold.PLP.Chemscore.Hbond>
1.8960

> <Gold.PLP.Chemscore.CHOScore>
0.0000

> <Gold.PLP.Chemscore.Metal>
0.0000

> <Gold.Chemscore.Hbonds>
donor molecule, donor type, donor heavy atom, donor atom, acceptor molecule, acceptor atom, score
      L1  H     3    22       P1  8028  0.88
      L1  H     6    23       P1  8028  1.00

> <Gold.PLP.Chemscore.Internal.Correction>
0.0208

> <Gold.Rescore>
     Score         DG    S(hbond)    S(metal)    S(lipo)     H(rot)  DE(clash)    DE(int)     intcor
     15.67     -20.24       1.87        0.00      99.46       1.22       0.26       4.31       ----

> <Gold.Chemscore.Fitness>
15.6667

> <Gold.Chemscore.DG>
-20.2358

> <Gold.Chemscore.ZeroCoef>
-5.4800

> <Gold.Chemscore.Hbond>
1.8718

> <Gold.Chemscore.Metal>
0.0000

> <Gold.Chemscore.Lipo>
99.4570

> <Gold.Chemscore.Internal_Hbond>
0.0000

> <Gold.Chemscore.DEClash>
0.2595

> <Gold.Chemscore.DEInternal>
4.3096

> <Gold.Chemscore.Rot>
1.2236

> <Gold.Chemscore.Internal.Correction>
   9.000000E+99

> <Gold.Chemscore.Hbonds>
donor molecule, donor type, donor heavy atom, donor atom, acceptor molecule, acceptor atom, score
      L1  H     3    22       P1  8028  0.86
      L1  H     6    23       P1  8028  0.97

> <Gold.Chemscore.Hbond.Weighted>
-6.2519

> <Gold.Chemscore.Metal.Weighted>
-0.0000

> <Gold.Chemscore.Lipo.Weighted>
-11.6365

> <Gold.Chemscore.Internal_Hbond.Weighted>
0.0000

> <Gold.Chemscore.DEClash.Weighted>
0.2595

> <Gold.Chemscore.DEInternal.Weighted>
4.3096

> <Gold.Chemscore.Rot.Weighted>
3.1325

> <Gold.Chemscore.Internal.Correction.Weighted>
   9.000000E+99

> <Gold.Protein.RotatedTorsions>
[ 6907 6896 6895 6894 ] final  -52.59 input  -60.11 | X-H torsion
[ 7974 7965 7964 7962 ] final  127.85 input  175.53 | X-H torsion
[ 8008 7997 7996 7995 ] final   71.01 input   59.86 | X-H torsion
[ 10167 10162 10161 10158 ] final   59.85 input  -65.29 | X-H torsion
[ 10718 10713 10712 10709 ] final  171.66 input   66.30 | X-H torsion
[ 10763 10752 10751 10750 ] final  -32.40 input  -60.55 | X-H torsion
[ 11005 11000 10999 10996 ] final  -76.50 input  -57.11 | X-H torsion

> <Gold.Protein.ActiveResidues>
 VAL166  LYS551  ARG553  GLY616  TRP617  ASP618  TYR619  PRO620  LYS621  CYS622 
 ASP623  PHE694  ASN695  SER759  ASP760  ASP761  ALA762  ILE779  LEU786  VAL792 
 PHE793  MET794  SER795  GLU796  ALA797  LYS798  CYS799  TRP800  GLU811  SER814 

> <Gold.Protein.RotatedAtoms>
  150.8504  134.7827  159.7003 H   0  0  0  0  0  0  0  0  0  0  0  0  # atno 6907 bound_to 6896
  152.4570  134.5266  159.9808 H   0  0  0  0  0  0  0  0  0  0  0  0  # atno 6908 bound_to 6896
  151.5388  133.3398  159.2967 H   0  0  0  0  0  0  0  0  0  0  0  0  # atno 6909 bound_to 6896
  145.0460  139.3923  143.5078 H   0  0  0  0  0  0  0  0  0  0  0  0  # atno 7974 bound_to 7965
  155.7474  140.3489  155.5134 H   0  0  0  0  0  0  0  0  0  0  0  0  # atno 8008 bound_to 7997
  155.9037  140.1038  157.1352 H   0  0  0  0  0  0  0  0  0  0  0  0  # atno 8009 bound_to 7997
  154.4047  140.1281  156.4455 H   0  0  0  0  0  0  0  0  0  0  0  0  # atno 8010 bound_to 7997
  140.1719  144.4268  150.6657 H   0  0  0  0  0  0  0  0  0  0  0  0  # atno 10167 bound_to 10162
  156.9903  131.0146  151.2858 H   0  0  0  0  0  0  0  0  0  0  0  0  # atno 10718 bound_to 10713
  153.8132  135.6880  153.4838 H   0  0  0  0  0  0  0  0  0  0  0  0  # atno 10763 bound_to 10752
  153.1615  135.4578  154.9777 H   0  0  0  0  0  0  0  0  0  0  0  0  # atno 10764 bound_to 10752
  154.7959  135.3319  154.7611 H   0  0  0  0  0  0  0  0  0  0  0  0  # atno 10765 bound_to 10752
  141.1654  133.6986  156.7678 H   0  0  0  0  0  0  0  0  0  0  0  0  # atno 11005 bound_to 11000
  146.3514  140.0085  142.8669 LP  0  0  0  0  0  0  0  0  0  0  0  0  # atno 17320 bound_to 7965
  145.1588  140.9662  143.4389 LP  0  0  0  0  0  0  0  0  0  0  0  0  # atno 17321 bound_to 7965
  140.6576  143.2242  151.5931 LP  0  0  0  0  0  0  0  0  0  0  0  0  # atno 17342 bound_to 10162
  139.5334  144.2850  152.1198 LP  0  0  0  0  0  0  0  0  0  0  0  0  # atno 17343 bound_to 10162
  157.5463  130.8153  149.8090 LP  0  0  0  0  0  0  0  0  0  0  0  0  # atno 17370 bound_to 10713
  156.0210  130.3796  150.1964 LP  0  0  0  0  0  0  0  0  0  0  0  0  # atno 17371 bound_to 10713
  140.2486  134.8558  157.3645 LP  0  0  0  0  0  0  0  0  0  0  0  0  # atno 17394 bound_to 11000
  140.1725  134.4591  155.7823 LP  0  0  0  0  0  0  0  0  0  0  0  0  # atno 17395 bound_to 11000

$$$$
