AV-unprocessed.smi:2794|AV-procd|sdf|10776|dock4
  -GOLD-   2272015213D 1   1.00000     0.00000
 Structure written by MMmdl.
 34 35  0  0  0  0  0  0  0  0  1 V2000
  151.0578  138.0790  154.0033 C   0  0  0  0  0  0  0  0  0  0  0  0
  150.1191  139.2597  154.1350 C   0  0  0  0  0  0  0  0  0  0  0  0
  148.8654  139.2651  153.4927 C   0  0  0  0  0  0  0  0  0  0  0  0
  148.0411  140.3924  153.6585 C   0  0  0  0  0  0  0  0  0  0  0  0
  148.5008  141.4595  154.4542 C   0  0  0  0  0  0  0  0  0  0  0  0
  149.7728  141.3745  155.0632 C   0  0  0  0  0  0  0  0  0  0  0  0
  150.1421  142.5025  155.8422 N   0  0  0  0  0  0  0  0  0  0  0  0
  150.9082  142.5409  156.9509 C   0  0  0  0  0  0  0  0  0  0  0  0
  151.4187  141.5573  157.4842 O   0  0  0  0  0  0  0  0  0  0  0  0
  151.0942  143.7768  157.4516 N   0  0  0  0  0  0  0  0  0  0  0  0
  151.8623  144.1800  158.6319 C   0  0  2  0  0  0  0  0  0  0  0  0
  153.0918  143.2966  158.8073 C   0  0  0  0  0  0  0  0  0  0  0  0
  153.4813  142.7841  159.9869 C   0  0  0  0  0  0  0  0  0  0  0  0
  152.7478  143.0336  161.2913 C   0  0  0  0  0  0  0  0  0  0  0  0
  151.7540  144.2033  161.1823 C   0  0  0  0  0  0  0  0  0  0  0  0
  150.9483  144.1430  159.8757 C   0  0  0  0  0  0  0  0  0  0  0  0
  150.5604  140.2831  154.8975 N   0  0  0  0  0  0  0  0  0  0  0  0
  150.6587  137.3303  153.3186 H   0  0  0  0  0  0  0  0  0  0  0  0
  151.2091  137.6069  154.9745 H   0  0  0  0  0  0  0  0  0  0  0  0
  152.0270  138.4042  153.6241 H   0  0  0  0  0  0  0  0  0  0  0  0
  148.5415  138.4298  152.8895 H   0  0  0  0  0  0  0  0  0  0  0  0
  147.0723  140.4390  153.1836 H   0  0  0  0  0  0  0  0  0  0  0  0
  147.8802  142.3330  154.5915 H   0  0  0  0  0  0  0  0  0  0  0  0
  149.7927  143.3902  155.5131 H   0  0  0  0  0  0  0  0  0  0  0  0
  150.6637  144.5316  156.9371 H   0  0  0  0  0  0  0  0  0  0  0  0
  152.2172  145.2043  158.5068 H   0  0  0  0  0  0  0  0  0  0  0  0
  153.6718  143.0808  157.9218 H   0  0  0  0  0  0  0  0  0  0  0  0
  154.3532  142.1482  160.0331 H   0  0  0  0  0  0  0  0  0  0  0  0
  152.2247  142.1170  161.5653 H   0  0  0  0  0  0  0  0  0  0  0  0
  153.4729  143.2350  162.0802 H   0  0  0  0  0  0  0  0  0  0  0  0
  151.0833  144.2020  162.0418 H   0  0  0  0  0  0  0  0  0  0  0  0
  152.2996  145.1472  161.2193 H   0  0  0  0  0  0  0  0  0  0  0  0
  150.2331  144.9654  159.8369 H   0  0  0  0  0  0  0  0  0  0  0  0
  150.3587  143.2246  159.8754 H   0  0  0  0  0  0  0  0  0  0  0  0
  1  2  1  0  0  0  0
  1 18  1  0  0  0  0
  1 19  1  0  0  0  0
  1 20  1  0  0  0  0
  2 17  1  0  0  0  0
  2  3  2  0  0  0  0
  3  4  1  0  0  0  0
  3 21  1  0  0  0  0
  4  5  2  0  0  0  0
  4 22  1  0  0  0  0
  5  6  1  0  0  0  0
  5 23  1  0  0  0  0
  6  7  1  0  0  0  0
  6 17  2  0  0  0  0
  7  8  1  0  0  0  0
  7 24  1  0  0  0  0
  8  9  2  0  0  0  0
  8 10  1  0  0  0  0
 10 11  1  0  0  0  0
 10 25  1  0  0  0  0
 11 16  1  0  0  0  0
 11 12  1  0  0  0  0
 11 26  1  0  0  0  0
 12 13  2  0  0  0  0
 12 27  1  0  0  0  0
 13 14  1  0  0  0  0
 13 28  1  0  0  0  0
 14 15  1  0  0  0  0
 14 29  1  0  0  0  0
 14 30  1  0  0  0  0
 15 16  1  0  0  0  0
 15 31  1  0  0  0  0
 15 32  1  0  0  0  0
 16 33  1  0  0  0  0
 16 34  1  0  0  0  0
M  END
> <s_m_source_file>
AV-unprocessed.smi

> <i_m_source_file_index>
2794

> <i_lp_mmshare_version>
43012

> <i_f3d_flags>
0

> <s_epik_input>
W0NIM11jMVtjSF1bY0hdW2NIXWMobjEpW05IXUMoPU8pW05IXVtDQEBIXTJbQ0hdPVtDSF1bQ0gyXVtDSDJdW0NIMl0y

> <s_epik_cmdline>
J2VwaWtfcHl0aG9uJywgJy1waCcsICc3LjAnLCAnLXRuJywgJzgnLCAnLW1hJywgJzIwMCcsICctbWV0YWxfYmluZGluZycsICctaW1hZScsICc8aW5maWxlLm1hZT4nLCAnLW9tYWUnLCAnPG91dGZpbGUubWFlPic=

> <r_lp_tautomer_probability>
1

> <r_epik_Ionization_Penalty>
8.4544e-05

> <r_epik_Ionization_Penalty_Charging>
0

> <r_epik_Ionization_Penalty_Neutral>
8.4544e-05

> <r_epik_State_Penalty>
-0

> <r_epik_Charging_Adjusted_Penalty>
0

> <i_epik_Tot_Q>
0

> <i_epik_Tot_abs_Q>
0

> <r_epik_Metal_State_Penalty>
-0

> <b_epik_Metal_Only>
0

> <s_lp_Force_Field>
OPLS_2005

> <r_lp_Energy>
18.5134

> <b_lp_Chiralities_Consistent>
1

> <s_lp_Variant>
AV-unprocessed.smi:2794-1

> <Gold.Version>
5.8.1

> <Gold.Id.Protein>
6NUR|6NUR_protein|mol2

> <Gold.PLP.Fitness>
46.6213

> <Gold.PLP.PLP>
-41.6059

> <Gold.PLP.part.hbond>
-2.9773

> <Gold.PLP.part.metal>
0.0000

> <Gold.PLP.part.buried>
-1.3962

> <Gold.PLP.part.nonpolar>
-38.4311

> <Gold.PLP.part.repulsive>
0.2451

> <Gold.PLP.ligand.clash>
0.0000

> <Gold.PLP.ligand.torsion>
0.5743

> <Gold.PLP.Chemscore.Hbond>
2.0523

> <Gold.PLP.Chemscore.CHOScore>
0.0000

> <Gold.PLP.Chemscore.Metal>
0.0000

> <Gold.Chemscore.Hbonds>
donor molecule, donor type, donor heavy atom, donor atom, acceptor molecule, acceptor atom, score
      L1  H     7    24       P1  8028  1.00
      L1  H    10    25       P1  8028  0.48
      P1  H  7989  7998       L1    17  0.50

> <Gold.PLP.Chemscore.Internal.Correction>
0.0071

> <Gold.Rescore>
     Score         DG    S(hbond)    S(metal)    S(lipo)     H(rot)  DE(clash)    DE(int)     intcor
     18.18     -21.45       1.83        0.00     106.14       1.00       0.46       2.81       ----

> <Gold.Chemscore.Fitness>
18.1826

> <Gold.Chemscore.DG>
-21.4533

> <Gold.Chemscore.ZeroCoef>
-5.4800

> <Gold.Chemscore.Hbond>
1.8308

> <Gold.Chemscore.Metal>
0.0000

> <Gold.Chemscore.Lipo>
106.1395

> <Gold.Chemscore.Internal_Hbond>
0.0000

> <Gold.Chemscore.DEClash>
0.4560

> <Gold.Chemscore.DEInternal>
2.8146

> <Gold.Chemscore.Rot>
1.0000

> <Gold.Chemscore.Internal.Correction>
   9.000000E+99

> <Gold.Chemscore.Hbonds>
donor molecule, donor type, donor heavy atom, donor atom, acceptor molecule, acceptor atom, score
      L1  H     7    24       P1  8028  0.97
      L1  H    10    25       P1  8028  0.43
      P1  H  7989  7998       L1    17  0.01

> <Gold.Chemscore.Hbond.Weighted>
-6.1149

> <Gold.Chemscore.Metal.Weighted>
-0.0000

> <Gold.Chemscore.Lipo.Weighted>
-12.4183

> <Gold.Chemscore.Internal_Hbond.Weighted>
0.0000

> <Gold.Chemscore.DEClash.Weighted>
0.4560

> <Gold.Chemscore.DEInternal.Weighted>
2.8146

> <Gold.Chemscore.Rot.Weighted>
2.5600

> <Gold.Chemscore.Internal.Correction.Weighted>
   9.000000E+99

> <Gold.Protein.RotatedTorsions>
[ 6907 6896 6895 6894 ] final -100.75 input  -60.11 | X-H torsion
[ 7974 7965 7964 7962 ] final  -42.81 input  175.53 | X-H torsion
[ 8008 7997 7996 7995 ] final  -81.17 input   59.86 | X-H torsion
[ 10167 10162 10161 10158 ] final  123.49 input  -65.29 | X-H torsion
[ 10718 10713 10712 10709 ] final   27.22 input   66.30 | X-H torsion
[ 10763 10752 10751 10750 ] final  -97.17 input  -60.55 | X-H torsion
[ 11005 11000 10999 10996 ] final   35.84 input  -57.11 | X-H torsion

> <Gold.Protein.ActiveResidues>
 VAL166  LYS551  ARG553  GLY616  TRP617  ASP618  TYR619  PRO620  LYS621  CYS622 
 ASP623  PHE694  ASN695  SER759  ASP760  ASP761  ALA762  ILE779  LEU786  VAL792 
 PHE793  MET794  SER795  GLU796  ALA797  LYS798  CYS799  TRP800  GLU811  SER814 

> <Gold.Protein.RotatedAtoms>
  150.7127  134.0840  159.3907 H   0  0  0  0  0  0  0  0  0  0  0  0  # atno 6907 bound_to 6896
  151.8824  135.0446  160.0499 H   0  0  0  0  0  0  0  0  0  0  0  0  # atno 6908 bound_to 6896
  152.2557  133.5218  159.5388 H   0  0  0  0  0  0  0  0  0  0  0  0  # atno 6909 bound_to 6896
  146.0079  140.6998  142.9238 H   0  0  0  0  0  0  0  0  0  0  0  0  # atno 7974 bound_to 7965
  154.5957  140.0652  156.9300 H   0  0  0  0  0  0  0  0  0  0  0  0  # atno 8008 bound_to 7997
  155.2219  140.3331  155.4296 H   0  0  0  0  0  0  0  0  0  0  0  0  # atno 8009 bound_to 7997
  156.2285  140.1830  156.7286 H   0  0  0  0  0  0  0  0  0  0  0  0  # atno 8010 bound_to 7997
  139.5796  144.6980  151.3562 H   0  0  0  0  0  0  0  0  0  0  0  0  # atno 10167 bound_to 10162
  157.2173  130.6962  149.6254 H   0  0  0  0  0  0  0  0  0  0  0  0  # atno 10718 bound_to 10713
  154.7304  135.5056  153.8955 H   0  0  0  0  0  0  0  0  0  0  0  0  # atno 10763 bound_to 10752
  153.0945  135.6668  153.9799 H   0  0  0  0  0  0  0  0  0  0  0  0  # atno 10764 bound_to 10752
  153.9601  135.3049  155.3413 H   0  0  0  0  0  0  0  0  0  0  0  0  # atno 10765 bound_to 10752
  140.2385  134.3442  155.7935 H   0  0  0  0  0  0  0  0  0  0  0  0  # atno 11005 bound_to 11000
  144.6942  140.3348  143.7209 LP  0  0  0  0  0  0  0  0  0  0  0  0  # atno 17320 bound_to 7965
  145.7387  139.1757  143.2389 LP  0  0  0  0  0  0  0  0  0  0  0  0  # atno 17321 bound_to 7965
  140.7076  143.7474  150.7509 LP  0  0  0  0  0  0  0  0  0  0  0  0  # atno 17342 bound_to 10162
  140.1003  143.4794  152.2429 LP  0  0  0  0  0  0  0  0  0  0  0  0  # atno 17343 bound_to 10162
  155.9685  130.4531  150.5800 LP  0  0  0  0  0  0  0  0  0  0  0  0  # atno 17370 bound_to 10713
  157.3611  131.0750  151.1635 LP  0  0  0  0  0  0  0  0  0  0  0  0  # atno 17371 bound_to 10713
  141.2212  133.7285  156.8847 LP  0  0  0  0  0  0  0  0  0  0  0  0  # atno 17394 bound_to 11000
  140.1677  134.9122  157.2794 LP  0  0  0  0  0  0  0  0  0  0  0  0  # atno 17395 bound_to 11000

$$$$
