AV-unprocessed.smi:2143|AV-procd|sdf|8728|dock2
  -GOLD-   2272011493D 1   1.00000     0.00000
 Structure written by MMmdl.
 44 45  0  0  0  0  0  0  0  0  1 V2000
  153.9550  141.4659  159.9558 C   0  0  0  0  0  0  0  0  0  0  0  0
  153.0663  142.4626  159.1930 C   0  0  2  0  0  0  0  0  0  0  0  0
  152.3326  143.4240  160.1502 C   0  0  0  0  0  0  0  0  0  0  0  0
  151.5258  144.4802  159.3788 C   0  0  0  0  0  0  0  0  0  0  0  0
  150.5572  143.8324  158.3778 C   0  0  0  0  0  0  0  0  0  0  0  0
  151.2987  142.8780  157.4219 C   0  0  2  0  0  0  0  0  0  0  0  0
  150.3571  142.3088  156.4602 N   0  0  0  0  0  0  0  0  0  0  0  0
  150.5681  141.2060  155.7260 C   0  0  0  0  0  0  0  0  0  0  0  0
  151.5983  140.5343  155.7964 O   0  0  0  0  0  0  0  0  0  0  0  0
  149.4237  140.7957  154.7893 C   0  0  0  0  0  0  0  0  0  0  0  0
  148.1232  141.3493  155.1884 N   0  0  0  0  0  0  0  0  0  0  0  0
  147.4059  142.1250  154.2959 C   0  0  0  0  0  0  0  0  0  0  0  0
  146.2132  142.6873  154.5890 C   0  0  0  0  0  0  0  0  0  0  0  0
  145.5985  142.4999  155.8976 C   0  0  0  0  0  0  0  0  0  0  0  0
  144.5242  143.0122  156.2138 O   0  0  0  0  0  0  0  0  0  0  0  0
  146.3451  141.6891  156.7859 N   0  0  0  0  0  0  0  0  0  0  0  0
  145.8224  141.4647  158.1181 C   0  0  0  0  0  0  0  0  0  0  0  0
  147.6006  141.1181  156.4789 C   0  0  0  0  0  0  0  0  0  0  0  0
  148.2313  140.4476  157.3002 O   0  0  0  0  0  0  0  0  0  0  0  0
  152.0852  141.7857  158.1987 C   0  0  2  0  0  0  0  0  0  0  0  0
  151.1690  140.7278  158.8570 C   0  0  0  0  0  0  0  0  0  0  0  0
  153.3813  140.8719  160.6670 H   0  0  0  0  0  0  0  0  0  0  0  0
  154.7276  141.9888  160.5202 H   0  0  0  0  0  0  0  0  0  0  0  0
  154.4562  140.7808  159.2714 H   0  0  0  0  0  0  0  0  0  0  0  0
  153.7459  143.0706  158.5940 H   0  0  0  0  0  0  0  0  0  0  0  0
  151.6696  142.8648  160.8110 H   0  0  0  0  0  0  0  0  0  0  0  0
  153.0539  143.9243  160.7973 H   0  0  0  0  0  0  0  0  0  0  0  0
  150.9734  145.1096  160.0771 H   0  0  0  0  0  0  0  0  0  0  0  0
  152.2105  145.1405  158.8447 H   0  0  0  0  0  0  0  0  0  0  0  0
  149.7753  143.2971  158.9176 H   0  0  0  0  0  0  0  0  0  0  0  0
  150.0532  144.6131  157.8067 H   0  0  0  0  0  0  0  0  0  0  0  0
  152.0175  143.4816  156.8639 H   0  0  0  0  0  0  0  0  0  0  0  0
  149.4789  142.7932  156.3436 H   0  0  0  0  0  0  0  0  0  0  0  0
  149.6748  141.1279  153.7810 H   0  0  0  0  0  0  0  0  0  0  0  0
  149.3654  139.7070  154.7341 H   0  0  0  0  0  0  0  0  0  0  0  0
  147.8221  142.2978  153.3139 H   0  0  0  0  0  0  0  0  0  0  0  0
  145.7085  143.2876  153.8461 H   0  0  0  0  0  0  0  0  0  0  0  0
  146.0387  140.4364  158.4121 H   0  0  0  0  0  0  0  0  0  0  0  0
  144.7403  141.5978  158.1277 H   0  0  0  0  0  0  0  0  0  0  0  0
  146.3156  142.1817  158.7760 H   0  0  0  0  0  0  0  0  0  0  0  0
  152.6946  141.2488  157.4703 H   0  0  0  0  0  0  0  0  0  0  0  0
  150.5315  141.1593  159.6278 H   0  0  0  0  0  0  0  0  0  0  0  0
  151.7489  139.9291  159.3182 H   0  0  0  0  0  0  0  0  0  0  0  0
  150.5192  140.2489  158.1249 H   0  0  0  0  0  0  0  0  0  0  0  0
  1  2  1  0  0  0  0
  1 22  1  0  0  0  0
  1 23  1  0  0  0  0
  1 24  1  0  0  0  0
  2 20  1  0  0  0  0
  2  3  1  0  0  0  0
  2 25  1  0  0  0  0
  3  4  1  0  0  0  0
  3 26  1  0  0  0  0
  3 27  1  0  0  0  0
  4  5  1  0  0  0  0
  4 28  1  0  0  0  0
  4 29  1  0  0  0  0
  5  6  1  0  0  0  0
  5 30  1  0  0  0  0
  5 31  1  0  0  0  0
  6  7  1  0  0  0  0
  6 20  1  0  0  0  0
  6 32  1  0  0  0  0
  7  8  1  0  0  0  0
  7 33  1  0  0  0  0
  8  9  2  0  0  0  0
  8 10  1  0  0  0  0
 10 11  1  0  0  0  0
 10 34  1  0  0  0  0
 10 35  1  0  0  0  0
 11 18  1  0  0  0  0
 11 12  1  0  0  0  0
 12 13  2  0  0  0  0
 12 36  1  0  0  0  0
 13 14  1  0  0  0  0
 13 37  1  0  0  0  0
 14 15  2  0  0  0  0
 14 16  1  0  0  0  0
 16 17  1  0  0  0  0
 16 18  1  0  0  0  0
 17 38  1  0  0  0  0
 17 39  1  0  0  0  0
 17 40  1  0  0  0  0
 18 19  2  0  0  0  0
 20 21  1  0  0  0  0
 20 41  1  0  0  0  0
 21 42  1  0  0  0  0
 21 43  1  0  0  0  0
 21 44  1  0  0  0  0
M  END
> <s_m_source_file>
AV-unprocessed.smi

> <i_m_source_file_index>
2143

> <i_lp_mmshare_version>
43012

> <i_f3d_flags>
0

> <s_epik_input>
W0NIM11bQ0BASF0xW0NIMl1bQ0gyXVtDSDJdW0NASF0oW0NASF0xW0NIM10pW05IXUMoPU8pW0NIMl1uMltjSF1bY0hdYyg9TyluKFtDSDNdKWMyPU8=

> <s_epik_cmdline>
J2VwaWtfcHl0aG9uJywgJy1waCcsICc3LjAnLCAnLXRuJywgJzgnLCAnLW1hJywgJzIwMCcsICctbWV0YWxfYmluZGluZycsICctaW1hZScsICc8aW5maWxlLm1hZT4nLCAnLW9tYWUnLCAnPG91dGZpbGUubWFlPic=

> <r_lp_tautomer_probability>
1

> <r_epik_Ionization_Penalty>
3.18445e-08

> <r_epik_Ionization_Penalty_Charging>
1.27977e-08

> <r_epik_Ionization_Penalty_Neutral>
1.90469e-08

> <r_epik_State_Penalty>
-0

> <r_epik_Charging_Adjusted_Penalty>
1.27977e-08

> <i_epik_Tot_Q>
0

> <i_epik_Tot_abs_Q>
0

> <r_epik_Metal_State_Penalty>
-0

> <b_epik_Metal_Only>
0

> <s_lp_Force_Field>
OPLS_2005

> <r_lp_Energy>
21.2837

> <b_lp_Chiralities_Consistent>
1

> <s_lp_Variant>
AV-unprocessed.smi:2143-7

> <Gold.Version>
5.8.1

> <Gold.Id.Protein>
6NUR|6NUR_protein|mol2

> <Gold.PLP.Fitness>
44.5549

> <Gold.PLP.PLP>
-43.1998

> <Gold.PLP.part.hbond>
-1.4377

> <Gold.PLP.part.metal>
0.0000

> <Gold.PLP.part.buried>
-4.5479

> <Gold.PLP.part.nonpolar>
-37.2153

> <Gold.PLP.part.repulsive>
0.2347

> <Gold.PLP.ligand.clash>
0.0000

> <Gold.PLP.ligand.torsion>
0.6190

> <Gold.PLP.Chemscore.Hbond>
0.8564

> <Gold.PLP.Chemscore.CHOScore>
0.0000

> <Gold.PLP.Chemscore.Metal>
0.0000

> <Gold.Chemscore.Hbonds>
donor molecule, donor type, donor heavy atom, donor atom, acceptor molecule, acceptor atom, score
      L1  H     7    33       P1  8028  0.54
      P1  H  7989  7998       L1     9  0.03

> <Gold.PLP.Chemscore.Internal.Correction>
0.0238

> <Gold.Rescore>
     Score         DG    S(hbond)    S(metal)    S(lipo)     H(rot)  DE(clash)    DE(int)     intcor
     13.50     -15.66       0.71        0.00      99.92       1.51       0.15       2.02       ----

> <Gold.Chemscore.Fitness>
13.4982

> <Gold.Chemscore.DG>
-15.6640

> <Gold.Chemscore.ZeroCoef>
-5.4800

> <Gold.Chemscore.Hbond>
0.7085

> <Gold.Chemscore.Metal>
0.0000

> <Gold.Chemscore.Lipo>
99.9250

> <Gold.Chemscore.Internal_Hbond>
0.0000

> <Gold.Chemscore.DEClash>
0.1474

> <Gold.Chemscore.DEInternal>
2.0184

> <Gold.Chemscore.Rot>
1.5131

> <Gold.Chemscore.Internal.Correction>
   9.000000E+99

> <Gold.Chemscore.Hbonds>
donor molecule, donor type, donor heavy atom, donor atom, acceptor molecule, acceptor atom, score
      L1  H     7    33       P1  8028  0.54

> <Gold.Chemscore.Hbond.Weighted>
-2.3662

> <Gold.Chemscore.Metal.Weighted>
-0.0000

> <Gold.Chemscore.Lipo.Weighted>
-11.6912

> <Gold.Chemscore.Internal_Hbond.Weighted>
0.0000

> <Gold.Chemscore.DEClash.Weighted>
0.1474

> <Gold.Chemscore.DEInternal.Weighted>
2.0184

> <Gold.Chemscore.Rot.Weighted>
3.8734

> <Gold.Chemscore.Internal.Correction.Weighted>
   9.000000E+99

> <Gold.Protein.RotatedTorsions>
[ 6907 6896 6895 6894 ] final -157.26 input  -60.11 | X-H torsion
[ 7974 7965 7964 7962 ] final  -40.91 input  175.53 | X-H torsion
[ 8008 7997 7996 7995 ] final  -80.48 input   59.86 | X-H torsion
[ 10167 10162 10161 10158 ] final  -93.36 input  -65.29 | X-H torsion
[ 10718 10713 10712 10709 ] final   58.63 input   66.30 | X-H torsion
[ 10763 10752 10751 10750 ] final  149.15 input  -60.55 | X-H torsion
[ 11005 11000 10999 10996 ] final   19.31 input  -57.11 | X-H torsion

> <Gold.Protein.ActiveResidues>
 VAL166  LYS551  ARG553  GLY616  TRP617  ASP618  TYR619  PRO620  LYS621  CYS622 
 ASP623  PHE694  ASN695  SER759  ASP760  ASP761  ALA762  ILE779  LEU786  VAL792 
 PHE793  MET794  SER795  GLU796  ALA797  LYS798  CYS799  TRP800  GLU811  SER814 

> <Gold.Protein.RotatedAtoms>
  151.3002  133.4126  159.2638 H   0  0  0  0  0  0  0  0  0  0  0  0  # atno 6907 bound_to 6896
  151.0202  134.9464  159.8066 H   0  0  0  0  0  0  0  0  0  0  0  0  # atno 6908 bound_to 6896
  152.5322  134.2965  159.9115 H   0  0  0  0  0  0  0  0  0  0  0  0  # atno 6909 bound_to 6896
  146.0260  140.6791  142.9155 H   0  0  0  0  0  0  0  0  0  0  0  0  # atno 7974 bound_to 7965
  154.5887  140.0662  156.9208 H   0  0  0  0  0  0  0  0  0  0  0  0  # atno 8008 bound_to 7997
  155.2333  140.3339  155.4282 H   0  0  0  0  0  0  0  0  0  0  0  0  # atno 8009 bound_to 7997
  156.2241  140.1811  156.7391 H   0  0  0  0  0  0  0  0  0  0  0  0  # atno 8010 bound_to 7997
  140.3254  143.3025  152.0001 H   0  0  0  0  0  0  0  0  0  0  0  0  # atno 10167 bound_to 10162
  157.5611  130.8836  149.9113 H   0  0  0  0  0  0  0  0  0  0  0  0  # atno 10718 bound_to 10713
  154.0664  135.2870  155.3316 H   0  0  0  0  0  0  0  0  0  0  0  0  # atno 10763 bound_to 10752
  154.6775  135.5276  153.8222 H   0  0  0  0  0  0  0  0  0  0  0  0  # atno 10764 bound_to 10752
  153.0502  135.6573  154.0849 H   0  0  0  0  0  0  0  0  0  0  0  0  # atno 10765 bound_to 10752
  140.4151  134.1578  155.7669 H   0  0  0  0  0  0  0  0  0  0  0  0  # atno 11005 bound_to 11000
  144.7010  140.3651  143.7156 LP  0  0  0  0  0  0  0  0  0  0  0  0  # atno 17320 bound_to 7965
  145.7117  139.1686  143.2535 LP  0  0  0  0  0  0  0  0  0  0  0  0  # atno 17321 bound_to 7965
  139.4866  144.6278  151.7131 LP  0  0  0  0  0  0  0  0  0  0  0  0  # atno 17342 bound_to 10162
  140.5446  144.0525  150.6102 LP  0  0  0  0  0  0  0  0  0  0  0  0  # atno 17343 bound_to 10162
  156.0664  130.3691  150.0869 LP  0  0  0  0  0  0  0  0  0  0  0  0  # atno 17370 bound_to 10713
  156.9033  130.9627  151.3573 LP  0  0  0  0  0  0  0  0  0  0  0  0  # atno 17371 bound_to 10713
  141.1806  133.8422  157.1270 LP  0  0  0  0  0  0  0  0  0  0  0  0  # atno 17394 bound_to 11000
  140.0240  134.9932  157.0649 LP  0  0  0  0  0  0  0  0  0  0  0  0  # atno 17395 bound_to 11000

$$$$
