AV-unprocessed.smi:447|AV-procd|sdf|2597|dock4
  -GOLD-   2262022593D 1   1.00000     0.00000
 Structure written by MMmdl.
 45 47  0  0  0  0  0  0  0  0  1 V2000
  155.2644  138.3752  160.8865 C   0  0  0  0  0  0  0  0  0  0  0  0
  154.4021  139.0805  159.8454 C   0  0  0  0  0  0  0  0  0  0  0  0
  154.8880  139.9612  159.1372 O   0  0  0  0  0  0  0  0  0  0  0  0
  153.1241  138.6796  159.7656 N   0  0  0  0  0  0  0  0  0  0  0  0
  152.1231  139.1990  158.8330 C   0  0  2  0  0  0  0  0  0  0  0  0
  152.5659  138.9114  157.3921 C   0  0  0  0  0  0  0  0  0  0  0  0
  151.9289  140.6773  159.0749 C   0  0  0  0  0  0  0  0  0  0  0  0
  152.7296  141.3853  159.8784 N   0  0  0  0  0  0  0  0  0  0  0  0
  152.2077  142.6597  159.7921 C   0  0  0  0  0  0  0  0  0  0  0  0
  152.6051  143.8598  160.4238 C   0  0  0  0  0  0  0  0  0  0  0  0
  151.9106  145.0615  160.1738 C   0  0  0  0  0  0  0  0  0  0  0  0
  150.8129  145.0804  159.2889 C   0  0  0  0  0  0  0  0  0  0  0  0
  150.4026  143.8956  158.6479 C   0  0  0  0  0  0  0  0  0  0  0  0
  151.0977  142.6984  158.9037 C   0  0  0  0  0  0  0  0  0  0  0  0
  150.9573  141.3918  158.4473 N   0  0  0  0  0  0  0  0  0  0  0  0
  149.9622  140.9366  157.4839 C   0  0  0  0  0  0  0  0  0  0  0  0
  150.3384  141.2775  156.0284 C   0  0  2  0  0  0  0  0  0  0  0  0
  150.6186  142.6578  155.9085 O   0  0  0  0  0  0  0  0  0  0  0  0
  149.2560  140.8258  155.0608 C   0  0  0  0  0  0  0  0  0  0  0  0
  149.0555  139.4498  154.8179 C   0  0  0  0  0  0  0  0  0  0  0  0
  148.0490  139.0253  153.9284 C   0  0  0  0  0  0  0  0  0  0  0  0
  147.2362  139.9740  153.2786 C   0  0  0  0  0  0  0  0  0  0  0  0
  147.4286  141.3478  153.5203 C   0  0  0  0  0  0  0  0  0  0  0  0
  148.4345  141.7727  154.4098 C   0  0  0  0  0  0  0  0  0  0  0  0
  155.1720  137.2927  160.7915 H   0  0  0  0  0  0  0  0  0  0  0  0
  154.9561  138.6631  161.8921 H   0  0  0  0  0  0  0  0  0  0  0  0
  156.3153  138.6389  160.7622 H   0  0  0  0  0  0  0  0  0  0  0  0
  152.8228  137.9418  160.3854 H   0  0  0  0  0  0  0  0  0  0  0  0
  151.1874  138.6709  159.0179 H   0  0  0  0  0  0  0  0  0  0  0  0
  151.8255  139.2691  156.6761 H   0  0  0  0  0  0  0  0  0  0  0  0
  152.6934  137.8413  157.2268 H   0  0  0  0  0  0  0  0  0  0  0  0
  153.5130  139.4010  157.1619 H   0  0  0  0  0  0  0  0  0  0  0  0
  153.4454  143.8554  161.1021 H   0  0  0  0  0  0  0  0  0  0  0  0
  152.2224  145.9730  160.6623 H   0  0  0  0  0  0  0  0  0  0  0  0
  150.2868  146.0051  159.1021 H   0  0  0  0  0  0  0  0  0  0  0  0
  149.5628  143.9064  157.9692 H   0  0  0  0  0  0  0  0  0  0  0  0
  149.8649  139.8555  157.5917 H   0  0  0  0  0  0  0  0  0  0  0  0
  148.9852  141.3447  157.7399 H   0  0  0  0  0  0  0  0  0  0  0  0
  151.2614  140.7544  155.7744 H   0  0  0  0  0  0  0  0  0  0  0  0
  149.8045  143.1352  155.9538 H   0  0  0  0  0  0  0  0  0  0  0  0
  149.6723  138.7143  155.3134 H   0  0  0  0  0  0  0  0  0  0  0  0
  147.8998  137.9712  153.7452 H   0  0  0  0  0  0  0  0  0  0  0  0
  146.4643  139.6485  152.5968 H   0  0  0  0  0  0  0  0  0  0  0  0
  146.8039  142.0761  153.0243 H   0  0  0  0  0  0  0  0  0  0  0  0
  148.5721  142.8287  154.5923 H   0  0  0  0  0  0  0  0  0  0  0  0
  1  2  1  0  0  0  0
  1 25  1  0  0  0  0
  1 26  1  0  0  0  0
  1 27  1  0  0  0  0
  2  3  2  0  0  0  0
  2  4  1  0  0  0  0
  4  5  1  0  0  0  0
  4 28  1  0  0  0  0
  5  6  1  0  0  0  0
  5  7  1  0  0  0  0
  5 29  1  0  0  0  0
  6 30  1  0  0  0  0
  6 31  1  0  0  0  0
  6 32  1  0  0  0  0
  7 15  1  0  0  0  0
  7  8  2  0  0  0  0
  8  9  1  0  0  0  0
  9 14  2  0  0  0  0
  9 10  1  0  0  0  0
 10 11  2  0  0  0  0
 10 33  1  0  0  0  0
 11 12  1  0  0  0  0
 11 34  1  0  0  0  0
 12 13  2  0  0  0  0
 12 35  1  0  0  0  0
 13 14  1  0  0  0  0
 13 36  1  0  0  0  0
 14 15  1  0  0  0  0
 15 16  1  0  0  0  0
 16 17  1  0  0  0  0
 16 37  1  0  0  0  0
 16 38  1  0  0  0  0
 17 18  1  0  0  0  0
 17 19  1  0  0  0  0
 17 39  1  0  0  0  0
 18 40  1  0  0  0  0
 19 24  1  0  0  0  0
 19 20  2  0  0  0  0
 20 21  1  0  0  0  0
 20 41  1  0  0  0  0
 21 22  2  0  0  0  0
 21 42  1  0  0  0  0
 22 23  1  0  0  0  0
 22 43  1  0  0  0  0
 23 24  2  0  0  0  0
 23 44  1  0  0  0  0
 24 45  1  0  0  0  0
M  END
> <s_m_source_file>
AV-unprocessed.smi

> <i_m_source_file_index>
447

> <i_lp_mmshare_version>
43012

> <i_f3d_flags>
0

> <s_epik_input>
W0NIM11DKD1PKVtOSF1bQ0BIXShbQ0gzXSljKG4xKW4oYyhjMTIpW2NIXVtjSF1bY0hdW2NIXTIpW0NIMl1bQ0BIXShbT0hdKWMzW2NIXVtjSF1bY0hdW2NIXVtjSF0z

> <s_epik_cmdline>
J2VwaWtfcHl0aG9uJywgJy1waCcsICc3LjAnLCAnLXRuJywgJzgnLCAnLW1hJywgJzIwMCcsICctbWV0YWxfYmluZGluZycsICctaW1hZScsICc8aW5maWxlLm1hZT4nLCAnLW9tYWUnLCAnPG91dGZpbGUubWFlPic=

> <r_epik_Ionization_Penalty>
0.13301

> <r_epik_Ionization_Penalty_Charging>
0

> <r_epik_Ionization_Penalty_Neutral>
0.13301

> <r_epik_State_Penalty>
0.122384

> <r_epik_Charging_Adjusted_Penalty>
0.122384

> <i_epik_Tot_Q>
0

> <i_epik_Tot_abs_Q>
0

> <r_epik_Metal_State_Penalty>
0.0997374

> <b_epik_Metal_Only>
0

> <s_lp_Force_Field>
OPLS_2005

> <r_lp_Energy>
7.61604

> <b_lp_Chiralities_Consistent>
1

> <s_lp_Variant>
AV-unprocessed.smi:447-1

> <Gold.Version>
5.8.1

> <Gold.Id.Protein>
6NUR|6NUR_protein|mol2

> <Gold.PLP.Fitness>
49.7262

> <Gold.PLP.PLP>
-45.1202

> <Gold.PLP.part.hbond>
-2.0000

> <Gold.PLP.part.metal>
0.0000

> <Gold.PLP.part.buried>
-4.6692

> <Gold.PLP.part.nonpolar>
-37.8842

> <Gold.PLP.part.repulsive>
0.0779

> <Gold.PLP.ligand.clash>
0.0000

> <Gold.PLP.ligand.torsion>
0.6869

> <Gold.PLP.Chemscore.Hbond>
1.9760

> <Gold.PLP.Chemscore.CHOScore>
0.0000

> <Gold.PLP.Chemscore.Metal>
0.0000

> <Gold.Chemscore.Hbonds>
donor molecule, donor type, donor heavy atom, donor atom, acceptor molecule, acceptor atom, score
      L1  H    18    40       P1  8028  0.96
      P1  H  7997  8009       L1     3  1.00

> <Gold.PLP.Chemscore.Internal.Correction>
0.0519

> <Gold.Rescore>
     Score         DG    S(hbond)    S(metal)    S(lipo)     H(rot)  DE(clash)    DE(int)     intcor
     16.01     -20.35       1.92        0.00     123.74       2.35       0.28       4.06       ----

> <Gold.Chemscore.Fitness>
16.0132

> <Gold.Chemscore.DG>
-20.3461

> <Gold.Chemscore.ZeroCoef>
-5.4800

> <Gold.Chemscore.Hbond>
1.9196

> <Gold.Chemscore.Metal>
0.0000

> <Gold.Chemscore.Lipo>
123.7412

> <Gold.Chemscore.Internal_Hbond>
0.0000

> <Gold.Chemscore.DEClash>
0.2757

> <Gold.Chemscore.DEInternal>
4.0572

> <Gold.Chemscore.Rot>
2.3528

> <Gold.Chemscore.Internal.Correction>
   9.000000E+99

> <Gold.Chemscore.Hbonds>
donor molecule, donor type, donor heavy atom, donor atom, acceptor molecule, acceptor atom, score
      L1  H    18    40       P1  8028  0.92
      P1  H  7997  8009       L1     3  0.97

> <Gold.Chemscore.Hbond.Weighted>
-6.4115

> <Gold.Chemscore.Metal.Weighted>
-0.0000

> <Gold.Chemscore.Lipo.Weighted>
-14.4777

> <Gold.Chemscore.Internal_Hbond.Weighted>
0.0000

> <Gold.Chemscore.DEClash.Weighted>
0.2757

> <Gold.Chemscore.DEInternal.Weighted>
4.0572

> <Gold.Chemscore.Rot.Weighted>
6.0231

> <Gold.Chemscore.Internal.Correction.Weighted>
   9.000000E+99

> <Gold.Protein.RotatedTorsions>
[ 6907 6896 6895 6894 ] final   60.03 input  -60.11 | X-H torsion
[ 7974 7965 7964 7962 ] final -159.73 input  175.53 | X-H torsion
[ 8008 7997 7996 7995 ] final  113.27 input   59.86 | X-H torsion
[ 10167 10162 10161 10158 ] final   93.45 input  -65.29 | X-H torsion
[ 10718 10713 10712 10709 ] final  -96.59 input   66.30 | X-H torsion
[ 10763 10752 10751 10750 ] final -137.04 input  -60.55 | X-H torsion
[ 11005 11000 10999 10996 ] final  -98.46 input  -57.11 | X-H torsion

> <Gold.Protein.ActiveResidues>
 VAL166  LYS551  ARG553  GLY616  TRP617  ASP618  TYR619  PRO620  LYS621  CYS622 
 ASP623  PHE694  ASN695  SER759  ASP760  ASP761  ALA762  ILE779  LEU786  VAL792 
 PHE793  MET794  SER795  GLU796  ALA797  LYS798  CYS799  TRP800  GLU811  SER814 

> <Gold.Protein.RotatedAtoms>
  152.3967  134.6353  160.0085 H   0  0  0  0  0  0  0  0  0  0  0  0  # atno 6907 bound_to 6896
  151.6570  133.3313  159.3173 H   0  0  0  0  0  0  0  0  0  0  0  0  # atno 6908 bound_to 6896
  150.7874  134.6913  159.6543 H   0  0  0  0  0  0  0  0  0  0  0  0  # atno 6909 bound_to 6896
  144.7454  140.3643  143.6089 H   0  0  0  0  0  0  0  0  0  0  0  0  # atno 7974 bound_to 7965
  156.2247  140.2983  156.0037 H   0  0  0  0  0  0  0  0  0  0  0  0  # atno 8008 bound_to 7997
  155.2389  140.0421  157.2989 H   0  0  0  0  0  0  0  0  0  0  0  0  # atno 8009 bound_to 7997
  154.5896  140.2398  155.7947 H   0  0  0  0  0  0  0  0  0  0  0  0  # atno 8010 bound_to 7997
  139.8178  144.6745  150.9557 H   0  0  0  0  0  0  0  0  0  0  0  0  # atno 10167 bound_to 10162
  156.0065  130.5158  150.6249 H   0  0  0  0  0  0  0  0  0  0  0  0  # atno 10718 bound_to 10713
  154.8671  135.3654  154.5159 H   0  0  0  0  0  0  0  0  0  0  0  0  # atno 10763 bound_to 10752
  153.5791  135.7019  153.5476 H   0  0  0  0  0  0  0  0  0  0  0  0  # atno 10764 bound_to 10752
  153.3473  135.4081  155.1581 H   0  0  0  0  0  0  0  0  0  0  0  0  # atno 10765 bound_to 10752
  141.1344  133.8247  157.0843 H   0  0  0  0  0  0  0  0  0  0  0  0  # atno 11005 bound_to 11000
  145.7144  139.1693  143.2520 LP  0  0  0  0  0  0  0  0  0  0  0  0  # atno 17320 bound_to 7965
  146.1323  140.7169  142.9406 LP  0  0  0  0  0  0  0  0  0  0  0  0  # atno 17321 bound_to 7965
  140.7815  143.4121  151.0976 LP  0  0  0  0  0  0  0  0  0  0  0  0  # atno 17342 bound_to 10162
  139.7783  143.8392  152.3133 LP  0  0  0  0  0  0  0  0  0  0  0  0  # atno 17343 bound_to 10162
  157.4058  131.0816  151.1267 LP  0  0  0  0  0  0  0  0  0  0  0  0  # atno 17370 bound_to 10713
  157.1914  130.6353  149.5706 LP  0  0  0  0  0  0  0  0  0  0  0  0  # atno 17371 bound_to 10713
  140.0432  134.9844  157.1000 LP  0  0  0  0  0  0  0  0  0  0  0  0  # atno 17394 bound_to 11000
  140.4103  134.1988  155.7163 LP  0  0  0  0  0  0  0  0  0  0  0  0  # atno 17395 bound_to 11000

$$$$
