AV-unprocessed.smi:3072|AV-procd|sdf|11718|dock8
  -GOLD-   2272017123D 1   1.00000     0.00000
 Structure written by MMmdl.
 25 26  0  0  0  0  0  0  0  0  2 V2000
  151.8050  139.8128  155.6821 C   0  0  0  0  0  0  0  0  0  0  0  0
  152.7497  138.9111  155.8962 N   0  0  0  0  0  0  0  0  0  0  0  0
  152.4579  137.9302  155.0230 N   0  0  0  0  0  0  0  0  0  0  0  0
  151.3443  138.2035  154.2645 C   0  0  0  0  0  0  0  0  0  0  0  0
  150.8819  139.4275  154.6648 C   0  0  0  0  0  0  0  0  0  0  0  0
  149.6875  140.2028  154.1703 C   0  0  1  0  0  0  0  0  0  0  0  0
  148.4033  139.3524  154.2217 C   0  0  0  0  0  0  0  0  0  0  0  0
  147.1923  140.1753  153.7549 C   0  0  0  0  0  0  0  0  0  0  0  0
  147.0663  141.4767  154.5641 C   0  0  0  0  0  0  0  0  0  0  0  0
  148.3191  142.2595  154.4928 N   0  3  0  0  0  0  0  0  0  0  0  0
  149.4982  141.5064  154.9735 C   0  0  0  0  0  0  0  0  0  0  0  0
  153.0198  137.0931  154.9573 H   0  0  0  0  0  0  0  0  0  0  0  0
  151.8138  140.7183  156.2706 H   0  0  0  0  0  0  0  0  0  0  0  0
  150.9795  137.5151  153.5165 H   0  0  0  0  0  0  0  0  0  0  0  0
  149.8521  140.4823  153.1283 H   0  0  0  0  0  0  0  0  0  0  0  0
  148.5125  138.4656  153.5963 H   0  0  0  0  0  0  0  0  0  0  0  0
  148.2285  138.9970  155.2383 H   0  0  0  0  0  0  0  0  0  0  0  0
  147.2963  140.4114  152.6949 H   0  0  0  0  0  0  0  0  0  0  0  0
  146.2805  139.5853  153.8521 H   0  0  0  0  0  0  0  0  0  0  0  0
  146.2448  142.0827  154.1816 H   0  0  0  0  0  0  0  0  0  0  0  0
  146.8400  141.2547  155.6080 H   0  0  0  0  0  0  0  0  0  0  0  0
  148.4777  142.5249  153.5312 H   0  0  0  0  0  0  0  0  0  0  0  0
  149.3715  141.2911  156.0354 H   0  0  0  0  0  0  0  0  0  0  0  0
  150.3802  142.1409  154.8804 H   0  0  0  0  0  0  0  0  0  0  0  0
  148.2153  143.0963  155.0488 H   0  0  0  0  0  0  0  0  0  0  0  0
  1  5  1  0  0  0  0
  1  2  2  0  0  0  0
  1 13  1  0  0  0  0
  2  3  1  0  0  0  0
  3 12  1  0  0  0  0
  3  4  1  0  0  0  0
  4  5  2  0  0  0  0
  4 14  1  0  0  0  0
  5  6  1  0  0  0  0
  6 11  1  0  0  0  0
  6  7  1  0  0  0  0
  6 15  1  0  0  0  0
  7  8  1  0  0  0  0
  7 16  1  0  0  0  0
  7 17  1  0  0  0  0
  8  9  1  0  0  0  0
  8 18  1  0  0  0  0
  8 19  1  0  0  0  0
  9 10  1  0  0  0  0
  9 20  1  0  0  0  0
  9 21  1  0  0  0  0
 10 11  1  0  0  0  0
 10 22  1  0  0  0  0
 10 25  1  0  0  0  0
 11 23  1  0  0  0  0
 11 24  1  0  0  0  0
M  CHG  1  10   1
M  END
> <s_m_source_file>
AV-unprocessed.smi

> <i_m_source_file_index>
3072

> <i_lp_mmshare_version>
43012

> <i_f3d_flags>
0

> <s_epik_input>
W2NIXTFbbkhdbltjSF1jMVtDQEBIXTJbQ0gyXVtDSDJdW0NIMl1bTkhdW0NIMl0y

> <s_epik_cmdline>
J2VwaWtfcHl0aG9uJywgJy1waCcsICc3LjAnLCAnLXRuJywgJzgnLCAnLW1hJywgJzIwMCcsICctbWV0YWxfYmluZGluZycsICctaW1hZScsICc8aW5maWxlLm1hZT4nLCAnLW9tYWUnLCAnPG91dGZpbGUubWFlPic=

> <r_lp_tautomer_probability>
1

> <r_epik_Ionization_Penalty>
0.000160186

> <r_epik_Ionization_Penalty_Charging>
0.000157527

> <r_epik_Ionization_Penalty_Neutral>
2.65916e-06

> <r_epik_State_Penalty>
-0

> <r_epik_Charging_Adjusted_Penalty>
0.000157527

> <i_epik_Tot_Q>
1

> <i_epik_Tot_abs_Q>
1

> <r_epik_Metal_State_Penalty>
-0

> <b_epik_Metal_Only>
0

> <s_lp_Force_Field>
OPLS_2005

> <r_lp_Energy>
12.3326

> <b_lp_Chiralities_Consistent>
1

> <s_lp_Variant>
AV-unprocessed.smi:3072-2

> <Gold.Version>
5.8.1

> <Gold.Id.Protein>
6NUR|6NUR_protein|mol2

> <Gold.PLP.Fitness>
32.7452

> <Gold.PLP.PLP>
-20.7702

> <Gold.PLP.part.hbond>
-2.0000

> <Gold.PLP.part.metal>
0.0000

> <Gold.PLP.part.buried>
0.7524

> <Gold.PLP.part.nonpolar>
-20.1137

> <Gold.PLP.part.repulsive>
0.4769

> <Gold.PLP.ligand.clash>
0.0000

> <Gold.PLP.ligand.torsion>
0.0560

> <Gold.PLP.Chemscore.Hbond>
2.9913

> <Gold.PLP.Chemscore.CHOScore>
1.0336

> <Gold.PLP.Chemscore.Metal>
0.0000

> <Gold.Chemscore.Hbonds>
donor molecule, donor type, donor heavy atom, donor atom, acceptor molecule, acceptor atom, score
      L1  H    10    25       P1  8028  2.00
      P1  H  7997  8009       L1     2  0.99
      L1  C     4    14       P1  7948  0.06
      L1  C     4    14       P1  7949  0.97

> <Gold.PLP.Chemscore.Internal.Correction>
0.0123

> <Gold.Rescore>
     Score         DG    S(hbond)    S(metal)    S(lipo)     H(rot)  DE(clash)    DE(int)     intcor
     14.75     -15.00       1.71        0.00      54.27       1.00       0.11       0.14       ----

> <Gold.Chemscore.Fitness>
14.7450

> <Gold.Chemscore.DG>
-14.9961

> <Gold.Chemscore.ZeroCoef>
-5.4800

> <Gold.Chemscore.Hbond>
1.7146

> <Gold.Chemscore.Metal>
0.0000

> <Gold.Chemscore.Lipo>
54.2683

> <Gold.Chemscore.Internal_Hbond>
0.0000

> <Gold.Chemscore.DEClash>
0.1075

> <Gold.Chemscore.DEInternal>
0.1436

> <Gold.Chemscore.Rot>
1.0000

> <Gold.Chemscore.Internal.Correction>
   9.000000E+99

> <Gold.Chemscore.Hbonds>
donor molecule, donor type, donor heavy atom, donor atom, acceptor molecule, acceptor atom, score
      L1  H    10    25       P1  8028  0.93
      P1  H  7997  8009       L1     2  0.28

> <Gold.Chemscore.Hbond.Weighted>
-5.7267

> <Gold.Chemscore.Metal.Weighted>
-0.0000

> <Gold.Chemscore.Lipo.Weighted>
-6.3494

> <Gold.Chemscore.Internal_Hbond.Weighted>
0.0000

> <Gold.Chemscore.DEClash.Weighted>
0.1075

> <Gold.Chemscore.DEInternal.Weighted>
0.1436

> <Gold.Chemscore.Rot.Weighted>
2.5600

> <Gold.Chemscore.Internal.Correction.Weighted>
   9.000000E+99

> <Gold.Protein.RotatedTorsions>
[ 6907 6896 6895 6894 ] final  164.79 input  -60.11 | X-H torsion
[ 7974 7965 7964 7962 ] final -179.34 input  175.53 | X-H torsion
[ 8008 7997 7996 7995 ] final -161.81 input   59.86 | X-H torsion
[ 10167 10162 10161 10158 ] final -112.54 input  -65.29 | X-H torsion
[ 10718 10713 10712 10709 ] final   62.54 input   66.30 | X-H torsion
[ 10763 10752 10751 10750 ] final  161.13 input  -60.55 | X-H torsion
[ 11005 11000 10999 10996 ] final  153.05 input  -57.11 | X-H torsion

> <Gold.Protein.ActiveResidues>
 VAL166  LYS551  ARG553  GLY616  TRP617  ASP618  TYR619  PRO620  LYS621  CYS622 
 ASP623  PHE694  ASN695  SER759  ASP760  ASP761  ALA762  ILE779  LEU786  VAL792 
 PHE793  MET794  SER795  GLU796  ALA797  LYS798  CYS799  TRP800  GLU811  SER814 

> <Gold.Protein.RotatedAtoms>
  151.9044  133.3546  159.3841 H   0  0  0  0  0  0  0  0  0  0  0  0  # atno 6907 bound_to 6896
  150.7072  134.4795  159.5473 H   0  0  0  0  0  0  0  0  0  0  0  0  # atno 6908 bound_to 6896
  152.2390  134.8248  160.0514 H   0  0  0  0  0  0  0  0  0  0  0  0  # atno 6909 bound_to 6896
  144.7136  140.0732  143.6428 H   0  0  0  0  0  0  0  0  0  0  0  0  # atno 7974 bound_to 7965
  155.7976  140.0887  157.1975 H   0  0  0  0  0  0  0  0  0  0  0  0  # atno 8008 bound_to 7997
  154.3983  140.1478  156.3295 H   0  0  0  0  0  0  0  0  0  0  0  0  # atno 8009 bound_to 7997
  155.8495  140.3435  155.5686 H   0  0  0  0  0  0  0  0  0  0  0  0  # atno 8010 bound_to 7997
  140.1216  143.4438  152.1687 H   0  0  0  0  0  0  0  0  0  0  0  0  # atno 10167 bound_to 10162
  157.5908  130.9056  149.9601 H   0  0  0  0  0  0  0  0  0  0  0  0  # atno 10718 bound_to 10713
  154.2581  135.2769  155.2789 H   0  0  0  0  0  0  0  0  0  0  0  0  # atno 10763 bound_to 10752
  154.5407  135.5703  153.6840 H   0  0  0  0  0  0  0  0  0  0  0  0  # atno 10764 bound_to 10752
  152.9967  135.6250  154.2731 H   0  0  0  0  0  0  0  0  0  0  0  0  # atno 10765 bound_to 10752
  140.1363  134.8768  157.2271 H   0  0  0  0  0  0  0  0  0  0  0  0  # atno 11005 bound_to 11000
  145.9765  139.2909  143.1067 LP  0  0  0  0  0  0  0  0  0  0  0  0  # atno 17320 bound_to 7965
  145.9058  140.9213  143.0479 LP  0  0  0  0  0  0  0  0  0  0  0  0  # atno 17321 bound_to 7965
  139.5566  144.7377  151.4277 LP  0  0  0  0  0  0  0  0  0  0  0  0  # atno 17342 bound_to 10162
  140.6869  143.7954  150.7198 LP  0  0  0  0  0  0  0  0  0  0  0  0  # atno 17343 bound_to 10162
  156.0962  130.3659  150.0302 LP  0  0  0  0  0  0  0  0  0  0  0  0  # atno 17370 bound_to 10713
  156.8425  130.9430  151.3631 LP  0  0  0  0  0  0  0  0  0  0  0  0  # atno 17371 bound_to 10713
  140.2778  134.3385  155.7352 LP  0  0  0  0  0  0  0  0  0  0  0  0  # atno 17394 bound_to 11000
  141.2179  133.7461  156.9319 LP  0  0  0  0  0  0  0  0  0  0  0  0  # atno 17395 bound_to 11000

$$$$
