AV-unprocessed.smi:1829|AV-procd|sdf|7428|dock4
  -GOLD-   22720 9113D 1   1.00000     0.00000
 Structure written by MMmdl.
 45 47  0  0  0  0  0  0  0  0  1 V2000
  145.3831  137.7601  159.6412 C   0  0  0  0  0  0  0  0  0  0  0  0
  146.3855  137.2749  158.5820 C   0  0  0  0  0  0  0  0  0  0  0  0
  147.2326  136.1016  159.0983 C   0  0  0  0  0  0  0  0  0  0  0  0
  147.2618  138.4112  158.0693 C   0  0  0  0  0  0  0  0  0  0  0  0
  148.6669  138.3161  158.1589 C   0  0  0  0  0  0  0  0  0  0  0  0
  149.4822  139.3676  157.6974 C   0  0  0  0  0  0  0  0  0  0  0  0
  148.9037  140.5276  157.1412 C   0  0  0  0  0  0  0  0  0  0  0  0
  149.7973  141.6524  156.6416 C   0  0  2  0  0  0  0  0  0  0  0  0
  149.5752  141.9536  155.2770 O   0  0  0  0  0  0  0  0  0  0  0  0
  151.2861  141.3267  156.8786 C   0  0  0  0  0  0  0  0  0  0  0  0
  151.7538  141.7339  158.1972 N   0  0  0  0  0  0  0  0  0  0  0  0
  152.2945  140.9588  159.1709 C   0  0  0  0  0  0  0  0  0  0  0  0
  152.4985  139.4842  159.0007 C   0  0  0  0  0  0  0  0  0  0  0  0
  153.3632  139.1739  157.9292 O   0  0  0  0  0  0  0  0  0  0  0  0
  152.6420  141.5928  160.2915 N   0  0  0  0  0  0  0  0  0  0  0  0
  152.2975  142.9023  160.0188 C   0  0  0  0  0  0  0  0  0  0  0  0
  152.4174  144.0669  160.8106 C   0  0  0  0  0  0  0  0  0  0  0  0
  151.9900  145.3155  160.3132 C   0  0  0  0  0  0  0  0  0  0  0  0
  151.4379  145.4178  159.0199 C   0  0  0  0  0  0  0  0  0  0  0  0
  151.3104  144.2698  158.2143 C   0  0  0  0  0  0  0  0  0  0  0  0
  151.7388  143.0256  158.7153 C   0  0  0  0  0  0  0  0  0  0  0  0
  147.4984  140.6198  157.0424 C   0  0  0  0  0  0  0  0  0  0  0  0
  146.6833  139.5696  157.5062 C   0  0  0  0  0  0  0  0  0  0  0  0
  144.7508  138.5556  159.2459 H   0  0  0  0  0  0  0  0  0  0  0  0
  145.8875  138.1442  160.5281 H   0  0  0  0  0  0  0  0  0  0  0  0
  144.7287  136.9487  159.9615 H   0  0  0  0  0  0  0  0  0  0  0  0
  145.8015  136.9010  157.7398 H   0  0  0  0  0  0  0  0  0  0  0  0
  147.9013  135.7302  158.3213 H   0  0  0  0  0  0  0  0  0  0  0  0
  146.6011  135.2706  159.4127 H   0  0  0  0  0  0  0  0  0  0  0  0
  147.8441  136.3924  159.9528 H   0  0  0  0  0  0  0  0  0  0  0  0
  149.1278  137.4364  158.5840 H   0  0  0  0  0  0  0  0  0  0  0  0
  150.5563  139.2793  157.7720 H   0  0  0  0  0  0  0  0  0  0  0  0
  149.5384  142.5546  157.1957 H   0  0  0  0  0  0  0  0  0  0  0  0
  149.4183  142.8820  155.1973 H   0  0  0  0  0  0  0  0  0  0  0  0
  151.4620  140.2573  156.7596 H   0  0  0  0  0  0  0  0  0  0  0  0
  151.9040  141.8167  156.1251 H   0  0  0  0  0  0  0  0  0  0  0  0
  152.9193  139.0711  159.9182 H   0  0  0  0  0  0  0  0  0  0  0  0
  151.5401  138.9897  158.8471 H   0  0  0  0  0  0  0  0  0  0  0  0
  153.2146  138.2764  157.6738 H   0  0  0  0  0  0  0  0  0  0  0  0
  152.8388  143.9990  161.8024 H   0  0  0  0  0  0  0  0  0  0  0  0
  152.0859  146.1990  160.9273 H   0  0  0  0  0  0  0  0  0  0  0  0
  151.1111  146.3774  158.6467 H   0  0  0  0  0  0  0  0  0  0  0  0
  150.8845  144.3430  157.2247 H   0  0  0  0  0  0  0  0  0  0  0  0
  147.0386  141.4966  156.6104 H   0  0  0  0  0  0  0  0  0  0  0  0
  145.6099  139.6590  157.4279 H   0  0  0  0  0  0  0  0  0  0  0  0
  1  2  1  0  0  0  0
  1 24  1  0  0  0  0
  1 25  1  0  0  0  0
  1 26  1  0  0  0  0
  2  3  1  0  0  0  0
  2  4  1  0  0  0  0
  2 27  1  0  0  0  0
  3 28  1  0  0  0  0
  3 29  1  0  0  0  0
  3 30  1  0  0  0  0
  4 23  1  0  0  0  0
  4  5  2  0  0  0  0
  5  6  1  0  0  0  0
  5 31  1  0  0  0  0
  6  7  2  0  0  0  0
  6 32  1  0  0  0  0
  7  8  1  0  0  0  0
  7 22  1  0  0  0  0
  8  9  1  0  0  0  0
  8 10  1  0  0  0  0
  8 33  1  0  0  0  0
  9 34  1  0  0  0  0
 10 11  1  0  0  0  0
 10 35  1  0  0  0  0
 10 36  1  0  0  0  0
 11 21  1  0  0  0  0
 11 12  1  0  0  0  0
 12 13  1  0  0  0  0
 12 15  2  0  0  0  0
 13 14  1  0  0  0  0
 13 37  1  0  0  0  0
 13 38  1  0  0  0  0
 14 39  1  0  0  0  0
 15 16  1  0  0  0  0
 16 21  2  0  0  0  0
 16 17  1  0  0  0  0
 17 18  2  0  0  0  0
 17 40  1  0  0  0  0
 18 19  1  0  0  0  0
 18 41  1  0  0  0  0
 19 20  2  0  0  0  0
 19 42  1  0  0  0  0
 20 21  1  0  0  0  0
 20 43  1  0  0  0  0
 22 23  2  0  0  0  0
 22 44  1  0  0  0  0
 23 45  1  0  0  0  0
M  END
> <s_m_source_file>
AV-unprocessed.smi

> <i_m_source_file_index>
1829

> <i_lp_mmshare_version>
43012

> <i_f3d_flags>
0

> <s_epik_input>
W0NIM11bQ0hdKFtDSDNdKWMxW2NIXVtjSF1jKFtjSF1bY0hdMSlbQ0BIXShbT0hdKVtDSDJdbihjKG4yKVtDSDJdW09IXSljKGMyMylbY0hdW2NIXVtjSF1bY0hdMw==

> <s_epik_cmdline>
J2VwaWtfcHl0aG9uJywgJy1waCcsICc3LjAnLCAnLXRuJywgJzgnLCAnLW1hJywgJzIwMCcsICctbWV0YWxfYmluZGluZycsICctaW1hZScsICc8aW5maWxlLm1hZT4nLCAnLW9tYWUnLCAnPG91dGZpbGUubWFlPic=

> <r_epik_Ionization_Penalty>
0.0634718

> <r_epik_Ionization_Penalty_Charging>
0

> <r_epik_Ionization_Penalty_Neutral>
0.0634718

> <r_epik_State_Penalty>
0.0551572

> <r_epik_Charging_Adjusted_Penalty>
0.0551572

> <i_epik_Tot_Q>
0

> <i_epik_Tot_abs_Q>
0

> <r_epik_Metal_State_Penalty>
5.78034e-05

> <b_epik_Metal_Only>
0

> <s_lp_Force_Field>
OPLS_2005

> <r_lp_Energy>
12.4565

> <b_lp_Chiralities_Consistent>
1

> <s_lp_Variant>
AV-unprocessed.smi:1829-1

> <Gold.Version>
5.8.1

> <Gold.Id.Protein>
6NUR|6NUR_protein|mol2

> <Gold.PLP.Fitness>
44.4777

> <Gold.PLP.PLP>
-39.1853

> <Gold.PLP.part.hbond>
-2.0000

> <Gold.PLP.part.metal>
0.0000

> <Gold.PLP.part.buried>
-7.1778

> <Gold.PLP.part.nonpolar>
-30.2095

> <Gold.PLP.part.repulsive>
0.0000

> <Gold.PLP.ligand.clash>
0.0000

> <Gold.PLP.ligand.torsion>
0.4005

> <Gold.PLP.Chemscore.Hbond>
2.0000

> <Gold.PLP.Chemscore.CHOScore>
0.0000

> <Gold.PLP.Chemscore.Metal>
0.0000

> <Gold.Chemscore.Hbonds>
donor molecule, donor type, donor heavy atom, donor atom, acceptor molecule, acceptor atom, score
      L1  H     9    34       P1  8028  1.00
      P1  H  7997  8008       L1    14  1.00

> <Gold.PLP.Chemscore.Internal.Correction>
0.0935

> <Gold.Rescore>
     Score         DG    S(hbond)    S(metal)    S(lipo)     H(rot)  DE(clash)    DE(int)     intcor
     16.41     -16.89       1.95        0.00     100.26       2.68       0.08       0.40       ----

> <Gold.Chemscore.Fitness>
16.4101

> <Gold.Chemscore.DG>
-16.8882

> <Gold.Chemscore.ZeroCoef>
-5.4800

> <Gold.Chemscore.Hbond>
1.9548

> <Gold.Chemscore.Metal>
0.0000

> <Gold.Chemscore.Lipo>
100.2551

> <Gold.Chemscore.Internal_Hbond>
0.0000

> <Gold.Chemscore.DEClash>
0.0761

> <Gold.Chemscore.DEInternal>
0.4020

> <Gold.Chemscore.Rot>
2.6761

> <Gold.Chemscore.Internal.Correction>
   9.000000E+99

> <Gold.Chemscore.Hbonds>
donor molecule, donor type, donor heavy atom, donor atom, acceptor molecule, acceptor atom, score
      L1  H     9    34       P1  8028  0.98
      P1  H  7997  8008       L1    14  0.93

> <Gold.Chemscore.Hbond.Weighted>
-6.5291

> <Gold.Chemscore.Metal.Weighted>
-0.0000

> <Gold.Chemscore.Lipo.Weighted>
-11.7298

> <Gold.Chemscore.Internal_Hbond.Weighted>
0.0000

> <Gold.Chemscore.DEClash.Weighted>
0.0761

> <Gold.Chemscore.DEInternal.Weighted>
0.4020

> <Gold.Chemscore.Rot.Weighted>
6.8507

> <Gold.Chemscore.Internal.Correction.Weighted>
   9.000000E+99

> <Gold.Protein.RotatedTorsions>
[ 6907 6896 6895 6894 ] final   17.66 input  -60.11 | X-H torsion
[ 7974 7965 7964 7962 ] final   39.89 input  175.53 | X-H torsion
[ 8008 7997 7996 7995 ] final  -94.24 input   59.86 | X-H torsion
[ 10167 10162 10161 10158 ] final  129.13 input  -65.29 | X-H torsion
[ 10718 10713 10712 10709 ] final  126.52 input   66.30 | X-H torsion
[ 10763 10752 10751 10750 ] final -169.29 input  -60.55 | X-H torsion
[ 11005 11000 10999 10996 ] final  -10.71 input  -57.11 | X-H torsion

> <Gold.Protein.ActiveResidues>
 VAL166  LYS551  ARG553  GLY616  TRP617  ASP618  TYR619  PRO620  LYS621  CYS622 
 ASP623  PHE694  ASN695  SER759  ASP760  ASP761  ALA762  ILE779  LEU786  VAL792 
 PHE793  MET794  SER795  GLU796  ALA797  LYS798  CYS799  TRP800  GLU811  SER814 

> <Gold.Protein.RotatedAtoms>
  151.8530  135.0551  160.0460 H   0  0  0  0  0  0  0  0  0  0  0  0  # atno 6907 bound_to 6896
  152.2721  133.5388  159.5454 H   0  0  0  0  0  0  0  0  0  0  0  0  # atno 6908 bound_to 6896
  150.7156  134.0599  159.3870 H   0  0  0  0  0  0  0  0  0  0  0  0  # atno 6909 bound_to 6896
  146.0948  139.5597  142.9452 H   0  0  0  0  0  0  0  0  0  0  0  0  # atno 7974 bound_to 7965
  154.7459  140.0491  157.0852 H   0  0  0  0  0  0  0  0  0  0  0  0  # atno 8008 bound_to 7997
  155.0118  140.3137  155.4807 H   0  0  0  0  0  0  0  0  0  0  0  0  # atno 8009 bound_to 7997
  156.2875  140.2183  156.5233 H   0  0  0  0  0  0  0  0  0  0  0  0  # atno 8010 bound_to 7997
  139.5493  144.6799  151.4375 H   0  0  0  0  0  0  0  0  0  0  0  0  # atno 10167 bound_to 10162
  157.5412  131.1097  150.8856 H   0  0  0  0  0  0  0  0  0  0  0  0  # atno 10718 bound_to 10713
  154.6538  135.2915  154.9953 H   0  0  0  0  0  0  0  0  0  0  0  0  # atno 10763 bound_to 10752
  154.1037  135.6573  153.4876 H   0  0  0  0  0  0  0  0  0  0  0  0  # atno 10764 bound_to 10752
  153.0391  135.5248  154.7458 H   0  0  0  0  0  0  0  0  0  0  0  0  # atno 10765 bound_to 10752
  140.7476  133.8618  155.9019 H   0  0  0  0  0  0  0  0  0  0  0  0  # atno 11005 bound_to 11000
  145.5969  141.0361  143.2039 LP  0  0  0  0  0  0  0  0  0  0  0  0  # atno 17320 bound_to 7965
  144.7387  139.7511  143.7319 LP  0  0  0  0  0  0  0  0  0  0  0  0  # atno 17321 bound_to 7965
  140.6750  143.8209  150.7047 LP  0  0  0  0  0  0  0  0  0  0  0  0  # atno 17342 bound_to 10162
  140.1645  143.4247  152.2044 LP  0  0  0  0  0  0  0  0  0  0  0  0  # atno 17343 bound_to 10162
  156.9408  130.5384  149.5280 LP  0  0  0  0  0  0  0  0  0  0  0  0  # atno 17370 bound_to 10713
  156.0498  130.5569  150.8963 LP  0  0  0  0  0  0  0  0  0  0  0  0  # atno 17371 bound_to 10713
  140.9780  134.1444  157.4519 LP  0  0  0  0  0  0  0  0  0  0  0  0  # atno 17394 bound_to 11000
  139.8793  135.0001  156.5991 LP  0  0  0  0  0  0  0  0  0  0  0  0  # atno 17395 bound_to 11000

$$$$
