AV-unprocessed.smi:2124|AV-procd|sdf|8668|dock10
  -GOLD-   2272011423D 1   1.00000     0.00000
 Structure written by MMmdl.
 46 48  0  0  0  0  0  0  0  0  2 V2000
  145.0477  144.6401  155.1209 C   0  0  0  0  0  0  0  0  0  0  0  0
  145.7815  143.4430  155.6869 C   0  0  0  0  0  0  0  0  0  0  0  0
  146.5896  142.7947  154.9377 N   0  0  0  0  0  0  0  0  0  0  0  0
  147.2742  141.6833  155.4577 C   0  0  0  0  0  0  0  0  0  0  0  0
  148.2127  140.9734  154.4978 C   0  0  0  0  0  0  0  0  0  0  0  0
  147.0925  141.2831  156.7488 C   0  0  0  0  0  0  0  0  0  0  0  0
  147.8112  140.0804  157.3615 C   0  0  0  0  0  0  0  0  0  0  0  0
  149.3357  140.1780  157.4616 C   0  0  0  0  0  0  0  0  0  0  0  0
  150.0607  139.4664  156.7655 O   0  0  0  0  0  0  0  0  0  0  0  0
  149.8089  141.0689  158.3464 N   0  0  0  0  0  0  0  0  0  0  0  0
  151.2219  141.3301  158.6133 C   0  0  2  0  0  0  0  0  0  0  0  0
  151.8127  140.1462  159.4010 C   0  0  0  0  0  0  0  0  0  0  0  0
  151.3797  142.6728  159.3685 C   0  0  1  0  0  0  0  0  0  0  0  0
  152.8519  143.1321  159.5098 C   0  0  0  0  0  0  0  0  0  0  0  0
  152.8376  144.5575  158.9300 C   0  0  2  0  0  0  0  0  0  0  0  0
  152.0669  145.4917  159.8796 C   0  0  0  0  0  0  0  0  0  0  0  0
  150.6062  145.0492  159.6748 C   0  0  0  0  0  0  0  0  0  0  0  0
  150.7383  143.8955  158.6615 C   0  0  1  0  0  0  0  0  0  0  0  0
  151.8642  144.4066  157.7690 C   0  0  0  0  0  0  0  0  0  0  0  0
  146.1576  142.0610  157.5811 C   0  0  0  0  0  0  0  0  0  0  0  0
  145.9700  141.7527  158.7575 O   0  0  0  0  0  0  0  0  0  0  0  0
  145.5247  143.1204  157.0006 N   0  5  0  0  0  0  0  0  0  0  0  0
  145.4628  144.9343  154.1560 H   0  0  0  0  0  0  0  0  0  0  0  0
  145.1270  145.4912  155.7980 H   0  0  0  0  0  0  0  0  0  0  0  0
  143.9923  144.4037  154.9830 H   0  0  0  0  0  0  0  0  0  0  0  0
  147.8545  139.9648  154.2908 H   0  0  0  0  0  0  0  0  0  0  0  0
  149.2163  140.9072  154.9184 H   0  0  0  0  0  0  0  0  0  0  0  0
  148.2835  141.5065  153.5489 H   0  0  0  0  0  0  0  0  0  0  0  0
  147.4112  139.8609  158.3518 H   0  0  0  0  0  0  0  0  0  0  0  0
  147.5732  139.1988  156.7660 H   0  0  0  0  0  0  0  0  0  0  0  0
  149.1392  141.6123  158.8715 H   0  0  0  0  0  0  0  0  0  0  0  0
  151.7507  141.4076  157.6617 H   0  0  0  0  0  0  0  0  0  0  0  0
  152.8771  140.2799  159.5912 H   0  0  0  0  0  0  0  0  0  0  0  0
  151.7002  139.2113  158.8508 H   0  0  0  0  0  0  0  0  0  0  0  0
  151.3167  140.0249  160.3645 H   0  0  0  0  0  0  0  0  0  0  0  0
  150.9343  142.5557  160.3579 H   0  0  0  0  0  0  0  0  0  0  0  0
  153.1961  143.1074  160.5444 H   0  0  0  0  0  0  0  0  0  0  0  0
  153.5259  142.5061  158.9237 H   0  0  0  0  0  0  0  0  0  0  0  0
  153.8261  144.9282  158.6571 H   0  0  0  0  0  0  0  0  0  0  0  0
  152.3932  145.3878  160.9150 H   0  0  0  0  0  0  0  0  0  0  0  0
  152.1957  146.5353  159.5899 H   0  0  0  0  0  0  0  0  0  0  0  0
  150.1293  144.7380  160.6048 H   0  0  0  0  0  0  0  0  0  0  0  0
  150.0161  145.8652  159.2558 H   0  0  0  0  0  0  0  0  0  0  0  0
  149.8046  143.6846  158.1397 H   0  0  0  0  0  0  0  0  0  0  0  0
  151.6298  145.3512  157.2750 H   0  0  0  0  0  0  0  0  0  0  0  0
  152.1896  143.6840  157.0191 H   0  0  0  0  0  0  0  0  0  0  0  0
  1  2  1  0  0  0  0
  1 23  1  0  0  0  0
  1 24  1  0  0  0  0
  1 25  1  0  0  0  0
  2 22  1  0  0  0  0
  2  3  2  0  0  0  0
  3  4  1  0  0  0  0
  4  5  1  0  0  0  0
  4  6  2  0  0  0  0
  5 26  1  0  0  0  0
  5 27  1  0  0  0  0
  5 28  1  0  0  0  0
  6  7  1  0  0  0  0
  6 20  1  0  0  0  0
  7  8  1  0  0  0  0
  7 29  1  0  0  0  0
  7 30  1  0  0  0  0
  8  9  2  0  0  0  0
  8 10  1  0  0  0  0
 10 11  1  0  0  0  0
 10 31  1  0  0  0  0
 11 12  1  0  0  0  0
 11 13  1  0  0  0  0
 11 32  1  0  0  0  0
 12 33  1  0  0  0  0
 12 34  1  0  0  0  0
 12 35  1  0  0  0  0
 13 18  1  0  0  0  0
 13 14  1  0  0  0  0
 13 36  1  0  0  0  0
 14 15  1  0  0  0  0
 14 37  1  0  0  0  0
 14 38  1  0  0  0  0
 15 19  1  0  0  0  0
 15 16  1  0  0  0  0
 15 39  1  0  0  0  0
 16 17  1  0  0  0  0
 16 40  1  0  0  0  0
 16 41  1  0  0  0  0
 17 18  1  0  0  0  0
 17 42  1  0  0  0  0
 17 43  1  0  0  0  0
 18 19  1  0  0  0  0
 18 44  1  0  0  0  0
 19 45  1  0  0  0  0
 19 46  1  0  0  0  0
 20 21  2  0  0  0  0
 20 22  1  0  0  0  0
M  CHG  1  22  -1
M  END
> <s_m_source_file>
AV-unprocessed.smi

> <i_m_source_file_index>
2124

> <i_lp_mmshare_version>
43012

> <i_f3d_flags>
0

> <s_epik_input>
W0NIM11jMW5jKFtDSDNdKWMoYyg9TylbbkhdMSlbQ0gyXUMoPU8pW05IXVtDQEhdKFtDSDNdKVtDQEhdKFtDSDJdW0NASF0yMylbQ0BIXShbQ0gyXTMpW0NIMl1bQ0gyXTI=

> <s_epik_cmdline>
J2VwaWtfcHl0aG9uJywgJy1waCcsICc3LjAnLCAnLXRuJywgJzgnLCAnLW1hJywgJzIwMCcsICctbWV0YWxfYmluZGluZycsICctaW1hZScsICc8aW5maWxlLm1hZT4nLCAnLW9tYWUnLCAnPG91dGZpbGUubWFlPic=

> <r_lp_tautomer_probability>
0.839158

> <r_epik_Ionization_Penalty>
6.63797

> <r_epik_Ionization_Penalty_Charging>
7.48558e-08

> <r_epik_Ionization_Penalty_Neutral>
6.63797

> <r_epik_State_Penalty>
4.49496

> <r_epik_Charging_Adjusted_Penalty>
4.49496

> <i_epik_Tot_Q>
-1

> <i_epik_Tot_abs_Q>
1

> <r_epik_Metal_State_Penalty>
0.841241

> <b_epik_Metal_Only>
1

> <s_lp_Force_Field>
OPLS_2005

> <r_lp_Energy>
55.6811

> <b_lp_Chiralities_Consistent>
1

> <s_lp_Variant>
AV-unprocessed.smi:2124-19

> <Gold.Version>
5.8.1

> <Gold.Id.Protein>
6NUR|6NUR_protein|mol2

> <Gold.PLP.Fitness>
40.0089

> <Gold.PLP.PLP>
-38.6403

> <Gold.PLP.part.hbond>
-1.0000

> <Gold.PLP.part.metal>
0.0000

> <Gold.PLP.part.buried>
-7.7862

> <Gold.PLP.part.nonpolar>
-30.9203

> <Gold.PLP.part.repulsive>
0.4327

> <Gold.PLP.ligand.clash>
0.0000

> <Gold.PLP.ligand.torsion>
0.3114

> <Gold.PLP.Chemscore.Hbond>
0.6560

> <Gold.PLP.Chemscore.CHOScore>
0.0000

> <Gold.PLP.Chemscore.Metal>
0.0000

> <Gold.Chemscore.Hbonds>
donor molecule, donor type, donor heavy atom, donor atom, acceptor molecule, acceptor atom, score
      P1  H  6934  6946       L1    21  0.21

> <Gold.PLP.Chemscore.Internal.Correction>
0.0233

> <Gold.Rescore>
     Score         DG    S(hbond)    S(metal)    S(lipo)     H(rot)  DE(clash)    DE(int)     intcor
     16.96     -17.22       0.80        0.00     112.76       1.61       0.04       0.22       ----

> <Gold.Chemscore.Fitness>
16.9603

> <Gold.Chemscore.DG>
-17.2210

> <Gold.Chemscore.ZeroCoef>
-5.4800

> <Gold.Chemscore.Hbond>
0.7954

> <Gold.Chemscore.Metal>
0.0000

> <Gold.Chemscore.Lipo>
112.7644

> <Gold.Chemscore.Internal_Hbond>
0.0000

> <Gold.Chemscore.DEClash>
0.0370

> <Gold.Chemscore.DEInternal>
0.2237

> <Gold.Chemscore.Rot>
1.6051

> <Gold.Chemscore.Internal.Correction>
   9.000000E+99

> <Gold.Chemscore.Hbonds>
donor molecule, donor type, donor heavy atom, donor atom, acceptor molecule, acceptor atom, score
      P1  H  6934  6946       L1    21  0.21

> <Gold.Chemscore.Hbond.Weighted>
-2.6565

> <Gold.Chemscore.Metal.Weighted>
-0.0000

> <Gold.Chemscore.Lipo.Weighted>
-13.1934

> <Gold.Chemscore.Internal_Hbond.Weighted>
0.0000

> <Gold.Chemscore.DEClash.Weighted>
0.0370

> <Gold.Chemscore.DEInternal.Weighted>
0.2237

> <Gold.Chemscore.Rot.Weighted>
4.1090

> <Gold.Chemscore.Internal.Correction.Weighted>
   9.000000E+99

> <Gold.Protein.RotatedTorsions>
[ 6907 6896 6895 6894 ] final -134.32 input  -60.11 | X-H torsion
[ 7974 7965 7964 7962 ] final   11.10 input  175.53 | X-H torsion
[ 8008 7997 7996 7995 ] final   16.35 input   59.86 | X-H torsion
[ 10167 10162 10161 10158 ] final -174.57 input  -65.29 | X-H torsion
[ 10718 10713 10712 10709 ] final  -13.56 input   66.30 | X-H torsion
[ 10763 10752 10751 10750 ] final  -50.87 input  -60.55 | X-H torsion
[ 11005 11000 10999 10996 ] final  -72.85 input  -57.11 | X-H torsion

> <Gold.Protein.ActiveResidues>
 VAL166  LYS551  ARG553  GLY616  TRP617  ASP618  TYR619  PRO620  LYS621  CYS622 
 ASP623  PHE694  ASN695  SER759  ASP760  ASP761  ALA762  ILE779  LEU786  VAL792 
 PHE793  MET794  SER795  GLU796  ALA797  LYS798  CYS799  TRP800  GLU811  SER814 

> <Gold.Protein.RotatedAtoms>
  150.9844  133.6212  159.2717 H   0  0  0  0  0  0  0  0  0  0  0  0  # atno 6907 bound_to 6896
  151.3455  135.0872  159.9395 H   0  0  0  0  0  0  0  0  0  0  0  0  # atno 6908 bound_to 6896
  152.5226  133.9447  159.7697 H   0  0  0  0  0  0  0  0  0  0  0  0  # atno 6909 bound_to 6896
  146.2377  139.9535  142.8467 H   0  0  0  0  0  0  0  0  0  0  0  0  # atno 7974 bound_to 7965
  154.8757  140.2965  155.5455 H   0  0  0  0  0  0  0  0  0  0  0  0  # atno 8008 bound_to 7997
  156.3022  140.2452  156.3685 H   0  0  0  0  0  0  0  0  0  0  0  0  # atno 8009 bound_to 7997
  154.8770  140.0399  157.1748 H   0  0  0  0  0  0  0  0  0  0  0  0  # atno 8010 bound_to 7997
  139.5626  144.1832  152.1263 H   0  0  0  0  0  0  0  0  0  0  0  0  # atno 10167 bound_to 10162
  156.6285  130.4895  149.6138 H   0  0  0  0  0  0  0  0  0  0  0  0  # atno 10718 bound_to 10713
  154.1173  135.6540  153.4896 H   0  0  0  0  0  0  0  0  0  0  0  0  # atno 10763 bound_to 10752
  153.0236  135.5262  154.7132 H   0  0  0  0  0  0  0  0  0  0  0  0  # atno 10764 bound_to 10752
  154.6329  135.2978  155.0165 H   0  0  0  0  0  0  0  0  0  0  0  0  # atno 10765 bound_to 10752
  141.1614  133.6859  156.7121 H   0  0  0  0  0  0  0  0  0  0  0  0  # atno 11005 bound_to 11000
  145.1838  140.9780  143.4250 LP  0  0  0  0  0  0  0  0  0  0  0  0  # atno 17320 bound_to 7965
  144.9918  139.3682  143.6211 LP  0  0  0  0  0  0  0  0  0  0  0  0  # atno 17321 bound_to 7965
  140.1348  144.5255  150.6780 LP  0  0  0  0  0  0  0  0  0  0  0  0  # atno 17342 bound_to 10162
  140.6908  143.2375  151.5137 LP  0  0  0  0  0  0  0  0  0  0  0  0  # atno 17343 bound_to 10162
  156.2254  130.6762  151.1410 LP  0  0  0  0  0  0  0  0  0  0  0  0  # atno 17370 bound_to 10713
  157.7207  131.0683  150.6147 LP  0  0  0  0  0  0  0  0  0  0  0  0  # atno 17371 bound_to 10713
  140.2879  134.8264  157.3991 LP  0  0  0  0  0  0  0  0  0  0  0  0  # atno 17394 bound_to 11000
  140.1373  134.5017  155.8058 LP  0  0  0  0  0  0  0  0  0  0  0  0  # atno 17395 bound_to 11000

$$$$
