AV-unprocessed.smi:2774|AV-procd|sdf|10682|dock1
  -GOLD-   2272015123D 1   1.00000     0.00000
 Structure written by MMmdl.
 35 36  0  0  0  0  0  0  0  0  2 V2000
  149.7307  140.2634  153.9800 O   0  0  0  0  0  0  0  0  0  0  0  0
  149.5176  141.4111  154.7786 C   0  0  2  0  0  0  0  0  0  0  0  0
  150.5165  141.3919  155.9489 C   0  0  0  0  0  0  0  0  0  0  0  0
  150.9928  142.7542  156.2741 N   0  3  0  0  0  0  0  0  0  0  0  0
  151.2379  143.0169  157.7096 C   0  0  1  0  0  0  0  0  0  0  0  0
  152.1638  141.9427  158.3232 C   0  0  0  0  0  0  0  0  0  0  0  0
  152.4037  142.1502  159.8280 C   0  0  0  0  0  0  0  0  0  0  0  0
  153.0728  143.4959  160.1392 C   0  0  0  0  0  0  0  0  0  0  0  0
  152.0267  144.8795  159.6147 S   0  0  0  0  0  0  0  0  0  0  0  0
  151.8387  144.4252  157.8694 C   0  0  0  0  0  0  0  0  0  0  0  0
  148.0843  141.4886  155.2802 C   0  0  0  0  0  0  0  0  0  0  0  0
  147.7956  141.5481  156.6611 C   0  0  0  0  0  0  0  0  0  0  0  0
  146.4478  141.6243  157.0653 C   0  0  0  0  0  0  0  0  0  0  0  0
  145.4141  141.6467  156.1970 N   0  0  0  0  0  0  0  0  0  0  0  0
  145.6954  141.5918  154.8777 C   0  0  0  0  0  0  0  0  0  0  0  0
  147.0075  141.5135  154.3690 C   0  0  0  0  0  0  0  0  0  0  0  0
  149.3184  140.4021  153.1403 H   0  0  0  0  0  0  0  0  0  0  0  0
  149.7120  142.2835  154.1531 H   0  0  0  0  0  0  0  0  0  0  0  0
  150.0329  140.9738  156.8328 H   0  0  0  0  0  0  0  0  0  0  0  0
  151.3588  140.7427  155.7093 H   0  0  0  0  0  0  0  0  0  0  0  0
  151.8407  142.9388  155.7566 H   0  0  0  0  0  0  0  0  0  0  0  0
  150.2758  143.0011  158.2244 H   0  0  0  0  0  0  0  0  0  0  0  0
  151.7361  140.9502  158.1834 H   0  0  0  0  0  0  0  0  0  0  0  0
  153.1208  141.9366  157.7994 H   0  0  0  0  0  0  0  0  0  0  0  0
  151.4579  142.0758  160.3661 H   0  0  0  0  0  0  0  0  0  0  0  0
  153.0320  141.3428  160.2054 H   0  0  0  0  0  0  0  0  0  0  0  0
  153.2612  143.5862  161.2092 H   0  0  0  0  0  0  0  0  0  0  0  0
  154.0381  143.5679  159.6370 H   0  0  0  0  0  0  0  0  0  0  0  0
  152.8127  144.4861  157.3820 H   0  0  0  0  0  0  0  0  0  0  0  0
  151.1977  145.1687  157.3943 H   0  0  0  0  0  0  0  0  0  0  0  0
  148.5853  141.5366  157.3982 H   0  0  0  0  0  0  0  0  0  0  0  0
  146.1934  141.6699  158.1139 H   0  0  0  0  0  0  0  0  0  0  0  0
  144.8498  141.6121  154.2064 H   0  0  0  0  0  0  0  0  0  0  0  0
  147.1763  141.4734  153.3029 H   0  0  0  0  0  0  0  0  0  0  0  0
  150.2824  143.4003  155.9612 H   0  0  0  0  0  0  0  0  0  0  0  0
  1  2  1  0  0  0  0
  1 17  1  0  0  0  0
  2  3  1  0  0  0  0
  2 11  1  0  0  0  0
  2 18  1  0  0  0  0
  3  4  1  0  0  0  0
  3 19  1  0  0  0  0
  3 20  1  0  0  0  0
  4  5  1  0  0  0  0
  4 21  1  0  0  0  0
  4 35  1  0  0  0  0
  5 10  1  0  0  0  0
  5  6  1  0  0  0  0
  5 22  1  0  0  0  0
  6  7  1  0  0  0  0
  6 23  1  0  0  0  0
  6 24  1  0  0  0  0
  7  8  1  0  0  0  0
  7 25  1  0  0  0  0
  7 26  1  0  0  0  0
  8  9  1  0  0  0  0
  8 27  1  0  0  0  0
  8 28  1  0  0  0  0
  9 10  1  0  0  0  0
 10 29  1  0  0  0  0
 10 30  1  0  0  0  0
 11 16  1  0  0  0  0
 11 12  2  0  0  0  0
 12 13  1  0  0  0  0
 12 31  1  0  0  0  0
 13 14  2  0  0  0  0
 13 32  1  0  0  0  0
 14 15  1  0  0  0  0
 15 16  2  0  0  0  0
 15 33  1  0  0  0  0
 16 34  1  0  0  0  0
M  CHG  1   4   1
M  END
> <s_m_source_file>
AV-unprocessed.smi

> <i_m_source_file_index>
2774

> <i_lp_mmshare_version>
43012

> <i_f3d_flags>
0

> <s_epik_input>
W2NIXTFbY0hdbltjSF1bY0hdYzFbQ0BIXShbT0hdKVtDSDJdW05IXVtDQEBIXTJbQ0gyXVtDSDJdW0NIMl1TW0NIMl0y

> <s_epik_cmdline>
J2VwaWtfcHl0aG9uJywgJy1waCcsICc3LjAnLCAnLXRuJywgJzgnLCAnLW1hJywgJzIwMCcsICctbWV0YWxfYmluZGluZycsICctaW1hZScsICc8aW5maWxlLm1hZT4nLCAnLW9tYWUnLCAnPG91dGZpbGUubWFlPic=

> <r_epik_Ionization_Penalty>
0.0205977

> <r_epik_Ionization_Penalty_Charging>
0.0185619

> <r_epik_Ionization_Penalty_Neutral>
0.00203589

> <r_epik_State_Penalty>
0.0147768

> <r_epik_Charging_Adjusted_Penalty>
0.0333386

> <i_epik_Tot_Q>
1

> <i_epik_Tot_abs_Q>
1

> <r_epik_Metal_State_Penalty>
0.0152254

> <b_epik_Metal_Only>
0

> <s_lp_Force_Field>
OPLS_2005

> <r_lp_Energy>
10.4363

> <b_lp_Chiralities_Consistent>
1

> <s_lp_Variant>
AV-unprocessed.smi:2774-3

> <Gold.Version>
5.8.1

> <Gold.Id.Protein>
6NUR|6NUR_protein|mol2

> <Gold.PLP.Fitness>
48.0170

> <Gold.PLP.PLP>
-36.7388

> <Gold.PLP.part.hbond>
-3.0000

> <Gold.PLP.part.metal>
0.0000

> <Gold.PLP.part.buried>
-3.1520

> <Gold.PLP.part.nonpolar>
-30.1152

> <Gold.PLP.part.repulsive>
0.1613

> <Gold.PLP.ligand.clash>
0.0000

> <Gold.PLP.ligand.torsion>
0.7391

> <Gold.PLP.Chemscore.Hbond>
3.2286

> <Gold.PLP.Chemscore.CHOScore>
1.0000

> <Gold.PLP.Chemscore.Metal>
0.0000

> <Gold.Chemscore.Hbonds>
donor molecule, donor type, donor heavy atom, donor atom, acceptor molecule, acceptor atom, score
      L1  H     1    17       P1  7957  0.81
      L1  H     4    35       P1  8028  2.00
      P1  H  7989  7998       L1     1  0.40
      L1  C    15    33       P1 10175  1.00

> <Gold.PLP.Chemscore.Internal.Correction>
0.0706

> <Gold.Rescore>
     Score         DG    S(hbond)    S(metal)    S(lipo)     H(rot)  DE(clash)    DE(int)     intcor
     18.43     -19.56       1.98        0.00     106.86       1.97       0.50       0.63       ----

> <Gold.Chemscore.Fitness>
18.4267

> <Gold.Chemscore.DG>
-19.5575

> <Gold.Chemscore.ZeroCoef>
-5.4800

> <Gold.Chemscore.Hbond>
1.9804

> <Gold.Chemscore.Metal>
0.0000

> <Gold.Chemscore.Lipo>
106.8599

> <Gold.Chemscore.Internal_Hbond>
0.0000

> <Gold.Chemscore.DEClash>
0.5014

> <Gold.Chemscore.DEInternal>
0.6295

> <Gold.Chemscore.Rot>
1.9686

> <Gold.Chemscore.Internal.Correction>
   9.000000E+99

> <Gold.Chemscore.Hbonds>
donor molecule, donor type, donor heavy atom, donor atom, acceptor molecule, acceptor atom, score
      L1  H     1    17       P1  7957  0.75
      L1  H     4    35       P1  8028  0.99
      P1  H  7989  7998       L1     1  0.01

> <Gold.Chemscore.Hbond.Weighted>
-6.6146

> <Gold.Chemscore.Metal.Weighted>
-0.0000

> <Gold.Chemscore.Lipo.Weighted>
-12.5026

> <Gold.Chemscore.Internal_Hbond.Weighted>
0.0000

> <Gold.Chemscore.DEClash.Weighted>
0.5014

> <Gold.Chemscore.DEInternal.Weighted>
0.6295

> <Gold.Chemscore.Rot.Weighted>
5.0396

> <Gold.Chemscore.Internal.Correction.Weighted>
   9.000000E+99

> <Gold.Protein.RotatedTorsions>
[ 6907 6896 6895 6894 ] final  -54.13 input  -60.11 | X-H torsion
[ 7974 7965 7964 7962 ] final  118.64 input  175.53 | X-H torsion
[ 8008 7997 7996 7995 ] final  -98.82 input   59.86 | X-H torsion
[ 10167 10162 10161 10158 ] final  -29.15 input  -65.29 | X-H torsion
[ 10718 10713 10712 10709 ] final -114.77 input   66.30 | X-H torsion
[ 10763 10752 10751 10750 ] final  124.07 input  -60.55 | X-H torsion
[ 11005 11000 10999 10996 ] final  110.83 input  -57.11 | X-H torsion

> <Gold.Protein.ActiveResidues>
 VAL166  LYS551  ARG553  GLY616  TRP617  ASP618  TYR619  PRO620  LYS621  CYS622 
 ASP623  PHE694  ASN695  SER759  ASP760  ASP761  ALA762  ILE779  LEU786  VAL792 
 PHE793  MET794  SER795  GLU796  ALA797  LYS798  CYS799  TRP800  GLU811  SER814 

> <Gold.Protein.RotatedAtoms>
  150.8365  134.7640  159.6896 H   0  0  0  0  0  0  0  0  0  0  0  0  # atno 6907 bound_to 6896
  152.4460  134.5489  159.9871 H   0  0  0  0  0  0  0  0  0  0  0  0  # atno 6908 bound_to 6896
  151.5639  133.3361  159.3012 H   0  0  0  0  0  0  0  0  0  0  0  0  # atno 6909 bound_to 6896
  145.1527  139.3201  143.4558 H   0  0  0  0  0  0  0  0  0  0  0  0  # atno 7974 bound_to 7965
  154.8064  140.0452  157.1311 H   0  0  0  0  0  0  0  0  0  0  0  0  # atno 8008 bound_to 7997
  154.9419  140.3053  155.5097 H   0  0  0  0  0  0  0  0  0  0  0  0  # atno 8009 bound_to 7997
  156.2967  140.2304  156.4488 H   0  0  0  0  0  0  0  0  0  0  0  0  # atno 8010 bound_to 7997
  140.7263  143.3952  151.1360 H   0  0  0  0  0  0  0  0  0  0  0  0  # atno 10167 bound_to 10162
  156.0852  130.6045  150.8818 H   0  0  0  0  0  0  0  0  0  0  0  0  # atno 10718 bound_to 10713
  153.6555  135.3355  155.3112 H   0  0  0  0  0  0  0  0  0  0  0  0  # atno 10763 bound_to 10752
  154.8527  135.4351  154.1859 H   0  0  0  0  0  0  0  0  0  0  0  0  # atno 10764 bound_to 10752
  153.2813  135.7009  153.7458 H   0  0  0  0  0  0  0  0  0  0  0  0  # atno 10765 bound_to 10752
  139.8890  134.9493  156.6339 H   0  0  0  0  0  0  0  0  0  0  0  0  # atno 11005 bound_to 11000
  146.3492  140.1608  142.8591 LP  0  0  0  0  0  0  0  0  0  0  0  0  # atno 17320 bound_to 7965
  145.0413  140.8948  143.5050 LP  0  0  0  0  0  0  0  0  0  0  0  0  # atno 17321 bound_to 7965
  139.7563  143.8702  152.3089 LP  0  0  0  0  0  0  0  0  0  0  0  0  # atno 17342 bound_to 10162
  139.8573  144.7135  150.9142 LP  0  0  0  0  0  0  0  0  0  0  0  0  # atno 17343 bound_to 10162
  157.5983  131.0942  150.9003 LP  0  0  0  0  0  0  0  0  0  0  0  0  # atno 17370 bound_to 10713
  156.9166  130.5300  149.5279 LP  0  0  0  0  0  0  0  0  0  0  0  0  # atno 17371 bound_to 10713
  140.7646  133.8789  155.8444 LP  0  0  0  0  0  0  0  0  0  0  0  0  # atno 17394 bound_to 11000
  140.9893  134.1299  157.4422 LP  0  0  0  0  0  0  0  0  0  0  0  0  # atno 17395 bound_to 11000

$$$$
