AV-unprocessed.smi:2344|AV-procd|sdf|9357|dock9
  -GOLD-   2272012583D 1   1.00000     0.00000
 Structure written by MMmdl.
 35 36  0  0  0  0  0  0  0  0  1 V2000
  143.8905  131.4667  150.2132 C   0  0  0  0  0  0  0  0  0  0  0  0
  144.5579  132.7230  150.7323 C   0  0  0  0  0  0  0  0  0  0  0  0
  145.9602  132.8414  150.7459 C   0  0  0  0  0  0  0  0  0  0  0  0
  146.5365  134.0295  151.2348 C   0  0  0  0  0  0  0  0  0  0  0  0
  145.6993  135.0697  151.6976 C   0  0  0  0  0  0  0  0  0  0  0  0
  146.3794  136.2233  152.1707 N   0  0  0  0  0  0  0  0  0  0  0  0
  145.8626  137.2931  152.8003 C   0  0  0  0  0  0  0  0  0  0  0  0
  144.6720  137.4576  153.0681 O   0  0  0  0  0  0  0  0  0  0  0  0
  146.8179  138.1802  153.1134 N   0  0  0  0  0  0  0  0  0  0  0  0
  146.5877  139.4399  153.8114 C   0  0  2  0  0  0  0  0  0  0  0  0
  146.9574  140.6035  152.9329 C   0  0  0  0  0  0  0  0  0  0  0  0
  147.8557  141.4079  153.4962 C   0  0  0  0  0  0  0  0  0  0  0  0
  148.2796  140.9440  154.8665 C   0  0  2  0  0  0  0  0  0  0  0  0
  149.8033  140.7759  154.9961 C   0  0  0  0  0  0  0  0  0  0  0  0
  150.3016  139.9482  153.9661 O   0  0  0  0  0  0  0  0  0  0  0  0
  147.5029  139.6157  155.0522 C   0  0  0  0  0  0  0  0  0  0  0  0
  144.3487  134.9465  151.6794 N   0  0  0  0  0  0  0  0  0  0  0  0
  143.7969  133.8078  151.2102 C   0  0  0  0  0  0  0  0  0  0  0  0
  145.5356  139.5351  154.0850 H   0  0  0  0  0  0  0  0  0  0  0  0
  147.9266  141.6767  155.5937 H   0  0  0  0  0  0  0  0  0  0  0  0
  144.4035  130.5793  150.5850 H   0  0  0  0  0  0  0  0  0  0  0  0
  143.9176  131.4493  149.1236 H   0  0  0  0  0  0  0  0  0  0  0  0
  142.8489  131.4148  150.5319 H   0  0  0  0  0  0  0  0  0  0  0  0
  146.5860  132.0370  150.3883 H   0  0  0  0  0  0  0  0  0  0  0  0
  147.6114  134.1366  151.2526 H   0  0  0  0  0  0  0  0  0  0  0  0
  147.3771  136.2309  152.0190 H   0  0  0  0  0  0  0  0  0  0  0  0
  147.7712  137.9685  152.8577 H   0  0  0  0  0  0  0  0  0  0  0  0
  146.5135  140.7541  151.9598 H   0  0  0  0  0  0  0  0  0  0  0  0
  148.2493  142.3078  153.0471 H   0  0  0  0  0  0  0  0  0  0  0  0
  150.2976  141.7454  154.9288 H   0  0  0  0  0  0  0  0  0  0  0  0
  150.0670  140.3446  155.9625 H   0  0  0  0  0  0  0  0  0  0  0  0
  149.7485  140.0469  153.2061 H   0  0  0  0  0  0  0  0  0  0  0  0
  146.9104  139.6378  155.9678 H   0  0  0  0  0  0  0  0  0  0  0  0
  148.1946  138.7774  155.1516 H   0  0  0  0  0  0  0  0  0  0  0  0
  142.7178  133.7647  151.2176 H   0  0  0  0  0  0  0  0  0  0  0  0
  1  2  1  0  0  0  0
  1 21  1  0  0  0  0
  1 22  1  0  0  0  0
  1 23  1  0  0  0  0
  2 18  1  0  0  0  0
  2  3  2  0  0  0  0
  3  4  1  0  0  0  0
  3 24  1  0  0  0  0
  4  5  2  0  0  0  0
  4 25  1  0  0  0  0
  5  6  1  0  0  0  0
  5 17  1  0  0  0  0
  6  7  1  0  0  0  0
  6 26  1  0  0  0  0
  7  8  2  0  0  0  0
  7  9  1  0  0  0  0
  9 10  1  0  0  0  0
  9 27  1  0  0  0  0
 10 19  1  0  0  0  0
 10 16  1  0  0  0  0
 10 11  1  0  0  0  0
 11 12  2  0  0  0  0
 11 28  1  0  0  0  0
 12 13  1  0  0  0  0
 12 29  1  0  0  0  0
 13 20  1  0  0  0  0
 13 14  1  0  0  0  0
 13 16  1  0  0  0  0
 14 15  1  0  0  0  0
 14 30  1  0  0  0  0
 14 31  1  0  0  0  0
 15 32  1  0  0  0  0
 16 33  1  0  0  0  0
 16 34  1  0  0  0  0
 17 18  2  0  0  0  0
 18 35  1  0  0  0  0
M  END
> <s_m_source_file>
AV-unprocessed.smi

> <i_m_source_file_index>
2344

> <i_lp_mmshare_version>
43012

> <i_f3d_flags>
0

> <s_epik_input>
W0NIM11jMVtjSF1bY0hdYyhuW2NIXTEpW05IXUMoPU8pW05IXVtDQEBIXTJbQ0hdPVtDSF1bQ0BASF0oW0NIMl0yKVtDSDJdW09IXQ==

> <s_epik_cmdline>
J2VwaWtfcHl0aG9uJywgJy1waCcsICc3LjAnLCAnLXRuJywgJzgnLCAnLW1hJywgJzIwMCcsICctbWV0YWxfYmluZGluZycsICctaW1hZScsICc8aW5maWxlLm1hZT4nLCAnLW9tYWUnLCAnPG91dGZpbGUubWFlPic=

> <r_lp_tautomer_probability>
1

> <r_epik_Ionization_Penalty>
5.7643e-05

> <r_epik_Ionization_Penalty_Charging>
0

> <r_epik_Ionization_Penalty_Neutral>
5.7643e-05

> <r_epik_State_Penalty>
-0

> <r_epik_Charging_Adjusted_Penalty>
0

> <i_epik_Tot_Q>
0

> <i_epik_Tot_abs_Q>
0

> <r_epik_Metal_State_Penalty>
-0

> <b_epik_Metal_Only>
0

> <s_lp_Force_Field>
OPLS_2005

> <r_lp_Energy>
16.9507

> <b_lp_Chiralities_Consistent>
1

> <s_lp_Variant>
AV-unprocessed.smi:2344-1

> <Gold.Version>
5.8.1

> <Gold.Id.Protein>
6NUR|6NUR_protein|mol2

> <Gold.PLP.Fitness>
39.7241

> <Gold.PLP.PLP>
-27.3398

> <Gold.PLP.part.hbond>
-3.6403

> <Gold.PLP.part.metal>
0.0000

> <Gold.PLP.part.buried>
-0.6746

> <Gold.PLP.part.nonpolar>
-23.4921

> <Gold.PLP.part.repulsive>
0.4033

> <Gold.PLP.ligand.clash>
0.0000

> <Gold.PLP.ligand.torsion>
0.0622

> <Gold.PLP.Chemscore.Hbond>
3.1649

> <Gold.PLP.Chemscore.CHOScore>
1.0000

> <Gold.PLP.Chemscore.Metal>
0.0000

> <Gold.Chemscore.Hbonds>
donor molecule, donor type, donor heavy atom, donor atom, acceptor molecule, acceptor atom, score
      L1  H     6    26       P1  7948  1.00
      L1  H     9    27       P1  7948  0.22
      L1  H    15    32       P1  7957  0.91
      P1  H  7989  7998       L1    15  0.95
      L1  C    18    35       P1 10186  1.00

> <Gold.PLP.Chemscore.Internal.Correction>
0.0142

> <Gold.Rescore>
     Score         DG    S(hbond)    S(metal)    S(lipo)     H(rot)  DE(clash)    DE(int)     intcor
     15.12     -17.07       2.23        0.00      75.32       1.82       0.59       1.36       ----

> <Gold.Chemscore.Fitness>
15.1213

> <Gold.Chemscore.DG>
-17.0727

> <Gold.Chemscore.ZeroCoef>
-5.4800

> <Gold.Chemscore.Hbond>
2.2260

> <Gold.Chemscore.Metal>
0.0000

> <Gold.Chemscore.Lipo>
75.3233

> <Gold.Chemscore.Internal_Hbond>
0.0000

> <Gold.Chemscore.DEClash>
0.5945

> <Gold.Chemscore.DEInternal>
1.3569

> <Gold.Chemscore.Rot>
1.8184

> <Gold.Chemscore.Internal.Correction>
   9.000000E+99

> <Gold.Chemscore.Hbonds>
donor molecule, donor type, donor heavy atom, donor atom, acceptor molecule, acceptor atom, score
      L1  H     6    26       P1  7948  0.96
      L1  H     9    27       P1  7948  0.22
      L1  H    15    32       P1  7957  0.82
      P1  H  7989  7998       L1    15  0.05

> <Gold.Chemscore.Hbond.Weighted>
-7.4349

> <Gold.Chemscore.Metal.Weighted>
-0.0000

> <Gold.Chemscore.Lipo.Weighted>
-8.8128

> <Gold.Chemscore.Internal_Hbond.Weighted>
0.0000

> <Gold.Chemscore.DEClash.Weighted>
0.5945

> <Gold.Chemscore.DEInternal.Weighted>
1.3569

> <Gold.Chemscore.Rot.Weighted>
4.6551

> <Gold.Chemscore.Internal.Correction.Weighted>
   9.000000E+99

> <Gold.Protein.RotatedTorsions>
[ 6907 6896 6895 6894 ] final  -79.57 input  -60.11 | X-H torsion
[ 7974 7965 7964 7962 ] final  142.76 input  175.53 | X-H torsion
[ 8008 7997 7996 7995 ] final  -39.42 input   59.86 | X-H torsion
[ 10167 10162 10161 10158 ] final  122.38 input  -65.29 | X-H torsion
[ 10718 10713 10712 10709 ] final  -21.25 input   66.30 | X-H torsion
[ 10763 10752 10751 10750 ] final  -15.06 input  -60.55 | X-H torsion
[ 11005 11000 10999 10996 ] final  106.54 input  -57.11 | X-H torsion

> <Gold.Protein.ActiveResidues>
 VAL166  LYS551  ARG553  GLY616  TRP617  ASP618  TYR619  PRO620  LYS621  CYS622 
 ASP623  PHE694  ASN695  SER759  ASP760  ASP761  ALA762  ILE779  LEU786  VAL792 
 PHE793  MET794  SER795  GLU796  ALA797  LYS798  CYS799  TRP800  GLU811  SER814 

> <Gold.Protein.RotatedAtoms>
  150.6947  134.4100  159.5157 H   0  0  0  0  0  0  0  0  0  0  0  0  # atno 6907 bound_to 6896
  152.1860  134.8710  160.0531 H   0  0  0  0  0  0  0  0  0  0  0  0  # atno 6908 bound_to 6896
  151.9683  133.3682  159.4098 H   0  0  0  0  0  0  0  0  0  0  0  0  # atno 6909 bound_to 6896
  144.8979  139.5464  143.5767 H   0  0  0  0  0  0  0  0  0  0  0  0  # atno 7974 bound_to 7965
  154.4023  140.1552  156.2860 H   0  0  0  0  0  0  0  0  0  0  0  0  # atno 8008 bound_to 7997
  155.8828  140.3443  155.5878 H   0  0  0  0  0  0  0  0  0  0  0  0  # atno 8009 bound_to 7997
  155.7648  140.0822  157.2128 H   0  0  0  0  0  0  0  0  0  0  0  0  # atno 8010 bound_to 7997
  139.5862  144.7007  151.3404 H   0  0  0  0  0  0  0  0  0  0  0  0  # atno 10167 bound_to 10162
  156.5207  130.4632  149.6598 H   0  0  0  0  0  0  0  0  0  0  0  0  # atno 10718 bound_to 10713
  153.5376  135.7014  153.5652 H   0  0  0  0  0  0  0  0  0  0  0  0  # atno 10763 bound_to 10752
  153.3632  135.3964  155.1734 H   0  0  0  0  0  0  0  0  0  0  0  0  # atno 10764 bound_to 10752
  154.8677  135.3794  154.4878 H   0  0  0  0  0  0  0  0  0  0  0  0  # atno 10765 bound_to 10752
  139.8815  134.9372  156.5683 H   0  0  0  0  0  0  0  0  0  0  0  0  # atno 11005 bound_to 11000
  146.3092  139.7686  142.9033 LP  0  0  0  0  0  0  0  0  0  0  0  0  # atno 17320 bound_to 7965
  145.3667  141.0335  143.3254 LP  0  0  0  0  0  0  0  0  0  0  0  0  # atno 17321 bound_to 7965
  140.7133  143.7333  150.7607 LP  0  0  0  0  0  0  0  0  0  0  0  0  # atno 17342 bound_to 10162
  140.0878  143.4907  152.2495 LP  0  0  0  0  0  0  0  0  0  0  0  0  # atno 17343 bound_to 10162
  156.3152  130.7250  151.2151 LP  0  0  0  0  0  0  0  0  0  0  0  0  # atno 17370 bound_to 10713
  157.7437  131.0470  150.4924 LP  0  0  0  0  0  0  0  0  0  0  0  0  # atno 17371 bound_to 10713
  140.8117  133.8423  155.8816 LP  0  0  0  0  0  0  0  0  0  0  0  0  # atno 17394 bound_to 11000
  140.9500  134.1791  157.4735 LP  0  0  0  0  0  0  0  0  0  0  0  0  # atno 17395 bound_to 11000

$$$$
