AV-unprocessed.smi:877|AV-procd|sdf|4028|dock3
  -GOLD-   22720 1523D 1   1.00000     0.00000
 Structure written by MMmdl.
 43 45  0  0  0  0  0  0  0  0  1 V2000
  143.5860  144.8958  154.1674 C   0  0  0  0  0  0  0  0  0  0  0  0
  143.9970  144.3414  155.4085 O   0  0  0  0  0  0  0  0  0  0  0  0
  145.0649  143.4698  155.4070 C   0  0  0  0  0  0  0  0  0  0  0  0
  145.7635  143.0678  154.2405 C   0  0  0  0  0  0  0  0  0  0  0  0
  146.8450  142.1702  154.3306 C   0  0  0  0  0  0  0  0  0  0  0  0
  147.2447  141.6612  155.5823 C   0  0  0  0  0  0  0  0  0  0  0  0
  148.4087  140.6887  155.6704 C   0  0  0  0  0  0  0  0  0  0  0  0
  149.4795  141.1147  156.6384 C   0  0  0  0  0  0  0  0  0  0  0  0
  149.4398  142.2886  157.2742 N   0  0  0  0  0  0  0  0  0  0  0  0
  150.5895  142.2663  158.0372 C   0  0  0  0  0  0  0  0  0  0  0  0
  151.1132  143.2208  158.9381 C   0  0  0  0  0  0  0  0  0  0  0  0
  152.3267  142.9746  159.6132 C   0  0  0  0  0  0  0  0  0  0  0  0
  153.0330  141.7738  159.3962 C   0  0  0  0  0  0  0  0  0  0  0  0
  152.5285  140.8100  158.5020 C   0  0  0  0  0  0  0  0  0  0  0  0
  151.3158  141.0604  157.8321 C   0  0  0  0  0  0  0  0  0  0  0  0
  150.5619  140.3400  156.9110 N   0  0  0  0  0  0  0  0  0  0  0  0
  150.9063  139.0281  156.3777 C   0  0  0  0  0  0  0  0  0  0  0  0
  152.0568  139.0903  155.3527 C   0  0  1  0  0  0  0  0  0  0  0  0
  153.2962  139.1106  156.0338 O   0  0  0  0  0  0  0  0  0  0  0  0
  152.0402  137.8825  154.4009 C   0  0  0  0  0  0  0  0  0  0  0  0
  150.7733  137.7614  153.7879 O   0  0  0  0  0  0  0  0  0  0  0  0
  146.5550  142.0572  156.7458 C   0  0  0  0  0  0  0  0  0  0  0  0
  145.4738  142.9544  156.6544 C   0  0  0  0  0  0  0  0  0  0  0  0
  142.7381  145.5604  154.3333 H   0  0  0  0  0  0  0  0  0  0  0  0
  143.2649  144.1207  153.4702 H   0  0  0  0  0  0  0  0  0  0  0  0
  144.3829  145.4852  153.7117 H   0  0  0  0  0  0  0  0  0  0  0  0
  145.4886  143.4325  153.2627 H   0  0  0  0  0  0  0  0  0  0  0  0
  147.3664  141.8695  153.4334 H   0  0  0  0  0  0  0  0  0  0  0  0
  148.0017  139.7196  155.9555 H   0  0  0  0  0  0  0  0  0  0  0  0
  148.8604  140.5601  154.6863 H   0  0  0  0  0  0  0  0  0  0  0  0
  150.5798  144.1439  159.1100 H   0  0  0  0  0  0  0  0  0  0  0  0
  152.7173  143.7111  160.3000 H   0  0  0  0  0  0  0  0  0  0  0  0
  153.9621  141.5931  159.9166 H   0  0  0  0  0  0  0  0  0  0  0  0
  153.0661  139.8886  158.3340 H   0  0  0  0  0  0  0  0  0  0  0  0
  151.1429  138.3455  157.1937 H   0  0  0  0  0  0  0  0  0  0  0  0
  150.0144  138.6183  155.9021 H   0  0  0  0  0  0  0  0  0  0  0  0
  151.9639  140.0119  154.7758 H   0  0  0  0  0  0  0  0  0  0  0  0
  153.2220  138.5603  156.7988 H   0  0  0  0  0  0  0  0  0  0  0  0
  152.8198  137.9610  153.6418 H   0  0  0  0  0  0  0  0  0  0  0  0
  152.2244  136.9628  154.9570 H   0  0  0  0  0  0  0  0  0  0  0  0
  150.8826  137.3285  152.9549 H   0  0  0  0  0  0  0  0  0  0  0  0
  146.8491  141.6703  157.7106 H   0  0  0  0  0  0  0  0  0  0  0  0
  144.9513  143.2496  157.5527 H   0  0  0  0  0  0  0  0  0  0  0  0
  1  2  1  0  0  0  0
  1 24  1  0  0  0  0
  1 25  1  0  0  0  0
  1 26  1  0  0  0  0
  2  3  1  0  0  0  0
  3 23  1  0  0  0  0
  3  4  2  0  0  0  0
  4  5  1  0  0  0  0
  4 27  1  0  0  0  0
  5  6  2  0  0  0  0
  5 28  1  0  0  0  0
  6  7  1  0  0  0  0
  6 22  1  0  0  0  0
  7  8  1  0  0  0  0
  7 29  1  0  0  0  0
  7 30  1  0  0  0  0
  8 16  1  0  0  0  0
  8  9  2  0  0  0  0
  9 10  1  0  0  0  0
 10 15  2  0  0  0  0
 10 11  1  0  0  0  0
 11 12  2  0  0  0  0
 11 31  1  0  0  0  0
 12 13  1  0  0  0  0
 12 32  1  0  0  0  0
 13 14  2  0  0  0  0
 13 33  1  0  0  0  0
 14 15  1  0  0  0  0
 14 34  1  0  0  0  0
 15 16  1  0  0  0  0
 16 17  1  0  0  0  0
 17 18  1  0  0  0  0
 17 35  1  0  0  0  0
 17 36  1  0  0  0  0
 18 19  1  0  0  0  0
 18 20  1  0  0  0  0
 18 37  1  0  0  0  0
 19 38  1  0  0  0  0
 20 21  1  0  0  0  0
 20 39  1  0  0  0  0
 20 40  1  0  0  0  0
 21 41  1  0  0  0  0
 22 23  2  0  0  0  0
 22 42  1  0  0  0  0
 23 43  1  0  0  0  0
M  END
> <s_m_source_file>
AV-unprocessed.smi

> <i_m_source_file_index>
877

> <i_lp_mmshare_version>
43012

> <i_f3d_flags>
0

> <s_epik_input>
W0NIM11PYzFbY0hdW2NIXWMoW2NIXVtjSF0xKVtDSDJdYyhuMiluKFtDSDJdW0NASF0oW09IXSlbQ0gyXVtPSF0pYyhjMjMpW2NIXVtjSF1bY0hdW2NIXTM=

> <s_epik_cmdline>
J2VwaWtfcHl0aG9uJywgJy1waCcsICc3LjAnLCAnLXRuJywgJzgnLCAnLW1hJywgJzIwMCcsICctbWV0YWxfYmluZGluZycsICctaW1hZScsICc8aW5maWxlLm1hZT4nLCAnLW9tYWUnLCAnPG91dGZpbGUubWFlPic=

> <r_lp_tautomer_probability>
1

> <r_epik_Ionization_Penalty>
0.0616669

> <r_epik_Ionization_Penalty_Charging>
0

> <r_epik_Ionization_Penalty_Neutral>
0.0616669

> <r_epik_State_Penalty>
0.0535415

> <r_epik_Charging_Adjusted_Penalty>
0.0535415

> <i_epik_Tot_Q>
0

> <i_epik_Tot_abs_Q>
0

> <r_epik_Metal_State_Penalty>
5.60326e-05

> <b_epik_Metal_Only>
0

> <s_lp_Force_Field>
OPLS_2005

> <r_lp_Energy>
19.9882

> <b_lp_Chiralities_Consistent>
1

> <s_lp_Variant>
AV-unprocessed.smi:877-2

> <Gold.Version>
5.8.1

> <Gold.Id.Protein>
6NUR|6NUR_protein|mol2

> <Gold.PLP.Fitness>
48.4536

> <Gold.PLP.PLP>
-43.3134

> <Gold.PLP.part.hbond>
-2.7439

> <Gold.PLP.part.metal>
0.0000

> <Gold.PLP.part.buried>
-7.0143

> <Gold.PLP.part.nonpolar>
-36.5712

> <Gold.PLP.part.repulsive>
1.9677

> <Gold.PLP.ligand.clash>
0.0000

> <Gold.PLP.ligand.torsion>
0.4844

> <Gold.PLP.Chemscore.Hbond>
2.0000

> <Gold.PLP.Chemscore.CHOScore>
0.0000

> <Gold.PLP.Chemscore.Metal>
0.0000

> <Gold.Chemscore.Hbonds>
donor molecule, donor type, donor heavy atom, donor atom, acceptor molecule, acceptor atom, score
      L1  H    21    41       P1  7949  0.85
      P1  H  7997  8008       L1    19  0.91

> <Gold.PLP.Chemscore.Internal.Correction>
0.1091

> <Gold.Rescore>
     Score         DG    S(hbond)    S(metal)    S(lipo)     H(rot)  DE(clash)    DE(int)     intcor
     13.62     -15.88       1.66        0.00     110.44       3.15       0.74       1.52       ----

> <Gold.Chemscore.Fitness>
13.6181

> <Gold.Chemscore.DG>
-15.8812

> <Gold.Chemscore.ZeroCoef>
-5.4800

> <Gold.Chemscore.Hbond>
1.6590

> <Gold.Chemscore.Metal>
0.0000

> <Gold.Chemscore.Lipo>
110.4360

> <Gold.Chemscore.Internal_Hbond>
0.0000

> <Gold.Chemscore.DEClash>
0.7415

> <Gold.Chemscore.DEInternal>
1.5216

> <Gold.Chemscore.Rot>
3.1488

> <Gold.Chemscore.Internal.Correction>
   9.000000E+99

> <Gold.Chemscore.Hbonds>
donor molecule, donor type, donor heavy atom, donor atom, acceptor molecule, acceptor atom, score
      L1  H    21    41       P1  7949  0.14
      P1  H  7997  8008       L1    19  0.78

> <Gold.Chemscore.Hbond.Weighted>
-5.5411

> <Gold.Chemscore.Metal.Weighted>
-0.0000

> <Gold.Chemscore.Lipo.Weighted>
-12.9210

> <Gold.Chemscore.Internal_Hbond.Weighted>
0.0000

> <Gold.Chemscore.DEClash.Weighted>
0.7415

> <Gold.Chemscore.DEInternal.Weighted>
1.5216

> <Gold.Chemscore.Rot.Weighted>
8.0608

> <Gold.Chemscore.Internal.Correction.Weighted>
   9.000000E+99

> <Gold.Protein.RotatedTorsions>
[ 6907 6896 6895 6894 ] final   39.54 input  -60.11 | X-H torsion
[ 7974 7965 7964 7962 ] final   94.93 input  175.53 | X-H torsion
[ 8008 7997 7996 7995 ] final  -28.51 input   59.86 | X-H torsion
[ 10167 10162 10161 10158 ] final   66.20 input  -65.29 | X-H torsion
[ 10718 10713 10712 10709 ] final  -73.88 input   66.30 | X-H torsion
[ 10763 10752 10751 10750 ] final   73.44 input  -60.55 | X-H torsion
[ 11005 11000 10999 10996 ] final  174.63 input  -57.11 | X-H torsion

> <Gold.Protein.ActiveResidues>
 VAL166  LYS551  ARG553  GLY616  TRP617  ASP618  TYR619  PRO620  LYS621  CYS622 
 ASP623  PHE694  ASN695  SER759  ASP760  ASP761  ALA762  ILE779  LEU786  VAL792 
 PHE793  MET794  SER795  GLU796  ALA797  LYS798  CYS799  TRP800  GLU811  SER814 

> <Gold.Protein.RotatedAtoms>
  152.1708  134.8835  160.0534 H   0  0  0  0  0  0  0  0  0  0  0  0  # atno 6907 bound_to 6896
  151.9796  133.3748  159.4110 H   0  0  0  0  0  0  0  0  0  0  0  0  # atno 6908 bound_to 6896
  150.6901  134.3976  159.5148 H   0  0  0  0  0  0  0  0  0  0  0  0  # atno 6909 bound_to 6896
  145.4590  139.2288  143.2998 H   0  0  0  0  0  0  0  0  0  0  0  0  # atno 7974 bound_to 7965
  154.4329  140.1843  156.1102 H   0  0  0  0  0  0  0  0  0  0  0  0  # atno 8008 bound_to 7997
  156.0224  140.3339  155.7027 H   0  0  0  0  0  0  0  0  0  0  0  0  # atno 8009 bound_to 7997
  155.5957  140.0635  157.2737 H   0  0  0  0  0  0  0  0  0  0  0  0  # atno 8010 bound_to 7997
  140.1030  144.4887  150.7025 H   0  0  0  0  0  0  0  0  0  0  0  0  # atno 10167 bound_to 10162
  156.0263  130.4404  150.2809 H   0  0  0  0  0  0  0  0  0  0  0  0  # atno 10718 bound_to 10713
  153.0522  135.5062  154.7894 H   0  0  0  0  0  0  0  0  0  0  0  0  # atno 10763 bound_to 10752
  154.6748  135.2958  154.9696 H   0  0  0  0  0  0  0  0  0  0  0  0  # atno 10764 bound_to 10752
  154.0502  135.6705  153.4852 H   0  0  0  0  0  0  0  0  0  0  0  0  # atno 10765 bound_to 10752
  140.3534  134.7175  157.4283 H   0  0  0  0  0  0  0  0  0  0  0  0  # atno 11005 bound_to 11000
  146.2462  140.5357  142.8913 LP  0  0  0  0  0  0  0  0  0  0  0  0  # atno 17320 bound_to 7965
  144.8015  140.6221  143.6475 LP  0  0  0  0  0  0  0  0  0  0  0  0  # atno 17321 bound_to 7965
  140.6967  143.2408  151.4980 LP  0  0  0  0  0  0  0  0  0  0  0  0  # atno 17342 bound_to 10162
  139.5661  144.2040  152.1766 LP  0  0  0  0  0  0  0  0  0  0  0  0  # atno 17343 bound_to 10162
  157.0912  131.0170  151.3121 LP  0  0  0  0  0  0  0  0  0  0  0  0  # atno 17370 bound_to 10713
  157.4852  130.7789  149.7453 LP  0  0  0  0  0  0  0  0  0  0  0  0  # atno 17371 bound_to 10713
  140.0684  134.5896  155.8669 LP  0  0  0  0  0  0  0  0  0  0  0  0  # atno 17394 bound_to 11000
  141.2005  133.6613  156.5902 LP  0  0  0  0  0  0  0  0  0  0  0  0  # atno 17395 bound_to 11000

$$$$
