AV-unprocessed.smi:1240|AV-procd|sdf|5204|dock6
  -GOLD-   22720 4293D 1   1.00000     0.00000
 Structure written by MMmdl.
 48 50  0  0  0  0  0  0  0  0  2 V2000
  146.1442  137.6207  154.9840 O   0  0  0  0  0  0  0  0  0  0  0  0
  146.9881  137.3648  154.1257 C   0  0  0  0  0  0  0  0  0  0  0  0
  147.0649  136.1890  153.4868 N   0  0  0  0  0  0  0  0  0  0  0  0
  146.1888  135.0413  153.7075 C   0  0  0  0  0  0  0  0  0  0  0  0
  146.6439  133.8085  152.8813 C   0  0  1  0  0  0  0  0  0  0  0  0
  147.8535  133.0684  153.5354 C   0  0  2  0  0  0  0  0  0  0  0  0
  148.5836  133.8020  154.6647 C   0  0  0  0  0  0  0  0  0  0  0  0
  150.0579  133.7042  154.2747 C   0  0  0  0  0  0  0  0  0  0  0  0
  150.1218  132.5515  153.4518 O   0  0  0  0  0  0  0  0  0  0  0  0
  148.9815  132.5834  152.6093 C   0  0  0  0  0  0  0  0  0  0  0  0
  145.5483  132.9359  152.4108 N   0  0  0  0  0  0  0  0  0  0  0  0
  146.0133  131.7967  151.6218 C   0  0  0  0  0  0  0  0  0  0  0  0
  144.8659  130.8337  151.2781 C   0  0  0  0  0  0  0  0  0  0  0  0
  143.8497  131.5454  150.5806 O   0  0  0  0  0  0  0  0  0  0  0  0
  143.3266  132.6317  151.3371 C   0  0  0  0  0  0  0  0  0  0  0  0
  144.4555  133.6087  151.7117 C   0  0  0  0  0  0  0  0  0  0  0  0
  147.9611  138.1995  153.7214 N   0  0  0  0  0  0  0  0  0  0  0  0
  148.2291  139.5262  154.1562 C   0  0  0  0  0  0  0  0  0  0  0  0
  147.1216  140.3602  154.4273 C   0  0  0  0  0  0  0  0  0  0  0  0
  147.3366  141.6792  154.8761 C   0  0  0  0  0  0  0  0  0  0  0  0
  148.5962  142.1324  155.0527 N   0  3  0  0  0  0  0  0  0  0  0  0
  149.6856  141.3691  154.8208 C   0  0  0  0  0  0  0  0  0  0  0  0
  149.5332  140.0417  154.3706 C   0  0  0  0  0  0  0  0  0  0  0  0
  147.7944  136.0703  152.7989 H   0  0  0  0  0  0  0  0  0  0  0  0
  146.1327  134.7851  154.7661 H   0  0  0  0  0  0  0  0  0  0  0  0
  145.1880  135.3589  153.4189 H   0  0  0  0  0  0  0  0  0  0  0  0
  147.0749  134.2264  151.9700 H   0  0  0  0  0  0  0  0  0  0  0  0
  147.4501  132.1627  153.9917 H   0  0  0  0  0  0  0  0  0  0  0  0
  148.2821  134.8390  154.8079 H   0  0  0  0  0  0  0  0  0  0  0  0
  148.4110  133.2857  155.6100 H   0  0  0  0  0  0  0  0  0  0  0  0
  150.3641  134.5773  153.6963 H   0  0  0  0  0  0  0  0  0  0  0  0
  150.7168  133.6188  155.1391 H   0  0  0  0  0  0  0  0  0  0  0  0
  148.7844  131.5946  152.1954 H   0  0  0  0  0  0  0  0  0  0  0  0
  149.1679  133.2541  151.7732 H   0  0  0  0  0  0  0  0  0  0  0  0
  146.4643  132.1380  150.6903 H   0  0  0  0  0  0  0  0  0  0  0  0
  146.7867  131.2554  152.1678 H   0  0  0  0  0  0  0  0  0  0  0  0
  145.2282  130.0205  150.6493 H   0  0  0  0  0  0  0  0  0  0  0  0
  144.4537  130.3821  152.1818 H   0  0  0  0  0  0  0  0  0  0  0  0
  142.5640  133.1422  150.7487 H   0  0  0  0  0  0  0  0  0  0  0  0
  142.8361  132.2519  152.2346 H   0  0  0  0  0  0  0  0  0  0  0  0
  144.0220  134.3810  152.3409 H   0  0  0  0  0  0  0  0  0  0  0  0
  144.8269  134.0942  150.8090 H   0  0  0  0  0  0  0  0  0  0  0  0
  148.6273  137.8159  153.0671 H   0  0  0  0  0  0  0  0  0  0  0  0
  146.1131  139.9978  154.2882 H   0  0  0  0  0  0  0  0  0  0  0  0
  146.5444  142.3793  155.0989 H   0  0  0  0  0  0  0  0  0  0  0  0
  150.6414  141.8368  155.0068 H   0  0  0  0  0  0  0  0  0  0  0  0
  150.4179  139.4446  154.2110 H   0  0  0  0  0  0  0  0  0  0  0  0
  148.7304  143.0897  155.3798 H   0  0  0  0  0  0  0  0  0  0  0  0
  1  2  2  0  0  0  0
  2  3  1  0  0  0  0
  2 17  1  0  0  0  0
  3  4  1  0  0  0  0
  3 24  1  0  0  0  0
  4  5  1  0  0  0  0
  4 25  1  0  0  0  0
  4 26  1  0  0  0  0
  5  6  1  0  0  0  0
  5 11  1  0  0  0  0
  5 27  1  0  0  0  0
  6 10  1  0  0  0  0
  6  7  1  0  0  0  0
  6 28  1  0  0  0  0
  7  8  1  0  0  0  0
  7 29  1  0  0  0  0
  7 30  1  0  0  0  0
  8  9  1  0  0  0  0
  8 31  1  0  0  0  0
  8 32  1  0  0  0  0
  9 10  1  0  0  0  0
 10 33  1  0  0  0  0
 10 34  1  0  0  0  0
 11 16  1  0  0  0  0
 11 12  1  0  0  0  0
 12 13  1  0  0  0  0
 12 35  1  0  0  0  0
 12 36  1  0  0  0  0
 13 14  1  0  0  0  0
 13 37  1  0  0  0  0
 13 38  1  0  0  0  0
 14 15  1  0  0  0  0
 15 16  1  0  0  0  0
 15 39  1  0  0  0  0
 15 40  1  0  0  0  0
 16 41  1  0  0  0  0
 16 42  1  0  0  0  0
 17 18  1  0  0  0  0
 17 43  1  0  0  0  0
 18 23  1  0  0  0  0
 18 19  2  0  0  0  0
 19 20  1  0  0  0  0
 19 44  1  0  0  0  0
 20 21  2  0  0  0  0
 20 45  1  0  0  0  0
 21 22  1  0  0  0  0
 21 48  1  0  0  0  0
 22 23  2  0  0  0  0
 22 46  1  0  0  0  0
 23 47  1  0  0  0  0
M  CHG  1  21   1
M  END
> <s_m_source_file>
AV-unprocessed.smi

> <i_m_source_file_index>
1240

> <i_lp_mmshare_version>
43012

> <i_f3d_flags>
0

> <s_epik_input>
W2NIXTFbY0hdbltjSF1bY0hdYzFbTkhdQyg9TylbTkhdW0NIMl1bQ0BIXShbQ0BASF0yW0NIMl1bQ0gyXU9bQ0gyXTIpTjNbQ0gyXVtDSDJdT1tDSDJdW0NIMl0z

> <s_epik_cmdline>
J2VwaWtfcHl0aG9uJywgJy1waCcsICc3LjAnLCAnLXRuJywgJzgnLCAnLW1hJywgJzIwMCcsICctbWV0YWxfYmluZGluZycsICctaW1hZScsICc8aW5maWxlLm1hZT4nLCAnLW9tYWUnLCAnPG91dGZpbGUubWFlPic=

> <r_epik_Ionization_Penalty>
1.15944

> <r_epik_Ionization_Penalty_Charging>
1.0344

> <r_epik_Ionization_Penalty_Neutral>
0.125034

> <r_epik_State_Penalty>
1.2199

> <r_epik_Charging_Adjusted_Penalty>
2.25431

> <i_epik_Tot_Q>
1

> <i_epik_Tot_abs_Q>
1

> <r_epik_Metal_State_Penalty>
1.3155

> <b_epik_Metal_Only>
0

> <s_lp_Force_Field>
OPLS_2005

> <r_lp_Energy>
64.7191

> <b_lp_Chiralities_Consistent>
1

> <s_lp_Variant>
AV-unprocessed.smi:1240-10

> <Gold.Version>
5.8.1

> <Gold.Id.Protein>
6NUR|6NUR_protein|mol2

> <Gold.PLP.Fitness>
46.2623

> <Gold.PLP.PLP>
-36.5446

> <Gold.PLP.part.hbond>
-4.0000

> <Gold.PLP.part.metal>
0.0000

> <Gold.PLP.part.buried>
-4.4414

> <Gold.PLP.part.nonpolar>
-29.5538

> <Gold.PLP.part.repulsive>
0.6404

> <Gold.PLP.ligand.clash>
0.0000

> <Gold.PLP.ligand.torsion>
1.6845

> <Gold.PLP.Chemscore.Hbond>
4.2425

> <Gold.PLP.Chemscore.CHOScore>
0.0000

> <Gold.PLP.Chemscore.Metal>
0.0000

> <Gold.Chemscore.Hbonds>
donor molecule, donor type, donor heavy atom, donor atom, acceptor molecule, acceptor atom, score
      L1  H     3    24       P1  7948  0.91
      L1  H    17    43       P1  7948  0.88
      L1  H    21    48       P1  8028  2.00
      P1  H 10785 10796       L1    14  0.07

> <Gold.PLP.Chemscore.Internal.Correction>
0.3590

> <Gold.Rescore>
     Score         DG    S(hbond)    S(metal)    S(lipo)     H(rot)  DE(clash)    DE(int)     intcor
     20.32     -23.88       3.54        0.00      93.18       1.69       0.46       3.10       ----

> <Gold.Chemscore.Fitness>
20.3158

> <Gold.Chemscore.DG>
-23.8811

> <Gold.Chemscore.ZeroCoef>
-5.4800

> <Gold.Chemscore.Hbond>
3.5415

> <Gold.Chemscore.Metal>
0.0000

> <Gold.Chemscore.Lipo>
93.1796

> <Gold.Chemscore.Internal_Hbond>
0.0000

> <Gold.Chemscore.DEClash>
0.4640

> <Gold.Chemscore.DEInternal>
3.1013

> <Gold.Chemscore.Rot>
1.6912

> <Gold.Chemscore.Internal.Correction>
   9.000000E+99

> <Gold.Chemscore.Hbonds>
donor molecule, donor type, donor heavy atom, donor atom, acceptor molecule, acceptor atom, score
      L1  H     3    24       P1  7948  0.87
      L1  H    17    43       P1  7948  0.83
      L1  H    21    48       P1  8028  1.00
      P1  H 10785 10796       L1    14  0.05

> <Gold.Chemscore.Hbond.Weighted>
-11.8285

> <Gold.Chemscore.Metal.Weighted>
-0.0000

> <Gold.Chemscore.Lipo.Weighted>
-10.9020

> <Gold.Chemscore.Internal_Hbond.Weighted>
0.0000

> <Gold.Chemscore.DEClash.Weighted>
0.4640

> <Gold.Chemscore.DEInternal.Weighted>
3.1013

> <Gold.Chemscore.Rot.Weighted>
4.3295

> <Gold.Chemscore.Internal.Correction.Weighted>
   9.000000E+99

> <Gold.Protein.RotatedTorsions>
[ 6907 6896 6895 6894 ] final   99.56 input  -60.11 | X-H torsion
[ 7974 7965 7964 7962 ] final -121.36 input  175.53 | X-H torsion
[ 8008 7997 7996 7995 ] final  165.61 input   59.86 | X-H torsion
[ 10167 10162 10161 10158 ] final   93.39 input  -65.29 | X-H torsion
[ 10718 10713 10712 10709 ] final   70.48 input   66.30 | X-H torsion
[ 10763 10752 10751 10750 ] final  -66.00 input  -60.55 | X-H torsion
[ 11005 11000 10999 10996 ] final -144.48 input  -57.11 | X-H torsion

> <Gold.Protein.ActiveResidues>
 VAL166  LYS551  ARG553  GLY616  TRP617  ASP618  TYR619  PRO620  LYS621  CYS622 
 ASP623  PHE694  ASN695  SER759  ASP760  ASP761  ALA762  ILE779  LEU786  VAL792 
 PHE793  MET794  SER795  GLU796  ALA797  LYS798  CYS799  TRP800  GLU811  SER814 

> <Gold.Protein.RotatedAtoms>
  152.5389  134.0409  159.8066 H   0  0  0  0  0  0  0  0  0  0  0  0  # atno 6907 bound_to 6896
  151.0565  133.5572  159.2645 H   0  0  0  0  0  0  0  0  0  0  0  0  # atno 6908 bound_to 6896
  151.2487  135.0622  159.9107 H   0  0  0  0  0  0  0  0  0  0  0  0  # atno 6909 bound_to 6896
  145.0412  140.8146  143.4265 H   0  0  0  0  0  0  0  0  0  0  0  0  # atno 7974 bound_to 7965
  156.1786  140.1665  156.8316 H   0  0  0  0  0  0  0  0  0  0  0  0  # atno 8008 bound_to 7997
  154.5335  140.0752  156.8420 H   0  0  0  0  0  0  0  0  0  0  0  0  # atno 8009 bound_to 7997
  155.3359  140.3382  155.4241 H   0  0  0  0  0  0  0  0  0  0  0  0  # atno 8010 bound_to 7997
  139.8185  144.6742  150.9549 H   0  0  0  0  0  0  0  0  0  0  0  0  # atno 10167 bound_to 10162
  157.6402  130.9479  150.0657 H   0  0  0  0  0  0  0  0  0  0  0  0  # atno 10718 bound_to 10713
  154.3533  135.6132  153.5654 H   0  0  0  0  0  0  0  0  0  0  0  0  # atno 10763 bound_to 10752
  152.9797  135.5797  154.4718 H   0  0  0  0  0  0  0  0  0  0  0  0  # atno 10764 bound_to 10752
  154.4443  135.2851  155.1803 H   0  0  0  0  0  0  0  0  0  0  0  0  # atno 10765 bound_to 10752
  140.8020  134.2846  157.4975 H   0  0  0  0  0  0  0  0  0  0  0  0  # atno 11005 bound_to 11000
  145.1645  139.2439  143.5374 LP  0  0  0  0  0  0  0  0  0  0  0  0  # atno 17320 bound_to 7965
  146.3509  140.1381  142.8595 LP  0  0  0  0  0  0  0  0  0  0  0  0  # atno 17321 bound_to 7965
  140.7814  143.4115  151.0985 LP  0  0  0  0  0  0  0  0  0  0  0  0  # atno 17342 bound_to 10162
  139.7777  143.8401  152.3132 LP  0  0  0  0  0  0  0  0  0  0  0  0  # atno 17343 bound_to 10162
  156.1676  130.3645  149.9210 LP  0  0  0  0  0  0  0  0  0  0  0  0  # atno 17370 bound_to 10713
  156.7193  130.9000  151.3617 LP  0  0  0  0  0  0  0  0  0  0  0  0  # atno 17371 bound_to 10713
  139.8721  134.9435  156.3854 LP  0  0  0  0  0  0  0  0  0  0  0  0  # atno 17394 bound_to 11000
  140.9285  133.7595  155.9995 LP  0  0  0  0  0  0  0  0  0  0  0  0  # atno 17395 bound_to 11000

$$$$
