AV-unprocessed.smi:1984|AV-procd|sdf|8041|dock6
  -GOLD-   2272010233D 1   1.00000     0.00000
 Structure written by MMmdl.
 38 39  0  0  0  0  0  0  0  0  1 V2000
  151.0750  144.5709  158.8106 C   0  0  0  0  0  0  0  0  0  0  0  0
  151.8467  143.8238  159.8579 C   0  0  0  0  0  0  0  0  0  0  0  0
  151.7420  143.9281  161.2732 C   0  0  0  0  0  0  0  0  0  0  0  0
  152.6640  143.0376  161.7468 C   0  0  0  0  0  0  0  0  0  0  0  0
  153.0307  142.6870  163.1516 C   0  0  0  0  0  0  0  0  0  0  0  0
  153.2650  142.4572  160.6433 N   0  0  0  0  0  0  0  0  0  0  0  0
  154.3124  141.4479  160.5917 C   0  0  0  0  0  0  0  0  0  0  0  0
  154.1825  140.5608  159.3502 C   0  0  0  0  0  0  0  0  0  0  0  0
  155.1026  140.4927  158.5353 O   0  0  0  0  0  0  0  0  0  0  0  0
  153.0338  139.8818  159.2190 N   0  0  0  0  0  0  0  0  0  0  0  0
  152.7322  138.9805  158.1141 C   0  0  0  0  0  0  0  0  0  0  0  0
  151.3363  139.2573  157.5290 C   0  0  1  0  0  0  0  0  0  0  0  0
  150.9265  140.7440  157.5940 C   0  0  0  0  0  0  0  0  0  0  0  0
  149.6754  140.9468  156.7333 C   0  0  0  0  0  0  0  0  0  0  0  0
  149.8397  139.7725  155.3377 S   0  0  0  0  0  0  0  0  0  0  0  0
  148.6313  138.9371  155.2706 O   0  0  0  0  0  0  0  0  0  0  0  0
  150.3339  140.4867  154.1510 O   0  0  0  0  0  0  0  0  0  0  0  0
  151.2160  138.8038  156.0654 C   0  0  0  0  0  0  0  0  0  0  0  0
  152.7577  142.9394  159.4875 N   0  0  0  0  0  0  0  0  0  0  0  0
  150.3806  145.2791  159.2628 H   0  0  0  0  0  0  0  0  0  0  0  0
  150.4949  143.8886  158.1887 H   0  0  0  0  0  0  0  0  0  0  0  0
  151.7429  145.1329  158.1573 H   0  0  0  0  0  0  0  0  0  0  0  0
  151.0885  144.5623  161.8534 H   0  0  0  0  0  0  0  0  0  0  0  0
  152.3887  143.2071  163.8628 H   0  0  0  0  0  0  0  0  0  0  0  0
  154.0622  142.9670  163.3657 H   0  0  0  0  0  0  0  0  0  0  0  0
  152.9247  141.6166  163.3271 H   0  0  0  0  0  0  0  0  0  0  0  0
  155.2814  141.9482  160.6127 H   0  0  0  0  0  0  0  0  0  0  0  0
  154.2600  140.8228  161.4847 H   0  0  0  0  0  0  0  0  0  0  0  0
  152.3276  139.9912  159.9323 H   0  0  0  0  0  0  0  0  0  0  0  0
  153.4909  139.0859  157.3367 H   0  0  0  0  0  0  0  0  0  0  0  0
  152.7863  137.9525  158.4757 H   0  0  0  0  0  0  0  0  0  0  0  0
  150.6016  138.6914  158.1040 H   0  0  0  0  0  0  0  0  0  0  0  0
  150.7566  141.0773  158.6182 H   0  0  0  0  0  0  0  0  0  0  0  0
  151.7343  141.3559  157.1907 H   0  0  0  0  0  0  0  0  0  0  0  0
  148.7756  140.6853  157.2905 H   0  0  0  0  0  0  0  0  0  0  0  0
  149.5726  141.9659  156.3603 H   0  0  0  0  0  0  0  0  0  0  0  0
  152.1204  139.0412  155.5042 H   0  0  0  0  0  0  0  0  0  0  0  0
  151.0185  137.7363  155.9665 H   0  0  0  0  0  0  0  0  0  0  0  0
  1  2  1  0  0  0  0
  1 20  1  0  0  0  0
  1 21  1  0  0  0  0
  1 22  1  0  0  0  0
  2 19  2  0  0  0  0
  2  3  1  0  0  0  0
  3  4  2  0  0  0  0
  3 23  1  0  0  0  0
  4  5  1  0  0  0  0
  4  6  1  0  0  0  0
  5 24  1  0  0  0  0
  5 25  1  0  0  0  0
  5 26  1  0  0  0  0
  6  7  1  0  0  0  0
  6 19  1  0  0  0  0
  7  8  1  0  0  0  0
  7 27  1  0  0  0  0
  7 28  1  0  0  0  0
  8  9  2  0  0  0  0
  8 10  1  0  0  0  0
 10 11  1  0  0  0  0
 10 29  1  0  0  0  0
 11 12  1  0  0  0  0
 11 30  1  0  0  0  0
 11 31  1  0  0  0  0
 12 18  1  0  0  0  0
 12 13  1  0  0  0  0
 12 32  1  0  0  0  0
 13 14  1  0  0  0  0
 13 33  1  0  0  0  0
 13 34  1  0  0  0  0
 14 15  1  0  0  0  0
 14 35  1  0  0  0  0
 14 36  1  0  0  0  0
 15 16  2  0  0  0  0
 15 17  2  0  0  0  0
 15 18  1  0  0  0  0
 18 37  1  0  0  0  0
 18 38  1  0  0  0  0
M  END
> <s_m_source_file>
AV-unprocessed.smi

> <i_m_source_file_index>
1984

> <i_lp_mmshare_version>
43012

> <i_f3d_flags>
0

> <s_epik_input>
W0NIM11jMVtjSF1jKFtDSDNdKW4objEpW0NIMl1DKD1PKVtOSF1bQ0gyXVtDQEBIXShbQ0gyXTIpW0NIMl1bQ0gyXVMyKD1PKT1P

> <s_epik_cmdline>
J2VwaWtfcHl0aG9uJywgJy1waCcsICc3LjAnLCAnLXRuJywgJzgnLCAnLW1hJywgJzIwMCcsICctbWV0YWxfYmluZGluZycsICctaW1hZScsICc8aW5maWxlLm1hZT4nLCAnLW9tYWUnLCAnPG91dGZpbGUubWFlPic=

> <r_lp_tautomer_probability>
1

> <r_epik_Ionization_Penalty>
0.000335865

> <r_epik_Ionization_Penalty_Charging>
0

> <r_epik_Ionization_Penalty_Neutral>
0.000335865

> <r_epik_State_Penalty>
-0

> <r_epik_Charging_Adjusted_Penalty>
0

> <i_epik_Tot_Q>
0

> <i_epik_Tot_abs_Q>
0

> <r_epik_Metal_State_Penalty>
-0

> <b_epik_Metal_Only>
0

> <s_lp_Force_Field>
OPLS_2005

> <r_lp_Energy>
4.96267

> <b_lp_Chiralities_Consistent>
1

> <s_lp_Variant>
AV-unprocessed.smi:1984-2

> <Gold.Version>
5.8.1

> <Gold.Id.Protein>
6NUR|6NUR_protein|mol2

> <Gold.PLP.Fitness>
44.8472

> <Gold.PLP.PLP>
-40.3244

> <Gold.PLP.part.hbond>
-1.7811

> <Gold.PLP.part.metal>
0.0000

> <Gold.PLP.part.buried>
-5.4517

> <Gold.PLP.part.nonpolar>
-33.1571

> <Gold.PLP.part.repulsive>
0.8706

> <Gold.PLP.ligand.clash>
0.0000

> <Gold.PLP.ligand.torsion>
0.7418

> <Gold.PLP.Chemscore.Hbond>
2.0000

> <Gold.PLP.Chemscore.CHOScore>
0.0000

> <Gold.PLP.Chemscore.Metal>
0.0000

> <Gold.Chemscore.Hbonds>
donor molecule, donor type, donor heavy atom, donor atom, acceptor molecule, acceptor atom, score
      P1  H  7989  7998       L1    17  0.80
      P1  H  7997  8008       L1     9  0.23

> <Gold.PLP.Chemscore.Internal.Correction>
0.0065

> <Gold.Rescore>
     Score         DG    S(hbond)    S(metal)    S(lipo)     H(rot)  DE(clash)    DE(int)     intcor
     18.36     -19.04       1.99        0.00      95.83       1.68       0.02       0.67       ----

> <Gold.Chemscore.Fitness>
18.3585

> <Gold.Chemscore.DG>
-19.0448

> <Gold.Chemscore.ZeroCoef>
-5.4800

> <Gold.Chemscore.Hbond>
1.9918

> <Gold.Chemscore.Metal>
0.0000

> <Gold.Chemscore.Lipo>
95.8260

> <Gold.Chemscore.Internal_Hbond>
0.0000

> <Gold.Chemscore.DEClash>
0.0174

> <Gold.Chemscore.DEInternal>
0.6689

> <Gold.Chemscore.Rot>
1.6795

> <Gold.Chemscore.Internal.Correction>
   9.000000E+99

> <Gold.Chemscore.Hbonds>
donor molecule, donor type, donor heavy atom, donor atom, acceptor molecule, acceptor atom, score
      P1  H  7989  7998       L1    17  0.75
      P1  H  7997  8008       L1     9  0.24

> <Gold.Chemscore.Hbond.Weighted>
-6.6527

> <Gold.Chemscore.Metal.Weighted>
-0.0000

> <Gold.Chemscore.Lipo.Weighted>
-11.2116

> <Gold.Chemscore.Internal_Hbond.Weighted>
0.0000

> <Gold.Chemscore.DEClash.Weighted>
0.0174

> <Gold.Chemscore.DEInternal.Weighted>
0.6689

> <Gold.Chemscore.Rot.Weighted>
4.2995

> <Gold.Chemscore.Internal.Correction.Weighted>
   9.000000E+99

> <Gold.Protein.RotatedTorsions>
[ 6907 6896 6895 6894 ] final  104.48 input  -60.11 | X-H torsion
[ 7974 7965 7964 7962 ] final -130.43 input  175.53 | X-H torsion
[ 8008 7997 7996 7995 ] final -110.59 input   59.86 | X-H torsion
[ 10167 10162 10161 10158 ] final  -25.43 input  -65.29 | X-H torsion
[ 10718 10713 10712 10709 ] final  133.14 input   66.30 | X-H torsion
[ 10763 10752 10751 10750 ] final   29.90 input  -60.55 | X-H torsion
[ 11005 11000 10999 10996 ] final   70.26 input  -57.11 | X-H torsion

> <Gold.Protein.ActiveResidues>
 VAL166  LYS551  ARG553  GLY616  TRP617  ASP618  TYR619  PRO620  LYS621  CYS622 
 ASP623  PHE694  ASN695  SER759  ASP760  ASP761  ALA762  ILE779  LEU786  VAL792 
 PHE793  MET794  SER795  GLU796  ALA797  LYS798  CYS799  TRP800  GLU811  SER814 

> <Gold.Protein.RotatedAtoms>
  152.5263  133.9670  159.7743 H   0  0  0  0  0  0  0  0  0  0  0  0  # atno 6907 bound_to 6896
  150.9949  133.6104  159.2710 H   0  0  0  0  0  0  0  0  0  0  0  0  # atno 6908 bound_to 6896
  151.3234  135.0830  159.9367 H   0  0  0  0  0  0  0  0  0  0  0  0  # atno 6909 bound_to 6896
  144.9475  140.7308  143.4808 H   0  0  0  0  0  0  0  0  0  0  0  0  # atno 7974 bound_to 7965
  154.9769  140.0397  157.2260 H   0  0  0  0  0  0  0  0  0  0  0  0  # atno 8008 bound_to 7997
  154.7750  140.2808  155.6086 H   0  0  0  0  0  0  0  0  0  0  0  0  # atno 8009 bound_to 7997
  156.2927  140.2603  156.2561 H   0  0  0  0  0  0  0  0  0  0  0  0  # atno 8010 bound_to 7997
  140.7286  143.4265  151.0868 H   0  0  0  0  0  0  0  0  0  0  0  0  # atno 10167 bound_to 10162
  157.4802  131.1085  150.9692 H   0  0  0  0  0  0  0  0  0  0  0  0  # atno 10718 bound_to 10713
  153.0403  135.6477  154.0962 H   0  0  0  0  0  0  0  0  0  0  0  0  # atno 10763 bound_to 10752
  154.0669  135.2883  155.3316 H   0  0  0  0  0  0  0  0  0  0  0  0  # atno 10764 bound_to 10752
  154.6620  135.5388  153.8095 H   0  0  0  0  0  0  0  0  0  0  0  0  # atno 10765 bound_to 10752
  139.9608  134.7065  156.0651 H   0  0  0  0  0  0  0  0  0  0  0  0  # atno 11005 bound_to 11000
  145.2895  139.1889  143.4748 LP  0  0  0  0  0  0  0  0  0  0  0  0  # atno 17320 bound_to 7965
  146.3309  140.2869  142.8613 LP  0  0  0  0  0  0  0  0  0  0  0  0  # atno 17321 bound_to 7965
  139.7917  143.8208  152.3152 LP  0  0  0  0  0  0  0  0  0  0  0  0  # atno 17342 bound_to 10162
  139.8195  144.7302  150.9591 LP  0  0  0  0  0  0  0  0  0  0  0  0  # atno 17343 bound_to 10162
  157.0427  130.5755  149.5358 LP  0  0  0  0  0  0  0  0  0  0  0  0  # atno 17370 bound_to 10713
  156.0117  130.5209  150.8010 LP  0  0  0  0  0  0  0  0  0  0  0  0  # atno 17371 bound_to 10713
  141.1284  133.6593  156.3399 LP  0  0  0  0  0  0  0  0  0  0  0  0  # atno 17394 bound_to 11000
  140.5505  134.6032  157.5406 LP  0  0  0  0  0  0  0  0  0  0  0  0  # atno 17395 bound_to 11000

$$$$
