AV-unprocessed.smi:1602|AV-procd|sdf|6440|dock3
  -GOLD-   22720 7 83D 1   1.00000     0.00000
 Structure written by MMmdl.
 36 37  0  0  0  0  0  0  0  0  1 V2000
  152.2355  140.1696  158.3375 C   0  0  0  0  0  0  0  0  0  0  0  0
  150.9372  140.7017  157.7177 C   0  0  1  0  0  0  0  0  0  0  0  0
  151.1444  142.0512  157.0029 C   0  0  0  0  0  0  0  0  0  0  0  0
  151.4955  143.1200  157.9207 N   0  0  0  0  0  0  0  0  0  0  0  0
  151.3002  144.4772  157.7716 C   0  0  0  0  0  0  0  0  0  0  0  0
  151.7817  145.0823  158.8970 C   0  0  0  0  0  0  0  0  0  0  0  0
  152.2593  143.9981  159.6855 C   0  0  0  0  0  0  0  0  0  0  0  0
  152.0897  142.8250  159.0969 N   0  0  0  0  0  0  0  0  0  0  0  0
  150.4127  139.7066  156.7791 N   0  0  0  0  0  0  0  0  0  0  0  0
  151.3699  139.2146  155.4319 S   0  0  0  0  0  0  0  0  0  0  0  0
  150.6900  139.6347  154.1971 O   0  0  0  0  0  0  0  0  0  0  0  0
  152.7645  139.6012  155.6941 O   0  0  0  0  0  0  0  0  0  0  0  0
  151.2248  137.4975  155.5919 N   0  0  0  0  0  0  0  0  0  0  0  0
  151.7503  136.8816  156.8237 C   0  0  0  0  0  0  0  0  0  0  0  0
  151.7672  135.3486  156.7118 C   0  0  0  0  0  0  0  0  0  0  0  0
  150.4769  134.8702  156.3651 O   0  0  0  0  0  0  0  0  0  0  0  0
  150.0672  135.3583  155.0970 C   0  0  0  0  0  0  0  0  0  0  0  0
  149.9666  136.8920  155.1267 C   0  0  0  0  0  0  0  0  0  0  0  0
  152.6362  140.8716  159.0691 H   0  0  0  0  0  0  0  0  0  0  0  0
  153.0011  140.0062  157.5783 H   0  0  0  0  0  0  0  0  0  0  0  0
  152.0655  139.2220  158.8500 H   0  0  0  0  0  0  0  0  0  0  0  0
  150.2150  140.8364  158.5246 H   0  0  0  0  0  0  0  0  0  0  0  0
  151.9411  141.9654  156.2626 H   0  0  0  0  0  0  0  0  0  0  0  0
  150.2444  142.3394  156.4577 H   0  0  0  0  0  0  0  0  0  0  0  0
  150.8353  144.8936  156.8902 H   0  0  0  0  0  0  0  0  0  0  0  0
  151.7896  146.1380  159.1240 H   0  0  0  0  0  0  0  0  0  0  0  0
  152.7214  144.0285  160.6610 H   0  0  0  0  0  0  0  0  0  0  0  0
  149.9250  138.9316  157.2271 H   0  0  0  0  0  0  0  0  0  0  0  0
  152.7568  137.2463  157.0272 H   0  0  0  0  0  0  0  0  0  0  0  0
  151.1252  137.1866  157.6637 H   0  0  0  0  0  0  0  0  0  0  0  0
  152.5006  135.0219  155.9727 H   0  0  0  0  0  0  0  0  0  0  0  0
  152.0619  134.9085  157.6647 H   0  0  0  0  0  0  0  0  0  0  0  0
  150.7657  135.0309  154.3253 H   0  0  0  0  0  0  0  0  0  0  0  0
  149.0978  134.9257  154.8489 H   0  0  0  0  0  0  0  0  0  0  0  0
  149.1596  137.2031  155.7912 H   0  0  0  0  0  0  0  0  0  0  0  0
  149.7238  137.2640  154.1313 H   0  0  0  0  0  0  0  0  0  0  0  0
  1  2  1  0  0  0  0
  1 19  1  0  0  0  0
  1 20  1  0  0  0  0
  1 21  1  0  0  0  0
  2  3  1  0  0  0  0
  2  9  1  0  0  0  0
  2 22  1  0  0  0  0
  3  4  1  0  0  0  0
  3 23  1  0  0  0  0
  3 24  1  0  0  0  0
  4  8  1  0  0  0  0
  4  5  1  0  0  0  0
  5  6  2  0  0  0  0
  5 25  1  0  0  0  0
  6  7  1  0  0  0  0
  6 26  1  0  0  0  0
  7  8  2  0  0  0  0
  7 27  1  0  0  0  0
  9 10  1  0  0  0  0
  9 28  1  0  0  0  0
 10 11  2  0  0  0  0
 10 12  2  0  0  0  0
 10 13  1  0  0  0  0
 13 18  1  0  0  0  0
 13 14  1  0  0  0  0
 14 15  1  0  0  0  0
 14 29  1  0  0  0  0
 14 30  1  0  0  0  0
 15 16  1  0  0  0  0
 15 31  1  0  0  0  0
 15 32  1  0  0  0  0
 16 17  1  0  0  0  0
 17 18  1  0  0  0  0
 17 33  1  0  0  0  0
 17 34  1  0  0  0  0
 18 35  1  0  0  0  0
 18 36  1  0  0  0  0
M  END
> <s_m_source_file>
AV-unprocessed.smi

> <i_m_source_file_index>
1602

> <i_lp_mmshare_version>
43012

> <i_f3d_flags>
0

> <s_epik_input>
bjFbY0hdW2NIXVtjSF1uMVtDSDJdW0NAQEhdKFtDSDNdKVtOSF1TKD1PKSg9TylOMltDSDJdW0NIMl1PW0NIMl1bQ0gyXTI=

> <s_epik_cmdline>
J2VwaWtfcHl0aG9uJywgJy1waCcsICc3LjAnLCAnLXRuJywgJzgnLCAnLW1hJywgJzIwMCcsICctbWV0YWxfYmluZGluZycsICctaW1hZScsICc8aW5maWxlLm1hZT4nLCAnLW9tYWUnLCAnPG91dGZpbGUubWFlPic=

> <r_lp_tautomer_probability>
1

> <r_epik_Ionization_Penalty>
0.114248

> <r_epik_Ionization_Penalty_Charging>
0

> <r_epik_Ionization_Penalty_Neutral>
0.114248

> <r_epik_State_Penalty>
0.103909

> <r_epik_Charging_Adjusted_Penalty>
0.103909

> <i_epik_Tot_Q>
0

> <i_epik_Tot_abs_Q>
0

> <r_epik_Metal_State_Penalty>
0.436178

> <b_epik_Metal_Only>
0

> <s_lp_Force_Field>
OPLS_2005

> <r_lp_Energy>
8.02202

> <b_lp_Chiralities_Consistent>
1

> <s_lp_Variant>
AV-unprocessed.smi:1602-2

> <Gold.Version>
5.8.1

> <Gold.Id.Protein>
6NUR|6NUR_protein|mol2

> <Gold.PLP.Fitness>
40.1539

> <Gold.PLP.PLP>
-32.3734

> <Gold.PLP.part.hbond>
-2.0000

> <Gold.PLP.part.metal>
0.0000

> <Gold.PLP.part.buried>
-4.7310

> <Gold.PLP.part.nonpolar>
-25.5234

> <Gold.PLP.part.repulsive>
0.2310

> <Gold.PLP.ligand.clash>
0.0000

> <Gold.PLP.ligand.torsion>
0.9626

> <Gold.PLP.Chemscore.Hbond>
2.0000

> <Gold.PLP.Chemscore.CHOScore>
0.9891

> <Gold.PLP.Chemscore.Metal>
0.0000

> <Gold.Chemscore.Hbonds>
donor molecule, donor type, donor heavy atom, donor atom, acceptor molecule, acceptor atom, score
      P1  H  7989  7998       L1    11  1.00
      P1  H  7997  8008       L1    12  1.00
      L1  C     5    25       P1  8028  1.00

> <Gold.PLP.Chemscore.Internal.Correction>
0.7382

> <Gold.Rescore>
     Score         DG    S(hbond)    S(metal)    S(lipo)     H(rot)  DE(clash)    DE(int)     intcor
     12.00     -15.75       1.98        0.00      74.24       1.97       0.02       3.73       ----

> <Gold.Chemscore.Fitness>
12.0002

> <Gold.Chemscore.DG>
-15.7471

> <Gold.Chemscore.ZeroCoef>
-5.4800

> <Gold.Chemscore.Hbond>
1.9798

> <Gold.Chemscore.Metal>
0.0000

> <Gold.Chemscore.Lipo>
74.2390

> <Gold.Chemscore.Internal_Hbond>
0.0000

> <Gold.Chemscore.DEClash>
0.0206

> <Gold.Chemscore.DEInternal>
3.7263

> <Gold.Chemscore.Rot>
1.9654

> <Gold.Chemscore.Internal.Correction>
   9.000000E+99

> <Gold.Chemscore.Hbonds>
donor molecule, donor type, donor heavy atom, donor atom, acceptor molecule, acceptor atom, score
      P1  H  7989  7998       L1    11  0.65
      P1  H  7997  8008       L1    12  1.00

> <Gold.Chemscore.Hbond.Weighted>
-6.6126

> <Gold.Chemscore.Metal.Weighted>
-0.0000

> <Gold.Chemscore.Lipo.Weighted>
-8.6860

> <Gold.Chemscore.Internal_Hbond.Weighted>
0.0000

> <Gold.Chemscore.DEClash.Weighted>
0.0206

> <Gold.Chemscore.DEInternal.Weighted>
3.7263

> <Gold.Chemscore.Rot.Weighted>
5.0315

> <Gold.Chemscore.Internal.Correction.Weighted>
   9.000000E+99

> <Gold.Protein.RotatedTorsions>
[ 6907 6896 6895 6894 ] final -157.35 input  -60.11 | X-H torsion
[ 7974 7965 7964 7962 ] final  -68.30 input  175.53 | X-H torsion
[ 8008 7997 7996 7995 ] final  -32.57 input   59.86 | X-H torsion
[ 10167 10162 10161 10158 ] final -151.24 input  -65.29 | X-H torsion
[ 10718 10713 10712 10709 ] final    9.80 input   66.30 | X-H torsion
[ 10763 10752 10751 10750 ] final  -55.67 input  -60.55 | X-H torsion
[ 11005 11000 10999 10996 ] final   44.60 input  -57.11 | X-H torsion

> <Gold.Protein.ActiveResidues>
 VAL166  LYS551  ARG553  GLY616  TRP617  ASP618  TYR619  PRO620  LYS621  CYS622 
 ASP623  PHE694  ASN695  SER759  ASP760  ASP761  ALA762  ILE779  LEU786  VAL792 
 PHE793  MET794  SER795  GLU796  ALA797  LYS798  CYS799  TRP800  GLU811  SER814 

> <Gold.Protein.RotatedAtoms>
  151.3015  133.4120  159.2639 H   0  0  0  0  0  0  0  0  0  0  0  0  # atno 6907 bound_to 6896
  151.0191  134.9456  159.8060 H   0  0  0  0  0  0  0  0  0  0  0  0  # atno 6908 bound_to 6896
  152.5320  134.2979  159.9120 H   0  0  0  0  0  0  0  0  0  0  0  0  # atno 6909 bound_to 6896
  145.7182  140.9049  143.0644 H   0  0  0  0  0  0  0  0  0  0  0  0  # atno 7974 bound_to 7965
  154.4176  140.1734  156.1749 H   0  0  0  0  0  0  0  0  0  0  0  0  # atno 8008 bound_to 7997
  155.9730  140.3384  155.6569 H   0  0  0  0  0  0  0  0  0  0  0  0  # atno 8009 bound_to 7997
  155.6600  140.0700  157.2548 H   0  0  0  0  0  0  0  0  0  0  0  0  # atno 8010 bound_to 7997
  139.7285  143.8846  152.2527 H   0  0  0  0  0  0  0  0  0  0  0  0  # atno 10167 bound_to 10162
  156.9716  130.5971  149.5669 H   0  0  0  0  0  0  0  0  0  0  0  0  # atno 10718 bound_to 10713
  154.1945  135.6421  153.5069 H   0  0  0  0  0  0  0  0  0  0  0  0  # atno 10763 bound_to 10752
  153.0027  135.5436  154.6380 H   0  0  0  0  0  0  0  0  0  0  0  0  # atno 10764 bound_to 10752
  154.5778  135.2922  155.0737 H   0  0  0  0  0  0  0  0  0  0  0  0  # atno 10765 bound_to 10752
  140.1537  134.4430  155.8364 H   0  0  0  0  0  0  0  0  0  0  0  0  # atno 11005 bound_to 11000
  144.6923  139.9167  143.7466 LP  0  0  0  0  0  0  0  0  0  0  0  0  # atno 17320 bound_to 7965
  146.0650  139.3641  143.0558 LP  0  0  0  0  0  0  0  0  0  0  0  0  # atno 17321 bound_to 7965
  139.8762  144.7042  150.8930 LP  0  0  0  0  0  0  0  0  0  0  0  0  # atno 17342 bound_to 10162
  140.7767  143.3698  151.1671 LP  0  0  0  0  0  0  0  0  0  0  0  0  # atno 17343 bound_to 10162
  156.0280  130.5373  150.8459 LP  0  0  0  0  0  0  0  0  0  0  0  0  # atno 17370 bound_to 10713
  157.5588  131.0945  150.9589 LP  0  0  0  0  0  0  0  0  0  0  0  0  # atno 17371 bound_to 10713
  141.2202  133.6883  156.7467 LP  0  0  0  0  0  0  0  0  0  0  0  0  # atno 17394 bound_to 11000
  140.2574  134.8493  157.3726 LP  0  0  0  0  0  0  0  0  0  0  0  0  # atno 17395 bound_to 11000

$$$$
