AV-unprocessed.smi:2788|AV-procd|sdf|10760|dock4
  -GOLD-   2272015193D 1   1.00000     0.00000
 Structure written by MMmdl.
 47 48  0  0  0  0  0  0  0  0  1 V2000
  149.9570  131.4802  156.2712 C   0  0  0  0  0  0  0  0  0  0  0  0
  150.2597  132.9516  156.2711 C   0  0  0  0  0  0  0  0  0  0  0  0
  150.7173  133.5175  157.3748 N   0  0  0  0  0  0  0  0  0  0  0  0
  150.9145  134.8656  157.0614 O   0  0  0  0  0  0  0  0  0  0  0  0
  150.5660  135.0604  155.7644 C   0  0  0  0  0  0  0  0  0  0  0  0
  150.7183  136.4449  155.2319 C   0  0  0  0  0  0  0  0  0  0  0  0
  150.1417  133.8878  155.2027 C   0  0  0  0  0  0  0  0  0  0  0  0
  149.6726  133.6417  153.7908 C   0  0  0  0  0  0  0  0  0  0  0  0
  148.1492  133.5191  153.7631 C   0  0  0  0  0  0  0  0  0  0  0  0
  147.6013  132.6268  154.4080 O   0  0  0  0  0  0  0  0  0  0  0  0
  147.5047  134.4237  153.0028 N   0  0  0  0  0  0  0  0  0  0  0  0
  146.0699  134.6294  152.7438 C   0  0  1  0  0  0  0  0  0  0  0  0
  145.1833  134.0237  153.8661 C   0  0  0  0  0  0  0  0  0  0  0  0
  145.8822  136.1708  152.8208 C   0  0  0  0  0  0  0  0  0  0  0  0
  146.5700  136.8632  151.7978 O   0  0  0  0  0  0  0  0  0  0  0  0
  145.6824  134.0733  151.3243 C   0  0  0  0  0  0  0  0  0  0  0  0
  144.1963  134.2811  150.9294 C   0  0  0  0  0  0  0  0  0  0  0  0
  143.9049  133.8044  149.4978 C   0  0  0  0  0  0  0  0  0  0  0  0
  144.2774  132.3275  149.3202 C   0  0  0  0  0  0  0  0  0  0  0  0
  145.7453  132.0907  149.6960 C   0  0  0  0  0  0  0  0  0  0  0  0
  146.0455  132.5768  151.1234 C   0  0  0  0  0  0  0  0  0  0  0  0
  149.1859  131.2329  155.5420 H   0  0  0  0  0  0  0  0  0  0  0  0
  149.6040  131.1458  157.2473 H   0  0  0  0  0  0  0  0  0  0  0  0
  150.8470  130.9017  156.0226 H   0  0  0  0  0  0  0  0  0  0  0  0
  151.6720  136.5549  154.7159 H   0  0  0  0  0  0  0  0  0  0  0  0
  150.6803  137.1800  156.0360 H   0  0  0  0  0  0  0  0  0  0  0  0
  149.9227  136.6796  154.5249 H   0  0  0  0  0  0  0  0  0  0  0  0
  149.9744  134.4458  153.1194 H   0  0  0  0  0  0  0  0  0  0  0  0
  150.1114  132.7312  153.3816 H   0  0  0  0  0  0  0  0  0  0  0  0
  148.1048  135.0856  152.5329 H   0  0  0  0  0  0  0  0  0  0  0  0
  144.1300  134.2524  153.7019 H   0  0  0  0  0  0  0  0  0  0  0  0
  145.4523  134.4273  154.8428 H   0  0  0  0  0  0  0  0  0  0  0  0
  145.2512  132.9409  153.9435 H   0  0  0  0  0  0  0  0  0  0  0  0
  144.8242  136.4275  152.7491 H   0  0  0  0  0  0  0  0  0  0  0  0
  146.2125  136.5671  153.7809 H   0  0  0  0  0  0  0  0  0  0  0  0
  147.3653  136.3931  151.5984 H   0  0  0  0  0  0  0  0  0  0  0  0
  146.2634  134.6390  150.5947 H   0  0  0  0  0  0  0  0  0  0  0  0
  143.5428  133.7384  151.6111 H   0  0  0  0  0  0  0  0  0  0  0  0
  143.9162  135.3309  150.9981 H   0  0  0  0  0  0  0  0  0  0  0  0
  142.8494  133.9503  149.2661 H   0  0  0  0  0  0  0  0  0  0  0  0
  144.4646  134.4131  148.7866 H   0  0  0  0  0  0  0  0  0  0  0  0
  143.6330  131.7082  149.9457 H   0  0  0  0  0  0  0  0  0  0  0  0
  144.1010  132.0186  148.2895 H   0  0  0  0  0  0  0  0  0  0  0  0
  145.9840  131.0305  149.6072 H   0  0  0  0  0  0  0  0  0  0  0  0
  146.3921  132.6124  148.9896 H   0  0  0  0  0  0  0  0  0  0  0  0
  147.1031  132.4029  151.3149 H   0  0  0  0  0  0  0  0  0  0  0  0
  145.4972  131.9588  151.8353 H   0  0  0  0  0  0  0  0  0  0  0  0
  1  2  1  0  0  0  0
  1 22  1  0  0  0  0
  1 23  1  0  0  0  0
  1 24  1  0  0  0  0
  2  7  1  0  0  0  0
  2  3  2  0  0  0  0
  3  4  1  0  0  0  0
  4  5  1  0  0  0  0
  5  6  1  0  0  0  0
  5  7  2  0  0  0  0
  6 25  1  0  0  0  0
  6 26  1  0  0  0  0
  6 27  1  0  0  0  0
  7  8  1  0  0  0  0
  8  9  1  0  0  0  0
  8 28  1  0  0  0  0
  8 29  1  0  0  0  0
  9 10  2  0  0  0  0
  9 11  1  0  0  0  0
 11 12  1  0  0  0  0
 11 30  1  0  0  0  0
 12 13  1  0  0  0  0
 12 14  1  0  0  0  0
 12 16  1  0  0  0  0
 13 31  1  0  0  0  0
 13 32  1  0  0  0  0
 13 33  1  0  0  0  0
 14 15  1  0  0  0  0
 14 34  1  0  0  0  0
 14 35  1  0  0  0  0
 15 36  1  0  0  0  0
 16 21  1  0  0  0  0
 16 17  1  0  0  0  0
 16 37  1  0  0  0  0
 17 18  1  0  0  0  0
 17 38  1  0  0  0  0
 17 39  1  0  0  0  0
 18 19  1  0  0  0  0
 18 40  1  0  0  0  0
 18 41  1  0  0  0  0
 19 20  1  0  0  0  0
 19 42  1  0  0  0  0
 19 43  1  0  0  0  0
 20 21  1  0  0  0  0
 20 44  1  0  0  0  0
 20 45  1  0  0  0  0
 21 46  1  0  0  0  0
 21 47  1  0  0  0  0
M  END
> <s_m_source_file>
AV-unprocessed.smi

> <i_m_source_file_index>
2788

> <i_lp_mmshare_version>
43012

> <i_f3d_flags>
0

> <s_epik_input>
W0NIM11jMW5vYyhbQ0gzXSljMVtDSDJdQyg9TylbTkhdW0NAQF0oW0NIM10pKFtDSDJdW09IXSlbQ0hdMltDSDJdW0NIMl1bQ0gyXVtDSDJdW0NIMl0y

> <s_epik_cmdline>
J2VwaWtfcHl0aG9uJywgJy1waCcsICc3LjAnLCAnLXRuJywgJzgnLCAnLW1hJywgJzIwMCcsICctbWV0YWxfYmluZGluZycsICctaW1hZScsICc8aW5maWxlLm1hZT4nLCAnLW9tYWUnLCAnPG91dGZpbGUubWFlPic=

> <r_lp_tautomer_probability>
1

> <r_epik_Ionization_Penalty>
1.3408e-07

> <r_epik_Ionization_Penalty_Charging>
0

> <r_epik_Ionization_Penalty_Neutral>
1.3408e-07

> <r_epik_State_Penalty>
-0

> <r_epik_Charging_Adjusted_Penalty>
0

> <i_epik_Tot_Q>
0

> <i_epik_Tot_abs_Q>
0

> <r_epik_Metal_State_Penalty>
-0

> <b_epik_Metal_Only>
0

> <s_lp_Force_Field>
OPLS_2005

> <r_lp_Energy>
15.0378

> <b_lp_Chiralities_Consistent>
1

> <s_lp_Variant>
AV-unprocessed.smi:2788-1

> <Gold.Version>
5.8.1

> <Gold.Id.Protein>
6NUR|6NUR_protein|mol2

> <Gold.PLP.Fitness>
40.7051

> <Gold.PLP.PLP>
-33.5042

> <Gold.PLP.part.hbond>
-3.7172

> <Gold.PLP.part.metal>
0.0000

> <Gold.PLP.part.buried>
-1.8207

> <Gold.PLP.part.nonpolar>
-28.1516

> <Gold.PLP.part.repulsive>
0.0307

> <Gold.PLP.ligand.clash>
0.0000

> <Gold.PLP.ligand.torsion>
0.6780

> <Gold.PLP.Chemscore.Hbond>
2.8240

> <Gold.PLP.Chemscore.CHOScore>
0.0000

> <Gold.PLP.Chemscore.Metal>
0.0000

> <Gold.Chemscore.Hbonds>
donor molecule, donor type, donor heavy atom, donor atom, acceptor molecule, acceptor atom, score
      L1  H    11    30       P1  7948  1.00
      L1  H    15    36       P1  7948  0.98
      P1  H  6896  6909       L1     3  0.82

> <Gold.PLP.Chemscore.Internal.Correction>
0.0848

> <Gold.Rescore>
     Score         DG    S(hbond)    S(metal)    S(lipo)     H(rot)  DE(clash)    DE(int)     intcor
     16.82     -18.97       2.59        0.00      90.25       2.24       0.22       1.93       ----

> <Gold.Chemscore.Fitness>
16.8186

> <Gold.Chemscore.DG>
-18.9712

> <Gold.Chemscore.ZeroCoef>
-5.4800

> <Gold.Chemscore.Hbond>
2.5915

> <Gold.Chemscore.Metal>
0.0000

> <Gold.Chemscore.Lipo>
90.2500

> <Gold.Chemscore.Internal_Hbond>
0.0000

> <Gold.Chemscore.DEClash>
0.2183

> <Gold.Chemscore.DEInternal>
1.9343

> <Gold.Chemscore.Rot>
2.2357

> <Gold.Chemscore.Internal.Correction>
   9.000000E+99

> <Gold.Chemscore.Hbonds>
donor molecule, donor type, donor heavy atom, donor atom, acceptor molecule, acceptor atom, score
      L1  H    11    30       P1  7948  0.83
      L1  H    15    36       P1  7948  0.91
      P1  H  6896  6909       L1     3  0.21

> <Gold.Chemscore.Hbond.Weighted>
-8.6555

> <Gold.Chemscore.Metal.Weighted>
-0.0000

> <Gold.Chemscore.Lipo.Weighted>
-10.5593

> <Gold.Chemscore.Internal_Hbond.Weighted>
0.0000

> <Gold.Chemscore.DEClash.Weighted>
0.2183

> <Gold.Chemscore.DEInternal.Weighted>
1.9343

> <Gold.Chemscore.Rot.Weighted>
5.7235

> <Gold.Chemscore.Internal.Correction.Weighted>
   9.000000E+99

> <Gold.Protein.RotatedTorsions>
[ 6907 6896 6895 6894 ] final  -18.32 input  -60.11 | X-H torsion
[ 7974 7965 7964 7962 ] final  -27.89 input  175.53 | X-H torsion
[ 8008 7997 7996 7995 ] final  135.25 input   59.86 | X-H torsion
[ 10167 10162 10161 10158 ] final  152.40 input  -65.29 | X-H torsion
[ 10718 10713 10712 10709 ] final -169.29 input   66.30 | X-H torsion
[ 10763 10752 10751 10750 ] final  -98.34 input  -60.55 | X-H torsion
[ 11005 11000 10999 10996 ] final  131.15 input  -57.11 | X-H torsion

> <Gold.Protein.ActiveResidues>
 VAL166  LYS551  ARG553  GLY616  TRP617  ASP618  TYR619  PRO620  LYS621  CYS622 
 ASP623  PHE694  ASN695  SER759  ASP760  ASP761  ALA762  ILE779  LEU786  VAL792 
 PHE793  MET794  SER795  GLU796  ALA797  LYS798  CYS799  TRP800  GLU811  SER814 

> <Gold.Protein.RotatedAtoms>
  151.2799  135.0710  159.9165 H   0  0  0  0  0  0  0  0  0  0  0  0  # atno 6907 bound_to 6896
  152.5336  134.0042  159.7919 H   0  0  0  0  0  0  0  0  0  0  0  0  # atno 6908 bound_to 6896
  151.0294  133.5754  159.2693 H   0  0  0  0  0  0  0  0  0  0  0  0  # atno 6909 bound_to 6896
  146.1326  140.5211  142.8686 H   0  0  0  0  0  0  0  0  0  0  0  0  # atno 7974 bound_to 7965
  156.3002  140.2475  156.3551 H   0  0  0  0  0  0  0  0  0  0  0  0  # atno 8008 bound_to 7997
  154.8929  140.0408  157.1868 H   0  0  0  0  0  0  0  0  0  0  0  0  # atno 8009 bound_to 7997
  154.8579  140.2916  155.5561 H   0  0  0  0  0  0  0  0  0  0  0  0  # atno 8010 bound_to 7997
  139.4833  144.5361  151.7643 H   0  0  0  0  0  0  0  0  0  0  0  0  # atno 10167 bound_to 10162
  156.7094  130.9227  151.3088 H   0  0  0  0  0  0  0  0  0  0  0  0  # atno 10718 bound_to 10713
  154.7406  135.5013  153.9116 H   0  0  0  0  0  0  0  0  0  0  0  0  # atno 10763 bound_to 10752
  153.1039  135.6692  153.9630 H   0  0  0  0  0  0  0  0  0  0  0  0  # atno 10764 bound_to 10752
  153.9409  135.3068  155.3422 H   0  0  0  0  0  0  0  0  0  0  0  0  # atno 10765 bound_to 10752
  139.9713  134.9576  156.9397 H   0  0  0  0  0  0  0  0  0  0  0  0  # atno 11005 bound_to 11000
  144.7706  140.5630  143.6672 LP  0  0  0  0  0  0  0  0  0  0  0  0  # atno 17320 bound_to 7965
  145.5226  139.1476  143.3544 LP  0  0  0  0  0  0  0  0  0  0  0  0  # atno 17321 bound_to 7965
  140.4894  144.1333  150.5947 LP  0  0  0  0  0  0  0  0  0  0  0  0  # atno 17342 bound_to 10162
  140.4189  143.2621  151.9741 LP  0  0  0  0  0  0  0  0  0  0  0  0  # atno 17343 bound_to 10162
  157.6942  130.9264  150.0598 LP  0  0  0  0  0  0  0  0  0  0  0  0  # atno 17370 bound_to 10713
  156.1672  130.3645  149.9216 LP  0  0  0  0  0  0  0  0  0  0  0  0  # atno 17371 bound_to 10713
  140.5287  134.0835  155.7310 LP  0  0  0  0  0  0  0  0  0  0  0  0  # atno 17394 bound_to 11000
  141.1393  133.9167  157.2363 LP  0  0  0  0  0  0  0  0  0  0  0  0  # atno 17395 bound_to 11000

$$$$
