AV-unprocessed.smi:21|AV-procd|sdf|164|dock3
  -GOLD-   2262015403D 1   1.00000     0.00000
 Structure written by MMmdl.
 61 64  0  0  0  0  0  0  0  0  1 V2000
  149.6866  144.9327  159.9246 C   0  0  0  0  0  0  0  0  0  0  0  0
  150.7281  145.7241  159.3748 O   0  0  0  0  0  0  0  0  0  0  0  0
  151.8008  144.9582  158.8427 C   0  0  2  0  0  0  0  0  0  0  0  0
  151.3051  143.9143  157.8265 C   0  0  0  0  0  0  0  0  0  0  0  0
  151.8514  142.5759  158.3467 C   0  0  2  0  0  0  0  0  0  0  0  0
  151.0199  141.3514  157.8975 C   0  0  0  0  0  0  0  0  0  0  0  0
  151.8233  140.2961  157.2780 N   0  0  0  0  0  0  0  0  0  0  0  0
  151.7263  140.1495  155.8276 C   0  0  0  0  0  0  0  0  0  0  0  0
  152.1472  139.1970  158.0146 C   0  0  0  0  0  0  0  0  0  0  0  0
  151.3099  138.8057  159.0136 N   0  0  0  0  0  0  0  0  0  0  0  0
  151.6077  137.7560  159.7833 C   0  0  0  0  0  0  0  0  0  0  0  0
  152.6763  136.9608  159.7300 N   0  0  0  0  0  0  0  0  0  0  0  0
  153.5160  137.3318  158.7224 C   0  0  0  0  0  0  0  0  0  0  0  0
  153.3292  138.4207  157.8218 C   0  0  0  0  0  0  0  0  0  0  0  0
  154.3904  138.4653  156.9238 N   0  0  0  0  0  0  0  0  0  0  0  0
  155.1647  137.4794  157.2832 C   0  0  0  0  0  0  0  0  0  0  0  0
  154.7125  136.7429  158.3527 N   0  0  0  0  0  0  0  0  0  0  0  0
  155.3759  135.6003  158.9574 C   0  0  0  0  0  0  0  0  0  0  0  0
  155.8761  134.5617  157.9221 C   0  0  2  0  0  0  0  0  0  0  0  0
  155.4700  133.1238  158.3352 C   0  0  0  0  0  0  0  0  0  0  0  0
  154.0725  132.9987  158.4922 O   0  0  0  0  0  0  0  0  0  0  0  0
  157.4091  134.7066  157.7153 C   0  0  1  0  0  0  0  0  0  0  0  0
  157.8928  136.0840  157.2946 C   0  0  0  0  0  0  0  0  0  0  0  0
  159.3781  136.0239  157.6299 C   0  0  0  0  0  0  0  0  0  0  0  0
  159.4731  135.1989  158.7838 O   0  0  0  0  0  0  0  0  0  0  0  0
  158.2478  134.5016  158.9839 C   0  0  0  0  0  0  0  0  0  0  0  0
  151.9147  142.7601  159.7879 N   0  0  0  0  0  0  0  0  0  0  0  0
  152.7389  141.7753  160.4765 C   0  0  0  0  0  0  0  0  0  0  0  0
  152.4241  144.1086  159.9556 C   0  0  0  0  0  0  0  0  0  0  0  0
  152.5636  145.6104  158.4139 H   0  0  0  0  0  0  0  0  0  0  0  0
  152.8709  142.4640  157.9733 H   0  0  0  0  0  0  0  0  0  0  0  0
  148.8983  145.5819  160.3054 H   0  0  0  0  0  0  0  0  0  0  0  0
  150.0405  144.3165  160.7519 H   0  0  0  0  0  0  0  0  0  0  0  0
  149.2471  144.2810  159.1686 H   0  0  0  0  0  0  0  0  0  0  0  0
  150.2146  143.8923  157.8157 H   0  0  0  0  0  0  0  0  0  0  0  0
  151.6438  144.1347  156.8139 H   0  0  0  0  0  0  0  0  0  0  0  0
  150.5361  140.9042  158.7652 H   0  0  0  0  0  0  0  0  0  0  0  0
  150.1996  141.6699  157.2590 H   0  0  0  0  0  0  0  0  0  0  0  0
  152.6158  139.6621  155.4263 H   0  0  0  0  0  0  0  0  0  0  0  0
  151.6395  141.1240  155.3467 H   0  0  0  0  0  0  0  0  0  0  0  0
  150.8515  139.5584  155.5539 H   0  0  0  0  0  0  0  0  0  0  0  0
  150.8883  137.5232  160.5545 H   0  0  0  0  0  0  0  0  0  0  0  0
  156.0908  137.2584  156.7726 H   0  0  0  0  0  0  0  0  0  0  0  0
  156.2044  135.9919  159.5468 H   0  0  0  0  0  0  0  0  0  0  0  0
  154.6929  135.1281  159.6645 H   0  0  0  0  0  0  0  0  0  0  0  0
  155.3826  134.7901  156.9760 H   0  0  0  0  0  0  0  0  0  0  0  0
  155.8239  132.3963  157.6043 H   0  0  0  0  0  0  0  0  0  0  0  0
  155.9063  132.8421  159.2923 H   0  0  0  0  0  0  0  0  0  0  0  0
  153.7174  132.5976  157.7137 H   0  0  0  0  0  0  0  0  0  0  0  0
  157.7393  133.9863  156.9648 H   0  0  0  0  0  0  0  0  0  0  0  0
  157.7186  136.2996  156.2403 H   0  0  0  0  0  0  0  0  0  0  0  0
  157.4064  136.8584  157.8898 H   0  0  0  0  0  0  0  0  0  0  0  0
  159.9323  135.5512  156.8181 H   0  0  0  0  0  0  0  0  0  0  0  0
  159.8077  137.0100  157.8061 H   0  0  0  0  0  0  0  0  0  0  0  0
  157.7491  134.9347  159.8521 H   0  0  0  0  0  0  0  0  0  0  0  0
  158.4344  133.4483  159.1939 H   0  0  0  0  0  0  0  0  0  0  0  0
  152.7945  142.0022  161.5415 H   0  0  0  0  0  0  0  0  0  0  0  0
  153.7549  141.7619  160.0798 H   0  0  0  0  0  0  0  0  0  0  0  0
  152.3209  140.7740  160.3775 H   0  0  0  0  0  0  0  0  0  0  0  0
  153.5085  144.1112  159.8316 H   0  0  0  0  0  0  0  0  0  0  0  0
  152.2095  144.4971  160.9519 H   0  0  0  0  0  0  0  0  0  0  0  0
  1  2  1  0  0  0  0
  1 32  1  0  0  0  0
  1 33  1  0  0  0  0
  1 34  1  0  0  0  0
  2  3  1  0  0  0  0
  3 30  1  0  0  0  0
  3 29  1  0  0  0  0
  3  4  1  0  0  0  0
  4  5  1  0  0  0  0
  4 35  1  0  0  0  0
  4 36  1  0  0  0  0
  5 31  1  0  0  0  0
  5  6  1  0  0  0  0
  5 27  1  0  0  0  0
  6  7  1  0  0  0  0
  6 37  1  0  0  0  0
  6 38  1  0  0  0  0
  7  8  1  0  0  0  0
  7  9  1  0  0  0  0
  8 39  1  0  0  0  0
  8 40  1  0  0  0  0
  8 41  1  0  0  0  0
  9 14  1  0  0  0  0
  9 10  2  0  0  0  0
 10 11  1  0  0  0  0
 11 12  2  0  0  0  0
 11 42  1  0  0  0  0
 12 13  1  0  0  0  0
 13 17  1  0  0  0  0
 13 14  2  0  0  0  0
 14 15  1  0  0  0  0
 15 16  2  0  0  0  0
 16 17  1  0  0  0  0
 16 43  1  0  0  0  0
 17 18  1  0  0  0  0
 18 19  1  0  0  0  0
 18 44  1  0  0  0  0
 18 45  1  0  0  0  0
 19 20  1  0  0  0  0
 19 22  1  0  0  0  0
 19 46  1  0  0  0  0
 20 21  1  0  0  0  0
 20 47  1  0  0  0  0
 20 48  1  0  0  0  0
 21 49  1  0  0  0  0
 22 26  1  0  0  0  0
 22 23  1  0  0  0  0
 22 50  1  0  0  0  0
 23 24  1  0  0  0  0
 23 51  1  0  0  0  0
 23 52  1  0  0  0  0
 24 25  1  0  0  0  0
 24 53  1  0  0  0  0
 24 54  1  0  0  0  0
 25 26  1  0  0  0  0
 26 55  1  0  0  0  0
 26 56  1  0  0  0  0
 27 28  1  0  0  0  0
 27 29  1  0  0  0  0
 28 57  1  0  0  0  0
 28 58  1  0  0  0  0
 28 59  1  0  0  0  0
 29 60  1  0  0  0  0
 29 61  1  0  0  0  0
M  END
> <s_m_source_file>
AV-unprocessed.smi

> <i_m_source_file_index>
21

> <i_lp_mmshare_version>
43012

> <i_f3d_flags>
0

> <s_epik_input>
W0NIM11PW0NASF0xW0NIMl1bQ0BIXShOKFtDSDNdKVtDSDJdMSlbQ0gyXU4oW0NIM10pYyhuW2NIXW4yKWMoYzIzKW5bY0hdbjNbQ0gyXVtDQEhdKFtDSDJdW09IXSlbQ0BASF00W0NIMl1bQ0gyXU9bQ0gyXTQ=

> <s_epik_cmdline>
J2VwaWtfcHl0aG9uJywgJy1waCcsICc3LjAnLCAnLXRuJywgJzgnLCAnLW1hJywgJzIwMCcsICctbWV0YWxfYmluZGluZycsICctaW1hZScsICc8aW5maWxlLm1hZT4nLCAnLW9tYWUnLCAnPG91dGZpbGUubWFlPic=

> <r_lp_tautomer_probability>
1

> <r_epik_Ionization_Penalty>
2.17574

> <r_epik_Ionization_Penalty_Charging>
0

> <r_epik_Ionization_Penalty_Neutral>
2.17574

> <r_epik_State_Penalty>
2.31336

> <r_epik_Charging_Adjusted_Penalty>
2.31336

> <i_epik_Tot_Q>
0

> <i_epik_Tot_abs_Q>
0

> <r_epik_Metal_State_Penalty>
2.31025

> <b_epik_Metal_Only>
0

> <s_lp_Force_Field>
OPLS_2005

> <r_lp_Energy>
70.4108

> <b_lp_Chiralities_Consistent>
1

> <s_lp_Variant>
AV-unprocessed.smi:21-44

> <Gold.Version>
5.8.1

> <Gold.Id.Protein>
6NUR|6NUR_protein|mol2

> <Gold.PLP.Fitness>
45.1155

> <Gold.PLP.PLP>
-41.6408

> <Gold.PLP.part.hbond>
-4.5413

> <Gold.PLP.part.metal>
0.0000

> <Gold.PLP.part.buried>
-6.8449

> <Gold.PLP.part.nonpolar>
-31.6078

> <Gold.PLP.part.repulsive>
0.2225

> <Gold.PLP.ligand.clash>
0.0000

> <Gold.PLP.ligand.torsion>
2.4383

> <Gold.PLP.Chemscore.Hbond>
2.4752

> <Gold.PLP.Chemscore.CHOScore>
0.0000

> <Gold.PLP.Chemscore.Metal>
0.0000

> <Gold.Chemscore.Hbonds>
donor molecule, donor type, donor heavy atom, donor atom, acceptor molecule, acceptor atom, score
      P1  H  6896  6907       L1    12  0.73
      P1  H  6896  6908       L1    21  0.91
      P1  H  7997  8010       L1    15  0.38

> <Gold.PLP.Chemscore.Internal.Correction>
0.9257

> <Gold.Rescore>
     Score         DG    S(hbond)    S(metal)    S(lipo)     H(rot)  DE(clash)    DE(int)     intcor
     13.23     -15.65       1.90        0.00      98.27       3.00       0.04       2.38       ----

> <Gold.Chemscore.Fitness>
13.2286

> <Gold.Chemscore.DG>
-15.6456

> <Gold.Chemscore.ZeroCoef>
-5.4800

> <Gold.Chemscore.Hbond>
1.9029

> <Gold.Chemscore.Metal>
0.0000

> <Gold.Chemscore.Lipo>
98.2737

> <Gold.Chemscore.Internal_Hbond>
0.0000

> <Gold.Chemscore.DEClash>
0.0412

> <Gold.Chemscore.DEInternal>
2.3758

> <Gold.Chemscore.Rot>
3.0031

> <Gold.Chemscore.Internal.Correction>
   9.000000E+99

> <Gold.Chemscore.Hbonds>
donor molecule, donor type, donor heavy atom, donor atom, acceptor molecule, acceptor atom, score
      P1  H  6896  6907       L1    12  0.12
      P1  H  6896  6908       L1    21  0.53
      P1  H  7997  8010       L1    15  0.08

> <Gold.Chemscore.Hbond.Weighted>
-6.3556

> <Gold.Chemscore.Metal.Weighted>
-0.0000

> <Gold.Chemscore.Lipo.Weighted>
-11.4980

> <Gold.Chemscore.Internal_Hbond.Weighted>
0.0000

> <Gold.Chemscore.DEClash.Weighted>
0.0412

> <Gold.Chemscore.DEInternal.Weighted>
2.3758

> <Gold.Chemscore.Rot.Weighted>
7.6880

> <Gold.Chemscore.Internal.Correction.Weighted>
   9.000000E+99

> <Gold.Protein.RotatedTorsions>
[ 6907 6896 6895 6894 ] final    2.99 input  -60.11 | X-H torsion
[ 7974 7965 7964 7962 ] final  116.54 input  175.53 | X-H torsion
[ 8008 7997 7996 7995 ] final   55.99 input   59.86 | X-H torsion
[ 10167 10162 10161 10158 ] final  101.17 input  -65.29 | X-H torsion
[ 10718 10713 10712 10709 ] final -125.00 input   66.30 | X-H torsion
[ 10763 10752 10751 10750 ] final   43.62 input  -60.55 | X-H torsion
[ 11005 11000 10999 10996 ] final  -16.25 input  -57.11 | X-H torsion

> <Gold.Protein.ActiveResidues>
 VAL166  LYS551  ARG553  GLY616  TRP617  ASP618  TYR619  PRO620  LYS621  CYS622 
 ASP623  PHE694  ASN695  SER759  ASP760  ASP761  ALA762  ILE779  LEU786  VAL792 
 PHE793  MET794  SER795  GLU796  ALA797  LYS798  CYS799  TRP800  GLU811  SER814 

> <Gold.Protein.RotatedAtoms>
  151.6178  135.1035  160.0094 H   0  0  0  0  0  0  0  0  0  0  0  0  # atno 6907 bound_to 6896
  152.4174  133.7056  159.6460 H   0  0  0  0  0  0  0  0  0  0  0  0  # atno 6908 bound_to 6896
  150.8062  133.8433  159.3226 H   0  0  0  0  0  0  0  0  0  0  0  0  # atno 6909 bound_to 6896
  145.1784  139.3063  143.4431 H   0  0  0  0  0  0  0  0  0  0  0  0  # atno 7974 bound_to 7965
  155.5102  140.3477  155.4387 H   0  0  0  0  0  0  0  0  0  0  0  0  # atno 8008 bound_to 7997
  156.0855  140.1397  156.9686 H   0  0  0  0  0  0  0  0  0  0  0  0  # atno 8009 bound_to 7997
  154.4604  140.0937  156.6853 H   0  0  0  0  0  0  0  0  0  0  0  0  # atno 8010 bound_to 7997
  139.7462  144.6997  151.0501 H   0  0  0  0  0  0  0  0  0  0  0  0  # atno 10167 bound_to 10162
  156.1637  130.6619  151.0085 H   0  0  0  0  0  0  0  0  0  0  0  0  # atno 10718 bound_to 10713
  152.9857  135.6095  154.3142 H   0  0  0  0  0  0  0  0  0  0  0  0  # atno 10763 bound_to 10752
  154.2855  135.2776  155.2680 H   0  0  0  0  0  0  0  0  0  0  0  0  # atno 10764 bound_to 10752
  154.4999  135.5869  153.6579 H   0  0  0  0  0  0  0  0  0  0  0  0  # atno 10765 bound_to 10752
  140.8049  133.8185  155.9506 H   0  0  0  0  0  0  0  0  0  0  0  0  # atno 11005 bound_to 11000
  146.3457  140.1955  142.8589 LP  0  0  0  0  0  0  0  0  0  0  0  0  # atno 17320 bound_to 7965
  145.0161  140.8755  143.5195 LP  0  0  0  0  0  0  0  0  0  0  0  0  # atno 17321 bound_to 7965
  140.7792  143.4864  150.9950 LP  0  0  0  0  0  0  0  0  0  0  0  0  # atno 17342 bound_to 10162
  139.8552  143.7386  152.3176 LP  0  0  0  0  0  0  0  0  0  0  0  0  # atno 17343 bound_to 10162
  157.6751  131.0852  150.7514 LP  0  0  0  0  0  0  0  0  0  0  0  0  # atno 17370 bound_to 10713
  156.7575  130.4788  149.5443 LP  0  0  0  0  0  0  0  0  0  0  0  0  # atno 17371 bound_to 10713
  140.9257  134.2085  157.4897 LP  0  0  0  0  0  0  0  0  0  0  0  0  # atno 17394 bound_to 11000
  139.8718  134.9811  156.5104 LP  0  0  0  0  0  0  0  0  0  0  0  0  # atno 17395 bound_to 11000

$$$$
