AV-unprocessed.smi:911|AV-procd|sdf|4139|dock9
  -GOLD-   22720 2 43D 1   1.00000     0.00000
 Structure written by MMmdl.
 47 49  0  0  0  0  0  0  0  0  3 V2000
  144.4262  134.6539  150.1606 C   0  0  0  0  0  0  0  0  0  0  0  0
  144.4969  133.3259  150.9658 C   0  0  0  0  0  0  0  0  0  0  0  0
  143.3326  133.4034  151.9924 C   0  0  0  0  0  0  0  0  0  0  0  0
  144.4884  132.0587  150.0879 C   0  0  1  0  0  0  0  0  0  0  0  0
  145.7979  132.1691  149.2743 C   0  0  0  0  0  0  0  0  0  0  0  0
  146.7616  132.8311  150.2784 C   0  0  0  0  0  0  0  0  0  0  0  0
  145.8867  132.9627  151.5565 C   0  0  1  0  0  0  0  0  0  0  0  0
  146.4603  133.9660  152.5728 C   0  0  0  0  0  0  0  0  0  0  0  0
  145.6496  131.5313  152.1412 C   0  0  2  0  0  0  0  0  0  0  0  0
  146.8633  130.7266  152.2666 N   0  0  0  0  0  0  0  0  0  0  0  0
  147.2115  130.0025  153.3404 C   0  0  0  0  0  0  0  0  0  0  0  0
  146.4933  129.8568  154.3288 O   0  0  0  0  0  0  0  0  0  0  0  0
  148.6016  129.3634  153.2976 C   0  0  0  0  0  0  0  0  0  0  0  0
  149.5529  130.1452  154.1021 N   0  0  0  0  0  0  0  0  0  0  0  0
  149.3491  131.5388  154.1377 C   0  0  0  0  0  0  0  0  0  0  0  0
  150.1192  132.3575  154.8796 C   0  0  0  0  0  0  0  0  0  0  0  0
  149.8757  133.7822  154.9210 N   0  3  0  0  0  0  0  0  0  0  0  0
  148.9590  134.2417  154.2478 O   0  0  0  0  0  0  0  0  0  0  0  0
  150.5931  134.4883  155.6236 O   0  5  0  0  0  0  0  0  0  0  0  0
  151.1925  131.7593  155.6490 C   0  0  0  0  0  0  0  0  0  0  0  0
  151.3937  130.4269  155.6193 C   0  0  0  0  0  0  0  0  0  0  0  0
  150.5464  129.5360  154.8189 C   0  0  0  0  0  0  0  0  0  0  0  0
  150.7177  128.3173  154.7990 O   0  0  0  0  0  0  0  0  0  0  0  0
  144.6846  130.9123  151.1038 C   0  0  0  0  0  0  0  0  0  0  0  0
  143.4602  134.7478  149.6636 H   0  0  0  0  0  0  0  0  0  0  0  0
  145.1796  134.7668  149.3847 H   0  0  0  0  0  0  0  0  0  0  0  0
  144.5293  135.5147  150.8216 H   0  0  0  0  0  0  0  0  0  0  0  0
  143.2282  132.5379  152.6421 H   0  0  0  0  0  0  0  0  0  0  0  0
  142.3771  133.5192  151.4797 H   0  0  0  0  0  0  0  0  0  0  0  0
  143.4509  134.2680  152.6459 H   0  0  0  0  0  0  0  0  0  0  0  0
  143.6021  131.9353  149.4648 H   0  0  0  0  0  0  0  0  0  0  0  0
  146.1599  131.1968  148.9382 H   0  0  0  0  0  0  0  0  0  0  0  0
  145.6688  132.7873  148.3854 H   0  0  0  0  0  0  0  0  0  0  0  0
  147.6729  132.2518  150.4205 H   0  0  0  0  0  0  0  0  0  0  0  0
  147.0887  133.8061  149.9171 H   0  0  0  0  0  0  0  0  0  0  0  0
  147.4601  133.6731  152.8931 H   0  0  0  0  0  0  0  0  0  0  0  0
  145.8342  134.0324  153.4626 H   0  0  0  0  0  0  0  0  0  0  0  0
  146.5384  134.9655  152.1456 H   0  0  0  0  0  0  0  0  0  0  0  0
  145.1571  131.5825  153.1133 H   0  0  0  0  0  0  0  0  0  0  0  0
  147.5181  130.7768  151.4999 H   0  0  0  0  0  0  0  0  0  0  0  0
  148.5356  128.3321  153.6482 H   0  0  0  0  0  0  0  0  0  0  0  0
  148.9423  129.2910  152.2632 H   0  0  0  0  0  0  0  0  0  0  0  0
  148.5193  131.8843  153.5377 H   0  0  0  0  0  0  0  0  0  0  0  0
  151.8403  132.3744  156.2562 H   0  0  0  0  0  0  0  0  0  0  0  0
  152.1975  130.0014  156.2023 H   0  0  0  0  0  0  0  0  0  0  0  0
  143.7407  130.6255  151.5681 H   0  0  0  0  0  0  0  0  0  0  0  0
  145.0834  130.0140  150.6296 H   0  0  0  0  0  0  0  0  0  0  0  0
  1  2  1  0  0  0  0
  1 25  1  0  0  0  0
  1 26  1  0  0  0  0
  1 27  1  0  0  0  0
  2  7  1  0  0  0  0
  2  3  1  0  0  0  0
  2  4  1  0  0  0  0
  3 28  1  0  0  0  0
  3 29  1  0  0  0  0
  3 30  1  0  0  0  0
  4 24  1  0  0  0  0
  4  5  1  0  0  0  0
  4 31  1  0  0  0  0
  5  6  1  0  0  0  0
  5 32  1  0  0  0  0
  5 33  1  0  0  0  0
  6  7  1  0  0  0  0
  6 34  1  0  0  0  0
  6 35  1  0  0  0  0
  7  8  1  0  0  0  0
  7  9  1  0  0  0  0
  8 36  1  0  0  0  0
  8 37  1  0  0  0  0
  8 38  1  0  0  0  0
  9 10  1  0  0  0  0
  9 24  1  0  0  0  0
  9 39  1  0  0  0  0
 10 11  1  0  0  0  0
 10 40  1  0  0  0  0
 11 12  2  0  0  0  0
 11 13  1  0  0  0  0
 13 14  1  0  0  0  0
 13 41  1  0  0  0  0
 13 42  1  0  0  0  0
 14 22  1  0  0  0  0
 14 15  1  0  0  0  0
 15 16  2  0  0  0  0
 15 43  1  0  0  0  0
 16 17  1  0  0  0  0
 16 20  1  0  0  0  0
 17 18  2  0  0  0  0
 17 19  1  0  0  0  0
 20 21  2  0  0  0  0
 20 44  1  0  0  0  0
 21 22  1  0  0  0  0
 21 45  1  0  0  0  0
 22 23  2  0  0  0  0
 24 46  1  0  0  0  0
 24 47  1  0  0  0  0
M  CHG  1  17   1
M  CHG  1  19  -1
M  END
> <s_m_source_file>
AV-unprocessed.smi

> <i_m_source_file_index>
911

> <i_lp_mmshare_version>
43012

> <i_f3d_flags>
0

> <s_epik_input>
W0NIM11bQ0BdMTJDKFtDSDNdKShbQ0gzXSlbQ0BIXShbQ0gyXVtDSDJdMSlbQ0gyXVtDQEBIXTJbTkhdQyg9TylbQ0gyXW4zW2NIXWMoW04rXSg9TylbTy1dKVtjSF1bY0hdYzM9Tw==

> <s_epik_cmdline>
J2VwaWtfcHl0aG9uJywgJy1waCcsICc3LjAnLCAnLXRuJywgJzgnLCAnLW1hJywgJzIwMCcsICctbWV0YWxfYmluZGluZycsICctaW1hZScsICc8aW5maWxlLm1hZT4nLCAnLW9tYWUnLCAnPG91dGZpbGUubWFlPic=

> <r_lp_tautomer_probability>
1

> <r_epik_Ionization_Penalty>
2.04092e-08

> <r_epik_Ionization_Penalty_Charging>
8.54191e-11

> <r_epik_Ionization_Penalty_Neutral>
2.03238e-08

> <r_epik_State_Penalty>
-0

> <r_epik_Charging_Adjusted_Penalty>
8.54191e-11

> <i_epik_Tot_Q>
0

> <i_epik_Tot_abs_Q>
2

> <r_epik_Metal_State_Penalty>
-0

> <b_epik_Metal_Only>
0

> <s_lp_Force_Field>
OPLS_2005

> <r_lp_Energy>
68.3511

> <b_lp_Chiralities_Consistent>
1

> <s_lp_Variant>
AV-unprocessed.smi:911-4

> <Gold.Version>
5.8.1

> <Gold.Id.Protein>
6NUR|6NUR_protein|mol2

> <Gold.PLP.Fitness>
43.9811

> <Gold.PLP.PLP>
-42.3967

> <Gold.PLP.part.hbond>
-1.0000

> <Gold.PLP.part.metal>
0.0000

> <Gold.PLP.part.buried>
-2.6672

> <Gold.PLP.part.nonpolar>
-38.3944

> <Gold.PLP.part.repulsive>
0.8518

> <Gold.PLP.ligand.clash>
0.0000

> <Gold.PLP.ligand.torsion>
0.7201

> <Gold.PLP.Chemscore.Hbond>
1.0000

> <Gold.PLP.Chemscore.CHOScore>
0.0000

> <Gold.PLP.Chemscore.Metal>
0.0000

> <Gold.Chemscore.Hbonds>
donor molecule, donor type, donor heavy atom, donor atom, acceptor molecule, acceptor atom, score
      L1  H    10    40       P1 10747  1.00

> <Gold.PLP.Chemscore.Internal.Correction>
0.0247

> <Gold.Rescore>
     Score         DG    S(hbond)    S(metal)    S(lipo)     H(rot)  DE(clash)    DE(int)     intcor
     15.81     -17.61       1.00        0.00     108.58       1.53       1.31       0.49       ----

> <Gold.Chemscore.Fitness>
15.8145

> <Gold.Chemscore.DG>
-17.6104

> <Gold.Chemscore.ZeroCoef>
-5.4800

> <Gold.Chemscore.Hbond>
0.9992

> <Gold.Chemscore.Metal>
0.0000

> <Gold.Chemscore.Lipo>
108.5813

> <Gold.Chemscore.Internal_Hbond>
0.0000

> <Gold.Chemscore.DEClash>
1.3095

> <Gold.Chemscore.DEInternal>
0.4864

> <Gold.Chemscore.Rot>
1.5277

> <Gold.Chemscore.Internal.Correction>
   9.000000E+99

> <Gold.Chemscore.Hbonds>
donor molecule, donor type, donor heavy atom, donor atom, acceptor molecule, acceptor atom, score
      L1  H    10    40       P1 10747  1.00

> <Gold.Chemscore.Hbond.Weighted>
-3.3374

> <Gold.Chemscore.Metal.Weighted>
-0.0000

> <Gold.Chemscore.Lipo.Weighted>
-12.7040

> <Gold.Chemscore.Internal_Hbond.Weighted>
0.0000

> <Gold.Chemscore.DEClash.Weighted>
1.3095

> <Gold.Chemscore.DEInternal.Weighted>
0.4864

> <Gold.Chemscore.Rot.Weighted>
3.9110

> <Gold.Chemscore.Internal.Correction.Weighted>
   9.000000E+99

> <Gold.Protein.RotatedTorsions>
[ 6907 6896 6895 6894 ] final  -81.08 input  -60.11 | X-H torsion
[ 7974 7965 7964 7962 ] final -154.32 input  175.53 | X-H torsion
[ 8008 7997 7996 7995 ] final   89.42 input   59.86 | X-H torsion
[ 10167 10162 10161 10158 ] final   27.92 input  -65.29 | X-H torsion
[ 10718 10713 10712 10709 ] final -120.85 input   66.30 | X-H torsion
[ 10763 10752 10751 10750 ] final   87.83 input  -60.55 | X-H torsion
[ 11005 11000 10999 10996 ] final -108.81 input  -57.11 | X-H torsion

> <Gold.Protein.ActiveResidues>
 VAL166  LYS551  ARG553  GLY616  TRP617  ASP618  TYR619  PRO620  LYS621  CYS622 
 ASP623  PHE694  ASN695  SER759  ASP760  ASP761  ALA762  ILE779  LEU786  VAL792 
 PHE793  MET794  SER795  GLU796  ALA797  LYS798  CYS799  TRP800  GLU811  SER814 

> <Gold.Protein.RotatedAtoms>
  150.6918  134.3871  159.5059 H   0  0  0  0  0  0  0  0  0  0  0  0  # atno 6907 bound_to 6896
  152.1665  134.8866  160.0547 H   0  0  0  0  0  0  0  0  0  0  0  0  # atno 6908 bound_to 6896
  151.9909  133.3755  159.4181 H   0  0  0  0  0  0  0  0  0  0  0  0  # atno 6909 bound_to 6896
  144.7695  140.4404  143.5917 H   0  0  0  0  0  0  0  0  0  0  0  0  # atno 7974 bound_to 7965
  155.9997  140.3361  155.6834 H   0  0  0  0  0  0  0  0  0  0  0  0  # atno 8008 bound_to 7997
  155.6307  140.0684  157.2668 H   0  0  0  0  0  0  0  0  0  0  0  0  # atno 8009 bound_to 7997
  154.4245  140.1760  156.1456 H   0  0  0  0  0  0  0  0  0  0  0  0  # atno 8010 bound_to 7997
  140.4897  144.0487  150.6292 H   0  0  0  0  0  0  0  0  0  0  0  0  # atno 10167 bound_to 10162
  156.1290  130.6381  150.9591 H   0  0  0  0  0  0  0  0  0  0  0  0  # atno 10718 bound_to 10713
  153.1708  135.4529  154.9899 H   0  0  0  0  0  0  0  0  0  0  0  0  # atno 10763 bound_to 10752
  154.7964  135.3239  154.7658 H   0  0  0  0  0  0  0  0  0  0  0  0  # atno 10764 bound_to 10752
  153.8135  135.6953  153.4892 H   0  0  0  0  0  0  0  0  0  0  0  0  # atno 10765 bound_to 10752
  141.0881  133.9102  157.2138 H   0  0  0  0  0  0  0  0  0  0  0  0  # atno 11005 bound_to 11000
  145.6366  139.1544  143.2939 LP  0  0  0  0  0  0  0  0  0  0  0  0  # atno 17320 bound_to 7965
  146.1831  140.6466  142.9180 LP  0  0  0  0  0  0  0  0  0  0  0  0  # atno 17321 bound_to 7965
  140.3752  143.2832  152.0233 LP  0  0  0  0  0  0  0  0  0  0  0  0  # atno 17342 bound_to 10162
  139.4849  144.6198  151.7277 LP  0  0  0  0  0  0  0  0  0  0  0  0  # atno 17343 bound_to 10162
  157.6470  131.0902  150.8132 LP  0  0  0  0  0  0  0  0  0  0  0  0  # atno 17370 bound_to 10713
  156.8219  130.4987  149.5342 LP  0  0  0  0  0  0  0  0  0  0  0  0  # atno 17371 bound_to 10713
  139.9703  135.0130  156.9494 LP  0  0  0  0  0  0  0  0  0  0  0  0  # atno 17394 bound_to 11000
  140.5315  134.0809  155.7317 LP  0  0  0  0  0  0  0  0  0  0  0  0  # atno 17395 bound_to 11000

$$$$
