AV-unprocessed.smi:514|AV-procd|sdf|2778|dock3
  -GOLD-   2262023243D 1   1.00000     0.00000
 Structure written by MMmdl.
 45 47  0  0  0  0  0  0  0  0  3 V2000
  153.1942  138.5042  154.6726 C   0  0  0  0  0  0  0  0  0  0  0  0
  152.1627  139.2865  155.4885 C   0  0  0  0  0  0  0  0  0  0  0  0
  151.1110  139.6939  154.6300 O   0  0  0  0  0  0  0  0  0  0  0  0
  150.2205  138.6366  154.3166 C   0  0  0  0  0  0  0  0  0  0  0  0
  149.6410  138.0788  155.6268 C   0  0  0  0  0  0  0  0  0  0  0  0
  148.7983  136.9060  155.4082 N   0  0  0  0  0  0  0  0  0  0  0  0
  147.6397  136.7999  154.6935 C   0  0  0  0  0  0  0  0  0  0  0  0
  147.0533  137.8654  153.9940 N   0  0  0  0  0  0  0  0  0  0  0  0
  147.0355  139.2372  154.5047 C   0  0  0  0  0  0  0  0  0  0  0  0
  147.5304  140.2441  153.4507 C   0  0  0  0  0  0  0  0  0  0  0  0
  146.7246  140.1446  152.2173 N   0  3  0  0  0  0  0  0  0  0  0  0
  146.6449  138.7619  151.7058 C   0  0  0  0  0  0  0  0  0  0  0  0
  146.1819  137.8024  152.8181 C   0  0  0  0  0  0  0  0  0  0  0  0
  147.0770  135.5900  154.7444 N   0  0  0  0  0  0  0  0  0  0  0  0
  147.9494  134.8609  155.5346 C   0  0  0  0  0  0  0  0  0  0  0  0
  148.9883  135.6302  155.9532 C   0  0  0  0  0  0  0  0  0  0  0  0
  150.0673  135.1377  156.8400 C   0  0  0  0  0  0  0  0  0  0  0  0
  150.9720  135.8811  157.2136 O   0  0  0  0  0  0  0  0  0  0  0  0
  149.9106  133.8146  157.1613 N   0  5  0  0  0  0  0  0  0  0  0  0
  148.8779  132.9984  156.7529 C   0  0  0  0  0  0  0  0  0  0  0  0
  148.8124  131.8149  157.0882 O   0  0  0  0  0  0  0  0  0  0  0  0
  147.8884  133.5032  155.9509 N   0  0  0  0  0  0  0  0  0  0  0  0
  146.7719  132.6624  155.5096 C   0  0  0  0  0  0  0  0  0  0  0  0
  154.0201  138.1748  155.3031 H   0  0  0  0  0  0  0  0  0  0  0  0
  153.6080  139.1191  153.8732 H   0  0  0  0  0  0  0  0  0  0  0  0
  152.7456  137.6204  154.2184 H   0  0  0  0  0  0  0  0  0  0  0  0
  151.7724  138.6605  156.2922 H   0  0  0  0  0  0  0  0  0  0  0  0
  152.6340  140.1576  155.9460 H   0  0  0  0  0  0  0  0  0  0  0  0
  149.4280  139.0022  153.6634 H   0  0  0  0  0  0  0  0  0  0  0  0
  150.7459  137.8560  153.7664 H   0  0  0  0  0  0  0  0  0  0  0  0
  150.4455  137.8143  156.3125 H   0  0  0  0  0  0  0  0  0  0  0  0
  149.0731  138.8415  156.1533 H   0  0  0  0  0  0  0  0  0  0  0  0
  146.0228  139.4873  154.8235 H   0  0  0  0  0  0  0  0  0  0  0  0
  147.6647  139.3156  155.3918 H   0  0  0  0  0  0  0  0  0  0  0  0
  147.4725  141.2618  153.8370 H   0  0  0  0  0  0  0  0  0  0  0  0
  148.5767  140.0513  153.2096 H   0  0  0  0  0  0  0  0  0  0  0  0
  145.7878  140.4576  152.4273 H   0  0  0  0  0  0  0  0  0  0  0  0
  145.9552  138.7302  150.8624 H   0  0  0  0  0  0  0  0  0  0  0  0
  147.6246  138.4674  151.3286 H   0  0  0  0  0  0  0  0  0  0  0  0
  146.1097  136.7900  152.4336 H   0  0  0  0  0  0  0  0  0  0  0  0
  145.1687  138.0644  153.1268 H   0  0  0  0  0  0  0  0  0  0  0  0
  147.1351  131.8419  154.8896 H   0  0  0  0  0  0  0  0  0  0  0  0
  146.0354  133.2135  154.9256 H   0  0  0  0  0  0  0  0  0  0  0  0
  146.2497  132.2369  156.3677 H   0  0  0  0  0  0  0  0  0  0  0  0
  147.1198  140.7446  151.5076 H   0  0  0  0  0  0  0  0  0  0  0  0
  1  2  1  0  0  0  0
  1 24  1  0  0  0  0
  1 25  1  0  0  0  0
  1 26  1  0  0  0  0
  2  3  1  0  0  0  0
  2 27  1  0  0  0  0
  2 28  1  0  0  0  0
  3  4  1  0  0  0  0
  4  5  1  0  0  0  0
  4 29  1  0  0  0  0
  4 30  1  0  0  0  0
  5  6  1  0  0  0  0
  5 31  1  0  0  0  0
  5 32  1  0  0  0  0
  6 16  1  0  0  0  0
  6  7  1  0  0  0  0
  7  8  1  0  0  0  0
  7 14  2  0  0  0  0
  8 13  1  0  0  0  0
  8  9  1  0  0  0  0
  9 10  1  0  0  0  0
  9 33  1  0  0  0  0
  9 34  1  0  0  0  0
 10 11  1  0  0  0  0
 10 35  1  0  0  0  0
 10 36  1  0  0  0  0
 11 12  1  0  0  0  0
 11 37  1  0  0  0  0
 11 45  1  0  0  0  0
 12 13  1  0  0  0  0
 12 38  1  0  0  0  0
 12 39  1  0  0  0  0
 13 40  1  0  0  0  0
 13 41  1  0  0  0  0
 14 15  1  0  0  0  0
 15 22  1  0  0  0  0
 15 16  2  0  0  0  0
 16 17  1  0  0  0  0
 17 18  2  0  0  0  0
 17 19  1  0  0  0  0
 19 20  1  0  0  0  0
 20 21  2  0  0  0  0
 20 22  1  0  0  0  0
 22 23  1  0  0  0  0
 23 42  1  0  0  0  0
 23 43  1  0  0  0  0
 23 44  1  0  0  0  0
M  CHG  1  11   1
M  CHG  1  19  -1
M  END
> <s_m_source_file>
AV-unprocessed.smi

> <i_m_source_file_index>
514

> <i_lp_mmshare_version>
43012

> <i_f3d_flags>
0

> <s_epik_input>
W0NIM11uMWMoPU8pW25IXWMoPU8pYyhjMTIpbihbQ0gyXVtDSDJdT1tDSDJdW0NIM10pYyhuMilOM1tDSDJdW0NIMl1bTkhdW0NIMl1bQ0gyXTM=

> <s_epik_cmdline>
J2VwaWtfcHl0aG9uJywgJy1waCcsICc3LjAnLCAnLXRuJywgJzgnLCAnLW1hJywgJzIwMCcsICctbWV0YWxfYmluZGluZycsICctaW1hZScsICc8aW5maWxlLm1hZT4nLCAnLW9tYWUnLCAnPG91dGZpbGUubWFlPic=

> <r_epik_Ionization_Penalty>
5.92505

> <r_epik_Ionization_Penalty_Charging>
0.0655308

> <r_epik_Ionization_Penalty_Neutral>
5.85952

> <r_epik_State_Penalty>
5.86593

> <r_epik_Charging_Adjusted_Penalty>
5.93146

> <i_epik_Tot_Q>
0

> <i_epik_Tot_abs_Q>
2

> <r_epik_Metal_State_Penalty>
1.83024

> <b_epik_Metal_Only>
1

> <s_lp_Force_Field>
OPLS_2005

> <r_lp_Energy>
48.6867

> <b_lp_Chiralities_Consistent>
1

> <s_lp_Variant>
AV-unprocessed.smi:514-3

> <Gold.Version>
5.8.1

> <Gold.Id.Protein>
6NUR|6NUR_protein|mol2

> <Gold.PLP.Fitness>
41.0893

> <Gold.PLP.PLP>
-27.0111

> <Gold.PLP.part.hbond>
-3.7371

> <Gold.PLP.part.metal>
0.0000

> <Gold.PLP.part.buried>
-4.2092

> <Gold.PLP.part.nonpolar>
-20.5675

> <Gold.PLP.part.repulsive>
0.2014

> <Gold.PLP.ligand.clash>
0.0000

> <Gold.PLP.ligand.torsion>
0.5418

> <Gold.PLP.Chemscore.Hbond>
5.0000

> <Gold.PLP.Chemscore.CHOScore>
0.0000

> <Gold.PLP.Chemscore.Metal>
0.0000

> <Gold.Chemscore.Hbonds>
donor molecule, donor type, donor heavy atom, donor atom, acceptor molecule, acceptor atom, score
      L1  H    11    37       P1 10175  1.69
      P1  H  6896  6907       L1    19  0.52
      P1  H  7989  7998       L1     3  1.00

> <Gold.PLP.Chemscore.Internal.Correction>
0.1619

> <Gold.Rescore>
     Score         DG    S(hbond)    S(metal)    S(lipo)     H(rot)  DE(clash)    DE(int)     intcor
     13.49     -15.24       2.55        0.00      48.24       1.72       0.15       1.60       ----

> <Gold.Chemscore.Fitness>
13.4936

> <Gold.Chemscore.DG>
-15.2380

> <Gold.Chemscore.ZeroCoef>
-5.4800

> <Gold.Chemscore.Hbond>
2.5510

> <Gold.Chemscore.Metal>
0.0000

> <Gold.Chemscore.Lipo>
48.2441

> <Gold.Chemscore.Internal_Hbond>
0.0000

> <Gold.Chemscore.DEClash>
0.1476

> <Gold.Chemscore.DEInternal>
1.5968

> <Gold.Chemscore.Rot>
1.7214

> <Gold.Chemscore.Internal.Correction>
   9.000000E+99

> <Gold.Chemscore.Hbonds>
donor molecule, donor type, donor heavy atom, donor atom, acceptor molecule, acceptor atom, score
      L1  H    11    37       P1 10175  0.41
      P1  H  6896  6907       L1    19  0.04
      P1  H  7989  7998       L1     3  0.82

> <Gold.Chemscore.Hbond.Weighted>
-8.5203

> <Gold.Chemscore.Metal.Weighted>
-0.0000

> <Gold.Chemscore.Lipo.Weighted>
-5.6446

> <Gold.Chemscore.Internal_Hbond.Weighted>
0.0000

> <Gold.Chemscore.DEClash.Weighted>
0.1476

> <Gold.Chemscore.DEInternal.Weighted>
1.5968

> <Gold.Chemscore.Rot.Weighted>
4.4069

> <Gold.Chemscore.Internal.Correction.Weighted>
   9.000000E+99

> <Gold.Protein.RotatedTorsions>
[ 6907 6896 6895 6894 ] final -105.43 input  -60.11 | X-H torsion
[ 7974 7965 7964 7962 ] final    4.26 input  175.53 | X-H torsion
[ 8008 7997 7996 7995 ] final -106.92 input   59.86 | X-H torsion
[ 10167 10162 10161 10158 ] final  -46.20 input  -65.29 | X-H torsion
[ 10718 10713 10712 10709 ] final -149.12 input   66.30 | X-H torsion
[ 10763 10752 10751 10750 ] final  -96.93 input  -60.55 | X-H torsion
[ 11005 11000 10999 10996 ] final   57.46 input  -57.11 | X-H torsion

> <Gold.Protein.ActiveResidues>
 VAL166  LYS551  ARG553  GLY616  TRP617  ASP618  TYR619  PRO620  LYS621  CYS622 
 ASP623  PHE694  ASN695  SER759  ASP760  ASP761  ALA762  ILE779  LEU786  VAL792 
 PHE793  MET794  SER795  GLU796  ALA797  LYS798  CYS799  TRP800  GLU811  SER814 

> <Gold.Protein.RotatedAtoms>
  150.7336  134.0128  159.3675 H   0  0  0  0  0  0  0  0  0  0  0  0  # atno 6907 bound_to 6896
  151.8089  135.0684  160.0419 H   0  0  0  0  0  0  0  0  0  0  0  0  # atno 6908 bound_to 6896
  152.3087  133.5694  159.5703 H   0  0  0  0  0  0  0  0  0  0  0  0  # atno 6909 bound_to 6896
  146.2444  140.0561  142.8371 H   0  0  0  0  0  0  0  0  0  0  0  0  # atno 7974 bound_to 7965
  154.9217  140.0407  157.2001 H   0  0  0  0  0  0  0  0  0  0  0  0  # atno 8008 bound_to 7997
  154.8247  140.2889  155.5741 H   0  0  0  0  0  0  0  0  0  0  0  0  # atno 8009 bound_to 7997
  156.2982  140.2512  156.3161 H   0  0  0  0  0  0  0  0  0  0  0  0  # atno 8010 bound_to 7997
  140.6827  143.2842  151.3748 H   0  0  0  0  0  0  0  0  0  0  0  0  # atno 10167 bound_to 10162
  156.4291  130.8066  151.2293 H   0  0  0  0  0  0  0  0  0  0  0  0  # atno 10718 bound_to 10713
  154.7283  135.5065  153.8923 H   0  0  0  0  0  0  0  0  0  0  0  0  # atno 10763 bound_to 10752
  153.0926  135.6663  153.9833 H   0  0  0  0  0  0  0  0  0  0  0  0  # atno 10764 bound_to 10752
  153.9640  135.3045  155.3411 H   0  0  0  0  0  0  0  0  0  0  0  0  # atno 10765 bound_to 10752
  140.0451  134.5818  155.9333 H   0  0  0  0  0  0  0  0  0  0  0  0  # atno 11005 bound_to 11000
  145.0941  140.9304  143.4751 LP  0  0  0  0  0  0  0  0  0  0  0  0  # atno 17320 bound_to 7965
  145.0740  139.3010  143.5818 LP  0  0  0  0  0  0  0  0  0  0  0  0  # atno 17321 bound_to 7965
  139.6162  144.0999  152.2347 LP  0  0  0  0  0  0  0  0  0  0  0  0  # atno 17342 bound_to 10162
  140.0429  144.5993  150.7397 LP  0  0  0  0  0  0  0  0  0  0  0  0  # atno 17343 bound_to 10162
  157.7508  131.0204  150.3707 LP  0  0  0  0  0  0  0  0  0  0  0  0  # atno 17370 bound_to 10713
  156.4040  130.3921  149.6939 LP  0  0  0  0  0  0  0  0  0  0  0  0  # atno 17371 bound_to 10713
  141.1903  133.6568  156.5404 LP  0  0  0  0  0  0  0  0  0  0  0  0  # atno 17394 bound_to 11000
  140.4007  134.7359  157.4778 LP  0  0  0  0  0  0  0  0  0  0  0  0  # atno 17395 bound_to 11000

$$$$
