AV-unprocessed.smi:787|AV-procd|sdf|3726|dock7
  -GOLD-   22720 1153D 1   1.00000     0.00000
 Structure written by MMmdl.
 47 49  0  0  0  0  0  0  0  0  2 V2000
  151.2387  136.8821  154.9066 C   0  0  0  0  0  0  0  0  0  0  0  0
  150.3083  137.6709  154.1148 N   0  0  0  0  0  0  0  0  0  0  0  0
  150.0817  139.0222  154.4133 C   0  0  0  0  0  0  0  0  0  0  0  0
  151.0631  139.7670  154.9717 N   0  0  0  0  0  0  0  0  0  0  0  0
  150.7998  141.0544  155.2336 C   0  0  0  0  0  0  0  0  0  0  0  0
  149.6696  141.7467  155.0208 N   0  0  0  0  0  0  0  0  0  0  0  0
  148.6903  141.0167  154.4700 C   0  0  0  0  0  0  0  0  0  0  0  0
  147.4224  141.4668  154.1433 N   0  0  0  0  0  0  0  0  0  0  0  0
  146.8639  140.3676  153.6423 C   0  0  0  0  0  0  0  0  0  0  0  0
  147.6159  139.2496  153.6085 N   0  0  0  0  0  0  0  0  0  0  0  0
  147.2165  137.9439  153.1162 C   0  0  0  0  0  0  0  0  0  0  0  0
  146.0641  138.0327  152.0934 C   0  0  1  0  0  0  0  0  0  0  0  0
  146.5526  138.5900  150.8904 O   0  0  0  0  0  0  0  0  0  0  0  0
  145.4491  136.6575  151.7753 C   0  0  0  0  0  0  0  0  0  0  0  0
  143.9966  136.6165  152.0916 N   0  3  1  0  0  0  0  0  0  0  0  0
  143.4141  135.2639  151.9342 C   0  0  0  0  0  0  0  0  0  0  0  0
  143.6560  137.2203  153.4031 C   0  0  0  0  0  0  0  0  0  0  0  0
  142.1531  137.3329  153.5932 C   0  0  0  0  0  0  0  0  0  0  0  0
  141.5064  138.5673  153.3719 C   0  0  0  0  0  0  0  0  0  0  0  0
  140.1155  138.6817  153.5614 C   0  0  0  0  0  0  0  0  0  0  0  0
  139.3654  137.5618  153.9687 C   0  0  0  0  0  0  0  0  0  0  0  0
  140.0065  136.3270  154.1866 C   0  0  0  0  0  0  0  0  0  0  0  0
  141.3974  136.2119  153.9983 C   0  0  0  0  0  0  0  0  0  0  0  0
  148.8423  139.6357  154.1440 C   0  0  0  0  0  0  0  0  0  0  0  0
  151.2791  135.8613  154.5265 H   0  0  0  0  0  0  0  0  0  0  0  0
  150.9236  136.8459  155.9501 H   0  0  0  0  0  0  0  0  0  0  0  0
  152.2430  137.3043  154.8580 H   0  0  0  0  0  0  0  0  0  0  0  0
  149.8235  137.2368  153.3446 H   0  0  0  0  0  0  0  0  0  0  0  0
  151.6100  141.6132  155.6781 H   0  0  0  0  0  0  0  0  0  0  0  0
  145.8449  140.3747  153.2832 H   0  0  0  0  0  0  0  0  0  0  0  0
  148.0841  137.4512  152.6743 H   0  0  0  0  0  0  0  0  0  0  0  0
  146.9280  137.3371  153.9746 H   0  0  0  0  0  0  0  0  0  0  0  0
  145.2901  138.7050  152.4624 H   0  0  0  0  0  0  0  0  0  0  0  0
  145.8275  138.7089  150.2954 H   0  0  0  0  0  0  0  0  0  0  0  0
  145.5940  136.4018  150.7241 H   0  0  0  0  0  0  0  0  0  0  0  0
  145.9940  135.9014  152.3407 H   0  0  0  0  0  0  0  0  0  0  0  0
  143.8172  134.5759  152.6786 H   0  0  0  0  0  0  0  0  0  0  0  0
  143.6213  134.8548  150.9456 H   0  0  0  0  0  0  0  0  0  0  0  0
  142.3303  135.2963  152.0512 H   0  0  0  0  0  0  0  0  0  0  0  0
  144.0427  136.5968  154.2109 H   0  0  0  0  0  0  0  0  0  0  0  0
  144.1358  138.1953  153.5037 H   0  0  0  0  0  0  0  0  0  0  0  0
  142.0756  139.4313  153.0612 H   0  0  0  0  0  0  0  0  0  0  0  0
  139.6232  139.6286  153.3940 H   0  0  0  0  0  0  0  0  0  0  0  0
  138.2983  137.6491  154.1126 H   0  0  0  0  0  0  0  0  0  0  0  0
  139.4305  135.4679  154.4979 H   0  0  0  0  0  0  0  0  0  0  0  0
  141.8808  135.2609  154.1694 H   0  0  0  0  0  0  0  0  0  0  0  0
  143.5425  137.2025  151.4062 H   0  0  0  0  0  0  0  0  0  0  0  0
  1  2  1  0  0  0  0
  1 25  1  0  0  0  0
  1 26  1  0  0  0  0
  1 27  1  0  0  0  0
  2  3  1  0  0  0  0
  2 28  1  0  0  0  0
  3 24  1  0  0  0  0
  3  4  2  0  0  0  0
  4  5  1  0  0  0  0
  5  6  2  0  0  0  0
  5 29  1  0  0  0  0
  6  7  1  0  0  0  0
  7 24  2  0  0  0  0
  7  8  1  0  0  0  0
  8  9  2  0  0  0  0
  9 10  1  0  0  0  0
  9 30  1  0  0  0  0
 10 11  1  0  0  0  0
 10 24  1  0  0  0  0
 11 12  1  0  0  0  0
 11 31  1  0  0  0  0
 11 32  1  0  0  0  0
 12 13  1  0  0  0  0
 12 14  1  0  0  0  0
 12 33  1  0  0  0  0
 13 34  1  0  0  0  0
 14 15  1  0  0  0  0
 14 35  1  0  0  0  0
 14 36  1  0  0  0  0
 15 16  1  0  0  0  0
 15 17  1  0  0  0  0
 15 47  1  0  0  0  0
 16 37  1  0  0  0  0
 16 38  1  0  0  0  0
 16 39  1  0  0  0  0
 17 18  1  0  0  0  0
 17 40  1  0  0  0  0
 17 41  1  0  0  0  0
 18 23  1  0  0  0  0
 18 19  2  0  0  0  0
 19 20  1  0  0  0  0
 19 42  1  0  0  0  0
 20 21  2  0  0  0  0
 20 43  1  0  0  0  0
 21 22  1  0  0  0  0
 21 44  1  0  0  0  0
 22 23  2  0  0  0  0
 22 45  1  0  0  0  0
 23 46  1  0  0  0  0
M  CHG  1  15   1
M  END
> <s_m_source_file>
AV-unprocessed.smi

> <i_m_source_file_index>
787

> <i_lp_mmshare_version>
43012

> <i_f3d_flags>
0

> <s_epik_input>
bjFbY0hdbmMoW05IXVtDSDNdKWMoYzEyKW4oW2NIXW4yKVtDSDJdW0NASF0oW09IXSlbQ0gyXU4oW0NIM10pW0NIMl1jM1tjSF1bY0hdW2NIXVtjSF1bY0hdMw==

> <s_epik_cmdline>
J2VwaWtfcHl0aG9uJywgJy1waCcsICc3LjAnLCAnLXRuJywgJzgnLCAnLW1hJywgJzIwMCcsICctbWV0YWxfYmluZGluZycsICctaW1hZScsICc8aW5maWxlLm1hZT4nLCAnLW9tYWUnLCAnPG91dGZpbGUubWFlPic=

> <r_lp_tautomer_probability>
0.999987

> <r_epik_Ionization_Penalty>
0.0526284

> <r_epik_Ionization_Penalty_Charging>
0.0475377

> <r_epik_Ionization_Penalty_Neutral>
0.00509065

> <r_epik_State_Penalty>
0.0404888

> <r_epik_Charging_Adjusted_Penalty>
0.0880265

> <i_epik_Tot_Q>
1

> <i_epik_Tot_abs_Q>
1

> <r_epik_Metal_State_Penalty>
0.040507

> <b_epik_Metal_Only>
0

> <s_lp_Force_Field>
OPLS_2005

> <r_lp_Energy>
14.3877

> <b_lp_Chiralities_Consistent>
1

> <s_lp_Variant>
AV-unprocessed.smi:787-2

> <Gold.Version>
5.8.1

> <Gold.Id.Protein>
6NUR|6NUR_protein|mol2

> <Gold.PLP.Fitness>
52.7750

> <Gold.PLP.PLP>
-41.8408

> <Gold.PLP.part.hbond>
-5.5268

> <Gold.PLP.part.metal>
0.0000

> <Gold.PLP.part.buried>
1.5562

> <Gold.PLP.part.nonpolar>
-39.0063

> <Gold.PLP.part.repulsive>
0.7811

> <Gold.PLP.ligand.clash>
0.0000

> <Gold.PLP.ligand.torsion>
1.7038

> <Gold.PLP.Chemscore.Hbond>
3.7102

> <Gold.PLP.Chemscore.CHOScore>
1.0000

> <Gold.PLP.Chemscore.Metal>
0.0000

> <Gold.Chemscore.Hbonds>
donor molecule, donor type, donor heavy atom, donor atom, acceptor molecule, acceptor atom, score
      L1  H     2    28       P1  7948  1.00
      L1  H    13    34       P1 10171  1.00
      L1  H    15    47       P1 10171  0.70
      P1  H  7954  7966       L1    13  0.94
      L1  C     9    30       P1 10175  1.00

> <Gold.PLP.Chemscore.Internal.Correction>
0.2111

> <Gold.Rescore>
     Score         DG    S(hbond)    S(metal)    S(lipo)     H(rot)  DE(clash)    DE(int)     intcor
     14.32     -17.83       3.28        0.00      81.63       3.19       1.85       1.66       ----

> <Gold.Chemscore.Fitness>
14.3169

> <Gold.Chemscore.DG>
-17.8277

> <Gold.Chemscore.ZeroCoef>
-5.4800

> <Gold.Chemscore.Hbond>
3.2845

> <Gold.Chemscore.Metal>
0.0000

> <Gold.Chemscore.Lipo>
81.6340

> <Gold.Chemscore.Internal_Hbond>
0.0000

> <Gold.Chemscore.DEClash>
1.8479

> <Gold.Chemscore.DEInternal>
1.6629

> <Gold.Chemscore.Rot>
3.1928

> <Gold.Chemscore.Internal.Correction>
   9.000000E+99

> <Gold.Chemscore.Hbonds>
donor molecule, donor type, donor heavy atom, donor atom, acceptor molecule, acceptor atom, score
      L1  H     2    28       P1  7948  0.49
      L1  H    13    34       P1 10171  0.94
      L1  H    15    47       P1 10171  0.68
      P1  H  7954  7966       L1    13  0.64

> <Gold.Chemscore.Hbond.Weighted>
-10.9702

> <Gold.Chemscore.Metal.Weighted>
-0.0000

> <Gold.Chemscore.Lipo.Weighted>
-9.5512

> <Gold.Chemscore.Internal_Hbond.Weighted>
0.0000

> <Gold.Chemscore.DEClash.Weighted>
1.8479

> <Gold.Chemscore.DEInternal.Weighted>
1.6629

> <Gold.Chemscore.Rot.Weighted>
8.1736

> <Gold.Chemscore.Internal.Correction.Weighted>
   9.000000E+99

> <Gold.Protein.RotatedTorsions>
[ 6907 6896 6895 6894 ] final  -75.54 input  -60.11 | X-H torsion
[ 7974 7965 7964 7962 ] final  -49.18 input  175.53 | X-H torsion
[ 8008 7997 7996 7995 ] final -176.52 input   59.86 | X-H torsion
[ 10167 10162 10161 10158 ] final  149.91 input  -65.29 | X-H torsion
[ 10718 10713 10712 10709 ] final -163.07 input   66.30 | X-H torsion
[ 10763 10752 10751 10750 ] final   52.26 input  -60.55 | X-H torsion
[ 11005 11000 10999 10996 ] final  -15.90 input  -57.11 | X-H torsion

> <Gold.Protein.ActiveResidues>
 VAL166  LYS551  ARG553  GLY616  TRP617  ASP618  TYR619  PRO620  LYS621  CYS622 
 ASP623  PHE694  ASN695  SER759  ASP760  ASP761  ALA762  ILE779  LEU786  VAL792 
 PHE793  MET794  SER795  GLU796  ALA797  LYS798  CYS799  TRP800  GLU811  SER814 

> <Gold.Protein.RotatedAtoms>
  150.7056  134.4706  159.5423 H   0  0  0  0  0  0  0  0  0  0  0  0  # atno 6907 bound_to 6896
  152.2363  134.8270  160.0476 H   0  0  0  0  0  0  0  0  0  0  0  0  # atno 6908 bound_to 6896
  151.9067  133.3516  159.3886 H   0  0  0  0  0  0  0  0  0  0  0  0  # atno 6909 bound_to 6896
  145.9433  140.7641  142.9541 H   0  0  0  0  0  0  0  0  0  0  0  0  # atno 7974 bound_to 7965
  155.9958  140.1210  157.0595 H   0  0  0  0  0  0  0  0  0  0  0  0  # atno 8008 bound_to 7997
  154.4226  140.1116  156.5697 H   0  0  0  0  0  0  0  0  0  0  0  0  # atno 8009 bound_to 7997
  155.6280  140.3472  155.4676 H   0  0  0  0  0  0  0  0  0  0  0  0  # atno 8010 bound_to 7997
  139.4856  144.5564  151.7309 H   0  0  0  0  0  0  0  0  0  0  0  0  # atno 10167 bound_to 10162
  156.6194  130.8884  151.2954 H   0  0  0  0  0  0  0  0  0  0  0  0  # atno 10718 bound_to 10713
  152.9788  135.5818  154.4550 H   0  0  0  0  0  0  0  0  0  0  0  0  # atno 10763 bound_to 10752
  154.4133  135.2770  155.2024 H   0  0  0  0  0  0  0  0  0  0  0  0  # atno 10764 bound_to 10752
  154.3805  135.6148  153.5842 H   0  0  0  0  0  0  0  0  0  0  0  0  # atno 10765 bound_to 10752
  140.8013  133.8211  155.9473 H   0  0  0  0  0  0  0  0  0  0  0  0  # atno 11005 bound_to 11000
  144.6783  140.2316  143.7354 LP  0  0  0  0  0  0  0  0  0  0  0  0  # atno 17320 bound_to 7965
  145.8270  139.2069  143.1905 LP  0  0  0  0  0  0  0  0  0  0  0  0  # atno 17321 bound_to 7965
  140.5127  144.1001  150.5999 LP  0  0  0  0  0  0  0  0  0  0  0  0  # atno 17342 bound_to 10162
  140.3932  143.2742  152.0036 LP  0  0  0  0  0  0  0  0  0  0  0  0  # atno 17343 bound_to 10162
  157.7232  130.9586  150.1523 LP  0  0  0  0  0  0  0  0  0  0  0  0  # atno 17370 bound_to 10713
  156.2324  130.3683  149.8430 LP  0  0  0  0  0  0  0  0  0  0  0  0  # atno 17371 bound_to 10713
  140.9291  134.2044  157.4875 LP  0  0  0  0  0  0  0  0  0  0  0  0  # atno 17394 bound_to 11000
  139.8721  134.9825  156.5160 LP  0  0  0  0  0  0  0  0  0  0  0  0  # atno 17395 bound_to 11000

$$$$
