AV-unprocessed.smi:1068|AV-procd|sdf|4674|dock4
  -GOLD-   22720 3183D 1   1.00000     0.00000
 Structure written by MMmdl.
 51 52  0  0  0  0  0  0  0  0  1 V2000
  150.2885  130.5170  155.4994 C   0  0  0  0  0  0  0  0  0  0  0  0
  150.7914  131.5553  156.5302 C   0  0  0  0  0  0  0  0  0  0  0  0
  150.1671  131.1489  157.8858 C   0  0  0  0  0  0  0  0  0  0  0  0
  152.3264  131.4842  156.6264 C   0  0  0  0  0  0  0  0  0  0  0  0
  150.3698  132.9804  156.1324 C   0  0  0  0  0  0  0  0  0  0  0  0
  149.6825  133.1176  154.9909 N   0  0  0  0  0  0  0  0  0  0  0  0
  149.4180  134.3704  154.5656 C   0  0  0  0  0  0  0  0  0  0  0  0
  149.8660  135.5077  155.2663 C   0  0  0  0  0  0  0  0  0  0  0  0
  149.5638  136.7954  154.7474 N   0  0  0  0  0  0  0  0  0  0  0  0
  149.5810  137.9802  155.3806 C   0  0  0  0  0  0  0  0  0  0  0  0
  149.8268  138.1484  156.5742 O   0  0  0  0  0  0  0  0  0  0  0  0
  149.2877  138.9823  154.5389 N   0  0  0  0  0  0  0  0  0  0  0  0
  149.2346  140.4001  154.8982 C   0  0  0  0  0  0  0  0  0  0  0  0
  150.4637  140.9219  155.6604 C   0  0  0  0  0  0  0  0  0  0  0  0
  151.5735  140.4696  155.3824 O   0  0  0  0  0  0  0  0  0  0  0  0
  150.2752  141.8552  156.6093 N   0  0  0  0  0  0  0  0  0  0  0  0
  151.3215  142.4732  157.4168 C   0  0  0  0  0  0  0  0  0  0  0  0
  151.9307  141.4477  158.3951 C   0  0  0  0  0  0  0  0  0  0  0  0
  152.9760  142.0999  159.3146 C   0  0  0  0  0  0  0  0  0  0  0  0
  152.3835  143.2986  160.0715 C   0  0  0  0  0  0  0  0  0  0  0  0
  151.7815  144.3256  159.0995 C   0  0  0  0  0  0  0  0  0  0  0  0
  150.7350  143.6762  158.1798 C   0  0  0  0  0  0  0  0  0  0  0  0
  150.6270  135.2503  156.4319 C   0  0  0  0  0  0  0  0  0  0  0  0
  150.8842  133.9910  156.8454 N   0  0  0  0  0  0  0  0  0  0  0  0
  150.5409  129.5006  155.8038 H   0  0  0  0  0  0  0  0  0  0  0  0
  150.7333  130.6694  154.5154 H   0  0  0  0  0  0  0  0  0  0  0  0
  149.2050  130.5643  155.3835 H   0  0  0  0  0  0  0  0  0  0  0  0
  149.0787  131.2156  157.8579 H   0  0  0  0  0  0  0  0  0  0  0  0
  150.5163  131.7808  158.7031 H   0  0  0  0  0  0  0  0  0  0  0  0
  150.4253  130.1229  158.1503 H   0  0  0  0  0  0  0  0  0  0  0  0
  152.6620  130.4854  156.9076 H   0  0  0  0  0  0  0  0  0  0  0  0
  152.7092  132.1821  157.3720 H   0  0  0  0  0  0  0  0  0  0  0  0
  152.7947  131.7327  155.6734 H   0  0  0  0  0  0  0  0  0  0  0  0
  148.8484  134.4632  153.6522 H   0  0  0  0  0  0  0  0  0  0  0  0
  149.2783  136.8135  153.7791 H   0  0  0  0  0  0  0  0  0  0  0  0
  149.0944  138.7523  153.5752 H   0  0  0  0  0  0  0  0  0  0  0  0
  149.1345  140.9758  153.9779 H   0  0  0  0  0  0  0  0  0  0  0  0
  148.3385  140.6042  155.4866 H   0  0  0  0  0  0  0  0  0  0  0  0
  149.3309  142.1731  156.7719 H   0  0  0  0  0  0  0  0  0  0  0  0
  152.1085  142.8431  156.7565 H   0  0  0  0  0  0  0  0  0  0  0  0
  151.1413  141.0041  159.0035 H   0  0  0  0  0  0  0  0  0  0  0  0
  152.3923  140.6281  157.8435 H   0  0  0  0  0  0  0  0  0  0  0  0
  153.3584  141.3647  160.0231 H   0  0  0  0  0  0  0  0  0  0  0  0
  153.8292  142.4292  158.7200 H   0  0  0  0  0  0  0  0  0  0  0  0
  151.6126  142.9513  160.7605 H   0  0  0  0  0  0  0  0  0  0  0  0
  153.1539  143.7712  160.6817 H   0  0  0  0  0  0  0  0  0  0  0  0
  151.3276  145.1445  159.6584 H   0  0  0  0  0  0  0  0  0  0  0  0
  152.5752  144.7664  158.4949 H   0  0  0  0  0  0  0  0  0  0  0  0
  150.3563  144.4174  157.4747 H   0  0  0  0  0  0  0  0  0  0  0  0
  149.8808  143.3546  158.7776 H   0  0  0  0  0  0  0  0  0  0  0  0
  151.0613  136.0315  157.0355 H   0  0  0  0  0  0  0  0  0  0  0  0
  1  2  1  0  0  0  0
  1 25  1  0  0  0  0
  1 26  1  0  0  0  0
  1 27  1  0  0  0  0
  2  3  1  0  0  0  0
  2  4  1  0  0  0  0
  2  5  1  0  0  0  0
  3 28  1  0  0  0  0
  3 29  1  0  0  0  0
  3 30  1  0  0  0  0
  4 31  1  0  0  0  0
  4 32  1  0  0  0  0
  4 33  1  0  0  0  0
  5 24  1  0  0  0  0
  5  6  2  0  0  0  0
  6  7  1  0  0  0  0
  7  8  2  0  0  0  0
  7 34  1  0  0  0  0
  8  9  1  0  0  0  0
  8 23  1  0  0  0  0
  9 10  1  0  0  0  0
  9 35  1  0  0  0  0
 10 11  2  0  0  0  0
 10 12  1  0  0  0  0
 12 13  1  0  0  0  0
 12 36  1  0  0  0  0
 13 14  1  0  0  0  0
 13 37  1  0  0  0  0
 13 38  1  0  0  0  0
 14 15  2  0  0  0  0
 14 16  1  0  0  0  0
 16 17  1  0  0  0  0
 16 39  1  0  0  0  0
 17 22  1  0  0  0  0
 17 18  1  0  0  0  0
 17 40  1  0  0  0  0
 18 19  1  0  0  0  0
 18 41  1  0  0  0  0
 18 42  1  0  0  0  0
 19 20  1  0  0  0  0
 19 43  1  0  0  0  0
 19 44  1  0  0  0  0
 20 21  1  0  0  0  0
 20 45  1  0  0  0  0
 20 46  1  0  0  0  0
 21 22  1  0  0  0  0
 21 47  1  0  0  0  0
 21 48  1  0  0  0  0
 22 49  1  0  0  0  0
 22 50  1  0  0  0  0
 23 24  2  0  0  0  0
 23 51  1  0  0  0  0
M  END
> <s_m_source_file>
AV-unprocessed.smi

> <i_m_source_file_index>
1068

> <i_lp_mmshare_version>
43012

> <i_f3d_flags>
0

> <s_epik_input>
W0NIM11DKFtDSDNdKShbQ0gzXSljMW5bY0hdYyhbY0hdbjEpW05IXUMoPU8pW05IXVtDSDJdQyg9TylbTkhdW0NIXTJbQ0gyXVtDSDJdW0NIMl1bQ0gyXVtDSDJdMg==

> <s_epik_cmdline>
J2VwaWtfcHl0aG9uJywgJy1waCcsICc3LjAnLCAnLXRuJywgJzgnLCAnLW1hJywgJzIwMCcsICctbWV0YWxfYmluZGluZycsICctaW1hZScsICc8aW5maWxlLm1hZT4nLCAnLW9tYWUnLCAnPG91dGZpbGUubWFlPic=

> <r_lp_tautomer_probability>
1

> <r_epik_Ionization_Penalty>
2.47974e-05

> <r_epik_Ionization_Penalty_Charging>
0

> <r_epik_Ionization_Penalty_Neutral>
2.47974e-05

> <r_epik_State_Penalty>
-0

> <r_epik_Charging_Adjusted_Penalty>
0

> <i_epik_Tot_Q>
0

> <i_epik_Tot_abs_Q>
0

> <r_epik_Metal_State_Penalty>
-0

> <b_epik_Metal_Only>
0

> <s_lp_Force_Field>
OPLS_2005

> <r_lp_Energy>
3.00881

> <b_lp_Chiralities_Consistent>
1

> <s_lp_Variant>
AV-unprocessed.smi:1068-1

> <Gold.Version>
5.8.1

> <Gold.Id.Protein>
6NUR|6NUR_protein|mol2

> <Gold.PLP.Fitness>
47.3508

> <Gold.PLP.PLP>
-40.4805

> <Gold.PLP.part.hbond>
-2.4505

> <Gold.PLP.part.metal>
0.0000

> <Gold.PLP.part.buried>
-5.3498

> <Gold.PLP.part.nonpolar>
-31.9370

> <Gold.PLP.part.repulsive>
0.1917

> <Gold.PLP.ligand.clash>
0.0000

> <Gold.PLP.ligand.torsion>
0.7025

> <Gold.PLP.Chemscore.Hbond>
1.8160

> <Gold.PLP.Chemscore.CHOScore>
0.8873

> <Gold.PLP.Chemscore.Metal>
0.0000

> <Gold.Chemscore.Hbonds>
donor molecule, donor type, donor heavy atom, donor atom, acceptor molecule, acceptor atom, score
      L1  H     9    35       P1  7948  1.00
      P1  H  6896  6909       L1    24  0.06
      P1  H  7989  7998       L1    15  0.82
      L1  C     7    34       P1  7948  0.98

> <Gold.PLP.Chemscore.Internal.Correction>
0.1654

> <Gold.Rescore>
     Score         DG    S(hbond)    S(metal)    S(lipo)     H(rot)  DE(clash)    DE(int)     intcor
     16.52     -19.13       1.87        0.00      99.12       1.64       0.01       2.60       ----

> <Gold.Chemscore.Fitness>
16.5231

> <Gold.Chemscore.DG>
-19.1325

> <Gold.Chemscore.ZeroCoef>
-5.4800

> <Gold.Chemscore.Hbond>
1.8749

> <Gold.Chemscore.Metal>
0.0000

> <Gold.Chemscore.Lipo>
99.1182

> <Gold.Chemscore.Internal_Hbond>
0.0000

> <Gold.Chemscore.DEClash>
0.0060

> <Gold.Chemscore.DEInternal>
2.6034

> <Gold.Chemscore.Rot>
1.6431

> <Gold.Chemscore.Internal.Correction>
   9.000000E+99

> <Gold.Chemscore.Hbonds>
donor molecule, donor type, donor heavy atom, donor atom, acceptor molecule, acceptor atom, score
      L1  H     9    35       P1  7948  0.92
      P1  H  6896  6909       L1    24  0.06
      P1  H  7989  7998       L1    15  0.21

> <Gold.Chemscore.Hbond.Weighted>
-6.2620

> <Gold.Chemscore.Metal.Weighted>
-0.0000

> <Gold.Chemscore.Lipo.Weighted>
-11.5968

> <Gold.Chemscore.Internal_Hbond.Weighted>
0.0000

> <Gold.Chemscore.DEClash.Weighted>
0.0060

> <Gold.Chemscore.DEInternal.Weighted>
2.6034

> <Gold.Chemscore.Rot.Weighted>
4.2063

> <Gold.Chemscore.Internal.Correction.Weighted>
   9.000000E+99

> <Gold.Protein.RotatedTorsions>
[ 6907 6896 6895 6894 ] final  -12.33 input  -60.11 | X-H torsion
[ 7974 7965 7964 7962 ] final -161.33 input  175.53 | X-H torsion
[ 8008 7997 7996 7995 ] final -141.07 input   59.86 | X-H torsion
[ 10167 10162 10161 10158 ] final  120.01 input  -65.29 | X-H torsion
[ 10718 10713 10712 10709 ] final   39.01 input   66.30 | X-H torsion
[ 10763 10752 10751 10750 ] final  -38.12 input  -60.55 | X-H torsion
[ 11005 11000 10999 10996 ] final   86.69 input  -57.11 | X-H torsion

> <Gold.Protein.ActiveResidues>
 VAL166  LYS551  ARG553  GLY616  TRP617  ASP618  TYR619  PRO620  LYS621  CYS622 
 ASP623  PHE694  ASN695  SER759  ASP760  ASP761  ALA762  ILE779  LEU786  VAL792 
 PHE793  MET794  SER795  GLU796  ALA797  LYS798  CYS799  TRP800  GLU811  SER814 

> <Gold.Protein.RotatedAtoms>
  151.3722  135.0924  159.9468 H   0  0  0  0  0  0  0  0  0  0  0  0  # atno 6907 bound_to 6896
  152.5132  133.9153  159.7518 H   0  0  0  0  0  0  0  0  0  0  0  0  # atno 6908 bound_to 6896
  150.9569  133.6432  159.2790 H   0  0  0  0  0  0  0  0  0  0  0  0  # atno 6909 bound_to 6896
  144.7395  140.3412  143.6134 H   0  0  0  0  0  0  0  0  0  0  0  0  # atno 7974 bound_to 7965
  155.4718  140.0553  157.2978 H   0  0  0  0  0  0  0  0  0  0  0  0  # atno 8008 bound_to 7997
  154.4695  140.2034  155.9984 H   0  0  0  0  0  0  0  0  0  0  0  0  # atno 8009 bound_to 7997
  156.1032  140.3216  155.7975 H   0  0  0  0  0  0  0  0  0  0  0  0  # atno 8010 bound_to 7997
  139.6009  144.7056  151.3065 H   0  0  0  0  0  0  0  0  0  0  0  0  # atno 10167 bound_to 10162
  157.3656  130.7673  149.7080 H   0  0  0  0  0  0  0  0  0  0  0  0  # atno 10718 bound_to 10713
  153.9076  135.6796  153.4752 H   0  0  0  0  0  0  0  0  0  0  0  0  # atno 10763 bound_to 10752
  153.1095  135.4789  154.9008 H   0  0  0  0  0  0  0  0  0  0  0  0  # atno 10764 bound_to 10752
  154.7543  135.3193  154.8454 H   0  0  0  0  0  0  0  0  0  0  0  0  # atno 10765 bound_to 10752
  139.8938  134.8372  156.2756 H   0  0  0  0  0  0  0  0  0  0  0  0  # atno 11005 bound_to 11000
  145.7372  139.1753  143.2397 LP  0  0  0  0  0  0  0  0  0  0  0  0  # atno 17320 bound_to 7965
  146.1162  140.7367  142.9479 LP  0  0  0  0  0  0  0  0  0  0  0  0  # atno 17321 bound_to 7965
  140.7249  143.7033  150.7828 LP  0  0  0  0  0  0  0  0  0  0  0  0  # atno 17342 bound_to 10162
  140.0609  143.5156  152.2628 LP  0  0  0  0  0  0  0  0  0  0  0  0  # atno 17343 bound_to 10162
  155.9745  130.4101  150.3915 LP  0  0  0  0  0  0  0  0  0  0  0  0  # atno 17370 bound_to 10713
  157.1999  131.0435  151.2656 LP  0  0  0  0  0  0  0  0  0  0  0  0  # atno 17371 bound_to 10713
  141.0072  133.7116  156.1054 LP  0  0  0  0  0  0  0  0  0  0  0  0  # atno 17394 bound_to 11000
  140.7417  134.4143  157.5554 LP  0  0  0  0  0  0  0  0  0  0  0  0  # atno 17395 bound_to 11000

$$$$
