AV-unprocessed.smi:646|AV-procd|sdf|3166|dock4
  -GOLD-   22720 0 83D 1   1.00000     0.00000
 Structure written by MMmdl.
 44 45  0  0  0  0  0  0  0  0  1 V2000
  152.4881  143.9545  162.1027 C   0  0  0  0  0  0  0  0  0  0  0  0
  151.2983  143.8900  161.3263 O   0  0  0  0  0  0  0  0  0  0  0  0
  151.3014  144.5644  160.0606 C   0  0  2  0  0  0  0  0  0  0  0  0
  151.8999  145.9702  160.1983 C   0  0  0  0  0  0  0  0  0  0  0  0
  149.9388  144.3890  159.3627 C   0  0  0  0  0  0  0  0  0  0  0  0
  150.4482  143.0361  158.8696 C   0  0  1  0  0  0  0  0  0  0  0  0
  150.0263  142.7370  157.5072 N   0  0  0  0  0  0  0  0  0  0  0  0
  150.2265  141.5624  156.8921 C   0  0  0  0  0  0  0  0  0  0  0  0
  150.6975  140.5726  157.4515 O   0  0  0  0  0  0  0  0  0  0  0  0
  149.8781  141.5104  155.4057 C   0  0  0  0  0  0  0  0  0  0  0  0
  149.8828  140.0732  154.9506 C   0  0  0  0  0  0  0  0  0  0  0  0
  148.8309  139.3551  154.3125 C   0  0  0  0  0  0  0  0  0  0  0  0
  147.4643  139.8464  153.9307 C   0  0  0  0  0  0  0  0  0  0  0  0
  149.1675  138.1002  154.0664 N   0  0  0  0  0  0  0  0  0  0  0  0
  150.4723  137.9526  154.5460 O   0  0  0  0  0  0  0  0  0  0  0  0
  150.8744  139.1382  155.0698 C   0  0  0  0  0  0  0  0  0  0  0  0
  152.2475  139.1777  155.6499 C   0  0  0  0  0  0  0  0  0  0  0  0
  151.8905  143.5937  158.9858 C   0  0  0  0  0  0  0  0  0  0  0  0
  152.4796  144.2601  157.7265 C   0  0  0  0  0  0  0  0  0  0  0  0
  152.9544  142.6004  159.4655 C   0  0  0  0  0  0  0  0  0  0  0  0
  152.2860  143.5552  163.0966 H   0  0  0  0  0  0  0  0  0  0  0  0
  152.8518  144.9744  162.2237 H   0  0  0  0  0  0  0  0  0  0  0  0
  153.2821  143.3477  161.6681 H   0  0  0  0  0  0  0  0  0  0  0  0
  152.0004  146.4644  159.2326 H   0  0  0  0  0  0  0  0  0  0  0  0
  152.8904  145.9359  160.6524 H   0  0  0  0  0  0  0  0  0  0  0  0
  151.2742  146.6229  160.8066 H   0  0  0  0  0  0  0  0  0  0  0  0
  149.0695  144.3281  160.0166 H   0  0  0  0  0  0  0  0  0  0  0  0
  149.7762  145.1136  158.5626 H   0  0  0  0  0  0  0  0  0  0  0  0
  150.2380  142.2392  159.5867 H   0  0  0  0  0  0  0  0  0  0  0  0
  149.6320  143.4959  156.9708 H   0  0  0  0  0  0  0  0  0  0  0  0
  148.9038  141.9746  155.2489 H   0  0  0  0  0  0  0  0  0  0  0  0
  150.5948  142.1127  154.8463 H   0  0  0  0  0  0  0  0  0  0  0  0
  147.5219  140.8142  153.4327 H   0  0  0  0  0  0  0  0  0  0  0  0
  146.8349  139.9645  154.8131 H   0  0  0  0  0  0  0  0  0  0  0  0
  146.9612  139.1563  153.2523 H   0  0  0  0  0  0  0  0  0  0  0  0
  152.3325  139.9626  156.4013 H   0  0  0  0  0  0  0  0  0  0  0  0
  152.9874  139.3706  154.8735 H   0  0  0  0  0  0  0  0  0  0  0  0
  152.4952  138.2295  156.1274 H   0  0  0  0  0  0  0  0  0  0  0  0
  152.7161  143.5272  156.9543 H   0  0  0  0  0  0  0  0  0  0  0  0
  153.4023  144.7954  157.9526 H   0  0  0  0  0  0  0  0  0  0  0  0
  151.7924  144.9789  157.2797 H   0  0  0  0  0  0  0  0  0  0  0  0
  153.2570  141.9207  158.6681 H   0  0  0  0  0  0  0  0  0  0  0  0
  152.5923  141.9779  160.2840 H   0  0  0  0  0  0  0  0  0  0  0  0
  153.8485  143.1144  159.8191 H   0  0  0  0  0  0  0  0  0  0  0  0
  1  2  1  0  0  0  0
  1 21  1  0  0  0  0
  1 22  1  0  0  0  0
  1 23  1  0  0  0  0
  2  3  1  0  0  0  0
  3 18  1  0  0  0  0
  3  4  1  0  0  0  0
  3  5  1  0  0  0  0
  4 24  1  0  0  0  0
  4 25  1  0  0  0  0
  4 26  1  0  0  0  0
  5  6  1  0  0  0  0
  5 27  1  0  0  0  0
  5 28  1  0  0  0  0
  6  7  1  0  0  0  0
  6 18  1  0  0  0  0
  6 29  1  0  0  0  0
  7  8  1  0  0  0  0
  7 30  1  0  0  0  0
  8  9  2  0  0  0  0
  8 10  1  0  0  0  0
 10 11  1  0  0  0  0
 10 31  1  0  0  0  0
 10 32  1  0  0  0  0
 11 16  2  0  0  0  0
 11 12  1  0  0  0  0
 12 13  1  0  0  0  0
 12 14  2  0  0  0  0
 13 33  1  0  0  0  0
 13 34  1  0  0  0  0
 13 35  1  0  0  0  0
 14 15  1  0  0  0  0
 15 16  1  0  0  0  0
 16 17  1  0  0  0  0
 17 36  1  0  0  0  0
 17 37  1  0  0  0  0
 17 38  1  0  0  0  0
 18 19  1  0  0  0  0
 18 20  1  0  0  0  0
 19 39  1  0  0  0  0
 19 40  1  0  0  0  0
 19 41  1  0  0  0  0
 20 42  1  0  0  0  0
 20 43  1  0  0  0  0
 20 44  1  0  0  0  0
M  END
> <s_m_source_file>
AV-unprocessed.smi

> <i_m_source_file_index>
646

> <i_lp_mmshare_version>
43012

> <i_f3d_flags>
0

> <s_epik_input>
W0NIM11PW0NAQF0xKFtDSDNdKVtDSDJdW0NASF0oQzEoW0NIM10pW0NIM10pW05IXUMoPU8pW0NIMl1jMmMoW0NIM10pbm9jMltDSDNd

> <s_epik_cmdline>
J2VwaWtfcHl0aG9uJywgJy1waCcsICc3LjAnLCAnLXRuJywgJzgnLCAnLW1hJywgJzIwMCcsICctbWV0YWxfYmluZGluZycsICctaW1hZScsICc8aW5maWxlLm1hZT4nLCAnLW9tYWUnLCAnPG91dGZpbGUubWFlPic=

> <r_lp_tautomer_probability>
1

> <r_epik_Ionization_Penalty>
2.13169e-08

> <r_epik_Ionization_Penalty_Charging>
0

> <r_epik_Ionization_Penalty_Neutral>
2.13169e-08

> <r_epik_State_Penalty>
-0

> <r_epik_Charging_Adjusted_Penalty>
0

> <i_epik_Tot_Q>
0

> <i_epik_Tot_abs_Q>
0

> <r_epik_Metal_State_Penalty>
-0

> <b_epik_Metal_Only>
0

> <s_lp_Force_Field>
OPLS_2005

> <r_lp_Energy>
15.8314

> <b_lp_Chiralities_Consistent>
1

> <s_lp_Variant>
AV-unprocessed.smi:646-2

> <Gold.Version>
5.8.1

> <Gold.Id.Protein>
6NUR|6NUR_protein|mol2

> <Gold.PLP.Fitness>
45.9124

> <Gold.PLP.PLP>
-43.6865

> <Gold.PLP.part.hbond>
-1.7530

> <Gold.PLP.part.metal>
0.0000

> <Gold.PLP.part.buried>
-4.0246

> <Gold.PLP.part.nonpolar>
-40.0553

> <Gold.PLP.part.repulsive>
2.4642

> <Gold.PLP.ligand.clash>
0.0000

> <Gold.PLP.ligand.torsion>
0.5793

> <Gold.PLP.Chemscore.Hbond>
1.0000

> <Gold.PLP.Chemscore.CHOScore>
0.0000

> <Gold.PLP.Chemscore.Metal>
0.0000

> <Gold.Chemscore.Hbonds>
donor molecule, donor type, donor heavy atom, donor atom, acceptor molecule, acceptor atom, score
      L1  H     7    30       P1  8028  1.00

> <Gold.PLP.Chemscore.Internal.Correction>
0.3844

> <Gold.Rescore>
     Score         DG    S(hbond)    S(metal)    S(lipo)     H(rot)  DE(clash)    DE(int)     intcor
     15.27     -19.05       0.98        0.00     120.73       1.49       1.13       2.65       ----

> <Gold.Chemscore.Fitness>
15.2725

> <Gold.Chemscore.DG>
-19.0464

> <Gold.Chemscore.ZeroCoef>
-5.4800

> <Gold.Chemscore.Hbond>
0.9768

> <Gold.Chemscore.Metal>
0.0000

> <Gold.Chemscore.Lipo>
120.7313

> <Gold.Chemscore.Internal_Hbond>
0.0000

> <Gold.Chemscore.DEClash>
1.1269

> <Gold.Chemscore.DEInternal>
2.6470

> <Gold.Chemscore.Rot>
1.4928

> <Gold.Chemscore.Internal.Correction>
   9.000000E+99

> <Gold.Chemscore.Hbonds>
donor molecule, donor type, donor heavy atom, donor atom, acceptor molecule, acceptor atom, score
      L1  H     7    30       P1  8028  0.96

> <Gold.Chemscore.Hbond.Weighted>
-3.2624

> <Gold.Chemscore.Metal.Weighted>
-0.0000

> <Gold.Chemscore.Lipo.Weighted>
-14.1256

> <Gold.Chemscore.Internal_Hbond.Weighted>
0.0000

> <Gold.Chemscore.DEClash.Weighted>
1.1269

> <Gold.Chemscore.DEInternal.Weighted>
2.6470

> <Gold.Chemscore.Rot.Weighted>
3.8217

> <Gold.Chemscore.Internal.Correction.Weighted>
   9.000000E+99

> <Gold.Protein.RotatedTorsions>
[ 6907 6896 6895 6894 ] final  156.04 input  -60.11 | X-H torsion
[ 7974 7965 7964 7962 ] final -106.13 input  175.53 | X-H torsion
[ 8008 7997 7996 7995 ] final -151.78 input   59.86 | X-H torsion
[ 10167 10162 10161 10158 ] final -155.42 input  -65.29 | X-H torsion
[ 10718 10713 10712 10709 ] final   45.17 input   66.30 | X-H torsion
[ 10763 10752 10751 10750 ] final  -40.53 input  -60.55 | X-H torsion
[ 11005 11000 10999 10996 ] final -166.54 input  -57.11 | X-H torsion

> <Gold.Protein.ActiveResidues>
 VAL166  LYS551  ARG553  GLY616  TRP617  ASP618  TYR619  PRO620  LYS621  CYS622 
 ASP623  PHE694  ASN695  SER759  ASP760  ASP761  ALA762  ILE779  LEU786  VAL792 
 PHE793  MET794  SER795  GLU796  ALA797  LYS798  CYS799  TRP800  GLU811  SER814 

> <Gold.Protein.RotatedAtoms>
  152.0355  133.3955  159.4314 H   0  0  0  0  0  0  0  0  0  0  0  0  # atno 6907 bound_to 6896
  150.6879  134.3473  159.4903 H   0  0  0  0  0  0  0  0  0  0  0  0  # atno 6908 bound_to 6896
  152.1265  134.9166  160.0611 H   0  0  0  0  0  0  0  0  0  0  0  0  # atno 6909 bound_to 6896
  145.2218  140.9137  143.3255 H   0  0  0  0  0  0  0  0  0  0  0  0  # atno 7974 bound_to 7965
  155.6448  140.0705  157.2606 H   0  0  0  0  0  0  0  0  0  0  0  0  # atno 8008 bound_to 7997
  154.4175  140.1744  156.1661 H   0  0  0  0  0  0  0  0  0  0  0  0  # atno 8009 bound_to 7997
  155.9826  140.3352  155.6680 H   0  0  0  0  0  0  0  0  0  0  0  0  # atno 8010 bound_to 7997
  139.6932  143.9385  152.2395 H   0  0  0  0  0  0  0  0  0  0  0  0  # atno 10167 bound_to 10162
  157.4347  130.8046  149.7637 H   0  0  0  0  0  0  0  0  0  0  0  0  # atno 10718 bound_to 10713
  153.9474  135.6754  153.4744 H   0  0  0  0  0  0  0  0  0  0  0  0  # atno 10763 bound_to 10752
  153.0901  135.4879  154.8670 H   0  0  0  0  0  0  0  0  0  0  0  0  # atno 10764 bound_to 10752
  154.7344  135.3145  154.8796 H   0  0  0  0  0  0  0  0  0  0  0  0  # atno 10765 bound_to 10752
  140.5633  134.5311  157.5147 H   0  0  0  0  0  0  0  0  0  0  0  0  # atno 11005 bound_to 11000
  144.9758  139.3833  143.6286 LP  0  0  0  0  0  0  0  0  0  0  0  0  # atno 17320 bound_to 7965
  146.3374  139.8877  142.8814 LP  0  0  0  0  0  0  0  0  0  0  0  0  # atno 17321 bound_to 7965
  139.9207  144.6801  150.8465 LP  0  0  0  0  0  0  0  0  0  0  0  0  # atno 17342 bound_to 10162
  140.7689  143.3377  151.2274 LP  0  0  0  0  0  0  0  0  0  0  0  0  # atno 17343 bound_to 10162
  155.9926  130.3930  150.2935 LP  0  0  0  0  0  0  0  0  0  0  0  0  # atno 17370 bound_to 10713
  157.1095  131.0217  151.3054 LP  0  0  0  0  0  0  0  0  0  0  0  0  # atno 17371 bound_to 10713
  139.9397  134.7810  156.0710 LP  0  0  0  0  0  0  0  0  0  0  0  0  # atno 17394 bound_to 11000
  141.1101  133.6646  156.2958 LP  0  0  0  0  0  0  0  0  0  0  0  0  # atno 17395 bound_to 11000

$$$$
