AV-unprocessed.smi:2198|AV-procd|sdf|8911|dock1
  -GOLD-   2272012123D 1   1.00000     0.00000
 Structure written by MMmdl.
 43 44  0  0  0  0  0  0  0  0  1 V2000
  153.8963  141.8011  162.1261 C   0  0  0  0  0  0  0  0  0  0  0  0
  153.1414  142.0990  160.8479 C   0  0  0  0  0  0  0  0  0  0  0  0
  152.5150  143.2067  160.6212 N   0  0  0  0  0  0  0  0  0  0  0  0
  151.8524  143.3676  159.3964 C   0  0  0  0  0  0  0  0  0  0  0  0
  151.1422  144.6965  159.2037 C   0  0  0  0  0  0  0  0  0  0  0  0
  151.8546  142.3863  158.4470 C   0  0  0  0  0  0  0  0  0  0  0  0
  151.1464  142.5347  157.1012 C   0  0  0  0  0  0  0  0  0  0  0  0
  150.0391  141.5178  156.8136 C   0  0  0  0  0  0  0  0  0  0  0  0
  150.2906  140.3129  156.7851 O   0  0  0  0  0  0  0  0  0  0  0  0
  148.8145  142.0217  156.5994 N   0  0  0  0  0  0  0  0  0  0  0  0
  147.6153  141.2430  156.2948 C   0  0  2  0  0  0  0  0  0  0  0  0
  147.9605  140.0881  155.3353 C   0  0  0  0  0  0  0  0  0  0  0  0
  148.2842  140.5889  153.9171 C   0  0  0  0  0  0  0  0  0  0  0  0
  147.1445  141.4537  153.3568 C   0  0  0  0  0  0  0  0  0  0  0  0
  146.8207  142.6372  154.2883 C   0  0  1  0  0  0  0  0  0  0  0  0
  145.6799  143.4966  153.7252 C   0  0  0  0  0  0  0  0  0  0  0  0
  146.4960  142.1321  155.7098 C   0  0  0  0  0  0  0  0  0  0  0  0
  152.5719  141.1252  158.7168 C   0  0  0  0  0  0  0  0  0  0  0  0
  152.6412  140.1798  157.9331 O   0  0  0  0  0  0  0  0  0  0  0  0
  153.1806  141.0579  159.9221 N   0  0  0  0  0  0  0  0  0  0  0  0
  153.6863  140.2153  160.1534 H   0  0  0  0  0  0  0  0  0  0  0  0
  154.7046  142.5199  162.2607 H   0  0  0  0  0  0  0  0  0  0  0  0
  154.3289  140.7998  162.1145 H   0  0  0  0  0  0  0  0  0  0  0  0
  153.2267  141.8731  162.9832 H   0  0  0  0  0  0  0  0  0  0  0  0
  150.0677  144.5448  159.1011 H   0  0  0  0  0  0  0  0  0  0  0  0
  151.5085  145.2036  158.3110 H   0  0  0  0  0  0  0  0  0  0  0  0
  151.3059  145.3599  160.0539 H   0  0  0  0  0  0  0  0  0  0  0  0
  150.7223  143.5341  156.9986 H   0  0  0  0  0  0  0  0  0  0  0  0
  151.8952  142.4699  156.3112 H   0  0  0  0  0  0  0  0  0  0  0  0
  148.7030  143.0241  156.6459 H   0  0  0  0  0  0  0  0  0  0  0  0
  147.2558  140.8013  157.2259 H   0  0  0  0  0  0  0  0  0  0  0  0
  148.7962  139.5073  155.7275 H   0  0  0  0  0  0  0  0  0  0  0  0
  147.1134  139.4029  155.2835 H   0  0  0  0  0  0  0  0  0  0  0  0
  149.2094  141.1664  153.9301 H   0  0  0  0  0  0  0  0  0  0  0  0
  148.4633  139.7398  153.2569 H   0  0  0  0  0  0  0  0  0  0  0  0
  147.4186  141.8212  152.3674 H   0  0  0  0  0  0  0  0  0  0  0  0
  146.2548  140.8370  153.2208 H   0  0  0  0  0  0  0  0  0  0  0  0
  147.7059  143.2720  154.3468 H   0  0  0  0  0  0  0  0  0  0  0  0
  144.7570  142.9227  153.6371 H   0  0  0  0  0  0  0  0  0  0  0  0
  145.9290  143.8802  152.7355 H   0  0  0  0  0  0  0  0  0  0  0  0
  145.4794  144.3532  154.3693 H   0  0  0  0  0  0  0  0  0  0  0  0
  145.5698  141.5566  155.6811 H   0  0  0  0  0  0  0  0  0  0  0  0
  146.3016  142.9766  156.3724 H   0  0  0  0  0  0  0  0  0  0  0  0
  1  2  1  0  0  0  0
  1 22  1  0  0  0  0
  1 23  1  0  0  0  0
  1 24  1  0  0  0  0
  2 20  1  0  0  0  0
  2  3  2  0  0  0  0
  3  4  1  0  0  0  0
  4  5  1  0  0  0  0
  4  6  2  0  0  0  0
  5 25  1  0  0  0  0
  5 26  1  0  0  0  0
  5 27  1  0  0  0  0
  6  7  1  0  0  0  0
  6 18  1  0  0  0  0
  7  8  1  0  0  0  0
  7 28  1  0  0  0  0
  7 29  1  0  0  0  0
  8  9  2  0  0  0  0
  8 10  1  0  0  0  0
 10 11  1  0  0  0  0
 10 30  1  0  0  0  0
 11 17  1  0  0  0  0
 11 12  1  0  0  0  0
 11 31  1  0  0  0  0
 12 13  1  0  0  0  0
 12 32  1  0  0  0  0
 12 33  1  0  0  0  0
 13 14  1  0  0  0  0
 13 34  1  0  0  0  0
 13 35  1  0  0  0  0
 14 15  1  0  0  0  0
 14 36  1  0  0  0  0
 14 37  1  0  0  0  0
 15 16  1  0  0  0  0
 15 17  1  0  0  0  0
 15 38  1  0  0  0  0
 16 39  1  0  0  0  0
 16 40  1  0  0  0  0
 16 41  1  0  0  0  0
 17 42  1  0  0  0  0
 17 43  1  0  0  0  0
 18 19  2  0  0  0  0
 18 20  1  0  0  0  0
 20 21  1  0  0  0  0
M  END
> <s_m_source_file>
AV-unprocessed.smi

> <i_m_source_file_index>
2198

> <i_lp_mmshare_version>
43012

> <i_f3d_flags>
0

> <s_epik_input>
W0NIM11jMW5jKFtDSDNdKWMoYyg9TylbbkhdMSlbQ0gyXUMoPU8pW05IXVtDQEBIXTJbQ0gyXVtDSDJdW0NIMl1bQ0BASF0oW0NIM10pW0NIMl0y

> <s_epik_cmdline>
J2VwaWtfcHl0aG9uJywgJy1waCcsICc3LjAnLCAnLXRuJywgJzgnLCAnLW1hJywgJzIwMCcsICctbWV0YWxfYmluZGluZycsICctaW1hZScsICc8aW5maWxlLm1hZT4nLCAnLW9tYWUnLCAnPG91dGZpbGUubWFlPic=

> <r_lp_tautomer_probability>
0.839158

> <r_epik_Ionization_Penalty>
0.000372587

> <r_epik_Ionization_Penalty_Charging>
0.000337977

> <r_epik_Ionization_Penalty_Neutral>
3.46101e-05

> <r_epik_State_Penalty>
0.09125

> <r_epik_Charging_Adjusted_Penalty>
0.091588

> <i_epik_Tot_Q>
0

> <i_epik_Tot_abs_Q>
0

> <r_epik_Metal_State_Penalty>
0.25197

> <b_epik_Metal_Only>
0

> <s_lp_Force_Field>
OPLS_2005

> <r_lp_Energy>
10.2455

> <b_lp_Chiralities_Consistent>
1

> <s_lp_Variant>
AV-unprocessed.smi:2198-1

> <Gold.Version>
5.8.1

> <Gold.Id.Protein>
6NUR|6NUR_protein|mol2

> <Gold.PLP.Fitness>
44.3956

> <Gold.PLP.PLP>
-39.2023

> <Gold.PLP.part.hbond>
-2.0000

> <Gold.PLP.part.metal>
0.0000

> <Gold.PLP.part.buried>
-4.3348

> <Gold.PLP.part.nonpolar>
-32.0259

> <Gold.PLP.part.repulsive>
0.1351

> <Gold.PLP.ligand.clash>
0.0000

> <Gold.PLP.ligand.torsion>
0.2535

> <Gold.PLP.Chemscore.Hbond>
1.8960

> <Gold.PLP.Chemscore.CHOScore>
0.0000

> <Gold.PLP.Chemscore.Metal>
0.0000

> <Gold.Chemscore.Hbonds>
donor molecule, donor type, donor heavy atom, donor atom, acceptor molecule, acceptor atom, score
      L1  H    10    30       P1  8028  0.91
      P1  H  7997  8008       L1    19  0.78

> <Gold.PLP.Chemscore.Internal.Correction>
0.0124

> <Gold.Rescore>
     Score         DG    S(hbond)    S(metal)    S(lipo)     H(rot)  DE(clash)    DE(int)     intcor
     14.66     -18.02       1.77        0.00      89.05       1.48       0.08       3.28       ----

> <Gold.Chemscore.Fitness>
14.6600

> <Gold.Chemscore.DG>
-18.0177

> <Gold.Chemscore.ZeroCoef>
-5.4800

> <Gold.Chemscore.Hbond>
1.7688

> <Gold.Chemscore.Metal>
0.0000

> <Gold.Chemscore.Lipo>
89.0530

> <Gold.Chemscore.Internal_Hbond>
0.0000

> <Gold.Chemscore.DEClash>
0.0805

> <Gold.Chemscore.DEInternal>
3.2772

> <Gold.Chemscore.Rot>
1.4801

> <Gold.Chemscore.Internal.Correction>
   9.000000E+99

> <Gold.Chemscore.Hbonds>
donor molecule, donor type, donor heavy atom, donor atom, acceptor molecule, acceptor atom, score
      L1  H    10    30       P1  8028  0.78
      P1  H  7997  8008       L1    19  0.65

> <Gold.Chemscore.Hbond.Weighted>
-5.9077

> <Gold.Chemscore.Metal.Weighted>
-0.0000

> <Gold.Chemscore.Lipo.Weighted>
-10.4192

> <Gold.Chemscore.Internal_Hbond.Weighted>
0.0000

> <Gold.Chemscore.DEClash.Weighted>
0.0805

> <Gold.Chemscore.DEInternal.Weighted>
3.2772

> <Gold.Chemscore.Rot.Weighted>
3.7891

> <Gold.Chemscore.Internal.Correction.Weighted>
   9.000000E+99

> <Gold.Protein.RotatedTorsions>
[ 6907 6896 6895 6894 ] final  110.04 input  -60.11 | X-H torsion
[ 7974 7965 7964 7962 ] final   17.24 input  175.53 | X-H torsion
[ 8008 7997 7996 7995 ] final  -75.21 input   59.86 | X-H torsion
[ 10167 10162 10161 10158 ] final -120.86 input  -65.29 | X-H torsion
[ 10718 10713 10712 10709 ] final   10.59 input   66.30 | X-H torsion
[ 10763 10752 10751 10750 ] final  -56.39 input  -60.55 | X-H torsion
[ 11005 11000 10999 10996 ] final  -25.34 input  -57.11 | X-H torsion

> <Gold.Protein.ActiveResidues>
 VAL166  LYS551  ARG553  GLY616  TRP617  ASP618  TYR619  PRO620  LYS621  CYS622 
 ASP623  PHE694  ASN695  SER759  ASP760  ASP761  ALA762  ILE779  LEU786  VAL792 
 PHE793  MET794  SER795  GLU796  ALA797  LYS798  CYS799  TRP800  GLU811  SER814 

> <Gold.Protein.RotatedAtoms>
  152.5039  133.8857  159.7368 H   0  0  0  0  0  0  0  0  0  0  0  0  # atno 6907 bound_to 6896
  150.9308  133.6760  159.2818 H   0  0  0  0  0  0  0  0  0  0  0  0  # atno 6908 bound_to 6896
  151.4105  135.0989  159.9636 H   0  0  0  0  0  0  0  0  0  0  0  0  # atno 6909 bound_to 6896
  146.2224  139.8631  142.8601 H   0  0  0  0  0  0  0  0  0  0  0  0  # atno 7974 bound_to 7965
  154.5397  140.0748  156.8488 H   0  0  0  0  0  0  0  0  0  0  0  0  # atno 8008 bound_to 7997
  155.3206  140.3396  155.4223 H   0  0  0  0  0  0  0  0  0  0  0  0  # atno 8009 bound_to 7997
  156.1862  140.1670  156.8167 H   0  0  0  0  0  0  0  0  0  0  0  0  # atno 8010 bound_to 7997
  140.0313  143.5245  152.2175 H   0  0  0  0  0  0  0  0  0  0  0  0  # atno 10167 bound_to 10162
  156.9831  130.6013  149.5678 H   0  0  0  0  0  0  0  0  0  0  0  0  # atno 10718 bound_to 10713
  154.2058  135.6403  153.5100 H   0  0  0  0  0  0  0  0  0  0  0  0  # atno 10763 bound_to 10752
  153.0001  135.5462  154.6267 H   0  0  0  0  0  0  0  0  0  0  0  0  # atno 10764 bound_to 10752
  154.5691  135.2915  155.0818 H   0  0  0  0  0  0  0  0  0  0  0  0  # atno 10765 bound_to 10752
  140.8928  133.7576  156.0443 H   0  0  0  0  0  0  0  0  0  0  0  0  # atno 11005 bound_to 11000
  145.2684  141.0100  143.3786 LP  0  0  0  0  0  0  0  0  0  0  0  0  # atno 17320 bound_to 7965
  144.9243  139.4374  143.6526 LP  0  0  0  0  0  0  0  0  0  0  0  0  # atno 17321 bound_to 7965
  139.6074  144.7600  151.3030 LP  0  0  0  0  0  0  0  0  0  0  0  0  # atno 17342 bound_to 10162
  140.7301  143.6890  150.7937 LP  0  0  0  0  0  0  0  0  0  0  0  0  # atno 17343 bound_to 10162
  156.0236  130.5331  150.8345 LP  0  0  0  0  0  0  0  0  0  0  0  0  # atno 17370 bound_to 10713
  157.5512  131.0944  150.9693 LP  0  0  0  0  0  0  0  0  0  0  0  0  # atno 17371 bound_to 10713
  140.8326  134.3161  157.5343 LP  0  0  0  0  0  0  0  0  0  0  0  0  # atno 17394 bound_to 11000
  139.8732  134.9371  156.3679 LP  0  0  0  0  0  0  0  0  0  0  0  0  # atno 17395 bound_to 11000

$$$$
