AV-unprocessed.smi:1795|AV-procd|sdf|7247|dock4
  -GOLD-   22720 8493D 1   1.00000     0.00000
 Structure written by MMmdl.
 48 49  0  0  0  0  0  0  0  0  2 V2000
  145.7206  132.3779  150.3317 C   0  0  0  0  0  0  0  0  0  0  0  0
  146.2626  133.4847  151.2433 C   0  0  2  0  0  0  0  0  0  0  0  0
  147.4236  132.9904  152.1276 C   0  0  0  0  0  0  0  0  0  0  0  0
  147.8833  134.0451  153.0744 N   0  3  2  0  0  0  0  0  0  0  0  0
  149.0182  133.6328  153.9673 C   0  0  2  0  0  0  0  0  0  0  0  0
  148.6943  132.3086  154.7015 C   0  0  0  0  0  0  0  0  0  0  0  0
  149.4155  134.7309  154.9963 C   0  0  0  0  0  0  0  0  0  0  0  0
  150.0658  135.8875  154.3856 N   0  0  0  0  0  0  0  0  0  0  0  0
  151.1985  136.4556  154.8271 C   0  0  0  0  0  0  0  0  0  0  0  0
  151.8064  136.0574  155.8215 O   0  0  0  0  0  0  0  0  0  0  0  0
  151.6990  137.6706  154.0331 C   0  0  0  0  0  0  0  0  0  0  0  0
  150.9714  138.9104  154.3515 N   0  0  0  0  0  0  0  0  0  0  0  0
  149.6360  139.0043  153.9108 C   0  0  0  0  0  0  0  0  0  0  0  0
  148.8836  140.0899  154.1514 C   0  0  0  0  0  0  0  0  0  0  0  0
  149.4774  141.1833  154.8841 C   0  0  0  0  0  0  0  0  0  0  0  0
  150.7529  141.1026  155.3125 C   0  0  0  0  0  0  0  0  0  0  0  0
  151.5782  139.9170  155.0539 C   0  0  0  0  0  0  0  0  0  0  0  0
  152.7430  139.8325  155.4450 O   0  0  0  0  0  0  0  0  0  0  0  0
  146.7144  134.5766  153.8295 C   0  0  0  0  0  0  0  0  0  0  0  0
  145.5862  135.0296  152.8847 C   0  0  2  0  0  0  0  0  0  0  0  0
  144.3496  135.5118  153.6516 C   0  0  0  0  0  0  0  0  0  0  0  0
  145.1990  133.9333  152.0698 O   0  0  0  0  0  0  0  0  0  0  0  0
  146.4968  132.0024  149.6643 H   0  0  0  0  0  0  0  0  0  0  0  0
  144.9024  132.7480  149.7134 H   0  0  0  0  0  0  0  0  0  0  0  0
  145.3432  131.5363  150.9132 H   0  0  0  0  0  0  0  0  0  0  0  0
  146.6046  134.3101  150.6162 H   0  0  0  0  0  0  0  0  0  0  0  0
  147.1233  132.1044  152.6898 H   0  0  0  0  0  0  0  0  0  0  0  0
  148.2287  132.6973  151.4557 H   0  0  0  0  0  0  0  0  0  0  0  0
  149.8834  133.4585  153.3254 H   0  0  0  0  0  0  0  0  0  0  0  0
  149.4857  132.0182  155.3919 H   0  0  0  0  0  0  0  0  0  0  0  0
  148.5894  131.4658  154.0209 H   0  0  0  0  0  0  0  0  0  0  0  0
  147.7729  132.3932  155.2787 H   0  0  0  0  0  0  0  0  0  0  0  0
  148.5485  135.1113  155.5363 H   0  0  0  0  0  0  0  0  0  0  0  0
  150.0938  134.3167  155.7432 H   0  0  0  0  0  0  0  0  0  0  0  0
  149.6280  136.2780  153.5635 H   0  0  0  0  0  0  0  0  0  0  0  0
  152.7672  137.8095  154.2115 H   0  0  0  0  0  0  0  0  0  0  0  0
  151.6154  137.4382  152.9705 H   0  0  0  0  0  0  0  0  0  0  0  0
  149.2648  138.1418  153.3765 H   0  0  0  0  0  0  0  0  0  0  0  0
  147.8602  140.1424  153.8098 H   0  0  0  0  0  0  0  0  0  0  0  0
  148.8955  142.0694  155.0910 H   0  0  0  0  0  0  0  0  0  0  0  0
  151.1800  141.9298  155.8606 H   0  0  0  0  0  0  0  0  0  0  0  0
  146.3453  133.8091  154.5121 H   0  0  0  0  0  0  0  0  0  0  0  0
  146.9980  135.4342  154.4357 H   0  0  0  0  0  0  0  0  0  0  0  0
  145.9398  135.8457  152.2519 H   0  0  0  0  0  0  0  0  0  0  0  0
  144.5902  136.3624  154.2896 H   0  0  0  0  0  0  0  0  0  0  0  0
  143.9442  134.7221  154.2850 H   0  0  0  0  0  0  0  0  0  0  0  0
  143.5624  135.8245  152.9652 H   0  0  0  0  0  0  0  0  0  0  0  0
  148.2289  134.8023  152.5021 H   0  0  0  0  0  0  0  0  0  0  0  0
  1  2  1  0  0  0  0
  1 23  1  0  0  0  0
  1 24  1  0  0  0  0
  1 25  1  0  0  0  0
  2 22  1  0  0  0  0
  2  3  1  0  0  0  0
  2 26  1  0  0  0  0
  3  4  1  0  0  0  0
  3 27  1  0  0  0  0
  3 28  1  0  0  0  0
  4  5  1  0  0  0  0
  4 19  1  0  0  0  0
  4 48  1  0  0  0  0
  5  6  1  0  0  0  0
  5  7  1  0  0  0  0
  5 29  1  0  0  0  0
  6 30  1  0  0  0  0
  6 31  1  0  0  0  0
  6 32  1  0  0  0  0
  7  8  1  0  0  0  0
  7 33  1  0  0  0  0
  7 34  1  0  0  0  0
  8  9  1  0  0  0  0
  8 35  1  0  0  0  0
  9 10  2  0  0  0  0
  9 11  1  0  0  0  0
 11 12  1  0  0  0  0
 11 36  1  0  0  0  0
 11 37  1  0  0  0  0
 12 17  1  0  0  0  0
 12 13  1  0  0  0  0
 13 14  2  0  0  0  0
 13 38  1  0  0  0  0
 14 15  1  0  0  0  0
 14 39  1  0  0  0  0
 15 16  2  0  0  0  0
 15 40  1  0  0  0  0
 16 17  1  0  0  0  0
 16 41  1  0  0  0  0
 17 18  2  0  0  0  0
 19 20  1  0  0  0  0
 19 42  1  0  0  0  0
 19 43  1  0  0  0  0
 20 21  1  0  0  0  0
 20 22  1  0  0  0  0
 20 44  1  0  0  0  0
 21 45  1  0  0  0  0
 21 46  1  0  0  0  0
 21 47  1  0  0  0  0
M  CHG  1   4   1
M  END
> <s_m_source_file>
AV-unprocessed.smi

> <i_m_source_file_index>
1795

> <i_lp_mmshare_version>
43012

> <i_f3d_flags>
0

> <s_epik_input>
W0NIM11bQ0BASF0xW0NIMl1OKFtDSDJdW0NASF0oTzEpW0NIM10pW0NASF0oW0NIM10pW0NIMl1bTkhdQyg9TylbQ0gyXW4yW2NIXVtjSF1bY0hdW2NIXWMyPU8=

> <s_epik_cmdline>
J2VwaWtfcHl0aG9uJywgJy1waCcsICc3LjAnLCAnLXRuJywgJzgnLCAnLW1hJywgJzIwMCcsICctbWV0YWxfYmluZGluZycsICctaW1hZScsICc8aW5maWxlLm1hZT4nLCAnLW9tYWUnLCAnPG91dGZpbGUubWFlPic=

> <r_lp_tautomer_probability>
1

> <r_epik_Ionization_Penalty>
0.656654

> <r_epik_Ionization_Penalty_Charging>
0.656654

> <r_epik_Ionization_Penalty_Neutral>
8.90321e-08

> <r_epik_State_Penalty>
0.675641

> <r_epik_Charging_Adjusted_Penalty>
1.33229

> <i_epik_Tot_Q>
1

> <i_epik_Tot_abs_Q>
1

> <r_epik_Metal_State_Penalty>
0.675691

> <b_epik_Metal_Only>
0

> <s_lp_Force_Field>
OPLS_2005

> <r_lp_Energy>
28.0815

> <b_lp_Chiralities_Consistent>
1

> <s_lp_Variant>
AV-unprocessed.smi:1795-11

> <Gold.Version>
5.8.1

> <Gold.Id.Protein>
6NUR|6NUR_protein|mol2

> <Gold.PLP.Fitness>
56.7195

> <Gold.PLP.PLP>
-39.8202

> <Gold.PLP.part.hbond>
-4.4364

> <Gold.PLP.part.metal>
0.0000

> <Gold.PLP.part.buried>
1.4638

> <Gold.PLP.part.nonpolar>
-36.5104

> <Gold.PLP.part.repulsive>
0.1756

> <Gold.PLP.ligand.clash>
0.0000

> <Gold.PLP.ligand.torsion>
0.6082

> <Gold.PLP.Chemscore.Hbond>
5.0000

> <Gold.PLP.Chemscore.CHOScore>
1.0000

> <Gold.PLP.Chemscore.Metal>
0.0000

> <Gold.Chemscore.Hbonds>
donor molecule, donor type, donor heavy atom, donor atom, acceptor molecule, acceptor atom, score
      L1  H     4    48       P1  7948  2.00
      L1  H     8    35       P1  7948  1.00
      P1  H  7997  8010       L1    18  1.00
      P1  H 10752 10764       L1    10  0.94
      L1  C    13    38       P1  7948  1.00

> <Gold.PLP.Chemscore.Internal.Correction>
0.1157

> <Gold.Rescore>
     Score         DG    S(hbond)    S(metal)    S(lipo)     H(rot)  DE(clash)    DE(int)     intcor
     19.40     -19.93       3.01        0.00      78.76       1.89       0.16       0.38       ----

> <Gold.Chemscore.Fitness>
19.3973

> <Gold.Chemscore.DG>
-19.9300

> <Gold.Chemscore.ZeroCoef>
-5.4800

> <Gold.Chemscore.Hbond>
3.0139

> <Gold.Chemscore.Metal>
0.0000

> <Gold.Chemscore.Lipo>
78.7558

> <Gold.Chemscore.Internal_Hbond>
0.0000

> <Gold.Chemscore.DEClash>
0.1574

> <Gold.Chemscore.DEInternal>
0.3753

> <Gold.Chemscore.Rot>
1.8870

> <Gold.Chemscore.Internal.Correction>
   9.000000E+99

> <Gold.Chemscore.Hbonds>
donor molecule, donor type, donor heavy atom, donor atom, acceptor molecule, acceptor atom, score
      L1  H     4    48       P1  7948  0.45
      L1  H     8    35       P1  7948  0.44
      P1  H  7997  8010       L1    18  0.96
      P1  H 10752 10764       L1    10  0.41

> <Gold.Chemscore.Hbond.Weighted>
-10.0663

> <Gold.Chemscore.Metal.Weighted>
-0.0000

> <Gold.Chemscore.Lipo.Weighted>
-9.2144

> <Gold.Chemscore.Internal_Hbond.Weighted>
0.0000

> <Gold.Chemscore.DEClash.Weighted>
0.1574

> <Gold.Chemscore.DEInternal.Weighted>
0.3753

> <Gold.Chemscore.Rot.Weighted>
4.8308

> <Gold.Chemscore.Internal.Correction.Weighted>
   9.000000E+99

> <Gold.Protein.RotatedTorsions>
[ 6907 6896 6895 6894 ] final  129.17 input  -60.11 | X-H torsion
[ 7974 7965 7964 7962 ] final  -36.52 input  175.53 | X-H torsion
[ 8008 7997 7996 7995 ] final   75.89 input   59.86 | X-H torsion
[ 10167 10162 10161 10158 ] final -133.67 input  -65.29 | X-H torsion
[ 10718 10713 10712 10709 ] final  -18.79 input   66.30 | X-H torsion
[ 10763 10752 10751 10750 ] final  -16.21 input  -60.55 | X-H torsion
[ 11005 11000 10999 10996 ] final   -6.15 input  -57.11 | X-H torsion

> <Gold.Protein.ActiveResidues>
 VAL166  LYS551  ARG553  GLY616  TRP617  ASP618  TYR619  PRO620  LYS621  CYS622 
 ASP623  PHE694  ASN695  SER759  ASP760  ASP761  ALA762  ILE779  LEU786  VAL792 
 PHE793  MET794  SER795  GLU796  ALA797  LYS798  CYS799  TRP800  GLU811  SER814 

> <Gold.Protein.RotatedAtoms>
  152.3650  133.6345  159.6043 H   0  0  0  0  0  0  0  0  0  0  0  0  # atno 6907 bound_to 6896
  150.7627  133.9363  159.3451 H   0  0  0  0  0  0  0  0  0  0  0  0  # atno 6908 bound_to 6896
  151.7195  135.0898  160.0333 H   0  0  0  0  0  0  0  0  0  0  0  0  # atno 6909 bound_to 6896
  146.0654  140.6288  142.8977 H   0  0  0  0  0  0  0  0  0  0  0  0  # atno 7974 bound_to 7965
  155.8195  140.3470  155.5505 H   0  0  0  0  0  0  0  0  0  0  0  0  # atno 8008 bound_to 7997
  155.8357  140.0934  157.1785 H   0  0  0  0  0  0  0  0  0  0  0  0  # atno 8009 bound_to 7997
  154.4004  140.1404  156.3655 H   0  0  0  0  0  0  0  0  0  0  0  0  # atno 8010 bound_to 7997
  139.8959  143.6666  152.2604 H   0  0  0  0  0  0  0  0  0  0  0  0  # atno 10167 bound_to 10162
  156.5546  130.4710  149.6435 H   0  0  0  0  0  0  0  0  0  0  0  0  # atno 10718 bound_to 10713
  153.5551  135.7011  153.5573 H   0  0  0  0  0  0  0  0  0  0  0  0  # atno 10763 bound_to 10752
  153.3480  135.4003  155.1623 H   0  0  0  0  0  0  0  0  0  0  0  0  # atno 10764 bound_to 10752
  154.8656  135.3758  154.5065 H   0  0  0  0  0  0  0  0  0  0  0  0  # atno 10765 bound_to 10752
  140.6988  133.9007  155.8669 H   0  0  0  0  0  0  0  0  0  0  0  0  # atno 11005 bound_to 11000
  144.7199  140.4339  143.7016 LP  0  0  0  0  0  0  0  0  0  0  0  0  # atno 17320 bound_to 7965
  145.6486  139.1561  143.2875 LP  0  0  0  0  0  0  0  0  0  0  0  0  # atno 17321 bound_to 7965
  139.7068  144.7627  151.1179 LP  0  0  0  0  0  0  0  0  0  0  0  0  # atno 17342 bound_to 10162
  140.7717  143.5384  150.9342 LP  0  0  0  0  0  0  0  0  0  0  0  0  # atno 17343 bound_to 10162
  156.2853  130.7094  151.1929 LP  0  0  0  0  0  0  0  0  0  0  0  0  # atno 17370 bound_to 10713
  157.7381  131.0545  150.5317 LP  0  0  0  0  0  0  0  0  0  0  0  0  # atno 17371 bound_to 10713
  141.0180  134.0928  157.4151 LP  0  0  0  0  0  0  0  0  0  0  0  0  # atno 17394 bound_to 11000
  139.8902  135.0110  156.6725 LP  0  0  0  0  0  0  0  0  0  0  0  0  # atno 17395 bound_to 11000

$$$$
