AV-unprocessed.smi:256|AV-procd|sdf|1960|dock5
  -GOLD-   2262021103D 1   1.00000     0.00000
 Structure written by MMmdl.
 62 65  0  0  0  0  0  0  0  0  2 V2000
  145.7969  133.2015  151.6239 C   0  0  0  0  0  0  0  0  0  0  0  0
  145.2214  131.8649  152.1149 C   0  0  0  0  0  0  0  0  0  0  0  0
  146.2322  130.9947  152.9089 C   0  0  1  0  0  0  0  0  0  0  0  0
  146.6440  131.7536  154.1976 C   0  0  0  0  0  0  0  0  0  0  0  0
  147.4207  130.9258  155.1125 N   0  0  0  0  0  0  0  0  0  0  0  0
  148.1243  131.5336  156.1016 C   0  0  0  0  0  0  0  0  0  0  0  0
  149.4822  131.4601  156.1118 N   0  0  0  0  0  0  0  0  0  0  0  0
  150.1830  132.0544  157.0821 C   0  0  0  0  0  0  0  0  0  0  0  0
  149.7350  132.7570  158.1240 N   0  0  0  0  0  0  0  0  0  0  0  0
  148.3734  132.8274  158.1261 C   0  0  0  0  0  0  0  0  0  0  0  0
  147.4998  132.2524  157.1601 C   0  0  0  0  0  0  0  0  0  0  0  0
  146.1791  132.5253  157.4960 N   0  0  0  0  0  0  0  0  0  0  0  0
  146.2673  133.2290  158.5913 C   0  0  0  0  0  0  0  0  0  0  0  0
  147.5475  133.4473  159.0483 N   0  0  0  0  0  0  0  0  0  0  0  0
  147.9311  134.1849  160.2434 C   0  0  0  0  0  0  0  0  0  0  0  0
  146.8943  134.1032  161.3973 C   0  0  0  0  0  0  0  0  0  0  0  0
  146.5586  132.7389  161.5743 O   0  0  0  0  0  0  0  0  0  0  0  0
  147.4163  134.6334  162.7504 C   0  0  0  0  0  0  0  0  0  0  0  0
  147.5090  136.1694  162.7522 C   0  0  0  0  0  0  0  0  0  0  0  0
  146.2376  136.7315  162.4461 O   0  0  0  0  0  0  0  0  0  0  0  0
  145.7686  136.3776  161.1494 C   0  0  0  0  0  0  0  0  0  0  0  0
  145.5916  134.8514  161.0500 C   0  0  0  0  0  0  0  0  0  0  0  0
  146.7630  129.6820  155.4771 C   0  0  0  0  0  0  0  0  0  0  0  0
  146.4739  128.8713  154.2129 C   0  0  0  0  0  0  0  0  0  0  0  0
  145.6746  129.6373  153.2175 N   0  3  2  0  0  0  0  0  0  0  0  0
  145.3977  128.7975  152.0177 C   0  0  0  0  0  0  0  0  0  0  0  0
  146.6998  128.3746  151.3275 C   0  0  0  0  0  0  0  0  0  0  0  0
  147.2821  127.3069  152.0557 O   0  0  0  0  0  0  0  0  0  0  0  0
  147.9632  126.3880  151.2200 C   0  0  0  0  0  0  0  0  0  0  0  0
  145.0723  133.7253  150.9999 H   0  0  0  0  0  0  0  0  0  0  0  0
  146.6965  133.0480  151.0271 H   0  0  0  0  0  0  0  0  0  0  0  0
  146.0484  133.8653  152.4508 H   0  0  0  0  0  0  0  0  0  0  0  0
  144.3409  132.0562  152.7295 H   0  0  0  0  0  0  0  0  0  0  0  0
  144.8497  131.3444  151.2350 H   0  0  0  0  0  0  0  0  0  0  0  0
  147.1279  130.8414  152.3043 H   0  0  0  0  0  0  0  0  0  0  0  0
  147.2274  132.6354  153.9304 H   0  0  0  0  0  0  0  0  0  0  0  0
  145.7548  132.1054  154.7230 H   0  0  0  0  0  0  0  0  0  0  0  0
  151.2562  131.9515  157.0150 H   0  0  0  0  0  0  0  0  0  0  0  0
  145.3940  133.6027  159.1062 H   0  0  0  0  0  0  0  0  0  0  0  0
  148.9023  133.8138  160.5695 H   0  0  0  0  0  0  0  0  0  0  0  0
  148.0925  135.2253  159.9578 H   0  0  0  0  0  0  0  0  0  0  0  0
  147.2551  132.2095  161.2167 H   0  0  0  0  0  0  0  0  0  0  0  0
  146.7323  134.3357  163.5465 H   0  0  0  0  0  0  0  0  0  0  0  0
  148.3801  134.1937  163.0074 H   0  0  0  0  0  0  0  0  0  0  0  0
  147.8192  136.5216  163.7360 H   0  0  0  0  0  0  0  0  0  0  0  0
  148.2553  136.5251  162.0415 H   0  0  0  0  0  0  0  0  0  0  0  0
  144.8128  136.8730  160.9782 H   0  0  0  0  0  0  0  0  0  0  0  0
  146.4539  136.7507  160.3877 H   0  0  0  0  0  0  0  0  0  0  0  0
  145.2427  134.5756  160.0541 H   0  0  0  0  0  0  0  0  0  0  0  0
  144.8021  134.5555  161.7427 H   0  0  0  0  0  0  0  0  0  0  0  0
  147.3648  129.0866  156.1626 H   0  0  0  0  0  0  0  0  0  0  0  0
  145.8321  129.9115  155.9978 H   0  0  0  0  0  0  0  0  0  0  0  0
  147.4213  128.5702  153.7623 H   0  0  0  0  0  0  0  0  0  0  0  0
  145.9439  127.9564  154.4801 H   0  0  0  0  0  0  0  0  0  0  0  0
  144.8039  127.9152  152.2496 H   0  0  0  0  0  0  0  0  0  0  0  0
  144.7827  129.3516  151.3069 H   0  0  0  0  0  0  0  0  0  0  0  0
  146.4816  128.0456  150.3103 H   0  0  0  0  0  0  0  0  0  0  0  0
  147.3907  129.2163  151.2575 H   0  0  0  0  0  0  0  0  0  0  0  0
  148.3982  125.5941  151.8269 H   0  0  0  0  0  0  0  0  0  0  0  0
  148.7714  126.8753  150.6733 H   0  0  0  0  0  0  0  0  0  0  0  0
  147.2826  125.9281  150.5022 H   0  0  0  0  0  0  0  0  0  0  0  0
  144.7799  129.8141  153.6518 H   0  0  0  0  0  0  0  0  0  0  0  0
  1  2  1  0  0  0  0
  1 30  1  0  0  0  0
  1 31  1  0  0  0  0
  1 32  1  0  0  0  0
  2  3  1  0  0  0  0
  2 33  1  0  0  0  0
  2 34  1  0  0  0  0
  3 25  1  0  0  0  0
  3  4  1  0  0  0  0
  3 35  1  0  0  0  0
  4  5  1  0  0  0  0
  4 36  1  0  0  0  0
  4 37  1  0  0  0  0
  5  6  1  0  0  0  0
  5 23  1  0  0  0  0
  6 11  1  0  0  0  0
  6  7  2  0  0  0  0
  7  8  1  0  0  0  0
  8  9  2  0  0  0  0
  8 38  1  0  0  0  0
  9 10  1  0  0  0  0
 10 14  1  0  0  0  0
 10 11  2  0  0  0  0
 11 12  1  0  0  0  0
 12 13  2  0  0  0  0
 13 14  1  0  0  0  0
 13 39  1  0  0  0  0
 14 15  1  0  0  0  0
 15 16  1  0  0  0  0
 15 40  1  0  0  0  0
 15 41  1  0  0  0  0
 16 22  1  0  0  0  0
 16 17  1  0  0  0  0
 16 18  1  0  0  0  0
 17 42  1  0  0  0  0
 18 19  1  0  0  0  0
 18 43  1  0  0  0  0
 18 44  1  0  0  0  0
 19 20  1  0  0  0  0
 19 45  1  0  0  0  0
 19 46  1  0  0  0  0
 20 21  1  0  0  0  0
 21 22  1  0  0  0  0
 21 47  1  0  0  0  0
 21 48  1  0  0  0  0
 22 49  1  0  0  0  0
 22 50  1  0  0  0  0
 23 24  1  0  0  0  0
 23 51  1  0  0  0  0
 23 52  1  0  0  0  0
 24 25  1  0  0  0  0
 24 53  1  0  0  0  0
 24 54  1  0  0  0  0
 25 26  1  0  0  0  0
 25 62  1  0  0  0  0
 26 27  1  0  0  0  0
 26 55  1  0  0  0  0
 26 56  1  0  0  0  0
 27 28  1  0  0  0  0
 27 57  1  0  0  0  0
 27 58  1  0  0  0  0
 28 29  1  0  0  0  0
 29 59  1  0  0  0  0
 29 60  1  0  0  0  0
 29 61  1  0  0  0  0
M  CHG  1  25   1
M  END
> <s_m_source_file>
AV-unprocessed.smi

> <i_m_source_file_index>
256

> <i_lp_mmshare_version>
43012

> <i_f3d_flags>
0

> <s_epik_input>
W0NIM11PW0NIMl1bQ0gyXU4xW0NIMl1bQ0gyXU4oW0NIMl1bQ0BIXTFbQ0gyXVtDSDNdKWMobltjSF1uMiljKGMyMyluW2NIXW4zW0NIMl1DNChbT0hdKVtDSDJdW0NIMl1PW0NIMl1bQ0gyXTQ=

> <s_epik_cmdline>
J2VwaWtfcHl0aG9uJywgJy1waCcsICc3LjAnLCAnLXRuJywgJzgnLCAnLW1hJywgJzIwMCcsICctbWV0YWxfYmluZGluZycsICctaW1hZScsICc8aW5maWxlLm1hZT4nLCAnLW9tYWUnLCAnPG91dGZpbGUubWFlPic=

> <r_lp_tautomer_probability>
1

> <r_epik_Ionization_Penalty>
0.233023

> <r_epik_Ionization_Penalty_Charging>
0.23295

> <r_epik_Ionization_Penalty_Neutral>
7.2493e-05

> <r_epik_State_Penalty>
0.223667

> <r_epik_Charging_Adjusted_Penalty>
0.456618

> <i_epik_Tot_Q>
1

> <i_epik_Tot_abs_Q>
1

> <r_epik_Metal_State_Penalty>
0.226879

> <b_epik_Metal_Only>
0

> <s_lp_Force_Field>
OPLS_2005

> <r_lp_Energy>
45.9613

> <b_lp_Chiralities_Consistent>
1

> <s_lp_Variant>
AV-unprocessed.smi:256-4

> <Gold.Version>
5.8.1

> <Gold.Id.Protein>
6NUR|6NUR_protein|mol2

> <Gold.PLP.Fitness>
46.7125

> <Gold.PLP.PLP>
-39.0385

> <Gold.PLP.part.hbond>
-2.0000

> <Gold.PLP.part.metal>
0.0000

> <Gold.PLP.part.buried>
-7.4389

> <Gold.PLP.part.nonpolar>
-30.7246

> <Gold.PLP.part.repulsive>
0.1203

> <Gold.PLP.ligand.clash>
0.0000

> <Gold.PLP.ligand.torsion>
1.0182

> <Gold.PLP.Chemscore.Hbond>
3.0000

> <Gold.PLP.Chemscore.CHOScore>
0.0000

> <Gold.PLP.Chemscore.Metal>
0.0000

> <Gold.Chemscore.Hbonds>
donor molecule, donor type, donor heavy atom, donor atom, acceptor molecule, acceptor atom, score
      L1  H    25    62       P1 10956  1.70
      P1  H  6896  6909       L1     9  1.00

> <Gold.PLP.Chemscore.Internal.Correction>
0.7105

> <Gold.Rescore>
     Score         DG    S(hbond)    S(metal)    S(lipo)     H(rot)  DE(clash)    DE(int)     intcor
     12.17     -15.79       1.92        0.00      97.33       2.92       0.04       3.58       ----

> <Gold.Chemscore.Fitness>
12.1699

> <Gold.Chemscore.DG>
-15.7907

> <Gold.Chemscore.ZeroCoef>
-5.4800

> <Gold.Chemscore.Hbond>
1.9192

> <Gold.Chemscore.Metal>
0.0000

> <Gold.Chemscore.Lipo>
97.3326

> <Gold.Chemscore.Internal_Hbond>
0.0000

> <Gold.Chemscore.DEClash>
0.0386

> <Gold.Chemscore.DEInternal>
3.5822

> <Gold.Chemscore.Rot>
2.9247

> <Gold.Chemscore.Internal.Correction>
   9.000000E+99

> <Gold.Chemscore.Hbonds>
donor molecule, donor type, donor heavy atom, donor atom, acceptor molecule, acceptor atom, score
      L1  H    25    62       P1 10956  0.15
      P1  H  6896  6909       L1     9  0.99

> <Gold.Chemscore.Hbond.Weighted>
-6.4101

> <Gold.Chemscore.Metal.Weighted>
-0.0000

> <Gold.Chemscore.Lipo.Weighted>
-11.3879

> <Gold.Chemscore.Internal_Hbond.Weighted>
0.0000

> <Gold.Chemscore.DEClash.Weighted>
0.0386

> <Gold.Chemscore.DEInternal.Weighted>
3.5822

> <Gold.Chemscore.Rot.Weighted>
7.4873

> <Gold.Chemscore.Internal.Correction.Weighted>
   9.000000E+99

> <Gold.Protein.RotatedTorsions>
[ 6907 6896 6895 6894 ] final   -2.70 input  -60.11 | X-H torsion
[ 7974 7965 7964 7962 ] final  124.20 input  175.53 | X-H torsion
[ 8008 7997 7996 7995 ] final  173.77 input   59.86 | X-H torsion
[ 10167 10162 10161 10158 ] final   72.98 input  -65.29 | X-H torsion
[ 10718 10713 10712 10709 ] final  121.86 input   66.30 | X-H torsion
[ 10763 10752 10751 10750 ] final  116.16 input  -60.55 | X-H torsion
[ 11005 11000 10999 10996 ] final   47.32 input  -57.11 | X-H torsion

> <Gold.Protein.ActiveResidues>
 VAL166  LYS551  ARG553  GLY616  TRP617  ASP618  TYR619  PRO620  LYS621  CYS622 
 ASP623  PHE694  ASN695  SER759  ASP760  ASP761  ALA762  ILE779  LEU786  VAL792 
 PHE793  MET794  SER795  GLU796  ALA797  LYS798  CYS799  TRP800  GLU811  SER814 

> <Gold.Protein.RotatedAtoms>
  151.5257  135.1068  159.9889 H   0  0  0  0  0  0  0  0  0  0  0  0  # atno 6907 bound_to 6896
  152.4601  133.7800  159.6856 H   0  0  0  0  0  0  0  0  0  0  0  0  # atno 6908 bound_to 6896
  150.8559  133.7650  159.3034 H   0  0  0  0  0  0  0  0  0  0  0  0  # atno 6909 bound_to 6896
  145.0871  139.3614  143.4879 H   0  0  0  0  0  0  0  0  0  0  0  0  # atno 7974 bound_to 7965
  156.1042  140.1451  156.9427 H   0  0  0  0  0  0  0  0  0  0  0  0  # atno 8008 bound_to 7997
  154.4723  140.0906  156.7219 H   0  0  0  0  0  0  0  0  0  0  0  0  # atno 8009 bound_to 7997
  155.4708  140.3441  155.4327 H   0  0  0  0  0  0  0  0  0  0  0  0  # atno 8010 bound_to 7997
  140.0294  144.5478  150.7519 H   0  0  0  0  0  0  0  0  0  0  0  0  # atno 10167 bound_to 10162
  157.5786  131.1077  150.8231 H   0  0  0  0  0  0  0  0  0  0  0  0  # atno 10718 bound_to 10713
  153.5330  135.3574  155.2684 H   0  0  0  0  0  0  0  0  0  0  0  0  # atno 10763 bound_to 10752
  154.8725  135.4073  154.3130 H   0  0  0  0  0  0  0  0  0  0  0  0  # atno 10764 bound_to 10752
  153.3822  135.7068  153.6624 H   0  0  0  0  0  0  0  0  0  0  0  0  # atno 10765 bound_to 10752
  140.1290  134.4731  155.8537 H   0  0  0  0  0  0  0  0  0  0  0  0  # atno 11005 bound_to 11000
  146.3531  140.0689  142.8624 LP  0  0  0  0  0  0  0  0  0  0  0  0  # atno 17320 bound_to 7965
  145.1109  140.9404  143.4657 LP  0  0  0  0  0  0  0  0  0  0  0  0  # atno 17321 bound_to 7965
  140.7309  143.2688  151.3956 LP  0  0  0  0  0  0  0  0  0  0  0  0  # atno 17342 bound_to 10162
  139.6086  144.1145  152.2275 LP  0  0  0  0  0  0  0  0  0  0  0  0  # atno 17343 bound_to 10162
  156.8683  130.5137  149.5298 LP  0  0  0  0  0  0  0  0  0  0  0  0  # atno 17370 bound_to 10713
  156.0831  130.5836  150.9599 LP  0  0  0  0  0  0  0  0  0  0  0  0  # atno 17371 bound_to 10713
  141.2166  133.6788  156.7032 LP  0  0  0  0  0  0  0  0  0  0  0  0  # atno 17394 bound_to 11000
  140.2867  134.8273  157.3981 LP  0  0  0  0  0  0  0  0  0  0  0  0  # atno 17395 bound_to 11000

$$$$
