AV-unprocessed.smi:3268|AV-procd|sdf|12509|dock3
  -GOLD-   2272018413D 1   1.00000     0.00000
 Structure written by MMmdl.
 40 41  0  0  0  0  0  0  0  0  2 V2000
  151.2269  135.7998  156.8947 C   0  0  0  0  0  0  0  0  0  0  0  0
  150.8761  135.9787  155.4033 C   0  0  1  0  0  0  0  0  0  0  0  0
  149.6116  135.2068  154.9859 C   0  0  0  0  0  0  0  0  0  0  0  0
  148.4961  135.5724  155.3588 O   0  0  0  0  0  0  0  0  0  0  0  0
  149.7993  134.1264  154.2102 N   0  0  0  0  0  0  0  0  0  0  0  0
  148.7325  133.2866  153.6789 C   0  0  0  0  0  0  0  0  0  0  0  0
  148.9609  131.7997  154.0133 C   0  0  0  0  0  0  0  0  0  0  0  0
  148.2527  130.8900  153.0772 N   0  3  0  0  0  0  0  0  0  0  0  0
  146.7897  131.1529  153.0417 C   0  0  0  0  0  0  0  0  0  0  0  0
  146.0952  130.3023  151.9647 C   0  0  0  0  0  0  0  0  0  0  0  0
  146.3744  128.8092  152.1778 C   0  0  0  0  0  0  0  0  0  0  0  0
  147.8872  128.5652  152.2444 C   0  0  0  0  0  0  0  0  0  0  0  0
  148.5419  129.4504  153.3186 C   0  0  0  0  0  0  0  0  0  0  0  0
  150.7623  137.3871  155.0430 N   0  0  0  0  0  0  0  0  0  0  0  0
  151.6572  138.3729  155.1372 C   0  0  0  0  0  0  0  0  0  0  0  0
  151.2244  139.5390  154.6788 N   0  0  0  0  0  0  0  0  0  0  0  0
  149.9671  139.1773  154.2861 C   0  0  0  0  0  0  0  0  0  0  0  0
  149.6422  137.8982  154.4735 N   0  0  0  0  0  0  0  0  0  0  0  0
  151.3871  134.7494  157.1399 H   0  0  0  0  0  0  0  0  0  0  0  0
  150.4379  136.1755  157.5476 H   0  0  0  0  0  0  0  0  0  0  0  0
  152.1432  136.3355  157.1445 H   0  0  0  0  0  0  0  0  0  0  0  0
  151.7036  135.5653  154.8243 H   0  0  0  0  0  0  0  0  0  0  0  0
  150.7450  133.8882  153.9480 H   0  0  0  0  0  0  0  0  0  0  0  0
  147.7676  133.6217  154.0633 H   0  0  0  0  0  0  0  0  0  0  0  0
  148.7088  133.4446  152.6016 H   0  0  0  0  0  0  0  0  0  0  0  0
  150.0262  131.5638  154.0247 H   0  0  0  0  0  0  0  0  0  0  0  0
  148.5944  131.6164  155.0245 H   0  0  0  0  0  0  0  0  0  0  0  0
  146.3581  130.9450  154.0222 H   0  0  0  0  0  0  0  0  0  0  0  0
  146.6077  132.2079  152.8326 H   0  0  0  0  0  0  0  0  0  0  0  0
  145.0202  130.4858  151.9799 H   0  0  0  0  0  0  0  0  0  0  0  0
  146.4467  130.6037  150.9771 H   0  0  0  0  0  0  0  0  0  0  0  0
  145.9050  128.4738  153.1035 H   0  0  0  0  0  0  0  0  0  0  0  0
  145.9323  128.2228  151.3717 H   0  0  0  0  0  0  0  0  0  0  0  0
  148.0856  127.5139  152.4551 H   0  0  0  0  0  0  0  0  0  0  0  0
  148.3360  128.7759  151.2727 H   0  0  0  0  0  0  0  0  0  0  0  0
  149.6158  129.2692  153.3113 H   0  0  0  0  0  0  0  0  0  0  0  0
  148.1812  129.1668  154.3086 H   0  0  0  0  0  0  0  0  0  0  0  0
  152.6473  138.2344  155.5459 H   0  0  0  0  0  0  0  0  0  0  0  0
  149.2730  139.8764  153.8434 H   0  0  0  0  0  0  0  0  0  0  0  0
  148.5977  131.1088  152.1533 H   0  0  0  0  0  0  0  0  0  0  0  0
  1  2  1  0  0  0  0
  1 19  1  0  0  0  0
  1 20  1  0  0  0  0
  1 21  1  0  0  0  0
  2  3  1  0  0  0  0
  2 14  1  0  0  0  0
  2 22  1  0  0  0  0
  3  4  2  0  0  0  0
  3  5  1  0  0  0  0
  5  6  1  0  0  0  0
  5 23  1  0  0  0  0
  6  7  1  0  0  0  0
  6 24  1  0  0  0  0
  6 25  1  0  0  0  0
  7  8  1  0  0  0  0
  7 26  1  0  0  0  0
  7 27  1  0  0  0  0
  8 13  1  0  0  0  0
  8  9  1  0  0  0  0
  8 40  1  0  0  0  0
  9 10  1  0  0  0  0
  9 28  1  0  0  0  0
  9 29  1  0  0  0  0
 10 11  1  0  0  0  0
 10 30  1  0  0  0  0
 10 31  1  0  0  0  0
 11 12  1  0  0  0  0
 11 32  1  0  0  0  0
 11 33  1  0  0  0  0
 12 13  1  0  0  0  0
 12 34  1  0  0  0  0
 12 35  1  0  0  0  0
 13 36  1  0  0  0  0
 13 37  1  0  0  0  0
 14 18  1  0  0  0  0
 14 15  1  0  0  0  0
 15 16  2  0  0  0  0
 15 38  1  0  0  0  0
 16 17  1  0  0  0  0
 17 18  2  0  0  0  0
 17 39  1  0  0  0  0
M  CHG  1   8   1
M  END
> <s_m_source_file>
AV-unprocessed.smi

> <i_m_source_file_index>
3268

> <i_lp_mmshare_version>
43012

> <i_f3d_flags>
0

> <s_epik_input>
bjFbY0hdbltjSF1uMVtDQEhdKFtDSDNdKUMoPU8pW05IXVtDSDJdW0NIMl1OMltDSDJdW0NIMl1bQ0gyXVtDSDJdW0NIMl0y

> <s_epik_cmdline>
J2VwaWtfcHl0aG9uJywgJy1waCcsICc3LjAnLCAnLXRuJywgJzgnLCAnLW1hJywgJzIwMCcsICctbWV0YWxfYmluZGluZycsICctaW1hZScsICc8aW5maWxlLm1hZT4nLCAnLW9tYWUnLCAnPG91dGZpbGUubWFlPic=

> <r_lp_tautomer_probability>
1

> <r_epik_Ionization_Penalty>
0.00266407

> <r_epik_Ionization_Penalty_Charging>
0.00265606

> <r_epik_Ionization_Penalty_Neutral>
8.01095e-06

> <r_epik_State_Penalty>
0.00184955

> <r_epik_Charging_Adjusted_Penalty>
0.00450561

> <i_epik_Tot_Q>
1

> <i_epik_Tot_abs_Q>
1

> <r_epik_Metal_State_Penalty>
-0

> <b_epik_Metal_Only>
0

> <s_lp_Force_Field>
OPLS_2005

> <r_lp_Energy>
21.812

> <b_lp_Chiralities_Consistent>
1

> <s_lp_Variant>
AV-unprocessed.smi:3268-2

> <Gold.Version>
5.8.1

> <Gold.Id.Protein>
6NUR|6NUR_protein|mol2

> <Gold.PLP.Fitness>
38.4685

> <Gold.PLP.PLP>
-30.8212

> <Gold.PLP.part.hbond>
-2.4387

> <Gold.PLP.part.metal>
0.0000

> <Gold.PLP.part.buried>
-2.3253

> <Gold.PLP.part.nonpolar>
-26.9129

> <Gold.PLP.part.repulsive>
0.7870

> <Gold.PLP.ligand.clash>
0.0000

> <Gold.PLP.ligand.torsion>
0.3319

> <Gold.PLP.Chemscore.Hbond>
2.0000

> <Gold.PLP.Chemscore.CHOScore>
0.7251

> <Gold.PLP.Chemscore.Metal>
0.0000

> <Gold.Chemscore.Hbonds>
donor molecule, donor type, donor heavy atom, donor atom, acceptor molecule, acceptor atom, score
      L1  H     8    40       P1 10747  1.00
      P1  H  7989  7998       L1    16  1.00
      L1  C    17    39       P1  7957  0.35

> <Gold.PLP.Chemscore.Internal.Correction>
0.1359

> <Gold.Rescore>
     Score         DG    S(hbond)    S(metal)    S(lipo)     H(rot)  DE(clash)    DE(int)     intcor
     10.14     -12.24       1.92        0.00      59.15       2.57       0.16       1.94       ----

> <Gold.Chemscore.Fitness>
10.1449

> <Gold.Chemscore.DG>
-12.2388

> <Gold.Chemscore.ZeroCoef>
-5.4800

> <Gold.Chemscore.Hbond>
1.9207

> <Gold.Chemscore.Metal>
0.0000

> <Gold.Chemscore.Lipo>
59.1465

> <Gold.Chemscore.Internal_Hbond>
0.0000

> <Gold.Chemscore.DEClash>
0.1559

> <Gold.Chemscore.DEInternal>
1.9379

> <Gold.Chemscore.Rot>
2.5690

> <Gold.Chemscore.Internal.Correction>
   9.000000E+99

> <Gold.Chemscore.Hbonds>
donor molecule, donor type, donor heavy atom, donor atom, acceptor molecule, acceptor atom, score
      L1  H     8    40       P1 10747  0.93
      P1  H  7989  7998       L1    16  0.40

> <Gold.Chemscore.Hbond.Weighted>
-6.4152

> <Gold.Chemscore.Metal.Weighted>
-0.0000

> <Gold.Chemscore.Lipo.Weighted>
-6.9201

> <Gold.Chemscore.Internal_Hbond.Weighted>
0.0000

> <Gold.Chemscore.DEClash.Weighted>
0.1559

> <Gold.Chemscore.DEInternal.Weighted>
1.9379

> <Gold.Chemscore.Rot.Weighted>
6.5766

> <Gold.Chemscore.Internal.Correction.Weighted>
   9.000000E+99

> <Gold.Protein.RotatedTorsions>
[ 6907 6896 6895 6894 ] final   15.93 input  -60.11 | X-H torsion
[ 7974 7965 7964 7962 ] final  137.84 input  175.53 | X-H torsion
[ 8008 7997 7996 7995 ] final  -69.15 input   59.86 | X-H torsion
[ 10167 10162 10161 10158 ] final -165.26 input  -65.29 | X-H torsion
[ 10718 10713 10712 10709 ] final   -8.80 input   66.30 | X-H torsion
[ 10763 10752 10751 10750 ] final   49.00 input  -60.55 | X-H torsion
[ 11005 11000 10999 10996 ] final  -19.32 input  -57.11 | X-H torsion

> <Gold.Protein.ActiveResidues>
 VAL166  LYS551  ARG553  GLY616  TRP617  ASP618  TYR619  PRO620  LYS621  CYS622 
 ASP623  PHE694  ASN695  SER759  ASP760  ASP761  ALA762  ILE779  LEU786  VAL792 
 PHE793  MET794  SER795  GLU796  ALA797  LYS798  CYS799  TRP800  GLU811  SER814 

> <Gold.Protein.RotatedAtoms>
  151.8258  135.0637  160.0430 H   0  0  0  0  0  0  0  0  0  0  0  0  # atno 6907 bound_to 6896
  152.2917  133.5563  159.5570 H   0  0  0  0  0  0  0  0  0  0  0  0  # atno 6908 bound_to 6896
  150.7233  134.0335  159.3783 H   0  0  0  0  0  0  0  0  0  0  0  0  # atno 6909 bound_to 6896
  144.9430  139.4909  143.5563 H   0  0  0  0  0  0  0  0  0  0  0  0  # atno 7974 bound_to 7965
  154.4918  140.0859  156.7611 H   0  0  0  0  0  0  0  0  0  0  0  0  # atno 8008 bound_to 7997
  155.4212  140.3446  155.4253 H   0  0  0  0  0  0  0  0  0  0  0  0  # atno 8009 bound_to 7997
  156.1340  140.1509  156.9010 H   0  0  0  0  0  0  0  0  0  0  0  0  # atno 8010 bound_to 7997
  139.6194  144.0654  152.1919 H   0  0  0  0  0  0  0  0  0  0  0  0  # atno 10167 bound_to 10162
  156.6972  130.5082  149.5927 H   0  0  0  0  0  0  0  0  0  0  0  0  # atno 10718 bound_to 10713
  152.9789  135.5926  154.4018 H   0  0  0  0  0  0  0  0  0  0  0  0  # atno 10763 bound_to 10752
  154.3663  135.2767  155.2293 H   0  0  0  0  0  0  0  0  0  0  0  0  # atno 10764 bound_to 10752
  154.4269  135.6046  153.6099 H   0  0  0  0  0  0  0  0  0  0  0  0  # atno 10765 bound_to 10752
  140.8355  133.7965  155.9804 H   0  0  0  0  0  0  0  0  0  0  0  0  # atno 11005 bound_to 11000
  146.3293  139.8462  142.8881 LP  0  0  0  0  0  0  0  0  0  0  0  0  # atno 17320 bound_to 7965
  145.2962  141.0181  143.3635 LP  0  0  0  0  0  0  0  0  0  0  0  0  # atno 17321 bound_to 7965
  140.0292  144.6094  150.7502 LP  0  0  0  0  0  0  0  0  0  0  0  0  # atno 17342 bound_to 10162
  140.7372  143.2763  151.3733 LP  0  0  0  0  0  0  0  0  0  0  0  0  # atno 17343 bound_to 10162
  156.1754  130.6464  151.0888 LP  0  0  0  0  0  0  0  0  0  0  0  0  # atno 17370 bound_to 10713
  157.6986  131.0784  150.6890 LP  0  0  0  0  0  0  0  0  0  0  0  0  # atno 17371 bound_to 10713
  140.8952  134.2446  157.5072 LP  0  0  0  0  0  0  0  0  0  0  0  0  # atno 17394 bound_to 11000
  139.8704  134.9680  156.4617 LP  0  0  0  0  0  0  0  0  0  0  0  0  # atno 17395 bound_to 11000

$$$$
