AV-unprocessed.smi:1929|AV-procd|sdf|7799|dock5
  -GOLD-   22720 9543D 1   1.00000     0.00000
 Structure written by MMmdl.
 42 43  0  0  0  0  0  0  0  0  1 V2000
  142.5627  137.4008  153.2469 C   0  0  0  0  0  0  0  0  0  0  0  0
  143.8126  137.9919  152.7946 N   0  0  0  0  0  0  0  0  0  0  0  0
  145.0158  137.4196  152.9465 C   0  0  0  0  0  0  0  0  0  0  0  0
  145.1813  136.3283  153.4914 O   0  0  0  0  0  0  0  0  0  0  0  0
  146.2198  138.1903  152.3916 C   0  0  0  0  0  0  0  0  0  0  0  0
  146.8035  139.1753  153.3309 N   0  0  0  0  0  0  0  0  0  0  0  0
  147.4283  140.2596  152.5664 C   0  0  0  0  0  0  0  0  0  0  0  0
  147.9285  141.3691  153.5078 C   0  0  0  0  0  0  0  0  0  0  0  0
  148.9356  140.8169  154.5256 C   0  0  0  0  0  0  0  0  0  0  0  0
  149.3088  141.8619  155.4744 N   0  0  0  0  0  0  0  0  0  0  0  0
  150.1471  141.7032  156.5087 C   0  0  0  0  0  0  0  0  0  0  0  0
  150.6975  140.6354  156.7767 O   0  0  0  0  0  0  0  0  0  0  0  0
  150.2795  142.8460  157.2049 N   0  0  0  0  0  0  0  0  0  0  0  0
  151.0788  143.1036  158.3521 C   0  0  0  0  0  0  0  0  0  0  0  0
  152.0948  142.1765  158.6644 C   0  0  0  0  0  0  0  0  0  0  0  0
  152.8908  142.3989  159.8056 C   0  0  0  0  0  0  0  0  0  0  0  0
  152.7274  143.4553  160.6294 N   0  0  0  0  0  0  0  0  0  0  0  0
  151.7458  144.3347  160.3373 C   0  0  0  0  0  0  0  0  0  0  0  0
  150.8946  144.2062  159.2212 C   0  0  0  0  0  0  0  0  0  0  0  0
  148.3042  139.6166  155.2496 C   0  0  0  0  0  0  0  0  0  0  0  0
  147.7809  138.5711  154.2486 C   0  0  0  0  0  0  0  0  0  0  0  0
  141.7293  138.0563  152.9949 H   0  0  0  0  0  0  0  0  0  0  0  0
  142.5697  137.2572  154.3280 H   0  0  0  0  0  0  0  0  0  0  0  0
  142.3943  136.4355  152.7677 H   0  0  0  0  0  0  0  0  0  0  0  0
  143.7608  138.8889  152.3339 H   0  0  0  0  0  0  0  0  0  0  0  0
  146.9914  137.4882  152.0688 H   0  0  0  0  0  0  0  0  0  0  0  0
  145.8782  138.7065  151.4933 H   0  0  0  0  0  0  0  0  0  0  0  0
  148.2533  139.8748  151.9640 H   0  0  0  0  0  0  0  0  0  0  0  0
  146.7033  140.6888  151.8735 H   0  0  0  0  0  0  0  0  0  0  0  0
  148.3878  142.1677  152.9240 H   0  0  0  0  0  0  0  0  0  0  0  0
  147.0777  141.8144  154.0260 H   0  0  0  0  0  0  0  0  0  0  0  0
  149.8240  140.4837  153.9850 H   0  0  0  0  0  0  0  0  0  0  0  0
  148.8947  142.7715  155.3325 H   0  0  0  0  0  0  0  0  0  0  0  0
  149.6989  143.6150  156.9044 H   0  0  0  0  0  0  0  0  0  0  0  0
  152.2687  141.3116  158.0408 H   0  0  0  0  0  0  0  0  0  0  0  0
  153.6793  141.7075  160.0642 H   0  0  0  0  0  0  0  0  0  0  0  0
  151.6296  145.1649  161.0182 H   0  0  0  0  0  0  0  0  0  0  0  0
  150.1203  144.9414  159.0661 H   0  0  0  0  0  0  0  0  0  0  0  0
  149.0337  139.1525  155.9144 H   0  0  0  0  0  0  0  0  0  0  0  0
  147.4814  139.9540  155.8822 H   0  0  0  0  0  0  0  0  0  0  0  0
  147.3309  137.7583  154.8183 H   0  0  0  0  0  0  0  0  0  0  0  0
  148.6094  138.1395  153.6844 H   0  0  0  0  0  0  0  0  0  0  0  0
  1  2  1  0  0  0  0
  1 22  1  0  0  0  0
  1 23  1  0  0  0  0
  1 24  1  0  0  0  0
  2  3  1  0  0  0  0
  2 25  1  0  0  0  0
  3  4  2  0  0  0  0
  3  5  1  0  0  0  0
  5  6  1  0  0  0  0
  5 26  1  0  0  0  0
  5 27  1  0  0  0  0
  6 21  1  0  0  0  0
  6  7  1  0  0  0  0
  7  8  1  0  0  0  0
  7 28  1  0  0  0  0
  7 29  1  0  0  0  0
  8  9  1  0  0  0  0
  8 30  1  0  0  0  0
  8 31  1  0  0  0  0
  9 10  1  0  0  0  0
  9 20  1  0  0  0  0
  9 32  1  0  0  0  0
 10 11  1  0  0  0  0
 10 33  1  0  0  0  0
 11 12  2  0  0  0  0
 11 13  1  0  0  0  0
 13 14  1  0  0  0  0
 13 34  1  0  0  0  0
 14 19  1  0  0  0  0
 14 15  2  0  0  0  0
 15 16  1  0  0  0  0
 15 35  1  0  0  0  0
 16 17  2  0  0  0  0
 16 36  1  0  0  0  0
 17 18  1  0  0  0  0
 18 19  2  0  0  0  0
 18 37  1  0  0  0  0
 19 38  1  0  0  0  0
 20 21  1  0  0  0  0
 20 39  1  0  0  0  0
 20 40  1  0  0  0  0
 21 41  1  0  0  0  0
 21 42  1  0  0  0  0
M  END
> <s_m_source_file>
AV-unprocessed.smi

> <i_m_source_file_index>
1929

> <i_lp_mmshare_version>
43012

> <i_f3d_flags>
0

> <s_epik_input>
W0NIM11bTkhdQyg9TylbQ0gyXU4xW0NIMl1bQ0gyXVtDSF0oW0NIMl1bQ0gyXTEpW05IXUMoPU8pW05IXWMyW2NIXVtjSF1uW2NIXVtjSF0y

> <s_epik_cmdline>
J2VwaWtfcHl0aG9uJywgJy1waCcsICc3LjAnLCAnLXRuJywgJzgnLCAnLW1hJywgJzIwMCcsICctbWV0YWxfYmluZGluZycsICctaW1hZScsICc8aW5maWxlLm1hZT4nLCAnLW9tYWUnLCAnPG91dGZpbGUubWFlPic=

> <r_epik_Ionization_Penalty>
0.286942

> <r_epik_Ionization_Penalty_Charging>
0

> <r_epik_Ionization_Penalty_Neutral>
0.286942

> <r_epik_State_Penalty>
0.264061

> <r_epik_Charging_Adjusted_Penalty>
0.264061

> <i_epik_Tot_Q>
0

> <i_epik_Tot_abs_Q>
0

> <r_epik_Metal_State_Penalty>
0.245324

> <b_epik_Metal_Only>
0

> <s_lp_Force_Field>
OPLS_2005

> <r_lp_Energy>
20.0656

> <b_lp_Chiralities_Consistent>
1

> <s_lp_Variant>
AV-unprocessed.smi:1929-1

> <Gold.Version>
5.8.1

> <Gold.Id.Protein>
6NUR|6NUR_protein|mol2

> <Gold.PLP.Fitness>
42.3399

> <Gold.PLP.PLP>
-34.8043

> <Gold.PLP.part.hbond>
-3.6358

> <Gold.PLP.part.metal>
0.0000

> <Gold.PLP.part.buried>
-2.3480

> <Gold.PLP.part.nonpolar>
-29.8435

> <Gold.PLP.part.repulsive>
0.5504

> <Gold.PLP.ligand.clash>
0.0000

> <Gold.PLP.ligand.torsion>
0.7386

> <Gold.PLP.Chemscore.Hbond>
3.0000

> <Gold.PLP.Chemscore.CHOScore>
0.0000

> <Gold.PLP.Chemscore.Metal>
0.0000

> <Gold.Chemscore.Hbonds>
donor molecule, donor type, donor heavy atom, donor atom, acceptor molecule, acceptor atom, score
      L1  H     2    25       P1 10175  0.98
      L1  H    10    33       P1  8028  1.00
      L1  H    13    34       P1  8028  1.00

> <Gold.PLP.Chemscore.Internal.Correction>
0.0127

> <Gold.Rescore>
     Score         DG    S(hbond)    S(metal)    S(lipo)     H(rot)  DE(clash)    DE(int)     intcor
     18.22     -22.18       2.93        0.00      95.55       1.66       1.46       2.50       ----

> <Gold.Chemscore.Fitness>
18.2214

> <Gold.Chemscore.DG>
-22.1775

> <Gold.Chemscore.ZeroCoef>
-5.4800

> <Gold.Chemscore.Hbond>
2.9261

> <Gold.Chemscore.Metal>
0.0000

> <Gold.Chemscore.Lipo>
95.5522

> <Gold.Chemscore.Internal_Hbond>
0.0000

> <Gold.Chemscore.DEClash>
1.4594

> <Gold.Chemscore.DEInternal>
2.4967

> <Gold.Chemscore.Rot>
1.6623

> <Gold.Chemscore.Internal.Correction>
   9.000000E+99

> <Gold.Chemscore.Hbonds>
donor molecule, donor type, donor heavy atom, donor atom, acceptor molecule, acceptor atom, score
      L1  H     2    25       P1 10175  0.89
      L1  H    10    33       P1  8028  0.94
      L1  H    13    34       P1  8028  0.96

> <Gold.Chemscore.Hbond.Weighted>
-9.7733

> <Gold.Chemscore.Metal.Weighted>
-0.0000

> <Gold.Chemscore.Lipo.Weighted>
-11.1796

> <Gold.Chemscore.Internal_Hbond.Weighted>
0.0000

> <Gold.Chemscore.DEClash.Weighted>
1.4594

> <Gold.Chemscore.DEInternal.Weighted>
2.4967

> <Gold.Chemscore.Rot.Weighted>
4.2554

> <Gold.Chemscore.Internal.Correction.Weighted>
   9.000000E+99

> <Gold.Protein.RotatedTorsions>
[ 6907 6896 6895 6894 ] final  -88.65 input  -60.11 | X-H torsion
[ 7974 7965 7964 7962 ] final  -76.74 input  175.53 | X-H torsion
[ 8008 7997 7996 7995 ] final  -45.31 input   59.86 | X-H torsion
[ 10167 10162 10161 10158 ] final -171.85 input  -65.29 | X-H torsion
[ 10718 10713 10712 10709 ] final   -5.51 input   66.30 | X-H torsion
[ 10763 10752 10751 10750 ] final   22.70 input  -60.55 | X-H torsion
[ 11005 11000 10999 10996 ] final  -95.02 input  -57.11 | X-H torsion

> <Gold.Protein.ActiveResidues>
 VAL166  LYS551  ARG553  GLY616  TRP617  ASP618  TYR619  PRO620  LYS621  CYS622 
 ASP623  PHE694  ASN695  SER759  ASP760  ASP761  ALA762  ILE779  LEU786  VAL792 
 PHE793  MET794  SER795  GLU796  ALA797  LYS798  CYS799  TRP800  GLU811  SER814 

> <Gold.Protein.RotatedAtoms>
  150.6869  134.2708  159.4587 H   0  0  0  0  0  0  0  0  0  0  0  0  # atno 6907 bound_to 6896
  152.0631  134.9579  160.0584 H   0  0  0  0  0  0  0  0  0  0  0  0  # atno 6908 bound_to 6896
  152.0998  133.4209  159.4619 H   0  0  0  0  0  0  0  0  0  0  0  0  # atno 6909 bound_to 6896
  145.6089  140.9391  143.1200 H   0  0  0  0  0  0  0  0  0  0  0  0  # atno 7974 bound_to 7965
  154.4000  140.1400  156.3827 H   0  0  0  0  0  0  0  0  0  0  0  0  # atno 8008 bound_to 7997
  155.7988  140.3476  155.5370 H   0  0  0  0  0  0  0  0  0  0  0  0  # atno 8009 bound_to 7997
  155.8504  140.0940  157.1669 H   0  0  0  0  0  0  0  0  0  0  0  0  # atno 8010 bound_to 7997
  139.5778  144.1492  152.1474 H   0  0  0  0  0  0  0  0  0  0  0  0  # atno 10167 bound_to 10162
  156.7455  130.5223  149.5815 H   0  0  0  0  0  0  0  0  0  0  0  0  # atno 10718 bound_to 10713
  153.0895  135.6643  153.9882 H   0  0  0  0  0  0  0  0  0  0  0  0  # atno 10763 bound_to 10752
  153.9482  135.2986  155.3441 H   0  0  0  0  0  0  0  0  0  0  0  0  # atno 10764 bound_to 10752
  154.7308  135.5123  153.9034 H   0  0  0  0  0  0  0  0  0  0  0  0  # atno 10765 bound_to 10752
  141.1454  133.7997  157.0378 H   0  0  0  0  0  0  0  0  0  0  0  0  # atno 11005 bound_to 11000
  144.7278  139.7820  143.7358 LP  0  0  0  0  0  0  0  0  0  0  0  0  # atno 17320 bound_to 7965
  146.1520  139.4605  143.0043 LP  0  0  0  0  0  0  0  0  0  0  0  0  # atno 17321 bound_to 7965
  140.1038  144.5516  150.6970 LP  0  0  0  0  0  0  0  0  0  0  0  0  # atno 17342 bound_to 10162
  140.7059  143.2468  151.4726 LP  0  0  0  0  0  0  0  0  0  0  0  0  # atno 17343 bound_to 10162
  156.1436  130.6261  151.0500 LP  0  0  0  0  0  0  0  0  0  0  0  0  # atno 17370 bound_to 10713
  157.6800  131.0840  150.7395 LP  0  0  0  0  0  0  0  0  0  0  0  0  # atno 17371 bound_to 10713
  140.0712  134.9701  157.1471 LP  0  0  0  0  0  0  0  0  0  0  0  0  # atno 17394 bound_to 11000
  140.3708  134.2393  155.7178 LP  0  0  0  0  0  0  0  0  0  0  0  0  # atno 17395 bound_to 11000

$$$$
