AV-unprocessed.smi:2698|AV-procd|sdf|10418|dock1
  -GOLD-   2272014453D 1   1.00000     0.00000
 Structure written by MMmdl.
 34 34  0  0  0  0  0  0  0  0  3 V2000
  151.5931  145.9294  159.8037 C   0  0  0  0  0  0  0  0  0  0  0  0
  151.7347  144.4457  159.4311 C   0  0  0  0  0  0  0  0  0  0  0  0
  153.2188  144.0345  159.4283 C   0  0  0  0  0  0  0  0  0  0  0  0
  151.0144  144.1512  158.0946 C   0  0  0  0  0  0  0  0  0  0  0  0
  150.8081  142.6572  157.8311 C   0  0  0  0  0  0  0  0  0  0  0  0
  150.7816  141.8614  158.7700 O   0  0  0  0  0  0  0  0  0  0  0  0
  150.6613  142.2933  156.5472 N   0  0  0  0  0  0  0  0  0  0  0  0
  150.4255  140.9355  156.0558 C   0  0  1  0  0  0  0  0  0  0  0  0
  149.9277  140.9378  154.5942 C   0  0  0  0  0  0  0  0  0  0  0  0
  148.4418  141.1390  154.4240 C   0  0  0  0  0  0  0  0  0  0  0  0
  147.4573  140.2761  153.9797 C   0  0  0  0  0  0  0  0  0  0  0  0
  146.2505  140.9526  154.0518 N   0  0  0  0  0  0  0  0  0  0  0  0
  146.5181  142.1688  154.5236 C   0  0  0  0  0  0  0  0  0  0  0  0
  147.8184  142.3324  154.7572 N   0  3  0  0  0  0  0  0  0  0  0  0
  151.6841  140.0878  156.2560 C   0  0  0  0  0  0  0  0  0  0  0  0
  152.6779  140.3659  155.5486 O   0  0  0  0  0  0  0  0  0  0  0  0
  151.6305  139.1727  157.1061 O   0  5  0  0  0  0  0  0  0  0  0  0
  145.3407  140.5873  153.8081 H   0  0  0  0  0  0  0  0  0  0  0  0
  152.0596  146.5715  159.0560 H   0  0  0  0  0  0  0  0  0  0  0  0
  152.0627  146.1416  160.7646 H   0  0  0  0  0  0  0  0  0  0  0  0
  150.5446  146.2186  159.8823 H   0  0  0  0  0  0  0  0  0  0  0  0
  151.2382  143.8715  160.2151 H   0  0  0  0  0  0  0  0  0  0  0  0
  153.7686  144.5449  158.6370 H   0  0  0  0  0  0  0  0  0  0  0  0
  153.3451  142.9622  159.2834 H   0  0  0  0  0  0  0  0  0  0  0  0
  153.6951  144.2842  160.3766 H   0  0  0  0  0  0  0  0  0  0  0  0
  150.0404  144.6433  158.0833 H   0  0  0  0  0  0  0  0  0  0  0  0
  151.5766  144.5799  157.2638 H   0  0  0  0  0  0  0  0  0  0  0  0
  150.7222  143.0135  155.8415 H   0  0  0  0  0  0  0  0  0  0  0  0
  149.6462  140.4758  156.6679 H   0  0  0  0  0  0  0  0  0  0  0  0
  150.4542  141.6966  154.0133 H   0  0  0  0  0  0  0  0  0  0  0  0
  150.1767  139.9811  154.1333 H   0  0  0  0  0  0  0  0  0  0  0  0
  147.5036  139.2534  153.6355 H   0  0  0  0  0  0  0  0  0  0  0  0
  145.7708  142.9283  154.7015 H   0  0  0  0  0  0  0  0  0  0  0  0
  148.2657  143.1595  155.1261 H   0  0  0  0  0  0  0  0  0  0  0  0
  1  2  1  0  0  0  0
  1 19  1  0  0  0  0
  1 20  1  0  0  0  0
  1 21  1  0  0  0  0
  2  3  1  0  0  0  0
  2  4  1  0  0  0  0
  2 22  1  0  0  0  0
  3 23  1  0  0  0  0
  3 24  1  0  0  0  0
  3 25  1  0  0  0  0
  4  5  1  0  0  0  0
  4 26  1  0  0  0  0
  4 27  1  0  0  0  0
  5  6  2  0  0  0  0
  5  7  1  0  0  0  0
  7  8  1  0  0  0  0
  7 28  1  0  0  0  0
  8  9  1  0  0  0  0
  8 15  1  0  0  0  0
  8 29  1  0  0  0  0
  9 10  1  0  0  0  0
  9 30  1  0  0  0  0
  9 31  1  0  0  0  0
 10 14  1  0  0  0  0
 10 11  2  0  0  0  0
 11 12  1  0  0  0  0
 11 32  1  0  0  0  0
 12 18  1  0  0  0  0
 12 13  1  0  0  0  0
 13 14  2  0  0  0  0
 13 33  1  0  0  0  0
 14 34  1  0  0  0  0
 15 16  2  0  0  0  0
 15 17  1  0  0  0  0
M  CHG  1  14   1
M  CHG  1  17  -1
M  END
> <s_m_source_file>
AV-unprocessed.smi

> <i_m_source_file_index>
2698

> <i_lp_mmshare_version>
43012

> <i_f3d_flags>
0

> <s_epik_input>
W0NIM11bQ0hdKFtDSDNdKVtDSDJdQyg9TylbTkhdW0NAQEhdKEMoPU8pW09IXSlbQ0gyXWMxW2NIXVtuSF1bY0hdbjE=

> <s_epik_cmdline>
J2VwaWtfcHl0aG9uJywgJy1waCcsICc3LjAnLCAnLXRuJywgJzgnLCAnLW1hJywgJzIwMCcsICctbWV0YWxfYmluZGluZycsICctaW1hZScsICc8aW5maWxlLm1hZT4nLCAnLW9tYWUnLCAnPG91dGZpbGUubWFlPic=

> <r_lp_tautomer_probability>
1

> <r_epik_Ionization_Penalty>
0.478676

> <r_epik_Ionization_Penalty_Charging>
5.56794e-05

> <r_epik_Ionization_Penalty_Neutral>
0.478621

> <r_epik_State_Penalty>
0.385221

> <r_epik_Charging_Adjusted_Penalty>
0.385276

> <i_epik_Tot_Q>
0

> <i_epik_Tot_abs_Q>
2

> <r_epik_Metal_State_Penalty>
0.800557

> <b_epik_Metal_Only>
0

> <s_lp_Force_Field>
OPLS_2005

> <r_lp_Energy>
0.213312

> <b_lp_Chiralities_Consistent>
1

> <s_lp_Variant>
AV-unprocessed.smi:2698-2

> <Gold.Version>
5.8.1

> <Gold.Id.Protein>
6NUR|6NUR_protein|mol2

> <Gold.PLP.Fitness>
54.0901

> <Gold.PLP.PLP>
-36.4010

> <Gold.PLP.part.hbond>
-4.1428

> <Gold.PLP.part.metal>
0.0000

> <Gold.PLP.part.buried>
-1.4711

> <Gold.PLP.part.nonpolar>
-31.1961

> <Gold.PLP.part.repulsive>
0.3042

> <Gold.PLP.ligand.clash>
0.0000

> <Gold.PLP.ligand.torsion>
1.0062

> <Gold.PLP.Chemscore.Hbond>
6.4786

> <Gold.PLP.Chemscore.CHOScore>
0.0000

> <Gold.PLP.Chemscore.Metal>
0.0000

> <Gold.Chemscore.Hbonds>
donor molecule, donor type, donor heavy atom, donor atom, acceptor molecule, acceptor atom, score
      L1  H    12    18       P1 10175  1.53
      L1  H    14    34       P1  8028  2.00
      P1  H  7989  7998       L1    16  0.12
      P1  H  7997  8008       L1    16  2.00

> <Gold.PLP.Chemscore.Internal.Correction>
0.2658

> <Gold.Rescore>
     Score         DG    S(hbond)    S(metal)    S(lipo)     H(rot)  DE(clash)    DE(int)     intcor
     13.47     -16.15       2.93        0.00      75.22       3.09       1.28       1.41       ----

> <Gold.Chemscore.Fitness>
13.4658

> <Gold.Chemscore.DG>
-16.1540

> <Gold.Chemscore.ZeroCoef>
-5.4800

> <Gold.Chemscore.Hbond>
2.9283

> <Gold.Chemscore.Metal>
0.0000

> <Gold.Chemscore.Lipo>
75.2182

> <Gold.Chemscore.Internal_Hbond>
0.0000

> <Gold.Chemscore.DEClash>
1.2813

> <Gold.Chemscore.DEInternal>
1.4069

> <Gold.Chemscore.Rot>
3.0887

> <Gold.Chemscore.Internal.Correction>
   9.000000E+99

> <Gold.Chemscore.Hbonds>
donor molecule, donor type, donor heavy atom, donor atom, acceptor molecule, acceptor atom, score
      L1  H     7    28       P1  8028  0.01
      L1  H    12    18       P1 10175  0.69
      L1  H    14    34       P1  8028  0.98
      P1  H  7989  7998       L1    16  0.04
      P1  H  7997  8008       L1    16  0.97

> <Gold.Chemscore.Hbond.Weighted>
-9.7805

> <Gold.Chemscore.Metal.Weighted>
-0.0000

> <Gold.Chemscore.Lipo.Weighted>
-8.8005

> <Gold.Chemscore.Internal_Hbond.Weighted>
0.0000

> <Gold.Chemscore.DEClash.Weighted>
1.2813

> <Gold.Chemscore.DEInternal.Weighted>
1.4069

> <Gold.Chemscore.Rot.Weighted>
7.9070

> <Gold.Chemscore.Internal.Correction.Weighted>
   9.000000E+99

> <Gold.Protein.RotatedTorsions>
[ 6907 6896 6895 6894 ] final   98.89 input  -60.11 | X-H torsion
[ 7974 7965 7964 7962 ] final    7.63 input  175.53 | X-H torsion
[ 8008 7997 7996 7995 ] final  -23.31 input   59.86 | X-H torsion
[ 10167 10162 10161 10158 ] final  -55.24 input  -65.29 | X-H torsion
[ 10718 10713 10712 10709 ] final -158.99 input   66.30 | X-H torsion
[ 10763 10752 10751 10750 ] final -115.98 input  -60.55 | X-H torsion
[ 11005 11000 10999 10996 ] final  -42.32 input  -57.11 | X-H torsion

> <Gold.Protein.ActiveResidues>
 VAL166  LYS551  ARG553  GLY616  TRP617  ASP618  TYR619  PRO620  LYS621  CYS622 
 ASP623  PHE694  ASN695  SER759  ASP760  ASP761  ALA762  ILE779  LEU786  VAL792 
 PHE793  MET794  SER795  GLU796  ALA797  LYS798  CYS799  TRP800  GLU811  SER814 

> <Gold.Protein.RotatedAtoms>
  152.5401  134.0512  159.8110 H   0  0  0  0  0  0  0  0  0  0  0  0  # atno 6907 bound_to 6896
  151.0653  133.5503  159.2638 H   0  0  0  0  0  0  0  0  0  0  0  0  # atno 6908 bound_to 6896
  151.2386  135.0589  159.9070 H   0  0  0  0  0  0  0  0  0  0  0  0  # atno 6909 bound_to 6896
  146.2425  140.0055  142.8412 H   0  0  0  0  0  0  0  0  0  0  0  0  # atno 7974 bound_to 7965
  154.4592  140.1984  156.0291 H   0  0  0  0  0  0  0  0  0  0  0  0  # atno 8008 bound_to 7997
  156.0808  140.3272  155.7663 H   0  0  0  0  0  0  0  0  0  0  0  0  # atno 8009 bound_to 7997
  155.5115  140.0562  157.2913 H   0  0  0  0  0  0  0  0  0  0  0  0  # atno 8010 bound_to 7997
  140.6386  143.2495  151.5052 H   0  0  0  0  0  0  0  0  0  0  0  0  # atno 10167 bound_to 10162
  156.5619  130.8650  151.2812 H   0  0  0  0  0  0  0  0  0  0  0  0  # atno 10718 bound_to 10713
  154.8502  135.4362  154.1749 H   0  0  0  0  0  0  0  0  0  0  0  0  # atno 10763 bound_to 10752
  153.2853  135.6957  153.7351 H   0  0  0  0  0  0  0  0  0  0  0  0  # atno 10764 bound_to 10752
  153.6539  135.3446  155.3082 H   0  0  0  0  0  0  0  0  0  0  0  0  # atno 10765 bound_to 10752
  141.0307  133.6821  156.2578 H   0  0  0  0  0  0  0  0  0  0  0  0  # atno 11005 bound_to 11000
  145.1376  140.9553  143.4507 LP  0  0  0  0  0  0  0  0  0  0  0  0  # atno 17320 bound_to 7965
  145.0327  139.3327  143.6016 LP  0  0  0  0  0  0  0  0  0  0  0  0  # atno 17321 bound_to 7965
  139.5595  144.2191  152.1668 LP  0  0  0  0  0  0  0  0  0  0  0  0  # atno 17342 bound_to 10162
  140.1455  144.5163  150.6718 LP  0  0  0  0  0  0  0  0  0  0  0  0  # atno 17343 bound_to 10162
  157.7367  130.9783  150.2149 LP  0  0  0  0  0  0  0  0  0  0  0  0  # atno 17370 bound_to 10713
  156.2792  130.3731  149.7953 LP  0  0  0  0  0  0  0  0  0  0  0  0  # atno 17371 bound_to 10713
  140.6411  134.5164  157.5569 LP  0  0  0  0  0  0  0  0  0  0  0  0  # atno 17394 bound_to 11000
  139.9206  134.8157  156.1224 LP  0  0  0  0  0  0  0  0  0  0  0  0  # atno 17395 bound_to 11000

$$$$
