AV-unprocessed.smi:447|AV-procd|sdf|2604|dock3
  -GOLD-   2262023 03D 1   1.00000     0.00000
 Structure written by MMmdl.
 46 48  0  0  0  0  0  0  0  0  2 V2000
  146.5316  133.2613  152.0828 C   0  0  0  0  0  0  0  0  0  0  0  0
  147.1454  133.2526  153.4780 C   0  0  0  0  0  0  0  0  0  0  0  0
  147.1601  132.2159  154.1383 O   0  0  0  0  0  0  0  0  0  0  0  0
  147.6377  134.4217  153.9162 N   0  0  0  0  0  0  0  0  0  0  0  0
  148.3272  134.6519  155.1866 C   0  0  1  0  0  0  0  0  0  0  0  0
  149.5630  133.7412  155.2401 C   0  0  0  0  0  0  0  0  0  0  0  0
  148.7238  136.0866  155.4137 C   0  0  0  0  0  0  0  0  0  0  0  0
  149.0674  136.9834  154.4440 N   0  3  0  0  0  0  0  0  0  0  0  0
  149.4158  138.2025  155.0206 C   0  0  0  0  0  0  0  0  0  0  0  0
  149.8251  139.3984  154.4392 C   0  0  0  0  0  0  0  0  0  0  0  0
  150.1239  140.4595  155.3183 C   0  0  0  0  0  0  0  0  0  0  0  0
  150.0153  140.3062  156.7153 C   0  0  0  0  0  0  0  0  0  0  0  0
  149.5992  139.0878  157.2910 C   0  0  0  0  0  0  0  0  0  0  0  0
  149.2953  138.0446  156.4154 C   0  0  0  0  0  0  0  0  0  0  0  0
  148.8538  136.7285  156.6154 N   0  0  0  0  0  0  0  0  0  0  0  0
  148.6544  136.2412  157.9962 C   0  0  0  0  0  0  0  0  0  0  0  0
  147.3524  136.7191  158.6818 C   0  0  1  0  0  0  0  0  0  0  0  0
  146.2283  136.4863  157.8558 O   0  0  0  0  0  0  0  0  0  0  0  0
  147.1851  136.1689  160.0924 C   0  0  0  0  0  0  0  0  0  0  0  0
  147.1121  137.0245  161.2151 C   0  0  0  0  0  0  0  0  0  0  0  0
  146.9732  136.4867  162.5095 C   0  0  0  0  0  0  0  0  0  0  0  0
  146.8913  135.0935  162.6907 C   0  0  0  0  0  0  0  0  0  0  0  0
  146.9565  134.2360  161.5766 C   0  0  0  0  0  0  0  0  0  0  0  0
  147.1063  134.7722  160.2832 C   0  0  0  0  0  0  0  0  0  0  0  0
  145.6788  133.9398  152.0464 H   0  0  0  0  0  0  0  0  0  0  0  0
  146.1877  132.2649  151.8037 H   0  0  0  0  0  0  0  0  0  0  0  0
  147.2659  133.5873  151.3455 H   0  0  0  0  0  0  0  0  0  0  0  0
  147.5684  135.2153  153.2956 H   0  0  0  0  0  0  0  0  0  0  0  0
  147.6474  134.3544  155.9839 H   0  0  0  0  0  0  0  0  0  0  0  0
  150.0849  133.8236  156.1928 H   0  0  0  0  0  0  0  0  0  0  0  0
  150.2748  133.9938  154.4532 H   0  0  0  0  0  0  0  0  0  0  0  0
  149.2846  132.6945  155.1125 H   0  0  0  0  0  0  0  0  0  0  0  0
  149.9138  139.5152  153.3692 H   0  0  0  0  0  0  0  0  0  0  0  0
  150.4450  141.4084  154.9136 H   0  0  0  0  0  0  0  0  0  0  0  0
  150.2545  141.1398  157.3595 H   0  0  0  0  0  0  0  0  0  0  0  0
  149.5168  138.9850  158.3628 H   0  0  0  0  0  0  0  0  0  0  0  0
  148.6811  135.1525  157.9774 H   0  0  0  0  0  0  0  0  0  0  0  0
  149.5203  136.5407  158.5873 H   0  0  0  0  0  0  0  0  0  0  0  0
  147.4178  137.8033  158.7813 H   0  0  0  0  0  0  0  0  0  0  0  0
  146.3085  137.0267  157.0845 H   0  0  0  0  0  0  0  0  0  0  0  0
  147.1586  138.0968  161.0949 H   0  0  0  0  0  0  0  0  0  0  0  0
  146.9178  137.1456  163.3636 H   0  0  0  0  0  0  0  0  0  0  0  0
  146.7780  134.6835  163.6835 H   0  0  0  0  0  0  0  0  0  0  0  0
  146.8949  133.1666  161.7142 H   0  0  0  0  0  0  0  0  0  0  0  0
  147.1581  134.1061  159.4345 H   0  0  0  0  0  0  0  0  0  0  0  0
  149.0577  136.7700  153.4551 H   0  0  0  0  0  0  0  0  0  0  0  0
  1  2  1  0  0  0  0
  1 25  1  0  0  0  0
  1 26  1  0  0  0  0
  1 27  1  0  0  0  0
  2  3  2  0  0  0  0
  2  4  1  0  0  0  0
  4  5  1  0  0  0  0
  4 28  1  0  0  0  0
  5  6  1  0  0  0  0
  5  7  1  0  0  0  0
  5 29  1  0  0  0  0
  6 30  1  0  0  0  0
  6 31  1  0  0  0  0
  6 32  1  0  0  0  0
  7 15  1  0  0  0  0
  7  8  2  0  0  0  0
  8  9  1  0  0  0  0
  8 46  1  0  0  0  0
  9 14  2  0  0  0  0
  9 10  1  0  0  0  0
 10 11  2  0  0  0  0
 10 33  1  0  0  0  0
 11 12  1  0  0  0  0
 11 34  1  0  0  0  0
 12 13  2  0  0  0  0
 12 35  1  0  0  0  0
 13 14  1  0  0  0  0
 13 36  1  0  0  0  0
 14 15  1  0  0  0  0
 15 16  1  0  0  0  0
 16 17  1  0  0  0  0
 16 37  1  0  0  0  0
 16 38  1  0  0  0  0
 17 18  1  0  0  0  0
 17 19  1  0  0  0  0
 17 39  1  0  0  0  0
 18 40  1  0  0  0  0
 19 24  1  0  0  0  0
 19 20  2  0  0  0  0
 20 21  1  0  0  0  0
 20 41  1  0  0  0  0
 21 22  2  0  0  0  0
 21 42  1  0  0  0  0
 22 23  1  0  0  0  0
 22 43  1  0  0  0  0
 23 24  2  0  0  0  0
 23 44  1  0  0  0  0
 24 45  1  0  0  0  0
M  CHG  1   8   1
M  END
> <s_m_source_file>
AV-unprocessed.smi

> <i_m_source_file_index>
447

> <i_lp_mmshare_version>
43012

> <i_f3d_flags>
0

> <s_epik_input>
W0NIM11DKD1PKVtOSF1bQ0BIXShbQ0gzXSljKG4xKW4oYyhjMTIpW2NIXVtjSF1bY0hdW2NIXTIpW0NIMl1bQ0BIXShbT0hdKWMzW2NIXVtjSF1bY0hdW2NIXVtjSF0z

> <s_epik_cmdline>
J2VwaWtfcHl0aG9uJywgJy1waCcsICc3LjAnLCAnLXRuJywgJzgnLCAnLW1hJywgJzIwMCcsICctbWV0YWxfYmluZGluZycsICctaW1hZScsICc8aW5maWxlLm1hZT4nLCAnLW9tYWUnLCAnPG91dGZpbGUubWFlPic=

> <r_epik_Ionization_Penalty>
0.950381

> <r_epik_Ionization_Penalty_Charging>
0.950379

> <r_epik_Ionization_Penalty_Neutral>
1.42115e-06

> <r_epik_State_Penalty>
0.994584

> <r_epik_Charging_Adjusted_Penalty>
1.94496

> <i_epik_Tot_Q>
1

> <i_epik_Tot_abs_Q>
1

> <r_epik_Metal_State_Penalty>
1.10485

> <b_epik_Metal_Only>
0

> <s_lp_Force_Field>
OPLS_2005

> <r_lp_Energy>
11.8

> <b_lp_Chiralities_Consistent>
1

> <s_lp_Variant>
AV-unprocessed.smi:447-8

> <Gold.Version>
5.8.1

> <Gold.Id.Protein>
6NUR|6NUR_protein|mol2

> <Gold.PLP.Fitness>
47.6561

> <Gold.PLP.PLP>
-40.5614

> <Gold.PLP.part.hbond>
-2.0000

> <Gold.PLP.part.metal>
0.0000

> <Gold.PLP.part.buried>
-4.4556

> <Gold.PLP.part.nonpolar>
-34.0532

> <Gold.PLP.part.repulsive>
0.1005

> <Gold.PLP.ligand.clash>
0.0000

> <Gold.PLP.ligand.torsion>
1.0242

> <Gold.PLP.Chemscore.Hbond>
3.0000

> <Gold.PLP.Chemscore.CHOScore>
0.0000

> <Gold.PLP.Chemscore.Metal>
0.0000

> <Gold.Chemscore.Hbonds>
donor molecule, donor type, donor heavy atom, donor atom, acceptor molecule, acceptor atom, score
      L1  H     4    28       P1  7948  0.36
      L1  H     8    46       P1  7948  2.00

> <Gold.PLP.Chemscore.Internal.Correction>
0.1431

> <Gold.Rescore>
     Score         DG    S(hbond)    S(metal)    S(lipo)     H(rot)  DE(clash)    DE(int)     intcor
     15.21     -16.40       1.96        0.00      90.04       2.41       0.00       1.18       ----

> <Gold.Chemscore.Fitness>
15.2149

> <Gold.Chemscore.DG>
-16.3995

> <Gold.Chemscore.ZeroCoef>
-5.4800

> <Gold.Chemscore.Hbond>
1.9634

> <Gold.Chemscore.Metal>
0.0000

> <Gold.Chemscore.Lipo>
90.0372

> <Gold.Chemscore.Internal_Hbond>
0.0000

> <Gold.Chemscore.DEClash>
0.0044

> <Gold.Chemscore.DEInternal>
1.1803

> <Gold.Chemscore.Rot>
2.4112

> <Gold.Chemscore.Internal.Correction>
   9.000000E+99

> <Gold.Chemscore.Hbonds>
donor molecule, donor type, donor heavy atom, donor atom, acceptor molecule, acceptor atom, score
      L1  H     4    28       P1  7948  0.35
      L1  H     8    46       P1  7948  1.00

> <Gold.Chemscore.Hbond.Weighted>
-6.5578

> <Gold.Chemscore.Metal.Weighted>
-0.0000

> <Gold.Chemscore.Lipo.Weighted>
-10.5343

> <Gold.Chemscore.Internal_Hbond.Weighted>
0.0000

> <Gold.Chemscore.DEClash.Weighted>
0.0044

> <Gold.Chemscore.DEInternal.Weighted>
1.1803

> <Gold.Chemscore.Rot.Weighted>
6.1727

> <Gold.Chemscore.Internal.Correction.Weighted>
   9.000000E+99

> <Gold.Protein.RotatedTorsions>
[ 6907 6896 6895 6894 ] final  174.60 input  -60.11 | X-H torsion
[ 7974 7965 7964 7962 ] final  111.78 input  175.53 | X-H torsion
[ 8008 7997 7996 7995 ] final -120.98 input   59.86 | X-H torsion
[ 10167 10162 10161 10158 ] final  -77.02 input  -65.29 | X-H torsion
[ 10718 10713 10712 10709 ] final  162.57 input   66.30 | X-H torsion
[ 10763 10752 10751 10750 ] final   29.99 input  -60.55 | X-H torsion
[ 11005 11000 10999 10996 ] final  -86.31 input  -57.11 | X-H torsion

> <Gold.Protein.ActiveResidues>
 VAL166  LYS551  ARG553  GLY616  TRP617  ASP618  TYR619  PRO620  LYS621  CYS622 
 ASP623  PHE694  ASN695  SER759  ASP760  ASP761  ALA762  ILE779  LEU786  VAL792 
 PHE793  MET794  SER795  GLU796  ALA797  LYS798  CYS799  TRP800  GLU811  SER814 

> <Gold.Protein.RotatedAtoms>
  151.7496  133.3326  159.3387 H   0  0  0  0  0  0  0  0  0  0  0  0  # atno 6907 bound_to 6896
  150.7540  134.6204  159.6142 H   0  0  0  0  0  0  0  0  0  0  0  0  # atno 6908 bound_to 6896
  152.3477  134.7051  160.0297 H   0  0  0  0  0  0  0  0  0  0  0  0  # atno 6909 bound_to 6896
  145.2378  139.2791  143.4133 H   0  0  0  0  0  0  0  0  0  0  0  0  # atno 7974 bound_to 7965
  155.1406  140.0402  157.2797 H   0  0  0  0  0  0  0  0  0  0  0  0  # atno 8008 bound_to 7997
  154.6476  140.2561  155.7224 H   0  0  0  0  0  0  0  0  0  0  0  0  # atno 8009 bound_to 7997
  156.2562  140.2843  156.0896 H   0  0  0  0  0  0  0  0  0  0  0  0  # atno 8010 bound_to 7997
  140.4807  143.2403  151.8063 H   0  0  0  0  0  0  0  0  0  0  0  0  # atno 10167 bound_to 10162
  157.1207  131.0491  151.2416 H   0  0  0  0  0  0  0  0  0  0  0  0  # atno 10718 bound_to 10713
  153.0398  135.6475  154.0975 H   0  0  0  0  0  0  0  0  0  0  0  0  # atno 10763 bound_to 10752
  154.0684  135.2882  155.3314 H   0  0  0  0  0  0  0  0  0  0  0  0  # atno 10764 bound_to 10752
  154.6611  135.5391  153.8084 H   0  0  0  0  0  0  0  0  0  0  0  0  # atno 10765 bound_to 10752
  141.1631  133.7447  156.9142 H   0  0  0  0  0  0  0  0  0  0  0  0  # atno 11005 bound_to 11000
  146.3336  140.2733  142.8607 LP  0  0  0  0  0  0  0  0  0  0  0  0  # atno 17320 bound_to 7965
  144.9616  140.8281  143.5510 LP  0  0  0  0  0  0  0  0  0  0  0  0  # atno 17321 bound_to 7965
  139.4833  144.4776  151.9347 LP  0  0  0  0  0  0  0  0  0  0  0  0  # atno 17342 bound_to 10162
  140.3862  144.2674  150.5904 LP  0  0  0  0  0  0  0  0  0  0  0  0  # atno 17343 bound_to 10162
  157.4479  130.7581  149.7125 LP  0  0  0  0  0  0  0  0  0  0  0  0  # atno 17370 bound_to 10713
  155.9829  130.4005  150.3391 LP  0  0  0  0  0  0  0  0  0  0  0  0  # atno 17371 bound_to 10713
  140.1496  134.9239  157.2575 LP  0  0  0  0  0  0  0  0  0  0  0  0  # atno 17394 bound_to 11000
  140.2739  134.3428  155.7364 LP  0  0  0  0  0  0  0  0  0  0  0  0  # atno 17395 bound_to 11000

$$$$
