AV-unprocessed.smi:523|AV-procd|sdf|2803|dock2
  -GOLD-   2262023283D 1   1.00000     0.00000
 Structure written by MMmdl.
 41 43  0  0  0  0  0  0  0  0  1 V2000
  148.0935  140.3499  153.7807 C   0  0  0  0  0  0  0  0  0  0  0  0
  149.3898  140.7743  154.1612 O   0  0  0  0  0  0  0  0  0  0  0  0
  149.7546  140.3195  155.4543 C   0  0  0  0  0  0  0  0  0  0  0  0
  151.0380  141.0260  155.9119 C   0  0  0  0  0  0  0  0  0  0  0  0
  151.4264  140.6238  157.2627 N   0  0  0  0  0  0  0  0  0  0  0  0
  151.5528  141.4001  158.3741 C   0  0  0  0  0  0  0  0  0  0  0  0
  151.2676  142.7657  158.3655 N   0  0  0  0  0  0  0  0  0  0  0  0
  152.1230  143.8371  157.8632 C   0  0  0  0  0  0  0  0  0  0  0  0
  152.2016  144.9938  158.8757 C   0  0  0  0  0  0  0  0  0  0  0  0
  150.8912  145.4967  159.1113 O   0  0  0  0  0  0  0  0  0  0  0  0
  150.0180  144.4894  159.6103 C   0  0  0  0  0  0  0  0  0  0  0  0
  149.9425  143.3280  158.6022 C   0  0  0  0  0  0  0  0  0  0  0  0
  152.0192  140.7605  159.4499 N   0  0  0  0  0  0  0  0  0  0  0  0
  152.1793  139.4602  158.9980 C   0  0  0  0  0  0  0  0  0  0  0  0
  151.8369  139.3576  157.6883 C   0  0  0  0  0  0  0  0  0  0  0  0
  151.9563  138.0956  156.9427 C   0  0  0  0  0  0  0  0  0  0  0  0
  151.6686  137.9760  155.7540 O   0  0  0  0  0  0  0  0  0  0  0  0
  152.4248  137.0730  157.6982 N   0  0  0  0  0  0  0  0  0  0  0  0
  152.7814  137.1089  159.0179 C   0  0  0  0  0  0  0  0  0  0  0  0
  153.1993  136.0913  159.5702 O   0  0  0  0  0  0  0  0  0  0  0  0
  152.6566  138.3039  159.6789 N   0  0  0  0  0  0  0  0  0  0  0  0
  153.0300  138.4013  161.0912 C   0  0  0  0  0  0  0  0  0  0  0  0
  152.5271  136.1832  157.2322 H   0  0  0  0  0  0  0  0  0  0  0  0
  147.8645  140.7243  152.7831 H   0  0  0  0  0  0  0  0  0  0  0  0
  147.3365  140.7330  154.4662 H   0  0  0  0  0  0  0  0  0  0  0  0
  148.0265  139.2616  153.7562 H   0  0  0  0  0  0  0  0  0  0  0  0
  148.9483  140.5234  156.1605 H   0  0  0  0  0  0  0  0  0  0  0  0
  149.9110  139.2401  155.4417 H   0  0  0  0  0  0  0  0  0  0  0  0
  151.8426  140.8193  155.2125 H   0  0  0  0  0  0  0  0  0  0  0  0
  150.9099  142.1053  155.8722 H   0  0  0  0  0  0  0  0  0  0  0  0
  153.1158  143.4585  157.6241 H   0  0  0  0  0  0  0  0  0  0  0  0
  151.7129  144.2017  156.9204 H   0  0  0  0  0  0  0  0  0  0  0  0
  152.6540  144.6676  159.8133 H   0  0  0  0  0  0  0  0  0  0  0  0
  152.8232  145.7982  158.4826 H   0  0  0  0  0  0  0  0  0  0  0  0
  150.3675  144.1386  160.5827 H   0  0  0  0  0  0  0  0  0  0  0  0
  149.0290  144.9214  159.7628 H   0  0  0  0  0  0  0  0  0  0  0  0
  149.5163  143.6687  157.6577 H   0  0  0  0  0  0  0  0  0  0  0  0
  149.2785  142.5528  158.9860 H   0  0  0  0  0  0  0  0  0  0  0  0
  152.5105  137.6460  161.6828 H   0  0  0  0  0  0  0  0  0  0  0  0
  152.7860  139.3714  161.5234 H   0  0  0  0  0  0  0  0  0  0  0  0
  154.1035  138.2478  161.2100 H   0  0  0  0  0  0  0  0  0  0  0  0
  1  2  1  0  0  0  0
  1 24  1  0  0  0  0
  1 25  1  0  0  0  0
  1 26  1  0  0  0  0
  2  3  1  0  0  0  0
  3  4  1  0  0  0  0
  3 27  1  0  0  0  0
  3 28  1  0  0  0  0
  4  5  1  0  0  0  0
  4 29  1  0  0  0  0
  4 30  1  0  0  0  0
  5 15  1  0  0  0  0
  5  6  1  0  0  0  0
  6  7  1  0  0  0  0
  6 13  2  0  0  0  0
  7 12  1  0  0  0  0
  7  8  1  0  0  0  0
  8  9  1  0  0  0  0
  8 31  1  0  0  0  0
  8 32  1  0  0  0  0
  9 10  1  0  0  0  0
  9 33  1  0  0  0  0
  9 34  1  0  0  0  0
 10 11  1  0  0  0  0
 11 12  1  0  0  0  0
 11 35  1  0  0  0  0
 11 36  1  0  0  0  0
 12 37  1  0  0  0  0
 12 38  1  0  0  0  0
 13 14  1  0  0  0  0
 14 21  1  0  0  0  0
 14 15  2  0  0  0  0
 15 16  1  0  0  0  0
 16 17  2  0  0  0  0
 16 18  1  0  0  0  0
 18 23  1  0  0  0  0
 18 19  1  0  0  0  0
 19 20  2  0  0  0  0
 19 21  1  0  0  0  0
 21 22  1  0  0  0  0
 22 39  1  0  0  0  0
 22 40  1  0  0  0  0
 22 41  1  0  0  0  0
M  END
> <s_m_source_file>
AV-unprocessed.smi

> <i_m_source_file_index>
523

> <i_lp_mmshare_version>
43012

> <i_f3d_flags>
0

> <s_epik_input>
W0NIM11uMWMoPU8pW25IXWMoPU8pYyhjMTIpbihbQ0gyXVtDSDJdT1tDSDNdKWMobjIpTjNbQ0gyXVtDSDJdT1tDSDJdW0NIMl0z

> <s_epik_cmdline>
J2VwaWtfcHl0aG9uJywgJy1waCcsICc3LjAnLCAnLXRuJywgJzgnLCAnLW1hJywgJzIwMCcsICctbWV0YWxfYmluZGluZycsICctaW1hZScsICc8aW5maWxlLm1hZT4nLCAnLW9tYWUnLCAnPG91dGZpbGUubWFlPic=

> <r_lp_tautomer_probability>
1

> <r_epik_Ionization_Penalty>
0.000208431

> <r_epik_Ionization_Penalty_Charging>
0.000208146

> <r_epik_Ionization_Penalty_Neutral>
2.85359e-07

> <r_epik_State_Penalty>
-0

> <r_epik_Charging_Adjusted_Penalty>
0.000208146

> <i_epik_Tot_Q>
0

> <i_epik_Tot_abs_Q>
0

> <r_epik_Metal_State_Penalty>
0.136977

> <b_epik_Metal_Only>
0

> <s_lp_Force_Field>
OPLS_2005

> <r_lp_Energy>
38.6509

> <b_lp_Chiralities_Consistent>
1

> <s_lp_Variant>
AV-unprocessed.smi:523-1

> <Gold.Version>
5.8.1

> <Gold.Id.Protein>
6NUR|6NUR_protein|mol2

> <Gold.PLP.Fitness>
39.1284

> <Gold.PLP.PLP>
-37.7151

> <Gold.PLP.part.hbond>
-4.8809

> <Gold.PLP.part.metal>
0.0000

> <Gold.PLP.part.buried>
-6.1062

> <Gold.PLP.part.nonpolar>
-27.6040

> <Gold.PLP.part.repulsive>
0.5314

> <Gold.PLP.ligand.clash>
0.0000

> <Gold.PLP.ligand.torsion>
1.5204

> <Gold.PLP.Chemscore.Hbond>
1.3219

> <Gold.PLP.Chemscore.CHOScore>
0.0000

> <Gold.PLP.Chemscore.Metal>
0.0000

> <Gold.Chemscore.Hbonds>
donor molecule, donor type, donor heavy atom, donor atom, acceptor molecule, acceptor atom, score
      P1  H  6896  6907       L1    20  1.00
      P1  H  7989  7998       L1     2  0.10

> <Gold.PLP.Chemscore.Internal.Correction>
0.4885

> <Gold.Rescore>
     Score         DG    S(hbond)    S(metal)    S(lipo)     H(rot)  DE(clash)    DE(int)     intcor
     10.99     -13.64       0.97        0.00      75.79       1.53       0.24       2.42       ----

> <Gold.Chemscore.Fitness>
10.9855

> <Gold.Chemscore.DG>
-13.6441

> <Gold.Chemscore.ZeroCoef>
-5.4800

> <Gold.Chemscore.Hbond>
0.9656

> <Gold.Chemscore.Metal>
0.0000

> <Gold.Chemscore.Lipo>
75.7946

> <Gold.Chemscore.Internal_Hbond>
0.0000

> <Gold.Chemscore.DEClash>
0.2369

> <Gold.Chemscore.DEInternal>
2.4217

> <Gold.Chemscore.Rot>
1.5348

> <Gold.Chemscore.Internal.Correction>
   9.000000E+99

> <Gold.Chemscore.Hbonds>
donor molecule, donor type, donor heavy atom, donor atom, acceptor molecule, acceptor atom, score
      P1  H  6896  6907       L1    20  0.96
      P1  H  7989  7998       L1     2  0.01

> <Gold.Chemscore.Hbond.Weighted>
-3.2251

> <Gold.Chemscore.Metal.Weighted>
-0.0000

> <Gold.Chemscore.Lipo.Weighted>
-8.8680

> <Gold.Chemscore.Internal_Hbond.Weighted>
0.0000

> <Gold.Chemscore.DEClash.Weighted>
0.2369

> <Gold.Chemscore.DEInternal.Weighted>
2.4217

> <Gold.Chemscore.Rot.Weighted>
3.9290

> <Gold.Chemscore.Internal.Correction.Weighted>
   9.000000E+99

> <Gold.Protein.RotatedTorsions>
[ 6907 6896 6895 6894 ] final   41.24 input  -60.11 | X-H torsion
[ 7974 7965 7964 7962 ] final   65.23 input  175.53 | X-H torsion
[ 8008 7997 7996 7995 ] final   -7.61 input   59.86 | X-H torsion
[ 10167 10162 10161 10158 ] final  -14.99 input  -65.29 | X-H torsion
[ 10718 10713 10712 10709 ] final   39.81 input   66.30 | X-H torsion
[ 10763 10752 10751 10750 ] final -148.73 input  -60.55 | X-H torsion
[ 11005 11000 10999 10996 ] final   14.83 input  -57.11 | X-H torsion

> <Gold.Protein.ActiveResidues>
 VAL166  LYS551  ARG553  GLY616  TRP617  ASP618  TYR619  PRO620  LYS621  CYS622 
 ASP623  PHE694  ASN695  SER759  ASP760  ASP761  ALA762  ILE779  LEU786  VAL792 
 PHE793  MET794  SER795  GLU796  ALA797  LYS798  CYS799  TRP800  GLU811  SER814 

> <Gold.Protein.RotatedAtoms>
  152.1928  134.8657  160.0515 H   0  0  0  0  0  0  0  0  0  0  0  0  # atno 6907 bound_to 6896
  151.9540  133.3669  159.4018 H   0  0  0  0  0  0  0  0  0  0  0  0  # atno 6908 bound_to 6896
  150.6938  134.4234  159.5259 H   0  0  0  0  0  0  0  0  0  0  0  0  # atno 6909 bound_to 6896
  145.8409  139.3195  143.0932 H   0  0  0  0  0  0  0  0  0  0  0  0  # atno 7974 bound_to 7965
  154.5821  140.2402  155.8039 H   0  0  0  0  0  0  0  0  0  0  0  0  # atno 8008 bound_to 7997
  156.2187  140.3004  155.9856 H   0  0  0  0  0  0  0  0  0  0  0  0  # atno 8009 bound_to 7997
  155.2522  140.0411  157.2978 H   0  0  0  0  0  0  0  0  0  0  0  0  # atno 8010 bound_to 7997
  140.7211  143.5264  150.9571 H   0  0  0  0  0  0  0  0  0  0  0  0  # atno 10167 bound_to 10162
  157.3749  130.7721  149.7147 H   0  0  0  0  0  0  0  0  0  0  0  0  # atno 10718 bound_to 10713
  154.8217  135.3327  154.7019 H   0  0  0  0  0  0  0  0  0  0  0  0  # atno 10763 bound_to 10752
  153.7651  135.6929  153.4922 H   0  0  0  0  0  0  0  0  0  0  0  0  # atno 10764 bound_to 10752
  153.2083  135.4491  155.0298 H   0  0  0  0  0  0  0  0  0  0  0  0  # atno 10765 bound_to 10752
  140.4651  134.1088  155.7723 H   0  0  0  0  0  0  0  0  0  0  0  0  # atno 11005 bound_to 11000
  145.9466  140.8940  143.0280 LP  0  0  0  0  0  0  0  0  0  0  0  0  # atno 17320 bound_to 7965
  144.6733  140.1623  143.7421 LP  0  0  0  0  0  0  0  0  0  0  0  0  # atno 17321 bound_to 7965
  139.8983  143.6867  152.3135 LP  0  0  0  0  0  0  0  0  0  0  0  0  # atno 17342 bound_to 10162
  139.7207  144.7603  151.0959 LP  0  0  0  0  0  0  0  0  0  0  0  0  # atno 17343 bound_to 10162
  155.9763  130.4077  150.3788 LP  0  0  0  0  0  0  0  0  0  0  0  0  # atno 17370 bound_to 10713
  157.1884  131.0409  151.2713 LP  0  0  0  0  0  0  0  0  0  0  0  0  # atno 17371 bound_to 10713
  141.1603  133.8805  157.1866 LP  0  0  0  0  0  0  0  0  0  0  0  0  # atno 17394 bound_to 11000
  139.9920  135.0061  156.9997 LP  0  0  0  0  0  0  0  0  0  0  0  0  # atno 17395 bound_to 11000

$$$$
