AV-unprocessed.smi:1464|AV-procd|sdf|5940|dock2
  -GOLD-   22720 6 23D 1   1.00000     0.00000
 Structure written by MMmdl.
 40 41  0  0  0  0  0  0  0  0  2 V2000
  151.8463  145.7185  160.1888 C   0  0  0  0  0  0  0  0  0  0  0  0
  152.4409  144.3345  159.8688 C   0  0  1  0  0  0  0  0  0  0  0  0
  152.4837  143.4834  161.1539 C   0  0  0  0  0  0  0  0  0  0  0  0
  153.0997  142.1027  160.9035 C   0  0  0  0  0  0  0  0  0  0  0  0
  152.3276  141.3583  159.8107 C   0  0  0  0  0  0  0  0  0  0  0  0
  152.2780  142.1736  158.5042 C   0  0  1  0  0  0  0  0  0  0  0  0
  151.4967  141.4407  157.5095 N   0  0  0  0  0  0  0  0  0  0  0  0
  150.2065  141.0919  157.6308 C   0  0  0  0  0  0  0  0  0  0  0  0
  149.5206  141.3826  158.6125 O   0  0  0  0  0  0  0  0  0  0  0  0
  149.6159  140.3124  156.4451 C   0  0  0  0  0  0  0  0  0  0  0  0
  148.5312  141.0176  155.7471 N   0  0  0  0  0  0  0  0  0  0  0  0
  147.3897  141.3310  156.6026 N   0  5  0  0  0  0  0  0  0  0  0  0
  146.3332  142.0059  156.0769 C   0  0  0  0  0  0  0  0  0  0  0  0
  145.3465  142.3194  156.7387 O   0  0  0  0  0  0  0  0  0  0  0  0
  146.3821  142.3637  154.6689 C   0  0  0  0  0  0  0  0  0  0  0  0
  147.4391  142.0417  153.8976 C   0  0  0  0  0  0  0  0  0  0  0  0
  148.5960  141.3248  154.4201 C   0  0  0  0  0  0  0  0  0  0  0  0
  149.5617  141.0222  153.7189 O   0  0  0  0  0  0  0  0  0  0  0  0
  151.6862  143.5921  158.7289 C   0  0  2  0  0  0  0  0  0  0  0  0
  151.6808  144.4036  157.4144 C   0  0  0  0  0  0  0  0  0  0  0  0
  150.7865  145.6478  160.4354 H   0  0  0  0  0  0  0  0  0  0  0  0
  151.9537  146.4112  159.3547 H   0  0  0  0  0  0  0  0  0  0  0  0
  152.3533  146.1742  161.0398 H   0  0  0  0  0  0  0  0  0  0  0  0
  153.4711  144.4896  159.5444 H   0  0  0  0  0  0  0  0  0  0  0  0
  153.0591  143.9986  161.9240 H   0  0  0  0  0  0  0  0  0  0  0  0
  151.4747  143.3646  161.5518 H   0  0  0  0  0  0  0  0  0  0  0  0
  154.1443  142.2110  160.6090 H   0  0  0  0  0  0  0  0  0  0  0  0
  153.0948  141.5195  161.8248 H   0  0  0  0  0  0  0  0  0  0  0  0
  152.7953  140.3891  159.6321 H   0  0  0  0  0  0  0  0  0  0  0  0
  151.3143  141.1522  160.1586 H   0  0  0  0  0  0  0  0  0  0  0  0
  153.2990  142.2950  158.1360 H   0  0  0  0  0  0  0  0  0  0  0  0
  151.9802  141.1619  156.6682 H   0  0  0  0  0  0  0  0  0  0  0  0
  150.4228  140.0778  155.7491 H   0  0  0  0  0  0  0  0  0  0  0  0
  149.2561  139.3465  156.8054 H   0  0  0  0  0  0  0  0  0  0  0  0
  145.5515  142.8976  154.2313 H   0  0  0  0  0  0  0  0  0  0  0  0
  147.4320  142.3265  152.8560 H   0  0  0  0  0  0  0  0  0  0  0  0
  150.6479  143.4720  159.0427 H   0  0  0  0  0  0  0  0  0  0  0  0
  152.6961  144.6006  157.0689 H   0  0  0  0  0  0  0  0  0  0  0  0
  151.1745  145.3611  157.5293 H   0  0  0  0  0  0  0  0  0  0  0  0
  151.1580  143.8797  156.6143 H   0  0  0  0  0  0  0  0  0  0  0  0
  1  2  1  0  0  0  0
  1 21  1  0  0  0  0
  1 22  1  0  0  0  0
  1 23  1  0  0  0  0
  2 19  1  0  0  0  0
  2  3  1  0  0  0  0
  2 24  1  0  0  0  0
  3  4  1  0  0  0  0
  3 25  1  0  0  0  0
  3 26  1  0  0  0  0
  4  5  1  0  0  0  0
  4 27  1  0  0  0  0
  4 28  1  0  0  0  0
  5  6  1  0  0  0  0
  5 29  1  0  0  0  0
  5 30  1  0  0  0  0
  6  7  1  0  0  0  0
  6 19  1  0  0  0  0
  6 31  1  0  0  0  0
  7  8  1  0  0  0  0
  7 32  1  0  0  0  0
  8  9  2  0  0  0  0
  8 10  1  0  0  0  0
 10 33  1  0  0  0  0
 10 34  1  0  0  0  0
 10 11  1  0  0  0  0
 11 12  1  0  0  0  0
 11 17  1  0  0  0  0
 12 13  1  0  0  0  0
 13 14  2  0  0  0  0
 13 15  1  0  0  0  0
 15 35  1  0  0  0  0
 15 16  2  0  0  0  0
 16 36  1  0  0  0  0
 16 17  1  0  0  0  0
 17 18  2  0  0  0  0
 19 20  1  0  0  0  0
 19 37  1  0  0  0  0
 20 38  1  0  0  0  0
 20 39  1  0  0  0  0
 20 40  1  0  0  0  0
M  CHG  1  12  -1
M  END
> <s_m_source_file>
AV-unprocessed.smi

> <i_m_source_file_index>
1464

> <i_lp_mmshare_version>
43012

> <i_f3d_flags>
0

> <s_epik_input>
W0NIM11bQ0BASF0xW0NIMl1bQ0gyXVtDSDJdW0NASF0oW0NASF0xW0NIM10pW05IXUMoPU8pW0NIMl1uMltuSF1jKD1PKVtjSF1bY0hdYzI9Tw==

> <s_epik_cmdline>
J2VwaWtfcHl0aG9uJywgJy1waCcsICc3LjAnLCAnLXRuJywgJzgnLCAnLW1hJywgJzIwMCcsICctbWV0YWxfYmluZGluZycsICctaW1hZScsICc8aW5maWxlLm1hZT4nLCAnLW9tYWUnLCAnPG91dGZpbGUubWFlPic=

> <r_lp_tautomer_probability>
1

> <r_epik_Ionization_Penalty>
0.101366

> <r_epik_Ionization_Penalty_Charging>
0.101366

> <r_epik_Ionization_Penalty_Neutral>
1.90469e-08

> <r_epik_State_Penalty>
0.035861

> <r_epik_Charging_Adjusted_Penalty>
0.137227

> <i_epik_Tot_Q>
-1

> <i_epik_Tot_abs_Q>
1

> <r_epik_Metal_State_Penalty>
0.035861

> <b_epik_Metal_Only>
0

> <s_lp_Force_Field>
OPLS_2005

> <r_lp_Energy>
28.8284

> <b_lp_Chiralities_Consistent>
1

> <s_lp_Variant>
AV-unprocessed.smi:1464-6

> <Gold.Version>
5.8.1

> <Gold.Id.Protein>
6NUR|6NUR_protein|mol2

> <Gold.PLP.Fitness>
45.6897

> <Gold.PLP.PLP>
-41.6847

> <Gold.PLP.part.hbond>
-2.6221

> <Gold.PLP.part.metal>
0.0000

> <Gold.PLP.part.buried>
-6.3557

> <Gold.PLP.part.nonpolar>
-34.9554

> <Gold.PLP.part.repulsive>
2.9570

> <Gold.PLP.ligand.clash>
0.0000

> <Gold.PLP.ligand.torsion>
0.0151

> <Gold.PLP.Chemscore.Hbond>
1.3409

> <Gold.PLP.Chemscore.CHOScore>
0.0000

> <Gold.PLP.Chemscore.Metal>
0.0000

> <Gold.Chemscore.Hbonds>
donor molecule, donor type, donor heavy atom, donor atom, acceptor molecule, acceptor atom, score
      P1  H  7989  7998       L1    18  0.32
      P1  H  8011  8017       L1    18  0.98

> <Gold.PLP.Chemscore.Internal.Correction>
0.0124

> <Gold.Rescore>
     Score         DG    S(hbond)    S(metal)    S(lipo)     H(rot)  DE(clash)    DE(int)     intcor
     14.24     -17.51       1.08        0.00     107.94       1.64       1.21       2.06       ----

> <Gold.Chemscore.Fitness>
14.2372

> <Gold.Chemscore.DG>
-17.5083

> <Gold.Chemscore.ZeroCoef>
-5.4800

> <Gold.Chemscore.Hbond>
1.0799

> <Gold.Chemscore.Metal>
0.0000

> <Gold.Chemscore.Lipo>
107.9433

> <Gold.Chemscore.Internal_Hbond>
0.0000

> <Gold.Chemscore.DEClash>
1.2095

> <Gold.Chemscore.DEInternal>
2.0615

> <Gold.Chemscore.Rot>
1.6438

> <Gold.Chemscore.Internal.Correction>
   9.000000E+99

> <Gold.Chemscore.Hbonds>
donor molecule, donor type, donor heavy atom, donor atom, acceptor molecule, acceptor atom, score
      P1  H  7989  7998       L1    18  0.31
      P1  H  8011  8017       L1    18  0.64

> <Gold.Chemscore.Hbond.Weighted>
-3.6069

> <Gold.Chemscore.Metal.Weighted>
-0.0000

> <Gold.Chemscore.Lipo.Weighted>
-12.6294

> <Gold.Chemscore.Internal_Hbond.Weighted>
0.0000

> <Gold.Chemscore.DEClash.Weighted>
1.2095

> <Gold.Chemscore.DEInternal.Weighted>
2.0615

> <Gold.Chemscore.Rot.Weighted>
4.2080

> <Gold.Chemscore.Internal.Correction.Weighted>
   9.000000E+99

> <Gold.Protein.RotatedTorsions>
[ 6907 6896 6895 6894 ] final   79.00 input  -60.11 | X-H torsion
[ 7974 7965 7964 7962 ] final   54.51 input  175.53 | X-H torsion
[ 8008 7997 7996 7995 ] final -144.66 input   59.86 | X-H torsion
[ 10167 10162 10161 10158 ] final  -91.05 input  -65.29 | X-H torsion
[ 10718 10713 10712 10709 ] final   32.23 input   66.30 | X-H torsion
[ 10763 10752 10751 10750 ] final   34.00 input  -60.55 | X-H torsion
[ 11005 11000 10999 10996 ] final   84.36 input  -57.11 | X-H torsion

> <Gold.Protein.ActiveResidues>
 VAL166  LYS551  ARG553  GLY616  TRP617  ASP618  TYR619  PRO620  LYS621  CYS622 
 ASP623  PHE694  ASN695  SER759  ASP760  ASP761  ALA762  ILE779  LEU786  VAL792 
 PHE793  MET794  SER795  GLU796  ALA797  LYS798  CYS799  TRP800  GLU811  SER814 

> <Gold.Protein.RotatedAtoms>
  152.5181  134.3579  159.9273 H   0  0  0  0  0  0  0  0  0  0  0  0  # atno 6907 bound_to 6896
  151.3530  133.3911  159.2690 H   0  0  0  0  0  0  0  0  0  0  0  0  # atno 6908 bound_to 6896
  150.9711  134.9103  159.7847 H   0  0  0  0  0  0  0  0  0  0  0  0  # atno 6909 bound_to 6896
  145.9601  139.4051  143.0253 H   0  0  0  0  0  0  0  0  0  0  0  0  # atno 7974 bound_to 7965
  155.5305  140.0599  157.2890 H   0  0  0  0  0  0  0  0  0  0  0  0  # atno 8008 bound_to 7997
  154.4486  140.1937  156.0534 H   0  0  0  0  0  0  0  0  0  0  0  0  # atno 8009 bound_to 7997
  156.0656  140.3267  155.7517 H   0  0  0  0  0  0  0  0  0  0  0  0  # atno 8010 bound_to 7997
  140.3487  143.2902  151.9751 H   0  0  0  0  0  0  0  0  0  0  0  0  # atno 10167 bound_to 10162
  157.2825  130.7262  149.6565 H   0  0  0  0  0  0  0  0  0  0  0  0  # atno 10718 bound_to 10713
  153.0185  135.6372  154.1600 H   0  0  0  0  0  0  0  0  0  0  0  0  # atno 10763 bound_to 10752
  154.1337  135.2839  155.3180 H   0  0  0  0  0  0  0  0  0  0  0  0  # atno 10764 bound_to 10752
  154.6175  135.5536  153.7601 H   0  0  0  0  0  0  0  0  0  0  0  0  # atno 10765 bound_to 10752
  139.9002  134.8211  156.2435 H   0  0  0  0  0  0  0  0  0  0  0  0  # atno 11005 bound_to 11000
  145.8052  140.9752  143.0978 LP  0  0  0  0  0  0  0  0  0  0  0  0  # atno 17320 bound_to 7965
  144.6813  139.9851  143.7484 LP  0  0  0  0  0  0  0  0  0  0  0  0  # atno 17321 bound_to 7965
  139.4829  144.6094  151.7461 LP  0  0  0  0  0  0  0  0  0  0  0  0  # atno 17342 bound_to 10162
  140.5239  144.0836  150.6031 LP  0  0  0  0  0  0  0  0  0  0  0  0  # atno 17343 bound_to 10162
  155.9665  130.4333  150.5002 LP  0  0  0  0  0  0  0  0  0  0  0  0  # atno 17370 bound_to 10713
  157.2949  131.0633  151.2108 LP  0  0  0  0  0  0  0  0  0  0  0  0  # atno 17371 bound_to 10713
  141.0270  133.7010  156.1364 LP  0  0  0  0  0  0  0  0  0  0  0  0  # atno 17394 bound_to 11000
  140.7152  134.4418  157.5579 LP  0  0  0  0  0  0  0  0  0  0  0  0  # atno 17395 bound_to 11000

$$$$
