AV-unprocessed.smi:908|AV-procd|sdf|4114|dock6
  -GOLD-   22720 2 13D 1   1.00000     0.00000
 Structure written by MMmdl.
 38 38  0  0  0  0  0  0  0  0  1 V2000
  152.9989  143.1653  160.2630 C   0  0  0  0  0  0  0  0  0  0  0  0
  152.8213  141.6747  159.9556 C   0  0  0  0  0  0  0  0  0  0  0  0
  151.9603  141.4312  158.7056 C   0  0  0  0  0  0  0  0  0  0  0  0
  151.7722  140.0070  158.4554 N   0  0  0  0  0  0  0  0  0  0  0  0
  152.1138  139.3706  157.3248 C   0  0  0  0  0  0  0  0  0  0  0  0
  152.6110  139.9410  156.3524 O   0  0  0  0  0  0  0  0  0  0  0  0
  151.8285  137.8646  157.2868 C   0  0  0  0  0  0  0  0  0  0  0  0
  150.4112  137.5566  157.4551 N   0  0  0  0  0  0  0  0  0  0  0  0
  149.8429  137.1176  158.5904 C   0  0  0  0  0  0  0  0  0  0  0  0
  150.4718  136.9368  159.6327 O   0  0  0  0  0  0  0  0  0  0  0  0
  148.3417  136.8155  158.5437 C   0  0  0  0  0  0  0  0  0  0  0  0
  147.8542  136.2597  159.7984 N   0  0  0  0  0  0  0  0  0  0  0  0
  147.9127  137.0231  160.9198 N   0  0  0  0  0  0  0  0  0  0  0  0
  147.4036  136.2728  161.8850 C   0  0  0  0  0  0  0  0  0  0  0  0
  147.3066  136.8110  163.2829 C   0  0  0  0  0  0  0  0  0  0  0  0
  147.0118  135.0072  161.3766 C   0  0  0  0  0  0  0  0  0  0  0  0
  146.2971  133.7154  162.2716 Cl  0  0  0  0  0  0  0  0  0  0  0  0
  147.3066  135.0096  160.0453 C   0  0  0  0  0  0  0  0  0  0  0  0
  147.1250  133.9656  158.9911 C   0  0  0  0  0  0  0  0  0  0  0  0
  153.6096  143.3077  161.1548 H   0  0  0  0  0  0  0  0  0  0  0  0
  152.0374  143.6491  160.4369 H   0  0  0  0  0  0  0  0  0  0  0  0
  153.4903  143.6812  159.4375 H   0  0  0  0  0  0  0  0  0  0  0  0
  153.8037  141.2193  159.8239 H   0  0  0  0  0  0  0  0  0  0  0  0
  152.3660  141.1824  160.8159 H   0  0  0  0  0  0  0  0  0  0  0  0
  150.9768  141.8827  158.8390 H   0  0  0  0  0  0  0  0  0  0  0  0
  152.4065  141.9114  157.8328 H   0  0  0  0  0  0  0  0  0  0  0  0
  151.3639  139.4629  159.2018 H   0  0  0  0  0  0  0  0  0  0  0  0
  152.1994  137.4323  156.3555 H   0  0  0  0  0  0  0  0  0  0  0  0
  152.3812  137.3866  158.0958 H   0  0  0  0  0  0  0  0  0  0  0  0
  149.8222  137.6694  156.6430 H   0  0  0  0  0  0  0  0  0  0  0  0
  147.7941  137.7292  158.3120 H   0  0  0  0  0  0  0  0  0  0  0  0
  148.1298  136.1095  157.7391 H   0  0  0  0  0  0  0  0  0  0  0  0
  147.2038  136.0058  164.0102 H   0  0  0  0  0  0  0  0  0  0  0  0
  146.4423  137.4665  163.3890 H   0  0  0  0  0  0  0  0  0  0  0  0
  148.1953  137.3838  163.5495 H   0  0  0  0  0  0  0  0  0  0  0  0
  146.6721  133.0644  159.4040 H   0  0  0  0  0  0  0  0  0  0  0  0
  148.0830  133.6856  158.5529 H   0  0  0  0  0  0  0  0  0  0  0  0
  146.4781  134.3269  158.1918 H   0  0  0  0  0  0  0  0  0  0  0  0
  1  2  1  0  0  0  0
  1 20  1  0  0  0  0
  1 21  1  0  0  0  0
  1 22  1  0  0  0  0
  2  3  1  0  0  0  0
  2 23  1  0  0  0  0
  2 24  1  0  0  0  0
  3  4  1  0  0  0  0
  3 25  1  0  0  0  0
  3 26  1  0  0  0  0
  4  5  1  0  0  0  0
  4 27  1  0  0  0  0
  5  6  2  0  0  0  0
  5  7  1  0  0  0  0
  7  8  1  0  0  0  0
  7 28  1  0  0  0  0
  7 29  1  0  0  0  0
  8  9  1  0  0  0  0
  8 30  1  0  0  0  0
  9 10  2  0  0  0  0
  9 11  1  0  0  0  0
 11 12  1  0  0  0  0
 11 31  1  0  0  0  0
 11 32  1  0  0  0  0
 12 18  1  0  0  0  0
 12 13  1  0  0  0  0
 13 14  2  0  0  0  0
 14 15  1  0  0  0  0
 14 16  1  0  0  0  0
 15 33  1  0  0  0  0
 15 34  1  0  0  0  0
 15 35  1  0  0  0  0
 16 17  1  0  0  0  0
 16 18  2  0  0  0  0
 18 19  1  0  0  0  0
 19 36  1  0  0  0  0
 19 37  1  0  0  0  0
 19 38  1  0  0  0  0
M  END
> <s_m_source_file>
AV-unprocessed.smi

> <i_m_source_file_index>
908

> <i_lp_mmshare_version>
43012

> <i_f3d_flags>
0

> <s_epik_input>
W0NIM11bQ0gyXVtDSDJdW05IXUMoPU8pW0NIMl1bTkhdQyg9TylbQ0gyXW4xbmMoW0NIM10pYyhDbCljMVtDSDNd

> <s_epik_cmdline>
J2VwaWtfcHl0aG9uJywgJy1waCcsICc3LjAnLCAnLXRuJywgJzgnLCAnLW1hJywgJzIwMCcsICctbWV0YWxfYmluZGluZycsICctaW1hZScsICc8aW5maWxlLm1hZT4nLCAnLW9tYWUnLCAnPG91dGZpbGUubWFlPic=

> <r_lp_tautomer_probability>
1

> <r_epik_Ionization_Penalty>
3.40177e-06

> <r_epik_Ionization_Penalty_Charging>
0

> <r_epik_Ionization_Penalty_Neutral>
3.40177e-06

> <r_epik_State_Penalty>
-0

> <r_epik_Charging_Adjusted_Penalty>
0

> <i_epik_Tot_Q>
0

> <i_epik_Tot_abs_Q>
0

> <r_epik_Metal_State_Penalty>
-0

> <b_epik_Metal_Only>
0

> <s_lp_Force_Field>
OPLS_2005

> <r_lp_Energy>
0.427377

> <b_lp_Chiralities_Consistent>
1

> <s_lp_Variant>
AV-unprocessed.smi:908-1

> <Gold.Version>
5.8.1

> <Gold.Id.Protein>
6NUR|6NUR_protein|mol2

> <Gold.PLP.Fitness>
45.5962

> <Gold.PLP.PLP>
-34.7800

> <Gold.PLP.part.hbond>
-4.0000

> <Gold.PLP.part.metal>
0.0000

> <Gold.PLP.part.buried>
-3.4294

> <Gold.PLP.part.nonpolar>
-27.1239

> <Gold.PLP.part.repulsive>
0.1387

> <Gold.PLP.ligand.clash>
0.0000

> <Gold.PLP.ligand.torsion>
0.1533

> <Gold.PLP.Chemscore.Hbond>
3.6848

> <Gold.PLP.Chemscore.CHOScore>
0.0000

> <Gold.PLP.Chemscore.Metal>
0.0000

> <Gold.Chemscore.Hbonds>
donor molecule, donor type, donor heavy atom, donor atom, acceptor molecule, acceptor atom, score
      P1  H  6896  6908       L1    10  1.00
      P1  H  6931  6943       L1    13  0.98
      P1  H  6934  6947       L1    13  0.62
      P1  H  7997  8010       L1     6  1.00

> <Gold.PLP.Chemscore.Internal.Correction>
0.0685

> <Gold.Rescore>
     Score         DG    S(hbond)    S(metal)    S(lipo)     H(rot)  DE(clash)    DE(int)     intcor
     17.66     -19.41       2.85        0.00      84.15       2.13       0.36       1.39       ----

> <Gold.Chemscore.Fitness>
17.6596

> <Gold.Chemscore.DG>
-19.4065

> <Gold.Chemscore.ZeroCoef>
-5.4800

> <Gold.Chemscore.Hbond>
2.8542

> <Gold.Chemscore.Metal>
0.0000

> <Gold.Chemscore.Lipo>
84.1489

> <Gold.Chemscore.Internal_Hbond>
0.0000

> <Gold.Chemscore.DEClash>
0.3559

> <Gold.Chemscore.DEInternal>
1.3910

> <Gold.Chemscore.Rot>
2.1297

> <Gold.Chemscore.Internal.Correction>
   9.000000E+99

> <Gold.Chemscore.Hbonds>
donor molecule, donor type, donor heavy atom, donor atom, acceptor molecule, acceptor atom, score
      P1  H  6896  6908       L1    10  0.84
      P1  H  6931  6943       L1    13  0.37
      P1  H  6934  6947       L1    13  0.54
      P1  H  7997  8010       L1     6  0.98

> <Gold.Chemscore.Hbond.Weighted>
-9.5331

> <Gold.Chemscore.Metal.Weighted>
-0.0000

> <Gold.Chemscore.Lipo.Weighted>
-9.8454

> <Gold.Chemscore.Internal_Hbond.Weighted>
0.0000

> <Gold.Chemscore.DEClash.Weighted>
0.3559

> <Gold.Chemscore.DEInternal.Weighted>
1.3910

> <Gold.Chemscore.Rot.Weighted>
5.4520

> <Gold.Chemscore.Internal.Correction.Weighted>
   9.000000E+99

> <Gold.Protein.RotatedTorsions>
[ 6907 6896 6895 6894 ] final -150.85 input  -60.11 | X-H torsion
[ 7974 7965 7964 7962 ] final  161.62 input  175.53 | X-H torsion
[ 8008 7997 7996 7995 ] final   84.24 input   59.86 | X-H torsion
[ 10167 10162 10161 10158 ] final  159.76 input  -65.29 | X-H torsion
[ 10718 10713 10712 10709 ] final   70.20 input   66.30 | X-H torsion
[ 10763 10752 10751 10750 ] final   90.97 input  -60.55 | X-H torsion
[ 11005 11000 10999 10996 ] final  -88.25 input  -57.11 | X-H torsion

> <Gold.Protein.ActiveResidues>
 VAL166  LYS551  ARG553  GLY616  TRP617  ASP618  TYR619  PRO620  LYS621  CYS622 
 ASP623  PHE694  ASN695  SER759  ASP760  ASP761  ALA762  ILE779  LEU786  VAL792 
 PHE793  MET794  SER795  GLU796  ALA797  LYS798  CYS799  TRP800  GLU811  SER814 

> <Gold.Protein.RotatedAtoms>
  151.2046  133.4591  159.2596 H   0  0  0  0  0  0  0  0  0  0  0  0  # atno 6907 bound_to 6896
  151.1036  134.9986  159.8470 H   0  0  0  0  0  0  0  0  0  0  0  0  # atno 6908 bound_to 6896
  152.5445  134.1970  159.8750 H   0  0  0  0  0  0  0  0  0  0  0  0  # atno 6909 bound_to 6896
  144.7677  139.7924  143.6309 H   0  0  0  0  0  0  0  0  0  0  0  0  # atno 7974 bound_to 7965
  155.9345  140.3412  155.6276 H   0  0  0  0  0  0  0  0  0  0  0  0  # atno 8008 bound_to 7997
  155.7116  140.0772  157.2387 H   0  0  0  0  0  0  0  0  0  0  0  0  # atno 8009 bound_to 7997
  154.4091  140.1621  156.2290 H   0  0  0  0  0  0  0  0  0  0  0  0  # atno 8010 bound_to 7997
  139.4834  144.4699  151.8590 H   0  0  0  0  0  0  0  0  0  0  0  0  # atno 10167 bound_to 10162
  157.6387  130.9465  150.0618 H   0  0  0  0  0  0  0  0  0  0  0  0  # atno 10718 bound_to 10713
  153.2032  135.4414  155.0292 H   0  0  0  0  0  0  0  0  0  0  0  0  # atno 10763 bound_to 10752
  154.8159  135.3315  154.7180 H   0  0  0  0  0  0  0  0  0  0  0  0  # atno 10764 bound_to 10752
  153.7624  135.6990  153.4978 H   0  0  0  0  0  0  0  0  0  0  0  0  # atno 10765 bound_to 10752
  141.1605  133.7558  156.9423 H   0  0  0  0  0  0  0  0  0  0  0  0  # atno 11005 bound_to 11000
  146.1798  139.4985  142.9874 LP  0  0  0  0  0  0  0  0  0  0  0  0  # atno 17320 bound_to 7965
  145.6420  141.0282  143.1806 LP  0  0  0  0  0  0  0  0  0  0  0  0  # atno 17321 bound_to 7965
  140.4167  144.2297  150.5887 LP  0  0  0  0  0  0  0  0  0  0  0  0  # atno 17342 bound_to 10162
  140.4913  143.2346  151.8814 LP  0  0  0  0  0  0  0  0  0  0  0  0  # atno 17343 bound_to 10162
  156.1648  130.3645  149.9247 LP  0  0  0  0  0  0  0  0  0  0  0  0  # atno 17370 bound_to 10713
  156.7237  130.9016  151.3620 LP  0  0  0  0  0  0  0  0  0  0  0  0  # atno 17371 bound_to 10713
  140.1313  134.9354  157.2341 LP  0  0  0  0  0  0  0  0  0  0  0  0  # atno 17394 bound_to 11000
  140.2950  134.3197  155.7305 LP  0  0  0  0  0  0  0  0  0  0  0  0  # atno 17395 bound_to 11000

$$$$
