AV-unprocessed.smi:1240|AV-procd|sdf|5210|dock3
  -GOLD-   22720 4303D 1   1.00000     0.00000
 Structure written by MMmdl.
 49 51  0  0  0  0  0  0  0  0  3 V2000
  144.5512  136.7539  152.1730 O   0  0  0  0  0  0  0  0  0  0  0  0
  145.7386  136.5000  151.9726 C   0  0  0  0  0  0  0  0  0  0  0  0
  146.7292  137.3641  152.2363 N   0  0  0  0  0  0  0  0  0  0  0  0
  146.5394  138.7098  152.7673 C   0  0  0  0  0  0  0  0  0  0  0  0
  147.8663  139.4352  153.1336 C   0  0  1  0  0  0  0  0  0  0  0  0
  147.6693  140.6962  154.0220 C   0  0  1  0  0  0  0  0  0  0  0  0
  146.8660  141.8028  153.3569 C   0  0  0  0  0  0  0  0  0  0  0  0
  146.4606  142.6689  154.5432 C   0  0  0  0  0  0  0  0  0  0  0  0
  146.2812  141.7639  155.6249 O   0  0  0  0  0  0  0  0  0  0  0  0
  146.8409  140.4963  155.2978 C   0  0  0  0  0  0  0  0  0  0  0  0
  148.8438  138.5077  153.7793 N   0  3  0  0  0  0  0  0  0  0  0  0
  150.1404  139.1061  154.1880 C   0  0  0  0  0  0  0  0  0  0  0  0
  151.0979  138.0042  154.6703 C   0  0  0  0  0  0  0  0  0  0  0  0
  150.4971  137.2887  155.7431 O   0  0  0  0  0  0  0  0  0  0  0  0
  149.2910  136.6447  155.3491 C   0  0  0  0  0  0  0  0  0  0  0  0
  148.2704  137.6958  154.8807 C   0  0  0  0  0  0  0  0  0  0  0  0
  146.2174  135.3382  151.4947 N   0  0  0  0  0  0  0  0  0  0  0  0
  145.4979  134.1833  151.0815 C   0  0  0  0  0  0  0  0  0  0  0  0
  146.2153  133.1801  150.3922 C   0  0  0  0  0  0  0  0  0  0  0  0
  145.5423  132.0239  149.9470 C   0  0  0  0  0  0  0  0  0  0  0  0
  144.2184  131.8876  150.1733 N   0  3  0  0  0  0  0  0  0  0  0  0
  143.4875  132.8241  150.8152 C   0  0  0  0  0  0  0  0  0  0  0  0
  144.1057  134.0014  151.2839 C   0  0  0  0  0  0  0  0  0  0  0  0
  147.6792  137.0777  152.0475 H   0  0  0  0  0  0  0  0  0  0  0  0
  145.9969  139.2771  152.0110 H   0  0  0  0  0  0  0  0  0  0  0  0
  145.8773  138.6450  153.6313 H   0  0  0  0  0  0  0  0  0  0  0  0
  148.3345  139.7769  152.2093 H   0  0  0  0  0  0  0  0  0  0  0  0
  148.6398  141.1017  154.3112 H   0  0  0  0  0  0  0  0  0  0  0  0
  147.4329  142.3597  152.6103 H   0  0  0  0  0  0  0  0  0  0  0  0
  145.9772  141.3926  152.8744 H   0  0  0  0  0  0  0  0  0  0  0  0
  147.2616  143.3636  154.7985 H   0  0  0  0  0  0  0  0  0  0  0  0
  145.5565  143.2469  154.3508 H   0  0  0  0  0  0  0  0  0  0  0  0
  146.0201  139.7993  155.1240 H   0  0  0  0  0  0  0  0  0  0  0  0
  147.4373  140.1179  156.1282 H   0  0  0  0  0  0  0  0  0  0  0  0
  150.5945  139.6425  153.3555 H   0  0  0  0  0  0  0  0  0  0  0  0
  149.9893  139.8255  154.9935 H   0  0  0  0  0  0  0  0  0  0  0  0
  151.3512  137.3225  153.8566 H   0  0  0  0  0  0  0  0  0  0  0  0
  152.0319  138.4448  155.0193 H   0  0  0  0  0  0  0  0  0  0  0  0
  149.4938  135.9193  154.5596 H   0  0  0  0  0  0  0  0  0  0  0  0
  148.8939  136.0881  156.1981 H   0  0  0  0  0  0  0  0  0  0  0  0
  147.9934  138.3368  155.7180 H   0  0  0  0  0  0  0  0  0  0  0  0
  147.3613  137.1959  154.5447 H   0  0  0  0  0  0  0  0  0  0  0  0
  147.2230  135.2531  151.4652 H   0  0  0  0  0  0  0  0  0  0  0  0
  147.2742  133.2894  150.2075 H   0  0  0  0  0  0  0  0  0  0  0  0
  146.0196  131.2116  149.4184 H   0  0  0  0  0  0  0  0  0  0  0  0
  142.4350  132.6087  150.9286 H   0  0  0  0  0  0  0  0  0  0  0  0
  143.4960  134.7436  151.7758 H   0  0  0  0  0  0  0  0  0  0  0  0
  149.0710  137.8369  153.0591 H   0  0  0  0  0  0  0  0  0  0  0  0
  143.7491  131.0444  149.8409 H   0  0  0  0  0  0  0  0  0  0  0  0
  1  2  2  0  0  0  0
  2  3  1  0  0  0  0
  2 17  1  0  0  0  0
  3  4  1  0  0  0  0
  3 24  1  0  0  0  0
  4  5  1  0  0  0  0
  4 25  1  0  0  0  0
  4 26  1  0  0  0  0
  5  6  1  0  0  0  0
  5 11  1  0  0  0  0
  5 27  1  0  0  0  0
  6 10  1  0  0  0  0
  6  7  1  0  0  0  0
  6 28  1  0  0  0  0
  7  8  1  0  0  0  0
  7 29  1  0  0  0  0
  7 30  1  0  0  0  0
  8  9  1  0  0  0  0
  8 31  1  0  0  0  0
  8 32  1  0  0  0  0
  9 10  1  0  0  0  0
 10 33  1  0  0  0  0
 10 34  1  0  0  0  0
 11 16  1  0  0  0  0
 11 12  1  0  0  0  0
 11 48  1  0  0  0  0
 12 13  1  0  0  0  0
 12 35  1  0  0  0  0
 12 36  1  0  0  0  0
 13 14  1  0  0  0  0
 13 37  1  0  0  0  0
 13 38  1  0  0  0  0
 14 15  1  0  0  0  0
 15 16  1  0  0  0  0
 15 39  1  0  0  0  0
 15 40  1  0  0  0  0
 16 41  1  0  0  0  0
 16 42  1  0  0  0  0
 17 18  1  0  0  0  0
 17 43  1  0  0  0  0
 18 23  1  0  0  0  0
 18 19  2  0  0  0  0
 19 20  1  0  0  0  0
 19 44  1  0  0  0  0
 20 21  2  0  0  0  0
 20 45  1  0  0  0  0
 21 22  1  0  0  0  0
 21 49  1  0  0  0  0
 22 23  2  0  0  0  0
 22 46  1  0  0  0  0
 23 47  1  0  0  0  0
M  CHG  1  11   1
M  CHG  1  21   1
M  END
> <s_m_source_file>
AV-unprocessed.smi

> <i_m_source_file_index>
1240

> <i_lp_mmshare_version>
43012

> <i_f3d_flags>
0

> <s_epik_input>
W2NIXTFbY0hdbltjSF1bY0hdYzFbTkhdQyg9TylbTkhdW0NIMl1bQ0BIXShbQ0BASF0yW0NIMl1bQ0gyXU9bQ0gyXTIpTjNbQ0gyXVtDSDJdT1tDSDJdW0NIMl0z

> <s_epik_cmdline>
J2VwaWtfcHl0aG9uJywgJy1waCcsICc3LjAnLCAnLXRuJywgJzgnLCAnLW1hJywgJzIwMCcsICctbWV0YWxfYmluZGluZycsICctaW1hZScsICc8aW5maWxlLm1hZT4nLCAnLW9tYWUnLCAnPG91dGZpbGUubWFlPic=

> <r_epik_Ionization_Penalty>
2.08105

> <r_epik_Ionization_Penalty_Charging>
2.08103

> <r_epik_Ionization_Penalty_Neutral>
2.04144e-05

> <r_epik_State_Penalty>
2.15598

> <r_epik_Charging_Adjusted_Penalty>
4.23701

> <i_epik_Tot_Q>
2

> <i_epik_Tot_abs_Q>
2

> <r_epik_Metal_State_Penalty>
2.25158

> <b_epik_Metal_Only>
0

> <s_lp_Force_Field>
OPLS_2005

> <r_lp_Energy>
49.3852

> <b_lp_Chiralities_Consistent>
1

> <s_lp_Variant>
AV-unprocessed.smi:1240-16

> <Gold.Version>
5.8.1

> <Gold.Id.Protein>
6NUR|6NUR_protein|mol2

> <Gold.PLP.Fitness>
48.4226

> <Gold.PLP.PLP>
-37.2509

> <Gold.PLP.part.hbond>
-3.8579

> <Gold.PLP.part.metal>
0.0000

> <Gold.PLP.part.buried>
-4.0912

> <Gold.PLP.part.nonpolar>
-30.7504

> <Gold.PLP.part.repulsive>
0.6119

> <Gold.PLP.ligand.clash>
0.0000

> <Gold.PLP.ligand.torsion>
0.4120

> <Gold.PLP.Chemscore.Hbond>
3.9120

> <Gold.PLP.Chemscore.CHOScore>
0.0000

> <Gold.PLP.Chemscore.Metal>
0.0000

> <Gold.Chemscore.Hbonds>
donor molecule, donor type, donor heavy atom, donor atom, acceptor molecule, acceptor atom, score
      L1  H     3    24       P1  7948  0.98
      L1  H    11    48       P1  7948  2.00
      L1  H    17    43       P1  7948  0.90

> <Gold.PLP.Chemscore.Internal.Correction>
0.2597

> <Gold.Rescore>
     Score         DG    S(hbond)    S(metal)    S(lipo)     H(rot)  DE(clash)    DE(int)     intcor
     18.40     -21.34       2.70        0.00      96.70       1.74       1.41       1.53       ----

> <Gold.Chemscore.Fitness>
18.4012

> <Gold.Chemscore.DG>
-21.3411

> <Gold.Chemscore.ZeroCoef>
-5.4800

> <Gold.Chemscore.Hbond>
2.6966

> <Gold.Chemscore.Metal>
0.0000

> <Gold.Chemscore.Lipo>
96.7020

> <Gold.Chemscore.Internal_Hbond>
0.0000

> <Gold.Chemscore.DEClash>
1.4131

> <Gold.Chemscore.DEInternal>
1.5268

> <Gold.Chemscore.Rot>
1.7421

> <Gold.Chemscore.Internal.Correction>
   9.000000E+99

> <Gold.Chemscore.Hbonds>
donor molecule, donor type, donor heavy atom, donor atom, acceptor molecule, acceptor atom, score
      L1  H     3    24       P1  7948  0.92
      L1  H    11    48       P1  7948  0.97
      L1  H    17    43       P1  7948  0.76

> <Gold.Chemscore.Hbond.Weighted>
-9.0067

> <Gold.Chemscore.Metal.Weighted>
-0.0000

> <Gold.Chemscore.Lipo.Weighted>
-11.3141

> <Gold.Chemscore.Internal_Hbond.Weighted>
0.0000

> <Gold.Chemscore.DEClash.Weighted>
1.4131

> <Gold.Chemscore.DEInternal.Weighted>
1.5268

> <Gold.Chemscore.Rot.Weighted>
4.4597

> <Gold.Chemscore.Internal.Correction.Weighted>
   9.000000E+99

> <Gold.Protein.RotatedTorsions>
[ 6907 6896 6895 6894 ] final   39.39 input  -60.11 | X-H torsion
[ 7974 7965 7964 7962 ] final -152.76 input  175.53 | X-H torsion
[ 8008 7997 7996 7995 ] final -134.10 input   59.86 | X-H torsion
[ 10167 10162 10161 10158 ] final   49.77 input  -65.29 | X-H torsion
[ 10718 10713 10712 10709 ] final  130.42 input   66.30 | X-H torsion
[ 10763 10752 10751 10750 ] final  -54.93 input  -60.55 | X-H torsion
[ 11005 11000 10999 10996 ] final  -68.67 input  -57.11 | X-H torsion

> <Gold.Protein.ActiveResidues>
 VAL166  LYS551  ARG553  GLY616  TRP617  ASP618  TYR619  PRO620  LYS621  CYS622 
 ASP623  PHE694  ASN695  SER759  ASP760  ASP761  ALA762  ILE779  LEU786  VAL792 
 PHE793  MET794  SER795  GLU796  ALA797  LYS798  CYS799  TRP800  GLU811  SER814 

> <Gold.Protein.RotatedAtoms>
  152.1689  134.8850  160.0535 H   0  0  0  0  0  0  0  0  0  0  0  0  # atno 6907 bound_to 6896
  151.9818  133.3755  159.4118 H   0  0  0  0  0  0  0  0  0  0  0  0  # atno 6908 bound_to 6896
  150.6899  134.3953  159.5138 H   0  0  0  0  0  0  0  0  0  0  0  0  # atno 6909 bound_to 6896
  144.7777  140.4618  143.5862 H   0  0  0  0  0  0  0  0  0  0  0  0  # atno 7974 bound_to 7965
  155.3565  140.0480  157.3046 H   0  0  0  0  0  0  0  0  0  0  0  0  # atno 8008 bound_to 7997
  154.5200  140.2221  155.8958 H   0  0  0  0  0  0  0  0  0  0  0  0  # atno 8009 bound_to 7997
  156.1679  140.3102  155.8926 H   0  0  0  0  0  0  0  0  0  0  0  0  # atno 8010 bound_to 7997
  140.2794  144.3174  150.6268 H   0  0  0  0  0  0  0  0  0  0  0  0  # atno 10167 bound_to 10162
  157.5063  131.1095  150.9356 H   0  0  0  0  0  0  0  0  0  0  0  0  # atno 10718 bound_to 10713
  154.1827  135.6440  153.5038 H   0  0  0  0  0  0  0  0  0  0  0  0  # atno 10763 bound_to 10752
  153.0055  135.5410  154.6498 H   0  0  0  0  0  0  0  0  0  0  0  0  # atno 10764 bound_to 10752
  154.5866  135.2930  155.0651 H   0  0  0  0  0  0  0  0  0  0  0  0  # atno 10765 bound_to 10752
  141.1537  133.6746  156.6481 H   0  0  0  0  0  0  0  0  0  0  0  0  # atno 11005 bound_to 11000
  145.6140  139.1516  143.3060 LP  0  0  0  0  0  0  0  0  0  0  0  0  # atno 17320 bound_to 7965
  146.1966  140.6254  142.9121 LP  0  0  0  0  0  0  0  0  0  0  0  0  # atno 17321 bound_to 7965
  140.5824  143.2172  151.7404 LP  0  0  0  0  0  0  0  0  0  0  0  0  # atno 17342 bound_to 10162
  139.4966  144.4061  152.0131 LP  0  0  0  0  0  0  0  0  0  0  0  0  # atno 17343 bound_to 10162
  157.0011  130.5600  149.5311 LP  0  0  0  0  0  0  0  0  0  0  0  0  # atno 17370 bound_to 10713
  156.0260  130.5354  150.8408 LP  0  0  0  0  0  0  0  0  0  0  0  0  # atno 17371 bound_to 10713
  140.3341  134.7904  157.4349 LP  0  0  0  0  0  0  0  0  0  0  0  0  # atno 17394 bound_to 11000
  140.0992  134.5496  155.8369 LP  0  0  0  0  0  0  0  0  0  0  0  0  # atno 17395 bound_to 11000

$$$$
