AV-unprocessed.smi:2605|AV-procd|sdf|10193|dock6
  -GOLD-   2272014203D 1   1.00000     0.00000
 Structure written by MMmdl.
 26 27  0  0  0  0  0  0  0  0  2 V2000
  152.5308  138.8066  155.7238 C   0  0  0  0  0  0  0  0  0  0  0  0
  151.6179  139.8769  155.6362 C   0  0  0  0  0  0  0  0  0  0  0  0
  150.4751  139.7240  154.8239 C   0  0  0  0  0  0  0  0  0  0  0  0
  149.4604  140.8502  154.7073 C   0  0  2  0  0  0  0  0  0  0  0  0
  148.7720  141.1273  156.0632 C   0  0  0  0  0  0  0  0  0  0  0  0
  147.8198  142.2503  155.9408 N   0  3  0  0  0  0  0  0  0  0  0  0
  146.8364  142.0000  154.8685 C   0  0  0  0  0  0  0  0  0  0  0  0
  147.5647  141.7184  153.5419 C   0  0  0  0  0  0  0  0  0  0  0  0
  148.4422  140.5624  153.6970 N   0  0  0  0  0  0  0  0  0  0  0  0
  150.2966  138.5011  154.1409 C   0  0  0  0  0  0  0  0  0  0  0  0
  151.2698  137.4939  154.2965 C   0  0  0  0  0  0  0  0  0  0  0  0
  152.3665  137.6366  155.0705 N   0  0  0  0  0  0  0  0  0  0  0  0
  153.4164  138.8930  156.3357 H   0  0  0  0  0  0  0  0  0  0  0  0
  151.7973  140.7921  156.1812 H   0  0  0  0  0  0  0  0  0  0  0  0
  149.9998  141.7451  154.3922 H   0  0  0  0  0  0  0  0  0  0  0  0
  148.2415  140.2423  156.4184 H   0  0  0  0  0  0  0  0  0  0  0  0
  149.5135  141.3802  156.8216 H   0  0  0  0  0  0  0  0  0  0  0  0
  147.3370  142.3799  156.8183 H   0  0  0  0  0  0  0  0  0  0  0  0
  146.2012  141.1569  155.1447 H   0  0  0  0  0  0  0  0  0  0  0  0
  146.1882  142.8708  154.7688 H   0  0  0  0  0  0  0  0  0  0  0  0
  146.8404  141.5084  152.7545 H   0  0  0  0  0  0  0  0  0  0  0  0
  148.1429  142.5864  153.2215 H   0  0  0  0  0  0  0  0  0  0  0  0
  148.8910  140.3493  152.8167 H   0  0  0  0  0  0  0  0  0  0  0  0
  149.4358  138.3341  153.5101 H   0  0  0  0  0  0  0  0  0  0  0  0
  151.1634  136.5482  153.7861 H   0  0  0  0  0  0  0  0  0  0  0  0
  148.3350  143.0898  155.7179 H   0  0  0  0  0  0  0  0  0  0  0  0
  1 12  1  0  0  0  0
  1  2  2  0  0  0  0
  1 13  1  0  0  0  0
  2  3  1  0  0  0  0
  2 14  1  0  0  0  0
  3  4  1  0  0  0  0
  3 10  2  0  0  0  0
  4  9  1  0  0  0  0
  4  5  1  0  0  0  0
  4 15  1  0  0  0  0
  5  6  1  0  0  0  0
  5 16  1  0  0  0  0
  5 17  1  0  0  0  0
  6  7  1  0  0  0  0
  6 18  1  0  0  0  0
  6 26  1  0  0  0  0
  7  8  1  0  0  0  0
  7 19  1  0  0  0  0
  7 20  1  0  0  0  0
  8  9  1  0  0  0  0
  8 21  1  0  0  0  0
  8 22  1  0  0  0  0
  9 23  1  0  0  0  0
 10 11  1  0  0  0  0
 10 24  1  0  0  0  0
 11 12  2  0  0  0  0
 11 25  1  0  0  0  0
M  CHG  1   6   1
M  END
> <s_m_source_file>
AV-unprocessed.smi

> <i_m_source_file_index>
2605

> <i_lp_mmshare_version>
43012

> <i_f3d_flags>
0

> <s_epik_input>
W2NIXTFbY0hdbltjSF1bY0hdYzFbQ0BASF0yW0NIMl1bTkhdW0NIMl1bQ0gyXVtOSF0y

> <s_epik_cmdline>
J2VwaWtfcHl0aG9uJywgJy1waCcsICc3LjAnLCAnLXRuJywgJzgnLCAnLW1hJywgJzIwMCcsICctbWV0YWxfYmluZGluZycsICctaW1hZScsICc8aW5maWxlLm1hZT4nLCAnLW9tYWUnLCAnPG91dGZpbGUubWFlPic=

> <r_epik_Ionization_Penalty>
0.0197506

> <r_epik_Ionization_Penalty_Charging>
0.010317

> <r_epik_Ionization_Penalty_Neutral>
0.00943359

> <r_epik_State_Penalty>
0.319455

> <r_epik_Charging_Adjusted_Penalty>
0.329772

> <i_epik_Tot_Q>
1

> <i_epik_Tot_abs_Q>
1

> <r_epik_Metal_State_Penalty>
0.318246

> <b_epik_Metal_Only>
0

> <s_lp_Force_Field>
OPLS_2005

> <r_lp_Energy>
9.79217

> <b_lp_Chiralities_Consistent>
1

> <s_lp_Variant>
AV-unprocessed.smi:2605-1

> <Gold.Version>
5.8.1

> <Gold.Id.Protein>
6NUR|6NUR_protein|mol2

> <Gold.PLP.Fitness>
39.1814

> <Gold.PLP.PLP>
-26.5372

> <Gold.PLP.part.hbond>
-3.0000

> <Gold.PLP.part.metal>
0.0000

> <Gold.PLP.part.buried>
-1.2777

> <Gold.PLP.part.nonpolar>
-21.8484

> <Gold.PLP.part.repulsive>
0.0983

> <Gold.PLP.ligand.clash>
0.0000

> <Gold.PLP.ligand.torsion>
0.0755

> <Gold.PLP.Chemscore.Hbond>
3.2626

> <Gold.PLP.Chemscore.CHOScore>
1.0000

> <Gold.PLP.Chemscore.Metal>
0.0000

> <Gold.Chemscore.Hbonds>
donor molecule, donor type, donor heavy atom, donor atom, acceptor molecule, acceptor atom, score
      L1  H     6    26       P1  8028  2.00
      L1  H     9    23       P1  7957  1.00
      P1  H 10752 10763       L1    12  0.26
      L1  C    11    25       P1  7949  1.00

> <Gold.PLP.Chemscore.Internal.Correction>
0.0074

> <Gold.Rescore>
     Score         DG    S(hbond)    S(metal)    S(lipo)     H(rot)  DE(clash)    DE(int)     intcor
     17.59     -18.07       2.35        0.00      62.46       1.00       0.41       0.08       ----

> <Gold.Chemscore.Fitness>
17.5879

> <Gold.Chemscore.DG>
-18.0722

> <Gold.Chemscore.ZeroCoef>
-5.4800

> <Gold.Chemscore.Hbond>
2.3485

> <Gold.Chemscore.Metal>
0.0000

> <Gold.Chemscore.Lipo>
62.4630

> <Gold.Chemscore.Internal_Hbond>
0.0000

> <Gold.Chemscore.DEClash>
0.4088

> <Gold.Chemscore.DEInternal>
0.0755

> <Gold.Chemscore.Rot>
1.0000

> <Gold.Chemscore.Internal.Correction>
   9.000000E+99

> <Gold.Chemscore.Hbonds>
donor molecule, donor type, donor heavy atom, donor atom, acceptor molecule, acceptor atom, score
      L1  H     6    26       P1  8028  0.96
      L1  H     9    23       P1  7957  1.00
      P1  H 10752 10763       L1    12  0.03

> <Gold.Chemscore.Hbond.Weighted>
-7.8440

> <Gold.Chemscore.Metal.Weighted>
-0.0000

> <Gold.Chemscore.Lipo.Weighted>
-7.3082

> <Gold.Chemscore.Internal_Hbond.Weighted>
0.0000

> <Gold.Chemscore.DEClash.Weighted>
0.4088

> <Gold.Chemscore.DEInternal.Weighted>
0.0755

> <Gold.Chemscore.Rot.Weighted>
2.5600

> <Gold.Chemscore.Internal.Correction.Weighted>
   9.000000E+99

> <Gold.Protein.RotatedTorsions>
[ 6907 6896 6895 6894 ] final  172.60 input  -60.11 | X-H torsion
[ 7974 7965 7964 7962 ] final   21.63 input  175.53 | X-H torsion
[ 8008 7997 7996 7995 ] final  -14.19 input   59.86 | X-H torsion
[ 10167 10162 10161 10158 ] final  153.50 input  -65.29 | X-H torsion
[ 10718 10713 10712 10709 ] final  -98.19 input   66.30 | X-H torsion
[ 10763 10752 10751 10750 ] final   70.96 input  -60.55 | X-H torsion
[ 11005 11000 10999 10996 ] final  151.16 input  -57.11 | X-H torsion

> <Gold.Protein.ActiveResidues>
 VAL166  LYS551  ARG553  GLY616  TRP617  ASP618  TYR619  PRO620  LYS621  CYS622 
 ASP623  PHE694  ASN695  SER759  ASP760  ASP761  ALA762  ILE779  LEU786  VAL792 
 PHE793  MET794  SER795  GLU796  ALA797  LYS798  CYS799  TRP800  GLU811  SER814 

> <Gold.Protein.RotatedAtoms>
  151.7816  133.3350  159.3473 H   0  0  0  0  0  0  0  0  0  0  0  0  # atno 6907 bound_to 6896
  150.7424  134.5925  159.6004 H   0  0  0  0  0  0  0  0  0  0  0  0  # atno 6908 bound_to 6896
  152.3272  134.7307  160.0350 H   0  0  0  0  0  0  0  0  0  0  0  0  # atno 6909 bound_to 6896
  146.2063  139.7999  142.8723 H   0  0  0  0  0  0  0  0  0  0  0  0  # atno 7974 bound_to 7965
  154.5230  140.2229  155.8941 H   0  0  0  0  0  0  0  0  0  0  0  0  # atno 8008 bound_to 7997
  156.1683  140.3127  155.8892 H   0  0  0  0  0  0  0  0  0  0  0  0  # atno 8009 bound_to 7997
  155.3611  140.0461  157.3037 H   0  0  0  0  0  0  0  0  0  0  0  0  # atno 8010 bound_to 7997
  139.4827  144.5268  151.7788 H   0  0  0  0  0  0  0  0  0  0  0  0  # atno 10167 bound_to 10162
  156.0101  130.5227  150.6485 H   0  0  0  0  0  0  0  0  0  0  0  0  # atno 10718 bound_to 10713
  153.0371  135.5154  154.7521 H   0  0  0  0  0  0  0  0  0  0  0  0  # atno 10763 bound_to 10752
  154.6488  135.2922  155.0015 H   0  0  0  0  0  0  0  0  0  0  0  0  # atno 10764 bound_to 10752
  154.0906  135.6651  153.4904 H   0  0  0  0  0  0  0  0  0  0  0  0  # atno 10765 bound_to 10752
  140.1195  134.8873  157.2051 H   0  0  0  0  0  0  0  0  0  0  0  0  # atno 11005 bound_to 11000
  145.3307  141.0266  143.3448 LP  0  0  0  0  0  0  0  0  0  0  0  0  # atno 17320 bound_to 7965
  144.8801  139.4916  143.6727 LP  0  0  0  0  0  0  0  0  0  0  0  0  # atno 17321 bound_to 7965
  140.4789  144.1479  150.5929 LP  0  0  0  0  0  0  0  0  0  0  0  0  # atno 17342 bound_to 10162
  140.4300  143.2572  151.9607 LP  0  0  0  0  0  0  0  0  0  0  0  0  # atno 17343 bound_to 10162
  157.4251  131.0842  151.1093 LP  0  0  0  0  0  0  0  0  0  0  0  0  # atno 17370 bound_to 10713
  157.1683  130.6256  149.5632 LP  0  0  0  0  0  0  0  0  0  0  0  0  # atno 17371 bound_to 10713
  140.2984  134.3159  155.7296 LP  0  0  0  0  0  0  0  0  0  0  0  0  # atno 17394 bound_to 11000
  141.2148  133.7577  156.9605 LP  0  0  0  0  0  0  0  0  0  0  0  0  # atno 17395 bound_to 11000

$$$$
