AV-unprocessed.smi:1426|AV-procd|sdf|5807|dock9
  -GOLD-   22720 5463D 1   1.00000     0.00000
 Structure written by MMmdl.
 44 46  0  0  0  0  0  0  0  0  2 V2000
  150.8171  141.2078  156.2090 O   0  0  0  0  0  0  0  0  0  0  0  0
  150.1967  142.2594  156.0532 C   0  0  0  0  0  0  0  0  0  0  0  0
  150.5733  143.4291  156.5878 N   0  0  0  0  0  0  0  0  0  0  0  0
  151.7508  143.6265  157.4272 C   0  0  0  0  0  0  0  0  0  0  0  0
  151.7909  145.0348  158.0599 C   0  0  2  0  0  0  0  0  0  0  0  0
  152.9701  145.2512  158.9985 C   0  0  0  0  0  0  0  0  0  0  0  0
  152.4402  144.8152  160.3681 C   0  0  0  0  0  0  0  0  0  0  0  0
  151.0317  144.6621  160.2240 O   0  0  0  0  0  0  0  0  0  0  0  0
  150.6194  145.2711  159.0100 C   0  0  0  0  0  0  0  0  0  0  0  0
  149.0559  142.3881  155.3553 N   0  0  0  0  0  0  0  0  0  0  0  0
  148.3231  141.3753  154.6733 C   0  0  0  0  0  0  0  0  0  0  0  0
  148.9463  140.1734  154.2488 C   0  0  0  0  0  0  0  0  0  0  0  0
  148.1906  139.1821  153.5952 C   0  0  0  0  0  0  0  0  0  0  0  0
  146.8220  139.4079  153.3708 C   0  0  0  0  0  0  0  0  0  0  0  0
  146.2626  140.5692  153.7680 N   0  3  0  0  0  0  0  0  0  0  0  0
  146.9396  141.5680  154.3882 C   0  0  0  0  0  0  0  0  0  0  0  0
  146.2216  142.7356  154.7333 N   0  0  0  0  0  0  0  0  0  0  0  0
  145.3702  142.7551  155.9172 C   0  0  0  0  0  0  0  0  0  0  0  0
  144.5189  144.0129  155.7704 C   0  0  0  0  0  0  0  0  0  0  0  0
  144.2967  144.0836  154.2624 C   0  0  0  0  0  0  0  0  0  0  0  0
  145.5951  143.5203  153.6738 C   0  0  0  0  0  0  0  0  0  0  0  0
  150.0036  144.2433  156.4092 H   0  0  0  0  0  0  0  0  0  0  0  0
  151.7767  142.8621  158.2057 H   0  0  0  0  0  0  0  0  0  0  0  0
  152.6359  143.4635  156.8113 H   0  0  0  0  0  0  0  0  0  0  0  0
  151.7861  145.7833  157.2663 H   0  0  0  0  0  0  0  0  0  0  0  0
  153.8720  144.7132  158.7056 H   0  0  0  0  0  0  0  0  0  0  0  0
  153.2198  146.3126  159.0283 H   0  0  0  0  0  0  0  0  0  0  0  0
  152.8729  143.8642  160.6799 H   0  0  0  0  0  0  0  0  0  0  0  0
  152.6672  145.5577  161.1336 H   0  0  0  0  0  0  0  0  0  0  0  0
  150.4731  146.3389  159.1797 H   0  0  0  0  0  0  0  0  0  0  0  0
  149.6789  144.8543  158.6483 H   0  0  0  0  0  0  0  0  0  0  0  0
  148.6096  143.2923  155.4012 H   0  0  0  0  0  0  0  0  0  0  0  0
  149.9991  139.9970  154.4090 H   0  0  0  0  0  0  0  0  0  0  0  0
  148.6555  138.2618  153.2727 H   0  0  0  0  0  0  0  0  0  0  0  0
  146.1636  138.7048  152.8814 H   0  0  0  0  0  0  0  0  0  0  0  0
  144.7239  141.8766  155.9369 H   0  0  0  0  0  0  0  0  0  0  0  0
  145.9611  142.7701  156.8333 H   0  0  0  0  0  0  0  0  0  0  0  0
  143.5894  143.9665  156.3385 H   0  0  0  0  0  0  0  0  0  0  0  0
  145.0804  144.8859  156.1066 H   0  0  0  0  0  0  0  0  0  0  0  0
  143.4594  143.4407  153.9870 H   0  0  0  0  0  0  0  0  0  0  0  0
  144.0749  145.0918  153.9115 H   0  0  0  0  0  0  0  0  0  0  0  0
  146.2633  144.3370  153.3984 H   0  0  0  0  0  0  0  0  0  0  0  0
  145.3992  142.9231  152.7817 H   0  0  0  0  0  0  0  0  0  0  0  0
  145.2693  140.7077  153.5817 H   0  0  0  0  0  0  0  0  0  0  0  0
  1  2  2  0  0  0  0
  2  3  1  0  0  0  0
  2 10  1  0  0  0  0
  3  4  1  0  0  0  0
  3 22  1  0  0  0  0
  4  5  1  0  0  0  0
  4 23  1  0  0  0  0
  4 24  1  0  0  0  0
  5  9  1  0  0  0  0
  5  6  1  0  0  0  0
  5 25  1  0  0  0  0
  6  7  1  0  0  0  0
  6 26  1  0  0  0  0
  6 27  1  0  0  0  0
  7  8  1  0  0  0  0
  7 28  1  0  0  0  0
  7 29  1  0  0  0  0
  8  9  1  0  0  0  0
  9 30  1  0  0  0  0
  9 31  1  0  0  0  0
 10 11  1  0  0  0  0
 10 32  1  0  0  0  0
 11 16  1  0  0  0  0
 11 12  2  0  0  0  0
 12 13  1  0  0  0  0
 12 33  1  0  0  0  0
 13 14  2  0  0  0  0
 13 34  1  0  0  0  0
 14 15  1  0  0  0  0
 14 35  1  0  0  0  0
 15 16  2  0  0  0  0
 15 44  1  0  0  0  0
 16 17  1  0  0  0  0
 17 21  1  0  0  0  0
 17 18  1  0  0  0  0
 18 19  1  0  0  0  0
 18 36  1  0  0  0  0
 18 37  1  0  0  0  0
 19 20  1  0  0  0  0
 19 38  1  0  0  0  0
 19 39  1  0  0  0  0
 20 21  1  0  0  0  0
 20 40  1  0  0  0  0
 20 41  1  0  0  0  0
 21 42  1  0  0  0  0
 21 43  1  0  0  0  0
M  CHG  1  15   1
M  END
> <s_m_source_file>
AV-unprocessed.smi

> <i_m_source_file_index>
1426

> <i_lp_mmshare_version>
43012

> <i_f3d_flags>
0

> <s_epik_input>
W0NIMl0xT1tDSDJdW0NIMl1bQ0BIXTFbQ0gyXVtOSF1DKD1PKVtOSF1jMltjSF1bY0hdW2NIXW5jMk4zW0NIMl1bQ0gyXVtDSDJdW0NIMl0z

> <s_epik_cmdline>
J2VwaWtfcHl0aG9uJywgJy1waCcsICc3LjAnLCAnLXRuJywgJzgnLCAnLW1hJywgJzIwMCcsICctbWV0YWxfYmluZGluZycsICctaW1hZScsICc8aW5maWxlLm1hZT4nLCAnLW9tYWUnLCAnPG91dGZpbGUubWFlPic=

> <r_lp_tautomer_probability>
0.999994

> <r_epik_Ionization_Penalty>
1.10677

> <r_epik_Ionization_Penalty_Charging>
1.10675

> <r_epik_Ionization_Penalty_Neutral>
2.02663e-05

> <r_epik_State_Penalty>
1.16438

> <r_epik_Charging_Adjusted_Penalty>
2.27113

> <i_epik_Tot_Q>
1

> <i_epik_Tot_abs_Q>
1

> <r_epik_Metal_State_Penalty>
1.25078

> <b_epik_Metal_Only>
0

> <s_lp_Force_Field>
OPLS_2005

> <r_lp_Energy>
54.6113

> <b_lp_Chiralities_Consistent>
1

> <s_lp_Variant>
AV-unprocessed.smi:1426-3

> <Gold.Version>
5.8.1

> <Gold.Id.Protein>
6NUR|6NUR_protein|mol2

> <Gold.PLP.Fitness>
52.8836

> <Gold.PLP.PLP>
-41.3662

> <Gold.PLP.part.hbond>
-4.0000

> <Gold.PLP.part.metal>
0.0000

> <Gold.PLP.part.buried>
-5.1852

> <Gold.PLP.part.nonpolar>
-33.2485

> <Gold.PLP.part.repulsive>
0.5316

> <Gold.PLP.ligand.clash>
0.0000

> <Gold.PLP.ligand.torsion>
0.4215

> <Gold.PLP.Chemscore.Hbond>
3.9920

> <Gold.PLP.Chemscore.CHOScore>
0.0000

> <Gold.PLP.Chemscore.Metal>
0.0000

> <Gold.Chemscore.Hbonds>
donor molecule, donor type, donor heavy atom, donor atom, acceptor molecule, acceptor atom, score
      L1  H     3    22       P1  8028  0.64
      L1  H    10    32       P1  8028  0.73
      L1  H    15    44       P1 10175  2.00

> <Gold.PLP.Chemscore.Internal.Correction>
0.3844

> <Gold.Rescore>
     Score         DG    S(hbond)    S(metal)    S(lipo)     H(rot)  DE(clash)    DE(int)     intcor
     19.30     -23.95       2.83        0.00     107.87       1.40       3.00       1.65       ----

> <Gold.Chemscore.Fitness>
19.2972

> <Gold.Chemscore.DG>
-23.9504

> <Gold.Chemscore.ZeroCoef>
-5.4800

> <Gold.Chemscore.Hbond>
2.8262

> <Gold.Chemscore.Metal>
0.0000

> <Gold.Chemscore.Lipo>
107.8702

> <Gold.Chemscore.Internal_Hbond>
0.0000

> <Gold.Chemscore.DEClash>
3.0023

> <Gold.Chemscore.DEInternal>
1.6509

> <Gold.Chemscore.Rot>
1.4023

> <Gold.Chemscore.Internal.Correction>
   9.000000E+99

> <Gold.Chemscore.Hbonds>
donor molecule, donor type, donor heavy atom, donor atom, acceptor molecule, acceptor atom, score
      L1  H     3    22       P1  8028  0.60
      L1  H    10    32       P1  8028  0.71
      L1  H    15    44       P1 10175  0.88

> <Gold.Chemscore.Hbond.Weighted>
-9.4394

> <Gold.Chemscore.Metal.Weighted>
-0.0000

> <Gold.Chemscore.Lipo.Weighted>
-12.6208

> <Gold.Chemscore.Internal_Hbond.Weighted>
0.0000

> <Gold.Chemscore.DEClash.Weighted>
3.0023

> <Gold.Chemscore.DEInternal.Weighted>
1.6509

> <Gold.Chemscore.Rot.Weighted>
3.5898

> <Gold.Chemscore.Internal.Correction.Weighted>
   9.000000E+99

> <Gold.Protein.RotatedTorsions>
[ 6907 6896 6895 6894 ] final   20.67 input  -60.11 | X-H torsion
[ 7974 7965 7964 7962 ] final -173.97 input  175.53 | X-H torsion
[ 8008 7997 7996 7995 ] final  101.47 input   59.86 | X-H torsion
[ 10167 10162 10161 10158 ] final -135.77 input  -65.29 | X-H torsion
[ 10718 10713 10712 10709 ] final   19.51 input   66.30 | X-H torsion
[ 10763 10752 10751 10750 ] final -111.86 input  -60.55 | X-H torsion
[ 11005 11000 10999 10996 ] final   25.85 input  -57.11 | X-H torsion

> <Gold.Protein.ActiveResidues>
 VAL166  LYS551  ARG553  GLY616  TRP617  ASP618  TYR619  PRO620  LYS621  CYS622 
 ASP623  PHE694  ASN695  SER759  ASP760  ASP761  ALA762  ILE779  LEU786  VAL792 
 PHE793  MET794  SER795  GLU796  ALA797  LYS798  CYS799  TRP800  GLU811  SER814 

> <Gold.Protein.RotatedAtoms>
  151.8999  135.0382  160.0505 H   0  0  0  0  0  0  0  0  0  0  0  0  # atno 6907 bound_to 6896
  152.2366  133.5097  159.5255 H   0  0  0  0  0  0  0  0  0  0  0  0  # atno 6908 bound_to 6896
  150.7041  134.1061  159.4026 H   0  0  0  0  0  0  0  0  0  0  0  0  # atno 6909 bound_to 6896
  144.7134  140.1542  143.6381 H   0  0  0  0  0  0  0  0  0  0  0  0  # atno 7974 bound_to 7965
  156.1302  140.3197  155.8338 H   0  0  0  0  0  0  0  0  0  0  0  0  # atno 8008 bound_to 7997
  155.4345  140.0521  157.3033 H   0  0  0  0  0  0  0  0  0  0  0  0  # atno 8009 bound_to 7997
  154.4894  140.2086  155.9596 H   0  0  0  0  0  0  0  0  0  0  0  0  # atno 8010 bound_to 7997
  139.8745  143.6916  152.2635 H   0  0  0  0  0  0  0  0  0  0  0  0  # atno 10167 bound_to 10162
  157.1114  130.6510  149.5898 H   0  0  0  0  0  0  0  0  0  0  0  0  # atno 10718 bound_to 10713
  154.8321  135.4512  154.1104 H   0  0  0  0  0  0  0  0  0  0  0  0  # atno 10763 bound_to 10752
  153.2368  135.6912  153.7834 H   0  0  0  0  0  0  0  0  0  0  0  0  # atno 10764 bound_to 10752
  153.7196  135.3344  155.3240 H   0  0  0  0  0  0  0  0  0  0  0  0  # atno 10765 bound_to 10752
  140.3434  134.2308  155.7687 H   0  0  0  0  0  0  0  0  0  0  0  0  # atno 11005 bound_to 11000
  145.9089  139.2475  143.1449 LP  0  0  0  0  0  0  0  0  0  0  0  0  # atno 17320 bound_to 7965
  145.9736  140.8740  143.0150 LP  0  0  0  0  0  0  0  0  0  0  0  0  # atno 17321 bound_to 7965
  139.7253  144.7594  151.0889 LP  0  0  0  0  0  0  0  0  0  0  0  0  # atno 17342 bound_to 10162
  140.7755  143.5156  150.9599 LP  0  0  0  0  0  0  0  0  0  0  0  0  # atno 17343 bound_to 10162
  155.9849  130.4877  150.7007 LP  0  0  0  0  0  0  0  0  0  0  0  0  # atno 17370 bound_to 10713
  157.4555  131.0877  151.0801 LP  0  0  0  0  0  0  0  0  0  0  0  0  # atno 17371 bound_to 10713
  141.2032  133.7917  157.0350 LP  0  0  0  0  0  0  0  0  0  0  0  0  # atno 17394 bound_to 11000
  140.0762  134.9674  157.1550 LP  0  0  0  0  0  0  0  0  0  0  0  0  # atno 17395 bound_to 11000

$$$$
