AV-unprocessed.smi:2909|AV-procd|sdf|11171|dock8
  -GOLD-   2272016 63D 1   1.00000     0.00000
 Structure written by MMmdl.
 44 45  0  0  0  0  0  0  0  0  1 V2000
  144.1247  143.7802  155.8422 C   0  0  0  0  0  0  0  0  0  0  0  0
  145.4187  143.0572  155.6827 C   0  0  0  0  0  0  0  0  0  0  0  0
  146.0938  142.6473  154.5678 C   0  0  0  0  0  0  0  0  0  0  0  0
  147.2693  142.0186  155.0768 C   0  0  0  0  0  0  0  0  0  0  0  0
  148.3895  141.3789  154.3008 C   0  0  0  0  0  0  0  0  0  0  0  0
  149.6280  141.2407  155.1864 C   0  0  0  0  0  0  0  0  0  0  0  0
  150.2976  140.2084  155.1519 O   0  0  0  0  0  0  0  0  0  0  0  0
  149.9173  142.2852  155.9789 N   0  0  0  0  0  0  0  0  0  0  0  0
  151.0310  142.3469  156.9197 C   0  0  2  0  0  0  0  0  0  0  0  0
  151.0502  141.0978  157.8172 C   0  0  0  0  0  0  0  0  0  0  0  0
  152.1713  141.1727  158.8654 C   0  0  0  0  0  0  0  0  0  0  0  0
  152.0848  142.4454  159.7439 C   0  0  1  0  0  0  0  0  0  0  0  0
  153.2374  142.5208  160.7887 C   0  0  0  0  0  0  0  0  0  0  0  0
  153.7016  141.1297  161.2632 C   0  0  0  0  0  0  0  0  0  0  0  0
  152.8707  143.3667  162.0236 C   0  0  0  0  0  0  0  0  0  0  0  0
  152.0373  143.6916  158.8251 C   0  0  0  0  0  0  0  0  0  0  0  0
  150.9118  143.6123  157.7814 C   0  0  0  0  0  0  0  0  0  0  0  0
  147.3139  142.0330  156.4019 N   0  0  0  0  0  0  0  0  0  0  0  0
  146.1840  142.6705  156.7585 N   0  0  0  0  0  0  0  0  0  0  0  0
  145.9506  142.8324  157.7280 H   0  0  0  0  0  0  0  0  0  0  0  0
  143.4899  143.6387  154.9672 H   0  0  0  0  0  0  0  0  0  0  0  0
  144.2934  144.8497  155.9675 H   0  0  0  0  0  0  0  0  0  0  0  0
  143.5793  143.4186  156.7143 H   0  0  0  0  0  0  0  0  0  0  0  0
  145.7958  142.7798  153.5383 H   0  0  0  0  0  0  0  0  0  0  0  0
  148.0981  140.3936  153.9338 H   0  0  0  0  0  0  0  0  0  0  0  0
  148.6322  141.9758  153.4209 H   0  0  0  0  0  0  0  0  0  0  0  0
  149.3092  143.0904  155.9414 H   0  0  0  0  0  0  0  0  0  0  0  0
  151.9686  142.4004  156.3628 H   0  0  0  0  0  0  0  0  0  0  0  0
  150.0893  140.9907  158.3226 H   0  0  0  0  0  0  0  0  0  0  0  0
  151.1801  140.2009  157.2102 H   0  0  0  0  0  0  0  0  0  0  0  0
  152.1095  140.2750  159.4789 H   0  0  0  0  0  0  0  0  0  0  0  0
  153.1388  141.1382  158.3628 H   0  0  0  0  0  0  0  0  0  0  0  0
  151.1422  142.4050  160.2921 H   0  0  0  0  0  0  0  0  0  0  0  0
  154.0938  143.0011  160.3135 H   0  0  0  0  0  0  0  0  0  0  0  0
  152.8698  140.5489  161.6630 H   0  0  0  0  0  0  0  0  0  0  0  0
  154.4530  141.2128  162.0492 H   0  0  0  0  0  0  0  0  0  0  0  0
  154.1612  140.5546  160.4603 H   0  0  0  0  0  0  0  0  0  0  0  0
  151.9562  143.0053  162.4950 H   0  0  0  0  0  0  0  0  0  0  0  0
  152.7308  144.4176  161.7731 H   0  0  0  0  0  0  0  0  0  0  0  0
  153.6625  143.3333  162.7725 H   0  0  0  0  0  0  0  0  0  0  0  0
  151.8814  144.5969  159.4101 H   0  0  0  0  0  0  0  0  0  0  0  0
  152.9954  143.8112  158.3176 H   0  0  0  0  0  0  0  0  0  0  0  0
  150.9394  144.4989  157.1467 H   0  0  0  0  0  0  0  0  0  0  0  0
  149.9465  143.6263  158.2899 H   0  0  0  0  0  0  0  0  0  0  0  0
  1  2  1  0  0  0  0
  1 21  1  0  0  0  0
  1 22  1  0  0  0  0
  1 23  1  0  0  0  0
  2 19  1  0  0  0  0
  2  3  2  0  0  0  0
  3  4  1  0  0  0  0
  3 24  1  0  0  0  0
  4  5  1  0  0  0  0
  4 18  2  0  0  0  0
  5  6  1  0  0  0  0
  5 25  1  0  0  0  0
  5 26  1  0  0  0  0
  6  7  2  0  0  0  0
  6  8  1  0  0  0  0
  8  9  1  0  0  0  0
  8 27  1  0  0  0  0
  9 17  1  0  0  0  0
  9 10  1  0  0  0  0
  9 28  1  0  0  0  0
 10 11  1  0  0  0  0
 10 29  1  0  0  0  0
 10 30  1  0  0  0  0
 11 12  1  0  0  0  0
 11 31  1  0  0  0  0
 11 32  1  0  0  0  0
 12 13  1  0  0  0  0
 12 16  1  0  0  0  0
 12 33  1  0  0  0  0
 13 14  1  0  0  0  0
 13 15  1  0  0  0  0
 13 34  1  0  0  0  0
 14 35  1  0  0  0  0
 14 36  1  0  0  0  0
 14 37  1  0  0  0  0
 15 38  1  0  0  0  0
 15 39  1  0  0  0  0
 15 40  1  0  0  0  0
 16 17  1  0  0  0  0
 16 41  1  0  0  0  0
 16 42  1  0  0  0  0
 17 43  1  0  0  0  0
 17 44  1  0  0  0  0
 18 19  1  0  0  0  0
 19 20  1  0  0  0  0
M  END
> <s_m_source_file>
AV-unprocessed.smi

> <i_m_source_file_index>
2909

> <i_lp_mmshare_version>
43012

> <i_f3d_flags>
0

> <s_epik_input>
W0NIM11jMVtjSF1jKG5bbkhdMSlbQ0gyXUMoPU8pW05IXVtDQEBIXTJbQ0gyXVtDSDJdW0NAQEhdKFtDSF0oW0NIM10pW0NIM10pW0NIMl1bQ0gyXTI=

> <s_epik_cmdline>
J2VwaWtfcHl0aG9uJywgJy1waCcsICc3LjAnLCAnLXRuJywgJzgnLCAnLW1hJywgJzIwMCcsICctbWV0YWxfYmluZGluZycsICctaW1hZScsICc8aW5maWxlLm1hZT4nLCAnLW9tYWUnLCAnPG91dGZpbGUubWFlPic=

> <r_lp_tautomer_probability>
0.5

> <r_epik_Ionization_Penalty>
9.34828e-05

> <r_epik_Ionization_Penalty_Charging>
0

> <r_epik_Ionization_Penalty_Neutral>
9.34828e-05

> <r_epik_State_Penalty>
0.41068

> <r_epik_Charging_Adjusted_Penalty>
0.41068

> <i_epik_Tot_Q>
0

> <i_epik_Tot_abs_Q>
0

> <r_epik_Metal_State_Penalty>
0.4107

> <b_epik_Metal_Only>
0

> <s_lp_Force_Field>
OPLS_2005

> <r_lp_Energy>
11.82

> <b_lp_Chiralities_Consistent>
1

> <s_lp_Variant>
AV-unprocessed.smi:2909-1

> <Gold.Version>
5.8.1

> <Gold.Id.Protein>
6NUR|6NUR_protein|mol2

> <Gold.PLP.Fitness>
47.6828

> <Gold.PLP.PLP>
-43.9485

> <Gold.PLP.part.hbond>
-2.0000

> <Gold.PLP.part.metal>
0.0000

> <Gold.PLP.part.buried>
-2.7850

> <Gold.PLP.part.nonpolar>
-38.4412

> <Gold.PLP.part.repulsive>
0.3531

> <Gold.PLP.ligand.clash>
0.0000

> <Gold.PLP.ligand.torsion>
1.1422

> <Gold.PLP.Chemscore.Hbond>
2.0000

> <Gold.PLP.Chemscore.CHOScore>
0.0000

> <Gold.PLP.Chemscore.Metal>
0.0000

> <Gold.Chemscore.Hbonds>
donor molecule, donor type, donor heavy atom, donor atom, acceptor molecule, acceptor atom, score
      L1  H     8    27       P1  8028  1.00
      P1  H  7989  7998       L1     7  0.39

> <Gold.PLP.Chemscore.Internal.Correction>
0.0187

> <Gold.Rescore>
     Score         DG    S(hbond)    S(metal)    S(lipo)     H(rot)  DE(clash)    DE(int)     intcor
     16.59     -20.12       1.66        0.00     110.63       1.50       0.51       3.01       ----

> <Gold.Chemscore.Fitness>
16.5888

> <Gold.Chemscore.DG>
-20.1180

> <Gold.Chemscore.ZeroCoef>
-5.4800

> <Gold.Chemscore.Hbond>
1.6579

> <Gold.Chemscore.Metal>
0.0000

> <Gold.Chemscore.Lipo>
110.6284

> <Gold.Chemscore.Internal_Hbond>
0.0000

> <Gold.Chemscore.DEClash>
0.5147

> <Gold.Chemscore.DEInternal>
3.0145

> <Gold.Chemscore.Rot>
1.5011

> <Gold.Chemscore.Internal.Correction>
   9.000000E+99

> <Gold.Chemscore.Hbonds>
donor molecule, donor type, donor heavy atom, donor atom, acceptor molecule, acceptor atom, score
      L1  H     8    27       P1  8028  0.99
      P1  H  7989  7998       L1     7  0.05

> <Gold.Chemscore.Hbond.Weighted>
-5.5374

> <Gold.Chemscore.Metal.Weighted>
-0.0000

> <Gold.Chemscore.Lipo.Weighted>
-12.9435

> <Gold.Chemscore.Internal_Hbond.Weighted>
0.0000

> <Gold.Chemscore.DEClash.Weighted>
0.5147

> <Gold.Chemscore.DEInternal.Weighted>
3.0145

> <Gold.Chemscore.Rot.Weighted>
3.8429

> <Gold.Chemscore.Internal.Correction.Weighted>
   9.000000E+99

> <Gold.Protein.RotatedTorsions>
[ 6907 6896 6895 6894 ] final -167.12 input  -60.11 | X-H torsion
[ 7974 7965 7964 7962 ] final  146.04 input  175.53 | X-H torsion
[ 8008 7997 7996 7995 ] final  -35.98 input   59.86 | X-H torsion
[ 10167 10162 10161 10158 ] final  132.76 input  -65.29 | X-H torsion
[ 10718 10713 10712 10709 ] final    5.61 input   66.30 | X-H torsion
[ 10763 10752 10751 10750 ] final   19.23 input  -60.55 | X-H torsion
[ 11005 11000 10999 10996 ] final -158.68 input  -57.11 | X-H torsion

> <Gold.Protein.ActiveResidues>
 VAL166  LYS551  ARG553  GLY616  TRP617  ASP618  TYR619  PRO620  LYS621  CYS622 
 ASP623  PHE694  ASN695  SER759  ASP760  ASP761  ALA762  ILE779  LEU786  VAL792 
 PHE793  MET794  SER795  GLU796  ALA797  LYS798  CYS799  TRP800  GLU811  SER814 

> <Gold.Protein.RotatedAtoms>
  151.4545  133.3609  159.2799 H   0  0  0  0  0  0  0  0  0  0  0  0  # atno 6907 bound_to 6896
  150.9068  134.8485  159.7409 H   0  0  0  0  0  0  0  0  0  0  0  0  # atno 6908 bound_to 6896
  152.4910  134.4471  159.9614 H   0  0  0  0  0  0  0  0  0  0  0  0  # atno 6909 bound_to 6896
  144.8704  139.5856  143.5890 H   0  0  0  0  0  0  0  0  0  0  0  0  # atno 7974 bound_to 7965
  154.4083  140.1643  156.2300 H   0  0  0  0  0  0  0  0  0  0  0  0  # atno 8008 bound_to 7997
  155.9291  140.3416  155.6211 H   0  0  0  0  0  0  0  0  0  0  0  0  # atno 8009 bound_to 7997
  155.7128  140.0759  157.2354 H   0  0  0  0  0  0  0  0  0  0  0  0  # atno 8010 bound_to 7997
  139.5325  144.6647  151.4899 H   0  0  0  0  0  0  0  0  0  0  0  0  # atno 10167 bound_to 10162
  156.9099  130.5752  149.5647 H   0  0  0  0  0  0  0  0  0  0  0  0  # atno 10718 bound_to 10713
  153.1180  135.6712  153.9384 H   0  0  0  0  0  0  0  0  0  0  0  0  # atno 10763 bound_to 10752
  153.8908  135.3047  155.3448 H   0  0  0  0  0  0  0  0  0  0  0  0  # atno 10764 bound_to 10752
  154.7595  135.4995  153.9515 H   0  0  0  0  0  0  0  0  0  0  0  0  # atno 10765 bound_to 10752
  140.6509  134.4451  157.5235 H   0  0  0  0  0  0  0  0  0  0  0  0  # atno 11005 bound_to 11000
  146.2926  139.7183  142.9150 LP  0  0  0  0  0  0  0  0  0  0  0  0  # atno 17320 bound_to 7965
  145.4142  141.0400  143.3000 LP  0  0  0  0  0  0  0  0  0  0  0  0  # atno 17321 bound_to 7965
  140.6513  143.8691  150.6788 LP  0  0  0  0  0  0  0  0  0  0  0  0  # atno 17342 bound_to 10162
  140.2057  143.3924  152.1757 LP  0  0  0  0  0  0  0  0  0  0  0  0  # atno 17343 bound_to 10162
  156.0541  130.5605  150.9053 LP  0  0  0  0  0  0  0  0  0  0  0  0  # atno 17370 bound_to 10713
  157.5974  131.0942  150.9018 LP  0  0  0  0  0  0  0  0  0  0  0  0  # atno 17371 bound_to 10713
  139.9046  134.8478  156.1757 LP  0  0  0  0  0  0  0  0  0  0  0  0  # atno 17394 bound_to 11000
  141.0537  133.6876  156.1820 LP  0  0  0  0  0  0  0  0  0  0  0  0  # atno 17395 bound_to 11000

$$$$
