AV-unprocessed.smi:1932|AV-procd|sdf|7814|dock9
  -GOLD-   22720 9553D 1   1.00000     0.00000
 Structure written by MMmdl.
 44 45  0  0  0  0  0  0  0  0  1 V2000
  153.2560  142.4030  160.4573 C   0  0  0  0  0  0  0  0  0  0  0  0
  152.3612  143.6452  160.5073 C   0  0  0  0  0  0  0  0  0  0  0  0
  152.2083  144.2053  161.5931 O   0  0  0  0  0  0  0  0  0  0  0  0
  151.7718  144.0855  159.3682 N   0  0  0  0  0  0  0  0  0  0  0  0
  150.9295  145.2848  159.3859 C   0  0  0  0  0  0  0  0  0  0  0  0
  151.9463  143.4519  158.0490 C   0  0  0  0  0  0  0  0  0  0  0  0
  151.3644  142.0335  157.9247 C   0  0  0  0  0  0  0  0  0  0  0  0
  151.9965  141.0870  158.3918 O   0  0  0  0  0  0  0  0  0  0  0  0
  150.1900  141.8809  157.2914 N   0  0  0  0  0  0  0  0  0  0  0  0
  149.5406  140.6060  157.0141 C   0  0  0  0  0  0  0  0  0  0  0  0
  148.6345  140.6800  155.7922 C   0  0  0  0  0  0  0  0  0  0  0  0
  147.6425  141.6807  155.7230 C   0  0  0  0  0  0  0  0  0  0  0  0
  146.7839  141.7197  154.6095 C   0  0  0  0  0  0  0  0  0  0  0  0
  146.9497  140.7483  153.6053 C   0  0  0  0  0  0  0  0  0  0  0  0
  147.8952  139.7871  153.6552 N   0  0  0  0  0  0  0  0  0  0  0  0
  148.7267  139.7477  154.7247 C   0  0  0  0  0  0  0  0  0  0  0  0
  149.7225  138.7556  154.7357 N   0  0  0  0  0  0  0  0  0  0  0  0
  149.4137  137.6446  155.6259 C   0  0  0  0  0  0  0  0  0  0  0  0
  150.4193  136.5020  155.4031 C   0  0  0  0  0  0  0  0  0  0  0  0
  151.7460  136.9916  155.5802 O   0  0  0  0  0  0  0  0  0  0  0  0
  152.0610  138.0298  154.6564 C   0  0  0  0  0  0  0  0  0  0  0  0
  151.1006  139.2139  154.8653 C   0  0  0  0  0  0  0  0  0  0  0  0
  154.1552  142.5993  159.8735 H   0  0  0  0  0  0  0  0  0  0  0  0
  152.7309  141.5532  160.0219 H   0  0  0  0  0  0  0  0  0  0  0  0
  153.5695  142.1177  161.4619 H   0  0  0  0  0  0  0  0  0  0  0  0
  150.3394  145.3660  160.2989 H   0  0  0  0  0  0  0  0  0  0  0  0
  150.2229  145.2860  158.5550 H   0  0  0  0  0  0  0  0  0  0  0  0
  151.5487  146.1782  159.3022 H   0  0  0  0  0  0  0  0  0  0  0  0
  151.4678  144.0742  157.2912 H   0  0  0  0  0  0  0  0  0  0  0  0
  152.9966  143.4258  157.7584 H   0  0  0  0  0  0  0  0  0  0  0  0
  149.7344  142.7082  156.9339 H   0  0  0  0  0  0  0  0  0  0  0  0
  150.2827  139.8155  156.8900 H   0  0  0  0  0  0  0  0  0  0  0  0
  148.9512  140.3235  157.8858 H   0  0  0  0  0  0  0  0  0  0  0  0
  147.5331  142.4055  156.5163 H   0  0  0  0  0  0  0  0  0  0  0  0
  146.0134  142.4724  154.5300 H   0  0  0  0  0  0  0  0  0  0  0  0
  146.3065  140.7436  152.7378 H   0  0  0  0  0  0  0  0  0  0  0  0
  149.4615  137.9883  156.6602 H   0  0  0  0  0  0  0  0  0  0  0  0
  148.3977  137.2882  155.4550 H   0  0  0  0  0  0  0  0  0  0  0  0
  150.2382  135.6967  156.1150 H   0  0  0  0  0  0  0  0  0  0  0  0
  150.3083  136.0765  154.4041 H   0  0  0  0  0  0  0  0  0  0  0  0
  153.0915  138.3479  154.8136 H   0  0  0  0  0  0  0  0  0  0  0  0
  151.9954  137.6489  153.6362 H   0  0  0  0  0  0  0  0  0  0  0  0
  151.3007  139.9973  154.1335 H   0  0  0  0  0  0  0  0  0  0  0  0
  151.2575  139.6445  155.8552 H   0  0  0  0  0  0  0  0  0  0  0  0
  1  2  1  0  0  0  0
  1 23  1  0  0  0  0
  1 24  1  0  0  0  0
  1 25  1  0  0  0  0
  2  3  2  0  0  0  0
  2  4  1  0  0  0  0
  4  5  1  0  0  0  0
  4  6  1  0  0  0  0
  5 26  1  0  0  0  0
  5 27  1  0  0  0  0
  5 28  1  0  0  0  0
  6  7  1  0  0  0  0
  6 29  1  0  0  0  0
  6 30  1  0  0  0  0
  7  8  2  0  0  0  0
  7  9  1  0  0  0  0
  9 10  1  0  0  0  0
  9 31  1  0  0  0  0
 10 11  1  0  0  0  0
 10 32  1  0  0  0  0
 10 33  1  0  0  0  0
 11 16  1  0  0  0  0
 11 12  2  0  0  0  0
 12 13  1  0  0  0  0
 12 34  1  0  0  0  0
 13 14  2  0  0  0  0
 13 35  1  0  0  0  0
 14 15  1  0  0  0  0
 14 36  1  0  0  0  0
 15 16  2  0  0  0  0
 16 17  1  0  0  0  0
 17 22  1  0  0  0  0
 17 18  1  0  0  0  0
 18 19  1  0  0  0  0
 18 37  1  0  0  0  0
 18 38  1  0  0  0  0
 19 20  1  0  0  0  0
 19 39  1  0  0  0  0
 19 40  1  0  0  0  0
 20 21  1  0  0  0  0
 21 22  1  0  0  0  0
 21 41  1  0  0  0  0
 21 42  1  0  0  0  0
 22 43  1  0  0  0  0
 22 44  1  0  0  0  0
M  END
> <s_m_source_file>
AV-unprocessed.smi

> <i_m_source_file_index>
1932

> <i_lp_mmshare_version>
43012

> <i_f3d_flags>
0

> <s_epik_input>
W0NIM11DKD1PKU4oW0NIM10pW0NIMl1DKD1PKVtOSF1bQ0gyXWMxW2NIXVtjSF1bY0hdbmMxTjJbQ0gyXVtDSDJdT1tDSDJdW0NIMl0y

> <s_epik_cmdline>
J2VwaWtfcHl0aG9uJywgJy1waCcsICc3LjAnLCAnLXRuJywgJzgnLCAnLW1hJywgJzIwMCcsICctbWV0YWxfYmluZGluZycsICctaW1hZScsICc8aW5maWxlLm1hZT4nLCAnLW9tYWUnLCAnPG91dGZpbGUubWFlPic=

> <r_lp_tautomer_probability>
1

> <r_epik_Ionization_Penalty>
0.00462916

> <r_epik_Ionization_Penalty_Charging>
0

> <r_epik_Ionization_Penalty_Neutral>
0.00462916

> <r_epik_State_Penalty>
0.00334737

> <r_epik_Charging_Adjusted_Penalty>
0.00334737

> <i_epik_Tot_Q>
0

> <i_epik_Tot_abs_Q>
0

> <r_epik_Metal_State_Penalty>
-0

> <b_epik_Metal_Only>
0

> <s_lp_Force_Field>
OPLS_2005

> <r_lp_Energy>
20.2877

> <b_lp_Chiralities_Consistent>
1

> <s_lp_Variant>
AV-unprocessed.smi:1932-1

> <Gold.Version>
5.8.1

> <Gold.Id.Protein>
6NUR|6NUR_protein|mol2

> <Gold.PLP.Fitness>
44.6486

> <Gold.PLP.PLP>
-40.0714

> <Gold.PLP.part.hbond>
-1.0000

> <Gold.PLP.part.metal>
0.0000

> <Gold.PLP.part.buried>
-7.8262

> <Gold.PLP.part.nonpolar>
-34.2841

> <Gold.PLP.part.repulsive>
1.6153

> <Gold.PLP.ligand.clash>
0.0624

> <Gold.PLP.ligand.torsion>
0.7584

> <Gold.PLP.Chemscore.Hbond>
1.0000

> <Gold.PLP.Chemscore.CHOScore>
0.9869

> <Gold.PLP.Chemscore.Metal>
0.0000

> <Gold.Chemscore.Hbonds>
donor molecule, donor type, donor heavy atom, donor atom, acceptor molecule, acceptor atom, score
      P1  H 10752 10764       L1    20  0.68
      L1  C    14    36       P1 10175  0.73

> <Gold.PLP.Chemscore.Internal.Correction>
0.1957

> <Gold.Rescore>
     Score         DG    S(hbond)    S(metal)    S(lipo)     H(rot)  DE(clash)    DE(int)     intcor
      7.47      -9.57       0.00        0.00      78.53       2.00       0.11       1.99       ----

> <Gold.Chemscore.Fitness>
7.4665

> <Gold.Chemscore.DG>
-9.5675

> <Gold.Chemscore.ZeroCoef>
-5.4800

> <Gold.Chemscore.Hbond>
0.0026

> <Gold.Chemscore.Metal>
0.0000

> <Gold.Chemscore.Lipo>
78.5252

> <Gold.Chemscore.Internal_Hbond>
0.0000

> <Gold.Chemscore.DEClash>
0.1144

> <Gold.Chemscore.DEInternal>
1.9866

> <Gold.Chemscore.Rot>
1.9956

> <Gold.Chemscore.Internal.Correction>
   9.000000E+99

> <Gold.Chemscore.Hbonds>
donor molecule, donor type, donor heavy atom, donor atom, acceptor molecule, acceptor atom, score
      L1  H     9    31       P1  8028  0.01
      P1  H 10752 10764       L1    20  0.04

> <Gold.Chemscore.Hbond.Weighted>
-0.0087

> <Gold.Chemscore.Metal.Weighted>
-0.0000

> <Gold.Chemscore.Lipo.Weighted>
-9.1875

> <Gold.Chemscore.Internal_Hbond.Weighted>
0.0000

> <Gold.Chemscore.DEClash.Weighted>
0.1144

> <Gold.Chemscore.DEInternal.Weighted>
1.9866

> <Gold.Chemscore.Rot.Weighted>
5.1087

> <Gold.Chemscore.Internal.Correction.Weighted>
   9.000000E+99

> <Gold.Protein.RotatedTorsions>
[ 6907 6896 6895 6894 ] final  -49.25 input  -60.11 | X-H torsion
[ 7974 7965 7964 7962 ] final -102.97 input  175.53 | X-H torsion
[ 8008 7997 7996 7995 ] final   64.86 input   59.86 | X-H torsion
[ 10167 10162 10161 10158 ] final  127.24 input  -65.29 | X-H torsion
[ 10718 10713 10712 10709 ] final  -19.67 input   66.30 | X-H torsion
[ 10763 10752 10751 10750 ] final  -55.12 input  -60.55 | X-H torsion
[ 11005 11000 10999 10996 ] final  148.70 input  -57.11 | X-H torsion

> <Gold.Protein.ActiveResidues>
 VAL166  LYS551  ARG553  GLY616  TRP617  ASP618  TYR619  PRO620  LYS621  CYS622 
 ASP623  PHE694  ASN695  SER759  ASP760  ASP761  ALA762  ILE779  LEU786  VAL792 
 PHE793  MET794  SER795  GLU796  ALA797  LYS798  CYS799  TRP800  GLU811  SER814 

> <Gold.Protein.RotatedAtoms>
  150.8824  134.8216  159.7234 H   0  0  0  0  0  0  0  0  0  0  0  0  # atno 6907 bound_to 6896
  152.4786  134.4776  159.9665 H   0  0  0  0  0  0  0  0  0  0  0  0  # atno 6908 bound_to 6896
  151.4849  133.3499  159.2879 H   0  0  0  0  0  0  0  0  0  0  0  0  # atno 6909 bound_to 6896
  145.2618  140.9271  143.3036 H   0  0  0  0  0  0  0  0  0  0  0  0  # atno 7974 bound_to 7965
  155.6527  140.3497  155.4754 H   0  0  0  0  0  0  0  0  0  0  0  0  # atno 8008 bound_to 7997
  155.9834  140.1179  157.0729 H   0  0  0  0  0  0  0  0  0  0  0  0  # atno 8009 bound_to 7997
  154.4198  140.1134  156.5453 H   0  0  0  0  0  0  0  0  0  0  0  0  # atno 8010 bound_to 7997
  139.5588  144.6868  151.4102 H   0  0  0  0  0  0  0  0  0  0  0  0  # atno 10167 bound_to 10162
  156.5424  130.4681  149.6492 H   0  0  0  0  0  0  0  0  0  0  0  0  # atno 10718 bound_to 10713
  154.1857  135.6436  153.5046 H   0  0  0  0  0  0  0  0  0  0  0  0  # atno 10763 bound_to 10752
  153.0048  135.5416  154.6468 H   0  0  0  0  0  0  0  0  0  0  0  0  # atno 10764 bound_to 10752
  154.5844  135.2928  155.0673 H   0  0  0  0  0  0  0  0  0  0  0  0  # atno 10765 bound_to 10752
  140.0982  134.9000  157.1755 H   0  0  0  0  0  0  0  0  0  0  0  0  # atno 11005 bound_to 11000
  144.9411  139.4188  143.6448 LP  0  0  0  0  0  0  0  0  0  0  0  0  # atno 17320 bound_to 7965
  146.3273  139.8372  142.8897 LP  0  0  0  0  0  0  0  0  0  0  0  0  # atno 17321 bound_to 7965
  140.6865  143.7960  150.7194 LP  0  0  0  0  0  0  0  0  0  0  0  0  # atno 17342 bound_to 10162
  140.1430  143.4424  152.2181 LP  0  0  0  0  0  0  0  0  0  0  0  0  # atno 17343 bound_to 10162
  156.2959  130.7150  151.2010 LP  0  0  0  0  0  0  0  0  0  0  0  0  # atno 17370 bound_to 10713
  157.7403  131.0519  150.5176 LP  0  0  0  0  0  0  0  0  0  0  0  0  # atno 17371 bound_to 10713
  140.3257  134.2866  155.7237 LP  0  0  0  0  0  0  0  0  0  0  0  0  # atno 17394 bound_to 11000
  141.2098  133.7738  156.9973 LP  0  0  0  0  0  0  0  0  0  0  0  0  # atno 17395 bound_to 11000

$$$$
