AV-unprocessed.smi:570|AV-procd|sdf|2962|dock6
  -GOLD-   2262023463D 1   1.00000     0.00000
 Structure written by MMmdl.
 39 40  0  0  0  0  0  0  0  0  2 V2000
  156.8783  135.8016  151.8630 C   0  0  0  0  0  0  0  0  0  0  0  0
  156.4634  136.1730  153.1654 O   0  0  0  0  0  0  0  0  0  0  0  0
  156.7240  137.5405  153.4532 C   0  0  0  0  0  0  0  0  0  0  0  0
  155.7551  138.0751  154.5286 C   0  0  0  0  0  0  0  0  0  0  0  0
  154.4097  138.6090  153.9943 C   0  0  0  0  0  0  0  0  0  0  0  0
  153.6420  139.1931  155.0901 N   0  5  0  0  0  0  0  0  0  0  0  0
  152.2781  139.1916  155.1554 C   0  0  0  0  0  0  0  0  0  0  0  0
  151.4554  139.1778  154.2328 O   0  0  0  0  0  0  0  0  0  0  0  0
  151.7666  139.2065  156.5795 C   0  0  0  0  0  0  0  0  0  0  0  0
  152.4930  139.8855  157.5042 N   0  0  0  0  0  0  0  0  0  0  0  0
  152.0776  139.9058  158.7743 C   0  0  0  0  0  0  0  0  0  0  0  0
  152.8507  140.6224  159.6973 N   0  0  0  0  0  0  0  0  0  0  0  0
  154.2410  140.2650  159.9890 C   0  0  0  0  0  0  0  0  0  0  0  0
  154.5995  140.6086  161.4448 C   0  0  0  0  0  0  0  0  0  0  0  0
  154.3284  141.9818  161.6963 O   0  0  0  0  0  0  0  0  0  0  0  0
  152.9473  142.2791  161.5310 C   0  0  0  0  0  0  0  0  0  0  0  0
  152.5217  141.9979  160.0801 C   0  0  0  0  0  0  0  0  0  0  0  0
  150.9785  139.2925  159.2273 N   0  0  0  0  0  0  0  0  0  0  0  0
  150.2325  138.6112  158.3339 C   0  0  0  0  0  0  0  0  0  0  0  0
  150.5788  138.5310  156.9715 C   0  0  0  0  0  0  0  0  0  0  0  0
  149.5439  137.6667  155.8854 Cl  0  0  0  0  0  0  0  0  0  0  0  0
  156.6541  134.7485  151.6937 H   0  0  0  0  0  0  0  0  0  0  0  0
  157.9525  135.9418  151.7359 H   0  0  0  0  0  0  0  0  0  0  0  0
  156.3563  136.3833  151.1021 H   0  0  0  0  0  0  0  0  0  0  0  0
  157.7438  137.6257  153.8313 H   0  0  0  0  0  0  0  0  0  0  0  0
  156.6808  138.1413  152.5417 H   0  0  0  0  0  0  0  0  0  0  0  0
  155.5747  137.2902  155.2645 H   0  0  0  0  0  0  0  0  0  0  0  0
  156.2574  138.8804  155.0664 H   0  0  0  0  0  0  0  0  0  0  0  0
  154.6051  139.3406  153.2094 H   0  0  0  0  0  0  0  0  0  0  0  0
  153.8713  137.7913  153.5136 H   0  0  0  0  0  0  0  0  0  0  0  0
  154.4365  139.2052  159.8299 H   0  0  0  0  0  0  0  0  0  0  0  0
  154.8909  140.8117  159.3050 H   0  0  0  0  0  0  0  0  0  0  0  0
  154.0410  139.9812  162.1415 H   0  0  0  0  0  0  0  0  0  0  0  0
  155.6577  140.4186  161.6245 H   0  0  0  0  0  0  0  0  0  0  0  0
  152.3495  141.6932  162.2312 H   0  0  0  0  0  0  0  0  0  0  0  0
  152.7797  143.3288  161.7718 H   0  0  0  0  0  0  0  0  0  0  0  0
  153.0311  142.6811  159.3996 H   0  0  0  0  0  0  0  0  0  0  0  0
  151.4544  142.2027  159.9949 H   0  0  0  0  0  0  0  0  0  0  0  0
  149.3429  138.1296  158.7118 H   0  0  0  0  0  0  0  0  0  0  0  0
  1  2  1  0  0  0  0
  1 22  1  0  0  0  0
  1 23  1  0  0  0  0
  1 24  1  0  0  0  0
  2  3  1  0  0  0  0
  3  4  1  0  0  0  0
  3 25  1  0  0  0  0
  3 26  1  0  0  0  0
  4  5  1  0  0  0  0
  4 27  1  0  0  0  0
  4 28  1  0  0  0  0
  5  6  1  0  0  0  0
  5 29  1  0  0  0  0
  5 30  1  0  0  0  0
  6  7  1  0  0  0  0
  7  8  2  0  0  0  0
  7  9  1  0  0  0  0
  9 20  1  0  0  0  0
  9 10  2  0  0  0  0
 10 11  1  0  0  0  0
 11 12  1  0  0  0  0
 11 18  2  0  0  0  0
 12 17  1  0  0  0  0
 12 13  1  0  0  0  0
 13 14  1  0  0  0  0
 13 31  1  0  0  0  0
 13 32  1  0  0  0  0
 14 15  1  0  0  0  0
 14 33  1  0  0  0  0
 14 34  1  0  0  0  0
 15 16  1  0  0  0  0
 16 17  1  0  0  0  0
 16 35  1  0  0  0  0
 16 36  1  0  0  0  0
 17 37  1  0  0  0  0
 17 38  1  0  0  0  0
 18 19  1  0  0  0  0
 19 20  2  0  0  0  0
 19 39  1  0  0  0  0
 20 21  1  0  0  0  0
M  CHG  1   6  -1
M  END
> <s_m_source_file>
AV-unprocessed.smi

> <i_m_source_file_index>
570

> <i_lp_mmshare_version>
43012

> <i_f3d_flags>
0

> <s_epik_input>
W0NIM11PW0NIMl1bQ0gyXVtDSDJdW05IXUMoPU8pYzFuYyhuW2NIXWMxQ2wpTjJbQ0gyXVtDSDJdT1tDSDJdW0NIMl0y

> <s_epik_cmdline>
J2VwaWtfcHl0aG9uJywgJy1waCcsICc3LjAnLCAnLXRuJywgJzgnLCAnLW1hJywgJzIwMCcsICctbWV0YWxfYmluZGluZycsICctaW1hZScsICc8aW5maWxlLm1hZT4nLCAnLW9tYWUnLCAnPG91dGZpbGUubWFlPic=

> <r_lp_tautomer_probability>
1

> <r_epik_Ionization_Penalty>
6.0123

> <r_epik_Ionization_Penalty_Charging>
6.01228

> <r_epik_Ionization_Penalty_Neutral>
2.47988e-05

> <r_epik_State_Penalty>
6.01226

> <r_epik_Charging_Adjusted_Penalty>
12.0245

> <i_epik_Tot_Q>
-1

> <i_epik_Tot_abs_Q>
1

> <r_epik_Metal_State_Penalty>
1.96418

> <b_epik_Metal_Only>
1

> <s_lp_Force_Field>
OPLS_2005

> <r_lp_Energy>
20.8632

> <b_lp_Chiralities_Consistent>
1

> <s_lp_Variant>
AV-unprocessed.smi:570-2

> <Gold.Version>
5.8.1

> <Gold.Id.Protein>
6NUR|6NUR_protein|mol2

> <Gold.PLP.Fitness>
40.7260

> <Gold.PLP.PLP>
-33.3529

> <Gold.PLP.part.hbond>
-5.4155

> <Gold.PLP.part.metal>
0.0000

> <Gold.PLP.part.buried>
2.0086

> <Gold.PLP.part.nonpolar>
-29.6469

> <Gold.PLP.part.repulsive>
0.1983

> <Gold.PLP.ligand.clash>
0.0000

> <Gold.PLP.ligand.torsion>
2.4536

> <Gold.PLP.Chemscore.Hbond>
4.0000

> <Gold.PLP.Chemscore.CHOScore>
0.0000

> <Gold.PLP.Chemscore.Metal>
0.0000

> <Gold.Chemscore.Hbonds>
donor molecule, donor type, donor heavy atom, donor atom, acceptor molecule, acceptor atom, score
      P1  H  7989  7998       L1     8  1.00
      P1  H  7997  8010       L1     6  1.98
      P1  H 10752 10764       L1     2  1.00

> <Gold.PLP.Chemscore.Internal.Correction>
0.2802

> <Gold.Rescore>
     Score         DG    S(hbond)    S(metal)    S(lipo)     H(rot)  DE(clash)    DE(int)     intcor
     14.29     -20.08       2.37        0.00      91.93       1.59       2.04       3.76       ----

> <Gold.Chemscore.Fitness>
14.2876

> <Gold.Chemscore.DG>
-20.0816

> <Gold.Chemscore.ZeroCoef>
-5.4800

> <Gold.Chemscore.Hbond>
2.3739

> <Gold.Chemscore.Metal>
0.0000

> <Gold.Chemscore.Lipo>
91.9284

> <Gold.Chemscore.Internal_Hbond>
0.0000

> <Gold.Chemscore.DEClash>
2.0368

> <Gold.Chemscore.DEInternal>
3.7572

> <Gold.Chemscore.Rot>
1.5949

> <Gold.Chemscore.Internal.Correction>
   9.000000E+99

> <Gold.Chemscore.Hbonds>
donor molecule, donor type, donor heavy atom, donor atom, acceptor molecule, acceptor atom, score
      P1  H  7989  7998       L1     8  0.39
      P1  H  7997  8010       L1     6  0.77
      P1  H 10752 10764       L1     2  0.87

> <Gold.Chemscore.Hbond.Weighted>
-7.9289

> <Gold.Chemscore.Metal.Weighted>
-0.0000

> <Gold.Chemscore.Lipo.Weighted>
-10.7556

> <Gold.Chemscore.Internal_Hbond.Weighted>
0.0000

> <Gold.Chemscore.DEClash.Weighted>
2.0368

> <Gold.Chemscore.DEInternal.Weighted>
3.7572

> <Gold.Chemscore.Rot.Weighted>
4.0830

> <Gold.Chemscore.Internal.Correction.Weighted>
   9.000000E+99

> <Gold.Protein.RotatedTorsions>
[ 6907 6896 6895 6894 ] final   37.29 input  -60.11 | X-H torsion
[ 7974 7965 7964 7962 ] final   15.80 input  175.53 | X-H torsion
[ 8008 7997 7996 7995 ] final   95.28 input   59.86 | X-H torsion
[ 10167 10162 10161 10158 ] final  165.55 input  -65.29 | X-H torsion
[ 10718 10713 10712 10709 ] final -172.78 input   66.30 | X-H torsion
[ 10763 10752 10751 10750 ] final  138.45 input  -60.55 | X-H torsion
[ 11005 11000 10999 10996 ] final   22.59 input  -57.11 | X-H torsion

> <Gold.Protein.ActiveResidues>
 VAL166  LYS551  ARG553  GLY616  TRP617  ASP618  TYR619  PRO620  LYS621  CYS622 
 ASP623  PHE694  ASN695  SER759  ASP760  ASP761  ALA762  ILE779  LEU786  VAL792 
 PHE793  MET794  SER795  GLU796  ALA797  LYS798  CYS799  TRP800  GLU811  SER814 

> <Gold.Protein.RotatedAtoms>
  152.1412  134.9061  160.0553 H   0  0  0  0  0  0  0  0  0  0  0  0  # atno 6907 bound_to 6896
  152.0128  133.3863  159.4235 H   0  0  0  0  0  0  0  0  0  0  0  0  # atno 6908 bound_to 6896
  150.6865  134.3633  159.5004 H   0  0  0  0  0  0  0  0  0  0  0  0  # atno 6909 bound_to 6896
  146.2268  139.8841  142.8566 H   0  0  0  0  0  0  0  0  0  0  0  0  # atno 7974 bound_to 7965
  156.0672  140.3288  155.7531 H   0  0  0  0  0  0  0  0  0  0  0  0  # atno 8008 bound_to 7997
  155.5363  140.0598  157.2896 H   0  0  0  0  0  0  0  0  0  0  0  0  # atno 8009 bound_to 7997
  154.4511  140.1918  156.0534 H   0  0  0  0  0  0  0  0  0  0  0  0  # atno 8010 bound_to 7997
  139.4908  144.4121  151.9287 H   0  0  0  0  0  0  0  0  0  0  0  0  # atno 10167 bound_to 10162
  156.7607  130.9412  151.3118 H   0  0  0  0  0  0  0  0  0  0  0  0  # atno 10718 bound_to 10713
  153.8898  135.3034  155.3447 H   0  0  0  0  0  0  0  0  0  0  0  0  # atno 10763 bound_to 10752
  154.7722  135.4880  153.9674 H   0  0  0  0  0  0  0  0  0  0  0  0  # atno 10764 bound_to 10752
  153.1304  135.6802  153.9286 H   0  0  0  0  0  0  0  0  0  0  0  0  # atno 10765 bound_to 10752
  140.3789  134.1942  155.7664 H   0  0  0  0  0  0  0  0  0  0  0  0  # atno 11005 bound_to 11000
  145.2483  141.0035  143.3896 LP  0  0  0  0  0  0  0  0  0  0  0  0  # atno 17320 bound_to 7965
  144.9395  139.4205  143.6456 LP  0  0  0  0  0  0  0  0  0  0  0  0  # atno 17321 bound_to 7965
  140.3562  144.3028  150.5941 LP  0  0  0  0  0  0  0  0  0  0  0  0  # atno 17342 bound_to 10162
  140.5442  143.2218  151.8034 LP  0  0  0  0  0  0  0  0  0  0  0  0  # atno 17343 bound_to 10162
  157.6736  130.9073  150.0097 LP  0  0  0  0  0  0  0  0  0  0  0  0  # atno 17370 bound_to 10713
  156.1341  130.3643  149.9685 LP  0  0  0  0  0  0  0  0  0  0  0  0  # atno 17371 bound_to 10713
  141.1930  133.8160  157.0816 LP  0  0  0  0  0  0  0  0  0  0  0  0  # atno 17394 bound_to 11000
  140.0494  134.9813  157.1108 LP  0  0  0  0  0  0  0  0  0  0  0  0  # atno 17395 bound_to 11000

$$$$
