AV-unprocessed.smi:3169|AV-procd|sdf|12104|dock7
  -GOLD-   2272017543D 1   1.00000     0.00000
 Structure written by MMmdl.
 36 37  0  0  0  0  0  0  0  0  2 V2000
  144.9111  136.5121  154.0285 O   0  0  0  0  0  0  0  0  0  0  0  0
  145.9759  136.4243  153.4162 C   0  0  0  0  0  0  0  0  0  0  0  0
  146.5021  135.2669  152.9917 N   0  0  0  0  0  0  0  0  0  0  0  0
  145.8938  133.9570  153.1911 C   0  0  0  0  0  0  0  0  0  0  0  0
  146.3938  132.9397  152.1524 C   0  0  0  0  0  0  0  0  0  0  0  0
  145.4977  132.8624  150.9981 N   0  0  0  0  0  0  0  0  0  0  0  0
  145.7040  132.1783  149.8279 C   0  0  0  0  0  0  0  0  0  0  0  0
  144.6000  132.4020  149.0457 C   0  0  0  0  0  0  0  0  0  0  0  0
  143.7688  133.2137  149.7706 N   0  3  0  0  0  0  0  0  0  0  0  0
  144.3170  133.4932  150.9577 C   0  0  0  0  0  0  0  0  0  0  0  0
  146.7470  137.4713  153.0942 N   0  0  0  0  0  0  0  0  0  0  0  0
  146.4312  138.8630  153.3938 C   0  0  0  0  0  0  0  0  0  0  0  0
  147.6777  139.7562  153.2874 C   0  0  1  0  0  0  0  0  0  0  0  0
  147.4557  141.1837  153.7831 C   0  0  0  0  0  0  0  0  0  0  0  0
  148.8637  141.6022  154.1390 C   0  0  0  0  0  0  0  0  0  0  0  0
  149.4277  140.3170  154.7380 C   0  0  0  0  0  0  0  0  0  0  0  0
  148.7317  139.2474  154.1023 O   0  0  0  0  0  0  0  0  0  0  0  0
  147.3789  135.2956  152.4918 H   0  0  0  0  0  0  0  0  0  0  0  0
  146.0977  133.6036  154.2035 H   0  0  0  0  0  0  0  0  0  0  0  0
  144.8118  134.0677  153.1141 H   0  0  0  0  0  0  0  0  0  0  0  0
  147.3859  133.2126  151.7904 H   0  0  0  0  0  0  0  0  0  0  0  0
  146.4732  131.9412  152.5854 H   0  0  0  0  0  0  0  0  0  0  0  0
  146.5973  131.5991  149.6437 H   0  0  0  0  0  0  0  0  0  0  0  0
  144.3509  132.0543  148.0535 H   0  0  0  0  0  0  0  0  0  0  0  0
  143.8903  134.1076  151.7307 H   0  0  0  0  0  0  0  0  0  0  0  0
  147.6024  137.2989  152.5864 H   0  0  0  0  0  0  0  0  0  0  0  0
  145.6510  139.2214  152.7201 H   0  0  0  0  0  0  0  0  0  0  0  0
  146.0177  138.9147  154.4013 H   0  0  0  0  0  0  0  0  0  0  0  0
  148.0362  139.7933  152.2572 H   0  0  0  0  0  0  0  0  0  0  0  0
  146.9937  141.8271  153.0340 H   0  0  0  0  0  0  0  0  0  0  0  0
  146.8283  141.1909  154.6758 H   0  0  0  0  0  0  0  0  0  0  0  0
  149.4134  141.8701  153.2356 H   0  0  0  0  0  0  0  0  0  0  0  0
  148.9014  142.4470  154.8274 H   0  0  0  0  0  0  0  0  0  0  0  0
  150.5053  140.2316  154.5959 H   0  0  0  0  0  0  0  0  0  0  0  0
  149.2236  140.2736  155.8085 H   0  0  0  0  0  0  0  0  0  0  0  0
  142.8692  133.5555  149.4562 H   0  0  0  0  0  0  0  0  0  0  0  0
  1  2  2  0  0  0  0
  2  3  1  0  0  0  0
  2 11  1  0  0  0  0
  3  4  1  0  0  0  0
  3 18  1  0  0  0  0
  4  5  1  0  0  0  0
  4 19  1  0  0  0  0
  4 20  1  0  0  0  0
  5  6  1  0  0  0  0
  5 21  1  0  0  0  0
  5 22  1  0  0  0  0
  6 10  1  0  0  0  0
  6  7  1  0  0  0  0
  7  8  2  0  0  0  0
  7 23  1  0  0  0  0
  8  9  1  0  0  0  0
  8 24  1  0  0  0  0
  9 10  2  0  0  0  0
  9 36  1  0  0  0  0
 10 25  1  0  0  0  0
 11 12  1  0  0  0  0
 11 26  1  0  0  0  0
 12 13  1  0  0  0  0
 12 27  1  0  0  0  0
 12 28  1  0  0  0  0
 13 17  1  0  0  0  0
 13 14  1  0  0  0  0
 13 29  1  0  0  0  0
 14 15  1  0  0  0  0
 14 30  1  0  0  0  0
 14 31  1  0  0  0  0
 15 16  1  0  0  0  0
 15 32  1  0  0  0  0
 15 33  1  0  0  0  0
 16 17  1  0  0  0  0
 16 34  1  0  0  0  0
 16 35  1  0  0  0  0
M  CHG  1   9   1
M  END
> <s_m_source_file>
AV-unprocessed.smi

> <i_m_source_file_index>
3169

> <i_lp_mmshare_version>
43012

> <i_f3d_flags>
0

> <s_epik_input>
TzFbQ0gyXVtDSDJdW0NIMl1bQ0BIXTFbQ0gyXVtOSF1DKD1PKVtOSF1bQ0gyXVtDSDJdbjJbY0hdW2NIXW5bY0hdMg==

> <s_epik_cmdline>
J2VwaWtfcHl0aG9uJywgJy1waCcsICc3LjAnLCAnLXRuJywgJzgnLCAnLW1hJywgJzIwMCcsICctbWV0YWxfYmluZGluZycsICctaW1hZScsICc8aW5maWxlLm1hZT4nLCAnLW9tYWUnLCAnPG91dGZpbGUubWFlPic=

> <r_lp_tautomer_probability>
1

> <r_epik_Ionization_Penalty>
0.256136

> <r_epik_Ionization_Penalty_Charging>
0

> <r_epik_Ionization_Penalty_Neutral>
0.256136

> <r_epik_State_Penalty>
0.247629

> <r_epik_Charging_Adjusted_Penalty>
0.247629

> <i_epik_Tot_Q>
1

> <i_epik_Tot_abs_Q>
1

> <r_epik_Metal_State_Penalty>
0.537113

> <b_epik_Metal_Only>
0

> <s_lp_Force_Field>
OPLS_2005

> <r_lp_Energy>
16.1594

> <b_lp_Chiralities_Consistent>
1

> <s_lp_Variant>
AV-unprocessed.smi:3169-2

> <Gold.Version>
5.8.1

> <Gold.Id.Protein>
6NUR|6NUR_protein|mol2

> <Gold.PLP.Fitness>
42.2394

> <Gold.PLP.PLP>
-28.7427

> <Gold.PLP.part.hbond>
-3.0000

> <Gold.PLP.part.metal>
0.0000

> <Gold.PLP.part.buried>
-1.0595

> <Gold.PLP.part.nonpolar>
-25.3235

> <Gold.PLP.part.repulsive>
0.3245

> <Gold.PLP.ligand.clash>
0.0000

> <Gold.PLP.ligand.torsion>
0.5910

> <Gold.PLP.Chemscore.Hbond>
3.9825

> <Gold.PLP.Chemscore.CHOScore>
0.9042

> <Gold.PLP.Chemscore.Metal>
0.0000

> <Gold.Chemscore.Hbonds>
donor molecule, donor type, donor heavy atom, donor atom, acceptor molecule, acceptor atom, score
      L1  H     3    18       P1  7948  1.00
      L1  H     9    36       P1 10186  1.89
      L1  H    11    26       P1  7948  1.00
      L1  C     7    23       P1 10747  0.95

> <Gold.PLP.Chemscore.Internal.Correction>
0.0187

> <Gold.Rescore>
     Score         DG    S(hbond)    S(metal)    S(lipo)     H(rot)  DE(clash)    DE(int)     intcor
     16.31     -16.96       2.95        0.00      64.77       2.33       0.06       0.59       ----

> <Gold.Chemscore.Fitness>
16.3066

> <Gold.Chemscore.DG>
-16.9614

> <Gold.Chemscore.ZeroCoef>
-5.4800

> <Gold.Chemscore.Hbond>
2.9535

> <Gold.Chemscore.Metal>
0.0000

> <Gold.Chemscore.Lipo>
64.7739

> <Gold.Chemscore.Internal_Hbond>
0.0000

> <Gold.Chemscore.DEClash>
0.0641

> <Gold.Chemscore.DEInternal>
0.5907

> <Gold.Chemscore.Rot>
2.3288

> <Gold.Chemscore.Internal.Correction>
   9.000000E+99

> <Gold.Chemscore.Hbonds>
donor molecule, donor type, donor heavy atom, donor atom, acceptor molecule, acceptor atom, score
      L1  H     3    18       P1  7948  0.97
      L1  H     9    36       P1 10186  0.89
      L1  H    11    26       P1  7948  0.98

> <Gold.Chemscore.Hbond.Weighted>
-9.8646

> <Gold.Chemscore.Metal.Weighted>
-0.0000

> <Gold.Chemscore.Lipo.Weighted>
-7.5785

> <Gold.Chemscore.Internal_Hbond.Weighted>
0.0000

> <Gold.Chemscore.DEClash.Weighted>
0.0641

> <Gold.Chemscore.DEInternal.Weighted>
0.5907

> <Gold.Chemscore.Rot.Weighted>
5.9617

> <Gold.Chemscore.Internal.Correction.Weighted>
   9.000000E+99

> <Gold.Protein.RotatedTorsions>
[ 6907 6896 6895 6894 ] final   78.26 input  -60.11 | X-H torsion
[ 7974 7965 7964 7962 ] final   74.74 input  175.53 | X-H torsion
[ 8008 7997 7996 7995 ] final -100.80 input   59.86 | X-H torsion
[ 10167 10162 10161 10158 ] final   35.27 input  -65.29 | X-H torsion
[ 10718 10713 10712 10709 ] final  -79.09 input   66.30 | X-H torsion
[ 10763 10752 10751 10750 ] final  166.55 input  -60.55 | X-H torsion
[ 11005 11000 10999 10996 ] final   61.73 input  -57.11 | X-H torsion

> <Gold.Protein.ActiveResidues>
 VAL166  LYS551  ARG553  GLY616  TRP617  ASP618  TYR619  PRO620  LYS621  CYS622 
 ASP623  PHE694  ASN695  SER759  ASP760  ASP761  ALA762  ILE779  LEU786  VAL792 
 PHE793  MET794  SER795  GLU796  ALA797  LYS798  CYS799  TRP800  GLU811  SER814 

> <Gold.Protein.RotatedAtoms>
  152.5152  134.3690  159.9311 H   0  0  0  0  0  0  0  0  0  0  0  0  # atno 6907 bound_to 6896
  151.3644  133.3871  159.2701 H   0  0  0  0  0  0  0  0  0  0  0  0  # atno 6908 bound_to 6896
  150.9626  134.9031  159.7798 H   0  0  0  0  0  0  0  0  0  0  0  0  # atno 6909 bound_to 6896
  145.7244  139.2660  143.1577 H   0  0  0  0  0  0  0  0  0  0  0  0  # atno 7974 bound_to 7965
  154.8337  140.0438  157.1494 H   0  0  0  0  0  0  0  0  0  0  0  0  # atno 8008 bound_to 7997
  154.9124  140.3015  155.5239 H   0  0  0  0  0  0  0  0  0  0  0  0  # atno 8009 bound_to 7997
  156.2988  140.2356  156.4165 H   0  0  0  0  0  0  0  0  0  0  0  0  # atno 8010 bound_to 7997
  140.4237  144.1423  150.6151 H   0  0  0  0  0  0  0  0  0  0  0  0  # atno 10167 bound_to 10162
  156.0101  130.4536  150.3596 H   0  0  0  0  0  0  0  0  0  0  0  0  # atno 10718 bound_to 10713
  154.3407  135.2754  155.2424 H   0  0  0  0  0  0  0  0  0  0  0  0  # atno 10763 bound_to 10752
  154.4696  135.5886  153.6315 H   0  0  0  0  0  0  0  0  0  0  0  0  # atno 10764 bound_to 10752
  152.9858  135.6085  154.3608 H   0  0  0  0  0  0  0  0  0  0  0  0  # atno 10765 bound_to 10752
  140.0141  134.6252  155.9737 H   0  0  0  0  0  0  0  0  0  0  0  0  # atno 11005 bound_to 11000
  146.0596  140.7985  142.9741 LP  0  0  0  0  0  0  0  0  0  0  0  0  # atno 17320 bound_to 7965
  144.6908  140.3176  143.7238 LP  0  0  0  0  0  0  0  0  0  0  0  0  # atno 17321 bound_to 7965
  140.4505  143.2489  151.9354 LP  0  0  0  0  0  0  0  0  0  0  0  0  # atno 17342 bound_to 10162
  139.4783  144.5567  151.8303 LP  0  0  0  0  0  0  0  0  0  0  0  0  # atno 17343 bound_to 10162
  157.1685  131.0363  151.2807 LP  0  0  0  0  0  0  0  0  0  0  0  0  # atno 17370 bound_to 10713
  157.4250  130.7458  149.6943 LP  0  0  0  0  0  0  0  0  0  0  0  0  # atno 17371 bound_to 10713
  141.1730  133.6538  156.4724 LP  0  0  0  0  0  0  0  0  0  0  0  0  # atno 17394 bound_to 11000
  140.4503  134.6935  157.5036 LP  0  0  0  0  0  0  0  0  0  0  0  0  # atno 17395 bound_to 11000

$$$$
