AV-unprocessed.smi:2481|AV-procd|sdf|9774|dock8
  -GOLD-   2272013413D 1   1.00000     0.00000
 Structure written by MMmdl.
 37 38  0  0  0  0  0  0  0  0  1 V2000
  153.1951  138.7180  154.7683 C   0  0  0  0  0  0  0  0  0  0  0  0
  151.9149  138.0685  154.9741 N   0  0  0  0  0  0  0  0  0  0  0  0
  151.6874  136.8154  154.5151 N   0  0  0  0  0  0  0  0  0  0  0  0
  150.4314  136.5858  154.8990 C   0  0  0  0  0  0  0  0  0  0  0  0
  149.8178  137.5997  155.5783 N   0  0  0  0  0  0  0  0  0  0  0  0
  150.8051  138.4899  155.5874 C   0  0  0  0  0  0  0  0  0  0  0  0
  150.7610  139.7843  156.1710 N   0  0  0  0  0  0  0  0  0  0  0  0
  151.7002  140.3815  156.9237 C   0  0  0  0  0  0  0  0  0  0  0  0
  152.7868  139.8886  157.2273 O   0  0  0  0  0  0  0  0  0  0  0  0
  151.3049  141.6030  157.3102 N   0  0  0  0  0  0  0  0  0  0  0  0
  152.0804  142.5243  158.1392 C   0  0  1  0  0  0  0  0  0  0  0  0
  151.5598  143.9612  157.9235 C   0  0  0  0  0  0  0  0  0  0  0  0
  152.2865  144.9727  158.8196 C   0  0  0  0  0  0  0  0  0  0  0  0
  152.1800  144.5695  160.2952 C   0  0  0  0  0  0  0  0  0  0  0  0
  152.7227  143.1504  160.5169 C   0  0  0  0  0  0  0  0  0  0  0  0
  152.0039  142.1066  159.6316 C   0  0  2  0  0  0  0  0  0  0  0  0
  152.5743  140.6902  159.8701 C   0  0  0  0  0  0  0  0  0  0  0  0
  153.9578  140.6502  159.5879 O   0  0  0  0  0  0  0  0  0  0  0  0
  153.0422  139.6950  154.3088 H   0  0  0  0  0  0  0  0  0  0  0  0
  153.8296  138.1170  154.1154 H   0  0  0  0  0  0  0  0  0  0  0  0
  153.6962  138.8490  155.7277 H   0  0  0  0  0  0  0  0  0  0  0  0
  149.9378  135.6502  154.6810 H   0  0  0  0  0  0  0  0  0  0  0  0
  149.9191  140.3124  155.9961 H   0  0  0  0  0  0  0  0  0  0  0  0
  150.3961  141.9242  157.0097 H   0  0  0  0  0  0  0  0  0  0  0  0
  153.1285  142.4867  157.8349 H   0  0  0  0  0  0  0  0  0  0  0  0
  151.6804  144.2511  156.8790 H   0  0  0  0  0  0  0  0  0  0  0  0
  150.4896  144.0008  158.1318 H   0  0  0  0  0  0  0  0  0  0  0  0
  153.3363  145.0331  158.5294 H   0  0  0  0  0  0  0  0  0  0  0  0
  151.8663  145.9684  158.6742 H   0  0  0  0  0  0  0  0  0  0  0  0
  152.7296  145.2788  160.9148 H   0  0  0  0  0  0  0  0  0  0  0  0
  151.1388  144.6190  160.6165 H   0  0  0  0  0  0  0  0  0  0  0  0
  153.7929  143.1363  160.3060 H   0  0  0  0  0  0  0  0  0  0  0  0
  152.6154  142.8909  161.5705 H   0  0  0  0  0  0  0  0  0  0  0  0
  150.9504  142.0952  159.9175 H   0  0  0  0  0  0  0  0  0  0  0  0
  152.4457  140.3800  160.9069 H   0  0  0  0  0  0  0  0  0  0  0  0
  152.0577  139.9554  159.2517 H   0  0  0  0  0  0  0  0  0  0  0  0
  154.3439  141.4690  159.8593 H   0  0  0  0  0  0  0  0  0  0  0  0
  1  2  1  0  0  0  0
  1 19  1  0  0  0  0
  1 20  1  0  0  0  0
  1 21  1  0  0  0  0
  2  6  1  0  0  0  0
  2  3  1  0  0  0  0
  3  4  2  0  0  0  0
  4  5  1  0  0  0  0
  4 22  1  0  0  0  0
  5  6  2  0  0  0  0
  6  7  1  0  0  0  0
  7  8  1  0  0  0  0
  7 23  1  0  0  0  0
  8  9  2  0  0  0  0
  8 10  1  0  0  0  0
 10 11  1  0  0  0  0
 10 24  1  0  0  0  0
 11 16  1  0  0  0  0
 11 12  1  0  0  0  0
 11 25  1  0  0  0  0
 12 13  1  0  0  0  0
 12 26  1  0  0  0  0
 12 27  1  0  0  0  0
 13 14  1  0  0  0  0
 13 28  1  0  0  0  0
 13 29  1  0  0  0  0
 14 15  1  0  0  0  0
 14 30  1  0  0  0  0
 14 31  1  0  0  0  0
 15 16  1  0  0  0  0
 15 32  1  0  0  0  0
 15 33  1  0  0  0  0
 16 17  1  0  0  0  0
 16 34  1  0  0  0  0
 17 18  1  0  0  0  0
 17 35  1  0  0  0  0
 17 36  1  0  0  0  0
 18 37  1  0  0  0  0
M  END
> <s_m_source_file>
AV-unprocessed.smi

> <i_m_source_file_index>
2481

> <i_lp_mmshare_version>
43012

> <i_f3d_flags>
0

> <s_epik_input>
W0NIM11uMW5bY0hdbmMxW05IXUMoPU8pW05IXVtDQEBIXTJbQ0gyXVtDSDJdW0NIMl1bQ0gyXVtDQEhdMltDSDJdW09IXQ==

> <s_epik_cmdline>
J2VwaWtfcHl0aG9uJywgJy1waCcsICc3LjAnLCAnLXRuJywgJzgnLCAnLW1hJywgJzIwMCcsICctbWV0YWxfYmluZGluZycsICctaW1hZScsICc8aW5maWxlLm1hZT4nLCAnLW9tYWUnLCAnPG91dGZpbGUubWFlPic=

> <r_lp_tautomer_probability>
1

> <r_epik_Ionization_Penalty>
2.32704e-05

> <r_epik_Ionization_Penalty_Charging>
0

> <r_epik_Ionization_Penalty_Neutral>
2.32704e-05

> <r_epik_State_Penalty>
-0

> <r_epik_Charging_Adjusted_Penalty>
0

> <i_epik_Tot_Q>
0

> <i_epik_Tot_abs_Q>
0

> <r_epik_Metal_State_Penalty>
-0

> <b_epik_Metal_Only>
0

> <s_lp_Force_Field>
OPLS_2005

> <r_lp_Energy>
12.9645

> <b_lp_Chiralities_Consistent>
1

> <s_lp_Variant>
AV-unprocessed.smi:2481-4

> <Gold.Version>
5.8.1

> <Gold.Id.Protein>
6NUR|6NUR_protein|mol2

> <Gold.PLP.Fitness>
41.1231

> <Gold.PLP.PLP>
-36.3941

> <Gold.PLP.part.hbond>
-2.3147

> <Gold.PLP.part.metal>
0.0000

> <Gold.PLP.part.buried>
-4.9248

> <Gold.PLP.part.nonpolar>
-29.5416

> <Gold.PLP.part.repulsive>
0.3502

> <Gold.PLP.ligand.clash>
0.0000

> <Gold.PLP.ligand.torsion>
0.6413

> <Gold.PLP.Chemscore.Hbond>
2.0000

> <Gold.PLP.Chemscore.CHOScore>
0.0000

> <Gold.PLP.Chemscore.Metal>
0.0000

> <Gold.Chemscore.Hbonds>
donor molecule, donor type, donor heavy atom, donor atom, acceptor molecule, acceptor atom, score
      P1  H  7997  8009       L1     9  1.00
      P1  H 10752 10765       L1     3  1.00

> <Gold.PLP.Chemscore.Internal.Correction>
0.0117

> <Gold.Rescore>
     Score         DG    S(hbond)    S(metal)    S(lipo)     H(rot)  DE(clash)    DE(int)     intcor
     13.25     -16.94       1.96        0.00      85.38       1.99       0.42       3.26       ----

> <Gold.Chemscore.Fitness>
13.2538

> <Gold.Chemscore.DG>
-16.9414

> <Gold.Chemscore.ZeroCoef>
-5.4800

> <Gold.Chemscore.Hbond>
1.9644

> <Gold.Chemscore.Metal>
0.0000

> <Gold.Chemscore.Lipo>
85.3755

> <Gold.Chemscore.Internal_Hbond>
0.0000

> <Gold.Chemscore.DEClash>
0.4232

> <Gold.Chemscore.DEInternal>
3.2644

> <Gold.Chemscore.Rot>
1.9877

> <Gold.Chemscore.Internal.Correction>
   9.000000E+99

> <Gold.Chemscore.Hbonds>
donor molecule, donor type, donor heavy atom, donor atom, acceptor molecule, acceptor atom, score
      P1  H  7997  8009       L1     9  0.99
      P1  H 10752 10765       L1     3  0.99

> <Gold.Chemscore.Hbond.Weighted>
-6.5610

> <Gold.Chemscore.Metal.Weighted>
-0.0000

> <Gold.Chemscore.Lipo.Weighted>
-9.9889

> <Gold.Chemscore.Internal_Hbond.Weighted>
0.0000

> <Gold.Chemscore.DEClash.Weighted>
0.4232

> <Gold.Chemscore.DEInternal.Weighted>
3.2644

> <Gold.Chemscore.Rot.Weighted>
5.0885

> <Gold.Chemscore.Internal.Correction.Weighted>
   9.000000E+99

> <Gold.Protein.RotatedTorsions>
[ 6907 6896 6895 6894 ] final  -27.62 input  -60.11 | X-H torsion
[ 7974 7965 7964 7962 ] final -151.22 input  175.53 | X-H torsion
[ 8008 7997 7996 7995 ] final -173.86 input   59.86 | X-H torsion
[ 10167 10162 10161 10158 ] final   28.60 input  -65.29 | X-H torsion
[ 10718 10713 10712 10709 ] final  138.24 input   66.30 | X-H torsion
[ 10763 10752 10751 10750 ] final  157.80 input  -60.55 | X-H torsion
[ 11005 11000 10999 10996 ] final  123.32 input  -57.11 | X-H torsion

> <Gold.Protein.ActiveResidues>
 VAL166  LYS551  ARG553  GLY616  TRP617  ASP618  TYR619  PRO620  LYS621  CYS622 
 ASP623  PHE694  ASN695  SER759  ASP760  ASP761  ALA762  ILE779  LEU786  VAL792 
 PHE793  MET794  SER795  GLU796  ALA797  LYS798  CYS799  TRP800  GLU811  SER814 

> <Gold.Protein.RotatedAtoms>
  151.1444  135.0196  159.8639 H   0  0  0  0  0  0  0  0  0  0  0  0  # atno 6907 bound_to 6896
  152.5453  134.1461  159.8509 H   0  0  0  0  0  0  0  0  0  0  0  0  # atno 6908 bound_to 6896
  151.1540  133.4843  159.2627 H   0  0  0  0  0  0  0  0  0  0  0  0  # atno 6909 bound_to 6896
  144.7862  140.4827  143.5804 H   0  0  0  0  0  0  0  0  0  0  0  0  # atno 7974 bound_to 7965
  155.9628  140.1148  157.0880 H   0  0  0  0  0  0  0  0  0  0  0  0  # atno 8008 bound_to 7997
  154.4136  140.1178  156.5269 H   0  0  0  0  0  0  0  0  0  0  0  0  # atno 8009 bound_to 7997
  155.6698  140.3473  155.4816 H   0  0  0  0  0  0  0  0  0  0  0  0  # atno 8010 bound_to 7997
  140.4839  144.0574  150.6274 H   0  0  0  0  0  0  0  0  0  0  0  0  # atno 10167 bound_to 10162
  157.4274  131.1045  151.0287 H   0  0  0  0  0  0  0  0  0  0  0  0  # atno 10718 bound_to 10713
  154.2060  135.2788  155.2975 H   0  0  0  0  0  0  0  0  0  0  0  0  # atno 10763 bound_to 10752
  154.5817  135.5587  153.7195 H   0  0  0  0  0  0  0  0  0  0  0  0  # atno 10764 bound_to 10752
  153.0076  135.6346  154.2198 H   0  0  0  0  0  0  0  0  0  0  0  0  # atno 10765 bound_to 10752
  139.9307  134.9641  156.8242 H   0  0  0  0  0  0  0  0  0  0  0  0  # atno 11005 bound_to 11000
  145.5915  139.1496  143.3180 LP  0  0  0  0  0  0  0  0  0  0  0  0  # atno 17320 bound_to 7965
  146.2095  140.6040  142.9066 LP  0  0  0  0  0  0  0  0  0  0  0  0  # atno 17321 bound_to 7965
  140.3823  143.2796  152.0156 LP  0  0  0  0  0  0  0  0  0  0  0  0  # atno 17342 bound_to 10162
  139.4838  144.6144  151.7373 LP  0  0  0  0  0  0  0  0  0  0  0  0  # atno 17343 bound_to 10162
  157.1196  130.6056  149.5502 LP  0  0  0  0  0  0  0  0  0  0  0  0  # atno 17370 bound_to 10713
  155.9901  130.4951  150.7243 LP  0  0  0  0  0  0  0  0  0  0  0  0  # atno 17371 bound_to 10713
  140.6209  133.9995  155.7618 LP  0  0  0  0  0  0  0  0  0  0  0  0  # atno 17394 bound_to 11000
  141.0894  133.9939  157.3261 LP  0  0  0  0  0  0  0  0  0  0  0  0  # atno 17395 bound_to 11000

$$$$
