AV-unprocessed.smi:949|AV-procd|sdf|4249|dock5
  -GOLD-   22720 2153D 1   1.00000     0.00000
 Structure written by MMmdl.
 32 33  0  0  0  0  0  0  0  0  1 V2000
  145.4890  135.1503  153.3453 C   0  0  0  0  0  0  0  0  0  0  0  0
  145.8226  133.7082  153.7707 C   0  0  1  0  0  0  0  0  0  0  0  0
  144.9158  132.7681  153.1223 N   0  0  0  0  0  0  0  0  0  0  0  0
  144.9550  132.4931  151.7437 C   0  0  0  0  0  0  0  0  0  0  0  0
  146.0358  131.8191  151.1267 C   0  0  0  0  0  0  0  0  0  0  0  0
  145.9914  131.5884  149.7377 C   0  0  0  0  0  0  0  0  0  0  0  0
  144.9673  131.9774  148.9516 N   0  0  0  0  0  0  0  0  0  0  0  0
  143.9367  132.6201  149.5380 C   0  0  0  0  0  0  0  0  0  0  0  0
  143.8776  132.9021  150.9192 C   0  0  0  0  0  0  0  0  0  0  0  0
  142.7667  133.5731  151.4370 N   0  0  0  0  0  0  0  0  0  0  0  0
  147.2788  133.3385  153.4274 C   0  0  1  0  0  0  0  0  0  0  0  0
  148.3364  133.9957  154.3164 C   0  0  0  0  0  0  0  0  0  0  0  0
  149.5184  133.0426  154.2356 C   0  0  0  0  0  0  0  0  0  0  0  0
  148.9176  131.7526  153.6716 C   0  0  0  0  0  0  0  0  0  0  0  0
  147.5126  131.9616  153.6837 O   0  0  0  0  0  0  0  0  0  0  0  0
  146.1169  135.8739  153.8649 H   0  0  0  0  0  0  0  0  0  0  0  0
  144.4539  135.4083  153.5684 H   0  0  0  0  0  0  0  0  0  0  0  0
  145.6383  135.2899  152.2740 H   0  0  0  0  0  0  0  0  0  0  0  0
  145.7093  133.6209  154.8515 H   0  0  0  0  0  0  0  0  0  0  0  0
  144.1571  132.3895  153.6704 H   0  0  0  0  0  0  0  0  0  0  0  0
  146.8918  131.4745  151.6856 H   0  0  0  0  0  0  0  0  0  0  0  0
  146.8039  131.0757  149.2444 H   0  0  0  0  0  0  0  0  0  0  0  0
  143.1320  132.9186  148.8815 H   0  0  0  0  0  0  0  0  0  0  0  0
  142.6938  133.7902  152.4208 H   0  0  0  0  0  0  0  0  0  0  0  0
  141.9738  133.8057  150.8568 H   0  0  0  0  0  0  0  0  0  0  0  0
  147.4937  133.5480  152.3773 H   0  0  0  0  0  0  0  0  0  0  0  0
  148.5885  135.0070  153.9958 H   0  0  0  0  0  0  0  0  0  0  0  0
  147.9815  134.0481  155.3466 H   0  0  0  0  0  0  0  0  0  0  0  0
  150.2944  133.4255  153.5720 H   0  0  0  0  0  0  0  0  0  0  0  0
  149.9634  132.8872  155.2190 H   0  0  0  0  0  0  0  0  0  0  0  0
  149.2484  131.5924  152.6445 H   0  0  0  0  0  0  0  0  0  0  0  0
  149.1870  130.8734  154.2570 H   0  0  0  0  0  0  0  0  0  0  0  0
  1  2  1  0  0  0  0
  1 16  1  0  0  0  0
  1 17  1  0  0  0  0
  1 18  1  0  0  0  0
  2  3  1  0  0  0  0
  2 11  1  0  0  0  0
  2 19  1  0  0  0  0
  3  4  1  0  0  0  0
  3 20  1  0  0  0  0
  4  9  1  0  0  0  0
  4  5  2  0  0  0  0
  5  6  1  0  0  0  0
  5 21  1  0  0  0  0
  6  7  2  0  0  0  0
  6 22  1  0  0  0  0
  7  8  1  0  0  0  0
  8  9  2  0  0  0  0
  8 23  1  0  0  0  0
  9 10  1  0  0  0  0
 10 24  1  0  0  0  0
 10 25  1  0  0  0  0
 11 15  1  0  0  0  0
 11 12  1  0  0  0  0
 11 26  1  0  0  0  0
 12 13  1  0  0  0  0
 12 27  1  0  0  0  0
 12 28  1  0  0  0  0
 13 14  1  0  0  0  0
 13 29  1  0  0  0  0
 13 30  1  0  0  0  0
 14 15  1  0  0  0  0
 14 31  1  0  0  0  0
 14 32  1  0  0  0  0
M  END
> <s_m_source_file>
AV-unprocessed.smi

> <i_m_source_file_index>
949

> <i_lp_mmshare_version>
43012

> <i_f3d_flags>
0

> <s_epik_input>
TzFbQ0gyXVtDSDJdW0NIMl1bQ0BIXTFbQ0BIXShbQ0gzXSlbTkhdYzJbY0hdW2NIXW5bY0hdYzJbTkgyXQ==

> <s_epik_cmdline>
J2VwaWtfcHl0aG9uJywgJy1waCcsICc3LjAnLCAnLXRuJywgJzgnLCAnLW1hJywgJzIwMCcsICctbWV0YWxfYmluZGluZycsICctaW1hZScsICc8aW5maWxlLm1hZT4nLCAnLW9tYWUnLCAnPG91dGZpbGUubWFlPic=

> <r_epik_Ionization_Penalty>
3.88091

> <r_epik_Ionization_Penalty_Charging>
0

> <r_epik_Ionization_Penalty_Neutral>
3.88091

> <r_epik_State_Penalty>
3.88049

> <r_epik_Charging_Adjusted_Penalty>
3.88049

> <i_epik_Tot_Q>
0

> <i_epik_Tot_abs_Q>
0

> <r_epik_Metal_State_Penalty>
0.313783

> <b_epik_Metal_Only>
1

> <s_lp_Force_Field>
OPLS_2005

> <r_lp_Energy>
24.4145

> <b_lp_Chiralities_Consistent>
1

> <s_lp_Variant>
AV-unprocessed.smi:949-8

> <Gold.Version>
5.8.1

> <Gold.Id.Protein>
6NUR|6NUR_protein|mol2

> <Gold.PLP.Fitness>
37.3203

> <Gold.PLP.PLP>
-27.4859

> <Gold.PLP.part.hbond>
-2.6339

> <Gold.PLP.part.metal>
0.0000

> <Gold.PLP.part.buried>
-3.7898

> <Gold.PLP.part.nonpolar>
-21.7342

> <Gold.PLP.part.repulsive>
0.2809

> <Gold.PLP.ligand.clash>
0.0000

> <Gold.PLP.ligand.torsion>
0.8400

> <Gold.PLP.Chemscore.Hbond>
2.0000

> <Gold.PLP.Chemscore.CHOScore>
1.8291

> <Gold.PLP.Chemscore.Metal>
0.0000

> <Gold.Chemscore.Hbonds>
donor molecule, donor type, donor heavy atom, donor atom, acceptor molecule, acceptor atom, score
      L1  H     3    20       P1 10957  1.00
      L1  H    10    25       P1 10186  1.00
      L1  C     6    22       P1 10747  0.86
      L1  C     8    23       P1 10186  0.59

> <Gold.PLP.Chemscore.Internal.Correction>
0.0271

> <Gold.Rescore>
     Score         DG    S(hbond)    S(metal)    S(lipo)     H(rot)  DE(clash)    DE(int)     intcor
     13.16     -15.50       1.55        0.00      67.91       1.22       0.54       1.79       ----

> <Gold.Chemscore.Fitness>
13.1617

> <Gold.Chemscore.DG>
-15.5001

> <Gold.Chemscore.ZeroCoef>
-5.4800

> <Gold.Chemscore.Hbond>
1.5538

> <Gold.Chemscore.Metal>
0.0000

> <Gold.Chemscore.Lipo>
67.9110

> <Gold.Chemscore.Internal_Hbond>
0.0000

> <Gold.Chemscore.DEClash>
0.5435

> <Gold.Chemscore.DEInternal>
1.7948

> <Gold.Chemscore.Rot>
1.2169

> <Gold.Chemscore.Internal.Correction>
   9.000000E+99

> <Gold.Chemscore.Hbonds>
donor molecule, donor type, donor heavy atom, donor atom, acceptor molecule, acceptor atom, score
      L1  H     3    20       P1 10957  0.25
      L1  H    10    25       P1 10186  0.45

> <Gold.Chemscore.Hbond.Weighted>
-5.1896

> <Gold.Chemscore.Metal.Weighted>
-0.0000

> <Gold.Chemscore.Lipo.Weighted>
-7.9456

> <Gold.Chemscore.Internal_Hbond.Weighted>
0.0000

> <Gold.Chemscore.DEClash.Weighted>
0.5435

> <Gold.Chemscore.DEInternal.Weighted>
1.7948

> <Gold.Chemscore.Rot.Weighted>
3.1152

> <Gold.Chemscore.Internal.Correction.Weighted>
   9.000000E+99

> <Gold.Protein.RotatedTorsions>
[ 6907 6896 6895 6894 ] final    2.28 input  -60.11 | X-H torsion
[ 7974 7965 7964 7962 ] final -118.25 input  175.53 | X-H torsion
[ 8008 7997 7996 7995 ] final  -93.72 input   59.86 | X-H torsion
[ 10167 10162 10161 10158 ] final  -33.29 input  -65.29 | X-H torsion
[ 10718 10713 10712 10709 ] final -133.27 input   66.30 | X-H torsion
[ 10763 10752 10751 10750 ] final  -43.82 input  -60.55 | X-H torsion
[ 11005 11000 10999 10996 ] final -164.56 input  -57.11 | X-H torsion

> <Gold.Protein.ActiveResidues>
 VAL166  LYS551  ARG553  GLY616  TRP617  ASP618  TYR619  PRO620  LYS621  CYS622 
 ASP623  PHE694  ASN695  SER759  ASP760  ASP761  ALA762  ILE779  LEU786  VAL792 
 PHE793  MET794  SER795  GLU796  ALA797  LYS798  CYS799  TRP800  GLU811  SER814 

> <Gold.Protein.RotatedAtoms>
  151.6063  135.1043  160.0070 H   0  0  0  0  0  0  0  0  0  0  0  0  # atno 6907 bound_to 6896
  152.4232  133.7146  159.6509 H   0  0  0  0  0  0  0  0  0  0  0  0  # atno 6908 bound_to 6896
  150.8120  133.8332  159.3200 H   0  0  0  0  0  0  0  0  0  0  0  0  # atno 6909 bound_to 6896
  145.0760  140.8392  143.4067 H   0  0  0  0  0  0  0  0  0  0  0  0  # atno 7974 bound_to 7965
  154.7393  140.0496  157.0796 H   0  0  0  0  0  0  0  0  0  0  0  0  # atno 8008 bound_to 7997
  155.0200  140.3146  155.4778 H   0  0  0  0  0  0  0  0  0  0  0  0  # atno 8009 bound_to 7997
  156.2860  140.2169  156.5317 H   0  0  0  0  0  0  0  0  0  0  0  0  # atno 8010 bound_to 7997
  140.7207  143.3632  151.1923 H   0  0  0  0  0  0  0  0  0  0  0  0  # atno 10167 bound_to 10162
  156.2432  130.7108  151.0978 H   0  0  0  0  0  0  0  0  0  0  0  0  # atno 10718 bound_to 10713
  154.0018  135.6692  153.4759 H   0  0  0  0  0  0  0  0  0  0  0  0  # atno 10763 bound_to 10752
  153.0659  135.5001  154.8194 H   0  0  0  0  0  0  0  0  0  0  0  0  # atno 10764 bound_to 10752
  154.7048  135.3086  154.9250 H   0  0  0  0  0  0  0  0  0  0  0  0  # atno 10765 bound_to 10752
  140.5855  134.5098  157.5185 H   0  0  0  0  0  0  0  0  0  0  0  0  # atno 11005 bound_to 11000
  145.1235  139.2678  143.5576 LP  0  0  0  0  0  0  0  0  0  0  0  0  # atno 17320 bound_to 7965
  146.3530  140.0866  142.8615 LP  0  0  0  0  0  0  0  0  0  0  0  0  # atno 17321 bound_to 7965
  139.7188  143.9257  152.2977 LP  0  0  0  0  0  0  0  0  0  0  0  0  # atno 17342 bound_to 10162
  139.9007  144.6913  150.8668 LP  0  0  0  0  0  0  0  0  0  0  0  0  # atno 17343 bound_to 10162
  157.7184  131.0696  150.6236 LP  0  0  0  0  0  0  0  0  0  0  0  0  # atno 17370 bound_to 10713
  156.6311  130.4432  149.5786 LP  0  0  0  0  0  0  0  0  0  0  0  0  # atno 17371 bound_to 10713
  139.9297  134.7986  156.0965 LP  0  0  0  0  0  0  0  0  0  0  0  0  # atno 17394 bound_to 11000
  141.0968  133.6692  156.2664 LP  0  0  0  0  0  0  0  0  0  0  0  0  # atno 17395 bound_to 11000

$$$$
