AV-unprocessed.smi:99|AV-procd|sdf|881|dock10
  -GOLD-   2262017363D 1   1.00000     0.00000
 Structure written by MMmdl.
 52 55  0  0  0  0  0  0  0  0  2 V2000
  145.5589  138.1610  159.7697 O   0  0  0  0  0  0  0  0  0  0  0  0
  145.9838  137.0069  159.6903 C   0  0  0  0  0  0  0  0  0  0  0  0
  146.0925  136.3281  158.5324 O   0  0  0  0  0  0  0  0  0  0  0  0
  145.8455  136.9691  157.2915 C   0  0  0  0  0  0  0  0  0  0  0  0
  147.1873  137.2229  156.5931 C   0  0  2  0  0  0  0  0  0  0  0  0
  147.7752  138.4215  157.0870 O   0  0  0  0  0  0  0  0  0  0  0  0
  148.6529  138.9549  156.1328 C   0  0  1  0  0  0  0  0  0  0  0  0
  150.0762  138.8541  156.6472 N   0  0  0  0  0  0  0  0  0  0  0  0
  150.3679  138.2449  157.8568 C   0  0  0  0  0  0  0  0  0  0  0  0
  151.6354  138.1559  158.3097 C   0  0  0  0  0  0  0  0  0  0  0  0
  152.7236  138.7125  157.5110 C   0  0  0  0  0  0  0  0  0  0  0  0
  153.8747  138.6314  157.9351 O   0  0  0  0  0  0  0  0  0  0  0  0
  152.4109  139.3012  156.3206 N   0  5  0  0  0  0  0  0  0  0  0  0
  151.1298  139.3890  155.8575 C   0  0  0  0  0  0  0  0  0  0  0  0
  150.8356  139.9073  154.7799 O   0  0  0  0  0  0  0  0  0  0  0  0
  148.4264  138.1797  154.8116 C   0  0  1  0  0  0  0  0  0  0  0  0
  149.4400  137.2189  154.5528 O   0  0  0  0  0  0  0  0  0  0  0  0
  147.0886  137.5138  155.0966 C   0  0  1  0  0  0  0  0  0  0  0  0
  146.8732  136.3673  154.2770 O   0  0  0  0  0  0  0  0  0  0  0  0
  145.6380  136.0384  153.8395 C   0  0  0  0  0  0  0  0  0  0  0  0
  144.6056  136.6029  154.2063 O   0  0  0  0  0  0  0  0  0  0  0  0
  145.6491  134.8836  152.8973 C   0  0  0  0  0  0  0  0  0  0  0  0
  146.5786  133.8364  153.0968 C   0  0  0  0  0  0  0  0  0  0  0  0
  146.6318  132.7463  152.2070 C   0  0  0  0  0  0  0  0  0  0  0  0
  145.7533  132.6879  151.1098 C   0  0  0  0  0  0  0  0  0  0  0  0
  144.8200  133.7205  150.9042 C   0  0  0  0  0  0  0  0  0  0  0  0
  144.7672  134.8134  151.7911 C   0  0  0  0  0  0  0  0  0  0  0  0
  146.4088  136.1994  160.8702 C   0  0  0  0  0  0  0  0  0  0  0  0
  146.7622  136.8573  162.0711 C   0  0  0  0  0  0  0  0  0  0  0  0
  147.1430  136.1186  163.2082 C   0  0  0  0  0  0  0  0  0  0  0  0
  147.1762  134.7128  163.1580 C   0  0  0  0  0  0  0  0  0  0  0  0
  146.8314  134.0465  161.9682 C   0  0  0  0  0  0  0  0  0  0  0  0
  146.4521  134.7837  160.8299 C   0  0  0  0  0  0  0  0  0  0  0  0
  145.2011  136.3641  156.6519 H   0  0  0  0  0  0  0  0  0  0  0  0
  145.3318  137.9123  157.4802 H   0  0  0  0  0  0  0  0  0  0  0  0
  147.8753  136.3961  156.7785 H   0  0  0  0  0  0  0  0  0  0  0  0
  148.4373  140.0216  156.0525 H   0  0  0  0  0  0  0  0  0  0  0  0
  149.5784  137.8253  158.4607 H   0  0  0  0  0  0  0  0  0  0  0  0
  151.8450  137.6767  159.2548 H   0  0  0  0  0  0  0  0  0  0  0  0
  148.3691  138.8738  153.9728 H   0  0  0  0  0  0  0  0  0  0  0  0
  149.4138  136.9969  153.6348 H   0  0  0  0  0  0  0  0  0  0  0  0
  146.3111  138.2630  154.9390 H   0  0  0  0  0  0  0  0  0  0  0  0
  147.2690  133.8638  153.9276 H   0  0  0  0  0  0  0  0  0  0  0  0
  147.3504  131.9557  152.3652 H   0  0  0  0  0  0  0  0  0  0  0  0
  145.7953  131.8525  150.4268 H   0  0  0  0  0  0  0  0  0  0  0  0
  144.1446  133.6765  150.0627 H   0  0  0  0  0  0  0  0  0  0  0  0
  144.0419  135.5914  151.6026 H   0  0  0  0  0  0  0  0  0  0  0  0
  146.7384  137.9356  162.1351 H   0  0  0  0  0  0  0  0  0  0  0  0
  147.4072  136.6319  164.1210 H   0  0  0  0  0  0  0  0  0  0  0  0
  147.4647  134.1465  164.0312 H   0  0  0  0  0  0  0  0  0  0  0  0
  146.8514  132.9675  161.9287 H   0  0  0  0  0  0  0  0  0  0  0  0
  146.1859  134.2393  159.9357 H   0  0  0  0  0  0  0  0  0  0  0  0
  1  2  2  0  0  0  0
  2  3  1  0  0  0  0
  2 28  1  0  0  0  0
  3  4  1  0  0  0  0
  4  5  1  0  0  0  0
  4 34  1  0  0  0  0
  4 35  1  0  0  0  0
  5 18  1  0  0  0  0
  5  6  1  0  0  0  0
  5 36  1  0  0  0  0
  6  7  1  0  0  0  0
  7  8  1  0  0  0  0
  7 16  1  0  0  0  0
  7 37  1  0  0  0  0
  8 14  1  0  0  0  0
  8  9  1  0  0  0  0
  9 10  2  0  0  0  0
  9 38  1  0  0  0  0
 10 11  1  0  0  0  0
 10 39  1  0  0  0  0
 11 12  2  0  0  0  0
 11 13  1  0  0  0  0
 13 14  1  0  0  0  0
 14 15  2  0  0  0  0
 16 17  1  0  0  0  0
 16 18  1  0  0  0  0
 16 40  1  0  0  0  0
 17 41  1  0  0  0  0
 18 19  1  0  0  0  0
 18 42  1  0  0  0  0
 19 20  1  0  0  0  0
 20 21  2  0  0  0  0
 20 22  1  0  0  0  0
 22 27  1  0  0  0  0
 22 23  2  0  0  0  0
 23 24  1  0  0  0  0
 23 43  1  0  0  0  0
 24 25  2  0  0  0  0
 24 44  1  0  0  0  0
 25 26  1  0  0  0  0
 25 45  1  0  0  0  0
 26 27  2  0  0  0  0
 26 46  1  0  0  0  0
 27 47  1  0  0  0  0
 28 33  1  0  0  0  0
 28 29  2  0  0  0  0
 29 30  1  0  0  0  0
 29 48  1  0  0  0  0
 30 31  2  0  0  0  0
 30 49  1  0  0  0  0
 31 32  1  0  0  0  0
 31 50  1  0  0  0  0
 32 33  2  0  0  0  0
 32 51  1  0  0  0  0
 33 52  1  0  0  0  0
M  CHG  1  13  -1
M  END
> <s_m_source_file>
AV-unprocessed.smi

> <i_m_source_file_index>
99

> <i_lp_mmshare_version>
43012

> <i_f3d_flags>
0

> <s_epik_input>
W2NIXTFbY0hdW2NIXVtjSF1bY0hdYzFDKD1PKU9bQ0gyXVtDQEBIXTJPW0NAQEhdKG4zW2NIXVtjSF1jKD1PKVtuSF1jMz1PKVtDQEBIXShbT0hdKVtDQEhdMk9DKD1PKWM0W2NIXVtjSF1bY0hdW2NIXVtjSF00

> <s_epik_cmdline>
J2VwaWtfcHl0aG9uJywgJy1waCcsICc3LjAnLCAnLXRuJywgJzgnLCAnLW1hJywgJzIwMCcsICctbWV0YWxfYmluZGluZycsICctaW1hZScsICc8aW5maWxlLm1hZT4nLCAnLW9tYWUnLCAnPG91dGZpbGUubWFlPic=

> <r_lp_tautomer_probability>
1

> <r_epik_Ionization_Penalty>
2.89159

> <r_epik_Ionization_Penalty_Charging>
2.1077e-08

> <r_epik_Ionization_Penalty_Neutral>
2.89159

> <r_epik_State_Penalty>
2.88671

> <r_epik_Charging_Adjusted_Penalty>
2.88671

> <i_epik_Tot_Q>
-1

> <i_epik_Tot_abs_Q>
1

> <r_epik_Metal_State_Penalty>
0.0727308

> <b_epik_Metal_Only>
1

> <s_epik_Chemistry_Notes>
This compound has an ester and may undergo hydrolysis at high or low pH. This compound contains an acetal/aminal-like group ( X-CH(R)-Y where X, Y are N, S, or O) that may be acid/base labile, releasing an aldehyde.

> <s_lp_Force_Field>
OPLS_2005

> <r_lp_Energy>
51.3472

> <b_lp_Chiralities_Consistent>
1

> <s_lp_Variant>
AV-unprocessed.smi:99-17

> <Gold.Version>
5.8.1

> <Gold.Id.Protein>
6NUR|6NUR_protein|mol2

> <Gold.PLP.Fitness>
52.2753

> <Gold.PLP.PLP>
-40.8145

> <Gold.PLP.part.hbond>
-5.0000

> <Gold.PLP.part.metal>
0.0000

> <Gold.PLP.part.buried>
-6.1923

> <Gold.PLP.part.nonpolar>
-31.2764

> <Gold.PLP.part.repulsive>
1.5312

> <Gold.PLP.ligand.clash>
0.0000

> <Gold.PLP.ligand.torsion>
1.8450

> <Gold.PLP.Chemscore.Hbond>
4.9614

> <Gold.PLP.Chemscore.CHOScore>
0.0000

> <Gold.PLP.Chemscore.Metal>
0.0000

> <Gold.Chemscore.Hbonds>
donor molecule, donor type, donor heavy atom, donor atom, acceptor molecule, acceptor atom, score
      L1  H    17    41       P1  7948  1.00
      P1  H  6934  6947       L1     1  0.51
      P1  H  7989  7998       L1    15  1.00
      P1  H  7997  8008       L1    12  0.17
      P1  H  7997  8009       L1    13  0.86

> <Gold.PLP.Chemscore.Internal.Correction>
0.2666

> <Gold.Rescore>
     Score         DG    S(hbond)    S(metal)    S(lipo)     H(rot)  DE(clash)    DE(int)     intcor
     15.77     -18.26       3.33        0.00      82.73       3.13       0.28       2.21       ----

> <Gold.Chemscore.Fitness>
15.7676

> <Gold.Chemscore.DG>
-18.2559

> <Gold.Chemscore.ZeroCoef>
-5.4800

> <Gold.Chemscore.Hbond>
3.3296

> <Gold.Chemscore.Metal>
0.0000

> <Gold.Chemscore.Lipo>
82.7305

> <Gold.Chemscore.Internal_Hbond>
0.0000

> <Gold.Chemscore.DEClash>
0.2753

> <Gold.Chemscore.DEInternal>
2.2130

> <Gold.Chemscore.Rot>
3.1346

> <Gold.Chemscore.Internal.Correction>
   9.000000E+99

> <Gold.Chemscore.Hbonds>
donor molecule, donor type, donor heavy atom, donor atom, acceptor molecule, acceptor atom, score
      L1  H    17    41       P1  7948  0.93
      P1  H  6934  6947       L1     1  0.13
      P1  H  7989  7998       L1    15  1.00
      P1  H  7997  8008       L1    12  0.18
      P1  H  7997  8009       L1    13  0.04

> <Gold.Chemscore.Hbond.Weighted>
-11.1210

> <Gold.Chemscore.Metal.Weighted>
-0.0000

> <Gold.Chemscore.Lipo.Weighted>
-9.6795

> <Gold.Chemscore.Internal_Hbond.Weighted>
0.0000

> <Gold.Chemscore.DEClash.Weighted>
0.2753

> <Gold.Chemscore.DEInternal.Weighted>
2.2130

> <Gold.Chemscore.Rot.Weighted>
8.0246

> <Gold.Chemscore.Internal.Correction.Weighted>
   9.000000E+99

> <Gold.Protein.RotatedTorsions>
[ 6907 6896 6895 6894 ] final   43.58 input  -60.11 | X-H torsion
[ 7974 7965 7964 7962 ] final  161.04 input  175.53 | X-H torsion
[ 8008 7997 7996 7995 ] final -143.08 input   59.86 | X-H torsion
[ 10167 10162 10161 10158 ] final -104.08 input  -65.29 | X-H torsion
[ 10718 10713 10712 10709 ] final   48.72 input   66.30 | X-H torsion
[ 10763 10752 10751 10750 ] final  147.91 input  -60.55 | X-H torsion
[ 11005 11000 10999 10996 ] final    0.85 input  -57.11 | X-H torsion

> <Gold.Protein.ActiveResidues>
 VAL166  LYS551  ARG553  GLY616  TRP617  ASP618  TYR619  PRO620  LYS621  CYS622 
 ASP623  PHE694  ASN695  SER759  ASP760  ASP761  ALA762  ILE779  LEU786  VAL792 
 PHE793  MET794  SER795  GLU796  ALA797  LYS798  CYS799  TRP800  GLU811  SER814 

> <Gold.Protein.RotatedAtoms>
  152.2220  134.8404  160.0484 H   0  0  0  0  0  0  0  0  0  0  0  0  # atno 6907 bound_to 6896
  151.9184  133.3574  159.3896 H   0  0  0  0  0  0  0  0  0  0  0  0  # atno 6908 bound_to 6896
  150.7002  134.4586  159.5414 H   0  0  0  0  0  0  0  0  0  0  0  0  # atno 6909 bound_to 6896
  144.7706  139.7841  143.6298 H   0  0  0  0  0  0  0  0  0  0  0  0  # atno 7974 bound_to 7965
  155.5047  140.0578  157.2933 H   0  0  0  0  0  0  0  0  0  0  0  0  # atno 8008 bound_to 7997
  154.4574  140.1979  156.0290 H   0  0  0  0  0  0  0  0  0  0  0  0  # atno 8009 bound_to 7997
  156.0825  140.3245  155.7716 H   0  0  0  0  0  0  0  0  0  0  0  0  # atno 8010 bound_to 7997
  140.2131  143.3731  152.1033 H   0  0  0  0  0  0  0  0  0  0  0  0  # atno 10167 bound_to 10162
  157.4715  130.8258  149.7993 H   0  0  0  0  0  0  0  0  0  0  0  0  # atno 10718 bound_to 10713
  154.0462  135.2885  155.3347 H   0  0  0  0  0  0  0  0  0  0  0  0  # atno 10763 bound_to 10752
  154.6898  135.5231  153.8380 H   0  0  0  0  0  0  0  0  0  0  0  0  # atno 10764 bound_to 10752
  153.0579  135.6602  154.0662 H   0  0  0  0  0  0  0  0  0  0  0  0  # atno 10765 bound_to 10752
  140.6219  133.9653  155.8229 H   0  0  0  0  0  0  0  0  0  0  0  0  # atno 11005 bound_to 11000
  146.1849  139.5060  142.9842 LP  0  0  0  0  0  0  0  0  0  0  0  0  # atno 17320 bound_to 7965
  145.6336  141.0299  143.1850 LP  0  0  0  0  0  0  0  0  0  0  0  0  # atno 17321 bound_to 7965
  139.5172  144.6989  151.5552 LP  0  0  0  0  0  0  0  0  0  0  0  0  # atno 17342 bound_to 10162
  140.6309  143.9078  150.6604 LP  0  0  0  0  0  0  0  0  0  0  0  0  # atno 17343 bound_to 10162
  156.0076  130.3848  150.2378 LP  0  0  0  0  0  0  0  0  0  0  0  0  # atno 17370 bound_to 10713
  157.0560  131.0076  151.3238 LP  0  0  0  0  0  0  0  0  0  0  0  0  # atno 17371 bound_to 10713
  141.0736  134.0168  157.3490 LP  0  0  0  0  0  0  0  0  0  0  0  0  # atno 17394 bound_to 11000
  139.9150  135.0195  156.7844 LP  0  0  0  0  0  0  0  0  0  0  0  0  # atno 17395 bound_to 11000

$$$$
