AV-unprocessed.smi:1645|AV-procd|sdf|6618|dock4
  -GOLD-   22720 7313D 1   1.00000     0.00000
 Structure written by MMmdl.
 55 58  0  0  0  0  0  0  0  0  4 V2000
  149.7242  135.1415  156.2894 O   0  0  0  0  0  0  0  0  0  0  0  0
  149.5919  135.4356  155.0961 C   0  0  0  0  0  0  0  0  0  0  0  0
  149.8846  136.6749  154.6639 N   0  0  0  0  0  0  0  0  0  0  0  0
  150.3432  137.7936  155.4088 C   0  0  0  0  0  0  0  0  0  0  0  0
  150.7306  138.9466  154.6971 C   0  0  0  0  0  0  0  0  0  0  0  0
  151.2037  140.0756  155.3962 C   0  0  0  0  0  0  0  0  0  0  0  0
  151.3035  140.0402  156.8102 C   0  0  0  0  0  0  0  0  0  0  0  0
  151.7541  141.1252  157.5949 N   0  0  0  0  0  0  0  0  0  0  0  0
  151.0421  142.3946  157.4164 C   0  0  0  0  0  0  0  0  0  0  0  0
  151.8531  143.5774  157.9731 C   0  0  0  0  0  0  0  0  0  0  0  0
  152.2726  143.3264  159.4280 C   0  0  0  0  0  0  0  0  0  0  0  0
  153.0433  142.0028  159.5261 C   0  0  0  0  0  0  0  0  0  0  0  0
  152.2194  140.8372  158.9530 C   0  0  0  0  0  0  0  0  0  0  0  0
  150.9392  138.9002  157.4463 N   0  3  0  0  0  0  0  0  0  0  0  0
  150.4770  137.7981  156.8166 C   0  0  0  0  0  0  0  0  0  0  0  0
  149.1465  134.6369  154.0897 N   0  5  0  0  0  0  0  0  0  0  0  0
  148.7380  133.2397  154.2509 C   0  0  2  0  0  0  0  0  0  0  0  0
  149.8910  132.3654  154.7556 C   0  0  0  0  0  0  0  0  0  0  0  0
  149.6174  130.9644  154.1784 C   0  0  0  0  0  0  0  0  0  0  0  0
  148.5788  131.1133  153.1263 N   0  3  1  0  0  0  0  0  0  0  0  0
  147.3309  130.3631  153.4597 C   0  0  0  0  0  0  0  0  0  0  0  0
  146.1631  130.7123  152.5305 C   0  0  0  0  0  0  0  0  0  0  0  0
  145.8758  132.2124  152.6031 C   0  0  0  0  0  0  0  0  0  0  0  0
  147.1219  132.9844  152.1546 C   0  0  0  0  0  0  0  0  0  0  0  0
  148.4250  132.5778  152.8965 C   0  0  1  0  0  0  0  0  0  0  0  0
  149.6637  136.8555  153.6957 H   0  0  0  0  0  0  0  0  0  0  0  0
  150.6594  138.9721  153.6193 H   0  0  0  0  0  0  0  0  0  0  0  0
  151.4913  140.9468  154.8277 H   0  0  0  0  0  0  0  0  0  0  0  0
  150.8241  142.5894  156.3664 H   0  0  0  0  0  0  0  0  0  0  0  0
  150.0816  142.3286  157.9292 H   0  0  0  0  0  0  0  0  0  0  0  0
  152.7415  143.7318  157.3593 H   0  0  0  0  0  0  0  0  0  0  0  0
  151.2675  144.4946  157.9058 H   0  0  0  0  0  0  0  0  0  0  0  0
  152.8886  144.1498  159.7908 H   0  0  0  0  0  0  0  0  0  0  0  0
  151.3895  143.2890  160.0672 H   0  0  0  0  0  0  0  0  0  0  0  0
  153.9839  142.0880  158.9797 H   0  0  0  0  0  0  0  0  0  0  0  0
  153.3060  141.7975  160.5643 H   0  0  0  0  0  0  0  0  0  0  0  0
  151.3576  140.6379  159.5912 H   0  0  0  0  0  0  0  0  0  0  0  0
  152.8425  139.9423  158.9560 H   0  0  0  0  0  0  0  0  0  0  0  0
  150.2437  136.9650  157.4628 H   0  0  0  0  0  0  0  0  0  0  0  0
  147.8750  133.1150  154.9072 H   0  0  0  0  0  0  0  0  0  0  0  0
  150.8468  132.7280  154.3727 H   0  0  0  0  0  0  0  0  0  0  0  0
  149.9566  132.3610  155.8441 H   0  0  0  0  0  0  0  0  0  0  0  0
  150.5251  130.5498  153.7379 H   0  0  0  0  0  0  0  0  0  0  0  0
  149.3048  130.2728  154.9634 H   0  0  0  0  0  0  0  0  0  0  0  0
  147.5392  129.2940  153.4104 H   0  0  0  0  0  0  0  0  0  0  0  0
  147.0342  130.5742  154.4888 H   0  0  0  0  0  0  0  0  0  0  0  0
  146.3949  130.4199  151.5055 H   0  0  0  0  0  0  0  0  0  0  0  0
  145.2759  130.1500  152.8230 H   0  0  0  0  0  0  0  0  0  0  0  0
  145.0286  132.4663  151.9654 H   0  0  0  0  0  0  0  0  0  0  0  0
  145.5984  132.4963  153.6191 H   0  0  0  0  0  0  0  0  0  0  0  0
  147.2666  132.7837  151.0923 H   0  0  0  0  0  0  0  0  0  0  0  0
  146.9425  134.0596  152.2167 H   0  0  0  0  0  0  0  0  0  0  0  0
  149.2472  132.8424  152.2276 H   0  0  0  0  0  0  0  0  0  0  0  0
  148.9319  130.7164  152.2676 H   0  0  0  0  0  0  0  0  0  0  0  0
  151.0145  138.8712  158.4632 H   0  0  0  0  0  0  0  0  0  0  0  0
  1  2  2  0  0  0  0
  2  3  1  0  0  0  0
  2 16  1  0  0  0  0
  3  4  1  0  0  0  0
  3 26  1  0  0  0  0
  4 15  1  0  0  0  0
  4  5  2  0  0  0  0
  5  6  1  0  0  0  0
  5 27  1  0  0  0  0
  6  7  2  0  0  0  0
  6 28  1  0  0  0  0
  7  8  1  0  0  0  0
  7 14  1  0  0  0  0
  8 13  1  0  0  0  0
  8  9  1  0  0  0  0
  9 10  1  0  0  0  0
  9 29  1  0  0  0  0
  9 30  1  0  0  0  0
 10 11  1  0  0  0  0
 10 31  1  0  0  0  0
 10 32  1  0  0  0  0
 11 12  1  0  0  0  0
 11 33  1  0  0  0  0
 11 34  1  0  0  0  0
 12 13  1  0  0  0  0
 12 35  1  0  0  0  0
 12 36  1  0  0  0  0
 13 37  1  0  0  0  0
 13 38  1  0  0  0  0
 14 15  2  0  0  0  0
 14 55  1  0  0  0  0
 15 39  1  0  0  0  0
 16 17  1  0  0  0  0
 17 25  1  0  0  0  0
 17 18  1  0  0  0  0
 17 40  1  0  0  0  0
 18 19  1  0  0  0  0
 18 41  1  0  0  0  0
 18 42  1  0  0  0  0
 19 20  1  0  0  0  0
 19 43  1  0  0  0  0
 19 44  1  0  0  0  0
 20 25  1  0  0  0  0
 20 21  1  0  0  0  0
 20 54  1  0  0  0  0
 21 22  1  0  0  0  0
 21 45  1  0  0  0  0
 21 46  1  0  0  0  0
 22 23  1  0  0  0  0
 22 47  1  0  0  0  0
 22 48  1  0  0  0  0
 23 24  1  0  0  0  0
 23 49  1  0  0  0  0
 23 50  1  0  0  0  0
 24 25  1  0  0  0  0
 24 51  1  0  0  0  0
 24 52  1  0  0  0  0
 25 53  1  0  0  0  0
M  CHG  1  14   1
M  CHG  1  16  -1
M  CHG  1  20   1
M  END
> <s_m_source_file>
AV-unprocessed.smi

> <i_m_source_file_index>
1645

> <i_lp_mmshare_version>
43012

> <i_f3d_flags>
0

> <s_epik_input>
W0NIMl0xW0NIMl1bQ0gyXVtDSDJdW0NASF0oTjEyKVtDQEBIXShbQ0gyXVtDSDJdMilbTkhdQyg9TylbTkhdYzNbY0hdW2NIXWMobltjSF0zKU40W0NIMl1bQ0gyXVtDSDJdW0NIMl1bQ0gyXTQ=

> <s_epik_cmdline>
J2VwaWtfcHl0aG9uJywgJy1waCcsICc3LjAnLCAnLXRuJywgJzgnLCAnLW1hJywgJzIwMCcsICctbWV0YWxfYmluZGluZycsICctaW1hZScsICc8aW5maWxlLm1hZT4nLCAnLW9tYWUnLCAnPG91dGZpbGUubWFlPic=

> <r_lp_tautomer_probability>
0.999994

> <r_epik_Ionization_Penalty>
8.55589

> <r_epik_Ionization_Penalty_Charging>
8.55589

> <r_epik_Ionization_Penalty_Neutral>
3.8092e-06

> <r_epik_State_Penalty>
8.15703

> <r_epik_Charging_Adjusted_Penalty>
16.7129

> <i_epik_Tot_Q>
1

> <i_epik_Tot_abs_Q>
3

> <r_epik_Metal_State_Penalty>
4.13781

> <b_epik_Metal_Only>
1

> <s_lp_Force_Field>
OPLS_2005

> <r_lp_Energy>
57.5276

> <b_lp_Chiralities_Consistent>
1

> <s_lp_Variant>
AV-unprocessed.smi:1645-19

> <Gold.Version>
5.8.1

> <Gold.Id.Protein>
6NUR|6NUR_protein|mol2

> <Gold.PLP.Fitness>
48.9383

> <Gold.PLP.PLP>
-43.0269

> <Gold.PLP.part.hbond>
-2.0000

> <Gold.PLP.part.metal>
0.0000

> <Gold.PLP.part.buried>
-4.2514

> <Gold.PLP.part.nonpolar>
-39.2003

> <Gold.PLP.part.repulsive>
2.8668

> <Gold.PLP.ligand.clash>
0.0000

> <Gold.PLP.ligand.torsion>
0.3226

> <Gold.PLP.Chemscore.Hbond>
1.9913

> <Gold.PLP.Chemscore.CHOScore>
0.0000

> <Gold.PLP.Chemscore.Metal>
0.0000

> <Gold.Chemscore.Hbonds>
donor molecule, donor type, donor heavy atom, donor atom, acceptor molecule, acceptor atom, score
      L1  H     3    26       P1  7948  0.99
      L1  H    20    54       P1 10747  0.94

> <Gold.PLP.Chemscore.Internal.Correction>
0.5829

> <Gold.Rescore>
     Score         DG    S(hbond)    S(metal)    S(lipo)     H(rot)  DE(clash)    DE(int)     intcor
     18.61     -21.83       1.77        0.00     114.97       1.17       1.54       1.68       ----

> <Gold.Chemscore.Fitness>
18.6080

> <Gold.Chemscore.DG>
-21.8257

> <Gold.Chemscore.ZeroCoef>
-5.4800

> <Gold.Chemscore.Hbond>
1.7657

> <Gold.Chemscore.Metal>
0.0000

> <Gold.Chemscore.Lipo>
114.9709

> <Gold.Chemscore.Internal_Hbond>
0.0000

> <Gold.Chemscore.DEClash>
1.5386

> <Gold.Chemscore.DEInternal>
1.6791

> <Gold.Chemscore.Rot>
1.1731

> <Gold.Chemscore.Internal.Correction>
   9.000000E+99

> <Gold.Chemscore.Hbonds>
donor molecule, donor type, donor heavy atom, donor atom, acceptor molecule, acceptor atom, score
      L1  H     3    26       P1  7948  0.62
      L1  H    20    54       P1 10747  0.35

> <Gold.Chemscore.Hbond.Weighted>
-5.8973

> <Gold.Chemscore.Metal.Weighted>
-0.0000

> <Gold.Chemscore.Lipo.Weighted>
-13.4516

> <Gold.Chemscore.Internal_Hbond.Weighted>
0.0000

> <Gold.Chemscore.DEClash.Weighted>
1.5386

> <Gold.Chemscore.DEInternal.Weighted>
1.6791

> <Gold.Chemscore.Rot.Weighted>
3.0032

> <Gold.Chemscore.Internal.Correction.Weighted>
   9.000000E+99

> <Gold.Protein.RotatedTorsions>
[ 6907 6896 6895 6894 ] final  -50.04 input  -60.11 | X-H torsion
[ 7974 7965 7964 7962 ] final -153.32 input  175.53 | X-H torsion
[ 8008 7997 7996 7995 ] final   77.50 input   59.86 | X-H torsion
[ 10167 10162 10161 10158 ] final  -12.78 input  -65.29 | X-H torsion
[ 10718 10713 10712 10709 ] final -178.55 input   66.30 | X-H torsion
[ 10763 10752 10751 10750 ] final  -59.02 input  -60.55 | X-H torsion
[ 11005 11000 10999 10996 ] final   -9.56 input  -57.11 | X-H torsion

> <Gold.Protein.ActiveResidues>
 VAL166  LYS551  ARG553  GLY616  TRP617  ASP618  TYR619  PRO620  LYS621  CYS622 
 ASP623  PHE694  ASN695  SER759  ASP760  ASP761  ALA762  ILE779  LEU786  VAL792 
 PHE793  MET794  SER795  GLU796  ALA797  LYS798  CYS799  TRP800  GLU811  SER814 

> <Gold.Protein.RotatedAtoms>
  150.8745  134.8126  159.7179 H   0  0  0  0  0  0  0  0  0  0  0  0  # atno 6907 bound_to 6896
  152.4737  134.4893  159.9700 H   0  0  0  0  0  0  0  0  0  0  0  0  # atno 6908 bound_to 6896
  151.4977  133.3472  159.2899 H   0  0  0  0  0  0  0  0  0  0  0  0  # atno 6909 bound_to 6896
  144.7747  140.4541  143.5882 H   0  0  0  0  0  0  0  0  0  0  0  0  # atno 7974 bound_to 7965
  155.8425  140.3461  155.5641 H   0  0  0  0  0  0  0  0  0  0  0  0  # atno 8008 bound_to 7997
  155.8125  140.0901  157.1915 H   0  0  0  0  0  0  0  0  0  0  0  0  # atno 8009 bound_to 7997
  154.4005  140.1445  156.3391 H   0  0  0  0  0  0  0  0  0  0  0  0  # atno 8010 bound_to 7997
  140.7168  143.5496  150.9316 H   0  0  0  0  0  0  0  0  0  0  0  0  # atno 10167 bound_to 10162
  156.8460  130.9702  151.3096 H   0  0  0  0  0  0  0  0  0  0  0  0  # atno 10718 bound_to 10713
  154.2471  135.6333  153.5227 H   0  0  0  0  0  0  0  0  0  0  0  0  # atno 10763 bound_to 10752
  152.9919  135.5556  154.5847 H   0  0  0  0  0  0  0  0  0  0  0  0  # atno 10764 bound_to 10752
  154.5366  135.2892  155.1107 H   0  0  0  0  0  0  0  0  0  0  0  0  # atno 10765 bound_to 10752
  140.7355  133.8714  155.8926 H   0  0  0  0  0  0  0  0  0  0  0  0  # atno 11005 bound_to 11000
  145.6221  139.1525  143.3016 LP  0  0  0  0  0  0  0  0  0  0  0  0  # atno 17320 bound_to 7965
  146.1918  140.6331  142.9142 LP  0  0  0  0  0  0  0  0  0  0  0  0  # atno 17321 bound_to 7965
  139.9220  143.6594  152.3095 LP  0  0  0  0  0  0  0  0  0  0  0  0  # atno 17342 bound_to 10162
  139.7015  144.7634  151.1266 LP  0  0  0  0  0  0  0  0  0  0  0  0  # atno 17343 bound_to 10162
  157.6330  130.8744  149.9307 LP  0  0  0  0  0  0  0  0  0  0  0  0  # atno 17370 bound_to 10713
  156.0854  130.3668  150.0497 LP  0  0  0  0  0  0  0  0  0  0  0  0  # atno 17371 bound_to 10713
  140.9883  134.1312  157.4431 LP  0  0  0  0  0  0  0  0  0  0  0  0  # atno 17394 bound_to 11000
  139.8817  135.0032  156.6175 LP  0  0  0  0  0  0  0  0  0  0  0  0  # atno 17395 bound_to 11000

$$$$
