AV-unprocessed.smi:3135|AV-procd|sdf|11945|dock8
  -GOLD-   2272017333D 1   1.00000     0.00000
 Structure written by MMmdl.
 38 39  0  0  0  0  0  0  0  0  2 V2000
  151.0620  140.0075  158.4766 C   0  0  0  0  0  0  0  0  0  0  0  0
  150.7406  140.1893  157.0211 C   0  0  0  0  0  0  0  0  0  0  0  0
  151.5463  139.8435  155.8992 C   0  0  0  0  0  0  0  0  0  0  0  0
  150.9715  140.1356  154.7438 N   0  0  0  0  0  0  0  0  0  0  0  0
  149.7817  140.6757  155.0850 N   0  0  0  0  0  0  0  0  0  0  0  0
  148.8626  141.1185  154.0503 C   0  0  0  0  0  0  0  0  0  0  0  0
  147.7032  140.1374  153.8518 C   0  0  0  0  0  0  0  0  0  0  0  0
  146.9942  139.8254  154.8082 O   0  0  0  0  0  0  0  0  0  0  0  0
  147.5257  139.6429  152.6153 N   0  0  0  0  0  0  0  0  0  0  0  0
  146.4692  138.7127  152.2355 C   0  0  0  0  0  0  0  0  0  0  0  0
  146.3598  137.5447  153.2342 C   0  0  0  0  0  0  0  0  0  0  0  0
  146.3463  136.2142  152.5748 N   0  3  1  0  0  0  0  0  0  0  0  0
  145.9462  135.1502  153.5238 C   0  0  0  0  0  0  0  0  0  0  0  0
  145.5143  136.1894  151.3471 C   0  0  0  0  0  0  0  0  0  0  0  0
  144.0896  135.7313  151.5756 C   0  0  0  0  0  0  0  0  0  0  0  0
  145.0828  134.8046  150.9169 C   0  0  0  0  0  0  0  0  0  0  0  0
  149.6186  140.7235  156.4536 C   0  0  0  0  0  0  0  0  0  0  0  0
  151.5879  139.0705  158.6596 H   0  0  0  0  0  0  0  0  0  0  0  0
  150.1622  139.9951  159.0922 H   0  0  0  0  0  0  0  0  0  0  0  0
  151.6963  140.8114  158.8503 H   0  0  0  0  0  0  0  0  0  0  0  0
  152.5272  139.3912  155.8904 H   0  0  0  0  0  0  0  0  0  0  0  0
  148.4669  142.0979  154.3216 H   0  0  0  0  0  0  0  0  0  0  0  0
  149.4140  141.2428  153.1166 H   0  0  0  0  0  0  0  0  0  0  0  0
  148.1515  139.9524  151.8853 H   0  0  0  0  0  0  0  0  0  0  0  0
  145.5288  139.2595  152.1599 H   0  0  0  0  0  0  0  0  0  0  0  0
  146.6913  138.3329  151.2379 H   0  0  0  0  0  0  0  0  0  0  0  0
  147.2131  137.5965  153.9123 H   0  0  0  0  0  0  0  0  0  0  0  0
  145.4672  137.6463  153.8533 H   0  0  0  0  0  0  0  0  0  0  0  0
  144.9311  135.3149  153.8875 H   0  0  0  0  0  0  0  0  0  0  0  0
  146.6175  135.1254  154.3828 H   0  0  0  0  0  0  0  0  0  0  0  0
  145.9831  134.1671  153.0543 H   0  0  0  0  0  0  0  0  0  0  0  0
  145.7185  136.9659  150.6118 H   0  0  0  0  0  0  0  0  0  0  0  0
  143.7755  135.4836  152.5880 H   0  0  0  0  0  0  0  0  0  0  0  0
  143.3167  136.1628  150.9428 H   0  0  0  0  0  0  0  0  0  0  0  0
  144.9672  134.6253  149.8499 H   0  0  0  0  0  0  0  0  0  0  0  0
  145.4280  133.9505  151.4967 H   0  0  0  0  0  0  0  0  0  0  0  0
  148.7255  141.1282  156.9065 H   0  0  0  0  0  0  0  0  0  0  0  0
  147.2956  136.0097  152.2974 H   0  0  0  0  0  0  0  0  0  0  0  0
  1  2  1  0  0  0  0
  1 18  1  0  0  0  0
  1 19  1  0  0  0  0
  1 20  1  0  0  0  0
  2 17  2  0  0  0  0
  2  3  1  0  0  0  0
  3  4  2  0  0  0  0
  3 21  1  0  0  0  0
  4  5  1  0  0  0  0
  5  6  1  0  0  0  0
  5 17  1  0  0  0  0
  6  7  1  0  0  0  0
  6 22  1  0  0  0  0
  6 23  1  0  0  0  0
  7  8  2  0  0  0  0
  7  9  1  0  0  0  0
  9 10  1  0  0  0  0
  9 24  1  0  0  0  0
 10 11  1  0  0  0  0
 10 25  1  0  0  0  0
 10 26  1  0  0  0  0
 11 12  1  0  0  0  0
 11 27  1  0  0  0  0
 11 28  1  0  0  0  0
 12 13  1  0  0  0  0
 12 14  1  0  0  0  0
 12 38  1  0  0  0  0
 13 29  1  0  0  0  0
 13 30  1  0  0  0  0
 13 31  1  0  0  0  0
 14 16  1  0  0  0  0
 14 15  1  0  0  0  0
 14 32  1  0  0  0  0
 15 16  1  0  0  0  0
 15 33  1  0  0  0  0
 15 34  1  0  0  0  0
 16 35  1  0  0  0  0
 16 36  1  0  0  0  0
 17 37  1  0  0  0  0
M  CHG  1  12   1
M  END
> <s_m_source_file>
AV-unprocessed.smi

> <i_m_source_file_index>
3135

> <i_lp_mmshare_version>
43012

> <i_f3d_flags>
0

> <s_epik_input>
W0NIM11jMVtjSF1ubihbY0hdMSlbQ0gyXUMoPU8pW05IXVtDSDJdW0NIMl1OKFtDSDNdKVtDSF0yW0NIMl1bQ0gyXTI=

> <s_epik_cmdline>
J2VwaWtfcHl0aG9uJywgJy1waCcsICc3LjAnLCAnLXRuJywgJzgnLCAnLW1hJywgJzIwMCcsICctbWV0YWxfYmluZGluZycsICctaW1hZScsICc8aW5maWxlLm1hZT4nLCAnLW9tYWUnLCAnPG91dGZpbGUubWFlPic=

> <r_lp_tautomer_probability>
1

> <r_epik_Ionization_Penalty>
0.174318

> <r_epik_Ionization_Penalty_Charging>
0.174302

> <r_epik_Ionization_Penalty_Neutral>
1.62778e-05

> <r_epik_State_Penalty>
0.163722

> <r_epik_Charging_Adjusted_Penalty>
0.338024

> <i_epik_Tot_Q>
1

> <i_epik_Tot_abs_Q>
1

> <r_epik_Metal_State_Penalty>
0.163727

> <b_epik_Metal_Only>
0

> <s_lp_Force_Field>
OPLS_2005

> <r_lp_Energy>
17.6271

> <b_lp_Chiralities_Consistent>
1

> <s_lp_Variant>
AV-unprocessed.smi:3135-1

> <Gold.Version>
5.8.1

> <Gold.Id.Protein>
6NUR|6NUR_protein|mol2

> <Gold.PLP.Fitness>
41.2293

> <Gold.PLP.PLP>
-30.7097

> <Gold.PLP.part.hbond>
-2.9770

> <Gold.PLP.part.metal>
0.0000

> <Gold.PLP.part.buried>
-2.2033

> <Gold.PLP.part.nonpolar>
-26.0967

> <Gold.PLP.part.repulsive>
0.2500

> <Gold.PLP.ligand.clash>
0.0000

> <Gold.PLP.ligand.torsion>
1.3976

> <Gold.PLP.Chemscore.Hbond>
4.0000

> <Gold.PLP.Chemscore.CHOScore>
0.0000

> <Gold.PLP.Chemscore.Metal>
0.0000

> <Gold.Chemscore.Hbonds>
donor molecule, donor type, donor heavy atom, donor atom, acceptor molecule, acceptor atom, score
      L1  H     9    24       P1  7957  1.00
      L1  H    12    38       P1  7948  2.00
      P1  H  7989  7998       L1     4  1.00

> <Gold.PLP.Chemscore.Internal.Correction>
1.3148

> <Gold.Rescore>
     Score         DG    S(hbond)    S(metal)    S(lipo)     H(rot)  DE(clash)    DE(int)     intcor
     14.39     -16.97       2.94        0.00      57.13       1.96       0.00       2.58       ----

> <Gold.Chemscore.Fitness>
14.3874

> <Gold.Chemscore.DG>
-16.9690

> <Gold.Chemscore.ZeroCoef>
-5.4800

> <Gold.Chemscore.Hbond>
2.9375

> <Gold.Chemscore.Metal>
0.0000

> <Gold.Chemscore.Lipo>
57.1264

> <Gold.Chemscore.Internal_Hbond>
0.0000

> <Gold.Chemscore.DEClash>
0.0015

> <Gold.Chemscore.DEInternal>
2.5802

> <Gold.Chemscore.Rot>
1.9555

> <Gold.Chemscore.Internal.Correction>
   9.000000E+99

> <Gold.Chemscore.Hbonds>
donor molecule, donor type, donor heavy atom, donor atom, acceptor molecule, acceptor atom, score
      L1  H     9    24       P1  7957  0.97
      L1  H    12    38       P1  7948  1.00
      P1  H  7989  7998       L1     4  0.81

> <Gold.Chemscore.Hbond.Weighted>
-9.8112

> <Gold.Chemscore.Metal.Weighted>
-0.0000

> <Gold.Chemscore.Lipo.Weighted>
-6.6838

> <Gold.Chemscore.Internal_Hbond.Weighted>
0.0000

> <Gold.Chemscore.DEClash.Weighted>
0.0015

> <Gold.Chemscore.DEInternal.Weighted>
2.5802

> <Gold.Chemscore.Rot.Weighted>
5.0060

> <Gold.Chemscore.Internal.Correction.Weighted>
   9.000000E+99

> <Gold.Protein.RotatedTorsions>
[ 6907 6896 6895 6894 ] final    3.01 input  -60.11 | X-H torsion
[ 7974 7965 7964 7962 ] final  -31.15 input  175.53 | X-H torsion
[ 8008 7997 7996 7995 ] final   76.47 input   59.86 | X-H torsion
[ 10167 10162 10161 10158 ] final  120.41 input  -65.29 | X-H torsion
[ 10718 10713 10712 10709 ] final  142.94 input   66.30 | X-H torsion
[ 10763 10752 10751 10750 ] final  122.71 input  -60.55 | X-H torsion
[ 11005 11000 10999 10996 ] final  108.07 input  -57.11 | X-H torsion

> <Gold.Protein.ActiveResidues>
 VAL166  LYS551  ARG553  GLY616  TRP617  ASP618  TYR619  PRO620  LYS621  CYS622 
 ASP623  PHE694  ASN695  SER759  ASP760  ASP761  ALA762  ILE779  LEU786  VAL792 
 PHE793  MET794  SER795  GLU796  ALA797  LYS798  CYS799  TRP800  GLU811  SER814 

> <Gold.Protein.RotatedAtoms>
  151.6181  135.1034  160.0095 H   0  0  0  0  0  0  0  0  0  0  0  0  # atno 6907 bound_to 6896
  152.4172  133.7054  159.6458 H   0  0  0  0  0  0  0  0  0  0  0  0  # atno 6908 bound_to 6896
  150.8060  133.8435  159.3226 H   0  0  0  0  0  0  0  0  0  0  0  0  # atno 6909 bound_to 6896
  146.1089  140.5631  142.8787 H   0  0  0  0  0  0  0  0  0  0  0  0  # atno 7974 bound_to 7965
  155.8278  140.3467  155.5553 H   0  0  0  0  0  0  0  0  0  0  0  0  # atno 8008 bound_to 7997
  155.8274  140.0922  157.1833 H   0  0  0  0  0  0  0  0  0  0  0  0  # atno 8009 bound_to 7997
  154.4004  140.1418  156.3560 H   0  0  0  0  0  0  0  0  0  0  0  0  # atno 8010 bound_to 7997
  139.5984  144.7049  151.3122 H   0  0  0  0  0  0  0  0  0  0  0  0  # atno 10167 bound_to 10162
  157.3747  131.0984  151.0795 H   0  0  0  0  0  0  0  0  0  0  0  0  # atno 10718 bound_to 10713
  153.6341  135.3391  155.3051 H   0  0  0  0  0  0  0  0  0  0  0  0  # atno 10763 bound_to 10752
  154.8574  135.4302  154.2074 H   0  0  0  0  0  0  0  0  0  0  0  0  # atno 10764 bound_to 10752
  153.2977  135.7022  153.7306 H   0  0  0  0  0  0  0  0  0  0  0  0  # atno 10765 bound_to 10752
  139.8838  134.9419  156.5916 H   0  0  0  0  0  0  0  0  0  0  0  0  # atno 11005 bound_to 11000
  144.7494  140.5153  143.6812 LP  0  0  0  0  0  0  0  0  0  0  0  0  # atno 17320 bound_to 7965
  145.5704  139.1483  143.3291 LP  0  0  0  0  0  0  0  0  0  0  0  0  # atno 17321 bound_to 7965
  140.7230  143.7083  150.7790 LP  0  0  0  0  0  0  0  0  0  0  0  0  # atno 17342 bound_to 10162
  140.0654  143.5113  152.2607 LP  0  0  0  0  0  0  0  0  0  0  0  0  # atno 17343 bound_to 10162
  157.1887  130.6342  149.5697 LP  0  0  0  0  0  0  0  0  0  0  0  0  # atno 17370 bound_to 10713
  155.9763  130.4729  150.6517 LP  0  0  0  0  0  0  0  0  0  0  0  0  # atno 17371 bound_to 10713
  140.7951  133.8550  155.8679 LP  0  0  0  0  0  0  0  0  0  0  0  0  # atno 17394 bound_to 11000
  140.9642  134.1615  157.4629 LP  0  0  0  0  0  0  0  0  0  0  0  0  # atno 17395 bound_to 11000

$$$$
