AV-unprocessed.smi:1247|AV-procd|sdf|5246|dock4
  -GOLD-   22720 4353D 1   1.00000     0.00000
 Structure written by MMmdl.
 47 48  0  0  0  0  0  0  0  0  2 V2000
  151.0759  142.6206  157.0107 C   0  0  0  0  0  0  0  0  0  0  0  0
  150.8518  141.4437  156.1078 C   0  0  0  0  0  0  0  0  0  0  0  0
  149.7246  141.1751  155.2782 C   0  0  0  0  0  0  0  0  0  0  0  0
  150.0590  139.9853  154.6909 C   0  0  0  0  0  0  0  0  0  0  0  0
  149.3533  139.2556  153.7864 N   0  0  0  0  0  0  0  0  0  0  0  0
  148.1225  139.4868  153.2975 C   0  0  0  0  0  0  0  0  0  0  0  0
  147.3861  140.4183  153.6231 O   0  0  0  0  0  0  0  0  0  0  0  0
  147.7740  138.5544  152.3991 N   0  0  0  0  0  0  0  0  0  0  0  0
  146.5003  138.5154  151.6902 C   0  0  0  0  0  0  0  0  0  0  0  0
  145.5438  137.4791  152.3098 C   0  0  0  0  0  0  0  0  0  0  0  0
  145.9827  136.0844  152.0564 N   0  3  1  0  0  0  0  0  0  0  0  0
  146.1557  135.3090  153.3075 C   0  0  0  0  0  0  0  0  0  0  0  0
  146.6750  133.8922  152.9977 C   0  0  1  0  0  0  0  0  0  0  0  0
  146.7969  133.0314  154.2598 C   0  0  0  0  0  0  0  0  0  0  0  0
  145.7683  133.2505  152.1079 O   0  0  0  0  0  0  0  0  0  0  0  0
  145.6496  133.9302  150.8630 C   0  0  1  0  0  0  0  0  0  0  0  0
  144.7275  133.1079  149.9563 C   0  0  0  0  0  0  0  0  0  0  0  0
  145.1043  135.3493  151.1135 C   0  0  0  0  0  0  0  0  0  0  0  0
  151.3009  139.5975  155.1471 N   0  0  0  0  0  0  0  0  0  0  0  0
  152.0921  138.4244  154.8291 C   0  0  0  0  0  0  0  0  0  0  0  0
  151.7837  140.5010  156.0264 N   0  0  0  0  0  0  0  0  0  0  0  0
  150.2891  143.3655  156.8906 H   0  0  0  0  0  0  0  0  0  0  0  0
  152.0278  143.1066  156.7949 H   0  0  0  0  0  0  0  0  0  0  0  0
  151.0868  142.3145  158.0570 H   0  0  0  0  0  0  0  0  0  0  0  0
  148.8337  141.7706  155.1481 H   0  0  0  0  0  0  0  0  0  0  0  0
  149.8192  138.4267  153.4477 H   0  0  0  0  0  0  0  0  0  0  0  0
  148.4375  137.8229  152.1881 H   0  0  0  0  0  0  0  0  0  0  0  0
  146.0613  139.5136  151.6855 H   0  0  0  0  0  0  0  0  0  0  0  0
  146.6999  138.2605  150.6491 H   0  0  0  0  0  0  0  0  0  0  0  0
  145.5093  137.6539  153.3863 H   0  0  0  0  0  0  0  0  0  0  0  0
  144.5247  137.6144  151.9439 H   0  0  0  0  0  0  0  0  0  0  0  0
  146.8599  135.8220  153.9639 H   0  0  0  0  0  0  0  0  0  0  0  0
  145.2030  135.2559  153.8374 H   0  0  0  0  0  0  0  0  0  0  0  0
  147.6574  133.9548  152.5259 H   0  0  0  0  0  0  0  0  0  0  0  0
  147.4985  133.4711  154.9691 H   0  0  0  0  0  0  0  0  0  0  0  0
  147.1557  132.0311  154.0158 H   0  0  0  0  0  0  0  0  0  0  0  0
  145.8346  132.9261  154.7617 H   0  0  0  0  0  0  0  0  0  0  0  0
  146.6327  133.9920  150.3923 H   0  0  0  0  0  0  0  0  0  0  0  0
  144.6099  133.5828  148.9819 H   0  0  0  0  0  0  0  0  0  0  0  0
  143.7361  132.9969  150.3970 H   0  0  0  0  0  0  0  0  0  0  0  0
  145.1325  132.1090  149.7922 H   0  0  0  0  0  0  0  0  0  0  0  0
  144.0940  135.2965  151.5232 H   0  0  0  0  0  0  0  0  0  0  0  0
  145.0354  135.8817  150.1655 H   0  0  0  0  0  0  0  0  0  0  0  0
  151.6343  137.8577  154.0184 H   0  0  0  0  0  0  0  0  0  0  0  0
  152.1675  137.7844  155.7087 H   0  0  0  0  0  0  0  0  0  0  0  0
  153.0938  138.7272  154.5221 H   0  0  0  0  0  0  0  0  0  0  0  0
  146.8966  136.1404  151.6299 H   0  0  0  0  0  0  0  0  0  0  0  0
  1  2  1  0  0  0  0
  1 22  1  0  0  0  0
  1 23  1  0  0  0  0
  1 24  1  0  0  0  0
  2 21  2  0  0  0  0
  2  3  1  0  0  0  0
  3  4  2  0  0  0  0
  3 25  1  0  0  0  0
  4  5  1  0  0  0  0
  4 19  1  0  0  0  0
  5  6  1  0  0  0  0
  5 26  1  0  0  0  0
  6  7  2  0  0  0  0
  6  8  1  0  0  0  0
  8  9  1  0  0  0  0
  8 27  1  0  0  0  0
  9 10  1  0  0  0  0
  9 28  1  0  0  0  0
  9 29  1  0  0  0  0
 10 11  1  0  0  0  0
 10 30  1  0  0  0  0
 10 31  1  0  0  0  0
 11 18  1  0  0  0  0
 11 12  1  0  0  0  0
 11 47  1  0  0  0  0
 12 13  1  0  0  0  0
 12 32  1  0  0  0  0
 12 33  1  0  0  0  0
 13 14  1  0  0  0  0
 13 15  1  0  0  0  0
 13 34  1  0  0  0  0
 14 35  1  0  0  0  0
 14 36  1  0  0  0  0
 14 37  1  0  0  0  0
 15 16  1  0  0  0  0
 16 17  1  0  0  0  0
 16 18  1  0  0  0  0
 16 38  1  0  0  0  0
 17 39  1  0  0  0  0
 17 40  1  0  0  0  0
 17 41  1  0  0  0  0
 18 42  1  0  0  0  0
 18 43  1  0  0  0  0
 19 20  1  0  0  0  0
 19 21  1  0  0  0  0
 20 44  1  0  0  0  0
 20 45  1  0  0  0  0
 20 46  1  0  0  0  0
M  CHG  1  11   1
M  END
> <s_m_source_file>
AV-unprocessed.smi

> <i_m_source_file_index>
1247

> <i_lp_mmshare_version>
43012

> <i_f3d_flags>
0

> <s_epik_input>
W0NIM11jMVtjSF1jKG4objEpW0NIM10pW05IXUMoPU8pW05IXVtDSDJdW0NIMl1OMltDSDJdW0NAQEhdKFtDSDNdKU9bQ0BASF0oW0NIM10pW0NIMl0y

> <s_epik_cmdline>
J2VwaWtfcHl0aG9uJywgJy1waCcsICc3LjAnLCAnLXRuJywgJzgnLCAnLW1hJywgJzIwMCcsICctbWV0YWxfYmluZGluZycsICctaW1hZScsICc8aW5maWxlLm1hZT4nLCAnLW9tYWUnLCAnPG91dGZpbGUubWFlPic=

> <r_lp_tautomer_probability>
1

> <r_epik_Ionization_Penalty>
0.663902

> <r_epik_Ionization_Penalty_Charging>
0.663826

> <r_epik_Ionization_Penalty_Neutral>
7.65444e-05

> <r_epik_State_Penalty>
0.683414

> <r_epik_Charging_Adjusted_Penalty>
1.34724

> <i_epik_Tot_Q>
1

> <i_epik_Tot_abs_Q>
1

> <r_epik_Metal_State_Penalty>
0.683419

> <b_epik_Metal_Only>
0

> <s_lp_Force_Field>
OPLS_2005

> <r_lp_Energy>
16.001

> <b_lp_Chiralities_Consistent>
1

> <s_lp_Variant>
AV-unprocessed.smi:1247-4

> <Gold.Version>
5.8.1

> <Gold.Id.Protein>
6NUR|6NUR_protein|mol2

> <Gold.PLP.Fitness>
46.0769

> <Gold.PLP.PLP>
-38.8128

> <Gold.PLP.part.hbond>
-4.0000

> <Gold.PLP.part.metal>
0.0000

> <Gold.PLP.part.buried>
0.5298

> <Gold.PLP.part.nonpolar>
-35.2695

> <Gold.PLP.part.repulsive>
0.4615

> <Gold.PLP.ligand.clash>
0.0000

> <Gold.PLP.ligand.torsion>
0.8808

> <Gold.PLP.Chemscore.Hbond>
3.0000

> <Gold.PLP.Chemscore.CHOScore>
0.0000

> <Gold.PLP.Chemscore.Metal>
0.0000

> <Gold.Chemscore.Hbonds>
donor molecule, donor type, donor heavy atom, donor atom, acceptor molecule, acceptor atom, score
      L1  H     8    27       P1  7948  1.00
      L1  H    11    47       P1  7948  1.95

> <Gold.PLP.Chemscore.Internal.Correction>
0.0257

> <Gold.Rescore>
     Score         DG    S(hbond)    S(metal)    S(lipo)     H(rot)  DE(clash)    DE(int)     intcor
     14.68     -16.73       1.96        0.00      73.60       1.52       0.05       2.00       ----

> <Gold.Chemscore.Fitness>
14.6777

> <Gold.Chemscore.DG>
-16.7297

> <Gold.Chemscore.ZeroCoef>
-5.4800

> <Gold.Chemscore.Hbond>
1.9567

> <Gold.Chemscore.Metal>
0.0000

> <Gold.Chemscore.Lipo>
73.5981

> <Gold.Chemscore.Internal_Hbond>
0.0000

> <Gold.Chemscore.DEClash>
0.0529

> <Gold.Chemscore.DEInternal>
1.9991

> <Gold.Chemscore.Rot>
1.5221

> <Gold.Chemscore.Internal.Correction>
   9.000000E+99

> <Gold.Chemscore.Hbonds>
donor molecule, donor type, donor heavy atom, donor atom, acceptor molecule, acceptor atom, score
      L1  H     8    27       P1  7948  0.99
      L1  H    11    47       P1  7948  0.87

> <Gold.Chemscore.Hbond.Weighted>
-6.5354

> <Gold.Chemscore.Metal.Weighted>
-0.0000

> <Gold.Chemscore.Lipo.Weighted>
-8.6110

> <Gold.Chemscore.Internal_Hbond.Weighted>
0.0000

> <Gold.Chemscore.DEClash.Weighted>
0.0529

> <Gold.Chemscore.DEInternal.Weighted>
1.9991

> <Gold.Chemscore.Rot.Weighted>
3.8967

> <Gold.Chemscore.Internal.Correction.Weighted>
   9.000000E+99

> <Gold.Protein.RotatedTorsions>
[ 6907 6896 6895 6894 ] final -123.69 input  -60.11 | X-H torsion
[ 7974 7965 7964 7962 ] final -130.95 input  175.53 | X-H torsion
[ 8008 7997 7996 7995 ] final  -34.47 input   59.86 | X-H torsion
[ 10167 10162 10161 10158 ] final  -52.41 input  -65.29 | X-H torsion
[ 10718 10713 10712 10709 ] final   42.28 input   66.30 | X-H torsion
[ 10763 10752 10751 10750 ] final  171.77 input  -60.55 | X-H torsion
[ 11005 11000 10999 10996 ] final -178.70 input  -57.11 | X-H torsion

> <Gold.Protein.ActiveResidues>
 VAL166  LYS551  ARG553  GLY616  TRP617  ASP618  TYR619  PRO620  LYS621  CYS622 
 ASP623  PHE694  ASN695  SER759  ASP760  ASP761  ALA762  ILE779  LEU786  VAL792 
 PHE793  MET794  SER795  GLU796  ALA797  LYS798  CYS799  TRP800  GLU811  SER814 

> <Gold.Protein.RotatedAtoms>
  150.8696  133.7525  159.2965 H   0  0  0  0  0  0  0  0  0  0  0  0  # atno 6907 bound_to 6896
  151.5142  135.1064  159.9871 H   0  0  0  0  0  0  0  0  0  0  0  0  # atno 6908 bound_to 6896
  152.4685  133.7932  159.6969 H   0  0  0  0  0  0  0  0  0  0  0  0  # atno 6909 bound_to 6896
  144.9426  140.7255  143.4837 H   0  0  0  0  0  0  0  0  0  0  0  0  # atno 7974 bound_to 7965
  154.4120  140.1683  156.2055 H   0  0  0  0  0  0  0  0  0  0  0  0  # atno 8008 bound_to 7997
  155.9488  140.3402  155.6366 H   0  0  0  0  0  0  0  0  0  0  0  0  # atno 8009 bound_to 7997
  155.6896  140.0732  157.2444 H   0  0  0  0  0  0  0  0  0  0  0  0  # atno 8010 bound_to 7997
  140.6538  143.2585  151.4644 H   0  0  0  0  0  0  0  0  0  0  0  0  # atno 10167 bound_to 10162
  157.4031  130.7871  149.7365 H   0  0  0  0  0  0  0  0  0  0  0  0  # atno 10718 bound_to 10713
  154.4165  135.2757  155.2003 H   0  0  0  0  0  0  0  0  0  0  0  0  # atno 10763 bound_to 10752
  154.3966  135.6054  153.5877 H   0  0  0  0  0  0  0  0  0  0  0  0  # atno 10764 bound_to 10752
  152.9832  135.5916  154.4455 H   0  0  0  0  0  0  0  0  0  0  0  0  # atno 10765 bound_to 10752
  140.4269  134.6554  157.4692 H   0  0  0  0  0  0  0  0  0  0  0  0  # atno 11005 bound_to 11000
  145.2968  139.1864  143.4711 LP  0  0  0  0  0  0  0  0  0  0  0  0  # atno 17320 bound_to 7965
  146.3291  140.2953  142.8617 LP  0  0  0  0  0  0  0  0  0  0  0  0  # atno 17321 bound_to 7965
  139.5758  144.1823  152.1900 LP  0  0  0  0  0  0  0  0  0  0  0  0  # atno 17342 bound_to 10162
  140.1133  144.5437  150.6910 LP  0  0  0  0  0  0  0  0  0  0  0  0  # atno 17343 bound_to 10162
  155.9829  130.4005  150.3393 LP  0  0  0  0  0  0  0  0  0  0  0  0  # atno 17370 bound_to 10713
  157.1523  131.0324  151.2879 LP  0  0  0  0  0  0  0  0  0  0  0  0  # atno 17371 bound_to 10713
  140.0161  134.6617  155.9308 LP  0  0  0  0  0  0  0  0  0  0  0  0  # atno 17394 bound_to 11000
  141.1761  133.6540  156.4836 LP  0  0  0  0  0  0  0  0  0  0  0  0  # atno 17395 bound_to 11000

$$$$
