AV-unprocessed.smi:254|AV-procd|sdf|1948|dock3
  -GOLD-   2262021 83D 1   1.00000     0.00000
 Structure written by MMmdl.
 50 53  0  0  0  0  0  0  0  0  1 V2000
  142.3839  135.4158  153.3867 O   0  0  0  0  0  0  0  0  0  0  0  0
  143.3772  136.1353  153.4812 C   0  0  0  0  0  0  0  0  0  0  0  0
  143.7003  136.9424  154.7251 C   0  0  0  0  0  0  0  0  0  0  0  0
  144.9505  137.5827  154.3355 N   0  0  0  0  0  0  0  0  0  0  0  0
  145.6427  138.4192  155.1512 C   0  0  0  0  0  0  0  0  0  0  0  0
  145.2442  138.5251  156.4464 N   0  0  0  0  0  0  0  0  0  0  0  0
  145.8875  139.3340  157.2925 C   0  0  0  0  0  0  0  0  0  0  0  0
  146.9405  140.1175  157.0580 N   0  0  0  0  0  0  0  0  0  0  0  0
  147.3501  140.0175  155.7618 C   0  0  0  0  0  0  0  0  0  0  0  0
  146.7655  139.2029  154.7488 C   0  0  0  0  0  0  0  0  0  0  0  0
  147.4610  139.3773  153.5563 N   0  0  0  0  0  0  0  0  0  0  0  0
  148.3945  140.2414  153.8460 C   0  0  0  0  0  0  0  0  0  0  0  0
  148.4063  140.6712  155.1526 N   0  0  0  0  0  0  0  0  0  0  0  0
  149.3256  141.6252  155.7499 C   0  0  0  0  0  0  0  0  0  0  0  0
  150.2766  140.9975  156.8019 C   0  0  1  0  0  0  0  0  0  0  0  0
  150.9724  139.7304  156.2408 C   0  0  0  0  0  0  0  0  0  0  0  0
  151.8021  140.0276  155.1378 O   0  0  0  0  0  0  0  0  0  0  0  0
  151.2970  142.0551  157.3074 C   0  0  1  0  0  0  0  0  0  0  0  0
  150.6838  143.2329  158.0480 C   0  0  0  0  0  0  0  0  0  0  0  0
  151.8816  143.8200  158.7863 C   0  0  0  0  0  0  0  0  0  0  0  0
  152.7354  142.7190  159.0712 O   0  0  0  0  0  0  0  0  0  0  0  0
  152.2893  141.5639  158.3684 C   0  0  0  0  0  0  0  0  0  0  0  0
  145.3735  137.2125  152.9921 C   0  0  0  0  0  0  0  0  0  0  0  0
  144.3153  136.3216  152.5458 N   0  0  0  0  0  0  0  0  0  0  0  0
  144.3648  135.7038  151.2226 C   0  0  0  0  0  0  0  0  0  0  0  0
  144.4638  134.1694  151.2935 C   0  0  0  0  0  0  0  0  0  0  0  0
  145.4892  133.8383  152.0769 F   0  0  0  0  0  0  0  0  0  0  0  0
  143.3536  133.6367  151.8032 F   0  0  0  0  0  0  0  0  0  0  0  0
  144.6762  133.6621  150.0791 F   0  0  0  0  0  0  0  0  0  0  0  0
  142.9181  137.6748  154.9282 H   0  0  0  0  0  0  0  0  0  0  0  0
  143.8330  136.2898  155.5888 H   0  0  0  0  0  0  0  0  0  0  0  0
  145.5040  139.3557  158.3020 H   0  0  0  0  0  0  0  0  0  0  0  0
  149.1080  140.5854  153.1111 H   0  0  0  0  0  0  0  0  0  0  0  0
  149.9048  142.0950  154.9540 H   0  0  0  0  0  0  0  0  0  0  0  0
  148.7181  142.4123  156.1962 H   0  0  0  0  0  0  0  0  0  0  0  0
  149.6605  140.6910  157.6486 H   0  0  0  0  0  0  0  0  0  0  0  0
  151.6189  139.2660  156.9841 H   0  0  0  0  0  0  0  0  0  0  0  0
  150.2359  138.9797  155.9528 H   0  0  0  0  0  0  0  0  0  0  0  0
  152.6243  140.3629  155.4613 H   0  0  0  0  0  0  0  0  0  0  0  0
  151.8633  142.4430  156.4589 H   0  0  0  0  0  0  0  0  0  0  0  0
  150.2122  143.9621  157.3888 H   0  0  0  0  0  0  0  0  0  0  0  0
  149.9370  142.8849  158.7635 H   0  0  0  0  0  0  0  0  0  0  0  0
  152.4194  144.5182  158.1442 H   0  0  0  0  0  0  0  0  0  0  0  0
  151.5931  144.3481  159.6953 H   0  0  0  0  0  0  0  0  0  0  0  0
  151.7962  140.9020  159.0817 H   0  0  0  0  0  0  0  0  0  0  0  0
  153.1339  141.0276  157.9353 H   0  0  0  0  0  0  0  0  0  0  0  0
  145.4386  138.0861  152.3422 H   0  0  0  0  0  0  0  0  0  0  0  0
  146.3331  136.6937  153.0086 H   0  0  0  0  0  0  0  0  0  0  0  0
  143.4703  135.9873  150.6662 H   0  0  0  0  0  0  0  0  0  0  0  0
  145.2106  136.1071  150.6634 H   0  0  0  0  0  0  0  0  0  0  0  0
  1  2  2  0  0  0  0
  2 24  1  0  0  0  0
  2  3  1  0  0  0  0
  3  4  1  0  0  0  0
  3 30  1  0  0  0  0
  3 31  1  0  0  0  0
  4  5  1  0  0  0  0
  4 23  1  0  0  0  0
  5 10  1  0  0  0  0
  5  6  2  0  0  0  0
  6  7  1  0  0  0  0
  7  8  2  0  0  0  0
  7 32  1  0  0  0  0
  8  9  1  0  0  0  0
  9 13  1  0  0  0  0
  9 10  2  0  0  0  0
 10 11  1  0  0  0  0
 11 12  2  0  0  0  0
 12 13  1  0  0  0  0
 12 33  1  0  0  0  0
 13 14  1  0  0  0  0
 14 15  1  0  0  0  0
 14 34  1  0  0  0  0
 14 35  1  0  0  0  0
 15 16  1  0  0  0  0
 15 18  1  0  0  0  0
 15 36  1  0  0  0  0
 16 17  1  0  0  0  0
 16 37  1  0  0  0  0
 16 38  1  0  0  0  0
 17 39  1  0  0  0  0
 18 22  1  0  0  0  0
 18 19  1  0  0  0  0
 18 40  1  0  0  0  0
 19 20  1  0  0  0  0
 19 41  1  0  0  0  0
 19 42  1  0  0  0  0
 20 21  1  0  0  0  0
 20 43  1  0  0  0  0
 20 44  1  0  0  0  0
 21 22  1  0  0  0  0
 22 45  1  0  0  0  0
 22 46  1  0  0  0  0
 23 24  1  0  0  0  0
 23 47  1  0  0  0  0
 23 48  1  0  0  0  0
 24 25  1  0  0  0  0
 25 26  1  0  0  0  0
 25 49  1  0  0  0  0
 25 50  1  0  0  0  0
 26 27  1  0  0  0  0
 26 28  1  0  0  0  0
 26 29  1  0  0  0  0
M  END
> <s_m_source_file>
AV-unprocessed.smi

> <i_m_source_file_index>
254

> <i_lp_mmshare_version>
43012

> <i_f3d_flags>
0

> <s_epik_input>
RkMoRikoRilbQ0gyXU4xW0NIMl1OKFtDSDJdQzE9TyljKG5bY0hdbjIpYyhjMjMpbltjSF1uM1tDSDJdW0NASF0oW0NIMl1bT0hdKVtDQEBIXTRbQ0gyXVtDSDJdT1tDSDJdNA==

> <s_epik_cmdline>
J2VwaWtfcHl0aG9uJywgJy1waCcsICc3LjAnLCAnLXRuJywgJzgnLCAnLW1hJywgJzIwMCcsICctbWV0YWxfYmluZGluZycsICctaW1hZScsICc8aW5maWxlLm1hZT4nLCAnLW9tYWUnLCAnPG91dGZpbGUubWFlPic=

> <r_lp_tautomer_probability>
1

> <r_epik_Ionization_Penalty>
0.000292924

> <r_epik_Ionization_Penalty_Charging>
0

> <r_epik_Ionization_Penalty_Neutral>
0.000292924

> <r_epik_State_Penalty>
-0

> <r_epik_Charging_Adjusted_Penalty>
0

> <i_epik_Tot_Q>
0

> <i_epik_Tot_abs_Q>
0

> <r_epik_Metal_State_Penalty>
-0

> <b_epik_Metal_Only>
0

> <s_epik_Chemistry_Notes>
This compound contains an acetal/aminal-like group ( X-CH(R)-Y where X, Y are N, S, or O) that may be acid/base labile, releasing an aldehyde.

> <s_lp_Force_Field>
OPLS_2005

> <r_lp_Energy>
39.6801

> <b_lp_Chiralities_Consistent>
1

> <s_lp_Variant>
AV-unprocessed.smi:254-4

> <Gold.Version>
5.8.1

> <Gold.Id.Protein>
6NUR|6NUR_protein|mol2

> <Gold.PLP.Fitness>
40.4857

> <Gold.PLP.PLP>
-34.8166

> <Gold.PLP.part.hbond>
-1.0000

> <Gold.PLP.part.metal>
0.0000

> <Gold.PLP.part.buried>
-4.2487

> <Gold.PLP.part.nonpolar>
-30.0485

> <Gold.PLP.part.repulsive>
0.3635

> <Gold.PLP.ligand.clash>
0.0000

> <Gold.PLP.ligand.torsion>
0.2003

> <Gold.PLP.Chemscore.Hbond>
0.9440

> <Gold.PLP.Chemscore.CHOScore>
1.0000

> <Gold.PLP.Chemscore.Metal>
0.0000

> <Gold.Chemscore.Hbonds>
donor molecule, donor type, donor heavy atom, donor atom, acceptor molecule, acceptor atom, score
      P1  H  7989  7998       L1    17  0.93
      L1  C    12    33       P1  7957  1.00

> <Gold.PLP.Chemscore.Internal.Correction>
0.2377

> <Gold.Rescore>
     Score         DG    S(hbond)    S(metal)    S(lipo)     H(rot)  DE(clash)    DE(int)     intcor
      4.98      -7.78       0.78        0.00      69.51       3.30       0.22       2.59       ----

> <Gold.Chemscore.Fitness>
4.9765

> <Gold.Chemscore.DG>
-7.7811

> <Gold.Chemscore.ZeroCoef>
-5.4800

> <Gold.Chemscore.Hbond>
0.7813

> <Gold.Chemscore.Metal>
0.0000

> <Gold.Chemscore.Lipo>
69.5128

> <Gold.Chemscore.Internal_Hbond>
0.0000

> <Gold.Chemscore.DEClash>
0.2181

> <Gold.Chemscore.DEInternal>
2.5866

> <Gold.Chemscore.Rot>
3.2974

> <Gold.Chemscore.Internal.Correction>
   9.000000E+99

> <Gold.Chemscore.Hbonds>
donor molecule, donor type, donor heavy atom, donor atom, acceptor molecule, acceptor atom, score
      P1  H  7989  7998       L1    17  0.31

> <Gold.Chemscore.Hbond.Weighted>
-2.6096

> <Gold.Chemscore.Metal.Weighted>
-0.0000

> <Gold.Chemscore.Lipo.Weighted>
-8.1330

> <Gold.Chemscore.Internal_Hbond.Weighted>
0.0000

> <Gold.Chemscore.DEClash.Weighted>
0.2181

> <Gold.Chemscore.DEInternal.Weighted>
2.5866

> <Gold.Chemscore.Rot.Weighted>
8.4414

> <Gold.Chemscore.Internal.Correction.Weighted>
   9.000000E+99

> <Gold.Protein.RotatedTorsions>
[ 6907 6896 6895 6894 ] final   27.80 input  -60.11 | X-H torsion
[ 7974 7965 7964 7962 ] final   30.60 input  175.53 | X-H torsion
[ 8008 7997 7996 7995 ] final  -87.25 input   59.86 | X-H torsion
[ 10167 10162 10161 10158 ] final  167.19 input  -65.29 | X-H torsion
[ 10718 10713 10712 10709 ] final -179.30 input   66.30 | X-H torsion
[ 10763 10752 10751 10750 ] final   59.60 input  -60.55 | X-H torsion
[ 11005 11000 10999 10996 ] final  110.98 input  -57.11 | X-H torsion

> <Gold.Protein.ActiveResidues>
 VAL166  LYS551  ARG553  GLY616  TRP617  ASP618  TYR619  PRO620  LYS621  CYS622 
 ASP623  PHE694  ASN695  SER759  ASP760  ASP761  ALA762  ILE779  LEU786  VAL792 
 PHE793  MET794  SER795  GLU796  ALA797  LYS798  CYS799  TRP800  GLU811  SER814 

> <Gold.Protein.RotatedAtoms>
  152.0076  134.9894  160.0566 H   0  0  0  0  0  0  0  0  0  0  0  0  # atno 6907 bound_to 6896
  152.1460  133.4488  159.4798 H   0  0  0  0  0  0  0  0  0  0  0  0  # atno 6908 bound_to 6896
  150.6870  134.2166  159.4423 H   0  0  0  0  0  0  0  0  0  0  0  0  # atno 6909 bound_to 6896
  146.1602  139.6767  142.9039 H   0  0  0  0  0  0  0  0  0  0  0  0  # atno 7974 bound_to 7965
  154.6611  140.0568  157.0063 H   0  0  0  0  0  0  0  0  0  0  0  0  # atno 8008 bound_to 7997
  155.1227  140.3249  155.4475 H   0  0  0  0  0  0  0  0  0  0  0  0  # atno 8009 bound_to 7997
  156.2618  140.1995  156.6348 H   0  0  0  0  0  0  0  0  0  0  0  0  # atno 8010 bound_to 7997
  139.4940  144.3947  151.9477 H   0  0  0  0  0  0  0  0  0  0  0  0  # atno 10167 bound_to 10162
  156.8571  130.9739  151.3087 H   0  0  0  0  0  0  0  0  0  0  0  0  # atno 10718 bound_to 10713
  152.9898  135.5566  154.5738 H   0  0  0  0  0  0  0  0  0  0  0  0  # atno 10763 bound_to 10752
  154.5133  135.2803  155.1326 H   0  0  0  0  0  0  0  0  0  0  0  0  # atno 10764 bound_to 10752
  154.2709  135.6363  153.5362 H   0  0  0  0  0  0  0  0  0  0  0  0  # atno 10765 bound_to 10752
  139.8893  134.9497  156.6362 H   0  0  0  0  0  0  0  0  0  0  0  0  # atno 11005 bound_to 11000
  145.4608  141.0433  143.2752 LP  0  0  0  0  0  0  0  0  0  0  0  0  # atno 17320 bound_to 7965
  144.8016  139.6130  143.7069 LP  0  0  0  0  0  0  0  0  0  0  0  0  # atno 17321 bound_to 7965
  140.3385  144.3231  150.5972 LP  0  0  0  0  0  0  0  0  0  0  0  0  # atno 17342 bound_to 10162
  140.5585  143.2195  151.7805 LP  0  0  0  0  0  0  0  0  0  0  0  0  # atno 17343 bound_to 10162
  157.6271  130.8700  149.9208 LP  0  0  0  0  0  0  0  0  0  0  0  0  # atno 17370 bound_to 10713
  156.0797  130.3674  150.0606 LP  0  0  0  0  0  0  0  0  0  0  0  0  # atno 17371 bound_to 10713
  140.7629  133.8803  155.8432 LP  0  0  0  0  0  0  0  0  0  0  0  0  # atno 17394 bound_to 11000
  140.9907  134.1282  157.4410 LP  0  0  0  0  0  0  0  0  0  0  0  0  # atno 17395 bound_to 11000

$$$$
