AV-unprocessed.smi:49|AV-procd|sdf|480|dock3
  -GOLD-   2262016343D 1   1.00000     0.00000
 Structure written by MMmdl.
 28 29  0  0  0  0  0  0  0  0  2 V2000
  152.4806  141.9799  159.1980 C   0  0  0  0  0  0  0  0  0  0  0  0
  152.1276  140.5709  158.7095 C   0  0  0  0  0  0  0  0  0  0  0  0
  151.6508  140.5562  157.2943 C   0  0  0  0  0  0  0  0  0  0  0  0
  150.5059  141.1477  156.9237 N   0  0  0  0  0  0  0  0  0  0  0  0
  150.4429  140.8880  155.6095 C   0  0  0  0  0  0  0  0  0  0  0  0
  149.3046  141.3827  154.7677 C   0  0  1  0  0  0  0  0  0  0  0  0
  148.4679  140.2876  154.1024 C   0  0  0  0  0  0  0  0  0  0  0  0
  147.0825  140.9249  154.0549 C   0  0  1  0  0  0  0  0  0  0  0  0
  146.0566  139.9608  153.9493 O   0  0  0  0  0  0  0  0  0  0  0  0
  147.0101  141.7053  155.3726 C   0  0  0  0  0  0  0  0  0  0  0  0
  148.3990  142.0851  155.7018 N   0  3  0  0  0  0  0  0  0  0  0  0
  151.4876  140.1749  155.1699 N   0  0  0  0  0  0  0  0  0  0  0  0
  152.2788  139.9504  156.2826 N   0  0  0  0  0  0  0  0  0  0  0  0
  149.6611  142.0972  154.0241 H   0  0  0  0  0  0  0  0  0  0  0  0
  147.0233  141.6150  153.2120 H   0  0  0  0  0  0  0  0  0  0  0  0
  149.8544  141.6639  157.4972 H   0  0  0  0  0  0  0  0  0  0  0  0
  152.8221  141.9575  160.2330 H   0  0  0  0  0  0  0  0  0  0  0  0
  151.6154  142.6417  159.1475 H   0  0  0  0  0  0  0  0  0  0  0  0
  153.2746  142.4196  158.5940 H   0  0  0  0  0  0  0  0  0  0  0  0
  152.9963  139.9176  158.8005 H   0  0  0  0  0  0  0  0  0  0  0  0
  151.3505  140.1433  159.3442 H   0  0  0  0  0  0  0  0  0  0  0  0
  148.8495  139.9890  153.1256 H   0  0  0  0  0  0  0  0  0  0  0  0
  148.4382  139.4005  154.7380 H   0  0  0  0  0  0  0  0  0  0  0  0
  145.3055  140.3586  153.5353 H   0  0  0  0  0  0  0  0  0  0  0  0
  146.3580  142.5764  155.3075 H   0  0  0  0  0  0  0  0  0  0  0  0
  146.6411  141.0688  156.1783 H   0  0  0  0  0  0  0  0  0  0  0  0
  148.6029  141.7932  156.6476 H   0  0  0  0  0  0  0  0  0  0  0  0
  148.5272  143.0832  155.6177 H   0  0  0  0  0  0  0  0  0  0  0  0
  1  2  1  0  0  0  0
  1 17  1  0  0  0  0
  1 18  1  0  0  0  0
  1 19  1  0  0  0  0
  2 20  1  0  0  0  0
  2 21  1  0  0  0  0
  2  3  1  0  0  0  0
  3  4  1  0  0  0  0
  3 13  2  0  0  0  0
  4 16  1  0  0  0  0
  4  5  1  0  0  0  0
  5 12  2  0  0  0  0
  5  6  1  0  0  0  0
  6 14  1  0  0  0  0
  6 11  1  0  0  0  0
  6  7  1  0  0  0  0
  7  8  1  0  0  0  0
  7 22  1  0  0  0  0
  7 23  1  0  0  0  0
  8 15  1  0  0  0  0
  8  9  1  0  0  0  0
  8 10  1  0  0  0  0
  9 24  1  0  0  0  0
 10 11  1  0  0  0  0
 10 25  1  0  0  0  0
 10 26  1  0  0  0  0
 11 27  1  0  0  0  0
 11 28  1  0  0  0  0
 12 13  1  0  0  0  0
M  CHG  1  11   1
M  END
> <s_m_source_file>
AV-unprocessed.smi

> <i_m_source_file_index>
49

> <i_lp_mmshare_version>
43012

> <i_f3d_flags>
0

> <s_epik_input>
W0NIM11bQ0gyXWMxbmMobltuSF0xKVtDQEBIXTJbQ0gyXVtDQEBIXShbT0hdKVtDSDJdW05IXTI=

> <s_epik_cmdline>
J2VwaWtfcHl0aG9uJywgJy1waCcsICc3LjAnLCAnLXRuJywgJzgnLCAnLW1hJywgJzIwMCcsICctbWV0YWxfYmluZGluZycsICctaW1hZScsICc8aW5maWxlLm1hZT4nLCAnLW9tYWUnLCAnPG91dGZpbGUubWFlPic=

> <r_lp_tautomer_probability>
0.0517155

> <r_epik_Ionization_Penalty>
0.939819

> <r_epik_Ionization_Penalty_Charging>
0.0688988

> <r_epik_Ionization_Penalty_Neutral>
0.87092

> <r_epik_State_Penalty>
2.1224

> <r_epik_Charging_Adjusted_Penalty>
2.1913

> <i_epik_Tot_Q>
1

> <i_epik_Tot_abs_Q>
1

> <r_epik_Metal_State_Penalty>
2.39725

> <b_epik_Metal_Only>
0

> <s_lp_Force_Field>
OPLS_2005

> <r_lp_Energy>
21.0642

> <b_lp_Chiralities_Consistent>
1

> <s_lp_Variant>
AV-unprocessed.smi:49-18

> <Gold.Version>
5.8.1

> <Gold.Id.Protein>
6NUR|6NUR_protein|mol2

> <Gold.PLP.Fitness>
38.5609

> <Gold.PLP.PLP>
-23.6568

> <Gold.PLP.part.hbond>
-4.0000

> <Gold.PLP.part.metal>
0.0000

> <Gold.PLP.part.buried>
-2.9397

> <Gold.PLP.part.nonpolar>
-17.3638

> <Gold.PLP.part.repulsive>
0.1641

> <Gold.PLP.ligand.clash>
0.0000

> <Gold.PLP.ligand.torsion>
0.0291

> <Gold.PLP.Chemscore.Hbond>
4.9833

> <Gold.PLP.Chemscore.CHOScore>
0.0000

> <Gold.PLP.Chemscore.Metal>
0.0000

> <Gold.Chemscore.Hbonds>
donor molecule, donor type, donor heavy atom, donor atom, acceptor molecule, acceptor atom, score
      L1  H     9    24       P1 10175  1.00
      L1  H    11    28       P1  8028  2.00
      P1  H  7989  7998       L1    12  1.00
      P1  H  7997  8009       L1    13  0.93

> <Gold.PLP.Chemscore.Internal.Correction>
0.0125

> <Gold.Rescore>
     Score         DG    S(hbond)    S(metal)    S(lipo)     H(rot)  DE(clash)    DE(int)     intcor
     16.38     -16.91       3.48        0.00      39.51       1.89       0.05       0.47       ----

> <Gold.Chemscore.Fitness>
16.3824

> <Gold.Chemscore.DG>
-16.9066

> <Gold.Chemscore.ZeroCoef>
-5.4800

> <Gold.Chemscore.Hbond>
3.4845

> <Gold.Chemscore.Metal>
0.0000

> <Gold.Chemscore.Lipo>
39.5065

> <Gold.Chemscore.Internal_Hbond>
0.0000

> <Gold.Chemscore.DEClash>
0.0528

> <Gold.Chemscore.DEInternal>
0.4715

> <Gold.Chemscore.Rot>
1.8883

> <Gold.Chemscore.Internal.Correction>
   9.000000E+99

> <Gold.Chemscore.Hbonds>
donor molecule, donor type, donor heavy atom, donor atom, acceptor molecule, acceptor atom, score
      L1  H     9    24       P1 10175  0.98
      L1  H    11    28       P1  8028  1.00
      P1  H  7989  7998       L1    12  0.24
      P1  H  7997  8009       L1    13  0.78

> <Gold.Chemscore.Hbond.Weighted>
-11.6383

> <Gold.Chemscore.Metal.Weighted>
-0.0000

> <Gold.Chemscore.Lipo.Weighted>
-4.6223

> <Gold.Chemscore.Internal_Hbond.Weighted>
0.0000

> <Gold.Chemscore.DEClash.Weighted>
0.0528

> <Gold.Chemscore.DEInternal.Weighted>
0.4715

> <Gold.Chemscore.Rot.Weighted>
4.8340

> <Gold.Chemscore.Internal.Correction.Weighted>
   9.000000E+99

> <Gold.Protein.RotatedTorsions>
[ 6907 6896 6895 6894 ] final  -39.17 input  -60.11 | X-H torsion
[ 7974 7965 7964 7962 ] final  -52.30 input  175.53 | X-H torsion
[ 8008 7997 7996 7995 ] final -161.50 input   59.86 | X-H torsion
[ 10167 10162 10161 10158 ] final  -23.24 input  -65.29 | X-H torsion
[ 10718 10713 10712 10709 ] final -103.89 input   66.30 | X-H torsion
[ 10763 10752 10751 10750 ] final   73.98 input  -60.55 | X-H torsion
[ 11005 11000 10999 10996 ] final  -90.72 input  -57.11 | X-H torsion

> <Gold.Protein.ActiveResidues>
 VAL166  LYS551  ARG553  GLY616  TRP617  ASP618  TYR619  PRO620  LYS621  CYS622 
 ASP623  PHE694  ASN695  SER759  ASP760  ASP761  ALA762  ILE779  LEU786  VAL792 
 PHE793  MET794  SER795  GLU796  ALA797  LYS798  CYS799  TRP800  GLU811  SER814 

> <Gold.Protein.RotatedAtoms>
  150.9936  134.9265  159.7913 H   0  0  0  0  0  0  0  0  0  0  0  0  # atno 6907 bound_to 6896
  152.5258  134.3248  159.9171 H   0  0  0  0  0  0  0  0  0  0  0  0  # atno 6908 bound_to 6896
  151.3254  133.3981  159.2692 H   0  0  0  0  0  0  0  0  0  0  0  0  # atno 6909 bound_to 6896
  145.9095  140.7927  142.9702 H   0  0  0  0  0  0  0  0  0  0  0  0  # atno 7974 bound_to 7965
  155.7931  140.0881  157.1998 H   0  0  0  0  0  0  0  0  0  0  0  0  # atno 8008 bound_to 7997
  154.3984  140.1486  156.3244 H   0  0  0  0  0  0  0  0  0  0  0  0  # atno 8009 bound_to 7997
  155.8539  140.3433  155.5714 H   0  0  0  0  0  0  0  0  0  0  0  0  # atno 8010 bound_to 7997
  140.7287  143.4461  151.0584 H   0  0  0  0  0  0  0  0  0  0  0  0  # atno 10167 bound_to 10162
  156.0283  130.5489  150.7318 H   0  0  0  0  0  0  0  0  0  0  0  0  # atno 10718 bound_to 10713
  153.0556  135.5043  154.7974 H   0  0  0  0  0  0  0  0  0  0  0  0  # atno 10763 bound_to 10752
  154.6802  135.2967  154.9626 H   0  0  0  0  0  0  0  0  0  0  0  0  # atno 10764 bound_to 10752
  154.0415  135.6716  153.4843 H   0  0  0  0  0  0  0  0  0  0  0  0  # atno 10765 bound_to 10752
  141.1560  133.7710  156.9778 H   0  0  0  0  0  0  0  0  0  0  0  0  # atno 11005 bound_to 11000
  144.6742  140.1803  143.7406 LP  0  0  0  0  0  0  0  0  0  0  0  0  # atno 17320 bound_to 7965
  145.8690  139.2262  143.1672 LP  0  0  0  0  0  0  0  0  0  0  0  0  # atno 17321 bound_to 7965
  139.8133  143.7920  152.3173 LP  0  0  0  0  0  0  0  0  0  0  0  0  # atno 17342 bound_to 10162
  139.7977  144.7386  150.9867 LP  0  0  0  0  0  0  0  0  0  0  0  0  # atno 17343 bound_to 10162
  157.4909  131.0911  151.0428 LP  0  0  0  0  0  0  0  0  0  0  0  0  # atno 17370 bound_to 10713
  157.0835  130.5913  149.5425 LP  0  0  0  0  0  0  0  0  0  0  0  0  # atno 17371 bound_to 10713
  140.1086  134.9491  157.2031 LP  0  0  0  0  0  0  0  0  0  0  0  0  # atno 17394 bound_to 11000
  140.3224  134.2902  155.7244 LP  0  0  0  0  0  0  0  0  0  0  0  0  # atno 17395 bound_to 11000

$$$$
