AV-unprocessed.smi:767|AV-procd|sdf|3659|dock8
  -GOLD-   22720 1 73D 1   1.00000     0.00000
 Structure written by MMmdl.
 47 49  0  0  0  0  0  0  0  0  1 V2000
  155.0468  140.4013  160.8078 C   0  0  0  0  0  0  0  0  0  0  0  0
  153.9134  141.2581  160.2839 C   0  0  0  0  0  0  0  0  0  0  0  0
  153.5719  142.4701  160.9198 C   0  0  0  0  0  0  0  0  0  0  0  0
  152.5068  143.2256  160.3937 C   0  0  0  0  0  0  0  0  0  0  0  0
  151.8291  142.7455  159.2543 C   0  0  0  0  0  0  0  0  0  0  0  0
  150.6862  143.5334  158.6375 C   0  0  0  0  0  0  0  0  0  0  0  0
  149.3495  142.7650  158.6182 C   0  0  0  0  0  0  0  0  0  0  0  0
  148.1963  143.6385  158.4248 N   0  0  0  0  0  0  0  0  0  0  0  0
  146.9892  143.4561  158.9763 C   0  0  0  0  0  0  0  0  0  0  0  0
  146.6939  142.5025  159.6967 O   0  0  0  0  0  0  0  0  0  0  0  0
  146.1502  144.4511  158.6631 N   0  0  0  0  0  0  0  0  0  0  0  0
  144.7719  144.5679  159.1412 C   0  0  2  0  0  0  0  0  0  0  0  0
  144.1177  145.9135  158.7531 C   0  0  2  0  0  0  0  0  0  0  0  0
  144.7402  146.8741  157.7692 C   0  0  0  0  0  0  0  0  0  0  0  0
  145.4708  147.8670  158.6784 C   0  0  0  0  0  0  0  0  0  0  0  0
  145.6322  147.1805  159.9179 O   0  0  0  0  0  0  0  0  0  0  0  0
  144.4548  146.4101  160.1494 C   0  0  2  0  0  0  0  0  0  0  0  0
  144.6695  144.9631  160.6400 C   0  0  0  0  0  0  0  0  0  0  0  0
  143.4611  144.3623  161.3638 C   0  0  0  0  0  0  0  0  0  0  0  0
  145.8775  144.7315  161.5575 C   0  0  0  0  0  0  0  0  0  0  0  0
  152.2473  141.5194  158.6964 C   0  0  0  0  0  0  0  0  0  0  0  0
  153.2661  140.7865  159.1952 N   0  0  0  0  0  0  0  0  0  0  0  0
  155.6847  140.9669  161.4874 H   0  0  0  0  0  0  0  0  0  0  0  0
  155.6666  140.0373  159.9876 H   0  0  0  0  0  0  0  0  0  0  0  0
  154.6497  139.5413  161.3474 H   0  0  0  0  0  0  0  0  0  0  0  0
  154.1119  142.8159  161.7890 H   0  0  0  0  0  0  0  0  0  0  0  0
  152.2216  144.1601  160.8536 H   0  0  0  0  0  0  0  0  0  0  0  0
  150.5656  144.4683  159.1856 H   0  0  0  0  0  0  0  0  0  0  0  0
  150.9605  143.8156  157.6203 H   0  0  0  0  0  0  0  0  0  0  0  0
  149.3542  142.0527  157.7929 H   0  0  0  0  0  0  0  0  0  0  0  0
  149.2324  142.1782  159.5306 H   0  0  0  0  0  0  0  0  0  0  0  0
  148.3385  144.4581  157.8531 H   0  0  0  0  0  0  0  0  0  0  0  0
  146.4903  145.1963  158.0731 H   0  0  0  0  0  0  0  0  0  0  0  0
  144.1426  143.7158  158.8770 H   0  0  0  0  0  0  0  0  0  0  0  0
  143.0397  145.7977  158.6293 H   0  0  0  0  0  0  0  0  0  0  0  0
  145.4302  146.3767  157.0880 H   0  0  0  0  0  0  0  0  0  0  0  0
  143.9919  147.3806  157.1589 H   0  0  0  0  0  0  0  0  0  0  0  0
  146.4306  148.1831  158.2695 H   0  0  0  0  0  0  0  0  0  0  0  0
  144.8597  148.7556  158.8425 H   0  0  0  0  0  0  0  0  0  0  0  0
  143.6520  146.9702  160.6312 H   0  0  0  0  0  0  0  0  0  0  0  0
  143.2943  144.8387  162.3304 H   0  0  0  0  0  0  0  0  0  0  0  0
  143.5919  143.2941  161.5402 H   0  0  0  0  0  0  0  0  0  0  0  0
  142.5445  144.4820  160.7853 H   0  0  0  0  0  0  0  0  0  0  0  0
  145.7182  145.1635  162.5459 H   0  0  0  0  0  0  0  0  0  0  0  0
  146.7881  145.1827  161.1632 H   0  0  0  0  0  0  0  0  0  0  0  0
  146.0753  143.6680  161.6922 H   0  0  0  0  0  0  0  0  0  0  0  0
  151.7549  141.1177  157.8230 H   0  0  0  0  0  0  0  0  0  0  0  0
  1  2  1  0  0  0  0
  1 23  1  0  0  0  0
  1 24  1  0  0  0  0
  1 25  1  0  0  0  0
  2 22  1  0  0  0  0
  2  3  2  0  0  0  0
  3  4  1  0  0  0  0
  3 26  1  0  0  0  0
  4  5  2  0  0  0  0
  4 27  1  0  0  0  0
  5  6  1  0  0  0  0
  5 21  1  0  0  0  0
  6  7  1  0  0  0  0
  6 28  1  0  0  0  0
  6 29  1  0  0  0  0
  7  8  1  0  0  0  0
  7 30  1  0  0  0  0
  7 31  1  0  0  0  0
  8  9  1  0  0  0  0
  8 32  1  0  0  0  0
  9 10  2  0  0  0  0
  9 11  1  0  0  0  0
 11 12  1  0  0  0  0
 11 33  1  0  0  0  0
 12 18  1  0  0  0  0
 12 13  1  0  0  0  0
 12 34  1  0  0  0  0
 13 17  1  0  0  0  0
 13 14  1  0  0  0  0
 13 35  1  0  0  0  0
 14 15  1  0  0  0  0
 14 36  1  0  0  0  0
 14 37  1  0  0  0  0
 15 16  1  0  0  0  0
 15 38  1  0  0  0  0
 15 39  1  0  0  0  0
 16 17  1  0  0  0  0
 17 18  1  0  0  0  0
 17 40  1  0  0  0  0
 18 19  1  0  0  0  0
 18 20  1  0  0  0  0
 19 41  1  0  0  0  0
 19 42  1  0  0  0  0
 19 43  1  0  0  0  0
 20 44  1  0  0  0  0
 20 45  1  0  0  0  0
 20 46  1  0  0  0  0
 21 22  2  0  0  0  0
 21 47  1  0  0  0  0
M  END
> <s_m_source_file>
AV-unprocessed.smi

> <i_m_source_file_index>
767

> <i_lp_mmshare_version>
43012

> <i_f3d_flags>
0

> <s_epik_input>
W0NIM11jMVtjSF1bY0hdYyhbY0hdbjEpW0NIMl1bQ0gyXVtOSF1DKD1PKVtOSF1bQ0BIXTJDKFtDSDNdKShbQ0gzXSlbQ0BIXShbQ0BASF0yMylPW0NIMl1bQ0gyXTM=

> <s_epik_cmdline>
J2VwaWtfcHl0aG9uJywgJy1waCcsICc3LjAnLCAnLXRuJywgJzgnLCAnLW1hJywgJzIwMCcsICctbWV0YWxfYmluZGluZycsICctaW1hZScsICc8aW5maWxlLm1hZT4nLCAnLW9tYWUnLCAnPG91dGZpbGUubWFlPic=

> <r_epik_Ionization_Penalty>
0.0567523

> <r_epik_Ionization_Penalty_Charging>
0

> <r_epik_Ionization_Penalty_Neutral>
0.0567523

> <r_epik_State_Penalty>
0.0489186

> <r_epik_Charging_Adjusted_Penalty>
0.0489186

> <i_epik_Tot_Q>
0

> <i_epik_Tot_abs_Q>
0

> <r_epik_Metal_State_Penalty>
0.044622

> <b_epik_Metal_Only>
0

> <s_lp_Force_Field>
OPLS_2005

> <r_lp_Energy>
34.1608

> <b_lp_Chiralities_Consistent>
1

> <s_lp_Variant>
AV-unprocessed.smi:767-3

> <Gold.Version>
5.8.1

> <Gold.Id.Protein>
6NUR|6NUR_protein|mol2

> <Gold.PLP.Fitness>
42.7421

> <Gold.PLP.PLP>
-35.1960

> <Gold.PLP.part.hbond>
-4.0000

> <Gold.PLP.part.metal>
0.0000

> <Gold.PLP.part.buried>
-2.1350

> <Gold.PLP.part.nonpolar>
-29.3015

> <Gold.PLP.part.repulsive>
0.2718

> <Gold.PLP.ligand.clash>
0.0000

> <Gold.PLP.ligand.torsion>
0.3510

> <Gold.PLP.Chemscore.Hbond>
2.6840

> <Gold.PLP.Chemscore.CHOScore>
0.0000

> <Gold.PLP.Chemscore.Metal>
0.0000

> <Gold.Chemscore.Hbonds>
donor molecule, donor type, donor heavy atom, donor atom, acceptor molecule, acceptor atom, score
      L1  H     8    32       P1  8029  0.70
      L1  H    11    33       P1  8029  0.98
      P1  H  6934  6946       L1    10  1.00

> <Gold.PLP.Chemscore.Internal.Correction>
0.1961

> <Gold.Rescore>
     Score         DG    S(hbond)    S(metal)    S(lipo)     H(rot)  DE(clash)    DE(int)     intcor
     21.26     -22.40       2.22        0.00     112.85       1.45       0.73       0.41       ----

> <Gold.Chemscore.Fitness>
21.2576

> <Gold.Chemscore.DG>
-22.3959

> <Gold.Chemscore.ZeroCoef>
-5.4800

> <Gold.Chemscore.Hbond>
2.2225

> <Gold.Chemscore.Metal>
0.0000

> <Gold.Chemscore.Lipo>
112.8537

> <Gold.Chemscore.Internal_Hbond>
0.0000

> <Gold.Chemscore.DEClash>
0.7273

> <Gold.Chemscore.DEInternal>
0.4110

> <Gold.Chemscore.Rot>
1.4497

> <Gold.Chemscore.Internal.Correction>
   9.000000E+99

> <Gold.Chemscore.Hbonds>
donor molecule, donor type, donor heavy atom, donor atom, acceptor molecule, acceptor atom, score
      L1  H     8    32       P1  8029  0.07
      L1  H    11    33       P1  8029  0.88
      P1  H  6933  6944       L1    10  0.01
      P1  H  6934  6946       L1    10  0.95

> <Gold.Chemscore.Hbond.Weighted>
-7.4232

> <Gold.Chemscore.Metal.Weighted>
-0.0000

> <Gold.Chemscore.Lipo.Weighted>
-13.2039

> <Gold.Chemscore.Internal_Hbond.Weighted>
0.0000

> <Gold.Chemscore.DEClash.Weighted>
0.7273

> <Gold.Chemscore.DEInternal.Weighted>
0.4110

> <Gold.Chemscore.Rot.Weighted>
3.7112

> <Gold.Chemscore.Internal.Correction.Weighted>
   9.000000E+99

> <Gold.Protein.RotatedTorsions>
[ 6907 6896 6895 6894 ] final -145.67 input  -60.11 | X-H torsion
[ 7974 7965 7964 7962 ] final -117.79 input  175.53 | X-H torsion
[ 8008 7997 7996 7995 ] final  152.94 input   59.86 | X-H torsion
[ 10167 10162 10161 10158 ] final -148.35 input  -65.29 | X-H torsion
[ 10718 10713 10712 10709 ] final  -77.63 input   66.30 | X-H torsion
[ 10763 10752 10751 10750 ] final  116.94 input  -60.55 | X-H torsion
[ 11005 11000 10999 10996 ] final -124.83 input  -57.11 | X-H torsion

> <Gold.Protein.ActiveResidues>
 VAL166  LYS551  ARG553  GLY616  TRP617  ASP618  TYR619  PRO620  LYS621  CYS622 
 ASP623  PHE694  ASN695  SER759  ASP760  ASP761  ALA762  ILE779  LEU786  VAL792 
 PHE793  MET794  SER795  GLU796  ALA797  LYS798  CYS799  TRP800  GLU811  SER814 

> <Gold.Protein.RotatedAtoms>
  151.1310  133.5036  159.2598 H   0  0  0  0  0  0  0  0  0  0  0  0  # atno 6907 bound_to 6896
  151.1757  135.0338  159.8781 H   0  0  0  0  0  0  0  0  0  0  0  0  # atno 6908 bound_to 6896
  152.5460  134.1168  159.8435 H   0  0  0  0  0  0  0  0  0  0  0  0  # atno 6909 bound_to 6896
  145.0812  140.8427  143.4038 H   0  0  0  0  0  0  0  0  0  0  0  0  # atno 7974 bound_to 7965
  156.2605  140.2007  156.6413 H   0  0  0  0  0  0  0  0  0  0  0  0  # atno 8008 bound_to 7997
  154.6607  140.0561  157.0084 H   0  0  0  0  0  0  0  0  0  0  0  0  # atno 8009 bound_to 7997
  155.1280  140.3231  155.4484 H   0  0  0  0  0  0  0  0  0  0  0  0  # atno 8010 bound_to 7997
  139.7539  143.8476  152.2593 H   0  0  0  0  0  0  0  0  0  0  0  0  # atno 10167 bound_to 10162
  156.0139  130.4496  150.3374 H   0  0  0  0  0  0  0  0  0  0  0  0  # atno 10718 bound_to 10713
  153.5449  135.3551  155.2734 H   0  0  0  0  0  0  0  0  0  0  0  0  # atno 10763 bound_to 10752
  154.8713  135.4100  154.3002 H   0  0  0  0  0  0  0  0  0  0  0  0  # atno 10764 bound_to 10752
  153.3717  135.7064  153.6701 H   0  0  0  0  0  0  0  0  0  0  0  0  # atno 10765 bound_to 10752
  140.9810  134.0673  157.3764 H   0  0  0  0  0  0  0  0  0  0  0  0  # atno 11005 bound_to 11000
  145.1176  139.2715  143.5605 LP  0  0  0  0  0  0  0  0  0  0  0  0  # atno 17320 bound_to 7965
  146.3531  140.0790  142.8619 LP  0  0  0  0  0  0  0  0  0  0  0  0  # atno 17321 bound_to 7965
  139.8463  144.7186  150.9269 LP  0  0  0  0  0  0  0  0  0  0  0  0  # atno 17342 bound_to 10162
  140.7801  143.3939  151.1264 LP  0  0  0  0  0  0  0  0  0  0  0  0  # atno 17343 bound_to 10162
  157.1470  131.0311  151.2902 LP  0  0  0  0  0  0  0  0  0  0  0  0  # atno 17370 bound_to 10713
  157.4424  130.7551  149.7080 LP  0  0  0  0  0  0  0  0  0  0  0  0  # atno 17371 bound_to 10713
  139.8950  135.0139  156.6981 LP  0  0  0  0  0  0  0  0  0  0  0  0  # atno 17394 bound_to 11000
  140.7186  133.9160  155.8131 LP  0  0  0  0  0  0  0  0  0  0  0  0  # atno 17395 bound_to 11000

$$$$
