AV-unprocessed.smi:1538|AV-procd|sdf|6195|dock5
  -GOLD-   22720 6363D 1   1.00000     0.00000
 Structure written by MMmdl.
 36 37  0  0  0  0  0  0  0  0  1 V2000
  151.4093  145.3011  159.0831 C   0  0  0  0  0  0  0  0  0  0  0  0
  151.9307  143.9421  159.2402 N   0  0  0  0  0  0  0  0  0  0  0  0
  152.5772  143.6704  160.5320 C   0  0  0  0  0  0  0  0  0  0  0  0
  153.4723  142.4247  160.5199 C   0  0  0  0  0  0  0  0  0  0  0  0
  152.7260  141.2478  159.8785 C   0  0  2  0  0  0  0  0  0  0  0  0
  153.5822  139.9744  159.9155 C   0  0  0  0  0  0  0  0  0  0  0  0
  153.9450  139.4372  158.8683 O   0  0  0  0  0  0  0  0  0  0  0  0
  153.8973  139.5008  161.1309 N   0  0  0  0  0  0  0  0  0  0  0  0
  154.6898  138.3033  161.3828 C   0  0  0  0  0  0  0  0  0  0  0  0
  155.1630  138.2367  162.8441 C   0  0  0  0  0  0  0  0  0  0  0  0
  155.1977  136.8722  163.3285 N   0  0  0  0  0  0  0  0  0  0  0  0
  154.6273  136.3838  164.4963 C   0  0  0  0  0  0  0  0  0  0  0  0
  154.9131  135.0378  164.5398 C   0  0  0  0  0  0  0  0  0  0  0  0
  155.6529  134.6790  163.4154 N   0  0  0  0  0  0  0  0  0  0  0  0
  155.7817  135.8167  162.7450 C   0  0  0  0  0  0  0  0  0  0  0  0
  152.3361  141.6092  158.4310 C   0  0  0  0  0  0  0  0  0  0  0  0
  151.7431  143.0188  158.2662 C   0  0  0  0  0  0  0  0  0  0  0  0
  151.1355  143.2714  157.2253 O   0  0  0  0  0  0  0  0  0  0  0  0
  150.3418  145.2852  158.8580 H   0  0  0  0  0  0  0  0  0  0  0  0
  151.9229  145.8139  158.2688 H   0  0  0  0  0  0  0  0  0  0  0  0
  151.5394  145.8993  159.9857 H   0  0  0  0  0  0  0  0  0  0  0  0
  153.1725  144.5305  160.8419 H   0  0  0  0  0  0  0  0  0  0  0  0
  151.7929  143.5481  161.2799 H   0  0  0  0  0  0  0  0  0  0  0  0
  154.3851  142.6415  159.9623 H   0  0  0  0  0  0  0  0  0  0  0  0
  153.7797  142.1816  161.5381 H   0  0  0  0  0  0  0  0  0  0  0  0
  151.8122  141.0682  160.4486 H   0  0  0  0  0  0  0  0  0  0  0  0
  153.5606  140.0042  161.9390 H   0  0  0  0  0  0  0  0  0  0  0  0
  154.1144  137.4127  161.1241 H   0  0  0  0  0  0  0  0  0  0  0  0
  155.5507  138.3214  160.7136 H   0  0  0  0  0  0  0  0  0  0  0  0
  156.1603  138.6678  162.9433 H   0  0  0  0  0  0  0  0  0  0  0  0
  154.5019  138.8135  163.4921 H   0  0  0  0  0  0  0  0  0  0  0  0
  154.0798  137.0163  165.1798 H   0  0  0  0  0  0  0  0  0  0  0  0
  154.6450  134.3059  165.2875 H   0  0  0  0  0  0  0  0  0  0  0  0
  156.3129  135.8836  161.8068 H   0  0  0  0  0  0  0  0  0  0  0  0
  153.2071  141.5546  157.7763 H   0  0  0  0  0  0  0  0  0  0  0  0
  151.6194  140.8802  158.0502 H   0  0  0  0  0  0  0  0  0  0  0  0
  1  2  1  0  0  0  0
  1 19  1  0  0  0  0
  1 20  1  0  0  0  0
  1 21  1  0  0  0  0
  2 17  1  0  0  0  0
  2  3  1  0  0  0  0
  3  4  1  0  0  0  0
  3 22  1  0  0  0  0
  3 23  1  0  0  0  0
  4  5  1  0  0  0  0
  4 24  1  0  0  0  0
  4 25  1  0  0  0  0
  5  6  1  0  0  0  0
  5 16  1  0  0  0  0
  5 26  1  0  0  0  0
  6  7  2  0  0  0  0
  6  8  1  0  0  0  0
  8  9  1  0  0  0  0
  8 27  1  0  0  0  0
  9 10  1  0  0  0  0
  9 28  1  0  0  0  0
  9 29  1  0  0  0  0
 10 11  1  0  0  0  0
 10 30  1  0  0  0  0
 10 31  1  0  0  0  0
 11 15  1  0  0  0  0
 11 12  1  0  0  0  0
 12 13  2  0  0  0  0
 12 32  1  0  0  0  0
 13 14  1  0  0  0  0
 13 33  1  0  0  0  0
 14 15  2  0  0  0  0
 15 34  1  0  0  0  0
 16 17  1  0  0  0  0
 16 35  1  0  0  0  0
 16 36  1  0  0  0  0
 17 18  2  0  0  0  0
M  END
> <s_m_source_file>
AV-unprocessed.smi

> <i_m_source_file_index>
1538

> <i_lp_mmshare_version>
43012

> <i_f3d_flags>
0

> <s_epik_input>
W0NIM11OMVtDSDJdW0NIMl1bQ0BIXShbQ0gyXUMxPU8pQyg9TylbTkhdW0NIMl1bQ0gyXW4yW2NIXVtjSF1uW2NIXTI=

> <s_epik_cmdline>
J2VwaWtfcHl0aG9uJywgJy1waCcsICc3LjAnLCAnLXRuJywgJzgnLCAnLW1hJywgJzIwMCcsICctbWV0YWxfYmluZGluZycsICctaW1hZScsICc8aW5maWxlLm1hZT4nLCAnLW9tYWUnLCAnPG91dGZpbGUubWFlPic=

> <r_lp_tautomer_probability>
1

> <r_epik_Ionization_Penalty>
0.590576

> <r_epik_Ionization_Penalty_Charging>
0.590576

> <r_epik_Ionization_Penalty_Neutral>
2.97775e-08

> <r_epik_State_Penalty>
0.604111

> <r_epik_Charging_Adjusted_Penalty>
1.19469

> <i_epik_Tot_Q>
0

> <i_epik_Tot_abs_Q>
0

> <r_epik_Metal_State_Penalty>
0.298544

> <b_epik_Metal_Only>
0

> <s_lp_Force_Field>
OPLS_2005

> <r_lp_Energy>
14.6501

> <b_lp_Chiralities_Consistent>
1

> <s_lp_Variant>
AV-unprocessed.smi:1538-4

> <Gold.Version>
5.8.1

> <Gold.Id.Protein>
6NUR|6NUR_protein|mol2

> <Gold.PLP.Fitness>
41.0283

> <Gold.PLP.PLP>
-38.8942

> <Gold.PLP.part.hbond>
-1.0000

> <Gold.PLP.part.metal>
0.0000

> <Gold.PLP.part.buried>
-3.7383

> <Gold.PLP.part.nonpolar>
-34.8129

> <Gold.PLP.part.repulsive>
0.1882

> <Gold.PLP.ligand.clash>
0.0000

> <Gold.PLP.ligand.torsion>
0.4374

> <Gold.PLP.Chemscore.Hbond>
1.0000

> <Gold.PLP.Chemscore.CHOScore>
0.0000

> <Gold.PLP.Chemscore.Metal>
0.0000

> <Gold.Chemscore.Hbonds>
donor molecule, donor type, donor heavy atom, donor atom, acceptor molecule, acceptor atom, score
      P1  H  7997  8010       L1     7  1.00

> <Gold.PLP.Chemscore.Internal.Correction>
0.0089

> <Gold.Rescore>
     Score         DG    S(hbond)    S(metal)    S(lipo)     H(rot)  DE(clash)    DE(int)     intcor
     13.39     -13.89       1.00        0.00      86.77       1.98       0.09       0.41       ----

> <Gold.Chemscore.Fitness>
13.3877

> <Gold.Chemscore.DG>
-13.8919

> <Gold.Chemscore.ZeroCoef>
-5.4800

> <Gold.Chemscore.Hbond>
0.9952

> <Gold.Chemscore.Metal>
0.0000

> <Gold.Chemscore.Lipo>
86.7723

> <Gold.Chemscore.Internal_Hbond>
0.0000

> <Gold.Chemscore.DEClash>
0.0922

> <Gold.Chemscore.DEInternal>
0.4120

> <Gold.Chemscore.Rot>
1.9782

> <Gold.Chemscore.Internal.Correction>
   9.000000E+99

> <Gold.Chemscore.Hbonds>
donor molecule, donor type, donor heavy atom, donor atom, acceptor molecule, acceptor atom, score
      P1  H  7997  8010       L1     7  0.99

> <Gold.Chemscore.Hbond.Weighted>
-3.3239

> <Gold.Chemscore.Metal.Weighted>
-0.0000

> <Gold.Chemscore.Lipo.Weighted>
-10.1524

> <Gold.Chemscore.Internal_Hbond.Weighted>
0.0000

> <Gold.Chemscore.DEClash.Weighted>
0.0922

> <Gold.Chemscore.DEInternal.Weighted>
0.4120

> <Gold.Chemscore.Rot.Weighted>
5.0643

> <Gold.Chemscore.Internal.Correction.Weighted>
   9.000000E+99

> <Gold.Protein.RotatedTorsions>
[ 6907 6896 6895 6894 ] final   29.75 input  -60.11 | X-H torsion
[ 7974 7965 7964 7962 ] final    8.45 input  175.53 | X-H torsion
[ 8008 7997 7996 7995 ] final   19.04 input   59.86 | X-H torsion
[ 10167 10162 10161 10158 ] final   67.76 input  -65.29 | X-H torsion
[ 10718 10713 10712 10709 ] final -135.29 input   66.30 | X-H torsion
[ 10763 10752 10751 10750 ] final   33.98 input  -60.55 | X-H torsion
[ 11005 11000 10999 10996 ] final   89.06 input  -57.11 | X-H torsion

> <Gold.Protein.ActiveResidues>
 VAL166  LYS551  ARG553  GLY616  TRP617  ASP618  TYR619  PRO620  LYS621  CYS622 
 ASP623  PHE694  ASN695  SER759  ASP760  ASP761  ALA762  ILE779  LEU786  VAL792 
 PHE793  MET794  SER795  GLU796  ALA797  LYS798  CYS799  TRP800  GLU811  SER814 

> <Gold.Protein.RotatedAtoms>
  152.0361  134.9739  160.0573 H   0  0  0  0  0  0  0  0  0  0  0  0  # atno 6907 bound_to 6896
  152.1196  133.4341  159.4678 H   0  0  0  0  0  0  0  0  0  0  0  0  # atno 6908 bound_to 6896
  150.6848  134.2469  159.4538 H   0  0  0  0  0  0  0  0  0  0  0  0  # atno 6909 bound_to 6896
  146.2416  139.9931  142.8423 H   0  0  0  0  0  0  0  0  0  0  0  0  # atno 7974 bound_to 7965
  154.9149  140.3019  155.5247 H   0  0  0  0  0  0  0  0  0  0  0  0  # atno 8008 bound_to 7997
  156.3013  140.2382  156.4128 H   0  0  0  0  0  0  0  0  0  0  0  0  # atno 8009 bound_to 7997
  154.8388  140.0415  157.1516 H   0  0  0  0  0  0  0  0  0  0  0  0  # atno 8010 bound_to 7997
  140.0860  144.5029  150.7130 H   0  0  0  0  0  0  0  0  0  0  0  0  # atno 10167 bound_to 10162
  156.2646  130.7230  151.1176 H   0  0  0  0  0  0  0  0  0  0  0  0  # atno 10718 bound_to 10713
  153.0186  135.6372  154.1597 H   0  0  0  0  0  0  0  0  0  0  0  0  # atno 10763 bound_to 10752
  154.1333  135.2839  155.3181 H   0  0  0  0  0  0  0  0  0  0  0  0  # atno 10764 bound_to 10752
  154.6178  135.5535  153.7604 H   0  0  0  0  0  0  0  0  0  0  0  0  # atno 10765 bound_to 10752
  139.8883  134.8528  156.3089 H   0  0  0  0  0  0  0  0  0  0  0  0  # atno 11005 bound_to 11000
  145.1485  140.9610  143.4447 LP  0  0  0  0  0  0  0  0  0  0  0  0  # atno 17320 bound_to 7965
  145.0228  139.3409  143.6064 LP  0  0  0  0  0  0  0  0  0  0  0  0  # atno 17321 bound_to 7965
  140.7053  143.2463  151.4744 LP  0  0  0  0  0  0  0  0  0  0  0  0  # atno 17342 bound_to 10162
  139.5752  144.1836  152.1893 LP  0  0  0  0  0  0  0  0  0  0  0  0  # atno 17343 bound_to 10162
  157.7263  131.0647  150.5916 LP  0  0  0  0  0  0  0  0  0  0  0  0  # atno 17370 bound_to 10713
  156.6007  130.4354  149.5898 LP  0  0  0  0  0  0  0  0  0  0  0  0  # atno 17371 bound_to 10713
  140.9863  133.7236  156.0747 LP  0  0  0  0  0  0  0  0  0  0  0  0  # atno 17394 bound_to 11000
  140.7683  134.3861  157.5512 LP  0  0  0  0  0  0  0  0  0  0  0  0  # atno 17395 bound_to 11000

$$$$
