AV-unprocessed.smi:1464|AV-procd|sdf|5942|dock4
  -GOLD-   22720 6 23D 1   1.00000     0.00000
 Structure written by MMmdl.
 40 41  0  0  0  0  0  0  0  0  2 V2000
  151.9154  141.5553  158.6810 C   0  0  0  0  0  0  0  0  0  0  0  0
  150.8721  140.6948  157.9462 C   0  0  1  0  0  0  0  0  0  0  0  0
  150.4682  141.3799  156.6238 C   0  0  0  0  0  0  0  0  0  0  0  0
  149.4178  140.5724  155.8490 C   0  0  0  0  0  0  0  0  0  0  0  0
  149.9118  139.1427  155.5844 C   0  0  0  0  0  0  0  0  0  0  0  0
  150.3063  138.4250  156.8903 C   0  0  2  0  0  0  0  0  0  0  0  0
  149.1293  138.1731  157.7164 N   0  0  0  0  0  0  0  0  0  0  0  0
  148.9320  137.1393  158.5497 C   0  0  0  0  0  0  0  0  0  0  0  0
  149.7650  136.2506  158.7263 O   0  0  0  0  0  0  0  0  0  0  0  0
  147.5875  137.0816  159.2967 C   0  0  0  0  0  0  0  0  0  0  0  0
  147.6184  136.2873  160.5372 N   0  0  0  0  0  0  0  0  0  0  0  0
  147.9665  137.0608  161.7262 N   0  5  0  0  0  0  0  0  0  0  0  0
  147.9229  136.4588  162.9442 C   0  0  0  0  0  0  0  0  0  0  0  0
  148.1632  137.0552  163.9912 O   0  0  0  0  0  0  0  0  0  0  0  0
  147.5802  135.0472  162.9976 C   0  0  0  0  0  0  0  0  0  0  0  0
  147.2909  134.3506  161.8809 C   0  0  0  0  0  0  0  0  0  0  0  0
  147.2899  134.9637  160.5583 C   0  0  0  0  0  0  0  0  0  0  0  0
  146.9946  134.3411  159.5383 O   0  0  0  0  0  0  0  0  0  0  0  0
  151.3587  139.2403  157.6864 C   0  0  2  0  0  0  0  0  0  0  0  0
  151.7702  138.5048  158.9786 C   0  0  0  0  0  0  0  0  0  0  0  0
  152.8601  141.5851  158.1376 H   0  0  0  0  0  0  0  0  0  0  0  0
  152.1150  141.1787  159.6838 H   0  0  0  0  0  0  0  0  0  0  0  0
  151.5654  142.5818  158.7941 H   0  0  0  0  0  0  0  0  0  0  0  0
  149.9856  140.6522  158.5811 H   0  0  0  0  0  0  0  0  0  0  0  0
  150.0768  142.3774  156.8258 H   0  0  0  0  0  0  0  0  0  0  0  0
  151.3507  141.5177  155.9974 H   0  0  0  0  0  0  0  0  0  0  0  0
  148.4838  140.5464  156.4121 H   0  0  0  0  0  0  0  0  0  0  0  0
  149.1925  141.0668  154.9040 H   0  0  0  0  0  0  0  0  0  0  0  0
  149.1464  138.5759  155.0529 H   0  0  0  0  0  0  0  0  0  0  0  0
  150.7758  139.1794  154.9198 H   0  0  0  0  0  0  0  0  0  0  0  0
  150.7493  137.4622  156.6294 H   0  0  0  0  0  0  0  0  0  0  0  0
  148.3858  138.8546  157.6558 H   0  0  0  0  0  0  0  0  0  0  0  0
  147.2588  138.1003  159.5089 H   0  0  0  0  0  0  0  0  0  0  0  0
  146.8408  136.6732  158.6136 H   0  0  0  0  0  0  0  0  0  0  0  0
  147.5614  134.5449  163.9537 H   0  0  0  0  0  0  0  0  0  0  0  0
  147.0443  133.3029  161.9678 H   0  0  0  0  0  0  0  0  0  0  0  0
  152.2508  139.3003  157.0612 H   0  0  0  0  0  0  0  0  0  0  0  0
  150.9708  138.5150  159.7210 H   0  0  0  0  0  0  0  0  0  0  0  0
  152.6517  138.9547  159.4342 H   0  0  0  0  0  0  0  0  0  0  0  0
  152.0178  137.4630  158.7732 H   0  0  0  0  0  0  0  0  0  0  0  0
  1  2  1  0  0  0  0
  1 21  1  0  0  0  0
  1 22  1  0  0  0  0
  1 23  1  0  0  0  0
  2 19  1  0  0  0  0
  2  3  1  0  0  0  0
  2 24  1  0  0  0  0
  3  4  1  0  0  0  0
  3 25  1  0  0  0  0
  3 26  1  0  0  0  0
  4  5  1  0  0  0  0
  4 27  1  0  0  0  0
  4 28  1  0  0  0  0
  5  6  1  0  0  0  0
  5 29  1  0  0  0  0
  5 30  1  0  0  0  0
  6  7  1  0  0  0  0
  6 19  1  0  0  0  0
  6 31  1  0  0  0  0
  7  8  1  0  0  0  0
  7 32  1  0  0  0  0
  8  9  2  0  0  0  0
  8 10  1  0  0  0  0
 10 33  1  0  0  0  0
 10 34  1  0  0  0  0
 10 11  1  0  0  0  0
 11 12  1  0  0  0  0
 11 17  1  0  0  0  0
 12 13  1  0  0  0  0
 13 14  2  0  0  0  0
 13 15  1  0  0  0  0
 15 35  1  0  0  0  0
 15 16  2  0  0  0  0
 16 36  1  0  0  0  0
 16 17  1  0  0  0  0
 17 18  2  0  0  0  0
 19 20  1  0  0  0  0
 19 37  1  0  0  0  0
 20 38  1  0  0  0  0
 20 39  1  0  0  0  0
 20 40  1  0  0  0  0
M  CHG  1  12  -1
M  END
> <s_m_source_file>
AV-unprocessed.smi

> <i_m_source_file_index>
1464

> <i_lp_mmshare_version>
43012

> <i_f3d_flags>
0

> <s_epik_input>
W0NIM11bQ0BASF0xW0NIMl1bQ0gyXVtDSDJdW0NASF0oW0NASF0xW0NIM10pW05IXUMoPU8pW0NIMl1uMltuSF1jKD1PKVtjSF1bY0hdYzI9Tw==

> <s_epik_cmdline>
J2VwaWtfcHl0aG9uJywgJy1waCcsICc3LjAnLCAnLXRuJywgJzgnLCAnLW1hJywgJzIwMCcsICctbWV0YWxfYmluZGluZycsICctaW1hZScsICc8aW5maWxlLm1hZT4nLCAnLW9tYWUnLCAnPG91dGZpbGUubWFlPic=

> <r_lp_tautomer_probability>
1

> <r_epik_Ionization_Penalty>
0.101366

> <r_epik_Ionization_Penalty_Charging>
0.101366

> <r_epik_Ionization_Penalty_Neutral>
1.90469e-08

> <r_epik_State_Penalty>
0.035861

> <r_epik_Charging_Adjusted_Penalty>
0.137227

> <i_epik_Tot_Q>
-1

> <i_epik_Tot_abs_Q>
1

> <r_epik_Metal_State_Penalty>
0.035861

> <b_epik_Metal_Only>
0

> <s_lp_Force_Field>
OPLS_2005

> <r_lp_Energy>
23.814

> <b_lp_Chiralities_Consistent>
1

> <s_lp_Variant>
AV-unprocessed.smi:1464-8

> <Gold.Version>
5.8.1

> <Gold.Id.Protein>
6NUR|6NUR_protein|mol2

> <Gold.PLP.Fitness>
44.3588

> <Gold.PLP.PLP>
-33.3942

> <Gold.PLP.part.hbond>
-3.9785

> <Gold.PLP.part.metal>
0.0000

> <Gold.PLP.part.buried>
-3.3548

> <Gold.PLP.part.nonpolar>
-26.9184

> <Gold.PLP.part.repulsive>
0.1179

> <Gold.PLP.ligand.clash>
0.0000

> <Gold.PLP.ligand.torsion>
1.0703

> <Gold.PLP.Chemscore.Hbond>
4.3640

> <Gold.PLP.Chemscore.CHOScore>
0.0000

> <Gold.PLP.Chemscore.Metal>
0.0000

> <Gold.Chemscore.Hbonds>
donor molecule, donor type, donor heavy atom, donor atom, acceptor molecule, acceptor atom, score
      P1  H  6896  6909       L1     9  1.00
      P1  H  6931  6943       L1    12  2.00
      P1  H  6934  6947       L1    12  0.47

> <Gold.PLP.Chemscore.Internal.Correction>
0.0133

> <Gold.Rescore>
     Score         DG    S(hbond)    S(metal)    S(lipo)     H(rot)  DE(clash)    DE(int)     intcor
     14.04     -15.42       1.91        0.00      66.51       1.64       0.32       1.06       ----

> <Gold.Chemscore.Fitness>
14.0363

> <Gold.Chemscore.DG>
-15.4180

> <Gold.Chemscore.ZeroCoef>
-5.4800

> <Gold.Chemscore.Hbond>
1.9054

> <Gold.Chemscore.Metal>
0.0000

> <Gold.Chemscore.Lipo>
66.5114

> <Gold.Chemscore.Internal_Hbond>
0.0000

> <Gold.Chemscore.DEClash>
0.3177

> <Gold.Chemscore.DEInternal>
1.0640

> <Gold.Chemscore.Rot>
1.6438

> <Gold.Chemscore.Internal.Correction>
   9.000000E+99

> <Gold.Chemscore.Hbonds>
donor molecule, donor type, donor heavy atom, donor atom, acceptor molecule, acceptor atom, score
      P1  H  6896  6909       L1     9  0.96
      P1  H  6931  6943       L1    12  0.44
      P1  H  6934  6947       L1    12  0.03

> <Gold.Chemscore.Hbond.Weighted>
-6.3642

> <Gold.Chemscore.Metal.Weighted>
-0.0000

> <Gold.Chemscore.Lipo.Weighted>
-7.7818

> <Gold.Chemscore.Internal_Hbond.Weighted>
0.0000

> <Gold.Chemscore.DEClash.Weighted>
0.3177

> <Gold.Chemscore.DEInternal.Weighted>
1.0640

> <Gold.Chemscore.Rot.Weighted>
4.2080

> <Gold.Chemscore.Internal.Correction.Weighted>
   9.000000E+99

> <Gold.Protein.RotatedTorsions>
[ 6907 6896 6895 6894 ] final   63.91 input  -60.11 | X-H torsion
[ 7974 7965 7964 7962 ] final   73.56 input  175.53 | X-H torsion
[ 8008 7997 7996 7995 ] final  -79.93 input   59.86 | X-H torsion
[ 10167 10162 10161 10158 ] final  -97.28 input  -65.29 | X-H torsion
[ 10718 10713 10712 10709 ] final  120.85 input   66.30 | X-H torsion
[ 10763 10752 10751 10750 ] final   -8.90 input  -60.55 | X-H torsion
[ 11005 11000 10999 10996 ] final  113.10 input  -57.11 | X-H torsion

> <Gold.Protein.ActiveResidues>
 VAL166  LYS551  ARG553  GLY616  TRP617  ASP618  TYR619  PRO620  LYS621  CYS622 
 ASP623  PHE694  ASN695  SER759  ASP760  ASP761  ALA762  ILE779  LEU786  VAL792 
 PHE793  MET794  SER795  GLU796  ALA797  LYS798  CYS799  TRP800  GLU811  SER814 

> <Gold.Protein.RotatedAtoms>
  152.4290  134.5814  159.9948 H   0  0  0  0  0  0  0  0  0  0  0  0  # atno 6907 bound_to 6896
  151.5942  133.3357  159.3042 H   0  0  0  0  0  0  0  0  0  0  0  0  # atno 6908 bound_to 6896
  150.8181  134.7411  159.6813 H   0  0  0  0  0  0  0  0  0  0  0  0  # atno 6909 bound_to 6896
  145.7393  139.2714  143.1496 H   0  0  0  0  0  0  0  0  0  0  0  0  # atno 7974 bound_to 7965
  154.5833  140.0671  156.9135 H   0  0  0  0  0  0  0  0  0  0  0  0  # atno 8008 bound_to 7997
  155.2424  140.3345  155.4272 H   0  0  0  0  0  0  0  0  0  0  0  0  # atno 8009 bound_to 7997
  156.2205  140.1796  156.7473 H   0  0  0  0  0  0  0  0  0  0  0  0  # atno 8010 bound_to 7997
  140.2850  143.3257  152.0403 H   0  0  0  0  0  0  0  0  0  0  0  0  # atno 10167 bound_to 10162
  157.5860  131.1070  150.8093 H   0  0  0  0  0  0  0  0  0  0  0  0  # atno 10718 bound_to 10713
  153.4470  135.7014  153.6133 H   0  0  0  0  0  0  0  0  0  0  0  0  # atno 10763 bound_to 10752
  153.4483  135.3764  155.2269 H   0  0  0  0  0  0  0  0  0  0  0  0  # atno 10764 bound_to 10752
  154.8728  135.3991  154.3877 H   0  0  0  0  0  0  0  0  0  0  0  0  # atno 10765 bound_to 10752
  139.8944  134.9543  156.6687 H   0  0  0  0  0  0  0  0  0  0  0  0  # atno 11005 bound_to 11000
  146.0463  140.8114  142.9803 LP  0  0  0  0  0  0  0  0  0  0  0  0  # atno 17320 bound_to 7965
  144.6874  140.2986  143.7267 LP  0  0  0  0  0  0  0  0  0  0  0  0  # atno 17321 bound_to 7965
  139.4952  144.6565  151.6561 LP  0  0  0  0  0  0  0  0  0  0  0  0  # atno 17342 bound_to 10162
  140.5780  143.9995  150.6252 LP  0  0  0  0  0  0  0  0  0  0  0  0  # atno 17343 bound_to 10162
  156.8527  130.5086  149.5310 LP  0  0  0  0  0  0  0  0  0  0  0  0  # atno 17370 bound_to 10713
  156.0910  130.5895  150.9732 LP  0  0  0  0  0  0  0  0  0  0  0  0  # atno 17371 bound_to 10713
  140.7390  133.8993  155.8265 LP  0  0  0  0  0  0  0  0  0  0  0  0  # atno 17394 bound_to 11000
  141.0092  134.1043  157.4238 LP  0  0  0  0  0  0  0  0  0  0  0  0  # atno 17395 bound_to 11000

$$$$
