AV-unprocessed.smi:422|AV-procd|sdf|2536|dock10
  -GOLD-   2262022493D 1   1.00000     0.00000
 Structure written by MMmdl.
 43 45  0  0  0  0  0  0  0  0  1 V2000
  154.4337  140.4295  161.4582 C   0  0  0  0  0  0  0  0  0  0  0  0
  153.5962  141.0136  160.4177 N   0  0  0  0  0  0  0  0  0  0  0  0
  153.3286  140.4898  159.1985 C   0  0  0  0  0  0  0  0  0  0  0  0
  153.7462  139.4176  158.7614 O   0  0  0  0  0  0  0  0  0  0  0  0
  152.5042  141.3438  158.5481 N   0  0  0  0  0  0  0  0  0  0  0  0
  151.9450  141.1609  157.2117 C   0  0  0  0  0  0  0  0  0  0  0  0
  150.4510  141.5499  157.1684 C   0  0  2  0  0  0  0  0  0  0  0  0
  149.6976  140.5377  157.8042 O   0  0  0  0  0  0  0  0  0  0  0  0
  149.9266  141.6862  155.7313 C   0  0  0  0  0  0  0  0  0  0  0  0
  149.4363  140.4223  155.3169 O   0  0  0  0  0  0  0  0  0  0  0  0
  148.5893  140.4917  154.1839 C   0  0  0  0  0  0  0  0  0  0  0  0
  147.3054  141.2296  154.5087 C   0  0  0  0  0  0  0  0  0  0  0  0
  146.9779  142.4208  153.8270 C   0  0  0  0  0  0  0  0  0  0  0  0
  145.7817  143.1020  154.1263 C   0  0  0  0  0  0  0  0  0  0  0  0
  144.9098  142.5962  155.1096 C   0  0  0  0  0  0  0  0  0  0  0  0
  145.2352  141.4101  155.7951 C   0  0  0  0  0  0  0  0  0  0  0  0
  146.4312  140.7280  155.4979 C   0  0  0  0  0  0  0  0  0  0  0  0
  146.7361  139.5895  156.1658 F   0  0  0  0  0  0  0  0  0  0  0  0
  152.2126  142.4303  159.3856 C   0  0  0  0  0  0  0  0  0  0  0  0
  151.3945  143.5572  159.1922 C   0  0  0  0  0  0  0  0  0  0  0  0
  151.3070  144.4833  160.2575 C   0  0  0  0  0  0  0  0  0  0  0  0
  152.0200  144.2704  161.4662 C   0  0  0  0  0  0  0  0  0  0  0  0
  152.8343  143.1258  161.6356 C   0  0  0  0  0  0  0  0  0  0  0  0
  152.9026  142.2225  160.5611 C   0  0  0  0  0  0  0  0  0  0  0  0
  155.0223  139.5898  161.0857 H   0  0  0  0  0  0  0  0  0  0  0  0
  153.8143  140.0720  162.2811 H   0  0  0  0  0  0  0  0  0  0  0  0
  155.1270  141.1743  161.8501 H   0  0  0  0  0  0  0  0  0  0  0  0
  152.5196  141.7835  156.5249 H   0  0  0  0  0  0  0  0  0  0  0  0
  152.1028  140.1384  156.8636 H   0  0  0  0  0  0  0  0  0  0  0  0
  150.2748  142.4889  157.6956 H   0  0  0  0  0  0  0  0  0  0  0  0
  149.4103  140.8614  158.6446 H   0  0  0  0  0  0  0  0  0  0  0  0
  149.1421  142.4431  155.6799 H   0  0  0  0  0  0  0  0  0  0  0  0
  150.7298  141.9963  155.0607 H   0  0  0  0  0  0  0  0  0  0  0  0
  149.0936  141.0160  153.3708 H   0  0  0  0  0  0  0  0  0  0  0  0
  148.3632  139.4856  153.8279 H   0  0  0  0  0  0  0  0  0  0  0  0
  147.6401  142.8153  153.0703 H   0  0  0  0  0  0  0  0  0  0  0  0
  145.5332  144.0125  153.6011 H   0  0  0  0  0  0  0  0  0  0  0  0
  143.9926  143.1183  155.3388 H   0  0  0  0  0  0  0  0  0  0  0  0
  144.5672  141.0233  156.5504 H   0  0  0  0  0  0  0  0  0  0  0  0
  150.8516  143.7137  158.2728 H   0  0  0  0  0  0  0  0  0  0  0  0
  150.6888  145.3624  160.1493 H   0  0  0  0  0  0  0  0  0  0  0  0
  151.9383  144.9898  162.2674 H   0  0  0  0  0  0  0  0  0  0  0  0
  153.3770  142.9550  162.5536 H   0  0  0  0  0  0  0  0  0  0  0  0
  1  2  1  0  0  0  0
  1 25  1  0  0  0  0
  1 26  1  0  0  0  0
  1 27  1  0  0  0  0
  2 24  1  0  0  0  0
  2  3  1  0  0  0  0
  3  4  2  0  0  0  0
  3  5  1  0  0  0  0
  5  6  1  0  0  0  0
  5 19  1  0  0  0  0
  6  7  1  0  0  0  0
  6 28  1  0  0  0  0
  6 29  1  0  0  0  0
  7  8  1  0  0  0  0
  7  9  1  0  0  0  0
  7 30  1  0  0  0  0
  8 31  1  0  0  0  0
  9 10  1  0  0  0  0
  9 32  1  0  0  0  0
  9 33  1  0  0  0  0
 10 11  1  0  0  0  0
 11 12  1  0  0  0  0
 11 34  1  0  0  0  0
 11 35  1  0  0  0  0
 12 17  1  0  0  0  0
 12 13  2  0  0  0  0
 13 14  1  0  0  0  0
 13 36  1  0  0  0  0
 14 15  2  0  0  0  0
 14 37  1  0  0  0  0
 15 16  1  0  0  0  0
 15 38  1  0  0  0  0
 16 17  2  0  0  0  0
 16 39  1  0  0  0  0
 17 18  1  0  0  0  0
 19 24  2  0  0  0  0
 19 20  1  0  0  0  0
 20 21  2  0  0  0  0
 20 40  1  0  0  0  0
 21 22  1  0  0  0  0
 21 41  1  0  0  0  0
 22 23  2  0  0  0  0
 22 42  1  0  0  0  0
 23 24  1  0  0  0  0
 23 43  1  0  0  0  0
M  END
> <s_m_source_file>
AV-unprocessed.smi

> <i_m_source_file_index>
422

> <i_lp_mmshare_version>
43012

> <i_f3d_flags>
0

> <s_epik_input>
W2NIXTFbY0hdW2NIXVtjSF1jKGMxMiluKFtDSDNdKWMoPU8pbjJbQ0gyXVtDQEhdKFtPSF0pW0NIMl1PW0NIMl1jM1tjSF1bY0hdW2NIXVtjSF1jM0Y=

> <s_epik_cmdline>
J2VwaWtfcHl0aG9uJywgJy1waCcsICc3LjAnLCAnLXRuJywgJzgnLCAnLW1hJywgJzIwMCcsICctbWV0YWxfYmluZGluZycsICctaW1hZScsICc8aW5maWxlLm1hZT4nLCAnLW9tYWUnLCAnPG91dGZpbGUubWFlPic=

> <r_lp_tautomer_probability>
1

> <r_epik_Ionization_Penalty>
1.0795e-06

> <r_epik_Ionization_Penalty_Charging>
2.82452e-09

> <r_epik_Ionization_Penalty_Neutral>
1.07667e-06

> <r_epik_State_Penalty>
-0

> <r_epik_Charging_Adjusted_Penalty>
2.82452e-09

> <i_epik_Tot_Q>
0

> <i_epik_Tot_abs_Q>
0

> <r_epik_Metal_State_Penalty>
-0

> <b_epik_Metal_Only>
0

> <s_lp_Force_Field>
OPLS_2005

> <r_lp_Energy>
45.4687

> <b_lp_Chiralities_Consistent>
1

> <s_lp_Variant>
AV-unprocessed.smi:422-1

> <Gold.Version>
5.8.1

> <Gold.Id.Protein>
6NUR|6NUR_protein|mol2

> <Gold.PLP.Fitness>
51.4076

> <Gold.PLP.PLP>
-49.9796

> <Gold.PLP.part.hbond>
-1.0000

> <Gold.PLP.part.metal>
0.0000

> <Gold.PLP.part.buried>
-6.1683

> <Gold.PLP.part.nonpolar>
-42.5166

> <Gold.PLP.part.repulsive>
0.0799

> <Gold.PLP.ligand.clash>
0.0000

> <Gold.PLP.ligand.torsion>
0.8030

> <Gold.PLP.Chemscore.Hbond>
1.0000

> <Gold.PLP.Chemscore.CHOScore>
0.0000

> <Gold.PLP.Chemscore.Metal>
0.0000

> <Gold.Chemscore.Hbonds>
donor molecule, donor type, donor heavy atom, donor atom, acceptor molecule, acceptor atom, score
      P1  H  7997  8010       L1     4  1.00

> <Gold.PLP.Chemscore.Internal.Correction>
0.0339

> <Gold.Rescore>
     Score         DG    S(hbond)    S(metal)    S(lipo)     H(rot)  DE(clash)    DE(int)     intcor
     12.78     -17.72       0.78        0.00     134.39       2.38       1.95       2.99       ----

> <Gold.Chemscore.Fitness>
12.7752

> <Gold.Chemscore.DG>
-17.7172

> <Gold.Chemscore.ZeroCoef>
-5.4800

> <Gold.Chemscore.Hbond>
0.7810

> <Gold.Chemscore.Metal>
0.0000

> <Gold.Chemscore.Lipo>
134.3914

> <Gold.Chemscore.Internal_Hbond>
0.0000

> <Gold.Chemscore.DEClash>
1.9527

> <Gold.Chemscore.DEInternal>
2.9893

> <Gold.Chemscore.Rot>
2.3809

> <Gold.Chemscore.Internal.Correction>
   9.000000E+99

> <Gold.Chemscore.Hbonds>
donor molecule, donor type, donor heavy atom, donor atom, acceptor molecule, acceptor atom, score
      P1  H  7997  8010       L1     4  0.29

> <Gold.Chemscore.Hbond.Weighted>
-2.6084

> <Gold.Chemscore.Metal.Weighted>
-0.0000

> <Gold.Chemscore.Lipo.Weighted>
-15.7238

> <Gold.Chemscore.Internal_Hbond.Weighted>
0.0000

> <Gold.Chemscore.DEClash.Weighted>
1.9527

> <Gold.Chemscore.DEInternal.Weighted>
2.9893

> <Gold.Chemscore.Rot.Weighted>
6.0951

> <Gold.Chemscore.Internal.Correction.Weighted>
   9.000000E+99

> <Gold.Protein.RotatedTorsions>
[ 6907 6896 6895 6894 ] final -177.79 input  -60.11 | X-H torsion
[ 7974 7965 7964 7962 ] final  -47.72 input  175.53 | X-H torsion
[ 8008 7997 7996 7995 ] final   17.75 input   59.86 | X-H torsion
[ 10167 10162 10161 10158 ] final   45.02 input  -65.29 | X-H torsion
[ 10718 10713 10712 10709 ] final -106.62 input   66.30 | X-H torsion
[ 10763 10752 10751 10750 ] final  -93.98 input  -60.55 | X-H torsion
[ 11005 11000 10999 10996 ] final   31.00 input  -57.11 | X-H torsion

> <Gold.Protein.ActiveResidues>
 VAL166  LYS551  ARG553  GLY616  TRP617  ASP618  TYR619  PRO620  LYS621  CYS622 
 ASP623  PHE694  ASN695  SER759  ASP760  ASP761  ALA762  ILE779  LEU786  VAL792 
 PHE793  MET794  SER795  GLU796  ALA797  LYS798  CYS799  TRP800  GLU811  SER814 

> <Gold.Protein.RotatedAtoms>
  151.6268  133.3335  159.3099 H   0  0  0  0  0  0  0  0  0  0  0  0  # atno 6907 bound_to 6896
  150.8077  134.7217  159.6671 H   0  0  0  0  0  0  0  0  0  0  0  0  # atno 6908 bound_to 6896
  152.4173  134.6023  160.0055 H   0  0  0  0  0  0  0  0  0  0  0  0  # atno 6909 bound_to 6896
  145.9586  140.7501  142.9469 H   0  0  0  0  0  0  0  0  0  0  0  0  # atno 7974 bound_to 7965
  154.8959  140.2993  155.5344 H   0  0  0  0  0  0  0  0  0  0  0  0  # atno 8008 bound_to 7997
  156.3020  140.2416  156.3915 H   0  0  0  0  0  0  0  0  0  0  0  0  # atno 8009 bound_to 7997
  154.8571  140.0407  157.1630 H   0  0  0  0  0  0  0  0  0  0  0  0  # atno 8010 bound_to 7997
  140.3284  144.2619  150.6172 H   0  0  0  0  0  0  0  0  0  0  0  0  # atno 10167 bound_to 10162
  156.0398  130.5622  150.7707 H   0  0  0  0  0  0  0  0  0  0  0  0  # atno 10718 bound_to 10713
  154.7012  135.5174  153.8529 H   0  0  0  0  0  0  0  0  0  0  0  0  # atno 10763 bound_to 10752
  153.0705  135.6599  154.0267 H   0  0  0  0  0  0  0  0  0  0  0  0  # atno 10764 bound_to 10752
  154.0126  135.3001  155.3370 H   0  0  0  0  0  0  0  0  0  0  0  0  # atno 10765 bound_to 10752
  140.2885  134.2892  155.7782 H   0  0  0  0  0  0  0  0  0  0  0  0  # atno 11005 bound_to 11000
  144.6810  140.2553  143.7326 LP  0  0  0  0  0  0  0  0  0  0  0  0  # atno 17320 bound_to 7965
  145.8071  139.1988  143.2014 LP  0  0  0  0  0  0  0  0  0  0  0  0  # atno 17321 bound_to 7965
  140.5420  143.2222  151.8069 LP  0  0  0  0  0  0  0  0  0  0  0  0  # atno 17342 bound_to 10162
  139.4861  144.4588  151.9566 LP  0  0  0  0  0  0  0  0  0  0  0  0  # atno 17343 bound_to 10162
  157.5201  131.0931  151.0089 LP  0  0  0  0  0  0  0  0  0  0  0  0  # atno 17370 bound_to 10713
  157.0422  130.5753  149.5358 LP  0  0  0  0  0  0  0  0  0  0  0  0  # atno 17371 bound_to 10713
  141.2150  133.7570  156.9588 LP  0  0  0  0  0  0  0  0  0  0  0  0  # atno 17394 bound_to 11000
  140.1217  134.9412  157.2213 LP  0  0  0  0  0  0  0  0  0  0  0  0  # atno 17395 bound_to 11000

$$$$
