AV-unprocessed.smi:2673|AV-procd|sdf|10355|dock9
  -GOLD-   2272014383D 1   1.00000     0.00000
 Structure written by MMmdl.
 31 32  0  0  0  0  0  0  0  0  2 V2000
  149.6748  136.1779  158.8713 O   0  0  0  0  0  0  0  0  0  0  0  0
  149.0931  137.1940  159.2565 C   0  0  0  0  0  0  0  0  0  0  0  0
  148.2785  137.2815  160.3328 N   0  5  0  0  0  0  0  0  0  0  0  0
  147.8681  136.1654  160.9576 C   0  0  0  0  0  0  0  0  0  0  0  0
  147.6163  135.0229  160.2986 N   0  0  0  0  0  0  0  0  0  0  0  0
  147.2011  133.9924  161.1312 N   0  0  0  0  0  0  0  0  0  0  0  0
  147.1412  134.3891  162.4021 C   0  0  0  0  0  0  0  0  0  0  0  0
  147.5849  136.0569  162.6972 S   0  0  0  0  0  0  0  0  0  0  0  0
  149.2339  138.3605  158.6027 N   0  0  0  0  0  0  0  0  0  0  0  0
  150.0228  138.7098  157.4068 C   0  0  0  0  0  0  0  0  0  0  0  0
  150.4223  140.2030  157.6109 C   0  0  0  0  0  0  0  0  0  0  0  0
  151.1321  140.6948  156.5975 F   0  0  0  0  0  0  0  0  0  0  0  0
  149.3311  140.9593  157.7457 F   0  0  0  0  0  0  0  0  0  0  0  0
  151.1518  140.3388  158.7201 F   0  0  0  0  0  0  0  0  0  0  0  0
  151.2871  137.7975  157.3272 C   0  0  0  0  0  0  0  0  0  0  0  0
  152.0409  137.8738  155.9878 C   0  0  0  0  0  0  0  0  0  0  0  0
  151.1031  137.6177  154.8012 C   0  0  0  0  0  0  0  0  0  0  0  0
  149.9252  138.6001  154.8059 C   0  0  0  0  0  0  0  0  0  0  0  0
  149.1429  138.5349  156.1297 C   0  0  0  0  0  0  0  0  0  0  0  0
  146.8318  133.6964  163.1703 H   0  0  0  0  0  0  0  0  0  0  0  0
  148.7142  139.1310  158.9969 H   0  0  0  0  0  0  0  0  0  0  0  0
  151.9703  138.0237  158.1461 H   0  0  0  0  0  0  0  0  0  0  0  0
  151.0128  136.7530  157.4642 H   0  0  0  0  0  0  0  0  0  0  0  0
  152.5273  138.8419  155.8759 H   0  0  0  0  0  0  0  0  0  0  0  0
  152.8445  137.1369  155.9821 H   0  0  0  0  0  0  0  0  0  0  0  0
  151.6554  137.7030  153.8651 H   0  0  0  0  0  0  0  0  0  0  0  0
  150.7264  136.5950  154.8470 H   0  0  0  0  0  0  0  0  0  0  0  0
  150.2838  139.6118  154.6210 H   0  0  0  0  0  0  0  0  0  0  0  0
  149.2547  138.3685  153.9778 H   0  0  0  0  0  0  0  0  0  0  0  0
  148.6414  137.5687  156.1431 H   0  0  0  0  0  0  0  0  0  0  0  0
  148.3410  139.2733  156.1180 H   0  0  0  0  0  0  0  0  0  0  0  0
  1  2  2  0  0  0  0
  2  3  1  0  0  0  0
  2  9  1  0  0  0  0
  3  4  1  0  0  0  0
  4  8  1  0  0  0  0
  4  5  2  0  0  0  0
  5  6  1  0  0  0  0
  6  7  2  0  0  0  0
  7  8  1  0  0  0  0
  7 20  1  0  0  0  0
  9 10  1  0  0  0  0
  9 21  1  0  0  0  0
 10 19  1  0  0  0  0
 10 11  1  0  0  0  0
 10 15  1  0  0  0  0
 11 12  1  0  0  0  0
 11 13  1  0  0  0  0
 11 14  1  0  0  0  0
 15 16  1  0  0  0  0
 15 22  1  0  0  0  0
 15 23  1  0  0  0  0
 16 17  1  0  0  0  0
 16 24  1  0  0  0  0
 16 25  1  0  0  0  0
 17 18  1  0  0  0  0
 17 26  1  0  0  0  0
 17 27  1  0  0  0  0
 18 19  1  0  0  0  0
 18 28  1  0  0  0  0
 18 29  1  0  0  0  0
 19 30  1  0  0  0  0
 19 31  1  0  0  0  0
M  CHG  1   3  -1
M  END
> <s_m_source_file>
AV-unprocessed.smi

> <i_m_source_file_index>
2673

> <i_lp_mmshare_version>
43012

> <i_f3d_flags>
0

> <s_epik_input>
czFbY0hdbm5jMVtOSF1DKD1PKVtOSF1DMihDKEYpKEYpRilbQ0gyXVtDSDJdW0NIMl1bQ0gyXVtDSDJdMg==

> <s_epik_cmdline>
J2VwaWtfcHl0aG9uJywgJy1waCcsICc3LjAnLCAnLXRuJywgJzgnLCAnLW1hJywgJzIwMCcsICctbWV0YWxfYmluZGluZycsICctaW1hZScsICc8aW5maWxlLm1hZT4nLCAnLW9tYWUnLCAnPG91dGZpbGUubWFlPic=

> <r_epik_Ionization_Penalty>
0.0924979

> <r_epik_Ionization_Penalty_Charging>
0.057676

> <r_epik_Ionization_Penalty_Neutral>
0.0348219

> <r_epik_State_Penalty>
0.0765232

> <r_epik_Charging_Adjusted_Penalty>
0.134199

> <i_epik_Tot_Q>
-1

> <i_epik_Tot_abs_Q>
1

> <r_epik_Metal_State_Penalty>
0.0698334

> <b_epik_Metal_Only>
0

> <s_lp_Force_Field>
OPLS_2005

> <r_lp_Energy>
15.8773

> <b_lp_Chiralities_Consistent>
1

> <s_lp_Variant>
AV-unprocessed.smi:2673-1

> <Gold.Version>
5.8.1

> <Gold.Id.Protein>
6NUR|6NUR_protein|mol2

> <Gold.PLP.Fitness>
37.8502

> <Gold.PLP.PLP>
-29.7780

> <Gold.PLP.part.hbond>
-3.0000

> <Gold.PLP.part.metal>
0.0000

> <Gold.PLP.part.buried>
-5.5641

> <Gold.PLP.part.nonpolar>
-22.6333

> <Gold.PLP.part.repulsive>
0.1954

> <Gold.PLP.ligand.clash>
0.0000

> <Gold.PLP.ligand.torsion>
0.8326

> <Gold.PLP.Chemscore.Hbond>
3.2407

> <Gold.PLP.Chemscore.CHOScore>
0.0000

> <Gold.PLP.Chemscore.Metal>
0.0000

> <Gold.Chemscore.Hbonds>
donor molecule, donor type, donor heavy atom, donor atom, acceptor molecule, acceptor atom, score
      P1  H  6896  6908       L1     1  1.00
      P1  H  6931  6943       L1     3  1.31
      P1  H  6934  6947       L1     3  0.91

> <Gold.PLP.Chemscore.Internal.Correction>
0.0152

> <Gold.Rescore>
     Score         DG    S(hbond)    S(metal)    S(lipo)     H(rot)  DE(clash)    DE(int)     intcor
      9.56     -14.60       1.83        0.00      47.68       1.00       0.00       5.04       ----

> <Gold.Chemscore.Fitness>
9.5575

> <Gold.Chemscore.DG>
-14.5996

> <Gold.Chemscore.ZeroCoef>
-5.4800

> <Gold.Chemscore.Hbond>
1.8268

> <Gold.Chemscore.Metal>
0.0000

> <Gold.Chemscore.Lipo>
47.6752

> <Gold.Chemscore.Internal_Hbond>
0.0000

> <Gold.Chemscore.DEClash>
0.0048

> <Gold.Chemscore.DEInternal>
5.0373

> <Gold.Chemscore.Rot>
1.0000

> <Gold.Chemscore.Internal.Correction>
   9.000000E+99

> <Gold.Chemscore.Hbonds>
donor molecule, donor type, donor heavy atom, donor atom, acceptor molecule, acceptor atom, score
      P1  H  6896  6908       L1     1  0.91
      P1  H  6931  6943       L1     3  0.15
      P1  H  6934  6947       L1     3  0.39

> <Gold.Chemscore.Hbond.Weighted>
-6.1016

> <Gold.Chemscore.Metal.Weighted>
-0.0000

> <Gold.Chemscore.Lipo.Weighted>
-5.5780

> <Gold.Chemscore.Internal_Hbond.Weighted>
0.0000

> <Gold.Chemscore.DEClash.Weighted>
0.0048

> <Gold.Chemscore.DEInternal.Weighted>
5.0373

> <Gold.Chemscore.Rot.Weighted>
2.5600

> <Gold.Chemscore.Internal.Correction.Weighted>
   9.000000E+99

> <Gold.Protein.RotatedTorsions>
[ 6907 6896 6895 6894 ] final  167.39 input  -60.11 | X-H torsion
[ 7974 7965 7964 7962 ] final  120.29 input  175.53 | X-H torsion
[ 8008 7997 7996 7995 ] final  158.85 input   59.86 | X-H torsion
[ 10167 10162 10161 10158 ] final   71.98 input  -65.29 | X-H torsion
[ 10718 10713 10712 10709 ] final   -8.66 input   66.30 | X-H torsion
[ 10763 10752 10751 10750 ] final  159.92 input  -60.55 | X-H torsion
[ 11005 11000 10999 10996 ] final  108.21 input  -57.11 | X-H torsion

> <Gold.Protein.ActiveResidues>
 VAL166  LYS551  ARG553  GLY616  TRP617  ASP618  TYR619  PRO620  LYS621  CYS622 
 ASP623  PHE694  ASN695  SER759  ASP760  ASP761  ALA762  ILE779  LEU786  VAL792 
 PHE793  MET794  SER795  GLU796  ALA797  LYS798  CYS799  TRP800  GLU811  SER814 

> <Gold.Protein.RotatedAtoms>
  151.8641  133.3463  159.3713 H   0  0  0  0  0  0  0  0  0  0  0  0  # atno 6907 bound_to 6896
  150.7171  134.5177  159.5648 H   0  0  0  0  0  0  0  0  0  0  0  0  # atno 6908 bound_to 6896
  152.2697  134.7947  160.0467 H   0  0  0  0  0  0  0  0  0  0  0  0  # atno 6909 bound_to 6896
  145.1330  139.3315  143.4655 H   0  0  0  0  0  0  0  0  0  0  0  0  # atno 7974 bound_to 7965
  156.2276  140.1847  156.7323 H   0  0  0  0  0  0  0  0  0  0  0  0  # atno 8008 bound_to 7997
  154.5968  140.0642  156.9342 H   0  0  0  0  0  0  0  0  0  0  0  0  # atno 8009 bound_to 7997
  155.2243  140.3310  155.4314 H   0  0  0  0  0  0  0  0  0  0  0  0  # atno 8010 bound_to 7997
  140.0402  144.5395  150.7439 H   0  0  0  0  0  0  0  0  0  0  0  0  # atno 10167 bound_to 10162
  156.6993  130.5088  149.5921 H   0  0  0  0  0  0  0  0  0  0  0  0  # atno 10718 bound_to 10713
  154.2394  135.2775  155.2860 H   0  0  0  0  0  0  0  0  0  0  0  0  # atno 10763 bound_to 10752
  154.5558  135.5661  153.6966 H   0  0  0  0  0  0  0  0  0  0  0  0  # atno 10764 bound_to 10752
  153.0003  135.6285  154.2537 H   0  0  0  0  0  0  0  0  0  0  0  0  # atno 10765 bound_to 10752
  139.8840  134.9424  156.5938 H   0  0  0  0  0  0  0  0  0  0  0  0  # atno 11005 bound_to 11000
  146.3512  140.1336  142.8596 LP  0  0  0  0  0  0  0  0  0  0  0  0  # atno 17320 bound_to 7965
  145.0615  140.9091  143.4936 LP  0  0  0  0  0  0  0  0  0  0  0  0  # atno 17321 bound_to 7965
  140.7263  143.2640  151.4108 LP  0  0  0  0  0  0  0  0  0  0  0  0  # atno 17342 bound_to 10162
  139.6018  144.1279  152.2207 LP  0  0  0  0  0  0  0  0  0  0  0  0  # atno 17343 bound_to 10162
  156.1740  130.6456  151.0872 LP  0  0  0  0  0  0  0  0  0  0  0  0  # atno 17370 bound_to 10713
  157.6979  131.0787  150.6912 LP  0  0  0  0  0  0  0  0  0  0  0  0  # atno 17371 bound_to 10713
  140.7935  133.8563  155.8666 LP  0  0  0  0  0  0  0  0  0  0  0  0  # atno 17394 bound_to 11000
  140.9656  134.1599  157.4619 LP  0  0  0  0  0  0  0  0  0  0  0  0  # atno 17395 bound_to 11000

$$$$
