AV-unprocessed.smi:2026|AV-procd|sdf|8202|dock4
  -GOLD-   2272010463D 1   1.00000     0.00000
 Structure written by MMmdl.
 46 48  0  0  0  0  0  0  0  0  1 V2000
  150.7003  144.9896  160.3041 C   0  0  0  0  0  0  0  0  0  0  0  0
  151.6690  143.8332  160.4801 C   0  0  0  0  0  0  0  0  0  0  0  0
  152.3390  143.6786  161.7147 C   0  0  0  0  0  0  0  0  0  0  0  0
  153.2475  142.6169  161.9185 C   0  0  0  0  0  0  0  0  0  0  0  0
  154.0018  142.2807  163.0297 N   0  0  0  0  0  0  0  0  0  0  0  0
  154.6432  141.1977  162.5998 C   0  0  0  0  0  0  0  0  0  0  0  0
  154.3938  140.7924  161.3398 N   0  0  0  0  0  0  0  0  0  0  0  0
  154.9756  139.6480  160.6613 C   0  0  0  0  0  0  0  0  0  0  0  0
  153.9589  138.9042  159.7736 C   0  0  1  0  0  0  0  0  0  0  0  0
  154.6316  138.4056  158.6330 O   0  0  0  0  0  0  0  0  0  0  0  0
  153.3108  137.7224  160.5241 C   0  0  0  0  0  0  0  0  0  0  0  0
  154.3082  136.8943  161.2092 N   0  0  0  0  0  0  0  0  0  0  0  0
  154.7719  135.7220  160.7412 C   0  0  0  0  0  0  0  0  0  0  0  0
  154.4545  135.1776  159.6848 O   0  0  0  0  0  0  0  0  0  0  0  0
  155.6503  135.2338  161.6270 N   0  0  0  0  0  0  0  0  0  0  0  0
  155.8233  136.0924  162.7833 C   0  0  0  0  0  0  0  0  0  0  0  0
  155.3793  135.3749  164.0704 C   0  0  0  0  0  0  0  0  0  0  0  0
  157.2705  136.6096  162.8725 C   0  0  0  0  0  0  0  0  0  0  0  0
  154.8543  137.1981  162.3942 C   0  0  0  0  0  0  0  0  0  0  0  0
  154.6289  138.1929  163.0840 O   0  0  0  0  0  0  0  0  0  0  0  0
  153.4701  141.7065  160.8440 C   0  0  0  0  0  0  0  0  0  0  0  0
  152.8091  141.8498  159.6110 C   0  0  0  0  0  0  0  0  0  0  0  0
  151.9048  142.9161  159.4245 C   0  0  0  0  0  0  0  0  0  0  0  0
  151.1959  143.0612  158.0893 C   0  0  0  0  0  0  0  0  0  0  0  0
  150.6087  145.5762  161.2185 H   0  0  0  0  0  0  0  0  0  0  0  0
  149.7082  144.6214  160.0427 H   0  0  0  0  0  0  0  0  0  0  0  0
  151.0427  145.6558  159.5119 H   0  0  0  0  0  0  0  0  0  0  0  0
  152.1599  144.3767  162.5190 H   0  0  0  0  0  0  0  0  0  0  0  0
  155.3341  140.6657  163.2377 H   0  0  0  0  0  0  0  0  0  0  0  0
  155.8270  139.9855  160.0687 H   0  0  0  0  0  0  0  0  0  0  0  0
  155.3745  138.9732  161.4201 H   0  0  0  0  0  0  0  0  0  0  0  0
  153.1941  139.6104  159.4472 H   0  0  0  0  0  0  0  0  0  0  0  0
  154.0587  137.8036  158.1832 H   0  0  0  0  0  0  0  0  0  0  0  0
  152.5443  138.0747  161.2170 H   0  0  0  0  0  0  0  0  0  0  0  0
  152.7802  137.0875  159.8123 H   0  0  0  0  0  0  0  0  0  0  0  0
  156.1431  134.3594  161.5162 H   0  0  0  0  0  0  0  0  0  0  0  0
  155.4833  136.0240  164.9407 H   0  0  0  0  0  0  0  0  0  0  0  0
  155.9830  134.4849  164.2509 H   0  0  0  0  0  0  0  0  0  0  0  0
  154.3364  135.0584  164.0175 H   0  0  0  0  0  0  0  0  0  0  0  0
  157.4038  137.2639  163.7348 H   0  0  0  0  0  0  0  0  0  0  0  0
  157.5538  137.1747  161.9832 H   0  0  0  0  0  0  0  0  0  0  0  0
  157.9759  135.7844  162.9744 H   0  0  0  0  0  0  0  0  0  0  0  0
  152.9951  141.1433  158.8159 H   0  0  0  0  0  0  0  0  0  0  0  0
  151.5196  142.2972  157.3820 H   0  0  0  0  0  0  0  0  0  0  0  0
  151.4057  144.0355  157.6473 H   0  0  0  0  0  0  0  0  0  0  0  0
  150.1178  142.9635  158.2181 H   0  0  0  0  0  0  0  0  0  0  0  0
  1  2  1  0  0  0  0
  1 25  1  0  0  0  0
  1 26  1  0  0  0  0
  1 27  1  0  0  0  0
  2 23  1  0  0  0  0
  2  3  2  0  0  0  0
  3  4  1  0  0  0  0
  3 28  1  0  0  0  0
  4 21  2  0  0  0  0
  4  5  1  0  0  0  0
  5  6  2  0  0  0  0
  6  7  1  0  0  0  0
  6 29  1  0  0  0  0
  7  8  1  0  0  0  0
  7 21  1  0  0  0  0
  8  9  1  0  0  0  0
  8 30  1  0  0  0  0
  8 31  1  0  0  0  0
  9 10  1  0  0  0  0
  9 11  1  0  0  0  0
  9 32  1  0  0  0  0
 10 33  1  0  0  0  0
 11 12  1  0  0  0  0
 11 34  1  0  0  0  0
 11 35  1  0  0  0  0
 12 19  1  0  0  0  0
 12 13  1  0  0  0  0
 13 14  2  0  0  0  0
 13 15  1  0  0  0  0
 15 16  1  0  0  0  0
 15 36  1  0  0  0  0
 16 17  1  0  0  0  0
 16 18  1  0  0  0  0
 16 19  1  0  0  0  0
 17 37  1  0  0  0  0
 17 38  1  0  0  0  0
 17 39  1  0  0  0  0
 18 40  1  0  0  0  0
 18 41  1  0  0  0  0
 18 42  1  0  0  0  0
 19 20  2  0  0  0  0
 21 22  1  0  0  0  0
 22 23  2  0  0  0  0
 22 43  1  0  0  0  0
 23 24  1  0  0  0  0
 24 44  1  0  0  0  0
 24 45  1  0  0  0  0
 24 46  1  0  0  0  0
M  END
> <s_m_source_file>
AV-unprocessed.smi

> <i_m_source_file_index>
2026

> <i_lp_mmshare_version>
43012

> <i_f3d_flags>
0

> <s_epik_input>
W0NIM11jKFtjSF0xKWMoW0NIM10pW2NIXWMoYzEyKW4oW2NIXW4yKVtDSDJdW0NASF0oW09IXSlbQ0gyXU4oQzM9TylDKD1PKVtOSF1DMyhbQ0gzXSlbQ0gzXQ==

> <s_epik_cmdline>
J2VwaWtfcHl0aG9uJywgJy1waCcsICc3LjAnLCAnLXRuJywgJzgnLCAnLW1hJywgJzIwMCcsICctbWV0YWxfYmluZGluZycsICctaW1hZScsICc8aW5maWxlLm1hZT4nLCAnLW9tYWUnLCAnPG91dGZpbGUubWFlPic=

> <r_lp_tautomer_probability>
1

> <r_epik_Ionization_Penalty>
0.103994

> <r_epik_Ionization_Penalty_Charging>
0

> <r_epik_Ionization_Penalty_Neutral>
0.103994

> <r_epik_State_Penalty>
0.0938482

> <r_epik_Charging_Adjusted_Penalty>
0.0938482

> <i_epik_Tot_Q>
0

> <i_epik_Tot_abs_Q>
0

> <r_epik_Metal_State_Penalty>
0.106997

> <b_epik_Metal_Only>
0

> <s_lp_Force_Field>
OPLS_2005

> <r_lp_Energy>
23.8549

> <b_lp_Chiralities_Consistent>
1

> <s_lp_Variant>
AV-unprocessed.smi:2026-2

> <Gold.Version>
5.8.1

> <Gold.Id.Protein>
6NUR|6NUR_protein|mol2

> <Gold.PLP.Fitness>
51.3098

> <Gold.PLP.PLP>
-47.5000

> <Gold.PLP.part.hbond>
-2.7385

> <Gold.PLP.part.metal>
0.0000

> <Gold.PLP.part.buried>
-3.2660

> <Gold.PLP.part.nonpolar>
-41.3832

> <Gold.PLP.part.repulsive>
0.0859

> <Gold.PLP.ligand.clash>
0.0000

> <Gold.PLP.ligand.torsion>
1.1135

> <Gold.PLP.Chemscore.Hbond>
2.0000

> <Gold.PLP.Chemscore.CHOScore>
0.0000

> <Gold.PLP.Chemscore.Metal>
0.0000

> <Gold.Chemscore.Hbonds>
donor molecule, donor type, donor heavy atom, donor atom, acceptor molecule, acceptor atom, score
      P1  H  6896  6909       L1    14  0.83
      P1  H  7997  8010       L1    10  0.81

> <Gold.PLP.Chemscore.Internal.Correction>
0.0368

> <Gold.Rescore>
     Score         DG    S(hbond)    S(metal)    S(lipo)     H(rot)  DE(clash)    DE(int)     intcor
     15.58     -16.69       0.77        0.00     127.16       2.44       0.01       1.10       ----

> <Gold.Chemscore.Fitness>
15.5766

> <Gold.Chemscore.DG>
-16.6864

> <Gold.Chemscore.ZeroCoef>
-5.4800

> <Gold.Chemscore.Hbond>
0.7677

> <Gold.Chemscore.Metal>
0.0000

> <Gold.Chemscore.Lipo>
127.1609

> <Gold.Chemscore.Internal_Hbond>
0.0000

> <Gold.Chemscore.DEClash>
0.0111

> <Gold.Chemscore.DEInternal>
1.0987

> <Gold.Chemscore.Rot>
2.4358

> <Gold.Chemscore.Internal.Correction>
   9.000000E+99

> <Gold.Chemscore.Hbonds>
donor molecule, donor type, donor heavy atom, donor atom, acceptor molecule, acceptor atom, score
      P1  H  6896  6909       L1    14  0.62
      P1  H  7997  8010       L1    10  0.38

> <Gold.Chemscore.Hbond.Weighted>
-2.5643

> <Gold.Chemscore.Metal.Weighted>
-0.0000

> <Gold.Chemscore.Lipo.Weighted>
-14.8778

> <Gold.Chemscore.Internal_Hbond.Weighted>
0.0000

> <Gold.Chemscore.DEClash.Weighted>
0.0111

> <Gold.Chemscore.DEInternal.Weighted>
1.0987

> <Gold.Chemscore.Rot.Weighted>
6.2357

> <Gold.Chemscore.Internal.Correction.Weighted>
   9.000000E+99

> <Gold.Protein.RotatedTorsions>
[ 6907 6896 6895 6894 ] final -148.44 input  -60.11 | X-H torsion
[ 7974 7965 7964 7962 ] final  -56.77 input  175.53 | X-H torsion
[ 8008 7997 7996 7995 ] final    1.94 input   59.86 | X-H torsion
[ 10167 10162 10161 10158 ] final   48.75 input  -65.29 | X-H torsion
[ 10718 10713 10712 10709 ] final   70.52 input   66.30 | X-H torsion
[ 10763 10752 10751 10750 ] final -123.29 input  -60.55 | X-H torsion
[ 11005 11000 10999 10996 ] final   71.84 input  -57.11 | X-H torsion

> <Gold.Protein.ActiveResidues>
 VAL166  LYS551  ARG553  GLY616  TRP617  ASP618  TYR619  PRO620  LYS621  CYS622 
 ASP623  PHE694  ASN695  SER759  ASP760  ASP761  ALA762  ILE779  LEU786  VAL792 
 PHE793  MET794  SER795  GLU796  ALA797  LYS798  CYS799  TRP800  GLU811  SER814 

> <Gold.Protein.RotatedAtoms>
  151.1699  133.4791  159.2593 H   0  0  0  0  0  0  0  0  0  0  0  0  # atno 6907 bound_to 6896
  151.1366  135.0158  159.8617 H   0  0  0  0  0  0  0  0  0  0  0  0  # atno 6908 bound_to 6896
  152.5461  134.1597  159.8605 H   0  0  0  0  0  0  0  0  0  0  0  0  # atno 6909 bound_to 6896
  145.8589  140.8300  142.9947 H   0  0  0  0  0  0  0  0  0  0  0  0  # atno 7974 bound_to 7965
  154.6856  140.2642  155.6864 H   0  0  0  0  0  0  0  0  0  0  0  0  # atno 8008 bound_to 7997
  156.2713  140.2801  156.1339 H   0  0  0  0  0  0  0  0  0  0  0  0  # atno 8009 bound_to 7997
  155.0969  140.0374  157.2675 H   0  0  0  0  0  0  0  0  0  0  0  0  # atno 8010 bound_to 7997
  140.2900  144.3057  150.6243 H   0  0  0  0  0  0  0  0  0  0  0  0  # atno 10167 bound_to 10162
  157.6404  130.9481  150.0662 H   0  0  0  0  0  0  0  0  0  0  0  0  # atno 10718 bound_to 10713
  154.8705  135.4103  154.2920 H   0  0  0  0  0  0  0  0  0  0  0  0  # atno 10763 bound_to 10752
  153.3794  135.7011  153.6582 H   0  0  0  0  0  0  0  0  0  0  0  0  # atno 10764 bound_to 10752
  153.5411  135.3648  155.2690 H   0  0  0  0  0  0  0  0  0  0  0  0  # atno 10765 bound_to 10752
  139.9522  134.7207  156.0836 H   0  0  0  0  0  0  0  0  0  0  0  0  # atno 11005 bound_to 11000
  144.6727  140.1065  143.7458 LP  0  0  0  0  0  0  0  0  0  0  0  0  # atno 17320 bound_to 7965
  145.9272  139.2583  143.1347 LP  0  0  0  0  0  0  0  0  0  0  0  0  # atno 17321 bound_to 7965
  140.5740  143.2178  151.7548 LP  0  0  0  0  0  0  0  0  0  0  0  0  # atno 17342 bound_to 10162
  139.4940  144.4176  152.0013 LP  0  0  0  0  0  0  0  0  0  0  0  0  # atno 17343 bound_to 10162
  156.1680  130.3645  149.9206 LP  0  0  0  0  0  0  0  0  0  0  0  0  # atno 17370 bound_to 10713
  156.7188  130.8999  151.3616 LP  0  0  0  0  0  0  0  0  0  0  0  0  # atno 17371 bound_to 10713
  141.1187  133.6619  156.3159 LP  0  0  0  0  0  0  0  0  0  0  0  0  # atno 17394 bound_to 11000
  140.5693  134.5856  157.5453 LP  0  0  0  0  0  0  0  0  0  0  0  0  # atno 17395 bound_to 11000

$$$$
