AV-unprocessed.smi:3313|AV-procd|sdf|12729|dock3
  -GOLD-   2272019 73D 1   1.00000     0.00000
 Structure written by MMmdl.
 43 43  0  0  0  0  0  0  0  0  2 V2000
  143.8484  136.0905  151.7606 C   0  0  0  0  0  0  0  0  0  0  0  0
  145.1809  135.7572  151.0686 C   0  0  2  0  0  0  0  0  0  0  0  0
  145.8819  134.5318  151.7004 C   0  0  0  0  0  0  0  0  0  0  0  0
  145.2340  133.2765  151.3656 N   0  0  0  0  0  0  0  0  0  0  0  0
  145.7836  132.0128  151.3042 C   0  0  0  0  0  0  0  0  0  0  0  0
  144.7864  131.1543  150.9393 C   0  0  0  0  0  0  0  0  0  0  0  0
  143.6500  131.9981  150.7926 C   0  0  0  0  0  0  0  0  0  0  0  0
  143.9219  133.2681  151.0464 N   0  0  0  0  0  0  0  0  0  0  0  0
  146.0562  136.9512  151.0928 N   0  3  0  0  0  0  0  0  0  0  0  0
  145.9331  137.8039  152.2944 C   0  0  0  0  0  0  0  0  0  0  0  0
  146.7695  139.0864  152.1467 C   0  0  0  0  0  0  0  0  0  0  0  0
  147.3630  139.5599  153.4770 C   0  0  0  0  0  0  0  0  0  0  0  0
  146.6247  139.9965  154.3597 O   0  0  0  0  0  0  0  0  0  0  0  0
  148.7002  139.4685  153.5946 N   0  0  0  0  0  0  0  0  0  0  0  0
  149.5436  139.8409  154.7372 C   0  0  0  0  0  0  0  0  0  0  0  0
  148.8846  139.2434  155.9930 C   0  0  0  0  0  0  0  0  0  0  0  0
  149.6108  141.3756  154.8895 C   0  0  0  0  0  0  0  0  0  0  0  0
  150.9596  139.2473  154.5834 C   0  0  0  0  0  0  0  0  0  0  0  0
  143.1352  135.2700  151.6762 H   0  0  0  0  0  0  0  0  0  0  0  0
  143.3817  136.9675  151.3110 H   0  0  0  0  0  0  0  0  0  0  0  0
  143.9930  136.2974  152.8216 H   0  0  0  0  0  0  0  0  0  0  0  0
  144.9549  135.5352  150.0245 H   0  0  0  0  0  0  0  0  0  0  0  0
  146.9200  134.4625  151.3747 H   0  0  0  0  0  0  0  0  0  0  0  0
  145.9032  134.6287  152.7869 H   0  0  0  0  0  0  0  0  0  0  0  0
  146.8251  131.8306  151.5250 H   0  0  0  0  0  0  0  0  0  0  0  0
  144.8577  130.0862  150.7967 H   0  0  0  0  0  0  0  0  0  0  0  0
  142.6429  131.7281  150.5103 H   0  0  0  0  0  0  0  0  0  0  0  0
  147.0111  136.6242  151.0577 H   0  0  0  0  0  0  0  0  0  0  0  0
  144.8846  138.0571  152.4530 H   0  0  0  0  0  0  0  0  0  0  0  0
  146.2675  137.2438  153.1689 H   0  0  0  0  0  0  0  0  0  0  0  0
  147.5755  138.9171  151.4309 H   0  0  0  0  0  0  0  0  0  0  0  0
  146.1542  139.8908  151.7422 H   0  0  0  0  0  0  0  0  0  0  0  0
  149.1974  139.0970  152.7981 H   0  0  0  0  0  0  0  0  0  0  0  0
  149.4551  139.4800  156.8920 H   0  0  0  0  0  0  0  0  0  0  0  0
  148.8135  138.1568  155.9282 H   0  0  0  0  0  0  0  0  0  0  0  0
  147.8748  139.6309  156.1356 H   0  0  0  0  0  0  0  0  0  0  0  0
  148.6139  141.8125  154.9607 H   0  0  0  0  0  0  0  0  0  0  0  0
  150.1200  141.8503  154.0508 H   0  0  0  0  0  0  0  0  0  0  0  0
  150.1557  141.6564  155.7916 H   0  0  0  0  0  0  0  0  0  0  0  0
  151.5636  139.4386  155.4712 H   0  0  0  0  0  0  0  0  0  0  0  0
  151.4947  139.6756  153.7359 H   0  0  0  0  0  0  0  0  0  0  0  0
  150.9243  138.1669  154.4391 H   0  0  0  0  0  0  0  0  0  0  0  0
  145.8785  137.5073  150.2685 H   0  0  0  0  0  0  0  0  0  0  0  0
  1  2  1  0  0  0  0
  1 19  1  0  0  0  0
  1 20  1  0  0  0  0
  1 21  1  0  0  0  0
  2  3  1  0  0  0  0
  2  9  1  0  0  0  0
  2 22  1  0  0  0  0
  3  4  1  0  0  0  0
  3 23  1  0  0  0  0
  3 24  1  0  0  0  0
  4  8  1  0  0  0  0
  4  5  1  0  0  0  0
  5  6  2  0  0  0  0
  5 25  1  0  0  0  0
  6  7  1  0  0  0  0
  6 26  1  0  0  0  0
  7  8  2  0  0  0  0
  7 27  1  0  0  0  0
  9 10  1  0  0  0  0
  9 28  1  0  0  0  0
  9 43  1  0  0  0  0
 10 11  1  0  0  0  0
 10 29  1  0  0  0  0
 10 30  1  0  0  0  0
 11 12  1  0  0  0  0
 11 31  1  0  0  0  0
 11 32  1  0  0  0  0
 12 13  2  0  0  0  0
 12 14  1  0  0  0  0
 14 15  1  0  0  0  0
 14 33  1  0  0  0  0
 15 16  1  0  0  0  0
 15 17  1  0  0  0  0
 15 18  1  0  0  0  0
 16 34  1  0  0  0  0
 16 35  1  0  0  0  0
 16 36  1  0  0  0  0
 17 37  1  0  0  0  0
 17 38  1  0  0  0  0
 17 39  1  0  0  0  0
 18 40  1  0  0  0  0
 18 41  1  0  0  0  0
 18 42  1  0  0  0  0
M  CHG  1   9   1
M  END
> <s_m_source_file>
AV-unprocessed.smi

> <i_m_source_file_index>
3313

> <i_lp_mmshare_version>
43012

> <i_f3d_flags>
0

> <s_epik_input>
bjFbY0hdW2NIXVtjSF1uMVtDSDJdW0NAQEhdKFtDSDNdKVtOSF1bQ0gyXVtDSDJdQyg9TylbTkhdQyhbQ0gzXSkoW0NIM10pW0NIM10=

> <s_epik_cmdline>
J2VwaWtfcHl0aG9uJywgJy1waCcsICc3LjAnLCAnLXRuJywgJzgnLCAnLW1hJywgJzIwMCcsICctbWV0YWxfYmluZGluZycsICctaW1hZScsICc8aW5maWxlLm1hZT4nLCAnLW9tYWUnLCAnPG91dGZpbGUubWFlPic=

> <r_lp_tautomer_probability>
1

> <r_epik_Ionization_Penalty>
0.0056766

> <r_epik_Ionization_Penalty_Charging>
0.00567288

> <r_epik_Ionization_Penalty_Neutral>
3.71277e-06

> <r_epik_State_Penalty>
0.0041598

> <r_epik_Charging_Adjusted_Penalty>
0.00983268

> <i_epik_Tot_Q>
1

> <i_epik_Tot_abs_Q>
1

> <r_epik_Metal_State_Penalty>
-0

> <b_epik_Metal_Only>
0

> <s_lp_Force_Field>
OPLS_2005

> <r_lp_Energy>
7.49453

> <b_lp_Chiralities_Consistent>
1

> <s_lp_Variant>
AV-unprocessed.smi:3313-1

> <Gold.Version>
5.8.1

> <Gold.Id.Protein>
6NUR|6NUR_protein|mol2

> <Gold.PLP.Fitness>
48.7025

> <Gold.PLP.PLP>
-37.2610

> <Gold.PLP.part.hbond>
-2.9123

> <Gold.PLP.part.metal>
0.0000

> <Gold.PLP.part.buried>
-4.3231

> <Gold.PLP.part.nonpolar>
-31.3822

> <Gold.PLP.part.repulsive>
0.4721

> <Gold.PLP.ligand.clash>
0.0000

> <Gold.PLP.ligand.torsion>
1.3258

> <Gold.PLP.Chemscore.Hbond>
2.6726

> <Gold.PLP.Chemscore.CHOScore>
2.0000

> <Gold.PLP.Chemscore.Metal>
0.0000

> <Gold.Chemscore.Hbonds>
donor molecule, donor type, donor heavy atom, donor atom, acceptor molecule, acceptor atom, score
      L1  H     9    28       P1  7948  1.69
      L1  H     9    43       P1 10171  0.15
      L1  H    14    33       P1  7957  0.54
      L1  C     5    25       P1 10747  0.64
      L1  C     7    27       P1 10952  1.00

> <Gold.PLP.Chemscore.Internal.Correction>
0.0753

> <Gold.Rescore>
     Score         DG    S(hbond)    S(metal)    S(lipo)     H(rot)  DE(clash)    DE(int)     intcor
     12.66     -16.58       1.94        0.00      87.60       2.20       0.59       3.33       ----

> <Gold.Chemscore.Fitness>
12.6585

> <Gold.Chemscore.DG>
-16.5769

> <Gold.Chemscore.ZeroCoef>
-5.4800

> <Gold.Chemscore.Hbond>
1.9420

> <Gold.Chemscore.Metal>
0.0000

> <Gold.Chemscore.Lipo>
87.6040

> <Gold.Chemscore.Internal_Hbond>
0.0000

> <Gold.Chemscore.DEClash>
0.5851

> <Gold.Chemscore.DEInternal>
3.3333

> <Gold.Chemscore.Rot>
2.2027

> <Gold.Chemscore.Internal.Correction>
   9.000000E+99

> <Gold.Chemscore.Hbonds>
donor molecule, donor type, donor heavy atom, donor atom, acceptor molecule, acceptor atom, score
      L1  H     9    28       P1  7948  0.81
      L1  H     9    43       P1 10171  0.16
      L1  H    14    33       P1  7957  0.54

> <Gold.Chemscore.Hbond.Weighted>
-6.4862

> <Gold.Chemscore.Metal.Weighted>
-0.0000

> <Gold.Chemscore.Lipo.Weighted>
-10.2497

> <Gold.Chemscore.Internal_Hbond.Weighted>
0.0000

> <Gold.Chemscore.DEClash.Weighted>
0.5851

> <Gold.Chemscore.DEInternal.Weighted>
3.3333

> <Gold.Chemscore.Rot.Weighted>
5.6390

> <Gold.Chemscore.Internal.Correction.Weighted>
   9.000000E+99

> <Gold.Protein.RotatedTorsions>
[ 6907 6896 6895 6894 ] final   58.47 input  -60.11 | X-H torsion
[ 7974 7965 7964 7962 ] final   17.74 input  175.53 | X-H torsion
[ 8008 7997 7996 7995 ] final  170.01 input   59.86 | X-H torsion
[ 10167 10162 10161 10158 ] final -149.37 input  -65.29 | X-H torsion
[ 10718 10713 10712 10709 ] final  -15.93 input   66.30 | X-H torsion
[ 10763 10752 10751 10750 ] final   56.15 input  -60.55 | X-H torsion
[ 11005 11000 10999 10996 ] final    1.02 input  -57.11 | X-H torsion

> <Gold.Protein.ActiveResidues>
 VAL166  LYS551  ARG553  GLY616  TRP617  ASP618  TYR619  PRO620  LYS621  CYS622 
 ASP623  PHE694  ASN695  SER759  ASP760  ASP761  ALA762  ILE779  LEU786  VAL792 
 PHE793  MET794  SER795  GLU796  ALA797  LYS798  CYS799  TRP800  GLU811  SER814 

> <Gold.Protein.RotatedAtoms>
  152.3827  134.6566  160.0136 H   0  0  0  0  0  0  0  0  0  0  0  0  # atno 6907 bound_to 6896
  151.6824  133.3306  159.3231 H   0  0  0  0  0  0  0  0  0  0  0  0  # atno 6908 bound_to 6896
  150.7760  134.6705  159.6434 H   0  0  0  0  0  0  0  0  0  0  0  0  # atno 6909 bound_to 6896
  146.2208  139.8559  142.8614 H   0  0  0  0  0  0  0  0  0  0  0  0  # atno 7974 bound_to 7965
  156.1405  140.1549  156.8928 H   0  0  0  0  0  0  0  0  0  0  0  0  # atno 8008 bound_to 7997
  154.4983  140.0832  156.7783 H   0  0  0  0  0  0  0  0  0  0  0  0  # atno 8009 bound_to 7997
  155.4088  140.3418  155.4264 H   0  0  0  0  0  0  0  0  0  0  0  0  # atno 8010 bound_to 7997
  139.7448  143.8607  152.2572 H   0  0  0  0  0  0  0  0  0  0  0  0  # atno 10167 bound_to 10162
  156.5948  130.4808  149.6264 H   0  0  0  0  0  0  0  0  0  0  0  0  # atno 10718 bound_to 10713
  152.9827  135.5686  154.5183 H   0  0  0  0  0  0  0  0  0  0  0  0  # atno 10763 bound_to 10752
  154.4675  135.2783  155.1669 H   0  0  0  0  0  0  0  0  0  0  0  0  # atno 10764 bound_to 10752
  154.3231  135.6265  153.5570 H   0  0  0  0  0  0  0  0  0  0  0  0  # atno 10765 bound_to 10752
  140.6201  133.9669  155.8220 H   0  0  0  0  0  0  0  0  0  0  0  0  # atno 11005 bound_to 11000
  145.2754  141.0122  143.3748 LP  0  0  0  0  0  0  0  0  0  0  0  0  # atno 17320 bound_to 7965
  144.9191  139.4434  143.6550 LP  0  0  0  0  0  0  0  0  0  0  0  0  # atno 17321 bound_to 7965
  139.8568  144.7137  150.9148 LP  0  0  0  0  0  0  0  0  0  0  0  0  # atno 17342 bound_to 10162
  140.7791  143.3852  151.1407 LP  0  0  0  0  0  0  0  0  0  0  0  0  # atno 17343 bound_to 10162
  156.2519  130.6912  151.1652 LP  0  0  0  0  0  0  0  0  0  0  0  0  # atno 17370 bound_to 10713
  157.7294  131.0624  150.5773 LP  0  0  0  0  0  0  0  0  0  0  0  0  # atno 17371 bound_to 10713
  141.0748  134.0151  157.3473 LP  0  0  0  0  0  0  0  0  0  0  0  0  # atno 17394 bound_to 11000
  139.9157  135.0196  156.7870 LP  0  0  0  0  0  0  0  0  0  0  0  0  # atno 17395 bound_to 11000

$$$$
