AV-unprocessed.smi:1776|AV-procd|sdf|7175|dock4
  -GOLD-   22720 8413D 1   1.00000     0.00000
 Structure written by MMmdl.
 30 31  0  0  0  0  0  0  0  0  2 V2000
  153.3429  138.7856  156.4147 O   0  0  0  0  0  0  0  0  0  0  0  0
  152.1253  138.9639  156.3829 C   0  0  0  0  0  0  0  0  0  0  0  0
  151.4451  139.8280  157.1630 N   0  0  0  0  0  0  0  0  0  0  0  0
  151.8991  140.7037  158.1659 C   0  0  0  0  0  0  0  0  0  0  0  0
  151.6240  142.0365  158.2322 C   0  0  0  0  0  0  0  0  0  0  0  0
  152.1350  142.8873  159.2997 C   0  0  0  0  0  0  0  0  0  0  0  0
  151.7720  144.3537  159.4554 C   0  0  0  0  0  0  0  0  0  0  0  0
  152.2552  144.8500  160.5947 F   0  0  0  0  0  0  0  0  0  0  0  0
  152.2830  145.0571  158.4461 F   0  0  0  0  0  0  0  0  0  0  0  0
  150.4494  144.5215  159.4511 F   0  0  0  0  0  0  0  0  0  0  0  0
  152.8963  142.1835  160.2123 C   0  0  0  0  0  0  0  0  0  0  0  0
  153.2341  140.8758  160.2091 N   0  5  0  0  0  0  0  0  0  0  0  0
  152.7534  140.0900  159.2046 C   0  0  0  0  0  0  0  0  0  0  0  0
  153.0174  138.8884  159.1462 O   0  0  0  0  0  0  0  0  0  0  0  0
  151.2597  138.1557  155.4044 C   0  0  2  0  0  0  0  0  0  0  0  0
  149.7517  138.4852  155.5063 C   0  0  0  0  0  0  0  0  0  0  0  0
  149.0280  137.6649  154.5977 O   0  0  0  0  0  0  0  0  0  0  0  0
  149.2154  136.2858  154.8834 C   0  0  0  0  0  0  0  0  0  0  0  0
  150.7114  135.9520  154.7701 C   0  0  0  0  0  0  0  0  0  0  0  0
  151.4369  136.7680  155.6793 O   0  0  0  0  0  0  0  0  0  0  0  0
  150.4497  139.8753  156.9987 H   0  0  0  0  0  0  0  0  0  0  0  0
  151.0200  142.5211  157.4845 H   0  0  0  0  0  0  0  0  0  0  0  0
  153.2899  142.7572  161.0783 H   0  0  0  0  0  0  0  0  0  0  0  0
  151.6150  138.3714  154.3951 H   0  0  0  0  0  0  0  0  0  0  0  0
  149.3799  138.3335  156.5214 H   0  0  0  0  0  0  0  0  0  0  0  0
  149.5664  139.5283  155.2479 H   0  0  0  0  0  0  0  0  0  0  0  0
  148.8384  136.0510  155.8800 H   0  0  0  0  0  0  0  0  0  0  0  0
  148.6392  135.6929  154.1732 H   0  0  0  0  0  0  0  0  0  0  0  0
  150.8862  134.9043  155.0151 H   0  0  0  0  0  0  0  0  0  0  0  0
  151.0707  136.1094  153.7519 H   0  0  0  0  0  0  0  0  0  0  0  0
  1  2  2  0  0  0  0
  2  3  1  0  0  0  0
  2 15  1  0  0  0  0
  3  4  1  0  0  0  0
  3 21  1  0  0  0  0
  4 13  1  0  0  0  0
  4  5  2  0  0  0  0
  5  6  1  0  0  0  0
  5 22  1  0  0  0  0
  6  7  1  0  0  0  0
  6 11  2  0  0  0  0
  7  8  1  0  0  0  0
  7  9  1  0  0  0  0
  7 10  1  0  0  0  0
 11 12  1  0  0  0  0
 11 23  1  0  0  0  0
 12 13  1  0  0  0  0
 13 14  2  0  0  0  0
 15 20  1  0  0  0  0
 15 16  1  0  0  0  0
 15 24  1  0  0  0  0
 16 17  1  0  0  0  0
 16 25  1  0  0  0  0
 16 26  1  0  0  0  0
 17 18  1  0  0  0  0
 18 19  1  0  0  0  0
 18 27  1  0  0  0  0
 18 28  1  0  0  0  0
 19 20  1  0  0  0  0
 19 29  1  0  0  0  0
 19 30  1  0  0  0  0
M  CHG  1  12  -1
M  END
> <s_m_source_file>
AV-unprocessed.smi

> <i_m_source_file_index>
1776

> <i_lp_mmshare_version>
43012

> <i_f3d_flags>
0

> <s_epik_input>
TzFbQ0gyXVtDSDJdT1tDSDJdW0NASF0xQyg9TylbTkhdYzJbY0hdYyhDKEYpKEYpRilbY0hdW25IXWMyPU8=

> <s_epik_cmdline>
J2VwaWtfcHl0aG9uJywgJy1waCcsICc3LjAnLCAnLXRuJywgJzgnLCAnLW1hJywgJzIwMCcsICctbWV0YWxfYmluZGluZycsICctaW1hZScsICc8aW5maWxlLm1hZT4nLCAnLW9tYWUnLCAnPG91dGZpbGUubWFlPic=

> <r_epik_Ionization_Penalty>
2.46925

> <r_epik_Ionization_Penalty_Charging>
0.0509887

> <r_epik_Ionization_Penalty_Neutral>
2.41826

> <r_epik_State_Penalty>
2.57741

> <r_epik_Charging_Adjusted_Penalty>
2.6284

> <i_epik_Tot_Q>
-1

> <i_epik_Tot_abs_Q>
1

> <r_epik_Metal_State_Penalty>
0.510263

> <b_epik_Metal_Only>
0

> <s_lp_Force_Field>
OPLS_2005

> <r_lp_Energy>
25.1464

> <b_lp_Chiralities_Consistent>
1

> <s_lp_Variant>
AV-unprocessed.smi:1776-3

> <Gold.Version>
5.8.1

> <Gold.Id.Protein>
6NUR|6NUR_protein|mol2

> <Gold.PLP.Fitness>
36.6307

> <Gold.PLP.PLP>
-35.6552

> <Gold.PLP.part.hbond>
-1.5954

> <Gold.PLP.part.metal>
0.0000

> <Gold.PLP.part.buried>
-5.6760

> <Gold.PLP.part.nonpolar>
-28.5626

> <Gold.PLP.part.repulsive>
0.2855

> <Gold.PLP.ligand.clash>
0.9701

> <Gold.PLP.ligand.torsion>
0.5522

> <Gold.PLP.Chemscore.Hbond>
1.0000

> <Gold.PLP.Chemscore.CHOScore>
0.0000

> <Gold.PLP.Chemscore.Metal>
0.0000

> <Gold.Chemscore.Hbonds>
donor molecule, donor type, donor heavy atom, donor atom, acceptor molecule, acceptor atom, score
      P1  H  7997  8009       L1     1  0.99

> <Gold.PLP.Chemscore.Internal.Correction>
0.0501

> <Gold.Rescore>
     Score         DG    S(hbond)    S(metal)    S(lipo)     H(rot)  DE(clash)    DE(int)     intcor
     10.62     -13.70       0.97        0.00      64.59       1.00       0.05       3.03       ----

> <Gold.Chemscore.Fitness>
10.6211

> <Gold.Chemscore.DG>
-13.7016

> <Gold.Chemscore.ZeroCoef>
-5.4800

> <Gold.Chemscore.Hbond>
0.9654

> <Gold.Chemscore.Metal>
0.0000

> <Gold.Chemscore.Lipo>
64.5913

> <Gold.Chemscore.Internal_Hbond>
0.0000

> <Gold.Chemscore.DEClash>
0.0529

> <Gold.Chemscore.DEInternal>
3.0276

> <Gold.Chemscore.Rot>
1.0000

> <Gold.Chemscore.Internal.Correction>
   9.000000E+99

> <Gold.Chemscore.Hbonds>
donor molecule, donor type, donor heavy atom, donor atom, acceptor molecule, acceptor atom, score
      P1  H  7997  8009       L1     1  0.93

> <Gold.Chemscore.Hbond.Weighted>
-3.2244

> <Gold.Chemscore.Metal.Weighted>
-0.0000

> <Gold.Chemscore.Lipo.Weighted>
-7.5572

> <Gold.Chemscore.Internal_Hbond.Weighted>
0.0000

> <Gold.Chemscore.DEClash.Weighted>
0.0529

> <Gold.Chemscore.DEInternal.Weighted>
3.0276

> <Gold.Chemscore.Rot.Weighted>
2.5600

> <Gold.Chemscore.Internal.Correction.Weighted>
   9.000000E+99

> <Gold.Protein.RotatedTorsions>
[ 6907 6896 6895 6894 ] final   68.40 input  -60.11 | X-H torsion
[ 7974 7965 7964 7962 ] final   90.61 input  175.53 | X-H torsion
[ 8008 7997 7996 7995 ] final -177.33 input   59.86 | X-H torsion
[ 10167 10162 10161 10158 ] final  100.95 input  -65.29 | X-H torsion
[ 10718 10713 10712 10709 ] final  138.08 input   66.30 | X-H torsion
[ 10763 10752 10751 10750 ] final -171.22 input  -60.55 | X-H torsion
[ 11005 11000 10999 10996 ] final  -90.83 input  -57.11 | X-H torsion

> <Gold.Protein.ActiveResidues>
 VAL166  LYS551  ARG553  GLY616  TRP617  ASP618  TYR619  PRO620  LYS621  CYS622 
 ASP623  PHE694  ASN695  SER759  ASP760  ASP761  ALA762  ILE779  LEU786  VAL792 
 PHE793  MET794  SER795  GLU796  ALA797  LYS798  CYS799  TRP800  GLU811  SER814 

> <Gold.Protein.RotatedAtoms>
  152.4618  134.5167  159.9769 H   0  0  0  0  0  0  0  0  0  0  0  0  # atno 6907 bound_to 6896
  151.5214  133.3460  159.2910 H   0  0  0  0  0  0  0  0  0  0  0  0  # atno 6908 bound_to 6896
  150.8584  134.7959  159.7126 H   0  0  0  0  0  0  0  0  0  0  0  0  # atno 6909 bound_to 6896
  145.5167  139.2278  143.2694 H   0  0  0  0  0  0  0  0  0  0  0  0  # atno 7974 bound_to 7965
  156.0056  140.1230  157.0504 H   0  0  0  0  0  0  0  0  0  0  0  0  # atno 8008 bound_to 7997
  154.4257  140.1098  156.5827 H   0  0  0  0  0  0  0  0  0  0  0  0  # atno 8009 bound_to 7997
  155.6151  140.3472  155.4636 H   0  0  0  0  0  0  0  0  0  0  0  0  # atno 8010 bound_to 7997
  139.7481  144.6992  151.0474 H   0  0  0  0  0  0  0  0  0  0  0  0  # atno 10167 bound_to 10162
  157.4292  131.1047  151.0269 H   0  0  0  0  0  0  0  0  0  0  0  0  # atno 10718 bound_to 10713
  154.6329  135.2889  155.0195 H   0  0  0  0  0  0  0  0  0  0  0  0  # atno 10763 bound_to 10752
  154.1350  135.6527  153.4934 H   0  0  0  0  0  0  0  0  0  0  0  0  # atno 10764 bound_to 10752
  153.0288  135.5319  154.7163 H   0  0  0  0  0  0  0  0  0  0  0  0  # atno 10765 bound_to 10752
  141.1558  133.7717  156.9793 H   0  0  0  0  0  0  0  0  0  0  0  0  # atno 11005 bound_to 11000
  146.2132  140.5976  142.9050 LP  0  0  0  0  0  0  0  0  0  0  0  0  # atno 17320 bound_to 7965
  144.7698  140.5612  143.6678 LP  0  0  0  0  0  0  0  0  0  0  0  0  # atno 17321 bound_to 7965
  140.7794  143.4842  150.9978 LP  0  0  0  0  0  0  0  0  0  0  0  0  # atno 17342 bound_to 10162
  139.8530  143.7413  152.3177 LP  0  0  0  0  0  0  0  0  0  0  0  0  # atno 17343 bound_to 10162
  157.1171  130.6046  149.5496 LP  0  0  0  0  0  0  0  0  0  0  0  0  # atno 17370 bound_to 10713
  155.9907  130.4959  150.7269 LP  0  0  0  0  0  0  0  0  0  0  0  0  # atno 17371 bound_to 10713
  140.1077  134.9496  157.2018 LP  0  0  0  0  0  0  0  0  0  0  0  0  # atno 17394 bound_to 11000
  140.3235  134.2890  155.7241 LP  0  0  0  0  0  0  0  0  0  0  0  0  # atno 17395 bound_to 11000

$$$$
