AV-unprocessed.smi:1000|AV-procd|sdf|4356|dock8
  -GOLD-   22720 2253D 1   1.00000     0.00000
 Structure written by MMmdl.
 40 41  0  0  0  0  0  0  0  0  1 V2000
  151.1924  134.6757  154.9445 C   0  0  0  0  0  0  0  0  0  0  0  0
  150.7442  136.0439  156.1143 S   0  0  1  0  0  0  0  0  0  0  0  0
  151.3036  135.6633  157.4867 O   0  0  0  0  0  0  0  0  0  0  0  0
  151.9609  137.2286  155.4387 C   0  0  0  0  0  0  0  0  0  0  0  0
  153.2836  137.0977  155.5759 N   0  0  0  0  0  0  0  0  0  0  0  0
  153.8195  138.1930  154.9250 N   0  0  0  0  0  0  0  0  0  0  0  0
  152.7623  138.8651  154.4653 C   0  0  0  0  0  0  0  0  0  0  0  0
  151.5701  138.3167  154.7484 N   0  0  0  0  0  0  0  0  0  0  0  0
  150.2433  138.7918  154.3990 C   0  0  0  0  0  0  0  0  0  0  0  0
  150.0106  140.2058  154.9303 C   0  0  0  0  0  0  0  0  0  0  0  0
  149.7891  141.1258  154.1441 O   0  0  0  0  0  0  0  0  0  0  0  0
  150.0651  140.3610  156.2627 N   0  0  0  0  0  0  0  0  0  0  0  0
  149.8813  141.6186  156.9820 C   0  0  0  0  0  0  0  0  0  0  0  0
  151.0648  142.5820  156.7710 C   0  0  0  0  0  0  0  0  0  0  0  0
  151.4336  143.3777  158.0134 C   0  0  0  0  0  0  0  0  0  0  0  0
  151.2769  144.7145  158.0760 C   0  0  0  0  0  0  0  0  0  0  0  0
  151.5873  145.5521  159.3034 C   0  0  0  0  0  0  0  0  0  0  0  0
  151.7563  144.6928  160.5672 C   0  0  0  0  0  0  0  0  0  0  0  0
  152.6105  143.4519  160.2797 C   0  0  0  0  0  0  0  0  0  0  0  0
  151.9718  142.5715  159.1908 C   0  0  0  0  0  0  0  0  0  0  0  0
  151.6033  135.0692  154.0146 H   0  0  0  0  0  0  0  0  0  0  0  0
  150.3075  134.0865  154.7048 H   0  0  0  0  0  0  0  0  0  0  0  0
  151.9327  134.0181  155.4003 H   0  0  0  0  0  0  0  0  0  0  0  0
  152.8614  139.7843  153.9067 H   0  0  0  0  0  0  0  0  0  0  0  0
  150.1328  138.7740  153.3139 H   0  0  0  0  0  0  0  0  0  0  0  0
  149.4971  138.1084  154.8058 H   0  0  0  0  0  0  0  0  0  0  0  0
  150.2524  139.5434  156.8247 H   0  0  0  0  0  0  0  0  0  0  0  0
  148.9356  142.0927  156.7153 H   0  0  0  0  0  0  0  0  0  0  0  0
  149.8047  141.3770  158.0423 H   0  0  0  0  0  0  0  0  0  0  0  0
  151.9433  142.0197  156.4532 H   0  0  0  0  0  0  0  0  0  0  0  0
  150.8341  143.2653  155.9524 H   0  0  0  0  0  0  0  0  0  0  0  0
  150.9047  145.2523  157.2164 H   0  0  0  0  0  0  0  0  0  0  0  0
  152.4979  146.1184  159.1057 H   0  0  0  0  0  0  0  0  0  0  0  0
  150.7877  146.2777  159.4542 H   0  0  0  0  0  0  0  0  0  0  0  0
  152.2025  145.2861  161.3659 H   0  0  0  0  0  0  0  0  0  0  0  0
  150.7761  144.3760  160.9269 H   0  0  0  0  0  0  0  0  0  0  0  0
  153.6028  143.7689  159.9560 H   0  0  0  0  0  0  0  0  0  0  0  0
  152.7547  142.8703  161.1906 H   0  0  0  0  0  0  0  0  0  0  0  0
  151.1498  141.9987  159.6196 H   0  0  0  0  0  0  0  0  0  0  0  0
  152.7052  141.8480  158.8334 H   0  0  0  0  0  0  0  0  0  0  0  0
  1  2  1  0  0  0  0
  1 21  1  0  0  0  0
  1 22  1  0  0  0  0
  1 23  1  0  0  0  0
  2  3  2  0  0  0  0
  2  4  1  0  0  0  0
  4  8  1  0  0  0  0
  4  5  2  0  0  0  0
  5  6  1  0  0  0  0
  6  7  2  0  0  0  0
  7  8  1  0  0  0  0
  7 24  1  0  0  0  0
  8  9  1  0  0  0  0
  9 10  1  0  0  0  0
  9 25  1  0  0  0  0
  9 26  1  0  0  0  0
 10 11  2  0  0  0  0
 10 12  1  0  0  0  0
 12 13  1  0  0  0  0
 12 27  1  0  0  0  0
 13 14  1  0  0  0  0
 13 28  1  0  0  0  0
 13 29  1  0  0  0  0
 14 15  1  0  0  0  0
 14 30  1  0  0  0  0
 14 31  1  0  0  0  0
 15 20  1  0  0  0  0
 15 16  2  0  0  0  0
 16 17  1  0  0  0  0
 16 32  1  0  0  0  0
 17 18  1  0  0  0  0
 17 33  1  0  0  0  0
 17 34  1  0  0  0  0
 18 19  1  0  0  0  0
 18 35  1  0  0  0  0
 18 36  1  0  0  0  0
 19 20  1  0  0  0  0
 19 37  1  0  0  0  0
 19 38  1  0  0  0  0
 20 39  1  0  0  0  0
 20 40  1  0  0  0  0
M  END
> <s_m_source_file>
AV-unprocessed.smi

> <i_m_source_file_index>
1000

> <i_lp_mmshare_version>
43012

> <i_f3d_flags>
0

> <s_epik_input>
W0NIM11bU0BdKD1PKWMxbm5bY0hdbjFbQ0gyXUMoPU8pW05IXVtDSDJdW0NIMl1DMj1bQ0hdW0NIMl1bQ0gyXVtDSDJdW0NIMl0y

> <s_epik_cmdline>
J2VwaWtfcHl0aG9uJywgJy1waCcsICc3LjAnLCAnLXRuJywgJzgnLCAnLW1hJywgJzIwMCcsICctbWV0YWxfYmluZGluZycsICctaW1hZScsICc8aW5maWxlLm1hZT4nLCAnLW9tYWUnLCAnPG91dGZpbGUubWFlPic=

> <r_lp_tautomer_probability>
1

> <r_epik_Ionization_Penalty>
9.22166e-08

> <r_epik_Ionization_Penalty_Charging>
0

> <r_epik_Ionization_Penalty_Neutral>
9.22166e-08

> <r_epik_State_Penalty>
-0

> <r_epik_Charging_Adjusted_Penalty>
0

> <i_epik_Tot_Q>
0

> <i_epik_Tot_abs_Q>
0

> <r_epik_Metal_State_Penalty>
-0

> <b_epik_Metal_Only>
0

> <s_lp_Force_Field>
OPLS_2005

> <r_lp_Energy>
7.40605

> <b_lp_Chiralities_Consistent>
1

> <s_lp_Variant>
AV-unprocessed.smi:1000-2

> <Gold.Version>
5.8.1

> <Gold.Id.Protein>
6NUR|6NUR_protein|mol2

> <Gold.PLP.Fitness>
50.4048

> <Gold.PLP.PLP>
-46.0251

> <Gold.PLP.part.hbond>
-4.6437

> <Gold.PLP.part.metal>
0.0000

> <Gold.PLP.part.buried>
-5.8868

> <Gold.PLP.part.nonpolar>
-36.9616

> <Gold.PLP.part.repulsive>
0.2656

> <Gold.PLP.ligand.clash>
0.0000

> <Gold.PLP.ligand.torsion>
1.3192

> <Gold.PLP.Chemscore.Hbond>
1.9795

> <Gold.PLP.Chemscore.CHOScore>
0.0000

> <Gold.PLP.Chemscore.Metal>
0.0000

> <Gold.Chemscore.Hbonds>
donor molecule, donor type, donor heavy atom, donor atom, acceptor molecule, acceptor atom, score
      P1  H  6896  6907       L1     3  0.04
      P1  H  7989  7998       L1    11  0.17
      P1  H  8011  8017       L1    11  0.40
      P1  H 10752 10763       L1     5  0.21

> <Gold.PLP.Chemscore.Internal.Correction>
1.0797

> <Gold.Rescore>
     Score         DG    S(hbond)    S(metal)    S(lipo)     H(rot)  DE(clash)    DE(int)     intcor
     13.15     -14.80       1.15        0.00      96.48       2.26       0.04       1.61       ----

> <Gold.Chemscore.Fitness>
13.1489

> <Gold.Chemscore.DG>
-14.7989

> <Gold.Chemscore.ZeroCoef>
-5.4800

> <Gold.Chemscore.Hbond>
1.1456

> <Gold.Chemscore.Metal>
0.0000

> <Gold.Chemscore.Lipo>
96.4825

> <Gold.Chemscore.Internal_Hbond>
0.0000

> <Gold.Chemscore.DEClash>
0.0370

> <Gold.Chemscore.DEInternal>
1.6130

> <Gold.Chemscore.Rot>
2.2640

> <Gold.Chemscore.Internal.Correction>
   9.000000E+99

> <Gold.Chemscore.Hbonds>
donor molecule, donor type, donor heavy atom, donor atom, acceptor molecule, acceptor atom, score
      P1  H  6896  6907       L1     3  0.04
      P1  H  8011  8017       L1    11  0.39
      P1  H 10752 10763       L1     5  0.02

> <Gold.Chemscore.Hbond.Weighted>
-3.8261

> <Gold.Chemscore.Metal.Weighted>
-0.0000

> <Gold.Chemscore.Lipo.Weighted>
-11.2884

> <Gold.Chemscore.Internal_Hbond.Weighted>
0.0000

> <Gold.Chemscore.DEClash.Weighted>
0.0370

> <Gold.Chemscore.DEInternal.Weighted>
1.6130

> <Gold.Chemscore.Rot.Weighted>
5.7957

> <Gold.Chemscore.Internal.Correction.Weighted>
   9.000000E+99

> <Gold.Protein.RotatedTorsions>
[ 6907 6896 6895 6894 ] final  -55.97 input  -60.11 | X-H torsion
[ 7974 7965 7964 7962 ] final   27.20 input  175.53 | X-H torsion
[ 8008 7997 7996 7995 ] final  -47.52 input   59.86 | X-H torsion
[ 10167 10162 10161 10158 ] final  107.78 input  -65.29 | X-H torsion
[ 10718 10713 10712 10709 ] final  106.09 input   66.30 | X-H torsion
[ 10763 10752 10751 10750 ] final   95.71 input  -60.55 | X-H torsion
[ 11005 11000 10999 10996 ] final  146.52 input  -57.11 | X-H torsion

> <Gold.Protein.ActiveResidues>
 VAL166  LYS551  ARG553  GLY616  TRP617  ASP618  TYR619  PRO620  LYS621  CYS622 
 ASP623  PHE694  ASN695  SER759  ASP760  ASP761  ALA762  ILE779  LEU786  VAL792 
 PHE793  MET794  SER795  GLU796  ALA797  LYS798  CYS799  TRP800  GLU811  SER814 

> <Gold.Protein.RotatedAtoms>
  150.8207  134.7412  159.6769 H   0  0  0  0  0  0  0  0  0  0  0  0  # atno 6907 bound_to 6896
  152.4322  134.5752  159.9942 H   0  0  0  0  0  0  0  0  0  0  0  0  # atno 6908 bound_to 6896
  151.5937  133.3326  159.3069 H   0  0  0  0  0  0  0  0  0  0  0  0  # atno 6909 bound_to 6896
  146.1797  139.7223  142.8909 H   0  0  0  0  0  0  0  0  0  0  0  0  # atno 7974 bound_to 7965
  154.4017  140.1344  156.4188 H   0  0  0  0  0  0  0  0  0  0  0  0  # atno 8008 bound_to 7997
  155.7663  140.3485  155.5203 H   0  0  0  0  0  0  0  0  0  0  0  0  # atno 8009 bound_to 7997
  155.8810  140.0987  157.1475 H   0  0  0  0  0  0  0  0  0  0  0  0  # atno 8010 bound_to 7997
  139.6900  144.7109  151.1366 H   0  0  0  0  0  0  0  0  0  0  0  0  # atno 10167 bound_to 10162
  157.6681  131.0843  150.5954 H   0  0  0  0  0  0  0  0  0  0  0  0  # atno 10718 bound_to 10713
  153.2564  135.4244  155.0850 H   0  0  0  0  0  0  0  0  0  0  0  0  # atno 10763 bound_to 10752
  154.8403  135.3438  154.6439 H   0  0  0  0  0  0  0  0  0  0  0  0  # atno 10764 bound_to 10752
  153.6860  135.7036  153.5161 H   0  0  0  0  0  0  0  0  0  0  0  0  # atno 10765 bound_to 10752
  140.0800  134.9102  157.1485 H   0  0  0  0  0  0  0  0  0  0  0  0  # atno 11005 bound_to 11000
  145.4112  141.0396  143.3016 LP  0  0  0  0  0  0  0  0  0  0  0  0  # atno 17320 bound_to 7965
  144.8294  139.5654  143.6950 LP  0  0  0  0  0  0  0  0  0  0  0  0  # atno 17321 bound_to 7965
  140.7679  143.5574  150.9137 LP  0  0  0  0  0  0  0  0  0  0  0  0  # atno 17342 bound_to 10162
  139.9251  143.6560  152.3088 LP  0  0  0  0  0  0  0  0  0  0  0  0  # atno 17343 bound_to 10162
  156.6255  130.4417  149.5806 LP  0  0  0  0  0  0  0  0  0  0  0  0  # atno 17370 bound_to 10713
  156.2322  130.6801  151.1475 LP  0  0  0  0  0  0  0  0  0  0  0  0  # atno 17371 bound_to 10713
  140.3502  134.2607  155.7199 LP  0  0  0  0  0  0  0  0  0  0  0  0  # atno 17394 bound_to 11000
  141.2043  133.7889  157.0293 LP  0  0  0  0  0  0  0  0  0  0  0  0  # atno 17395 bound_to 11000

$$$$
