AV-unprocessed.smi:2154|AV-procd|sdf|8776|dock1
  -GOLD-   2272011553D 1   1.00000     0.00000
 Structure written by MMmdl.
 31 32  0  0  0  0  0  0  0  0  2 V2000
  152.8950  142.5045  159.9026 C   0  0  0  0  0  0  0  0  0  0  0  0
  152.7384  143.9515  159.4797 C   0  0  2  0  0  0  0  0  0  0  0  0
  151.8762  144.8980  160.2812 C   0  0  0  0  0  0  0  0  0  0  0  0
  151.4499  144.4902  158.8893 C   0  0  2  0  0  0  0  0  0  0  0  0
  150.2346  143.6053  158.6691 C   0  0  0  0  0  0  0  0  0  0  0  0
  150.1358  143.0186  157.3395 N   0  0  0  0  0  0  0  0  0  0  0  0
  150.3984  141.7369  157.0442 C   0  0  0  0  0  0  0  0  0  0  0  0
  150.7403  140.9065  157.8876 O   0  0  0  0  0  0  0  0  0  0  0  0
  150.2162  141.3329  155.5748 C   0  0  0  0  0  0  0  0  0  0  0  0
  150.4571  139.9003  155.3378 N   0  0  0  0  0  0  0  0  0  0  0  0
  149.4464  139.1645  154.6946 C   0  0  0  0  0  0  0  0  0  0  0  0
  149.5783  137.8488  154.4394 C   0  0  0  0  0  0  0  0  0  0  0  0
  150.8106  137.1864  154.8487 C   0  0  0  0  0  0  0  0  0  0  0  0
  150.9503  135.9865  154.6195 O   0  0  0  0  0  0  0  0  0  0  0  0
  151.7601  137.9425  155.4742 N   0  5  0  0  0  0  0  0  0  0  0  0
  151.6108  139.2795  155.7294 C   0  0  0  0  0  0  0  0  0  0  0  0
  152.4794  139.9428  156.2974 O   0  0  0  0  0  0  0  0  0  0  0  0
  152.0134  142.1506  160.4368 H   0  0  0  0  0  0  0  0  0  0  0  0
  153.7565  142.4017  160.5622 H   0  0  0  0  0  0  0  0  0  0  0  0
  153.0504  141.8731  159.0279 H   0  0  0  0  0  0  0  0  0  0  0  0
  153.6499  144.3742  159.0614 H   0  0  0  0  0  0  0  0  0  0  0  0
  151.3167  144.4889  161.1205 H   0  0  0  0  0  0  0  0  0  0  0  0
  152.2355  145.9162  160.4165 H   0  0  0  0  0  0  0  0  0  0  0  0
  151.5862  145.2339  158.1062 H   0  0  0  0  0  0  0  0  0  0  0  0
  150.2770  142.7859  159.3868 H   0  0  0  0  0  0  0  0  0  0  0  0
  149.3214  144.1601  158.8896 H   0  0  0  0  0  0  0  0  0  0  0  0
  149.8580  143.6315  156.5868 H   0  0  0  0  0  0  0  0  0  0  0  0
  149.2035  141.6032  155.2729 H   0  0  0  0  0  0  0  0  0  0  0  0
  150.8730  141.9324  154.9415 H   0  0  0  0  0  0  0  0  0  0  0  0
  148.5640  139.7285  154.4304 H   0  0  0  0  0  0  0  0  0  0  0  0
  148.7909  137.2975  153.9469 H   0  0  0  0  0  0  0  0  0  0  0  0
  1  2  1  0  0  0  0
  1 18  1  0  0  0  0
  1 19  1  0  0  0  0
  1 20  1  0  0  0  0
  2  4  1  0  0  0  0
  2  3  1  0  0  0  0
  2 21  1  0  0  0  0
  3  4  1  0  0  0  0
  3 22  1  0  0  0  0
  3 23  1  0  0  0  0
  4  5  1  0  0  0  0
  4 24  1  0  0  0  0
  5  6  1  0  0  0  0
  5 25  1  0  0  0  0
  5 26  1  0  0  0  0
  6  7  1  0  0  0  0
  6 27  1  0  0  0  0
  7  8  2  0  0  0  0
  7  9  1  0  0  0  0
  9 10  1  0  0  0  0
  9 28  1  0  0  0  0
  9 29  1  0  0  0  0
 10 16  1  0  0  0  0
 10 11  1  0  0  0  0
 11 12  2  0  0  0  0
 11 30  1  0  0  0  0
 12 13  1  0  0  0  0
 12 31  1  0  0  0  0
 13 14  2  0  0  0  0
 13 15  1  0  0  0  0
 15 16  1  0  0  0  0
 16 17  2  0  0  0  0
M  CHG  1  15  -1
M  END
> <s_m_source_file>
AV-unprocessed.smi

> <i_m_source_file_index>
2154

> <i_lp_mmshare_version>
43012

> <i_f3d_flags>
0

> <s_epik_input>
W0NIM11bQ0BASF0xW0NIMl1bQ0BIXTFbQ0gyXVtOSF1DKD1PKVtDSDJdbjJbY0hdW2NIXWMoPU8pW25IXWMyPU8=

> <s_epik_cmdline>
J2VwaWtfcHl0aG9uJywgJy1waCcsICc3LjAnLCAnLXRuJywgJzgnLCAnLW1hJywgJzIwMCcsICctbWV0YWxfYmluZGluZycsICctaW1hZScsICc8aW5maWxlLm1hZT4nLCAnLW9tYWUnLCAnPG91dGZpbGUubWFlPic=

> <r_lp_tautomer_probability>
0.999537

> <r_epik_Ionization_Penalty>
3.12283

> <r_epik_Ionization_Penalty_Charging>
2.83566e-08

> <r_epik_Ionization_Penalty_Neutral>
3.12283

> <r_epik_State_Penalty>
3.12192

> <r_epik_Charging_Adjusted_Penalty>
3.12192

> <i_epik_Tot_Q>
-1

> <i_epik_Tot_abs_Q>
1

> <r_epik_Metal_State_Penalty>
0.463748

> <b_epik_Metal_Only>
1

> <s_lp_Force_Field>
OPLS_2005

> <r_lp_Energy>
24.9188

> <b_lp_Chiralities_Consistent>
1

> <s_lp_Variant>
AV-unprocessed.smi:2154-7

> <Gold.Version>
5.8.1

> <Gold.Id.Protein>
6NUR|6NUR_protein|mol2

> <Gold.PLP.Fitness>
45.2665

> <Gold.PLP.PLP>
-36.5528

> <Gold.PLP.part.hbond>
-3.0000

> <Gold.PLP.part.metal>
0.0000

> <Gold.PLP.part.buried>
-3.5450

> <Gold.PLP.part.nonpolar>
-31.1642

> <Gold.PLP.part.repulsive>
0.2171

> <Gold.PLP.ligand.clash>
0.0000

> <Gold.PLP.ligand.torsion>
0.4144

> <Gold.PLP.Chemscore.Hbond>
3.0000

> <Gold.PLP.Chemscore.CHOScore>
0.0000

> <Gold.PLP.Chemscore.Metal>
0.0000

> <Gold.Chemscore.Hbonds>
donor molecule, donor type, donor heavy atom, donor atom, acceptor molecule, acceptor atom, score
      L1  H     6    27       P1  8028  1.00
      P1  H  7997  8008       L1    17  1.00
      P1  H 10752 10765       L1    14  0.84

> <Gold.PLP.Chemscore.Internal.Correction>
0.5426

> <Gold.Rescore>
     Score         DG    S(hbond)    S(metal)    S(lipo)     H(rot)  DE(clash)    DE(int)     intcor
     13.40     -18.69       2.94        0.00      71.92       1.96       0.73       4.56       ----

> <Gold.Chemscore.Fitness>
13.4009

> <Gold.Chemscore.DG>
-18.6908

> <Gold.Chemscore.ZeroCoef>
-5.4800

> <Gold.Chemscore.Hbond>
2.9391

> <Gold.Chemscore.Metal>
0.0000

> <Gold.Chemscore.Lipo>
71.9167

> <Gold.Chemscore.Internal_Hbond>
0.0000

> <Gold.Chemscore.DEClash>
0.7333

> <Gold.Chemscore.DEInternal>
4.5566

> <Gold.Chemscore.Rot>
1.9609

> <Gold.Chemscore.Internal.Correction>
   9.000000E+99

> <Gold.Chemscore.Hbonds>
donor molecule, donor type, donor heavy atom, donor atom, acceptor molecule, acceptor atom, score
      L1  H     6    27       P1  8028  0.99
      P1  H  7997  8008       L1    17  1.00
      P1  H 10752 10765       L1    14  0.51

> <Gold.Chemscore.Hbond.Weighted>
-9.8165

> <Gold.Chemscore.Metal.Weighted>
-0.0000

> <Gold.Chemscore.Lipo.Weighted>
-8.4143

> <Gold.Chemscore.Internal_Hbond.Weighted>
0.0000

> <Gold.Chemscore.DEClash.Weighted>
0.7333

> <Gold.Chemscore.DEInternal.Weighted>
4.5566

> <Gold.Chemscore.Rot.Weighted>
5.0200

> <Gold.Chemscore.Internal.Correction.Weighted>
   9.000000E+99

> <Gold.Protein.RotatedTorsions>
[ 6907 6896 6895 6894 ] final -102.15 input  -60.11 | X-H torsion
[ 7974 7965 7964 7962 ] final  -79.69 input  175.53 | X-H torsion
[ 8008 7997 7996 7995 ] final  -45.69 input   59.86 | X-H torsion
[ 10167 10162 10161 10158 ] final  135.97 input  -65.29 | X-H torsion
[ 10718 10713 10712 10709 ] final   42.03 input   66.30 | X-H torsion
[ 10763 10752 10751 10750 ] final -167.46 input  -60.55 | X-H torsion
[ 11005 11000 10999 10996 ] final -151.19 input  -57.11 | X-H torsion

> <Gold.Protein.ActiveResidues>
 VAL166  LYS551  ARG553  GLY616  TRP617  ASP618  TYR619  PRO620  LYS621  CYS622 
 ASP623  PHE694  ASN695  SER759  ASP760  ASP761  ALA762  ILE779  LEU786  VAL792 
 PHE793  MET794  SER795  GLU796  ALA797  LYS798  CYS799  TRP800  GLU811  SER814 

> <Gold.Protein.RotatedAtoms>
  150.7184  134.0625  159.3835 H   0  0  0  0  0  0  0  0  0  0  0  0  # atno 6907 bound_to 6896
  151.8605  135.0523  160.0478 H   0  0  0  0  0  0  0  0  0  0  0  0  # atno 6908 bound_to 6896
  152.2721  133.5356  159.5482 H   0  0  0  0  0  0  0  0  0  0  0  0  # atno 6909 bound_to 6896
  145.5699  140.9468  143.1401 H   0  0  0  0  0  0  0  0  0  0  0  0  # atno 7974 bound_to 7965
  154.4002  140.1390  156.3889 H   0  0  0  0  0  0  0  0  0  0  0  0  # atno 8008 bound_to 7997
  155.7933  140.3478  155.5341 H   0  0  0  0  0  0  0  0  0  0  0  0  # atno 8009 bound_to 7997
  155.8557  140.0948  157.1636 H   0  0  0  0  0  0  0  0  0  0  0  0  # atno 8010 bound_to 7997
  139.5197  144.6489  151.5360 H   0  0  0  0  0  0  0  0  0  0  0  0  # atno 10167 bound_to 10162
  157.4003  130.7856  149.7343 H   0  0  0  0  0  0  0  0  0  0  0  0  # atno 10718 bound_to 10713
  154.6730  135.2942  154.9717 H   0  0  0  0  0  0  0  0  0  0  0  0  # atno 10763 bound_to 10752
  154.0738  135.6614  153.4832 H   0  0  0  0  0  0  0  0  0  0  0  0  # atno 10764 bound_to 10752
  153.0498  135.5181  154.7735 H   0  0  0  0  0  0  0  0  0  0  0  0  # atno 10765 bound_to 10752
  140.7322  134.3608  157.5164 H   0  0  0  0  0  0  0  0  0  0  0  0  # atno 11005 bound_to 11000
  144.7443  139.7364  143.7298 LP  0  0  0  0  0  0  0  0  0  0  0  0  # atno 17320 bound_to 7965
  146.1792  139.4976  142.9878 LP  0  0  0  0  0  0  0  0  0  0  0  0  # atno 17321 bound_to 7965
  140.6285  143.9121  150.6585 LP  0  0  0  0  0  0  0  0  0  0  0  0  # atno 17342 bound_to 10162
  140.2418  143.3658  152.1480 LP  0  0  0  0  0  0  0  0  0  0  0  0  # atno 17343 bound_to 10162
  155.9821  130.4012  150.3433 LP  0  0  0  0  0  0  0  0  0  0  0  0  # atno 17370 bound_to 10713
  157.1560  131.0333  151.2863 LP  0  0  0  0  0  0  0  0  0  0  0  0  # atno 17371 bound_to 10713
  139.8824  134.9026  156.2836 LP  0  0  0  0  0  0  0  0  0  0  0  0  # atno 17394 bound_to 11000
  140.9911  133.7208  156.0815 LP  0  0  0  0  0  0  0  0  0  0  0  0  # atno 17395 bound_to 11000

$$$$
