AV-unprocessed.smi:2005|AV-procd|sdf|8128|dock9
  -GOLD-   2272010363D 1   1.00000     0.00000
 Structure written by MMmdl.
 38 39  0  0  0  0  0  0  0  0  2 V2000
  145.6423  134.5665  162.4629 C   0  0  0  0  0  0  0  0  0  0  0  0
  145.9427  136.0485  162.1945 C   0  0  0  0  0  0  0  0  0  0  0  0
  144.6795  136.8833  161.9378 C   0  0  0  0  0  0  0  0  0  0  0  0
  146.9679  136.2299  161.1189 C   0  0  0  0  0  0  0  0  0  0  0  0
  147.3983  137.4290  160.7141 N   0  0  0  0  0  0  0  0  0  0  0  0
  148.3460  137.3335  159.7061 N   0  0  0  0  0  0  0  0  0  0  0  0
  148.6122  136.0682  159.3529 C   0  0  0  0  0  0  0  0  0  0  0  0
  149.5017  135.7591  158.3949 N   0  5  0  0  0  0  0  0  0  0  0  0
  150.2236  136.7376  157.8021 C   0  0  0  0  0  0  0  0  0  0  0  0
  151.4257  136.9590  157.9660 O   0  0  0  0  0  0  0  0  0  0  0  0
  149.5080  137.5066  156.9681 N   0  0  0  0  0  0  0  0  0  0  0  0
  150.0120  138.6358  156.1908 C   0  0  2  0  0  0  0  0  0  0  0  0
  150.5649  139.7121  157.1424 C   0  0  0  0  0  0  0  0  0  0  0  0
  151.0695  140.9439  156.3701 C   0  0  0  0  0  0  0  0  0  0  0  0
  149.9932  141.5293  155.4362 C   0  0  2  0  0  0  0  0  0  0  0  0
  148.9710  142.1415  156.1980 O   0  0  0  0  0  0  0  0  0  0  0  0
  149.3935  140.4504  154.5145 C   0  0  0  0  0  0  0  0  0  0  0  0
  148.9001  139.2208  155.2970 C   0  0  0  0  0  0  0  0  0  0  0  0
  147.7059  134.8741  160.2809 S   0  0  0  0  0  0  0  0  0  0  0  0
  146.5513  134.0243  162.7254 H   0  0  0  0  0  0  0  0  0  0  0  0
  145.2081  134.0842  161.5863 H   0  0  0  0  0  0  0  0  0  0  0  0
  144.9391  134.4513  163.2882 H   0  0  0  0  0  0  0  0  0  0  0  0
  146.3868  136.4410  163.1102 H   0  0  0  0  0  0  0  0  0  0  0  0
  144.9232  137.9412  161.8331 H   0  0  0  0  0  0  0  0  0  0  0  0
  143.9716  136.7872  162.7614 H   0  0  0  0  0  0  0  0  0  0  0  0
  144.1731  136.5655  161.0257 H   0  0  0  0  0  0  0  0  0  0  0  0
  148.5284  137.2858  156.8646 H   0  0  0  0  0  0  0  0  0  0  0  0
  150.8324  138.2931  155.5571 H   0  0  0  0  0  0  0  0  0  0  0  0
  149.7897  140.0167  157.8474 H   0  0  0  0  0  0  0  0  0  0  0  0
  151.3778  139.2986  157.7405 H   0  0  0  0  0  0  0  0  0  0  0  0
  151.4212  141.7055  157.0669 H   0  0  0  0  0  0  0  0  0  0  0  0
  151.9360  140.6544  155.7743 H   0  0  0  0  0  0  0  0  0  0  0  0
  150.4420  142.3114  154.8230 H   0  0  0  0  0  0  0  0  0  0  0  0
  148.9690  143.0674  156.0085 H   0  0  0  0  0  0  0  0  0  0  0  0
  148.5800  140.8681  153.9202 H   0  0  0  0  0  0  0  0  0  0  0  0
  150.1550  140.1298  153.8025 H   0  0  0  0  0  0  0  0  0  0  0  0
  148.5438  138.4649  154.5964 H   0  0  0  0  0  0  0  0  0  0  0  0
  148.0415  139.4982  155.9103 H   0  0  0  0  0  0  0  0  0  0  0  0
  1  2  1  0  0  0  0
  1 20  1  0  0  0  0
  1 21  1  0  0  0  0
  1 22  1  0  0  0  0
  2  3  1  0  0  0  0
  2  4  1  0  0  0  0
  2 23  1  0  0  0  0
  3 24  1  0  0  0  0
  3 25  1  0  0  0  0
  3 26  1  0  0  0  0
  4 19  1  0  0  0  0
  4  5  2  0  0  0  0
  5  6  1  0  0  0  0
  6  7  2  0  0  0  0
  7  8  1  0  0  0  0
  7 19  1  0  0  0  0
  8  9  1  0  0  0  0
  9 10  2  0  0  0  0
  9 11  1  0  0  0  0
 11 12  1  0  0  0  0
 11 27  1  0  0  0  0
 12 18  1  0  0  0  0
 12 13  1  0  0  0  0
 12 28  1  0  0  0  0
 13 14  1  0  0  0  0
 13 29  1  0  0  0  0
 13 30  1  0  0  0  0
 14 15  1  0  0  0  0
 14 31  1  0  0  0  0
 14 32  1  0  0  0  0
 15 16  1  0  0  0  0
 15 17  1  0  0  0  0
 15 33  1  0  0  0  0
 16 34  1  0  0  0  0
 17 18  1  0  0  0  0
 17 35  1  0  0  0  0
 17 36  1  0  0  0  0
 18 37  1  0  0  0  0
 18 38  1  0  0  0  0
M  CHG  1   8  -1
M  END
> <s_m_source_file>
AV-unprocessed.smi

> <i_m_source_file_index>
2005

> <i_lp_mmshare_version>
43012

> <i_f3d_flags>
0

> <s_epik_input>
W0NIM11bQ0hdKFtDSDNdKWMxbm5jKHMxKVtOSF1DKD1PKVtOSF1bQ0BASF0yW0NIMl1bQ0gyXVtDQEBIXShbT0hdKVtDSDJdW0NIMl0y

> <s_epik_cmdline>
J2VwaWtfcHl0aG9uJywgJy1waCcsICc3LjAnLCAnLXRuJywgJzgnLCAnLW1hJywgJzIwMCcsICctbWV0YWxfYmluZGluZycsICctaW1hZScsICc8aW5maWxlLm1hZT4nLCAnLW9tYWUnLCAnPG91dGZpbGUubWFlPic=

> <r_lp_tautomer_probability>
1

> <r_epik_Ionization_Penalty>
4.58298

> <r_epik_Ionization_Penalty_Charging>
4.41114

> <r_epik_Ionization_Penalty_Neutral>
0.171842

> <r_epik_State_Penalty>
4.41079

> <r_epik_Charging_Adjusted_Penalty>
8.82193

> <i_epik_Tot_Q>
-1

> <i_epik_Tot_abs_Q>
1

> <r_epik_Metal_State_Penalty>
0.7766

> <b_epik_Metal_Only>
1

> <s_lp_Force_Field>
OPLS_2005

> <r_lp_Energy>
2.0831

> <b_lp_Chiralities_Consistent>
1

> <s_lp_Variant>
AV-unprocessed.smi:2005-4

> <Gold.Version>
5.8.1

> <Gold.Id.Protein>
6NUR|6NUR_protein|mol2

> <Gold.PLP.Fitness>
39.5383

> <Gold.PLP.PLP>
-28.8899

> <Gold.PLP.part.hbond>
-5.8658

> <Gold.PLP.part.metal>
0.0000

> <Gold.PLP.part.buried>
-3.0901

> <Gold.PLP.part.nonpolar>
-20.4994

> <Gold.PLP.part.repulsive>
0.0076

> <Gold.PLP.ligand.clash>
0.0000

> <Gold.PLP.ligand.torsion>
0.7526

> <Gold.PLP.Chemscore.Hbond>
4.0234

> <Gold.PLP.Chemscore.CHOScore>
0.0000

> <Gold.PLP.Chemscore.Metal>
0.0000

> <Gold.Chemscore.Hbonds>
donor molecule, donor type, donor heavy atom, donor atom, acceptor molecule, acceptor atom, score
      L1  H    16    34       P1  8028  1.00
      P1  H  6896  6908       L1     8  1.70
      P1  H  6931  6943       L1     5  0.11
      P1  H  6934  6947       L1     5  1.00

> <Gold.PLP.Chemscore.Internal.Correction>
0.0834

> <Gold.Rescore>
     Score         DG    S(hbond)    S(metal)    S(lipo)     H(rot)  DE(clash)    DE(int)     intcor
     13.60     -15.73       2.09        0.00      65.01       1.70       0.13       2.01       ----

> <Gold.Chemscore.Fitness>
13.5951

> <Gold.Chemscore.DG>
-15.7297

> <Gold.Chemscore.ZeroCoef>
-5.4800

> <Gold.Chemscore.Hbond>
2.0920

> <Gold.Chemscore.Metal>
0.0000

> <Gold.Chemscore.Lipo>
65.0111

> <Gold.Chemscore.Internal_Hbond>
0.0000

> <Gold.Chemscore.DEClash>
0.1289

> <Gold.Chemscore.DEInternal>
2.0057

> <Gold.Chemscore.Rot>
1.6968

> <Gold.Chemscore.Internal.Correction>
   9.000000E+99

> <Gold.Chemscore.Hbonds>
donor molecule, donor type, donor heavy atom, donor atom, acceptor molecule, acceptor atom, score
      L1  H    16    34       P1  8028  1.00
      P1  H  6896  6908       L1     8  0.10
      P1  H  6934  6947       L1     5  0.43

> <Gold.Chemscore.Hbond.Weighted>
-6.9873

> <Gold.Chemscore.Metal.Weighted>
-0.0000

> <Gold.Chemscore.Lipo.Weighted>
-7.6063

> <Gold.Chemscore.Internal_Hbond.Weighted>
0.0000

> <Gold.Chemscore.DEClash.Weighted>
0.1289

> <Gold.Chemscore.DEInternal.Weighted>
2.0057

> <Gold.Chemscore.Rot.Weighted>
4.3439

> <Gold.Chemscore.Internal.Correction.Weighted>
   9.000000E+99

> <Gold.Protein.RotatedTorsions>
[ 6907 6896 6895 6894 ] final  170.62 input  -60.11 | X-H torsion
[ 7974 7965 7964 7962 ] final -120.97 input  175.53 | X-H torsion
[ 8008 7997 7996 7995 ] final -110.28 input   59.86 | X-H torsion
[ 10167 10162 10161 10158 ] final  -40.94 input  -65.29 | X-H torsion
[ 10718 10713 10712 10709 ] final  -89.47 input   66.30 | X-H torsion
[ 10763 10752 10751 10750 ] final   14.16 input  -60.55 | X-H torsion
[ 11005 11000 10999 10996 ] final   83.97 input  -57.11 | X-H torsion

> <Gold.Protein.ActiveResidues>
 VAL166  LYS551  ARG553  GLY616  TRP617  ASP618  TYR619  PRO620  LYS621  CYS622 
 ASP623  PHE694  ASN695  SER759  ASP760  ASP761  ALA762  ILE779  LEU786  VAL792 
 PHE793  MET794  SER795  GLU796  ALA797  LYS798  CYS799  TRP800  GLU811  SER814 

> <Gold.Protein.RotatedAtoms>
  151.8132  133.3384  159.3561 H   0  0  0  0  0  0  0  0  0  0  0  0  # atno 6907 bound_to 6896
  150.7319  134.5644  159.5868 H   0  0  0  0  0  0  0  0  0  0  0  0  # atno 6908 bound_to 6896
  152.3060  134.7556  160.0398 H   0  0  0  0  0  0  0  0  0  0  0  0  # atno 6909 bound_to 6896
  145.0455  140.8178  143.4241 H   0  0  0  0  0  0  0  0  0  0  0  0  # atno 7974 bound_to 7965
  154.9722  140.0397  157.2239 H   0  0  0  0  0  0  0  0  0  0  0  0  # atno 8008 bound_to 7997
  154.7791  140.2815  155.6055 H   0  0  0  0  0  0  0  0  0  0  0  0  # atno 8009 bound_to 7997
  156.2933  140.2595  156.2612 H   0  0  0  0  0  0  0  0  0  0  0  0  # atno 8010 bound_to 7997
  140.7018  143.3124  151.2995 H   0  0  0  0  0  0  0  0  0  0  0  0  # atno 10167 bound_to 10162
  155.9984  130.4873  150.5175 H   0  0  0  0  0  0  0  0  0  0  0  0  # atno 10718 bound_to 10713
  153.1649  135.6802  153.8689 H   0  0  0  0  0  0  0  0  0  0  0  0  # atno 10763 bound_to 10752
  153.8073  135.3148  155.3398 H   0  0  0  0  0  0  0  0  0  0  0  0  # atno 10764 bound_to 10752
  154.7958  135.4808  154.0248 H   0  0  0  0  0  0  0  0  0  0  0  0  # atno 10765 bound_to 10752
  139.9014  134.8183  156.2381 H   0  0  0  0  0  0  0  0  0  0  0  0  # atno 11005 bound_to 11000
  145.1594  139.2467  143.5399 LP  0  0  0  0  0  0  0  0  0  0  0  0  # atno 17320 bound_to 7965
  146.3513  140.1317  142.8597 LP  0  0  0  0  0  0  0  0  0  0  0  0  # atno 17321 bound_to 7965
  139.6551  144.0291  152.2654 LP  0  0  0  0  0  0  0  0  0  0  0  0  # atno 17342 bound_to 10162
  139.9840  144.6408  150.7874 LP  0  0  0  0  0  0  0  0  0  0  0  0  # atno 17343 bound_to 10162
  157.3141  131.0669  151.1980 LP  0  0  0  0  0  0  0  0  0  0  0  0  # atno 17370 bound_to 10713
  157.2916  130.6799  149.6117 LP  0  0  0  0  0  0  0  0  0  0  0  0  # atno 17371 bound_to 10713
  141.0302  133.6993  156.1417 LP  0  0  0  0  0  0  0  0  0  0  0  0  # atno 17394 bound_to 11000
  140.7107  134.4465  157.5581 LP  0  0  0  0  0  0  0  0  0  0  0  0  # atno 17395 bound_to 11000

$$$$
