AV-unprocessed.smi:1042|AV-procd|sdf|4536|dock3
  -GOLD-   22720 2563D 1   1.00000     0.00000
 Structure written by MMmdl.
 40 42  0  0  0  0  0  0  0  0  2 V2000
  150.5801  140.5600  156.0148 O   0  0  0  0  0  0  0  0  0  0  0  0
  150.1409  141.7051  155.9050 C   0  0  0  0  0  0  0  0  0  0  0  0
  149.2134  142.0565  155.0021 N   0  0  0  0  0  0  0  0  0  0  0  0
  148.5928  141.1581  154.0327 C   0  0  0  0  0  0  0  0  0  0  0  0
  147.0971  141.4695  153.8296 C   0  0  2  0  0  0  0  0  0  0  0  0
  146.7222  142.9506  153.8964 C   0  0  0  0  0  0  0  0  0  0  0  0
  145.2277  142.9481  154.2344 C   0  0  0  0  0  0  0  0  0  0  0  0
  144.9249  141.6214  154.8197 N   0  3  2  0  0  0  0  0  0  0  0  0
  144.1729  141.6773  156.0912 C   0  0  0  0  0  0  0  0  0  0  0  0
  143.1731  140.5575  156.2511 C   0  0  0  0  0  0  0  0  0  0  0  0
  142.6997  141.9541  155.9101 C   0  0  0  0  0  0  0  0  0  0  0  0
  146.1940  140.8694  154.9073 C   0  0  0  0  0  0  0  0  0  0  0  0
  150.5102  142.7560  156.6584 N   0  0  0  0  0  0  0  0  0  0  0  0
  151.4237  142.7783  157.7460 C   0  0  0  0  0  0  0  0  0  0  0  0
  151.8306  144.0669  158.1597 C   0  0  0  0  0  0  0  0  0  0  0  0
  152.7308  144.1977  159.2349 C   0  0  0  0  0  0  0  0  0  0  0  0
  153.2025  143.0347  159.8692 C   0  0  0  0  0  0  0  0  0  0  0  0
  152.7479  141.7904  159.3951 C   0  0  0  0  0  0  0  0  0  0  0  0
  151.8841  141.6627  158.3655 N   0  0  0  0  0  0  0  0  0  0  0  0
  148.9154  143.0209  154.9812 H   0  0  0  0  0  0  0  0  0  0  0  0
  149.1202  141.2804  153.0865 H   0  0  0  0  0  0  0  0  0  0  0  0
  148.7341  140.1161  154.3252 H   0  0  0  0  0  0  0  0  0  0  0  0
  146.7790  141.0772  152.8620 H   0  0  0  0  0  0  0  0  0  0  0  0
  147.2732  143.4380  154.7020 H   0  0  0  0  0  0  0  0  0  0  0  0
  146.9417  143.4862  152.9723 H   0  0  0  0  0  0  0  0  0  0  0  0
  144.9773  143.7682  154.9090 H   0  0  0  0  0  0  0  0  0  0  0  0
  144.6284  143.0695  153.3318 H   0  0  0  0  0  0  0  0  0  0  0  0
  144.7061  142.0727  156.9541 H   0  0  0  0  0  0  0  0  0  0  0  0
  143.1149  139.8022  155.4692 H   0  0  0  0  0  0  0  0  0  0  0  0
  142.9802  140.1980  157.2598 H   0  0  0  0  0  0  0  0  0  0  0  0
  142.1942  142.5139  156.6944 H   0  0  0  0  0  0  0  0  0  0  0  0
  142.3285  142.1280  154.9019 H   0  0  0  0  0  0  0  0  0  0  0  0
  146.0325  139.7997  154.7711 H   0  0  0  0  0  0  0  0  0  0  0  0
  146.6416  141.0187  155.8917 H   0  0  0  0  0  0  0  0  0  0  0  0
  150.0747  143.6401  156.4408 H   0  0  0  0  0  0  0  0  0  0  0  0
  151.4579  144.9504  157.6618 H   0  0  0  0  0  0  0  0  0  0  0  0
  153.0530  145.1737  159.5666 H   0  0  0  0  0  0  0  0  0  0  0  0
  153.8937  143.0944  160.6967 H   0  0  0  0  0  0  0  0  0  0  0  0
  153.0857  140.8733  159.8545 H   0  0  0  0  0  0  0  0  0  0  0  0
  144.3481  141.1395  154.1449 H   0  0  0  0  0  0  0  0  0  0  0  0
  1  2  2  0  0  0  0
  2  3  1  0  0  0  0
  2 13  1  0  0  0  0
  3  4  1  0  0  0  0
  3 20  1  0  0  0  0
  4  5  1  0  0  0  0
  4 21  1  0  0  0  0
  4 22  1  0  0  0  0
  5 12  1  0  0  0  0
  5  6  1  0  0  0  0
  5 23  1  0  0  0  0
  6  7  1  0  0  0  0
  6 24  1  0  0  0  0
  6 25  1  0  0  0  0
  7  8  1  0  0  0  0
  7 26  1  0  0  0  0
  7 27  1  0  0  0  0
  8  9  1  0  0  0  0
  8 12  1  0  0  0  0
  8 40  1  0  0  0  0
  9 11  1  0  0  0  0
  9 10  1  0  0  0  0
  9 28  1  0  0  0  0
 10 11  1  0  0  0  0
 10 29  1  0  0  0  0
 10 30  1  0  0  0  0
 11 31  1  0  0  0  0
 11 32  1  0  0  0  0
 12 33  1  0  0  0  0
 12 34  1  0  0  0  0
 13 14  1  0  0  0  0
 13 35  1  0  0  0  0
 14 19  1  0  0  0  0
 14 15  2  0  0  0  0
 15 16  1  0  0  0  0
 15 36  1  0  0  0  0
 16 17  2  0  0  0  0
 16 37  1  0  0  0  0
 17 18  1  0  0  0  0
 17 38  1  0  0  0  0
 18 19  2  0  0  0  0
 18 39  1  0  0  0  0
M  CHG  1   8   1
M  END
> <s_m_source_file>
AV-unprocessed.smi

> <i_m_source_file_index>
1042

> <i_lp_mmshare_version>
43012

> <i_f3d_flags>
0

> <s_epik_input>
bjFbY0hdW2NIXVtjSF1bY0hdYzFbTkhdQyg9TylbTkhdW0NIMl1bQ0BASF0yW0NIMl1bQ0gyXU4oW0NIMl0yKVtDSF0zW0NIMl1bQ0gyXTM=

> <s_epik_cmdline>
J2VwaWtfcHl0aG9uJywgJy1waCcsICc3LjAnLCAnLXRuJywgJzgnLCAnLW1hJywgJzIwMCcsICctbWV0YWxfYmluZGluZycsICctaW1hZScsICc8aW5maWxlLm1hZT4nLCAnLW9tYWUnLCAnPG91dGZpbGUubWFlPic=

> <r_lp_tautomer_probability>
1

> <r_epik_Ionization_Penalty>
0.000244736

> <r_epik_Ionization_Penalty_Charging>
0.000203384

> <r_epik_Ionization_Penalty_Neutral>
4.13519e-05

> <r_epik_State_Penalty>
-0

> <r_epik_Charging_Adjusted_Penalty>
0.000203384

> <i_epik_Tot_Q>
1

> <i_epik_Tot_abs_Q>
1

> <r_epik_Metal_State_Penalty>
-0

> <b_epik_Metal_Only>
0

> <s_lp_Force_Field>
OPLS_2005

> <r_lp_Energy>
38.723

> <b_lp_Chiralities_Consistent>
1

> <s_lp_Variant>
AV-unprocessed.smi:1042-1

> <Gold.Version>
5.8.1

> <Gold.Id.Protein>
6NUR|6NUR_protein|mol2

> <Gold.PLP.Fitness>
49.9305

> <Gold.PLP.PLP>
-38.8149

> <Gold.PLP.part.hbond>
-3.0000

> <Gold.PLP.part.metal>
0.0000

> <Gold.PLP.part.buried>
-6.1456

> <Gold.PLP.part.nonpolar>
-31.2791

> <Gold.PLP.part.repulsive>
0.2863

> <Gold.PLP.ligand.clash>
0.0000

> <Gold.PLP.ligand.torsion>
1.0729

> <Gold.PLP.Chemscore.Hbond>
4.0000

> <Gold.PLP.Chemscore.CHOScore>
0.0000

> <Gold.PLP.Chemscore.Metal>
0.0000

> <Gold.Chemscore.Hbonds>
donor molecule, donor type, donor heavy atom, donor atom, acceptor molecule, acceptor atom, score
      L1  H     3    20       P1  8028  1.00
      L1  H     8    40       P1 10175  2.00
      L1  H    13    35       P1  8028  1.00

> <Gold.PLP.Chemscore.Internal.Correction>
1.2613

> <Gold.Rescore>
     Score         DG    S(hbond)    S(metal)    S(lipo)     H(rot)  DE(clash)    DE(int)     intcor
     18.82     -21.14       2.90        0.00      83.14       1.47       0.00       2.32       ----

> <Gold.Chemscore.Fitness>
18.8173

> <Gold.Chemscore.DG>
-21.1387

> <Gold.Chemscore.ZeroCoef>
-5.4800

> <Gold.Chemscore.Hbond>
2.9030

> <Gold.Chemscore.Metal>
0.0000

> <Gold.Chemscore.Lipo>
83.1434

> <Gold.Chemscore.Internal_Hbond>
0.0000

> <Gold.Chemscore.DEClash>
0.0049

> <Gold.Chemscore.DEInternal>
2.3164

> <Gold.Chemscore.Rot>
1.4707

> <Gold.Chemscore.Internal.Correction>
   9.000000E+99

> <Gold.Chemscore.Hbonds>
donor molecule, donor type, donor heavy atom, donor atom, acceptor molecule, acceptor atom, score
      L1  H     3    20       P1  8028  0.97
      L1  H     8    40       P1 10175  0.74
      L1  H    13    35       P1  8028  0.99

> <Gold.Chemscore.Hbond.Weighted>
-9.6959

> <Gold.Chemscore.Metal.Weighted>
-0.0000

> <Gold.Chemscore.Lipo.Weighted>
-9.7278

> <Gold.Chemscore.Internal_Hbond.Weighted>
0.0000

> <Gold.Chemscore.DEClash.Weighted>
0.0049

> <Gold.Chemscore.DEInternal.Weighted>
2.3164

> <Gold.Chemscore.Rot.Weighted>
3.7650

> <Gold.Chemscore.Internal.Correction.Weighted>
   9.000000E+99

> <Gold.Protein.RotatedTorsions>
[ 6907 6896 6895 6894 ] final  -24.35 input  -60.11 | X-H torsion
[ 7974 7965 7964 7962 ] final  179.44 input  175.53 | X-H torsion
[ 8008 7997 7996 7995 ] final   61.40 input   59.86 | X-H torsion
[ 10167 10162 10161 10158 ] final  127.20 input  -65.29 | X-H torsion
[ 10718 10713 10712 10709 ] final   -7.21 input   66.30 | X-H torsion
[ 10763 10752 10751 10750 ] final  -25.03 input  -60.55 | X-H torsion
[ 11005 11000 10999 10996 ] final -126.71 input  -57.11 | X-H torsion

> <Gold.Protein.ActiveResidues>
 VAL166  LYS551  ARG553  GLY616  TRP617  ASP618  TYR619  PRO620  LYS621  CYS622 
 ASP623  PHE694  ASN695  SER759  ASP760  ASP761  ALA762  ILE779  LEU786  VAL792 
 PHE793  MET794  SER795  GLU796  ALA797  LYS798  CYS799  TRP800  GLU811  SER814 

> <Gold.Protein.RotatedAtoms>
  151.1909  135.0402  159.8831 H   0  0  0  0  0  0  0  0  0  0  0  0  # atno 6907 bound_to 6896
  152.5439  134.0958  159.8306 H   0  0  0  0  0  0  0  0  0  0  0  0  # atno 6908 bound_to 6896
  151.1086  133.5142  159.2639 H   0  0  0  0  0  0  0  0  0  0  0  0  # atno 6909 bound_to 6896
  144.7145  140.0549  143.6434 H   0  0  0  0  0  0  0  0  0  0  0  0  # atno 7974 bound_to 7965
  155.5977  140.3493  155.4585 H   0  0  0  0  0  0  0  0  0  0  0  0  # atno 8008 bound_to 7997
  156.0252  140.1262  157.0340 H   0  0  0  0  0  0  0  0  0  0  0  0  # atno 8009 bound_to 7997
  154.4330  140.1054  156.6007 H   0  0  0  0  0  0  0  0  0  0  0  0  # atno 8010 bound_to 7997
  139.5591  144.6869  151.4096 H   0  0  0  0  0  0  0  0  0  0  0  0  # atno 10167 bound_to 10162
  156.7205  130.5149  149.5869 H   0  0  0  0  0  0  0  0  0  0  0  0  # atno 10718 bound_to 10713
  153.6932  135.6960  153.5084 H   0  0  0  0  0  0  0  0  0  0  0  0  # atno 10763 bound_to 10752
  153.2397  135.4310  155.0684 H   0  0  0  0  0  0  0  0  0  0  0  0  # atno 10764 bound_to 10752
  154.8366  135.3505  154.6474 H   0  0  0  0  0  0  0  0  0  0  0  0  # atno 10765 bound_to 10752
  140.9659  134.0873  157.3921 H   0  0  0  0  0  0  0  0  0  0  0  0  # atno 11005 bound_to 11000
  145.9913  139.3017  143.0983 LP  0  0  0  0  0  0  0  0  0  0  0  0  # atno 17320 bound_to 7965
  145.8900  140.9310  143.0557 LP  0  0  0  0  0  0  0  0  0  0  0  0  # atno 17321 bound_to 7965
  140.6868  143.7955  150.7197 LP  0  0  0  0  0  0  0  0  0  0  0  0  # atno 17342 bound_to 10162
  140.1425  143.4428  152.2184 LP  0  0  0  0  0  0  0  0  0  0  0  0  # atno 17343 bound_to 10162
  156.1598  130.6366  151.0704 LP  0  0  0  0  0  0  0  0  0  0  0  0  # atno 17370 bound_to 10713
  157.6900  131.0813  150.7135 LP  0  0  0  0  0  0  0  0  0  0  0  0  # atno 17371 bound_to 10713
  139.8894  135.0105  156.6678 LP  0  0  0  0  0  0  0  0  0  0  0  0  # atno 17394 bound_to 11000
  140.7400  133.8986  155.8271 LP  0  0  0  0  0  0  0  0  0  0  0  0  # atno 17395 bound_to 11000

$$$$
