AV-unprocessed.smi:2205|AV-procd|sdf|8941|dock3
  -GOLD-   2272012153D 1   1.00000     0.00000
 Structure written by MMmdl.
 36 37  0  0  0  0  0  0  0  0  1 V2000
  150.2255  135.3907  155.0562 C   0  0  0  0  0  0  0  0  0  0  0  0
  151.4071  136.1660  155.1499 O   0  0  0  0  0  0  0  0  0  0  0  0
  151.1446  137.5219  155.4725 C   0  0  0  0  0  0  0  0  0  0  0  0
  150.6417  138.2579  154.2202 C   0  0  0  0  0  0  0  0  0  0  0  0
  149.8508  139.4475  154.5682 N   0  0  0  0  0  0  0  0  0  0  0  0
  150.5108  140.4672  155.2820 C   0  0  0  0  0  0  0  0  0  0  0  0
  149.8928  141.6104  155.6524 C   0  0  0  0  0  0  0  0  0  0  0  0
  150.4859  142.6708  156.3550 N   0  0  0  0  0  0  0  0  0  0  0  0
  151.4217  142.6452  157.3249 C   0  0  0  0  0  0  0  0  0  0  0  0
  151.9360  141.6287  157.7914 O   0  0  0  0  0  0  0  0  0  0  0  0
  151.8402  144.0232  157.8604 C   0  0  0  0  0  0  0  0  0  0  0  0
  152.8464  143.9776  159.0223 C   0  0  0  0  0  0  0  0  0  0  0  0
  151.7414  144.4034  159.9940 C   0  0  0  0  0  0  0  0  0  0  0  0
  150.8189  144.6819  158.8030 C   0  0  0  0  0  0  0  0  0  0  0  0
  148.5017  141.7500  155.2787 C   0  0  0  0  0  0  0  0  0  0  0  0
  147.8632  140.7850  154.5896 C   0  0  0  0  0  0  0  0  0  0  0  0
  148.5428  139.5514  154.1882 C   0  0  0  0  0  0  0  0  0  0  0  0
  147.9709  138.6686  153.5480 O   0  0  0  0  0  0  0  0  0  0  0  0
  150.4834  134.3579  154.8231 H   0  0  0  0  0  0  0  0  0  0  0  0
  149.5735  135.7615  154.2642 H   0  0  0  0  0  0  0  0  0  0  0  0
  149.6730  135.3962  155.9967 H   0  0  0  0  0  0  0  0  0  0  0  0
  150.4120  137.5901  156.2784 H   0  0  0  0  0  0  0  0  0  0  0  0
  152.0617  137.9930  155.8291 H   0  0  0  0  0  0  0  0  0  0  0  0
  151.4918  138.5420  153.5978 H   0  0  0  0  0  0  0  0  0  0  0  0
  150.0592  137.5745  153.6006 H   0  0  0  0  0  0  0  0  0  0  0  0
  151.5454  140.2402  155.4833 H   0  0  0  0  0  0  0  0  0  0  0  0
  150.1554  143.5867  156.0888 H   0  0  0  0  0  0  0  0  0  0  0  0
  152.1597  144.6992  157.0656 H   0  0  0  0  0  0  0  0  0  0  0  0
  153.2617  142.9925  159.2401 H   0  0  0  0  0  0  0  0  0  0  0  0
  153.6362  144.7230  158.9220 H   0  0  0  0  0  0  0  0  0  0  0  0
  151.3891  143.5811  160.6179 H   0  0  0  0  0  0  0  0  0  0  0  0
  151.9838  145.2856  160.5872 H   0  0  0  0  0  0  0  0  0  0  0  0
  150.6910  145.7463  158.6033 H   0  0  0  0  0  0  0  0  0  0  0  0
  149.8542  144.1767  158.8711 H   0  0  0  0  0  0  0  0  0  0  0  0
  147.9607  142.6439  155.5537 H   0  0  0  0  0  0  0  0  0  0  0  0
  146.8248  140.9221  154.3256 H   0  0  0  0  0  0  0  0  0  0  0  0
  1  2  1  0  0  0  0
  1 19  1  0  0  0  0
  1 20  1  0  0  0  0
  1 21  1  0  0  0  0
  2  3  1  0  0  0  0
  3  4  1  0  0  0  0
  3 22  1  0  0  0  0
  3 23  1  0  0  0  0
  4  5  1  0  0  0  0
  4 24  1  0  0  0  0
  4 25  1  0  0  0  0
  5 17  1  0  0  0  0
  5  6  1  0  0  0  0
  6  7  2  0  0  0  0
  6 26  1  0  0  0  0
  7  8  1  0  0  0  0
  7 15  1  0  0  0  0
  8  9  1  0  0  0  0
  8 27  1  0  0  0  0
  9 10  2  0  0  0  0
  9 11  1  0  0  0  0
 11 14  1  0  0  0  0
 11 12  1  0  0  0  0
 11 28  1  0  0  0  0
 12 13  1  0  0  0  0
 12 29  1  0  0  0  0
 12 30  1  0  0  0  0
 13 14  1  0  0  0  0
 13 31  1  0  0  0  0
 13 32  1  0  0  0  0
 14 33  1  0  0  0  0
 14 34  1  0  0  0  0
 15 16  2  0  0  0  0
 15 35  1  0  0  0  0
 16 17  1  0  0  0  0
 16 36  1  0  0  0  0
 17 18  2  0  0  0  0
M  END
> <s_m_source_file>
AV-unprocessed.smi

> <i_m_source_file_index>
2205

> <i_lp_mmshare_version>
43012

> <i_f3d_flags>
0

> <s_epik_input>
W0NIM11PW0NIMl1bQ0gyXW4xW2NIXWMoW2NIXVtjSF1jMT1PKVtOSF1DKD1PKVtDSF0yW0NIMl1bQ0gyXVtDSDJdMg==

> <s_epik_cmdline>
J2VwaWtfcHl0aG9uJywgJy1waCcsICc3LjAnLCAnLXRuJywgJzgnLCAnLW1hJywgJzIwMCcsICctbWV0YWxfYmluZGluZycsICctaW1hZScsICc8aW5maWxlLm1hZT4nLCAnLW9tYWUnLCAnPG91dGZpbGUubWFlPic=

> <r_lp_tautomer_probability>
1

> <r_epik_Ionization_Penalty>
2.40107e-06

> <r_epik_Ionization_Penalty_Charging>
2.27812e-06

> <r_epik_Ionization_Penalty_Neutral>
1.2295e-07

> <r_epik_State_Penalty>
-0

> <r_epik_Charging_Adjusted_Penalty>
2.27812e-06

> <i_epik_Tot_Q>
0

> <i_epik_Tot_abs_Q>
0

> <r_epik_Metal_State_Penalty>
-0

> <b_epik_Metal_Only>
0

> <s_lp_Force_Field>
OPLS_2005

> <r_lp_Energy>
28.3384

> <b_lp_Chiralities_Consistent>
1

> <s_lp_Variant>
AV-unprocessed.smi:2205-1

> <Gold.Version>
5.8.1

> <Gold.Id.Protein>
6NUR|6NUR_protein|mol2

> <Gold.PLP.Fitness>
42.9237

> <Gold.PLP.PLP>
-37.8668

> <Gold.PLP.part.hbond>
-2.0000

> <Gold.PLP.part.metal>
0.0000

> <Gold.PLP.part.buried>
-2.3074

> <Gold.PLP.part.nonpolar>
-34.6864

> <Gold.PLP.part.repulsive>
1.1027

> <Gold.PLP.ligand.clash>
0.0000

> <Gold.PLP.ligand.torsion>
0.6596

> <Gold.PLP.Chemscore.Hbond>
1.9920

> <Gold.PLP.Chemscore.CHOScore>
0.0000

> <Gold.PLP.Chemscore.Metal>
0.0000

> <Gold.Chemscore.Hbonds>
donor molecule, donor type, donor heavy atom, donor atom, acceptor molecule, acceptor atom, score
      L1  H     8    27       P1  8028  1.00
      P1  H 10752 10764       L1     2  1.00

> <Gold.PLP.Chemscore.Internal.Correction>
0.4001

> <Gold.Rescore>
     Score         DG    S(hbond)    S(metal)    S(lipo)     H(rot)  DE(clash)    DE(int)     intcor
     18.11     -18.81       1.98        0.00      91.60       1.56       0.06       0.64       ----

> <Gold.Chemscore.Fitness>
18.1105

> <Gold.Chemscore.DG>
-18.8062

> <Gold.Chemscore.ZeroCoef>
-5.4800

> <Gold.Chemscore.Hbond>
1.9765

> <Gold.Chemscore.Metal>
0.0000

> <Gold.Chemscore.Lipo>
91.5960

> <Gold.Chemscore.Internal_Hbond>
0.0000

> <Gold.Chemscore.DEClash>
0.0584

> <Gold.Chemscore.DEInternal>
0.6372

> <Gold.Chemscore.Rot>
1.5594

> <Gold.Chemscore.Internal.Correction>
   9.000000E+99

> <Gold.Chemscore.Hbonds>
donor molecule, donor type, donor heavy atom, donor atom, acceptor molecule, acceptor atom, score
      L1  H     8    27       P1  8028  0.98
      P1  H 10752 10764       L1     2  0.98

> <Gold.Chemscore.Hbond.Weighted>
-6.6015

> <Gold.Chemscore.Metal.Weighted>
-0.0000

> <Gold.Chemscore.Lipo.Weighted>
-10.7167

> <Gold.Chemscore.Internal_Hbond.Weighted>
0.0000

> <Gold.Chemscore.DEClash.Weighted>
0.0584

> <Gold.Chemscore.DEInternal.Weighted>
0.6372

> <Gold.Chemscore.Rot.Weighted>
3.9920

> <Gold.Chemscore.Internal.Correction.Weighted>
   9.000000E+99

> <Gold.Protein.RotatedTorsions>
[ 6907 6896 6895 6894 ] final -138.60 input  -60.11 | X-H torsion
[ 7974 7965 7964 7962 ] final  -78.16 input  175.53 | X-H torsion
[ 8008 7997 7996 7995 ] final  157.06 input   59.86 | X-H torsion
[ 10167 10162 10161 10158 ] final   99.06 input  -65.29 | X-H torsion
[ 10718 10713 10712 10709 ] final -127.46 input   66.30 | X-H torsion
[ 10763 10752 10751 10750 ] final  -68.86 input  -60.55 | X-H torsion
[ 11005 11000 10999 10996 ] final   11.19 input  -57.11 | X-H torsion

> <Gold.Protein.ActiveResidues>
 VAL166  LYS551  ARG553  GLY616  TRP617  ASP618  TYR619  PRO620  LYS621  CYS622 
 ASP623  PHE694  ASN695  SER759  ASP760  ASP761  ALA762  ILE779  LEU786  VAL792 
 PHE793  MET794  SER795  GLU796  ALA797  LYS798  CYS799  TRP800  GLU811  SER814 

> <Gold.Protein.RotatedAtoms>
  151.0371  133.5739  159.2654 H   0  0  0  0  0  0  0  0  0  0  0  0  # atno 6907 bound_to 6896
  151.2799  135.0710  159.9175 H   0  0  0  0  0  0  0  0  0  0  0  0  # atno 6908 bound_to 6896
  152.5357  134.0087  159.7982 H   0  0  0  0  0  0  0  0  0  0  0  0  # atno 6909 bound_to 6896
  145.5902  140.9431  143.1297 H   0  0  0  0  0  0  0  0  0  0  0  0  # atno 7974 bound_to 7965
  156.2386  140.1895  156.7051 H   0  0  0  0  0  0  0  0  0  0  0  0  # atno 8008 bound_to 7997
  154.6153  140.0616  156.9573 H   0  0  0  0  0  0  0  0  0  0  0  0  # atno 8009 bound_to 7997
  155.1949  140.3287  155.4355 H   0  0  0  0  0  0  0  0  0  0  0  0  # atno 8010 bound_to 7997
  139.7652  144.6941  151.0235 H   0  0  0  0  0  0  0  0  0  0  0  0  # atno 10167 bound_to 10162
  156.1859  130.6763  151.0363 H   0  0  0  0  0  0  0  0  0  0  0  0  # atno 10718 bound_to 10713
  154.3951  135.6044  153.5865 H   0  0  0  0  0  0  0  0  0  0  0  0  # atno 10763 bound_to 10752
  152.9787  135.5893  154.4251 H   0  0  0  0  0  0  0  0  0  0  0  0  # atno 10764 bound_to 10752
  154.4041  135.2843  155.2056 H   0  0  0  0  0  0  0  0  0  0  0  0  # atno 10765 bound_to 10752
  140.5060  134.0699  155.7805 H   0  0  0  0  0  0  0  0  0  0  0  0  # atno 11005 bound_to 11000
  144.7355  139.7599  143.7331 LP  0  0  0  0  0  0  0  0  0  0  0  0  # atno 17320 bound_to 7965
  146.1653  139.4782  142.9962 LP  0  0  0  0  0  0  0  0  0  0  0  0  # atno 17321 bound_to 7965
  140.7810  143.4651  151.0223 LP  0  0  0  0  0  0  0  0  0  0  0  0  # atno 17342 bound_to 10162
  139.8336  143.7657  152.3180 LP  0  0  0  0  0  0  0  0  0  0  0  0  # atno 17343 bound_to 10162
  157.6898  131.0813  150.7139 LP  0  0  0  0  0  0  0  0  0  0  0  0  # atno 17370 bound_to 10713
  156.7196  130.4676  149.5526 LP  0  0  0  0  0  0  0  0  0  0  0  0  # atno 17371 bound_to 10713
  141.1411  133.9137  157.2324 LP  0  0  0  0  0  0  0  0  0  0  0  0  # atno 17394 bound_to 11000
  139.9686  135.0135  156.9453 LP  0  0  0  0  0  0  0  0  0  0  0  0  # atno 17395 bound_to 11000

$$$$
