AV-unprocessed.smi:3078|AV-procd|sdf|11732|dock4
  -GOLD-   2272017133D 1   1.00000     0.00000
 Structure written by MMmdl.
 23 23  0  0  0  0  0  0  0  0  2 V2000
  146.0382  136.8065  151.6200 C   0  0  0  0  0  0  0  0  0  0  0  0
  145.2709  135.5799  151.5787 N   0  0  0  0  0  0  0  0  0  0  0  0
  145.0445  134.7411  150.5092 C   0  0  0  0  0  0  0  0  0  0  0  0
  144.2602  133.7111  150.9520 C   0  0  0  0  0  0  0  0  0  0  0  0
  143.7330  132.5187  150.1978 C   0  0  1  0  0  0  0  0  0  0  0  0
  142.2809  132.5142  150.2045 N   0  0  0  0  0  0  0  0  0  0  0  0
  144.2240  132.5365  148.7390 C   0  0  0  0  0  0  0  0  0  0  0  0
  143.6362  133.6519  147.9772 N   0  3  0  0  0  0  0  0  0  0  0  0
  144.0653  134.0179  152.3295 C   0  0  0  0  0  0  0  0  0  0  0  0
  144.6680  135.1354  152.6998 N   0  0  0  0  0  0  0  0  0  0  0  0
  146.5229  136.9776  150.6585 H   0  0  0  0  0  0  0  0  0  0  0  0
  146.8028  136.7389  152.3948 H   0  0  0  0  0  0  0  0  0  0  0  0
  145.3784  137.6463  151.8396 H   0  0  0  0  0  0  0  0  0  0  0  0
  145.4565  134.9426  149.5312 H   0  0  0  0  0  0  0  0  0  0  0  0
  144.0680  131.5976  150.6770 H   0  0  0  0  0  0  0  0  0  0  0  0
  141.9335  133.3058  149.6813 H   0  0  0  0  0  0  0  0  0  0  0  0
  141.9433  131.6891  149.7285 H   0  0  0  0  0  0  0  0  0  0  0  0
  145.3124  132.5969  148.6911 H   0  0  0  0  0  0  0  0  0  0  0  0
  143.9360  131.6106  148.2394 H   0  0  0  0  0  0  0  0  0  0  0  0
  144.3726  134.2503  147.6317 H   0  0  0  0  0  0  0  0  0  0  0  0
  143.0269  134.1820  148.5839 H   0  0  0  0  0  0  0  0  0  0  0  0
  143.5056  133.4629  153.0679 H   0  0  0  0  0  0  0  0  0  0  0  0
  143.1040  133.2870  147.2003 H   0  0  0  0  0  0  0  0  0  0  0  0
  1  2  1  0  0  0  0
  1 11  1  0  0  0  0
  1 12  1  0  0  0  0
  1 13  1  0  0  0  0
  2 10  1  0  0  0  0
  2  3  1  0  0  0  0
  3  4  2  0  0  0  0
  3 14  1  0  0  0  0
  4  5  1  0  0  0  0
  4  9  1  0  0  0  0
  5  6  1  0  0  0  0
  5  7  1  0  0  0  0
  5 15  1  0  0  0  0
  6 16  1  0  0  0  0
  6 17  1  0  0  0  0
  7  8  1  0  0  0  0
  7 18  1  0  0  0  0
  7 19  1  0  0  0  0
  8 20  1  0  0  0  0
  8 21  1  0  0  0  0
  8 23  1  0  0  0  0
  9 10  2  0  0  0  0
  9 22  1  0  0  0  0
M  CHG  1   8   1
M  END
> <s_m_source_file>
AV-unprocessed.smi

> <i_m_source_file_index>
3078

> <i_lp_mmshare_version>
43012

> <i_f3d_flags>
0

> <s_epik_input>
W0NIM11uMVtjSF1jKFtjSF1uMSlbQ0BIXShbTkgyXSlbQ0gyXVtOSDJd

> <s_epik_cmdline>
J2VwaWtfcHl0aG9uJywgJy1waCcsICc3LjAnLCAnLXRuJywgJzgnLCAnLW1hJywgJzIwMCcsICctbWV0YWxfYmluZGluZycsICctaW1hZScsICc8aW5maWxlLm1hZT4nLCAnLW9tYWUnLCAnPG91dGZpbGUubWFlPic=

> <r_lp_tautomer_probability>
1

> <r_epik_Ionization_Penalty>
0.0498714

> <r_epik_Ionization_Penalty_Charging>
0.00651912

> <r_epik_Ionization_Penalty_Neutral>
0.0433523

> <r_epik_State_Penalty>
0.141593

> <r_epik_Charging_Adjusted_Penalty>
0.148112

> <i_epik_Tot_Q>
1

> <i_epik_Tot_abs_Q>
1

> <r_epik_Metal_State_Penalty>
0.141584

> <b_epik_Metal_Only>
0

> <s_lp_Force_Field>
OPLS_2005

> <r_lp_Energy>
-1.23381

> <b_lp_Chiralities_Consistent>
1

> <s_lp_Variant>
AV-unprocessed.smi:3078-2

> <Gold.Version>
5.8.1

> <Gold.Id.Protein>
6NUR|6NUR_protein|mol2

> <Gold.PLP.Fitness>
45.8921

> <Gold.PLP.PLP>
-22.6462

> <Gold.PLP.part.hbond>
-4.9424

> <Gold.PLP.part.metal>
0.0000

> <Gold.PLP.part.buried>
-0.6401

> <Gold.PLP.part.nonpolar>
-17.5531

> <Gold.PLP.part.repulsive>
0.2760

> <Gold.PLP.ligand.clash>
0.0000

> <Gold.PLP.ligand.torsion>
0.0288

> <Gold.PLP.Chemscore.Hbond>
5.7670

> <Gold.PLP.Chemscore.CHOScore>
2.0000

> <Gold.PLP.Chemscore.Metal>
0.0000

> <Gold.Chemscore.Hbonds>
donor molecule, donor type, donor heavy atom, donor atom, acceptor molecule, acceptor atom, score
      L1  H     6    16       P1 10186  0.79
      L1  H     6    17       P1 10952  1.00
      L1  H     8    20       P1  7921  1.00
      L1  H     8    21       P1 10186  0.95
      L1  H     8    23       P1 10195  0.78
      L1  C     3    14       P1  7921  0.96
      L1  C     9    22       P1 10957  0.95

> <Gold.PLP.Chemscore.Internal.Correction>
0.0025

> <Gold.Rescore>
     Score         DG    S(hbond)    S(metal)    S(lipo)     H(rot)  DE(clash)    DE(int)     intcor
     20.90     -21.48       4.22        0.00      47.05       1.41       0.09       0.50       ----

> <Gold.Chemscore.Fitness>
20.8961

> <Gold.Chemscore.DG>
-21.4795

> <Gold.Chemscore.ZeroCoef>
-5.4800

> <Gold.Chemscore.Hbond>
4.2246

> <Gold.Chemscore.Metal>
0.0000

> <Gold.Chemscore.Lipo>
47.0483

> <Gold.Chemscore.Internal_Hbond>
0.0000

> <Gold.Chemscore.DEClash>
0.0863

> <Gold.Chemscore.DEInternal>
0.4971

> <Gold.Chemscore.Rot>
1.4123

> <Gold.Chemscore.Internal.Correction>
   9.000000E+99

> <Gold.Chemscore.Hbonds>
donor molecule, donor type, donor heavy atom, donor atom, acceptor molecule, acceptor atom, score
      L1  H     6    16       P1 10186  0.74
      L1  H     6    17       P1 10952  0.94
      L1  H     8    20       P1  7921  0.96
      L1  H     8    21       P1 10186  0.47
      L1  H     8    23       P1 10195  0.78

> <Gold.Chemscore.Hbond.Weighted>
-14.1103

> <Gold.Chemscore.Metal.Weighted>
-0.0000

> <Gold.Chemscore.Lipo.Weighted>
-5.5046

> <Gold.Chemscore.Internal_Hbond.Weighted>
0.0000

> <Gold.Chemscore.DEClash.Weighted>
0.0863

> <Gold.Chemscore.DEInternal.Weighted>
0.4971

> <Gold.Chemscore.Rot.Weighted>
3.6154

> <Gold.Chemscore.Internal.Correction.Weighted>
   9.000000E+99

> <Gold.Protein.RotatedTorsions>
[ 6907 6896 6895 6894 ] final  -60.37 input  -60.11 | X-H torsion
[ 7974 7965 7964 7962 ] final  -18.86 input  175.53 | X-H torsion
[ 8008 7997 7996 7995 ] final  113.04 input   59.86 | X-H torsion
[ 10167 10162 10161 10158 ] final   97.51 input  -65.29 | X-H torsion
[ 10718 10713 10712 10709 ] final   56.48 input   66.30 | X-H torsion
[ 10763 10752 10751 10750 ] final  -46.16 input  -60.55 | X-H torsion
[ 11005 11000 10999 10996 ] final   -1.60 input  -57.11 | X-H torsion

> <Gold.Protein.ActiveResidues>
 VAL166  LYS551  ARG553  GLY616  TRP617  ASP618  TYR619  PRO620  LYS621  CYS622 
 ASP623  PHE694  ASN695  SER759  ASP760  ASP761  ALA762  ILE779  LEU786  VAL792 
 PHE793  MET794  SER795  GLU796  ALA797  LYS798  CYS799  TRP800  GLU811  SER814 

> <Gold.Protein.RotatedAtoms>
  150.7861  134.6847  159.6462 H   0  0  0  0  0  0  0  0  0  0  0  0  # atno 6907 bound_to 6896
  152.3958  134.6365  160.0098 H   0  0  0  0  0  0  0  0  0  0  0  0  # atno 6908 bound_to 6896
  151.6651  133.3279  159.3219 H   0  0  0  0  0  0  0  0  0  0  0  0  # atno 6909 bound_to 6896
  146.1871  140.3981  142.8472 H   0  0  0  0  0  0  0  0  0  0  0  0  # atno 7974 bound_to 7965
  156.2232  140.2987  156.0003 H   0  0  0  0  0  0  0  0  0  0  0  0  # atno 8008 bound_to 7997
  155.2426  140.0423  157.2994 H   0  0  0  0  0  0  0  0  0  0  0  0  # atno 8009 bound_to 7997
  154.5873  140.2392  155.7977 H   0  0  0  0  0  0  0  0  0  0  0  0  # atno 8010 bound_to 7997
  139.7794  144.6894  151.0044 H   0  0  0  0  0  0  0  0  0  0  0  0  # atno 10167 bound_to 10162
  157.5434  130.8713  149.8855 H   0  0  0  0  0  0  0  0  0  0  0  0  # atno 10718 bound_to 10713
  154.0405  135.6644  153.4789 H   0  0  0  0  0  0  0  0  0  0  0  0  # atno 10763 bound_to 10752
  153.0504  135.5088  154.7847 H   0  0  0  0  0  0  0  0  0  0  0  0  # atno 10764 bound_to 10752
  154.6821  135.3047  154.9564 H   0  0  0  0  0  0  0  0  0  0  0  0  # atno 10765 bound_to 10752
  140.6491  133.9421  155.8370 H   0  0  0  0  0  0  0  0  0  0  0  0  # atno 11005 bound_to 11000
  144.8417  140.6867  143.6225 LP  0  0  0  0  0  0  0  0  0  0  0  0  # atno 17320 bound_to 7965
  145.3906  139.1617  143.4231 LP  0  0  0  0  0  0  0  0  0  0  0  0  # atno 17321 bound_to 7965
  140.7818  143.4500  151.0427 LP  0  0  0  0  0  0  0  0  0  0  0  0  # atno 17342 bound_to 10162
  139.8181  143.7858  152.3175 LP  0  0  0  0  0  0  0  0  0  0  0  0  # atno 17343 bound_to 10162
  156.0515  130.3716  150.1189 LP  0  0  0  0  0  0  0  0  0  0  0  0  # atno 17370 bound_to 10713
  156.9367  130.9731  151.3523 LP  0  0  0  0  0  0  0  0  0  0  0  0  # atno 17371 bound_to 10713
  141.0550  134.0429  157.3734 LP  0  0  0  0  0  0  0  0  0  0  0  0  # atno 17394 bound_to 11000
  139.9052  135.0177  156.7454 LP  0  0  0  0  0  0  0  0  0  0  0  0  # atno 17395 bound_to 11000

$$$$
