AV-unprocessed.smi:54|AV-procd|sdf|534|dock3
  -GOLD-   2262016413D 1   1.00000     0.00000
 Structure written by MMmdl.
 44 46  0  0  0  0  0  0  0  0  1 V2000
  145.2549  134.0330  151.0185 C   0  0  0  0  0  0  0  0  0  0  0  0
  145.9898  132.6840  151.0794 C   0  0  0  0  0  0  0  0  0  0  0  0
  145.0171  131.5095  150.8849 C   0  0  0  0  0  0  0  0  0  0  0  0
  146.7515  132.5442  152.4025 C   0  0  0  0  0  0  0  0  0  0  0  0
  146.5858  131.5807  153.1518 O   0  0  0  0  0  0  0  0  0  0  0  0
  147.6707  133.6264  152.7091 N   0  0  0  0  0  0  0  0  0  0  0  0
  148.4516  133.7586  153.8068 C   0  0  0  0  0  0  0  0  0  0  0  0
  148.8452  134.9321  154.2819 N   0  0  0  0  0  0  0  0  0  0  0  0
  149.6333  134.8587  155.3965 C   0  0  0  0  0  0  0  0  0  0  0  0
  150.0356  133.7114  156.0465 C   0  0  0  0  0  0  0  0  0  0  0  0
  150.8327  134.0352  157.1387 N   0  0  0  0  0  0  0  0  0  0  0  0
  150.8895  135.3381  157.1149 C   0  0  0  0  0  0  0  0  0  0  0  0
  150.1917  135.9170  156.0797 N   0  0  0  0  0  0  0  0  0  0  0  0
  150.0193  137.3654  155.7305 C   0  0  1  0  0  0  0  0  0  0  0  0
  150.4076  138.1351  156.8283 O   0  0  0  0  0  0  0  0  0  0  0  0
  151.7149  138.6533  156.6118 C   0  0  2  0  0  0  0  0  0  0  0  0
  152.0030  139.8494  157.5350 C   0  0  0  0  0  0  0  0  0  0  0  0
  151.9329  139.4447  158.8854 O   0  0  0  0  0  0  0  0  0  0  0  0
  151.6959  138.9651  155.1105 C   0  0  2  0  0  0  0  0  0  0  0  0
  151.0379  140.1933  154.8571 O   0  0  0  0  0  0  0  0  0  0  0  0
  150.8999  137.8009  154.5320 C   0  0  1  0  0  0  0  0  0  0  0  0
  151.7890  136.7983  154.0700 O   0  0  0  0  0  0  0  0  0  0  0  0
  149.6123  132.4341  155.5494 C   0  0  0  0  0  0  0  0  0  0  0  0
  149.8687  131.3189  155.9977 O   0  0  0  0  0  0  0  0  0  0  0  0
  148.8101  132.5511  154.4065 N   0  0  0  0  0  0  0  0  0  0  0  0
  148.9491  137.4783  155.5526 H   0  0  0  0  0  0  0  0  0  0  0  0
  152.4481  137.8631  156.7845 H   0  0  0  0  0  0  0  0  0  0  0  0
  152.7039  139.0327  154.6982 H   0  0  0  0  0  0  0  0  0  0  0  0
  150.2632  138.1066  153.7004 H   0  0  0  0  0  0  0  0  0  0  0  0
  145.9424  134.8663  151.1690 H   0  0  0  0  0  0  0  0  0  0  0  0
  144.4767  134.1011  151.7798 H   0  0  0  0  0  0  0  0  0  0  0  0
  144.7794  134.1738  150.0474 H   0  0  0  0  0  0  0  0  0  0  0  0
  146.7151  132.6598  150.2648 H   0  0  0  0  0  0  0  0  0  0  0  0
  145.5376  130.5520  150.9253 H   0  0  0  0  0  0  0  0  0  0  0  0
  144.5216  131.5707  149.9155 H   0  0  0  0  0  0  0  0  0  0  0  0
  144.2405  131.4997  151.6511 H   0  0  0  0  0  0  0  0  0  0  0  0
  147.7197  134.3692  152.0274 H   0  0  0  0  0  0  0  0  0  0  0  0
  151.4400  135.9034  157.8527 H   0  0  0  0  0  0  0  0  0  0  0  0
  153.0109  140.2259  157.3579 H   0  0  0  0  0  0  0  0  0  0  0  0
  151.3104  140.6713  157.3511 H   0  0  0  0  0  0  0  0  0  0  0  0
  151.7066  140.1956  159.4125 H   0  0  0  0  0  0  0  0  0  0  0  0
  150.3830  140.3261  155.5254 H   0  0  0  0  0  0  0  0  0  0  0  0
  151.4507  136.4527  153.2580 H   0  0  0  0  0  0  0  0  0  0  0  0
  148.4791  131.6889  153.9990 H   0  0  0  0  0  0  0  0  0  0  0  0
  1  2  1  0  0  0  0
  1 30  1  0  0  0  0
  1 31  1  0  0  0  0
  1 32  1  0  0  0  0
  2  3  1  0  0  0  0
  2  4  1  0  0  0  0
  2 33  1  0  0  0  0
  3 34  1  0  0  0  0
  3 35  1  0  0  0  0
  3 36  1  0  0  0  0
  4  5  2  0  0  0  0
  4  6  1  0  0  0  0
  6 37  1  0  0  0  0
  6  7  1  0  0  0  0
  7 25  1  0  0  0  0
  7  8  2  0  0  0  0
  8  9  1  0  0  0  0
  9 13  1  0  0  0  0
  9 10  2  0  0  0  0
 10 11  1  0  0  0  0
 10 23  1  0  0  0  0
 11 12  2  0  0  0  0
 12 13  1  0  0  0  0
 12 38  1  0  0  0  0
 13 14  1  0  0  0  0
 14 26  1  0  0  0  0
 14 21  1  0  0  0  0
 14 15  1  0  0  0  0
 15 16  1  0  0  0  0
 16 27  1  0  0  0  0
 16 17  1  0  0  0  0
 16 19  1  0  0  0  0
 17 18  1  0  0  0  0
 17 39  1  0  0  0  0
 17 40  1  0  0  0  0
 18 41  1  0  0  0  0
 19 28  1  0  0  0  0
 19 20  1  0  0  0  0
 19 21  1  0  0  0  0
 20 42  1  0  0  0  0
 21 29  1  0  0  0  0
 21 22  1  0  0  0  0
 22 43  1  0  0  0  0
 23 24  2  0  0  0  0
 23 25  1  0  0  0  0
 25 44  1  0  0  0  0
M  END
> <s_m_source_file>
AV-unprocessed.smi

> <i_m_source_file_index>
54

> <i_lp_mmshare_version>
43012

> <i_f3d_flags>
0

> <s_epik_input>
W0NIM11bQ0hdKFtDSDNdKUMoPU8pW05IXWMobjEpW25IXWMoPU8pYyhjMTIpbltjSF1uMltDQEBIXTNPW0NASF0oW0NIMl1bT0hdKVtDQEBIXShbT0hdKVtDQEhdM1tPSF0=

> <s_epik_cmdline>
J2VwaWtfcHl0aG9uJywgJy1waCcsICc3LjAnLCAnLXRuJywgJzgnLCAnLW1hJywgJzIwMCcsICctbWV0YWxfYmluZGluZycsICctaW1hZScsICc8aW5maWxlLm1hZT4nLCAnLW9tYWUnLCAnPG91dGZpbGUubWFlPic=

> <r_lp_tautomer_probability>
0.85571

> <r_epik_Ionization_Penalty>
0.0316551

> <r_epik_Ionization_Penalty_Charging>
0.0316043

> <r_epik_Ionization_Penalty_Neutral>
5.07097e-05

> <r_epik_State_Penalty>
3.15494e-07

> <r_epik_Charging_Adjusted_Penalty>
0.0316047

> <i_epik_Tot_Q>
0

> <i_epik_Tot_abs_Q>
0

> <r_epik_Metal_State_Penalty>
0.421206

> <b_epik_Metal_Only>
0

> <s_epik_Chemistry_Notes>
This compound contains an acetal/aminal-like group ( X-CH(R)-Y where X, Y are N, S, or O) that may be acid/base labile, releasing an aldehyde.

> <s_lp_Force_Field>
OPLS_2005

> <r_lp_Energy>
41.1485

> <b_lp_Chiralities_Consistent>
1

> <s_lp_Variant>
AV-unprocessed.smi:54-6

> <Gold.Version>
5.8.1

> <Gold.Id.Protein>
6NUR|6NUR_protein|mol2

> <Gold.PLP.Fitness>
44.1530

> <Gold.PLP.PLP>
-34.9101

> <Gold.PLP.part.hbond>
-4.6444

> <Gold.PLP.part.metal>
0.0000

> <Gold.PLP.part.buried>
-6.1790

> <Gold.PLP.part.nonpolar>
-27.0275

> <Gold.PLP.part.repulsive>
3.5555

> <Gold.PLP.ligand.clash>
0.0000

> <Gold.PLP.ligand.torsion>
0.6221

> <Gold.PLP.Chemscore.Hbond>
3.4664

> <Gold.PLP.Chemscore.CHOScore>
0.0000

> <Gold.PLP.Chemscore.Metal>
0.0000

> <Gold.Chemscore.Hbonds>
donor molecule, donor type, donor heavy atom, donor atom, acceptor molecule, acceptor atom, score
      L1  H     6    37       P1  7948  0.42
      L1  H    22    43       P1  7949  1.00
      P1  H  6896  6909       L1    11  0.01
      P1  H  7989  7998       L1    20  1.00
      P1  H 10752 10764       L1    22  0.70

> <Gold.PLP.Chemscore.Internal.Correction>
0.0877

> <Gold.Rescore>
     Score         DG    S(hbond)    S(metal)    S(lipo)     H(rot)  DE(clash)    DE(int)     intcor
      8.19     -11.12       2.98        0.00      51.84       4.05       2.27       0.66       ----

> <Gold.Chemscore.Fitness>
8.1912

> <Gold.Chemscore.DG>
-11.1174

> <Gold.Chemscore.ZeroCoef>
-5.4800

> <Gold.Chemscore.Hbond>
2.9757

> <Gold.Chemscore.Metal>
0.0000

> <Gold.Chemscore.Lipo>
51.8372

> <Gold.Chemscore.Internal_Hbond>
0.0000

> <Gold.Chemscore.DEClash>
2.2679

> <Gold.Chemscore.DEInternal>
0.6583

> <Gold.Chemscore.Rot>
4.0493

> <Gold.Chemscore.Internal.Correction>
   9.000000E+99

> <Gold.Chemscore.Hbonds>
donor molecule, donor type, donor heavy atom, donor atom, acceptor molecule, acceptor atom, score
      L1  H     6    37       P1  7948  0.12
      L1  H    22    43       P1  7949  0.85
      P1  H  7989  7998       L1    20  0.74
      P1  H 10752 10764       L1    22  0.07

> <Gold.Chemscore.Hbond.Weighted>
-9.9387

> <Gold.Chemscore.Metal.Weighted>
-0.0000

> <Gold.Chemscore.Lipo.Weighted>
-6.0650

> <Gold.Chemscore.Internal_Hbond.Weighted>
0.0000

> <Gold.Chemscore.DEClash.Weighted>
2.2679

> <Gold.Chemscore.DEInternal.Weighted>
0.6583

> <Gold.Chemscore.Rot.Weighted>
10.3662

> <Gold.Chemscore.Internal.Correction.Weighted>
   9.000000E+99

> <Gold.Protein.RotatedTorsions>
[ 6907 6896 6895 6894 ] final   38.55 input  -60.11 | X-H torsion
[ 7974 7965 7964 7962 ] final   34.28 input  175.53 | X-H torsion
[ 8008 7997 7996 7995 ] final   97.75 input   59.86 | X-H torsion
[ 10167 10162 10161 10158 ] final -133.74 input  -65.29 | X-H torsion
[ 10718 10713 10712 10709 ] final   57.84 input   66.30 | X-H torsion
[ 10763 10752 10751 10750 ] final  -82.39 input  -60.55 | X-H torsion
[ 11005 11000 10999 10996 ] final -101.44 input  -57.11 | X-H torsion

> <Gold.Protein.ActiveResidues>
 VAL166  LYS551  ARG553  GLY616  TRP617  ASP618  TYR619  PRO620  LYS621  CYS622 
 ASP623  PHE694  ASN695  SER759  ASP760  ASP761  ALA762  ILE779  LEU786  VAL792 
 PHE793  MET794  SER795  GLU796  ALA797  LYS798  CYS799  TRP800  GLU811  SER814 

> <Gold.Protein.RotatedAtoms>
  152.1580  134.8935  160.0543 H   0  0  0  0  0  0  0  0  0  0  0  0  # atno 6907 bound_to 6896
  151.9942  133.3797  159.4164 H   0  0  0  0  0  0  0  0  0  0  0  0  # atno 6908 bound_to 6896
  150.6884  134.3826  159.5084 H   0  0  0  0  0  0  0  0  0  0  0  0  # atno 6909 bound_to 6896
  146.1364  139.6289  142.9193 H   0  0  0  0  0  0  0  0  0  0  0  0  # atno 7974 bound_to 7965
  156.0933  140.3254  155.7845 H   0  0  0  0  0  0  0  0  0  0  0  0  # atno 8008 bound_to 7997
  155.4959  140.0565  157.2964 H   0  0  0  0  0  0  0  0  0  0  0  0  # atno 8009 bound_to 7997
  154.4651  140.1985  156.0155 H   0  0  0  0  0  0  0  0  0  0  0  0  # atno 8010 bound_to 7997
  139.8951  143.6675  152.2605 H   0  0  0  0  0  0  0  0  0  0  0  0  # atno 10167 bound_to 10162
  157.5548  130.8792  149.9018 H   0  0  0  0  0  0  0  0  0  0  0  0  # atno 10718 bound_to 10713
  154.5752  135.5593  153.7132 H   0  0  0  0  0  0  0  0  0  0  0  0  # atno 10763 bound_to 10752
  153.0062  135.6306  154.2059 H   0  0  0  0  0  0  0  0  0  0  0  0  # atno 10764 bound_to 10752
  154.2000  135.2878  155.2974 H   0  0  0  0  0  0  0  0  0  0  0  0  # atno 10765 bound_to 10752
  141.1230  133.8479  157.1233 H   0  0  0  0  0  0  0  0  0  0  0  0  # atno 11005 bound_to 11000
  145.5147  141.0434  143.2468 LP  0  0  0  0  0  0  0  0  0  0  0  0  # atno 17320 bound_to 7965
  144.7744  139.6663  143.7181 LP  0  0  0  0  0  0  0  0  0  0  0  0  # atno 17321 bound_to 7965
  139.7075  144.7626  151.1169 LP  0  0  0  0  0  0  0  0  0  0  0  0  # atno 17342 bound_to 10162
  140.7718  143.5375  150.9351 LP  0  0  0  0  0  0  0  0  0  0  0  0  # atno 17343 bound_to 10162
  156.0608  130.3700  150.0985 LP  0  0  0  0  0  0  0  0  0  0  0  0  # atno 17370 bound_to 10713
  156.9155  130.9666  151.3556 LP  0  0  0  0  0  0  0  0  0  0  0  0  # atno 17371 bound_to 10713
  140.0204  134.9948  157.0580 LP  0  0  0  0  0  0  0  0  0  0  0  0  # atno 17394 bound_to 11000
  140.4449  134.1642  155.7176 LP  0  0  0  0  0  0  0  0  0  0  0  0  # atno 17395 bound_to 11000

$$$$
