AV-unprocessed.smi:2107|AV-procd|sdf|8600|dock8
  -GOLD-   2272011333D 1   1.00000     0.00000
 Structure written by MMmdl.
 46 47  0  0  0  0  0  0  0  0  1 V2000
  145.8929  133.1838  162.6012 C   0  0  0  0  0  0  0  0  0  0  0  0
  146.9272  134.2718  162.2821 C   0  0  0  0  0  0  0  0  0  0  0  0
  146.4219  135.2257  161.2735 N   0  0  0  0  0  0  0  0  0  0  0  0
  144.9729  135.4914  161.3341 C   0  0  0  0  0  0  0  0  0  0  0  0
  144.6642  136.8075  162.0626 C   0  0  0  0  0  0  0  0  0  0  0  0
  147.4690  136.5054  160.7364 S   0  0  0  0  0  0  0  0  0  0  0  0
  146.6620  137.5070  160.0217 O   0  0  0  0  0  0  0  0  0  0  0  0
  148.3431  136.8859  161.8563 O   0  0  0  0  0  0  0  0  0  0  0  0
  148.4049  135.6278  159.5817 N   0  0  0  0  0  0  0  0  0  0  0  0
  149.2641  136.3463  158.6377 C   0  0  0  0  0  0  0  0  0  0  0  0
  149.9043  135.4675  157.5619 C   0  0  0  0  0  0  0  0  0  0  0  0
  149.5453  134.1051  157.4441 C   0  0  0  0  0  0  0  0  0  0  0  0
  150.1607  133.3079  156.4629 C   0  0  0  0  0  0  0  0  0  0  0  0
  151.1273  133.9021  155.6334 C   0  0  0  0  0  0  0  0  0  0  0  0
  151.4913  135.1961  155.7365 N   0  0  0  0  0  0  0  0  0  0  0  0
  150.8995  135.9694  156.6800 C   0  0  0  0  0  0  0  0  0  0  0  0
  151.2952  137.3169  156.7443 N   0  0  0  0  0  0  0  0  0  0  0  0
  152.0237  137.7487  155.5584 C   0  0  0  0  0  0  0  0  0  0  0  0
  152.2382  139.2712  155.6000 C   0  0  0  0  0  0  0  0  0  0  0  0
  152.9022  139.6295  156.8091 O   0  0  0  0  0  0  0  0  0  0  0  0
  152.1483  139.2667  157.9629 C   0  0  0  0  0  0  0  0  0  0  0  0
  151.9383  137.7431  157.9825 C   0  0  0  0  0  0  0  0  0  0  0  0
  146.2443  132.5481  163.4138 H   0  0  0  0  0  0  0  0  0  0  0  0
  145.7094  132.5377  161.7441 H   0  0  0  0  0  0  0  0  0  0  0  0
  144.9401  133.6150  162.9083 H   0  0  0  0  0  0  0  0  0  0  0  0
  147.1987  134.7993  163.1971 H   0  0  0  0  0  0  0  0  0  0  0  0
  147.8466  133.8097  161.9223 H   0  0  0  0  0  0  0  0  0  0  0  0
  144.5609  135.4998  160.3244 H   0  0  0  0  0  0  0  0  0  0  0  0
  144.4713  134.6818  161.8628 H   0  0  0  0  0  0  0  0  0  0  0  0
  143.5877  136.9470  162.1620 H   0  0  0  0  0  0  0  0  0  0  0  0
  145.0553  137.6722  161.5268 H   0  0  0  0  0  0  0  0  0  0  0  0
  145.0922  136.8101  163.0655 H   0  0  0  0  0  0  0  0  0  0  0  0
  148.8360  134.7879  159.9674 H   0  0  0  0  0  0  0  0  0  0  0  0
  148.6823  137.1583  158.2030 H   0  0  0  0  0  0  0  0  0  0  0  0
  150.0704  136.8156  159.2010 H   0  0  0  0  0  0  0  0  0  0  0  0
  148.8081  133.6638  158.0957 H   0  0  0  0  0  0  0  0  0  0  0  0
  149.8996  132.2660  156.3520 H   0  0  0  0  0  0  0  0  0  0  0  0
  151.6237  133.3231  154.8691 H   0  0  0  0  0  0  0  0  0  0  0  0
  152.9858  137.2362  155.5195 H   0  0  0  0  0  0  0  0  0  0  0  0
  151.4789  137.4737  154.6555 H   0  0  0  0  0  0  0  0  0  0  0  0
  152.8455  139.5887  154.7523 H   0  0  0  0  0  0  0  0  0  0  0  0
  151.2860  139.7992  155.5261 H   0  0  0  0  0  0  0  0  0  0  0  0
  152.6884  139.5835  158.8552 H   0  0  0  0  0  0  0  0  0  0  0  0
  151.1917  139.7916  157.9649 H   0  0  0  0  0  0  0  0  0  0  0  0
  151.3219  137.4587  158.8362 H   0  0  0  0  0  0  0  0  0  0  0  0
  152.9010  137.2424  158.0944 H   0  0  0  0  0  0  0  0  0  0  0  0
  1  2  1  0  0  0  0
  1 23  1  0  0  0  0
  1 24  1  0  0  0  0
  1 25  1  0  0  0  0
  2  3  1  0  0  0  0
  2 26  1  0  0  0  0
  2 27  1  0  0  0  0
  3  4  1  0  0  0  0
  3  6  1  0  0  0  0
  4  5  1  0  0  0  0
  4 28  1  0  0  0  0
  4 29  1  0  0  0  0
  5 30  1  0  0  0  0
  5 31  1  0  0  0  0
  5 32  1  0  0  0  0
  6  7  2  0  0  0  0
  6  8  2  0  0  0  0
  6  9  1  0  0  0  0
  9 10  1  0  0  0  0
  9 33  1  0  0  0  0
 10 11  1  0  0  0  0
 10 34  1  0  0  0  0
 10 35  1  0  0  0  0
 11 16  1  0  0  0  0
 11 12  2  0  0  0  0
 12 13  1  0  0  0  0
 12 36  1  0  0  0  0
 13 14  2  0  0  0  0
 13 37  1  0  0  0  0
 14 15  1  0  0  0  0
 14 38  1  0  0  0  0
 15 16  2  0  0  0  0
 16 17  1  0  0  0  0
 17 22  1  0  0  0  0
 17 18  1  0  0  0  0
 18 19  1  0  0  0  0
 18 39  1  0  0  0  0
 18 40  1  0  0  0  0
 19 20  1  0  0  0  0
 19 41  1  0  0  0  0
 19 42  1  0  0  0  0
 20 21  1  0  0  0  0
 21 22  1  0  0  0  0
 21 43  1  0  0  0  0
 21 44  1  0  0  0  0
 22 45  1  0  0  0  0
 22 46  1  0  0  0  0
M  END
> <s_m_source_file>
AV-unprocessed.smi

> <i_m_source_file_index>
2107

> <i_lp_mmshare_version>
43012

> <i_f3d_flags>
0

> <s_epik_input>
W0NIM11bQ0gyXU4oW0NIMl1bQ0gzXSlTKD1PKSg9TylbTkhdW0NIMl1jMVtjSF1bY0hdW2NIXW5jMU4yW0NIMl1bQ0gyXU9bQ0gyXVtDSDJdMg==

> <s_epik_cmdline>
J2VwaWtfcHl0aG9uJywgJy1waCcsICc3LjAnLCAnLXRuJywgJzgnLCAnLW1hJywgJzIwMCcsICctbWV0YWxfYmluZGluZycsICctaW1hZScsICc8aW5maWxlLm1hZT4nLCAnLW9tYWUnLCAnPG91dGZpbGUubWFlPic=

> <r_lp_tautomer_probability>
1

> <r_epik_Ionization_Penalty>
0.0173886

> <r_epik_Ionization_Penalty_Charging>
0

> <r_epik_Ionization_Penalty_Neutral>
0.0173886

> <r_epik_State_Penalty>
0.0135122

> <r_epik_Charging_Adjusted_Penalty>
0.0135122

> <i_epik_Tot_Q>
0

> <i_epik_Tot_abs_Q>
0

> <r_epik_Metal_State_Penalty>
0.283451

> <b_epik_Metal_Only>
0

> <s_lp_Force_Field>
OPLS_2005

> <r_lp_Energy>
23.0208

> <b_lp_Chiralities_Consistent>
1

> <s_lp_Variant>
AV-unprocessed.smi:2107-1

> <Gold.Version>
5.8.1

> <Gold.Id.Protein>
6NUR|6NUR_protein|mol2

> <Gold.PLP.Fitness>
41.2934

> <Gold.PLP.PLP>
-30.1620

> <Gold.PLP.part.hbond>
-4.0685

> <Gold.PLP.part.metal>
0.0000

> <Gold.PLP.part.buried>
-5.2362

> <Gold.PLP.part.nonpolar>
-21.2162

> <Gold.PLP.part.repulsive>
0.0837

> <Gold.PLP.ligand.clash>
0.0000

> <Gold.PLP.ligand.torsion>
1.9393

> <Gold.PLP.Chemscore.Hbond>
4.0000

> <Gold.PLP.Chemscore.CHOScore>
0.0000

> <Gold.PLP.Chemscore.Metal>
0.0000

> <Gold.Chemscore.Hbonds>
donor molecule, donor type, donor heavy atom, donor atom, acceptor molecule, acceptor atom, score
      P1  H  6931  6943       L1     8  0.99
      P1  H  6934  6947       L1     7  1.00
      P1  H  7997  8008       L1    20  1.00
      P1  H 10752 10764       L1    15  0.98

> <Gold.PLP.Chemscore.Internal.Correction>
3.0100

> <Gold.Rescore>
     Score         DG    S(hbond)    S(metal)    S(lipo)     H(rot)  DE(clash)    DE(int)     intcor
     17.85     -19.89       3.42        0.00      67.66       1.93       0.01       2.03       ----

> <Gold.Chemscore.Fitness>
17.8491

> <Gold.Chemscore.DG>
-19.8875

> <Gold.Chemscore.ZeroCoef>
-5.4800

> <Gold.Chemscore.Hbond>
3.4225

> <Gold.Chemscore.Metal>
0.0000

> <Gold.Chemscore.Lipo>
67.6574

> <Gold.Chemscore.Internal_Hbond>
0.0000

> <Gold.Chemscore.DEClash>
0.0115

> <Gold.Chemscore.DEInternal>
2.0269

> <Gold.Chemscore.Rot>
1.9295

> <Gold.Chemscore.Internal.Correction>
   9.000000E+99

> <Gold.Chemscore.Hbonds>
donor molecule, donor type, donor heavy atom, donor atom, acceptor molecule, acceptor atom, score
      P1  H  6931  6943       L1     8  0.91
      P1  H  6934  6947       L1     7  0.30
      P1  H  7997  8008       L1    20  0.88
      P1  H 10752 10764       L1    15  0.69

> <Gold.Chemscore.Hbond.Weighted>
-11.4312

> <Gold.Chemscore.Metal.Weighted>
-0.0000

> <Gold.Chemscore.Lipo.Weighted>
-7.9159

> <Gold.Chemscore.Internal_Hbond.Weighted>
0.0000

> <Gold.Chemscore.DEClash.Weighted>
0.0115

> <Gold.Chemscore.DEInternal.Weighted>
2.0269

> <Gold.Chemscore.Rot.Weighted>
4.9395

> <Gold.Chemscore.Internal.Correction.Weighted>
   9.000000E+99

> <Gold.Protein.RotatedTorsions>
[ 6907 6896 6895 6894 ] final   59.23 input  -60.11 | X-H torsion
[ 7974 7965 7964 7962 ] final   67.34 input  175.53 | X-H torsion
[ 8008 7997 7996 7995 ] final  -62.47 input   59.86 | X-H torsion
[ 10167 10162 10161 10158 ] final -159.83 input  -65.29 | X-H torsion
[ 10718 10713 10712 10709 ] final   59.02 input   66.30 | X-H torsion
[ 10763 10752 10751 10750 ] final  -47.93 input  -60.55 | X-H torsion
[ 11005 11000 10999 10996 ] final -108.70 input  -57.11 | X-H torsion

> <Gold.Protein.ActiveResidues>
 VAL166  LYS551  ARG553  GLY616  TRP617  ASP618  TYR619  PRO620  LYS621  CYS622 
 ASP623  PHE694  ASN695  SER759  ASP760  ASP761  ALA762  ILE779  LEU786  VAL792 
 PHE793  MET794  SER795  GLU796  ALA797  LYS798  CYS799  TRP800  GLU811  SER814 

> <Gold.Protein.RotatedAtoms>
  152.3896  134.6462  160.0112 H   0  0  0  0  0  0  0  0  0  0  0  0  # atno 6907 bound_to 6896
  151.6700  133.3308  159.3202 H   0  0  0  0  0  0  0  0  0  0  0  0  # atno 6908 bound_to 6896
  150.7815  134.6807  159.6487 H   0  0  0  0  0  0  0  0  0  0  0  0  # atno 6909 bound_to 6896
  145.8158  139.3057  143.1072 H   0  0  0  0  0  0  0  0  0  0  0  0  # atno 7974 bound_to 7965
  154.4501  140.0995  156.6592 H   0  0  0  0  0  0  0  0  0  0  0  0  # atno 8008 bound_to 7997
  155.5312  140.3481  155.4408 H   0  0  0  0  0  0  0  0  0  0  0  0  # atno 8009 bound_to 7997
  156.0663  140.1338  156.9871 H   0  0  0  0  0  0  0  0  0  0  0  0  # atno 8010 bound_to 7997
  139.6585  143.9955  152.2210 H   0  0  0  0  0  0  0  0  0  0  0  0  # atno 10167 bound_to 10162
  157.5643  130.8859  149.9161 H   0  0  0  0  0  0  0  0  0  0  0  0  # atno 10718 bound_to 10713
  154.0695  135.6606  153.4822 H   0  0  0  0  0  0  0  0  0  0  0  0  # atno 10763 bound_to 10752
  153.0396  135.5154  154.7581 H   0  0  0  0  0  0  0  0  0  0  0  0  # atno 10764 bound_to 10752
  154.6642  135.3019  154.9794 H   0  0  0  0  0  0  0  0  0  0  0  0  # atno 10765 bound_to 10752
  141.0888  133.9092  157.2124 H   0  0  0  0  0  0  0  0  0  0  0  0  # atno 11005 bound_to 11000
  145.9729  140.8746  143.0153 LP  0  0  0  0  0  0  0  0  0  0  0  0  # atno 17320 bound_to 7965
  144.6752  140.1970  143.7391 LP  0  0  0  0  0  0  0  0  0  0  0  0  # atno 17321 bound_to 7965
  139.9688  144.6508  150.8009 LP  0  0  0  0  0  0  0  0  0  0  0  0  # atno 17342 bound_to 10162
  140.7570  143.3077  151.2922 LP  0  0  0  0  0  0  0  0  0  0  0  0  # atno 17343 bound_to 10162
  156.0692  130.3687  150.0812 LP  0  0  0  0  0  0  0  0  0  0  0  0  # atno 17370 bound_to 10713
  156.8972  130.9608  151.3581 LP  0  0  0  0  0  0  0  0  0  0  0  0  # atno 17371 bound_to 10713
  139.9710  135.0128  156.9511 LP  0  0  0  0  0  0  0  0  0  0  0  0  # atno 17394 bound_to 11000
  140.5301  134.0822  155.7313 LP  0  0  0  0  0  0  0  0  0  0  0  0  # atno 17395 bound_to 11000

$$$$
