AV-unprocessed.smi:72|AV-procd|sdf|726|dock2
  -GOLD-   2262017 53D 1   1.00000     0.00000
 Structure written by MMmdl.
 28 29  0  0  0  0  0  0  0  0  2 V2000
  153.5123  137.3388  155.6930 N   0  0  0  0  0  0  0  0  0  0  0  0
  152.6753  138.2761  155.5940 C   0  0  0  0  0  0  0  0  0  0  0  0
  151.7899  138.3419  154.4517 N   0  0  0  0  0  0  0  0  0  0  0  0
  150.9583  139.3359  154.3882 C   0  0  0  0  0  0  0  0  0  0  0  0
  150.9140  140.3675  155.4156 N   0  0  0  0  0  0  0  0  0  0  0  0
  149.9263  141.5122  155.3416 C   0  0  1  0  0  0  0  0  0  0  0  0
  149.2832  141.4920  154.0990 O   0  0  0  0  0  0  0  0  0  0  0  0
  147.8761  141.6282  154.2734 C   0  0  1  0  0  0  0  0  0  0  0  0
  147.1391  140.9639  153.0999 C   0  0  0  0  0  0  0  0  0  0  0  0
  147.5639  139.6259  152.9513 O   0  0  0  0  0  0  0  0  0  0  0  0
  147.6415  140.9337  155.6150 C   0  0  2  0  0  0  0  0  0  0  0  0
  146.4091  141.2806  156.2183 O   0  0  0  0  0  0  0  0  0  0  0  0
  148.8544  141.3619  156.4328 C   0  0  2  0  0  0  0  0  0  0  0  0
  148.6538  142.5865  157.1144 O   0  0  0  0  0  0  0  0  0  0  0  0
  151.7699  140.2584  156.5433 C   0  0  0  0  0  0  0  0  0  0  0  0
  151.6799  141.1118  157.4265 O   0  0  0  0  0  0  0  0  0  0  0  0
  152.6410  139.2123  156.6038 N   0  5  0  0  0  0  0  0  0  0  0  0
  150.5139  142.4291  155.4150 H   0  0  0  0  0  0  0  0  0  0  0  0
  147.6220  142.6868  154.3579 H   0  0  0  0  0  0  0  0  0  0  0  0
  147.6734  139.8518  155.4754 H   0  0  0  0  0  0  0  0  0  0  0  0
  149.1354  140.6029  157.1646 H   0  0  0  0  0  0  0  0  0  0  0  0
  153.4676  136.7012  154.9113 H   0  0  0  0  0  0  0  0  0  0  0  0
  150.2445  139.4561  153.5725 H   0  0  0  0  0  0  0  0  0  0  0  0
  146.0580  141.0070  153.2354 H   0  0  0  0  0  0  0  0  0  0  0  0
  147.3697  141.4839  152.1697 H   0  0  0  0  0  0  0  0  0  0  0  0
  148.2818  139.6051  152.3372 H   0  0  0  0  0  0  0  0  0  0  0  0
  145.9699  141.9044  155.6608 H   0  0  0  0  0  0  0  0  0  0  0  0
  148.4498  143.2522  156.4749 H   0  0  0  0  0  0  0  0  0  0  0  0
  1  2  2  0  0  0  0
  1 22  1  0  0  0  0
  2 17  1  0  0  0  0
  2  3  1  0  0  0  0
  3  4  2  0  0  0  0
  4  5  1  0  0  0  0
  4 23  1  0  0  0  0
  5  6  1  0  0  0  0
  5 15  1  0  0  0  0
  6 18  1  0  0  0  0
  6 13  1  0  0  0  0
  6  7  1  0  0  0  0
  7  8  1  0  0  0  0
  8 19  1  0  0  0  0
  8  9  1  0  0  0  0
  8 11  1  0  0  0  0
  9 10  1  0  0  0  0
  9 24  1  0  0  0  0
  9 25  1  0  0  0  0
 10 26  1  0  0  0  0
 11 20  1  0  0  0  0
 11 12  1  0  0  0  0
 11 13  1  0  0  0  0
 12 27  1  0  0  0  0
 13 21  1  0  0  0  0
 13 14  1  0  0  0  0
 14 28  1  0  0  0  0
 15 16  2  0  0  0  0
 15 17  1  0  0  0  0
M  CHG  1  17  -1
M  END
> <s_m_source_file>
AV-unprocessed.smi

> <i_m_source_file_index>
72

> <i_lp_mmshare_version>
43012

> <i_f3d_flags>
0

> <s_epik_input>
W05IMl1jMW5bY0hdbihjKD1PKW4xKVtDQEBIXTJPW0NASF0oW0NIMl1bT0hdKVtDQEBIXShbT0hdKVtDQEhdMltPSF0=

> <s_epik_cmdline>
J2VwaWtfcHl0aG9uJywgJy1waCcsICc3LjAnLCAnLXRuJywgJzgnLCAnLW1hJywgJzIwMCcsICctbWV0YWxfYmluZGluZycsICctaW1hZScsICc8aW5maWxlLm1hZT4nLCAnLW9tYWUnLCAnPG91dGZpbGUubWFlPic=

> <r_lp_tautomer_probability>
7.17554e-07

> <r_epik_Ionization_Penalty>
12.8705

> <r_epik_Ionization_Penalty_Charging>
5.64144

> <r_epik_Ionization_Penalty_Neutral>
7.22905

> <r_epik_State_Penalty>
3.30104

> <r_epik_Charging_Adjusted_Penalty>
8.94249

> <i_epik_Tot_Q>
-1

> <i_epik_Tot_abs_Q>
1

> <r_epik_Metal_State_Penalty>
0.529074

> <b_epik_Metal_Only>
1

> <s_epik_Chemistry_Notes>
This compound contains an acetal/aminal-like group ( X-CH(R)-Y where X, Y are N, S, or O) that may be acid/base labile, releasing an aldehyde.

> <s_lp_Force_Field>
OPLS_2005

> <r_lp_Energy>
36.315

> <b_lp_Chiralities_Consistent>
1

> <s_lp_Variant>
AV-unprocessed.smi:72-64

> <Gold.Version>
5.8.1

> <Gold.Id.Protein>
6NUR|6NUR_protein|mol2

> <Gold.PLP.Fitness>
42.8412

> <Gold.PLP.PLP>
-26.2587

> <Gold.PLP.part.hbond>
-5.8594

> <Gold.PLP.part.metal>
0.0000

> <Gold.PLP.part.buried>
-0.7356

> <Gold.PLP.part.nonpolar>
-18.4013

> <Gold.PLP.part.repulsive>
0.3238

> <Gold.PLP.ligand.clash>
0.0000

> <Gold.PLP.ligand.torsion>
0.1296

> <Gold.PLP.Chemscore.Hbond>
4.6516

> <Gold.PLP.Chemscore.CHOScore>
0.9550

> <Gold.PLP.Chemscore.Metal>
0.0000

> <Gold.Chemscore.Hbonds>
donor molecule, donor type, donor heavy atom, donor atom, acceptor molecule, acceptor atom, score
      L1  H    10    26       P1  7957  1.00
      L1  H    14    28       P1  8028  1.00
      P1  H  7997  8008       L1    17  2.00
      P1  H  8011  8017       L1     7  0.62
      L1  C     4    23       P1  7957  0.94

> <Gold.PLP.Chemscore.Internal.Correction>
0.0219

> <Gold.Rescore>
     Score         DG    S(hbond)    S(metal)    S(lipo)     H(rot)  DE(clash)    DE(int)     intcor
      5.05      -6.01       2.46        0.00      22.61       4.04       0.58       0.38       ----

> <Gold.Chemscore.Fitness>
5.0466

> <Gold.Chemscore.DG>
-6.0110

> <Gold.Chemscore.ZeroCoef>
-5.4800

> <Gold.Chemscore.Hbond>
2.4637

> <Gold.Chemscore.Metal>
0.0000

> <Gold.Chemscore.Lipo>
22.6087

> <Gold.Chemscore.Internal_Hbond>
0.0000

> <Gold.Chemscore.DEClash>
0.5835

> <Gold.Chemscore.DEInternal>
0.3808

> <Gold.Chemscore.Rot>
4.0403

> <Gold.Chemscore.Internal.Correction>
   9.000000E+99

> <Gold.Chemscore.Hbonds>
donor molecule, donor type, donor heavy atom, donor atom, acceptor molecule, acceptor atom, score
      L1  H    10    26       P1  7957  1.00
      L1  H    14    28       P1  8028  0.62
      P1  H  7997  8008       L1    17  0.29
      P1  H  8011  8017       L1     7  0.39

> <Gold.Chemscore.Hbond.Weighted>
-8.2288

> <Gold.Chemscore.Metal.Weighted>
-0.0000

> <Gold.Chemscore.Lipo.Weighted>
-2.6452

> <Gold.Chemscore.Internal_Hbond.Weighted>
0.0000

> <Gold.Chemscore.DEClash.Weighted>
0.5835

> <Gold.Chemscore.DEInternal.Weighted>
0.3808

> <Gold.Chemscore.Rot.Weighted>
10.3431

> <Gold.Chemscore.Internal.Correction.Weighted>
   9.000000E+99

> <Gold.Protein.RotatedTorsions>
[ 6907 6896 6895 6894 ] final   12.56 input  -60.11 | X-H torsion
[ 7974 7965 7964 7962 ] final  166.36 input  175.53 | X-H torsion
[ 8008 7997 7996 7995 ] final  -66.39 input   59.86 | X-H torsion
[ 10167 10162 10161 10158 ] final   -8.65 input  -65.29 | X-H torsion
[ 10718 10713 10712 10709 ] final  147.59 input   66.30 | X-H torsion
[ 10763 10752 10751 10750 ] final   -7.36 input  -60.55 | X-H torsion
[ 11005 11000 10999 10996 ] final  -32.91 input  -57.11 | X-H torsion

> <Gold.Protein.ActiveResidues>
 VAL166  LYS551  ARG553  GLY616  TRP617  ASP618  TYR619  PRO620  LYS621  CYS622 
 ASP623  PHE694  ASN695  SER759  ASP760  ASP761  ALA762  ILE779  LEU786  VAL792 
 PHE793  MET794  SER795  GLU796  ALA797  LYS798  CYS799  TRP800  GLU811  SER814 

> <Gold.Protein.RotatedAtoms>
  151.7723  135.0783  160.0361 H   0  0  0  0  0  0  0  0  0  0  0  0  # atno 6907 bound_to 6896
  152.3280  133.5922  159.5798 H   0  0  0  0  0  0  0  0  0  0  0  0  # atno 6908 bound_to 6896
  150.7406  133.9827  159.3623 H   0  0  0  0  0  0  0  0  0  0  0  0  # atno 6909 bound_to 6896
  144.7465  139.8604  143.6380 H   0  0  0  0  0  0  0  0  0  0  0  0  # atno 7974 bound_to 7965
  154.4732  140.0913  156.7196 H   0  0  0  0  0  0  0  0  0  0  0  0  # atno 8008 bound_to 7997
  155.4668  140.3463  155.4302 H   0  0  0  0  0  0  0  0  0  0  0  0  # atno 8009 bound_to 7997
  156.1073  140.1438  156.9375 H   0  0  0  0  0  0  0  0  0  0  0  0  # atno 8010 bound_to 7997
  140.7065  143.5946  150.8859 H   0  0  0  0  0  0  0  0  0  0  0  0  # atno 10167 bound_to 10162
  157.3191  131.0901  151.1255 H   0  0  0  0  0  0  0  0  0  0  0  0  # atno 10718 bound_to 10713
  153.4253  135.7011  153.6266 H   0  0  0  0  0  0  0  0  0  0  0  0  # atno 10763 bound_to 10752
  153.4704  135.3716  155.2388 H   0  0  0  0  0  0  0  0  0  0  0  0  # atno 10764 bound_to 10752
  154.8723  135.4041  154.3628 H   0  0  0  0  0  0  0  0  0  0  0  0  # atno 10765 bound_to 10752
  140.9591  133.7175  156.1341 H   0  0  0  0  0  0  0  0  0  0  0  0  # atno 11005 bound_to 11000
  146.1352  139.4396  143.0143 LP  0  0  0  0  0  0  0  0  0  0  0  0  # atno 17320 bound_to 7965
  145.7102  141.0108  143.1457 LP  0  0  0  0  0  0  0  0  0  0  0  0  # atno 17321 bound_to 7965
  139.9671  143.6099  152.2985 LP  0  0  0  0  0  0  0  0  0  0  0  0  # atno 17342 bound_to 10162
  139.6672  144.7662  151.1851 LP  0  0  0  0  0  0  0  0  0  0  0  0  # atno 17343 bound_to 10162
  157.2547  130.6631  149.5947 LP  0  0  0  0  0  0  0  0  0  0  0  0  # atno 17370 bound_to 10713
  155.9684  130.4527  150.5785 LP  0  0  0  0  0  0  0  0  0  0  0  0  # atno 17371 bound_to 10713
  140.7493  134.4063  157.5544 LP  0  0  0  0  0  0  0  0  0  0  0  0  # atno 17394 bound_to 11000
  139.8872  134.8889  156.2542 LP  0  0  0  0  0  0  0  0  0  0  0  0  # atno 17395 bound_to 11000

$$$$
