AV-unprocessed.smi:2924|AV-procd|sdf|11220|dock1
  -GOLD-   2272016113D 1   1.00000     0.00000
 Structure written by MMmdl.
 29 31  0  0  0  0  0  0  0  0  1 V2000
  154.1478  140.3991  159.1586 N   0  0  0  0  0  0  0  0  0  0  0  0
  153.4100  141.2855  159.0664 C   0  0  0  0  0  0  0  0  0  0  0  0
  152.4811  142.4033  158.9504 C   0  0  0  0  0  0  0  0  0  0  0  0
  152.7949  143.6220  159.5880 C   0  0  0  0  0  0  0  0  0  0  0  0
  151.9041  144.7050  159.4747 C   0  0  0  0  0  0  0  0  0  0  0  0
  150.7281  144.5238  158.7245 C   0  0  0  0  0  0  0  0  0  0  0  0
  150.4153  143.3635  158.1112 N   0  0  0  0  0  0  0  0  0  0  0  0
  151.2695  142.3160  158.2135 C   0  0  0  0  0  0  0  0  0  0  0  0
  150.9155  141.1185  157.5654 N   0  0  0  0  0  0  0  0  0  0  0  0
  151.1353  140.9371  156.1336 C   0  0  2  0  0  0  0  0  0  0  0  0
  149.8318  140.8655  155.3345 C   0  0  0  0  0  0  0  0  0  0  0  0
  150.0045  139.5481  154.5655 C   0  0  2  0  0  0  0  0  0  0  0  0
  149.8081  138.3320  155.4799 C   0  0  0  0  0  0  0  0  0  0  0  0
  151.0864  138.3625  156.3150 C   0  0  0  0  0  0  0  0  0  0  0  0
  151.8051  139.6011  155.7528 C   0  0  1  0  0  0  0  0  0  0  0  0
  151.4115  139.5172  154.3932 O   0  0  0  0  0  0  0  0  0  0  0  0
  153.7067  143.7318  160.1575 H   0  0  0  0  0  0  0  0  0  0  0  0
  152.1171  145.6508  159.9506 H   0  0  0  0  0  0  0  0  0  0  0  0
  150.0194  145.3312  158.6140 H   0  0  0  0  0  0  0  0  0  0  0  0
  150.7691  140.2918  158.1267 H   0  0  0  0  0  0  0  0  0  0  0  0
  151.7305  141.7668  155.7497 H   0  0  0  0  0  0  0  0  0  0  0  0
  148.9338  140.8611  155.9539 H   0  0  0  0  0  0  0  0  0  0  0  0
  149.7638  141.7108  154.6490 H   0  0  0  0  0  0  0  0  0  0  0  0
  149.4351  139.4995  153.6370 H   0  0  0  0  0  0  0  0  0  0  0  0
  148.9041  138.4081  156.0852 H   0  0  0  0  0  0  0  0  0  0  0  0
  149.7539  137.4116  154.8974 H   0  0  0  0  0  0  0  0  0  0  0  0
  150.8949  138.4268  157.3863 H   0  0  0  0  0  0  0  0  0  0  0  0
  151.6768  137.4635  156.1339 H   0  0  0  0  0  0  0  0  0  0  0  0
  152.8851  139.5877  155.9025 H   0  0  0  0  0  0  0  0  0  0  0  0
  1  2  3  0  0  0  0
  2  3  1  0  0  0  0
  3  8  1  0  0  0  0
  3  4  2  0  0  0  0
  4  5  1  0  0  0  0
  4 17  1  0  0  0  0
  5  6  2  0  0  0  0
  5 18  1  0  0  0  0
  6  7  1  0  0  0  0
  6 19  1  0  0  0  0
  7  8  2  0  0  0  0
  8  9  1  0  0  0  0
  9 10  1  0  0  0  0
  9 20  1  0  0  0  0
 10 15  1  0  0  0  0
 10 11  1  0  0  0  0
 10 21  1  0  0  0  0
 11 12  1  0  0  0  0
 11 22  1  0  0  0  0
 11 23  1  0  0  0  0
 12 16  1  0  0  0  0
 12 13  1  0  0  0  0
 12 24  1  0  0  0  0
 13 14  1  0  0  0  0
 13 25  1  0  0  0  0
 13 26  1  0  0  0  0
 14 15  1  0  0  0  0
 14 27  1  0  0  0  0
 14 28  1  0  0  0  0
 15 16  1  0  0  0  0
 15 29  1  0  0  0  0
M  END
> <s_m_source_file>
AV-unprocessed.smi

> <i_m_source_file_index>
2924

> <i_lp_mmshare_version>
43012

> <i_f3d_flags>
0

> <s_epik_input>
TiNDYzFbY0hdW2NIXVtjSF1uYzFbTkhdW0NASF0oW0NIMl1bQ0BASF0yMylbQ0BASF0oTzMpW0NIMl1bQ0gyXTI=

> <s_epik_cmdline>
J2VwaWtfcHl0aG9uJywgJy1waCcsICc3LjAnLCAnLXRuJywgJzgnLCAnLW1hJywgJzIwMCcsICctbWV0YWxfYmluZGluZycsICctaW1hZScsICc8aW5maWxlLm1hZT4nLCAnLW9tYWUnLCAnPG91dGZpbGUubWFlPic=

> <r_lp_tautomer_probability>
1

> <r_epik_Ionization_Penalty>
2.11559e-05

> <r_epik_Ionization_Penalty_Charging>
0

> <r_epik_Ionization_Penalty_Neutral>
2.11559e-05

> <r_epik_State_Penalty>
-0

> <r_epik_Charging_Adjusted_Penalty>
0

> <i_epik_Tot_Q>
0

> <i_epik_Tot_abs_Q>
0

> <r_epik_Metal_State_Penalty>
-0

> <b_epik_Metal_Only>
0

> <s_lp_Force_Field>
OPLS_2005

> <r_lp_Energy>
42.6424

> <b_lp_Chiralities_Consistent>
1

> <s_lp_Variant>
AV-unprocessed.smi:2924-3

> <Gold.Version>
5.8.1

> <Gold.Id.Protein>
6NUR|6NUR_protein|mol2

> <Gold.PLP.Fitness>
37.6641

> <Gold.PLP.PLP>
-31.4745

> <Gold.PLP.part.hbond>
-2.0000

> <Gold.PLP.part.metal>
0.0000

> <Gold.PLP.part.buried>
-3.0470

> <Gold.PLP.part.nonpolar>
-26.5950

> <Gold.PLP.part.repulsive>
0.3320

> <Gold.PLP.ligand.clash>
0.0000

> <Gold.PLP.ligand.torsion>
0.8326

> <Gold.PLP.Chemscore.Hbond>
1.6490

> <Gold.PLP.Chemscore.CHOScore>
0.9649

> <Gold.PLP.Chemscore.Metal>
0.0000

> <Gold.Chemscore.Hbonds>
donor molecule, donor type, donor heavy atom, donor atom, acceptor molecule, acceptor atom, score
      P1  H  7989  7998       L1    16  1.00
      P1  H  7997  8009       L1     1  0.77
      L1  C     6    19       P1  8029  0.90

> <Gold.PLP.Chemscore.Internal.Correction>
0.0131

> <Gold.Rescore>
     Score         DG    S(hbond)    S(metal)    S(lipo)     H(rot)  DE(clash)    DE(int)     intcor
     16.08     -17.10       1.45        0.00      79.90       1.00       0.23       0.79       ----

> <Gold.Chemscore.Fitness>
16.0791

> <Gold.Chemscore.DG>
-17.0981

> <Gold.Chemscore.ZeroCoef>
-5.4800

> <Gold.Chemscore.Hbond>
1.4459

> <Gold.Chemscore.Metal>
0.0000

> <Gold.Chemscore.Lipo>
79.9032

> <Gold.Chemscore.Internal_Hbond>
0.0000

> <Gold.Chemscore.DEClash>
0.2291

> <Gold.Chemscore.DEInternal>
0.7899

> <Gold.Chemscore.Rot>
1.0000

> <Gold.Chemscore.Internal.Correction>
   9.000000E+99

> <Gold.Chemscore.Hbonds>
donor molecule, donor type, donor heavy atom, donor atom, acceptor molecule, acceptor atom, score
      P1  H  7989  7998       L1    16  0.28
      P1  H  7997  8009       L1     1  0.47

> <Gold.Chemscore.Hbond.Weighted>
-4.8295

> <Gold.Chemscore.Metal.Weighted>
-0.0000

> <Gold.Chemscore.Lipo.Weighted>
-9.3487

> <Gold.Chemscore.Internal_Hbond.Weighted>
0.0000

> <Gold.Chemscore.DEClash.Weighted>
0.2291

> <Gold.Chemscore.DEInternal.Weighted>
0.7899

> <Gold.Chemscore.Rot.Weighted>
2.5600

> <Gold.Chemscore.Internal.Correction.Weighted>
   9.000000E+99

> <Gold.Protein.RotatedTorsions>
[ 6907 6896 6895 6894 ] final -160.99 input  -60.11 | X-H torsion
[ 7974 7965 7964 7962 ] final   78.92 input  175.53 | X-H torsion
[ 8008 7997 7996 7995 ] final  127.83 input   59.86 | X-H torsion
[ 10167 10162 10161 10158 ] final  103.54 input  -65.29 | X-H torsion
[ 10718 10713 10712 10709 ] final   91.17 input   66.30 | X-H torsion
[ 10763 10752 10751 10750 ] final  -21.59 input  -60.55 | X-H torsion
[ 11005 11000 10999 10996 ] final    9.03 input  -57.11 | X-H torsion

> <Gold.Protein.ActiveResidues>
 VAL166  LYS551  ARG553  GLY616  TRP617  ASP618  TYR619  PRO620  LYS621  CYS622 
 ASP623  PHE694  ASN695  SER759  ASP760  ASP761  ALA762  ILE779  LEU786  VAL792 
 PHE793  MET794  SER795  GLU796  ALA797  LYS798  CYS799  TRP800  GLU811  SER814 

> <Gold.Protein.RotatedAtoms>
  151.3576  133.3901  159.2686 H   0  0  0  0  0  0  0  0  0  0  0  0  # atno 6907 bound_to 6896
  150.9751  134.9118  159.7821 H   0  0  0  0  0  0  0  0  0  0  0  0  # atno 6908 bound_to 6896
  152.5198  134.3539  159.9313 H   0  0  0  0  0  0  0  0  0  0  0  0  # atno 6909 bound_to 6896
  145.6709  139.2496  143.1869 H   0  0  0  0  0  0  0  0  0  0  0  0  # atno 7974 bound_to 7965
  156.2900  140.2659  156.2338 H   0  0  0  0  0  0  0  0  0  0  0  0  # atno 8008 bound_to 7997
  155.0046  140.0387  157.2392 H   0  0  0  0  0  0  0  0  0  0  0  0  # atno 8009 bound_to 7997
  154.7571  140.2754  155.6249 H   0  0  0  0  0  0  0  0  0  0  0  0  # atno 8010 bound_to 7997
  139.7254  144.7048  151.0806 H   0  0  0  0  0  0  0  0  0  0  0  0  # atno 10167 bound_to 10162
  157.6960  131.0397  150.3689 H   0  0  0  0  0  0  0  0  0  0  0  0  # atno 10718 bound_to 10713
  153.6385  135.6986  153.5250 H   0  0  0  0  0  0  0  0  0  0  0  0  # atno 10763 bound_to 10752
  153.2801  135.4188  155.1070 H   0  0  0  0  0  0  0  0  0  0  0  0  # atno 10764 bound_to 10752
  154.8505  135.3600  154.5929 H   0  0  0  0  0  0  0  0  0  0  0  0  # atno 10765 bound_to 10752
  140.5303  134.0473  155.7871 H   0  0  0  0  0  0  0  0  0  0  0  0  # atno 11005 bound_to 11000
  146.1046  140.7502  142.9532 LP  0  0  0  0  0  0  0  0  0  0  0  0  # atno 17320 bound_to 7965
  144.7057  140.3842  143.7120 LP  0  0  0  0  0  0  0  0  0  0  0  0  # atno 17321 bound_to 7965
  140.7761  143.5112  150.9650 LP  0  0  0  0  0  0  0  0  0  0  0  0  # atno 17342 bound_to 10162
  139.8799  143.7085  152.3158 LP  0  0  0  0  0  0  0  0  0  0  0  0  # atno 17343 bound_to 10162
  156.4116  130.3935  149.6887 LP  0  0  0  0  0  0  0  0  0  0  0  0  # atno 17370 bound_to 10713
  156.4170  130.7750  151.2765 LP  0  0  0  0  0  0  0  0  0  0  0  0  # atno 17371 bound_to 10713
  141.1285  133.9342  157.2585 LP  0  0  0  0  0  0  0  0  0  0  0  0  # atno 17394 bound_to 11000
  139.9558  135.0166  156.9123 LP  0  0  0  0  0  0  0  0  0  0  0  0  # atno 17395 bound_to 11000

$$$$
