AV-unprocessed.smi:1147|AV-procd|sdf|4887|dock2
  -GOLD-   22720 3463D 1   1.00000     0.00000
 Structure written by MMmdl.
 41 42  0  0  0  0  0  0  0  0  1 V2000
  151.5917  141.6452  158.4437 C   0  0  0  0  0  0  0  0  0  0  0  0
  151.7146  140.3759  157.5980 C   0  0  0  0  0  0  0  0  0  0  0  0
  152.7827  139.7644  157.6294 O   0  0  0  0  0  0  0  0  0  0  0  0
  150.6599  139.9717  156.8494 N   0  0  0  0  0  0  0  0  0  0  0  0
  150.6465  138.8015  155.9562 C   0  0  0  0  0  0  0  0  0  0  0  0
  150.3960  139.2741  154.5105 C   0  0  0  0  0  0  0  0  0  0  0  0
  149.1111  139.9977  154.4631 N   0  0  0  0  0  0  0  0  0  0  0  0
  147.9839  139.6042  153.8179 C   0  0  0  0  0  0  0  0  0  0  0  0
  146.8733  140.0877  154.0416 O   0  0  0  0  0  0  0  0  0  0  0  0
  148.1703  138.6411  152.9000 N   0  0  0  0  0  0  0  0  0  0  0  0
  147.1425  138.0769  152.0281 C   0  0  2  0  0  0  0  0  0  0  0  0
  146.5799  139.1655  151.1004 C   0  0  0  0  0  0  0  0  0  0  0  0
  146.0293  137.4321  152.8766 C   0  0  0  0  0  0  0  0  0  0  0  0
  145.4115  136.3000  152.2084 N   0  0  0  0  0  0  0  0  0  0  0  0
  146.0044  135.1313  151.7798 C   0  0  0  0  0  0  0  0  0  0  0  0
  145.0256  134.3613  151.2197 C   0  0  0  0  0  0  0  0  0  0  0  0
  143.8526  135.1557  151.3532 C   0  0  0  0  0  0  0  0  0  0  0  0
  144.0863  136.3154  151.9455 N   0  0  0  0  0  0  0  0  0  0  0  0
  149.1410  141.1783  155.3391 C   0  0  0  0  0  0  0  0  0  0  0  0
  149.3941  140.7200  156.7896 C   0  0  0  0  0  0  0  0  0  0  0  0
  150.8009  141.5398  159.1870 H   0  0  0  0  0  0  0  0  0  0  0  0
  151.3770  142.5096  157.8150 H   0  0  0  0  0  0  0  0  0  0  0  0
  152.5231  141.8449  158.9745 H   0  0  0  0  0  0  0  0  0  0  0  0
  151.5644  138.2167  155.9859 H   0  0  0  0  0  0  0  0  0  0  0  0
  149.8532  138.1223  156.2723 H   0  0  0  0  0  0  0  0  0  0  0  0
  151.1946  139.9463  154.1932 H   0  0  0  0  0  0  0  0  0  0  0  0
  150.4521  138.4207  153.8350 H   0  0  0  0  0  0  0  0  0  0  0  0
  149.1106  138.2975  152.7682 H   0  0  0  0  0  0  0  0  0  0  0  0
  147.5898  137.2970  151.4088 H   0  0  0  0  0  0  0  0  0  0  0  0
  145.8133  138.7590  150.4401 H   0  0  0  0  0  0  0  0  0  0  0  0
  147.3608  139.5925  150.4702 H   0  0  0  0  0  0  0  0  0  0  0  0
  146.1305  139.9792  151.6707 H   0  0  0  0  0  0  0  0  0  0  0  0
  146.4196  137.1087  153.8432 H   0  0  0  0  0  0  0  0  0  0  0  0
  145.2480  138.1635  153.0866 H   0  0  0  0  0  0  0  0  0  0  0  0
  147.0605  134.9463  151.9113 H   0  0  0  0  0  0  0  0  0  0  0  0
  145.1311  133.3797  150.7819 H   0  0  0  0  0  0  0  0  0  0  0  0
  142.8450  134.9253  151.0397 H   0  0  0  0  0  0  0  0  0  0  0  0
  149.9341  141.8519  155.0109 H   0  0  0  0  0  0  0  0  0  0  0  0
  148.2196  141.7605  155.2969 H   0  0  0  0  0  0  0  0  0  0  0  0
  148.5816  140.0762  157.1300 H   0  0  0  0  0  0  0  0  0  0  0  0
  149.3843  141.5887  157.4490 H   0  0  0  0  0  0  0  0  0  0  0  0
  1  2  1  0  0  0  0
  1 21  1  0  0  0  0
  1 22  1  0  0  0  0
  1 23  1  0  0  0  0
  2  3  2  0  0  0  0
  2  4  1  0  0  0  0
  4 20  1  0  0  0  0
  4  5  1  0  0  0  0
  5  6  1  0  0  0  0
  5 24  1  0  0  0  0
  5 25  1  0  0  0  0
  6  7  1  0  0  0  0
  6 26  1  0  0  0  0
  6 27  1  0  0  0  0
  7  8  1  0  0  0  0
  7 19  1  0  0  0  0
  8  9  2  0  0  0  0
  8 10  1  0  0  0  0
 10 11  1  0  0  0  0
 10 28  1  0  0  0  0
 11 12  1  0  0  0  0
 11 13  1  0  0  0  0
 11 29  1  0  0  0  0
 12 30  1  0  0  0  0
 12 31  1  0  0  0  0
 12 32  1  0  0  0  0
 13 14  1  0  0  0  0
 13 33  1  0  0  0  0
 13 34  1  0  0  0  0
 14 18  1  0  0  0  0
 14 15  1  0  0  0  0
 15 16  2  0  0  0  0
 15 35  1  0  0  0  0
 16 17  1  0  0  0  0
 16 36  1  0  0  0  0
 17 18  2  0  0  0  0
 17 37  1  0  0  0  0
 19 20  1  0  0  0  0
 19 38  1  0  0  0  0
 19 39  1  0  0  0  0
 20 40  1  0  0  0  0
 20 41  1  0  0  0  0
M  END
> <s_m_source_file>
AV-unprocessed.smi

> <i_m_source_file_index>
1147

> <i_lp_mmshare_version>
43012

> <i_f3d_flags>
0

> <s_epik_input>
W0NIM11DKD1PKU4xW0NIMl1bQ0gyXU4oW0NIMl1bQ0gyXTEpQyg9TylbTkhdW0NASF0oW0NIM10pW0NIMl1uMltjSF1bY0hdW2NIXW4y

> <s_epik_cmdline>
J2VwaWtfcHl0aG9uJywgJy1waCcsICc3LjAnLCAnLXRuJywgJzgnLCAnLW1hJywgJzIwMCcsICctbWV0YWxfYmluZGluZycsICctaW1hZScsICc8aW5maWxlLm1hZT4nLCAnLW9tYWUnLCAnPG91dGZpbGUubWFlPic=

> <r_lp_tautomer_probability>
1

> <r_epik_Ionization_Penalty>
5.58143e-05

> <r_epik_Ionization_Penalty_Charging>
0

> <r_epik_Ionization_Penalty_Neutral>
5.58143e-05

> <r_epik_State_Penalty>
-0

> <r_epik_Charging_Adjusted_Penalty>
0

> <i_epik_Tot_Q>
0

> <i_epik_Tot_abs_Q>
0

> <r_epik_Metal_State_Penalty>
-0

> <b_epik_Metal_Only>
0

> <s_lp_Force_Field>
OPLS_2005

> <r_lp_Energy>
48.2147

> <b_lp_Chiralities_Consistent>
1

> <s_lp_Variant>
AV-unprocessed.smi:1147-1

> <Gold.Version>
5.8.1

> <Gold.Id.Protein>
6NUR|6NUR_protein|mol2

> <Gold.PLP.Fitness>
36.5777

> <Gold.PLP.PLP>
-29.6167

> <Gold.PLP.part.hbond>
-3.0000

> <Gold.PLP.part.metal>
0.0000

> <Gold.PLP.part.buried>
4.6635

> <Gold.PLP.part.nonpolar>
-30.8309

> <Gold.PLP.part.repulsive>
0.3718

> <Gold.PLP.ligand.clash>
0.0000

> <Gold.PLP.ligand.torsion>
0.4557

> <Gold.PLP.Chemscore.Hbond>
1.1061

> <Gold.PLP.Chemscore.CHOScore>
1.5073

> <Gold.PLP.Chemscore.Metal>
0.0000

> <Gold.Chemscore.Hbonds>
donor molecule, donor type, donor heavy atom, donor atom, acceptor molecule, acceptor atom, score
      L1  H    10    28       P1  7948  0.09
      P1  H  7997  8010       L1     3  1.00
      L1  C    15    35       P1  7948  1.00
      L1  C    17    37       P1 10186  0.50

> <Gold.PLP.Chemscore.Internal.Correction>
0.0323

> <Gold.Rescore>
     Score         DG    S(hbond)    S(metal)    S(lipo)     H(rot)  DE(clash)    DE(int)     intcor
     10.54     -13.86       1.15        0.00      70.85       1.46       1.89       1.43       ----

> <Gold.Chemscore.Fitness>
10.5352

> <Gold.Chemscore.DG>
-13.8619

> <Gold.Chemscore.ZeroCoef>
-5.4800

> <Gold.Chemscore.Hbond>
1.1499

> <Gold.Chemscore.Metal>
0.0000

> <Gold.Chemscore.Lipo>
70.8456

> <Gold.Chemscore.Internal_Hbond>
0.0000

> <Gold.Chemscore.DEClash>
1.8950

> <Gold.Chemscore.DEInternal>
1.4317

> <Gold.Chemscore.Rot>
1.4640

> <Gold.Chemscore.Internal.Correction>
   9.000000E+99

> <Gold.Chemscore.Hbonds>
donor molecule, donor type, donor heavy atom, donor atom, acceptor molecule, acceptor atom, score
      L1  H    10    28       P1  7948  0.09
      P1  H  7997  8010       L1     3  0.97

> <Gold.Chemscore.Hbond.Weighted>
-3.8407

> <Gold.Chemscore.Metal.Weighted>
-0.0000

> <Gold.Chemscore.Lipo.Weighted>
-8.2889

> <Gold.Chemscore.Internal_Hbond.Weighted>
0.0000

> <Gold.Chemscore.DEClash.Weighted>
1.8950

> <Gold.Chemscore.DEInternal.Weighted>
1.4317

> <Gold.Chemscore.Rot.Weighted>
3.7477

> <Gold.Chemscore.Internal.Correction.Weighted>
   9.000000E+99

> <Gold.Protein.RotatedTorsions>
[ 6907 6896 6895 6894 ] final   63.83 input  -60.11 | X-H torsion
[ 7974 7965 7964 7962 ] final   69.94 input  175.53 | X-H torsion
[ 8008 7997 7996 7995 ] final   63.22 input   59.86 | X-H torsion
[ 10167 10162 10161 10158 ] final   -8.47 input  -65.29 | X-H torsion
[ 10718 10713 10712 10709 ] final   54.24 input   66.30 | X-H torsion
[ 10763 10752 10751 10750 ] final  -66.25 input  -60.55 | X-H torsion
[ 11005 11000 10999 10996 ] final -142.28 input  -57.11 | X-H torsion

> <Gold.Protein.ActiveResidues>
 VAL166  LYS551  ARG553  GLY616  TRP617  ASP618  TYR619  PRO620  LYS621  CYS622 
 ASP623  PHE694  ASN695  SER759  ASP760  ASP761  ALA762  ILE779  LEU786  VAL792 
 PHE793  MET794  SER795  GLU796  ALA797  LYS798  CYS799  TRP800  GLU811  SER814 

> <Gold.Protein.RotatedAtoms>
  152.4284  134.5824  159.9951 H   0  0  0  0  0  0  0  0  0  0  0  0  # atno 6907 bound_to 6896
  151.5954  133.3356  159.3044 H   0  0  0  0  0  0  0  0  0  0  0  0  # atno 6908 bound_to 6896
  150.8175  134.7401  159.6808 H   0  0  0  0  0  0  0  0  0  0  0  0  # atno 6909 bound_to 6896
  145.7842  139.2902  143.1248 H   0  0  0  0  0  0  0  0  0  0  0  0  # atno 7974 bound_to 7965
  155.6267  140.3496  155.4669 H   0  0  0  0  0  0  0  0  0  0  0  0  # atno 8008 bound_to 7997
  156.0036  140.1218  157.0547 H   0  0  0  0  0  0  0  0  0  0  0  0  # atno 8009 bound_to 7997
  154.4257  140.1095  156.5717 H   0  0  0  0  0  0  0  0  0  0  0  0  # atno 8010 bound_to 7997
  140.7060  143.5965  150.8840 H   0  0  0  0  0  0  0  0  0  0  0  0  # atno 10167 bound_to 10162
  157.5239  130.8584  149.8596 H   0  0  0  0  0  0  0  0  0  0  0  0  # atno 10718 bound_to 10713
  154.3570  135.6124  153.5671 H   0  0  0  0  0  0  0  0  0  0  0  0  # atno 10763 bound_to 10752
  152.9795  135.5806  154.4677 H   0  0  0  0  0  0  0  0  0  0  0  0  # atno 10764 bound_to 10752
  154.4408  135.2850  155.1826 H   0  0  0  0  0  0  0  0  0  0  0  0  # atno 10765 bound_to 10752
  140.8241  134.2596  157.4887 H   0  0  0  0  0  0  0  0  0  0  0  0  # atno 11005 bound_to 11000
  146.0043  140.8493  143.0003 LP  0  0  0  0  0  0  0  0  0  0  0  0  # atno 17320 bound_to 7965
  144.6791  140.2397  143.7345 LP  0  0  0  0  0  0  0  0  0  0  0  0  # atno 17321 bound_to 7965
  139.9690  143.6078  152.2979 LP  0  0  0  0  0  0  0  0  0  0  0  0  # atno 17342 bound_to 10162
  139.6658  144.7662  151.1876 LP  0  0  0  0  0  0  0  0  0  0  0  0  # atno 17343 bound_to 10162
  156.0373  130.3748  150.1526 LP  0  0  0  0  0  0  0  0  0  0  0  0  # atno 17370 bound_to 10713
  156.9713  130.9835  151.3458 LP  0  0  0  0  0  0  0  0  0  0  0  0  # atno 17371 bound_to 10713
  139.8707  134.9551  156.4195 LP  0  0  0  0  0  0  0  0  0  0  0  0  # atno 17394 bound_to 11000
  140.9068  133.7740  155.9745 LP  0  0  0  0  0  0  0  0  0  0  0  0  # atno 17395 bound_to 11000

$$$$
