AV-unprocessed.smi:2588|AV-procd|sdf|10149|dock7
  -GOLD-   2272014163D 1   1.00000     0.00000
 Structure written by MMmdl.
 40 41  0  0  0  0  0  0  0  0  2 V2000
  145.9616  136.9924  153.7653 C   0  0  0  0  0  0  0  0  0  0  0  0
  146.9992  138.1343  153.8092 C   0  0  0  0  0  0  0  0  0  0  0  0
  146.9011  138.9280  152.4887 C   0  0  0  0  0  0  0  0  0  0  0  0
  148.3888  137.6386  154.0811 N   0  3  2  0  0  0  0  0  0  0  0  0
  148.4826  136.7769  155.2973 C   0  0  0  0  0  0  0  0  0  0  0  0
  149.8990  136.2073  155.5066 C   0  0  0  0  0  0  0  0  0  0  0  0
  150.9638  137.3101  155.5665 C   0  0  2  0  0  0  0  0  0  0  0  0
  150.8184  138.0903  156.7945 N   0  0  0  0  0  0  0  0  0  0  0  0
  151.6496  139.0592  157.2070 C   0  0  0  0  0  0  0  0  0  0  0  0
  152.6764  139.3731  156.6050 O   0  0  0  0  0  0  0  0  0  0  0  0
  151.2625  139.7798  158.5025 C   0  0  0  0  0  0  0  0  0  0  0  0
  152.1780  139.4613  159.5981 N   0  0  0  0  0  0  0  0  0  0  0  0
  152.9021  140.4725  160.1487 N   0  0  0  0  0  0  0  0  0  0  0  0
  153.6517  140.0494  161.0982 C   0  0  0  0  0  0  0  0  0  0  0  0
  153.5685  138.3173  161.4461 S   0  0  0  0  0  0  0  0  0  0  0  0
  152.3689  138.1886  160.1305 C   0  0  0  0  0  0  0  0  0  0  0  0
  151.8343  137.1315  159.7980 O   0  0  0  0  0  0  0  0  0  0  0  0
  150.8332  138.1817  154.3050 C   0  0  0  0  0  0  0  0  0  0  0  0
  149.4068  138.7294  154.1256 C   0  0  0  0  0  0  0  0  0  0  0  0
  144.9873  137.3597  153.4411 H   0  0  0  0  0  0  0  0  0  0  0  0
  145.7979  136.5415  154.7433 H   0  0  0  0  0  0  0  0  0  0  0  0
  146.2626  136.2073  153.0709 H   0  0  0  0  0  0  0  0  0  0  0  0
  146.7185  138.8065  154.6215 H   0  0  0  0  0  0  0  0  0  0  0  0
  145.8640  139.1658  152.2496 H   0  0  0  0  0  0  0  0  0  0  0  0
  147.3074  138.3596  151.6511 H   0  0  0  0  0  0  0  0  0  0  0  0
  147.4204  139.8846  152.5384 H   0  0  0  0  0  0  0  0  0  0  0  0
  148.1699  137.3491  156.1721 H   0  0  0  0  0  0  0  0  0  0  0  0
  147.8109  135.9239  155.2221 H   0  0  0  0  0  0  0  0  0  0  0  0
  149.9286  135.6056  156.4162 H   0  0  0  0  0  0  0  0  0  0  0  0
  150.1337  135.5261  154.6876 H   0  0  0  0  0  0  0  0  0  0  0  0
  151.9500  136.8428  155.5801 H   0  0  0  0  0  0  0  0  0  0  0  0
  150.0106  137.8922  157.3671 H   0  0  0  0  0  0  0  0  0  0  0  0
  151.2534  140.8605  158.3491 H   0  0  0  0  0  0  0  0  0  0  0  0
  150.2416  139.4970  158.7644 H   0  0  0  0  0  0  0  0  0  0  0  0
  154.3276  140.6544  161.7026 H   0  0  0  0  0  0  0  0  0  0  0  0
  151.5463  139.0062  154.3271 H   0  0  0  0  0  0  0  0  0  0  0  0
  151.0976  137.5858  153.4304 H   0  0  0  0  0  0  0  0  0  0  0  0
  149.4060  139.3008  153.1996 H   0  0  0  0  0  0  0  0  0  0  0  0
  149.1624  139.4270  154.9284 H   0  0  0  0  0  0  0  0  0  0  0  0
  148.6378  137.0519  153.2974 H   0  0  0  0  0  0  0  0  0  0  0  0
  1  2  1  0  0  0  0
  1 20  1  0  0  0  0
  1 21  1  0  0  0  0
  1 22  1  0  0  0  0
  2  3  1  0  0  0  0
  2  4  1  0  0  0  0
  2 23  1  0  0  0  0
  3 24  1  0  0  0  0
  3 25  1  0  0  0  0
  3 26  1  0  0  0  0
  4 19  1  0  0  0  0
  4  5  1  0  0  0  0
  4 40  1  0  0  0  0
  5  6  1  0  0  0  0
  5 27  1  0  0  0  0
  5 28  1  0  0  0  0
  6  7  1  0  0  0  0
  6 29  1  0  0  0  0
  6 30  1  0  0  0  0
  7  8  1  0  0  0  0
  7 18  1  0  0  0  0
  7 31  1  0  0  0  0
  8  9  1  0  0  0  0
  8 32  1  0  0  0  0
  9 10  2  0  0  0  0
  9 11  1  0  0  0  0
 11 12  1  0  0  0  0
 11 33  1  0  0  0  0
 11 34  1  0  0  0  0
 12 16  1  0  0  0  0
 12 13  1  0  0  0  0
 13 14  2  0  0  0  0
 14 15  1  0  0  0  0
 14 35  1  0  0  0  0
 15 16  1  0  0  0  0
 16 17  2  0  0  0  0
 18 19  1  0  0  0  0
 18 36  1  0  0  0  0
 18 37  1  0  0  0  0
 19 38  1  0  0  0  0
 19 39  1  0  0  0  0
M  CHG  1   4   1
M  END
> <s_m_source_file>
AV-unprocessed.smi

> <i_m_source_file_index>
2588

> <i_lp_mmshare_version>
43012

> <i_f3d_flags>
0

> <s_epik_input>
W0NIM11bQ0hdKFtDSDNdKU4xW0NIMl1bQ0gyXVtDSF0oW0NIMl1bQ0gyXTEpW05IXUMoPU8pW0NIMl1uMm5bY0hdc2MyPU8=

> <s_epik_cmdline>
J2VwaWtfcHl0aG9uJywgJy1waCcsICc3LjAnLCAnLXRuJywgJzgnLCAnLW1hJywgJzIwMCcsICctbWV0YWxfYmluZGluZycsICctaW1hZScsICc8aW5maWxlLm1hZT4nLCAnLW9tYWUnLCAnPG91dGZpbGUubWFlPic=

> <r_lp_tautomer_probability>
1

> <r_epik_Ionization_Penalty>
0.00923155

> <r_epik_Ionization_Penalty_Charging>
0.00923117

> <r_epik_Ionization_Penalty_Neutral>
3.88423e-07

> <r_epik_State_Penalty>
0.0069994

> <r_epik_Charging_Adjusted_Penalty>
0.0162306

> <i_epik_Tot_Q>
1

> <i_epik_Tot_abs_Q>
1

> <r_epik_Metal_State_Penalty>
0.0069994

> <b_epik_Metal_Only>
0

> <s_lp_Force_Field>
OPLS_2005

> <r_lp_Energy>
20.7245

> <b_lp_Chiralities_Consistent>
1

> <s_lp_Variant>
AV-unprocessed.smi:2588-2

> <Gold.Version>
5.8.1

> <Gold.Id.Protein>
6NUR|6NUR_protein|mol2

> <Gold.PLP.Fitness>
38.8514

> <Gold.PLP.PLP>
-27.0780

> <Gold.PLP.part.hbond>
-3.0000

> <Gold.PLP.part.metal>
0.0000

> <Gold.PLP.part.buried>
-4.2860

> <Gold.PLP.part.nonpolar>
-20.1526

> <Gold.PLP.part.repulsive>
0.0309

> <Gold.PLP.ligand.clash>
0.0000

> <Gold.PLP.ligand.torsion>
0.1309

> <Gold.PLP.Chemscore.Hbond>
4.0000

> <Gold.PLP.Chemscore.CHOScore>
0.0000

> <Gold.PLP.Chemscore.Metal>
0.0000

> <Gold.Chemscore.Hbonds>
donor molecule, donor type, donor heavy atom, donor atom, acceptor molecule, acceptor atom, score
      L1  H     4    40       P1  7948  2.00
      P1  H  6896  6908       L1    17  1.00
      P1  H  7997  8008       L1    10  1.00

> <Gold.PLP.Chemscore.Internal.Correction>
0.0353

> <Gold.Rescore>
     Score         DG    S(hbond)    S(metal)    S(lipo)     H(rot)  DE(clash)    DE(int)     intcor
     17.75     -17.94       2.97        0.00      62.85       1.88       0.06       0.13       ----

> <Gold.Chemscore.Fitness>
17.7510

> <Gold.Chemscore.DG>
-17.9440

> <Gold.Chemscore.ZeroCoef>
-5.4800

> <Gold.Chemscore.Hbond>
2.9675

> <Gold.Chemscore.Metal>
0.0000

> <Gold.Chemscore.Lipo>
62.8550

> <Gold.Chemscore.Internal_Hbond>
0.0000

> <Gold.Chemscore.DEClash>
0.0611

> <Gold.Chemscore.DEInternal>
0.1319

> <Gold.Chemscore.Rot>
1.8756

> <Gold.Chemscore.Internal.Correction>
   9.000000E+99

> <Gold.Chemscore.Hbonds>
donor molecule, donor type, donor heavy atom, donor atom, acceptor molecule, acceptor atom, score
      L1  H     4    40       P1  7948  1.00
      P1  H  6896  6908       L1    17  0.97
      P1  H  7997  8008       L1    10  1.00

> <Gold.Chemscore.Hbond.Weighted>
-9.9115

> <Gold.Chemscore.Metal.Weighted>
-0.0000

> <Gold.Chemscore.Lipo.Weighted>
-7.3540

> <Gold.Chemscore.Internal_Hbond.Weighted>
0.0000

> <Gold.Chemscore.DEClash.Weighted>
0.0611

> <Gold.Chemscore.DEInternal.Weighted>
0.1319

> <Gold.Chemscore.Rot.Weighted>
4.8015

> <Gold.Chemscore.Internal.Correction.Weighted>
   9.000000E+99

> <Gold.Protein.RotatedTorsions>
[ 6907 6896 6895 6894 ] final -108.34 input  -60.11 | X-H torsion
[ 7974 7965 7964 7962 ] final -119.91 input  175.53 | X-H torsion
[ 8008 7997 7996 7995 ] final  -38.78 input   59.86 | X-H torsion
[ 10167 10162 10161 10158 ] final   72.90 input  -65.29 | X-H torsion
[ 10718 10713 10712 10709 ] final  154.77 input   66.30 | X-H torsion
[ 10763 10752 10751 10750 ] final  -31.66 input  -60.55 | X-H torsion
[ 11005 11000 10999 10996 ] final    8.05 input  -57.11 | X-H torsion

> <Gold.Protein.ActiveResidues>
 VAL166  LYS551  ARG553  GLY616  TRP617  ASP618  TYR619  PRO620  LYS621  CYS622 
 ASP623  PHE694  ASN695  SER759  ASP760  ASP761  ALA762  ILE779  LEU786  VAL792 
 PHE793  MET794  SER795  GLU796  ALA797  LYS798  CYS799  TRP800  GLU811  SER814 

> <Gold.Protein.RotatedAtoms>
  150.7496  133.9691  159.3539 H   0  0  0  0  0  0  0  0  0  0  0  0  # atno 6907 bound_to 6896
  151.7624  135.0805  160.0357 H   0  0  0  0  0  0  0  0  0  0  0  0  # atno 6908 bound_to 6896
  152.3394  133.6012  159.5902 H   0  0  0  0  0  0  0  0  0  0  0  0  # atno 6909 bound_to 6896
  145.0572  140.8263  143.4174 H   0  0  0  0  0  0  0  0  0  0  0  0  # atno 7974 bound_to 7965
  154.4032  140.1569  156.2756 H   0  0  0  0  0  0  0  0  0  0  0  0  # atno 8008 bound_to 7997
  155.8915  140.3438  155.5937 H   0  0  0  0  0  0  0  0  0  0  0  0  # atno 8009 bound_to 7997
  155.7553  140.0810  157.2172 H   0  0  0  0  0  0  0  0  0  0  0  0  # atno 8010 bound_to 7997
  140.0303  144.5471  150.7512 H   0  0  0  0  0  0  0  0  0  0  0  0  # atno 10167 bound_to 10162
  157.2273  131.0731  151.1875 H   0  0  0  0  0  0  0  0  0  0  0  0  # atno 10718 bound_to 10713
  153.8011  135.6890  153.4855 H   0  0  0  0  0  0  0  0  0  0  0  0  # atno 10763 bound_to 10752
  153.1688  135.4551  154.9872 H   0  0  0  0  0  0  0  0  0  0  0  0  # atno 10764 bound_to 10752
  154.8006  135.3336  154.7499 H   0  0  0  0  0  0  0  0  0  0  0  0  # atno 10765 bound_to 10752
  140.5414  134.0371  155.7905 H   0  0  0  0  0  0  0  0  0  0  0  0  # atno 11005 bound_to 11000
  145.1453  139.2547  143.5469 LP  0  0  0  0  0  0  0  0  0  0  0  0  # atno 17320 bound_to 7965
  146.3522  140.1142  142.8602 LP  0  0  0  0  0  0  0  0  0  0  0  0  # atno 17321 bound_to 7965
  140.7305  143.2684  151.3969 LP  0  0  0  0  0  0  0  0  0  0  0  0  # atno 17342 bound_to 10162
  139.6081  144.1156  152.2270 LP  0  0  0  0  0  0  0  0  0  0  0  0  # atno 17343 bound_to 10162
  157.3515  130.7084  149.6443 LP  0  0  0  0  0  0  0  0  0  0  0  0  # atno 17370 bound_to 10713
  155.9678  130.4251  150.4639 LP  0  0  0  0  0  0  0  0  0  0  0  0  # atno 17371 bound_to 10713
  141.1225  133.9438  157.2701 LP  0  0  0  0  0  0  0  0  0  0  0  0  # atno 17394 bound_to 11000
  139.9502  135.0177  156.8971 LP  0  0  0  0  0  0  0  0  0  0  0  0  # atno 17395 bound_to 11000

$$$$
