AV-unprocessed.smi:2151|AV-procd|sdf|8758|dock2
  -GOLD-   2272011533D 1   1.00000     0.00000
 Structure written by MMmdl.
 39 40  0  0  0  0  0  0  0  0  1 V2000
  148.7588  141.6628  154.4211 C   0  0  0  0  0  0  0  0  0  0  0  0
  149.3336  141.0554  155.7130 C   0  0  2  0  0  0  0  0  0  0  0  0
  150.3464  141.9490  156.2690 N   0  0  0  0  0  0  0  0  0  0  0  0
  150.3661  142.4166  157.5264 C   0  0  0  0  0  0  0  0  0  0  0  0
  149.4963  142.1533  158.3580 O   0  0  0  0  0  0  0  0  0  0  0  0
  151.5417  143.3385  157.8803 C   0  0  0  0  0  0  0  0  0  0  0  0
  151.9840  143.2078  159.2786 N   0  0  0  0  0  0  0  0  0  0  0  0
  152.8338  142.1263  159.5832 C   0  0  0  0  0  0  0  0  0  0  0  0
  153.3055  141.8911  160.8227 C   0  0  0  0  0  0  0  0  0  0  0  0
  154.2751  140.7551  161.1089 C   0  0  0  0  0  0  0  0  0  0  0  0
  154.6430  140.7508  162.3902 F   0  0  0  0  0  0  0  0  0  0  0  0
  153.6949  139.5863  160.8404 F   0  0  0  0  0  0  0  0  0  0  0  0
  155.3729  140.8559  160.3583 F   0  0  0  0  0  0  0  0  0  0  0  0
  152.9170  142.8368  161.8506 C   0  0  0  0  0  0  0  0  0  0  0  0
  152.1167  143.8846  161.5731 C   0  0  0  0  0  0  0  0  0  0  0  0
  151.5998  144.1182  160.2228 C   0  0  0  0  0  0  0  0  0  0  0  0
  150.8684  145.0723  159.9568 O   0  0  0  0  0  0  0  0  0  0  0  0
  149.9617  139.6689  155.4750 C   0  0  2  0  0  0  0  0  0  0  0  0
  150.6380  139.0506  156.7018 C   0  0  0  0  0  0  0  0  0  0  0  0
  151.7330  138.1693  156.1174 C   0  0  0  0  0  0  0  0  0  0  0  0
  151.7575  138.5364  154.6327 C   0  0  0  0  0  0  0  0  0  0  0  0
  151.0383  139.7573  154.5538 O   0  0  0  0  0  0  0  0  0  0  0  0
  147.9725  141.0344  154.0026 H   0  0  0  0  0  0  0  0  0  0  0  0
  149.5311  141.7808  153.6604 H   0  0  0  0  0  0  0  0  0  0  0  0
  148.3215  142.6445  154.6058 H   0  0  0  0  0  0  0  0  0  0  0  0
  148.5241  140.9430  156.4369 H   0  0  0  0  0  0  0  0  0  0  0  0
  151.1015  142.2150  155.6536 H   0  0  0  0  0  0  0  0  0  0  0  0
  152.3734  143.1405  157.2013 H   0  0  0  0  0  0  0  0  0  0  0  0
  151.2425  144.3664  157.6705 H   0  0  0  0  0  0  0  0  0  0  0  0
  153.0889  141.5050  158.7369 H   0  0  0  0  0  0  0  0  0  0  0  0
  153.2717  142.7016  162.8617 H   0  0  0  0  0  0  0  0  0  0  0  0
  151.8473  144.5687  162.3645 H   0  0  0  0  0  0  0  0  0  0  0  0
  149.2170  138.9767  155.0763 H   0  0  0  0  0  0  0  0  0  0  0  0
  151.0902  139.8277  157.3196 H   0  0  0  0  0  0  0  0  0  0  0  0
  149.9377  138.4939  157.3249 H   0  0  0  0  0  0  0  0  0  0  0  0
  152.6899  138.3863  156.5932 H   0  0  0  0  0  0  0  0  0  0  0  0
  151.5223  137.1083  156.2550 H   0  0  0  0  0  0  0  0  0  0  0  0
  152.7696  138.6447  154.2425 H   0  0  0  0  0  0  0  0  0  0  0  0
  151.2427  137.7783  154.0409 H   0  0  0  0  0  0  0  0  0  0  0  0
  1  2  1  0  0  0  0
  1 23  1  0  0  0  0
  1 24  1  0  0  0  0
  1 25  1  0  0  0  0
  2  3  1  0  0  0  0
  2 18  1  0  0  0  0
  2 26  1  0  0  0  0
  3  4  1  0  0  0  0
  3 27  1  0  0  0  0
  4  5  2  0  0  0  0
  4  6  1  0  0  0  0
  6  7  1  0  0  0  0
  6 28  1  0  0  0  0
  6 29  1  0  0  0  0
  7 16  1  0  0  0  0
  7  8  1  0  0  0  0
  8  9  2  0  0  0  0
  8 30  1  0  0  0  0
  9 10  1  0  0  0  0
  9 14  1  0  0  0  0
 10 11  1  0  0  0  0
 10 12  1  0  0  0  0
 10 13  1  0  0  0  0
 14 15  2  0  0  0  0
 14 31  1  0  0  0  0
 15 16  1  0  0  0  0
 15 32  1  0  0  0  0
 16 17  2  0  0  0  0
 18 22  1  0  0  0  0
 18 19  1  0  0  0  0
 18 33  1  0  0  0  0
 19 20  1  0  0  0  0
 19 34  1  0  0  0  0
 19 35  1  0  0  0  0
 20 21  1  0  0  0  0
 20 36  1  0  0  0  0
 20 37  1  0  0  0  0
 21 22  1  0  0  0  0
 21 38  1  0  0  0  0
 21 39  1  0  0  0  0
M  END
> <s_m_source_file>
AV-unprocessed.smi

> <i_m_source_file_index>
2151

> <i_lp_mmshare_version>
43012

> <i_f3d_flags>
0

> <s_epik_input>
TzFbQ0gyXVtDSDJdW0NIMl1bQ0BIXTFbQ0BIXShbQ0gzXSlbTkhdQyg9TylbQ0gyXW4yW2NIXWMoQyhGKShGKUYpW2NIXVtjSF1jMj1P

> <s_epik_cmdline>
J2VwaWtfcHl0aG9uJywgJy1waCcsICc3LjAnLCAnLXRuJywgJzgnLCAnLW1hJywgJzIwMCcsICctbWV0YWxfYmluZGluZycsICctaW1hZScsICc8aW5maWxlLm1hZT4nLCAnLW9tYWUnLCAnPG91dGZpbGUubWFlPic=

> <r_lp_tautomer_probability>
1

> <r_epik_Ionization_Penalty>
4.20109e-08

> <r_epik_Ionization_Penalty_Charging>
1.89977e-08

> <r_epik_Ionization_Penalty_Neutral>
2.30132e-08

> <r_epik_State_Penalty>
-0

> <r_epik_Charging_Adjusted_Penalty>
1.89977e-08

> <i_epik_Tot_Q>
0

> <i_epik_Tot_abs_Q>
0

> <r_epik_Metal_State_Penalty>
-0

> <b_epik_Metal_Only>
0

> <s_lp_Force_Field>
OPLS_2005

> <r_lp_Energy>
29.9007

> <b_lp_Chiralities_Consistent>
1

> <s_lp_Variant>
AV-unprocessed.smi:2151-1

> <Gold.Version>
5.8.1

> <Gold.Id.Protein>
6NUR|6NUR_protein|mol2

> <Gold.PLP.Fitness>
51.0719

> <Gold.PLP.PLP>
-49.4262

> <Gold.PLP.part.hbond>
-1.4022

> <Gold.PLP.part.metal>
0.0000

> <Gold.PLP.part.buried>
-4.6411

> <Gold.PLP.part.nonpolar>
-42.7866

> <Gold.PLP.part.repulsive>
0.4386

> <Gold.PLP.ligand.clash>
0.0000

> <Gold.PLP.ligand.torsion>
0.7467

> <Gold.PLP.Chemscore.Hbond>
0.9913

> <Gold.PLP.Chemscore.CHOScore>
0.0000

> <Gold.PLP.Chemscore.Metal>
0.0000

> <Gold.Chemscore.Hbonds>
donor molecule, donor type, donor heavy atom, donor atom, acceptor molecule, acceptor atom, score
      P1  H  7989  7998       L1    22  1.00

> <Gold.PLP.Chemscore.Internal.Correction>
0.1654

> <Gold.Rescore>
     Score         DG    S(hbond)    S(metal)    S(lipo)     H(rot)  DE(clash)    DE(int)     intcor
     15.52     -16.27       0.99        0.00     103.69       1.82       0.02       0.73       ----

> <Gold.Chemscore.Fitness>
15.5180

> <Gold.Chemscore.DG>
-16.2685

> <Gold.Chemscore.ZeroCoef>
-5.4800

> <Gold.Chemscore.Hbond>
0.9949

> <Gold.Chemscore.Metal>
0.0000

> <Gold.Chemscore.Lipo>
103.6927

> <Gold.Chemscore.Internal_Hbond>
0.0000

> <Gold.Chemscore.DEClash>
0.0248

> <Gold.Chemscore.DEInternal>
0.7257

> <Gold.Chemscore.Rot>
1.8228

> <Gold.Chemscore.Internal.Correction>
   9.000000E+99

> <Gold.Chemscore.Hbonds>
donor molecule, donor type, donor heavy atom, donor atom, acceptor molecule, acceptor atom, score
      P1  H  7989  7998       L1    22  0.90

> <Gold.Chemscore.Hbond.Weighted>
-3.3230

> <Gold.Chemscore.Metal.Weighted>
-0.0000

> <Gold.Chemscore.Lipo.Weighted>
-12.1320

> <Gold.Chemscore.Internal_Hbond.Weighted>
0.0000

> <Gold.Chemscore.DEClash.Weighted>
0.0248

> <Gold.Chemscore.DEInternal.Weighted>
0.7257

> <Gold.Chemscore.Rot.Weighted>
4.6665

> <Gold.Chemscore.Internal.Correction.Weighted>
   9.000000E+99

> <Gold.Protein.RotatedTorsions>
[ 6907 6896 6895 6894 ] final -136.06 input  -60.11 | X-H torsion
[ 7974 7965 7964 7962 ] final  158.29 input  175.53 | X-H torsion
[ 8008 7997 7996 7995 ] final  -38.21 input   59.86 | X-H torsion
[ 10167 10162 10161 10158 ] final  -91.93 input  -65.29 | X-H torsion
[ 10718 10713 10712 10709 ] final  -90.41 input   66.30 | X-H torsion
[ 10763 10752 10751 10750 ] final  -50.08 input  -60.55 | X-H torsion
[ 11005 11000 10999 10996 ] final -157.94 input  -57.11 | X-H torsion

> <Gold.Protein.ActiveResidues>
 VAL166  LYS551  ARG553  GLY616  TRP617  ASP618  TYR619  PRO620  LYS621  CYS622 
 ASP623  PHE694  ASN695  SER759  ASP760  ASP761  ALA762  ILE779  LEU786  VAL792 
 PHE793  MET794  SER795  GLU796  ALA797  LYS798  CYS799  TRP800  GLU811  SER814 

> <Gold.Protein.RotatedAtoms>
  151.0054  133.6016  159.2689 H   0  0  0  0  0  0  0  0  0  0  0  0  # atno 6907 bound_to 6896
  151.3187  135.0812  159.9308 H   0  0  0  0  0  0  0  0  0  0  0  0  # atno 6908 bound_to 6896
  152.5285  133.9705  159.7814 H   0  0  0  0  0  0  0  0  0  0  0  0  # atno 6909 bound_to 6896
  144.7854  139.7458  143.6243 H   0  0  0  0  0  0  0  0  0  0  0  0  # atno 7974 bound_to 7965
  154.4040  140.1584  156.2663 H   0  0  0  0  0  0  0  0  0  0  0  0  # atno 8008 bound_to 7997
  155.8992  140.3434  155.5991 H   0  0  0  0  0  0  0  0  0  0  0  0  # atno 8009 bound_to 7997
  155.7468  140.0799  157.2211 H   0  0  0  0  0  0  0  0  0  0  0  0  # atno 8010 bound_to 7997
  140.3400  143.2947  151.9846 H   0  0  0  0  0  0  0  0  0  0  0  0  # atno 10167 bound_to 10162
  155.9988  130.4909  150.5319 H   0  0  0  0  0  0  0  0  0  0  0  0  # atno 10718 bound_to 10713
  154.1045  135.6558  153.4874 H   0  0  0  0  0  0  0  0  0  0  0  0  # atno 10763 bound_to 10752
  153.0277  135.5233  154.7253 H   0  0  0  0  0  0  0  0  0  0  0  0  # atno 10764 bound_to 10752
  154.6415  135.2989  155.0067 H   0  0  0  0  0  0  0  0  0  0  0  0  # atno 10765 bound_to 10752
  140.6591  134.4369  157.5234 H   0  0  0  0  0  0  0  0  0  0  0  0  # atno 11005 bound_to 11000
  146.2083  139.5422  142.9698 LP  0  0  0  0  0  0  0  0  0  0  0  0  # atno 17320 bound_to 7965
  145.5936  141.0366  143.2056 LP  0  0  0  0  0  0  0  0  0  0  0  0  # atno 17321 bound_to 7965
  139.4842  144.6165  151.7337 LP  0  0  0  0  0  0  0  0  0  0  0  0  # atno 17342 bound_to 10162
  140.5318  144.0718  150.6056 LP  0  0  0  0  0  0  0  0  0  0  0  0  # atno 17343 bound_to 10162
  157.3267  131.0692  151.1891 LP  0  0  0  0  0  0  0  0  0  0  0  0  # atno 17370 bound_to 10713
  157.2786  130.6739  149.6055 LP  0  0  0  0  0  0  0  0  0  0  0  0  # atno 17371 bound_to 10713
  139.9019  134.8536  156.1860 LP  0  0  0  0  0  0  0  0  0  0  0  0  # atno 17394 bound_to 11000
  141.0479  133.6904  156.1717 LP  0  0  0  0  0  0  0  0  0  0  0  0  # atno 17395 bound_to 11000

$$$$
