AV-unprocessed.smi:1879|AV-procd|sdf|7633|dock4
  -GOLD-   22720 9353D 1   1.00000     0.00000
 Structure written by MMmdl.
 47 49  0  0  0  0  0  0  0  0  2 V2000
  147.6482  131.9573  152.9797 O   0  0  0  0  0  0  0  0  0  0  0  0
  147.9780  133.1431  152.9593 C   0  0  0  0  0  0  0  0  0  0  0  0
  148.9444  133.6905  153.7158 N   0  0  0  0  0  0  0  0  0  0  0  0
  149.7721  133.0557  154.6858 C   0  0  0  0  0  0  0  0  0  0  0  0
  149.9802  131.6519  154.6767 C   0  0  0  0  0  0  0  0  0  0  0  0
  150.7850  131.0533  155.6642 C   0  0  0  0  0  0  0  0  0  0  0  0
  151.3754  131.8671  156.6456 C   0  0  0  0  0  0  0  0  0  0  0  0
  151.1768  133.2010  156.6153 N   0  3  0  0  0  0  0  0  0  0  0  0
  150.4259  133.8382  155.6822 C   0  0  0  0  0  0  0  0  0  0  0  0
  150.3231  135.2456  155.7669 N   0  0  0  0  0  0  0  0  0  0  0  0
  150.7385  136.0846  154.6486 C   0  0  0  0  0  0  0  0  0  0  0  0
  150.1511  137.4613  154.9473 C   0  0  0  0  0  0  0  0  0  0  0  0
  148.8270  137.1120  155.6201 C   0  0  0  0  0  0  0  0  0  0  0  0
  149.1432  135.8297  156.3971 C   0  0  0  0  0  0  0  0  0  0  0  0
  147.3918  134.0634  152.1803 N   0  0  0  0  0  0  0  0  0  0  0  0
  146.3040  133.8048  151.2414 C   0  0  2  0  0  0  0  0  0  0  0  0
  144.9722  133.7110  152.0101 C   0  0  0  0  0  0  0  0  0  0  0  0
  143.8011  133.3806  151.0705 C   0  0  0  0  0  0  0  0  0  0  0  0
  144.0718  132.0877  150.2820 C   0  0  1  0  0  0  0  0  0  0  0  0
  143.0102  131.8518  149.3816 O   0  0  0  0  0  0  0  0  0  0  0  0
  145.3954  132.1815  149.5039 C   0  0  0  0  0  0  0  0  0  0  0  0
  146.5678  132.5112  150.4421 C   0  0  0  0  0  0  0  0  0  0  0  0
  149.0337  134.6943  153.6590 H   0  0  0  0  0  0  0  0  0  0  0  0
  149.5388  131.0202  153.9211 H   0  0  0  0  0  0  0  0  0  0  0  0
  150.9445  129.9849  155.6680 H   0  0  0  0  0  0  0  0  0  0  0  0
  152.0040  131.4971  157.4427 H   0  0  0  0  0  0  0  0  0  0  0  0
  151.8245  136.1189  154.5571 H   0  0  0  0  0  0  0  0  0  0  0  0
  150.3249  135.7077  153.7124 H   0  0  0  0  0  0  0  0  0  0  0  0
  150.7934  137.9992  155.6464 H   0  0  0  0  0  0  0  0  0  0  0  0
  150.0299  138.0753  154.0545 H   0  0  0  0  0  0  0  0  0  0  0  0
  148.4480  137.9115  156.2574 H   0  0  0  0  0  0  0  0  0  0  0  0
  148.0739  136.9040  154.8587 H   0  0  0  0  0  0  0  0  0  0  0  0
  148.2934  135.1459  156.3947 H   0  0  0  0  0  0  0  0  0  0  0  0
  149.3831  136.0724  157.4326 H   0  0  0  0  0  0  0  0  0  0  0  0
  147.7235  135.0153  152.2349 H   0  0  0  0  0  0  0  0  0  0  0  0
  146.2325  134.6415  150.5434 H   0  0  0  0  0  0  0  0  0  0  0  0
  145.0426  132.9420  152.7810 H   0  0  0  0  0  0  0  0  0  0  0  0
  144.7722  134.6498  152.5279 H   0  0  0  0  0  0  0  0  0  0  0  0
  142.8816  133.2817  151.6485 H   0  0  0  0  0  0  0  0  0  0  0  0
  143.6462  134.2117  150.3809 H   0  0  0  0  0  0  0  0  0  0  0  0
  144.1174  131.2455  150.9736 H   0  0  0  0  0  0  0  0  0  0  0  0
  142.2070  131.7824  149.8749 H   0  0  0  0  0  0  0  0  0  0  0  0
  145.5919  131.2434  148.9832 H   0  0  0  0  0  0  0  0  0  0  0  0
  145.3211  132.9525  148.7355 H   0  0  0  0  0  0  0  0  0  0  0  0
  147.4836  132.6076  149.8579 H   0  0  0  0  0  0  0  0  0  0  0  0
  146.7261  131.6782  151.1285 H   0  0  0  0  0  0  0  0  0  0  0  0
  151.6281  133.7660  157.3347 H   0  0  0  0  0  0  0  0  0  0  0  0
  1  2  2  0  0  0  0
  2  3  1  0  0  0  0
  2 15  1  0  0  0  0
  3  4  1  0  0  0  0
  3 23  1  0  0  0  0
  4  9  1  0  0  0  0
  4  5  2  0  0  0  0
  5  6  1  0  0  0  0
  5 24  1  0  0  0  0
  6  7  2  0  0  0  0
  6 25  1  0  0  0  0
  7  8  1  0  0  0  0
  7 26  1  0  0  0  0
  8  9  2  0  0  0  0
  8 47  1  0  0  0  0
  9 10  1  0  0  0  0
 10 14  1  0  0  0  0
 10 11  1  0  0  0  0
 11 12  1  0  0  0  0
 11 27  1  0  0  0  0
 11 28  1  0  0  0  0
 12 13  1  0  0  0  0
 12 29  1  0  0  0  0
 12 30  1  0  0  0  0
 13 14  1  0  0  0  0
 13 31  1  0  0  0  0
 13 32  1  0  0  0  0
 14 33  1  0  0  0  0
 14 34  1  0  0  0  0
 15 16  1  0  0  0  0
 15 35  1  0  0  0  0
 16 22  1  0  0  0  0
 16 17  1  0  0  0  0
 16 36  1  0  0  0  0
 17 18  1  0  0  0  0
 17 37  1  0  0  0  0
 17 38  1  0  0  0  0
 18 19  1  0  0  0  0
 18 39  1  0  0  0  0
 18 40  1  0  0  0  0
 19 20  1  0  0  0  0
 19 21  1  0  0  0  0
 19 41  1  0  0  0  0
 20 42  1  0  0  0  0
 21 22  1  0  0  0  0
 21 43  1  0  0  0  0
 21 44  1  0  0  0  0
 22 45  1  0  0  0  0
 22 46  1  0  0  0  0
M  CHG  1   8   1
M  END
> <s_m_source_file>
AV-unprocessed.smi

> <i_m_source_file_index>
1879

> <i_lp_mmshare_version>
43012

> <i_f3d_flags>
0

> <s_epik_input>
W0NIMl0xW0NIMl1bQ0BIXShbT0hdKVtDSDJdW0NIMl1bQ0BIXTFbTkhdQyg9TylbTkhdYzJbY0hdW2NIXVtjSF1uYzJOM1tDSDJdW0NIMl1bQ0gyXVtDSDJdMw==

> <s_epik_cmdline>
J2VwaWtfcHl0aG9uJywgJy1waCcsICc3LjAnLCAnLXRuJywgJzgnLCAnLW1hJywgJzIwMCcsICctbWV0YWxfYmluZGluZycsICctaW1hZScsICc8aW5maWxlLm1hZT4nLCAnLW9tYWUnLCAnPG91dGZpbGUubWFlPic=

> <r_lp_tautomer_probability>
0.999994

> <r_epik_Ionization_Penalty>
1.08454

> <r_epik_Ionization_Penalty_Charging>
1.08452

> <r_epik_Ionization_Penalty_Neutral>
2.17987e-05

> <r_epik_State_Penalty>
1.14025

> <r_epik_Charging_Adjusted_Penalty>
2.22477

> <i_epik_Tot_Q>
1

> <i_epik_Tot_abs_Q>
1

> <r_epik_Metal_State_Penalty>
1.22973

> <b_epik_Metal_Only>
0

> <s_lp_Force_Field>
OPLS_2005

> <r_lp_Energy>
43.9381

> <b_lp_Chiralities_Consistent>
1

> <s_lp_Variant>
AV-unprocessed.smi:1879-3

> <Gold.Version>
5.8.1

> <Gold.Id.Protein>
6NUR|6NUR_protein|mol2

> <Gold.PLP.Fitness>
44.0464

> <Gold.PLP.PLP>
-37.1825

> <Gold.PLP.part.hbond>
-3.9594

> <Gold.PLP.part.metal>
0.0000

> <Gold.PLP.part.buried>
-3.0398

> <Gold.PLP.part.nonpolar>
-29.8633

> <Gold.PLP.part.repulsive>
0.3489

> <Gold.PLP.ligand.clash>
0.0000

> <Gold.PLP.ligand.torsion>
0.6353

> <Gold.PLP.Chemscore.Hbond>
2.5878

> <Gold.PLP.Chemscore.CHOScore>
0.0000

> <Gold.PLP.Chemscore.Metal>
0.0000

> <Gold.Chemscore.Hbonds>
donor molecule, donor type, donor heavy atom, donor atom, acceptor molecule, acceptor atom, score
      L1  H     3    23       P1  7948  0.16
      L1  H    15    35       P1  7948  0.96
      L1  H    20    42       P1 10952  0.50
      P1  H 10785 10796       L1    20  1.00

> <Gold.PLP.Chemscore.Internal.Correction>
0.3710

> <Gold.Rescore>
     Score         DG    S(hbond)    S(metal)    S(lipo)     H(rot)  DE(clash)    DE(int)     intcor
     14.54     -18.23       2.07        0.00      86.86       1.69       0.65       3.05       ----

> <Gold.Chemscore.Fitness>
14.5431

> <Gold.Chemscore.DG>
-18.2339

> <Gold.Chemscore.ZeroCoef>
-5.4800

> <Gold.Chemscore.Hbond>
2.0733

> <Gold.Chemscore.Metal>
0.0000

> <Gold.Chemscore.Lipo>
86.8624

> <Gold.Chemscore.Internal_Hbond>
0.0000

> <Gold.Chemscore.DEClash>
0.6458

> <Gold.Chemscore.DEInternal>
3.0450

> <Gold.Chemscore.Rot>
1.6929

> <Gold.Chemscore.Internal.Correction>
   9.000000E+99

> <Gold.Chemscore.Hbonds>
donor molecule, donor type, donor heavy atom, donor atom, acceptor molecule, acceptor atom, score
      L1  H     3    23       P1  7948  0.04
      L1  H    15    35       P1  7948  0.84
      L1  H    20    42       P1 10952  0.46
      P1  H 10785 10796       L1    20  0.20

> <Gold.Chemscore.Hbond.Weighted>
-6.9248

> <Gold.Chemscore.Metal.Weighted>
-0.0000

> <Gold.Chemscore.Lipo.Weighted>
-10.1629

> <Gold.Chemscore.Internal_Hbond.Weighted>
0.0000

> <Gold.Chemscore.DEClash.Weighted>
0.6458

> <Gold.Chemscore.DEInternal.Weighted>
3.0450

> <Gold.Chemscore.Rot.Weighted>
4.3338

> <Gold.Chemscore.Internal.Correction.Weighted>
   9.000000E+99

> <Gold.Protein.RotatedTorsions>
[ 6907 6896 6895 6894 ] final -143.08 input  -60.11 | X-H torsion
[ 7974 7965 7964 7962 ] final  152.53 input  175.53 | X-H torsion
[ 8008 7997 7996 7995 ] final -131.89 input   59.86 | X-H torsion
[ 10167 10162 10161 10158 ] final  -11.24 input  -65.29 | X-H torsion
[ 10718 10713 10712 10709 ] final  151.19 input   66.30 | X-H torsion
[ 10763 10752 10751 10750 ] final  130.22 input  -60.55 | X-H torsion
[ 11005 11000 10999 10996 ] final   65.48 input  -57.11 | X-H torsion

> <Gold.Protein.ActiveResidues>
 VAL166  LYS551  ARG553  GLY616  TRP617  ASP618  TYR619  PRO620  LYS621  CYS622 
 ASP623  PHE694  ASN695  SER759  ASP760  ASP761  ALA762  ILE779  LEU786  VAL792 
 PHE793  MET794  SER795  GLU796  ALA797  LYS798  CYS799  TRP800  GLU811  SER814 

> <Gold.Protein.RotatedAtoms>
  151.0957  133.5282  159.2612 H   0  0  0  0  0  0  0  0  0  0  0  0  # atno 6907 bound_to 6896
  151.2132  135.0489  159.8929 H   0  0  0  0  0  0  0  0  0  0  0  0  # atno 6908 bound_to 6896
  152.5438  134.0770  159.8272 H   0  0  0  0  0  0  0  0  0  0  0  0  # atno 6909 bound_to 6896
  144.8216  139.6681  143.6098 H   0  0  0  0  0  0  0  0  0  0  0  0  # atno 7974 bound_to 7965
  155.3198  140.0461  157.3039 H   0  0  0  0  0  0  0  0  0  0  0  0  # atno 8008 bound_to 7997
  154.5386  140.2280  155.8646 H   0  0  0  0  0  0  0  0  0  0  0  0  # atno 8009 bound_to 7997
  156.1859  140.3062  155.9244 H   0  0  0  0  0  0  0  0  0  0  0  0  # atno 8010 bound_to 7997
  140.7134  143.5661  150.9143 H   0  0  0  0  0  0  0  0  0  0  0  0  # atno 10167 bound_to 10162
  157.2739  131.0822  151.1580 H   0  0  0  0  0  0  0  0  0  0  0  0  # atno 10718 bound_to 10713
  153.7545  135.3205  155.3327 H   0  0  0  0  0  0  0  0  0  0  0  0  # atno 10763 bound_to 10752
  154.8251  135.4575  154.0899 H   0  0  0  0  0  0  0  0  0  0  0  0  # atno 10764 bound_to 10752
  153.2111  135.6936  153.8195 H   0  0  0  0  0  0  0  0  0  0  0  0  # atno 10765 bound_to 10752
  139.9892  134.6619  156.0122 H   0  0  0  0  0  0  0  0  0  0  0  0  # atno 11005 bound_to 11000
  146.2521  139.6223  142.9420 LP  0  0  0  0  0  0  0  0  0  0  0  0  # atno 17320 bound_to 7965
  145.5093  141.0436  143.2497 LP  0  0  0  0  0  0  0  0  0  0  0  0  # atno 17321 bound_to 7965
  139.9386  143.6408  152.3059 LP  0  0  0  0  0  0  0  0  0  0  0  0  # atno 17342 bound_to 10162
  139.6885  144.7649  151.1481 LP  0  0  0  0  0  0  0  0  0  0  0  0  # atno 17343 bound_to 10162
  157.3041  130.6857  149.6180 LP  0  0  0  0  0  0  0  0  0  0  0  0  # atno 17370 bound_to 10713
  155.9663  130.4383  150.5212 LP  0  0  0  0  0  0  0  0  0  0  0  0  # atno 17371 bound_to 10713
  141.1551  133.6544  156.4135 LP  0  0  0  0  0  0  0  0  0  0  0  0  # atno 17394 bound_to 11000
  140.4943  134.6546  157.5223 LP  0  0  0  0  0  0  0  0  0  0  0  0  # atno 17395 bound_to 11000

$$$$
