AV-unprocessed.smi:1363|AV-procd|sdf|5565|dock10
  -GOLD-   22720 5163D 1   1.00000     0.00000
 Structure written by MMmdl.
 44 45  0  0  0  0  0  0  0  0  1 V2000
  146.9559  135.0910  156.1724 C   0  0  0  0  0  0  0  0  0  0  0  0
  148.1045  135.9781  155.7437 C   0  0  0  0  0  0  0  0  0  0  0  0
  147.7024  137.1385  155.1033 N   0  0  0  0  0  0  0  0  0  0  0  0
  148.6831  138.0200  154.6842 C   0  0  0  0  0  0  0  0  0  0  0  0
  148.1576  139.2686  153.9973 C   0  0  0  0  0  0  0  0  0  0  0  0
  149.9988  137.7554  154.8871 C   0  0  0  0  0  0  0  0  0  0  0  0
  151.1101  138.7047  154.4411 C   0  0  0  0  0  0  0  0  0  0  0  0
  151.9423  139.3341  155.5611 C   0  0  0  0  0  0  0  0  0  0  0  0
  153.1723  139.2974  155.5206 O   0  0  0  0  0  0  0  0  0  0  0  0
  151.2545  139.9167  156.5545 N   0  0  0  0  0  0  0  0  0  0  0  0
  151.8479  140.5967  157.6994 C   0  0  0  0  0  0  0  0  0  0  0  0
  151.6247  142.1204  157.6242 C   0  0  0  0  0  0  0  0  0  0  0  0
  151.9176  142.8983  158.9032 C   0  0  0  0  0  0  0  0  0  0  0  0
  151.7072  144.2238  159.0534 C   0  0  0  0  0  0  0  0  0  0  0  0
  151.9704  144.9906  160.3376 C   0  0  0  0  0  0  0  0  0  0  0  0
  152.1553  144.0626  161.5487 C   0  0  0  0  0  0  0  0  0  0  0  0
  153.0547  142.8731  161.1958 C   0  0  0  0  0  0  0  0  0  0  0  0
  152.4600  142.0440  160.0434 C   0  0  0  0  0  0  0  0  0  0  0  0
  150.3681  136.4909  155.5662 C   0  0  0  0  0  0  0  0  0  0  0  0
  151.5432  136.1844  155.7630 O   0  0  0  0  0  0  0  0  0  0  0  0
  149.3341  135.6362  155.9818 N   0  0  0  0  0  0  0  0  0  0  0  0
  146.7355  137.3740  154.9320 H   0  0  0  0  0  0  0  0  0  0  0  0
  147.3220  134.1418  156.5656 H   0  0  0  0  0  0  0  0  0  0  0  0
  146.3010  134.8786  155.3270 H   0  0  0  0  0  0  0  0  0  0  0  0
  146.3700  135.5802  156.9511 H   0  0  0  0  0  0  0  0  0  0  0  0
  148.4510  140.1610  154.5504 H   0  0  0  0  0  0  0  0  0  0  0  0
  147.0691  139.2611  153.9287 H   0  0  0  0  0  0  0  0  0  0  0  0
  148.5549  139.3433  152.9847 H   0  0  0  0  0  0  0  0  0  0  0  0
  150.7085  139.5078  153.8227 H   0  0  0  0  0  0  0  0  0  0  0  0
  151.7797  138.1548  153.7787 H   0  0  0  0  0  0  0  0  0  0  0  0
  150.2461  139.8980  156.5080 H   0  0  0  0  0  0  0  0  0  0  0  0
  151.3815  140.1920  158.5981 H   0  0  0  0  0  0  0  0  0  0  0  0
  152.9123  140.3622  157.7600 H   0  0  0  0  0  0  0  0  0  0  0  0
  152.2463  142.5403  156.8323 H   0  0  0  0  0  0  0  0  0  0  0  0
  150.5898  142.3170  157.3408 H   0  0  0  0  0  0  0  0  0  0  0  0
  151.3348  144.8218  158.2360 H   0  0  0  0  0  0  0  0  0  0  0  0
  152.8629  145.5991  160.1892 H   0  0  0  0  0  0  0  0  0  0  0  0
  151.1440  145.6780  160.5210 H   0  0  0  0  0  0  0  0  0  0  0  0
  152.5725  144.6208  162.3874 H   0  0  0  0  0  0  0  0  0  0  0  0
  151.1832  143.6917  161.8766 H   0  0  0  0  0  0  0  0  0  0  0  0
  154.0397  143.2429  160.9074 H   0  0  0  0  0  0  0  0  0  0  0  0
  153.2074  142.2394  162.0699 H   0  0  0  0  0  0  0  0  0  0  0  0
  151.6434  141.4243  160.4153 H   0  0  0  0  0  0  0  0  0  0  0  0
  153.2207  141.3631  159.6604 H   0  0  0  0  0  0  0  0  0  0  0  0
  1 23  1  0  0  0  0
  1 24  1  0  0  0  0
  1 25  1  0  0  0  0
  1  2  1  0  0  0  0
  2  3  1  0  0  0  0
  2 21  2  0  0  0  0
  3  4  1  0  0  0  0
  3 22  1  0  0  0  0
  4  6  2  0  0  0  0
  4  5  1  0  0  0  0
  5 26  1  0  0  0  0
  5 27  1  0  0  0  0
  5 28  1  0  0  0  0
  6 19  1  0  0  0  0
  6  7  1  0  0  0  0
  7  8  1  0  0  0  0
  7 29  1  0  0  0  0
  7 30  1  0  0  0  0
  8  9  2  0  0  0  0
  8 10  1  0  0  0  0
 10 11  1  0  0  0  0
 10 31  1  0  0  0  0
 11 12  1  0  0  0  0
 11 32  1  0  0  0  0
 11 33  1  0  0  0  0
 12 13  1  0  0  0  0
 12 34  1  0  0  0  0
 12 35  1  0  0  0  0
 13 18  1  0  0  0  0
 13 14  2  0  0  0  0
 14 15  1  0  0  0  0
 14 36  1  0  0  0  0
 15 16  1  0  0  0  0
 15 37  1  0  0  0  0
 15 38  1  0  0  0  0
 16 17  1  0  0  0  0
 16 39  1  0  0  0  0
 16 40  1  0  0  0  0
 17 18  1  0  0  0  0
 17 41  1  0  0  0  0
 17 42  1  0  0  0  0
 18 43  1  0  0  0  0
 18 44  1  0  0  0  0
 19 20  2  0  0  0  0
 19 21  1  0  0  0  0
M  END
> <s_m_source_file>
AV-unprocessed.smi

> <i_m_source_file_index>
1363

> <i_lp_mmshare_version>
43012

> <i_f3d_flags>
0

> <s_epik_input>
W0NIM11jMW5jKFtDSDNdKWMoYyg9TylbbkhdMSlbQ0gyXUMoPU8pW05IXVtDSDJdW0NIMl1DMj1bQ0hdW0NIMl1bQ0gyXVtDSDJdW0NIMl0y

> <s_epik_cmdline>
J2VwaWtfcHl0aG9uJywgJy1waCcsICc3LjAnLCAnLXRuJywgJzgnLCAnLW1hJywgJzIwMCcsICctbWV0YWxfYmluZGluZycsICctaW1hZScsICc8aW5maWxlLm1hZT4nLCAnLW9tYWUnLCAnPG91dGZpbGUubWFlPic=

> <r_lp_tautomer_probability>
0.156392

> <r_epik_Ionization_Penalty>
0.0140998

> <r_epik_Ionization_Penalty_Charging>
0.0139776

> <r_epik_Ionization_Penalty_Neutral>
0.000122158

> <r_epik_State_Penalty>
1.53009

> <r_epik_Charging_Adjusted_Penalty>
1.54407

> <i_epik_Tot_Q>
0

> <i_epik_Tot_abs_Q>
0

> <r_epik_Metal_State_Penalty>
1.7066

> <b_epik_Metal_Only>
0

> <s_lp_Force_Field>
OPLS_2005

> <r_lp_Energy>
12.7953

> <b_lp_Chiralities_Consistent>
1

> <s_lp_Variant>
AV-unprocessed.smi:1363-2

> <Gold.Version>
5.8.1

> <Gold.Id.Protein>
6NUR|6NUR_protein|mol2

> <Gold.PLP.Fitness>
45.9829

> <Gold.PLP.PLP>
-40.3810

> <Gold.PLP.part.hbond>
-2.0000

> <Gold.PLP.part.metal>
0.0000

> <Gold.PLP.part.buried>
-7.0074

> <Gold.PLP.part.nonpolar>
-32.1685

> <Gold.PLP.part.repulsive>
0.2051

> <Gold.PLP.ligand.clash>
0.0000

> <Gold.PLP.ligand.torsion>
0.2183

> <Gold.PLP.Chemscore.Hbond>
2.0000

> <Gold.PLP.Chemscore.CHOScore>
0.0000

> <Gold.PLP.Chemscore.Metal>
0.0000

> <Gold.Chemscore.Hbonds>
donor molecule, donor type, donor heavy atom, donor atom, acceptor molecule, acceptor atom, score
      P1  H  7997  8009       L1     9  0.96
      P1  H 10752 10763       L1    20  1.00

> <Gold.PLP.Chemscore.Internal.Correction>
0.0385

> <Gold.Rescore>
     Score         DG    S(hbond)    S(metal)    S(lipo)     H(rot)  DE(clash)    DE(int)     intcor
     19.45     -19.80       1.99        0.00     106.20       1.86       0.10       0.25       ----

> <Gold.Chemscore.Fitness>
19.4523

> <Gold.Chemscore.DG>
-19.7982

> <Gold.Chemscore.ZeroCoef>
-5.4800

> <Gold.Chemscore.Hbond>
1.9948

> <Gold.Chemscore.Metal>
0.0000

> <Gold.Chemscore.Lipo>
106.1970

> <Gold.Chemscore.Internal_Hbond>
0.0000

> <Gold.Chemscore.DEClash>
0.0988

> <Gold.Chemscore.DEInternal>
0.2470

> <Gold.Chemscore.Rot>
1.8631

> <Gold.Chemscore.Internal.Correction>
   9.000000E+99

> <Gold.Chemscore.Hbonds>
donor molecule, donor type, donor heavy atom, donor atom, acceptor molecule, acceptor atom, score
      P1  H  7997  8009       L1     9  0.92
      P1  H 10752 10763       L1    20  1.00

> <Gold.Chemscore.Hbond.Weighted>
-6.6628

> <Gold.Chemscore.Metal.Weighted>
-0.0000

> <Gold.Chemscore.Lipo.Weighted>
-12.4250

> <Gold.Chemscore.Internal_Hbond.Weighted>
0.0000

> <Gold.Chemscore.DEClash.Weighted>
0.0988

> <Gold.Chemscore.DEInternal.Weighted>
0.2470

> <Gold.Chemscore.Rot.Weighted>
4.7697

> <Gold.Chemscore.Internal.Correction.Weighted>
   9.000000E+99

> <Gold.Protein.RotatedTorsions>
[ 6907 6896 6895 6894 ] final -149.67 input  -60.11 | X-H torsion
[ 7974 7965 7964 7962 ] final  -14.66 input  175.53 | X-H torsion
[ 8008 7997 7996 7995 ] final -126.08 input   59.86 | X-H torsion
[ 10167 10162 10161 10158 ] final  -22.11 input  -65.29 | X-H torsion
[ 10718 10713 10712 10709 ] final  -34.92 input   66.30 | X-H torsion
[ 10763 10752 10751 10750 ] final   64.55 input  -60.55 | X-H torsion
[ 11005 11000 10999 10996 ] final  102.69 input  -57.11 | X-H torsion

> <Gold.Protein.ActiveResidues>
 VAL166  LYS551  ARG553  GLY616  TRP617  ASP618  TYR619  PRO620  LYS621  CYS622 
 ASP623  PHE694  ASN695  SER759  ASP760  ASP761  ALA762  ILE779  LEU786  VAL792 
 PHE793  MET794  SER795  GLU796  ALA797  LYS798  CYS799  TRP800  GLU811  SER814 

> <Gold.Protein.RotatedAtoms>
  151.1875  133.4687  159.2594 H   0  0  0  0  0  0  0  0  0  0  0  0  # atno 6907 bound_to 6896
  151.1197  135.0072  159.8543 H   0  0  0  0  0  0  0  0  0  0  0  0  # atno 6908 bound_to 6896
  152.5455  134.1787  159.8679 H   0  0  0  0  0  0  0  0  0  0  0  0  # atno 6909 bound_to 6896
  146.2065  140.3380  142.8405 H   0  0  0  0  0  0  0  0  0  0  0  0  # atno 7974 bound_to 7965
  155.2237  140.0423  157.2952 H   0  0  0  0  0  0  0  0  0  0  0  0  # atno 8008 bound_to 7997
  154.5933  140.2432  155.7862 H   0  0  0  0  0  0  0  0  0  0  0  0  # atno 8009 bound_to 7997
  156.2273  140.2950  156.0108 H   0  0  0  0  0  0  0  0  0  0  0  0  # atno 8010 bound_to 7997
  140.7285  143.4565  151.0440 H   0  0  0  0  0  0  0  0  0  0  0  0  # atno 10167 bound_to 10162
  156.3448  130.4299  149.7756 H   0  0  0  0  0  0  0  0  0  0  0  0  # atno 10718 bound_to 10713
  153.0060  135.5389  154.6528 H   0  0  0  0  0  0  0  0  0  0  0  0  # atno 10763 bound_to 10752
  154.5756  135.2845  155.0786 H   0  0  0  0  0  0  0  0  0  0  0  0  # atno 10764 bound_to 10752
  154.1935  135.6496  153.5119 H   0  0  0  0  0  0  0  0  0  0  0  0  # atno 10765 bound_to 10752
  139.8779  134.9234  156.5097 H   0  0  0  0  0  0  0  0  0  0  0  0  # atno 11005 bound_to 11000
  144.8805  140.7394  143.5989 LP  0  0  0  0  0  0  0  0  0  0  0  0  # atno 17320 bound_to 7965
  145.3301  139.1762  143.4542 LP  0  0  0  0  0  0  0  0  0  0  0  0  # atno 17321 bound_to 7965
  139.8246  143.7773  152.3178 LP  0  0  0  0  0  0  0  0  0  0  0  0  # atno 17342 bound_to 10162
  139.7868  144.7425  151.0011 LP  0  0  0  0  0  0  0  0  0  0  0  0  # atno 17343 bound_to 10162
  156.4978  130.8115  151.3120 LP  0  0  0  0  0  0  0  0  0  0  0  0  # atno 17370 bound_to 10713
  157.7452  130.9954  150.2743 LP  0  0  0  0  0  0  0  0  0  0  0  0  # atno 17371 bound_to 10713
  140.8529  133.8118  155.9187 LP  0  0  0  0  0  0  0  0  0  0  0  0  # atno 17394 bound_to 11000
  140.9126  134.2242  157.4976 LP  0  0  0  0  0  0  0  0  0  0  0  0  # atno 17395 bound_to 11000

$$$$
