AV-unprocessed.smi:284|AV-procd|sdf|2159|dock10
  -GOLD-   2262021513D 1   1.00000     0.00000
 Structure written by MMmdl.
 60 62  0  0  0  0  0  0  0  0  1 V2000
  148.3455  129.3246  153.5865 C   0  0  0  0  0  0  0  0  0  0  0  0
  148.1532  130.8280  153.7132 C   0  0  0  0  0  0  0  0  0  0  0  0
  147.3493  131.5236  152.8766 C   0  0  0  0  0  0  0  0  0  0  0  0
  147.1590  132.8898  152.9558 N   0  0  0  0  0  0  0  0  0  0  0  0
  146.2158  133.5657  151.9835 C   0  0  2  0  0  0  0  0  0  0  0  0
  144.9387  134.1068  152.6423 C   0  0  0  0  0  0  0  0  0  0  0  0
  143.9426  133.9676  151.5089 C   0  0  2  0  0  0  0  0  0  0  0  0
  142.6252  133.8464  152.0052 O   0  0  0  0  0  0  0  0  0  0  0  0
  144.4283  132.6850  150.8201 C   0  0  1  0  0  0  0  0  0  0  0  0
  144.0646  132.5120  149.3347 C   0  0  0  0  0  0  0  0  0  0  0  0
  142.6840  132.2720  149.1538 O   0  0  0  0  0  0  0  0  0  0  0  0
  145.8416  132.6449  151.0016 O   0  0  0  0  0  0  0  0  0  0  0  0
  147.7896  133.6219  153.9865 C   0  0  0  0  0  0  0  0  0  0  0  0
  147.6088  134.8348  154.1094 O   0  0  0  0  0  0  0  0  0  0  0  0
  148.6370  132.9247  154.8773 N   0  0  0  0  0  0  0  0  0  0  0  0
  149.3416  133.6867  155.9332 C   0  0  0  0  0  0  0  0  0  0  0  0
  148.6220  133.6606  157.2915 C   0  0  0  0  0  0  0  0  0  0  0  0
  149.1621  133.1528  158.2755 O   0  0  0  0  0  0  0  0  0  0  0  0
  147.4127  134.2502  157.3093 N   0  0  0  0  0  0  0  0  0  0  0  0
  146.5045  134.3697  158.3958 C   0  0  0  0  0  0  0  0  0  0  0  0
  146.9891  134.0756  159.6850 C   0  0  0  0  0  0  0  0  0  0  0  0
  146.1504  134.1860  160.8107 C   0  0  0  0  0  0  0  0  0  0  0  0
  144.8039  134.6054  160.6746 C   0  0  0  0  0  0  0  0  0  0  0  0
  143.8523  134.7333  161.8798 C   0  0  0  0  0  0  0  0  0  0  0  0
  142.6007  133.8620  161.6464 C   0  0  0  0  0  0  0  0  0  0  0  0
  143.3760  136.1835  162.1214 C   0  0  0  0  0  0  0  0  0  0  0  0
  144.5714  134.2585  163.1600 C   0  0  0  0  0  0  0  0  0  0  0  0
  144.3326  134.9197  159.3782 C   0  0  0  0  0  0  0  0  0  0  0  0
  145.1691  134.8101  158.2514 C   0  0  0  0  0  0  0  0  0  0  0  0
  148.8666  131.5300  154.7823 C   0  0  0  0  0  0  0  0  0  0  0  0
  149.6317  130.9648  155.5661 O   0  0  0  0  0  0  0  0  0  0  0  0
  147.7809  128.9123  152.7499 H   0  0  0  0  0  0  0  0  0  0  0  0
  148.0138  128.8199  154.4946 H   0  0  0  0  0  0  0  0  0  0  0  0
  149.3978  129.0862  153.4266 H   0  0  0  0  0  0  0  0  0  0  0  0
  146.8345  130.9773  152.0990 H   0  0  0  0  0  0  0  0  0  0  0  0
  146.7853  134.3593  151.4988 H   0  0  0  0  0  0  0  0  0  0  0  0
  144.6471  133.4987  153.4980 H   0  0  0  0  0  0  0  0  0  0  0  0
  145.0773  135.1342  152.9795 H   0  0  0  0  0  0  0  0  0  0  0  0
  144.0180  134.8337  150.8508 H   0  0  0  0  0  0  0  0  0  0  0  0
  142.0214  134.0286  151.3012 H   0  0  0  0  0  0  0  0  0  0  0  0
  144.0403  131.8250  151.3681 H   0  0  0  0  0  0  0  0  0  0  0  0
  144.3607  133.3913  148.7621 H   0  0  0  0  0  0  0  0  0  0  0  0
  144.6086  131.6628  148.9204 H   0  0  0  0  0  0  0  0  0  0  0  0
  142.2114  133.0631  149.3638 H   0  0  0  0  0  0  0  0  0  0  0  0
  150.3587  133.3190  156.0775 H   0  0  0  0  0  0  0  0  0  0  0  0
  149.4807  134.7260  155.6306 H   0  0  0  0  0  0  0  0  0  0  0  0
  147.1372  134.7206  156.4595 H   0  0  0  0  0  0  0  0  0  0  0  0
  148.0122  133.7543  159.8175 H   0  0  0  0  0  0  0  0  0  0  0  0
  146.5722  133.9395  161.7725 H   0  0  0  0  0  0  0  0  0  0  0  0
  141.8983  133.9467  162.4764 H   0  0  0  0  0  0  0  0  0  0  0  0
  142.8481  132.8051  161.5454 H   0  0  0  0  0  0  0  0  0  0  0  0
  142.0740  134.1635  160.7402 H   0  0  0  0  0  0  0  0  0  0  0  0
  142.8255  136.5754  161.2652 H   0  0  0  0  0  0  0  0  0  0  0  0
  144.2116  136.8546  162.3238 H   0  0  0  0  0  0  0  0  0  0  0  0
  142.7074  136.2412  162.9811 H   0  0  0  0  0  0  0  0  0  0  0  0
  143.9292  134.3573  164.0361 H   0  0  0  0  0  0  0  0  0  0  0  0
  145.4718  134.8451  163.3469 H   0  0  0  0  0  0  0  0  0  0  0  0
  144.8686  133.2116  163.1002 H   0  0  0  0  0  0  0  0  0  0  0  0
  143.3164  135.2545  159.2335 H   0  0  0  0  0  0  0  0  0  0  0  0
  144.7673  135.0823  157.2875 H   0  0  0  0  0  0  0  0  0  0  0  0
  1  2  1  0  0  0  0
  1 32  1  0  0  0  0
  1 33  1  0  0  0  0
  1 34  1  0  0  0  0
  2 30  1  0  0  0  0
  2  3  2  0  0  0  0
  3  4  1  0  0  0  0
  3 35  1  0  0  0  0
  4  5  1  0  0  0  0
  4 13  1  0  0  0  0
  5 12  1  0  0  0  0
  5  6  1  0  0  0  0
  5 36  1  0  0  0  0
  6  7  1  0  0  0  0
  6 37  1  0  0  0  0
  6 38  1  0  0  0  0
  7  8  1  0  0  0  0
  7  9  1  0  0  0  0
  7 39  1  0  0  0  0
  8 40  1  0  0  0  0
  9 10  1  0  0  0  0
  9 12  1  0  0  0  0
  9 41  1  0  0  0  0
 10 11  1  0  0  0  0
 10 42  1  0  0  0  0
 10 43  1  0  0  0  0
 11 44  1  0  0  0  0
 13 14  2  0  0  0  0
 13 15  1  0  0  0  0
 15 16  1  0  0  0  0
 15 30  1  0  0  0  0
 16 17  1  0  0  0  0
 16 45  1  0  0  0  0
 16 46  1  0  0  0  0
 17 18  2  0  0  0  0
 17 19  1  0  0  0  0
 19 20  1  0  0  0  0
 19 47  1  0  0  0  0
 20 29  1  0  0  0  0
 20 21  2  0  0  0  0
 21 22  1  0  0  0  0
 21 48  1  0  0  0  0
 22 23  2  0  0  0  0
 22 49  1  0  0  0  0
 23 24  1  0  0  0  0
 23 28  1  0  0  0  0
 24 25  1  0  0  0  0
 24 26  1  0  0  0  0
 24 27  1  0  0  0  0
 25 50  1  0  0  0  0
 25 51  1  0  0  0  0
 25 52  1  0  0  0  0
 26 53  1  0  0  0  0
 26 54  1  0  0  0  0
 26 55  1  0  0  0  0
 27 56  1  0  0  0  0
 27 57  1  0  0  0  0
 27 58  1  0  0  0  0
 28 29  2  0  0  0  0
 28 59  1  0  0  0  0
 29 60  1  0  0  0  0
 30 31  2  0  0  0  0
M  END
> <s_m_source_file>
AV-unprocessed.smi

> <i_m_source_file_index>
284

> <i_lp_mmshare_version>
43012

> <i_f3d_flags>
0

> <s_epik_input>
W09IXVtDSDJdW0NAQEhdKE8xKVtDQEhdKFtPSF0pW0NIMl1bQ0BIXTFuKFtjSF1jMltDSDNdKWMoPU8pbihjMj1PKVtDSDJdQyg9TylbTkhdYzNbY0hdW2NIXWMoQyhbQ0gzXSkoW0NIM10pW0NIM10pW2NIXVtjSF0z

> <s_epik_cmdline>
J2VwaWtfcHl0aG9uJywgJy1waCcsICc3LjAnLCAnLXRuJywgJzgnLCAnLW1hJywgJzIwMCcsICctbWV0YWxfYmluZGluZycsICctaW1hZScsICc8aW5maWxlLm1hZT4nLCAnLW9tYWUnLCAnPG91dGZpbGUubWFlPic=

> <r_lp_tautomer_probability>
1

> <r_epik_Ionization_Penalty>
4.92358e-06

> <r_epik_Ionization_Penalty_Charging>
1.29777e-07

> <r_epik_Ionization_Penalty_Neutral>
4.79381e-06

> <r_epik_State_Penalty>
-0

> <r_epik_Charging_Adjusted_Penalty>
1.29777e-07

> <i_epik_Tot_Q>
0

> <i_epik_Tot_abs_Q>
0

> <r_epik_Metal_State_Penalty>
-0

> <b_epik_Metal_Only>
0

> <s_epik_Chemistry_Notes>
This compound contains an acetal/aminal-like group ( X-CH(R)-Y where X, Y are N, S, or O) that may be acid/base labile, releasing an aldehyde.

> <s_lp_Force_Field>
OPLS_2005

> <r_lp_Energy>
37.3901

> <b_lp_Chiralities_Consistent>
1

> <s_lp_Variant>
AV-unprocessed.smi:284-3

> <Gold.Version>
5.8.1

> <Gold.Id.Protein>
6NUR|6NUR_protein|mol2

> <Gold.PLP.Fitness>
51.8516

> <Gold.PLP.PLP>
-39.9458

> <Gold.PLP.part.hbond>
-5.0000

> <Gold.PLP.part.metal>
0.0000

> <Gold.PLP.part.buried>
-5.9979

> <Gold.PLP.part.nonpolar>
-30.2595

> <Gold.PLP.part.repulsive>
1.7978

> <Gold.PLP.ligand.clash>
0.0153

> <Gold.PLP.ligand.torsion>
0.5911

> <Gold.PLP.Chemscore.Hbond>
3.8350

> <Gold.PLP.Chemscore.CHOScore>
0.5210

> <Gold.PLP.Chemscore.Metal>
0.0000

> <Gold.Chemscore.Hbonds>
donor molecule, donor type, donor heavy atom, donor atom, acceptor molecule, acceptor atom, score
      L1  H     8    40       P1 10186  0.63
      L1  H    11    44       P1 10186  1.00
      P1  H  6896  6907       L1    18  1.00
      P1  H 10785 10796       L1    11  0.20
      L1  C     3    35       P1 10747  0.10

> <Gold.PLP.Chemscore.Internal.Correction>
0.0353

> <Gold.Rescore>
     Score         DG    S(hbond)    S(metal)    S(lipo)     H(rot)  DE(clash)    DE(int)     intcor
     12.76     -15.98       2.50        0.00      90.08       3.27       1.05       2.16       ----

> <Gold.Chemscore.Fitness>
12.7647

> <Gold.Chemscore.DG>
-15.9775

> <Gold.Chemscore.ZeroCoef>
-5.4800

> <Gold.Chemscore.Hbond>
2.4965

> <Gold.Chemscore.Metal>
0.0000

> <Gold.Chemscore.Lipo>
90.0781

> <Gold.Chemscore.Internal_Hbond>
0.0000

> <Gold.Chemscore.DEClash>
1.0545

> <Gold.Chemscore.DEInternal>
2.1583

> <Gold.Chemscore.Rot>
3.2735

> <Gold.Chemscore.Internal.Correction>
   9.000000E+99

> <Gold.Chemscore.Hbonds>
donor molecule, donor type, donor heavy atom, donor atom, acceptor molecule, acceptor atom, score
      L1  H     8    40       P1 10186  0.05
      L1  H    11    44       P1 10186  1.00
      P1  H  6896  6907       L1    18  0.95
      P1  H 10785 10796       L1    11  0.01

> <Gold.Chemscore.Hbond.Weighted>
-8.3384

> <Gold.Chemscore.Metal.Weighted>
-0.0000

> <Gold.Chemscore.Lipo.Weighted>
-10.5391

> <Gold.Chemscore.Internal_Hbond.Weighted>
0.0000

> <Gold.Chemscore.DEClash.Weighted>
1.0545

> <Gold.Chemscore.DEInternal.Weighted>
2.1583

> <Gold.Chemscore.Rot.Weighted>
8.3801

> <Gold.Chemscore.Internal.Correction.Weighted>
   9.000000E+99

> <Gold.Protein.RotatedTorsions>
[ 6907 6896 6895 6894 ] final -123.50 input  -60.11 | X-H torsion
[ 7974 7965 7964 7962 ] final  -22.25 input  175.53 | X-H torsion
[ 8008 7997 7996 7995 ] final -121.21 input   59.86 | X-H torsion
[ 10167 10162 10161 10158 ] final  -45.25 input  -65.29 | X-H torsion
[ 10718 10713 10712 10709 ] final  142.27 input   66.30 | X-H torsion
[ 10763 10752 10751 10750 ] final  -77.04 input  -60.55 | X-H torsion
[ 11005 11000 10999 10996 ] final  170.82 input  -57.11 | X-H torsion

> <Gold.Protein.ActiveResidues>
 VAL166  LYS551  ARG553  GLY616  TRP617  ASP618  TYR619  PRO620  LYS621  CYS622 
 ASP623  PHE694  ASN695  SER759  ASP760  ASP761  ALA762  ILE779  LEU786  VAL792 
 PHE793  MET794  SER795  GLU796  ALA797  LYS798  CYS799  TRP800  GLU811  SER814 

> <Gold.Protein.RotatedAtoms>
  150.8677  133.7550  159.2971 H   0  0  0  0  0  0  0  0  0  0  0  0  # atno 6907 bound_to 6896
  151.5172  135.1065  159.9879 H   0  0  0  0  0  0  0  0  0  0  0  0  # atno 6908 bound_to 6896
  152.4673  133.7906  159.6956 H   0  0  0  0  0  0  0  0  0  0  0  0  # atno 6909 bound_to 6896
  146.1686  140.4453  142.8541 H   0  0  0  0  0  0  0  0  0  0  0  0  # atno 7974 bound_to 7965
  155.1443  140.0402  157.2806 H   0  0  0  0  0  0  0  0  0  0  0  0  # atno 8008 bound_to 7997
  154.6450  140.2556  155.7251 H   0  0  0  0  0  0  0  0  0  0  0  0  # atno 8009 bound_to 7997
  156.2551  140.2848  156.0860 H   0  0  0  0  0  0  0  0  0  0  0  0  # atno 8010 bound_to 7997
  140.6865  143.2889  151.3612 H   0  0  0  0  0  0  0  0  0  0  0  0  # atno 10167 bound_to 10162
  157.3825  131.0994  151.0725 H   0  0  0  0  0  0  0  0  0  0  0  0  # atno 10718 bound_to 10713
  154.5077  135.5777  153.6580 H   0  0  0  0  0  0  0  0  0  0  0  0  # atno 10763 bound_to 10752
  152.9891  135.6151  154.2919 H   0  0  0  0  0  0  0  0  0  0  0  0  # atno 10764 bound_to 10752
  154.2832  135.2850  155.2667 H   0  0  0  0  0  0  0  0  0  0  0  0  # atno 10765 bound_to 10752
  140.3124  134.7505  157.4001 H   0  0  0  0  0  0  0  0  0  0  0  0  # atno 11005 bound_to 11000
  144.8130  140.6418  143.6403 LP  0  0  0  0  0  0  0  0  0  0  0  0  # atno 17320 bound_to 7965
  145.4400  139.1537  143.3975 LP  0  0  0  0  0  0  0  0  0  0  0  0  # atno 17321 bound_to 7965
  139.6228  144.0872  152.2407 LP  0  0  0  0  0  0  0  0  0  0  0  0  # atno 17342 bound_to 10162
  140.0322  144.6072  150.7478 LP  0  0  0  0  0  0  0  0  0  0  0  0  # atno 17343 bound_to 10162
  157.1789  130.6300  149.5665 LP  0  0  0  0  0  0  0  0  0  0  0  0  # atno 17370 bound_to 10713
  155.9779  130.4760  150.6622 LP  0  0  0  0  0  0  0  0  0  0  0  0  # atno 17371 bound_to 10713
  140.1013  134.5469  155.8350 LP  0  0  0  0  0  0  0  0  0  0  0  0  # atno 17394 bound_to 11000
  141.2105  133.6696  156.6515 LP  0  0  0  0  0  0  0  0  0  0  0  0  # atno 17395 bound_to 11000

$$$$
