AV-unprocessed.smi:247|AV-procd|sdf|1889|dock10
  -GOLD-   2262020553D 1   1.00000     0.00000
 Structure written by MMmdl.
 61 65  0  0  0  0  0  0  0  0  1 V2000
  149.0028  140.9308  153.5026 O   0  0  0  0  0  0  0  0  0  0  0  0
  148.7738  139.8386  154.3713 C   0  0  0  0  0  0  0  0  0  0  0  0
  150.0283  139.4271  155.1918 C   0  0  0  0  0  0  0  0  0  0  0  0
  149.5946  138.3992  156.2846 C   0  0  0  0  0  0  0  0  0  0  0  0
  149.1593  137.1049  155.7786 N   0  0  0  0  0  0  0  0  0  0  0  0
  147.9726  136.8247  155.1384 C   0  0  0  0  0  0  0  0  0  0  0  0
  147.8144  135.5811  154.7762 N   0  0  0  0  0  0  0  0  0  0  0  0
  148.9907  134.9591  155.1759 C   0  0  0  0  0  0  0  0  0  0  0  0
  149.4800  133.6253  155.1019 C   0  0  0  0  0  0  0  0  0  0  0  0
  148.7633  132.6214  154.5374 N   0  0  0  0  0  0  0  0  0  0  0  0
  149.2811  131.2839  154.7750 C   0  0  0  0  0  0  0  0  0  0  0  0
  148.1782  130.3457  154.3000 C   0  0  0  0  0  0  0  0  0  0  0  0
  146.9021  131.1102  154.6453 C   0  0  0  0  0  0  0  0  0  0  0  0
  147.2963  132.5994  154.5845 C   0  0  2  0  0  0  0  0  0  0  0  0
  146.6374  133.3668  153.4020 C   0  0  2  0  0  0  0  0  0  0  0  0
  145.1248  133.6189  153.6154 C   0  0  0  0  0  0  0  0  0  0  0  0
  144.5844  134.3874  152.5461 O   0  0  0  0  0  0  0  0  0  0  0  0
  144.6744  133.7306  151.2880 C   0  0  0  0  0  0  0  0  0  0  0  0
  146.1504  133.5166  150.9273 C   0  0  0  0  0  0  0  0  0  0  0  0
  146.8552  132.7048  152.0222 C   0  0  1  0  0  0  0  0  0  0  0  0
  148.2320  132.6342  151.7089 O   0  0  0  0  0  0  0  0  0  0  0  0
  150.7125  133.3817  155.6206 N   0  0  0  0  0  0  0  0  0  0  0  0
  151.4197  134.3700  156.1751 C   0  0  0  0  0  0  0  0  0  0  0  0
  151.0886  135.6545  156.3155 N   0  0  0  0  0  0  0  0  0  0  0  0
  149.8507  135.9054  155.8009 C   0  0  0  0  0  0  0  0  0  0  0  0
  151.1082  138.8448  154.2430 C   0  0  0  0  0  0  0  0  0  0  0  0
  152.4583  138.6339  154.9513 C   0  0  0  0  0  0  0  0  0  0  0  0
  152.9080  139.8625  155.5097 O   0  0  0  0  0  0  0  0  0  0  0  0
  152.0285  140.3800  156.5009 C   0  0  0  0  0  0  0  0  0  0  0  0
  150.6452  140.6686  155.8865 C   0  0  0  0  0  0  0  0  0  0  0  0
  149.2718  140.5942  152.6615 H   0  0  0  0  0  0  0  0  0  0  0  0
  147.9549  140.1063  155.0394 H   0  0  0  0  0  0  0  0  0  0  0  0
  148.4232  139.0094  153.7568 H   0  0  0  0  0  0  0  0  0  0  0  0
  150.3962  138.2113  156.9968 H   0  0  0  0  0  0  0  0  0  0  0  0
  148.7784  138.8160  156.8761 H   0  0  0  0  0  0  0  0  0  0  0  0
  147.2177  137.5753  154.9547 H   0  0  0  0  0  0  0  0  0  0  0  0
  150.2109  131.1028  154.2356 H   0  0  0  0  0  0  0  0  0  0  0  0
  149.4700  131.1469  155.8410 H   0  0  0  0  0  0  0  0  0  0  0  0
  148.2494  130.2092  153.2205 H   0  0  0  0  0  0  0  0  0  0  0  0
  148.2277  129.3623  154.7677 H   0  0  0  0  0  0  0  0  0  0  0  0
  146.0693  130.8495  153.9914 H   0  0  0  0  0  0  0  0  0  0  0  0
  146.6001  130.8609  155.6632 H   0  0  0  0  0  0  0  0  0  0  0  0
  146.9398  133.0427  155.5141 H   0  0  0  0  0  0  0  0  0  0  0  0
  147.1171  134.3463  153.3573 H   0  0  0  0  0  0  0  0  0  0  0  0
  144.5740  132.6809  153.7042 H   0  0  0  0  0  0  0  0  0  0  0  0
  144.9544  134.1720  154.5385 H   0  0  0  0  0  0  0  0  0  0  0  0
  144.1369  132.7813  151.3179 H   0  0  0  0  0  0  0  0  0  0  0  0
  144.1890  134.3485  150.5324 H   0  0  0  0  0  0  0  0  0  0  0  0
  146.2311  133.0073  149.9663 H   0  0  0  0  0  0  0  0  0  0  0  0
  146.6355  134.4869  150.8100 H   0  0  0  0  0  0  0  0  0  0  0  0
  146.4474  131.6939  152.0203 H   0  0  0  0  0  0  0  0  0  0  0  0
  148.3471  132.0081  151.0101 H   0  0  0  0  0  0  0  0  0  0  0  0
  152.3878  134.0910  156.5640 H   0  0  0  0  0  0  0  0  0  0  0  0
  150.7714  137.9165  153.7833 H   0  0  0  0  0  0  0  0  0  0  0  0
  151.2801  139.5318  153.4139 H   0  0  0  0  0  0  0  0  0  0  0  0
  152.3937  137.8677  155.7242 H   0  0  0  0  0  0  0  0  0  0  0  0
  153.2020  138.2882  154.2335 H   0  0  0  0  0  0  0  0  0  0  0  0
  151.9627  139.6907  157.3428 H   0  0  0  0  0  0  0  0  0  0  0  0
  152.4565  141.3027  156.8930 H   0  0  0  0  0  0  0  0  0  0  0  0
  150.7737  141.4783  155.1679 H   0  0  0  0  0  0  0  0  0  0  0  0
  149.9700  141.0530  156.6518 H   0  0  0  0  0  0  0  0  0  0  0  0
  1  2  1  0  0  0  0
  1 31  1  0  0  0  0
  2  3  1  0  0  0  0
  2 32  1  0  0  0  0
  2 33  1  0  0  0  0
  3 30  1  0  0  0  0
  3  4  1  0  0  0  0
  3 26  1  0  0  0  0
  4  5  1  0  0  0  0
  4 34  1  0  0  0  0
  4 35  1  0  0  0  0
  5 25  1  0  0  0  0
  5  6  1  0  0  0  0
  6  7  2  0  0  0  0
  6 36  1  0  0  0  0
  7  8  1  0  0  0  0
  8 25  2  0  0  0  0
  8  9  1  0  0  0  0
  9 10  1  0  0  0  0
  9 22  2  0  0  0  0
 10 14  1  0  0  0  0
 10 11  1  0  0  0  0
 11 12  1  0  0  0  0
 11 37  1  0  0  0  0
 11 38  1  0  0  0  0
 12 13  1  0  0  0  0
 12 39  1  0  0  0  0
 12 40  1  0  0  0  0
 13 14  1  0  0  0  0
 13 41  1  0  0  0  0
 13 42  1  0  0  0  0
 14 15  1  0  0  0  0
 14 43  1  0  0  0  0
 15 20  1  0  0  0  0
 15 16  1  0  0  0  0
 15 44  1  0  0  0  0
 16 17  1  0  0  0  0
 16 45  1  0  0  0  0
 16 46  1  0  0  0  0
 17 18  1  0  0  0  0
 18 19  1  0  0  0  0
 18 47  1  0  0  0  0
 18 48  1  0  0  0  0
 19 20  1  0  0  0  0
 19 49  1  0  0  0  0
 19 50  1  0  0  0  0
 20 21  1  0  0  0  0
 20 51  1  0  0  0  0
 21 52  1  0  0  0  0
 22 23  1  0  0  0  0
 23 24  2  0  0  0  0
 23 53  1  0  0  0  0
 24 25  1  0  0  0  0
 26 27  1  0  0  0  0
 26 54  1  0  0  0  0
 26 55  1  0  0  0  0
 27 28  1  0  0  0  0
 27 56  1  0  0  0  0
 27 57  1  0  0  0  0
 28 29  1  0  0  0  0
 29 30  1  0  0  0  0
 29 58  1  0  0  0  0
 29 59  1  0  0  0  0
 30 60  1  0  0  0  0
 30 61  1  0  0  0  0
M  END
> <s_m_source_file>
AV-unprocessed.smi

> <i_m_source_file_index>
247

> <i_lp_mmshare_version>
43012

> <i_f3d_flags>
0

> <s_epik_input>
W0NIMl0xW0NIMl1PW0NIMl1bQ0gyXUMxKFtDSDJdW09IXSlbQ0gyXW4oW2NIXW4yKWMoYzIzKW5bY0hdbmMzTjRbQ0gyXVtDSDJdW0NIMl1bQ0BIXTRbQ0BASF01W0NIMl1PW0NIMl1bQ0gyXVtDQEhdNVtPSF0=

> <s_epik_cmdline>
J2VwaWtfcHl0aG9uJywgJy1waCcsICc3LjAnLCAnLXRuJywgJzgnLCAnLW1hJywgJzIwMCcsICctbWV0YWxfYmluZGluZycsICctaW1hZScsICc8aW5maWxlLm1hZT4nLCAnLW9tYWUnLCAnPG91dGZpbGUubWFlPic=

> <r_lp_tautomer_probability>
1

> <r_epik_Ionization_Penalty>
0.00362597

> <r_epik_Ionization_Penalty_Charging>
0

> <r_epik_Ionization_Penalty_Neutral>
0.00362597

> <r_epik_State_Penalty>
0.00241433

> <r_epik_Charging_Adjusted_Penalty>
0.00241433

> <i_epik_Tot_Q>
0

> <i_epik_Tot_abs_Q>
0

> <r_epik_Metal_State_Penalty>
-0

> <b_epik_Metal_Only>
0

> <s_lp_Force_Field>
OPLS_2005

> <r_lp_Energy>
60.2507

> <b_lp_Chiralities_Consistent>
1

> <s_lp_Variant>
AV-unprocessed.smi:247-2

> <Gold.Version>
5.8.1

> <Gold.Id.Protein>
6NUR|6NUR_protein|mol2

> <Gold.PLP.Fitness>
46.5303

> <Gold.PLP.PLP>
-38.9679

> <Gold.PLP.part.hbond>
-4.5183

> <Gold.PLP.part.metal>
0.0000

> <Gold.PLP.part.buried>
-5.1549

> <Gold.PLP.part.nonpolar>
-29.1962

> <Gold.PLP.part.repulsive>
0.3718

> <Gold.PLP.ligand.clash>
0.0000

> <Gold.PLP.ligand.torsion>
0.8768

> <Gold.PLP.Chemscore.Hbond>
3.0000

> <Gold.PLP.Chemscore.CHOScore>
0.0000

> <Gold.PLP.Chemscore.Metal>
0.0000

> <Gold.Chemscore.Hbonds>
donor molecule, donor type, donor heavy atom, donor atom, acceptor molecule, acceptor atom, score
      L1  H     1    31       P1  7957  1.00
      L1  H    21    52       P1 10747  0.91
      P1  H  7997  8010       L1    28  1.00

> <Gold.PLP.Chemscore.Internal.Correction>
0.3160

> <Gold.Rescore>
     Score         DG    S(hbond)    S(metal)    S(lipo)     H(rot)  DE(clash)    DE(int)     intcor
     13.63     -16.98       2.94        0.00      85.05       3.23       0.32       3.03       ----

> <Gold.Chemscore.Fitness>
13.6307

> <Gold.Chemscore.DG>
-16.9785

> <Gold.Chemscore.ZeroCoef>
-5.4800

> <Gold.Chemscore.Hbond>
2.9375

> <Gold.Chemscore.Metal>
0.0000

> <Gold.Chemscore.Lipo>
85.0484

> <Gold.Chemscore.Internal_Hbond>
0.0000

> <Gold.Chemscore.DEClash>
0.3177

> <Gold.Chemscore.DEInternal>
3.0301

> <Gold.Chemscore.Rot>
3.2278

> <Gold.Chemscore.Internal.Correction>
   9.000000E+99

> <Gold.Chemscore.Hbonds>
donor molecule, donor type, donor heavy atom, donor atom, acceptor molecule, acceptor atom, score
      L1  H     1    31       P1  7957  0.99
      L1  H    21    52       P1 10747  0.86
      P1  H  7997  8010       L1    28  0.73

> <Gold.Chemscore.Hbond.Weighted>
-9.8111

> <Gold.Chemscore.Metal.Weighted>
-0.0000

> <Gold.Chemscore.Lipo.Weighted>
-9.9507

> <Gold.Chemscore.Internal_Hbond.Weighted>
0.0000

> <Gold.Chemscore.DEClash.Weighted>
0.3177

> <Gold.Chemscore.DEInternal.Weighted>
3.0301

> <Gold.Chemscore.Rot.Weighted>
8.2633

> <Gold.Chemscore.Internal.Correction.Weighted>
   9.000000E+99

> <Gold.Protein.RotatedTorsions>
[ 6907 6896 6895 6894 ] final   74.58 input  -60.11 | X-H torsion
[ 7974 7965 7964 7962 ] final -125.82 input  175.53 | X-H torsion
[ 8008 7997 7996 7995 ] final  103.71 input   59.86 | X-H torsion
[ 10167 10162 10161 10158 ] final  -17.55 input  -65.29 | X-H torsion
[ 10718 10713 10712 10709 ] final  103.54 input   66.30 | X-H torsion
[ 10763 10752 10751 10750 ] final   71.96 input  -60.55 | X-H torsion
[ 11005 11000 10999 10996 ] final  -87.91 input  -57.11 | X-H torsion

> <Gold.Protein.ActiveResidues>
 VAL166  LYS551  ARG553  GLY616  TRP617  ASP618  TYR619  PRO620  LYS621  CYS622 
 ASP623  PHE694  ASN695  SER759  ASP760  ASP761  ALA762  ILE779  LEU786  VAL792 
 PHE793  MET794  SER795  GLU796  ALA797  LYS798  CYS799  TRP800  GLU811  SER814 

> <Gold.Protein.RotatedAtoms>
  152.4983  134.4250  159.9493 H   0  0  0  0  0  0  0  0  0  0  0  0  # atno 6907 bound_to 6896
  151.4225  133.3688  159.2766 H   0  0  0  0  0  0  0  0  0  0  0  0  # atno 6908 bound_to 6896
  150.9212  134.8652  159.7550 H   0  0  0  0  0  0  0  0  0  0  0  0  # atno 6909 bound_to 6896
  144.9936  140.7755  143.4539 H   0  0  0  0  0  0  0  0  0  0  0  0  # atno 7974 bound_to 7965
  156.1508  140.3160  155.8645 H   0  0  0  0  0  0  0  0  0  0  0  0  # atno 8008 bound_to 7997
  155.3975  140.0497  157.3055 H   0  0  0  0  0  0  0  0  0  0  0  0  # atno 8009 bound_to 7997
  154.5057  140.2146  155.9268 H   0  0  0  0  0  0  0  0  0  0  0  0  # atno 8010 bound_to 7997
  140.7248  143.5004  150.9876 H   0  0  0  0  0  0  0  0  0  0  0  0  # atno 10167 bound_to 10162
  157.6769  131.0781  150.5571 H   0  0  0  0  0  0  0  0  0  0  0  0  # atno 10718 bound_to 10713
  153.0430  135.5117  154.7672 H   0  0  0  0  0  0  0  0  0  0  0  0  # atno 10763 bound_to 10752
  154.6594  135.2936  154.9888 H   0  0  0  0  0  0  0  0  0  0  0  0  # atno 10764 bound_to 10752
  154.0744  135.6673  153.4881 H   0  0  0  0  0  0  0  0  0  0  0  0  # atno 10765 bound_to 10752
  141.1610  133.7539  156.9375 H   0  0  0  0  0  0  0  0  0  0  0  0  # atno 11005 bound_to 11000
  145.2251  139.2141  143.5073 LP  0  0  0  0  0  0  0  0  0  0  0  0  # atno 17320 bound_to 7965
  146.3437  140.2116  142.8590 LP  0  0  0  0  0  0  0  0  0  0  0  0  # atno 17321 bound_to 7965
  139.8713  143.7188  152.3166 LP  0  0  0  0  0  0  0  0  0  0  0  0  # atno 17342 bound_to 10162
  139.7438  144.7552  151.0611 LP  0  0  0  0  0  0  0  0  0  0  0  0  # atno 17343 bound_to 10162
  156.5875  130.4320  149.5951 LP  0  0  0  0  0  0  0  0  0  0  0  0  # atno 17370 bound_to 10713
  156.2611  130.6963  151.1731 LP  0  0  0  0  0  0  0  0  0  0  0  0  # atno 17371 bound_to 10713
  140.1344  134.9335  157.2381 LP  0  0  0  0  0  0  0  0  0  0  0  0  # atno 17394 bound_to 11000
  140.2913  134.3237  155.7314 LP  0  0  0  0  0  0  0  0  0  0  0  0  # atno 17395 bound_to 11000

$$$$
