AV-unprocessed.smi:407|AV-procd|sdf|2502|dock8
  -GOLD-   2262022453D 1   1.00000     0.00000
 Structure written by MMmdl.
 45 47  0  0  0  0  0  0  0  0  1 V2000
  142.9492  145.2052  155.2549 C   0  0  0  0  0  0  0  0  0  0  0  0
  143.9535  144.7715  154.1883 C   0  0  0  0  0  0  0  0  0  0  0  0
  143.8573  145.2475  153.0576 O   0  0  0  0  0  0  0  0  0  0  0  0
  145.0012  143.7859  154.5792 C   0  0  0  0  0  0  0  0  0  0  0  0
  145.1952  143.3975  155.9249 C   0  0  0  0  0  0  0  0  0  0  0  0
  146.1929  142.4623  156.2608 C   0  0  0  0  0  0  0  0  0  0  0  0
  147.0160  141.8928  155.2696 C   0  0  0  0  0  0  0  0  0  0  0  0
  147.9629  140.9830  155.6881 O   0  0  0  0  0  0  0  0  0  0  0  0
  149.1301  140.8114  154.8945 C   0  0  0  0  0  0  0  0  0  0  0  0
  150.3589  140.7901  155.8187 C   0  0  1  0  0  0  0  0  0  0  0  0
  151.4422  140.2834  155.0638 O   0  0  0  0  0  0  0  0  0  0  0  0
  150.7428  142.2049  156.3002 C   0  0  0  0  0  0  0  0  0  0  0  0
  151.4911  142.1635  157.5559 N   0  0  0  0  0  0  0  0  0  0  0  0
  152.3275  141.1789  157.9627 C   0  0  0  0  0  0  0  0  0  0  0  0
  152.5880  140.1502  157.3386 O   0  0  0  0  0  0  0  0  0  0  0  0
  152.8330  141.5291  159.1683 N   0  0  0  0  0  0  0  0  0  0  0  0
  153.7834  140.7717  159.9736 C   0  0  0  0  0  0  0  0  0  0  0  0
  152.3181  142.7783  159.5372 C   0  0  0  0  0  0  0  0  0  0  0  0
  152.5445  143.5688  160.6769 C   0  0  0  0  0  0  0  0  0  0  0  0
  151.8633  144.8065  160.7496 C   0  0  0  0  0  0  0  0  0  0  0  0
  150.9932  145.2197  159.7074 C   0  0  0  0  0  0  0  0  0  0  0  0
  150.7848  144.4039  158.5705 C   0  0  0  0  0  0  0  0  0  0  0  0
  151.4722  143.1784  158.5240 C   0  0  0  0  0  0  0  0  0  0  0  0
  146.8252  142.2835  153.9217 C   0  0  0  0  0  0  0  0  0  0  0  0
  145.8286  143.2194  153.5838 C   0  0  0  0  0  0  0  0  0  0  0  0
  142.3894  144.3459  155.6245 H   0  0  0  0  0  0  0  0  0  0  0  0
  142.2393  145.9218  154.8415 H   0  0  0  0  0  0  0  0  0  0  0  0
  143.4612  145.6784  156.0931 H   0  0  0  0  0  0  0  0  0  0  0  0
  144.5882  143.8036  156.7201 H   0  0  0  0  0  0  0  0  0  0  0  0
  146.3262  142.1764  157.2940 H   0  0  0  0  0  0  0  0  0  0  0  0
  149.0805  139.9021  154.2924 H   0  0  0  0  0  0  0  0  0  0  0  0
  149.2039  141.6598  154.2121 H   0  0  0  0  0  0  0  0  0  0  0  0
  150.1606  140.1402  156.6723 H   0  0  0  0  0  0  0  0  0  0  0  0
  152.1068  139.9760  155.6609 H   0  0  0  0  0  0  0  0  0  0  0  0
  151.2939  142.7495  155.5324 H   0  0  0  0  0  0  0  0  0  0  0  0
  149.8398  142.7908  156.4788 H   0  0  0  0  0  0  0  0  0  0  0  0
  153.4616  140.7416  161.0153 H   0  0  0  0  0  0  0  0  0  0  0  0
  154.7666  141.2410  159.9324 H   0  0  0  0  0  0  0  0  0  0  0  0
  153.8828  139.7423  159.6261 H   0  0  0  0  0  0  0  0  0  0  0  0
  153.2105  143.2482  161.4643 H   0  0  0  0  0  0  0  0  0  0  0  0
  152.0083  145.4454  161.6084 H   0  0  0  0  0  0  0  0  0  0  0  0
  150.4848  146.1697  159.7820 H   0  0  0  0  0  0  0  0  0  0  0  0
  150.1264  144.7162  157.7735 H   0  0  0  0  0  0  0  0  0  0  0  0
  147.4315  141.8803  153.1250 H   0  0  0  0  0  0  0  0  0  0  0  0
  145.7076  143.4954  152.5461 H   0  0  0  0  0  0  0  0  0  0  0  0
  1  2  1  0  0  0  0
  1 26  1  0  0  0  0
  1 27  1  0  0  0  0
  1 28  1  0  0  0  0
  2  3  2  0  0  0  0
  2  4  1  0  0  0  0
  4 25  1  0  0  0  0
  4  5  2  0  0  0  0
  5  6  1  0  0  0  0
  5 29  1  0  0  0  0
  6  7  2  0  0  0  0
  6 30  1  0  0  0  0
  7  8  1  0  0  0  0
  7 24  1  0  0  0  0
  8  9  1  0  0  0  0
  9 10  1  0  0  0  0
  9 31  1  0  0  0  0
  9 32  1  0  0  0  0
 10 11  1  0  0  0  0
 10 12  1  0  0  0  0
 10 33  1  0  0  0  0
 11 34  1  0  0  0  0
 12 13  1  0  0  0  0
 12 35  1  0  0  0  0
 12 36  1  0  0  0  0
 13 23  1  0  0  0  0
 13 14  1  0  0  0  0
 14 15  2  0  0  0  0
 14 16  1  0  0  0  0
 16 17  1  0  0  0  0
 16 18  1  0  0  0  0
 17 37  1  0  0  0  0
 17 38  1  0  0  0  0
 17 39  1  0  0  0  0
 18 23  2  0  0  0  0
 18 19  1  0  0  0  0
 19 20  2  0  0  0  0
 19 40  1  0  0  0  0
 20 21  1  0  0  0  0
 20 41  1  0  0  0  0
 21 22  2  0  0  0  0
 21 42  1  0  0  0  0
 22 23  1  0  0  0  0
 22 43  1  0  0  0  0
 24 25  2  0  0  0  0
 24 44  1  0  0  0  0
 25 45  1  0  0  0  0
M  END
> <s_m_source_file>
AV-unprocessed.smi

> <i_m_source_file_index>
407

> <i_lp_mmshare_version>
43012

> <i_f3d_flags>
0

> <s_epik_input>
W0NIM11DKD1PKWMxW2NIXVtjSF1jKFtjSF1bY0hdMSlPW0NIMl1bQ0BIXShbT0hdKVtDSDJdbihjKD1PKW4yW0NIM10pYyhjMjMpW2NIXVtjSF1bY0hdW2NIXTM=

> <s_epik_cmdline>
J2VwaWtfcHl0aG9uJywgJy1waCcsICc3LjAnLCAnLXRuJywgJzgnLCAnLW1hJywgJzIwMCcsICctbWV0YWxfYmluZGluZycsICctaW1hZScsICc8aW5maWxlLm1hZT4nLCAnLW9tYWUnLCAnPG91dGZpbGUubWFlPic=

> <r_lp_tautomer_probability>
1

> <r_epik_Ionization_Penalty>
2.40123e-06

> <r_epik_Ionization_Penalty_Charging>
1.9356e-09

> <r_epik_Ionization_Penalty_Neutral>
2.3993e-06

> <r_epik_State_Penalty>
-0

> <r_epik_Charging_Adjusted_Penalty>
1.9356e-09

> <i_epik_Tot_Q>
0

> <i_epik_Tot_abs_Q>
0

> <r_epik_Metal_State_Penalty>
-0

> <b_epik_Metal_Only>
0

> <s_lp_Force_Field>
OPLS_2005

> <r_lp_Energy>
53.7359

> <b_lp_Chiralities_Consistent>
1

> <s_lp_Variant>
AV-unprocessed.smi:407-2

> <Gold.Version>
5.8.1

> <Gold.Id.Protein>
6NUR|6NUR_protein|mol2

> <Gold.PLP.Fitness>
61.1204

> <Gold.PLP.PLP>
-57.9080

> <Gold.PLP.part.hbond>
-3.0000

> <Gold.PLP.part.metal>
0.0000

> <Gold.PLP.part.buried>
-10.0210

> <Gold.PLP.part.nonpolar>
-45.1204

> <Gold.PLP.part.repulsive>
0.1997

> <Gold.PLP.ligand.clash>
0.0000

> <Gold.PLP.ligand.torsion>
1.4903

> <Gold.PLP.Chemscore.Hbond>
2.0000

> <Gold.PLP.Chemscore.CHOScore>
0.0000

> <Gold.PLP.Chemscore.Metal>
0.0000

> <Gold.Chemscore.Hbonds>
donor molecule, donor type, donor heavy atom, donor atom, acceptor molecule, acceptor atom, score
      P1  H  7989  7998       L1    11  1.00
      P1  H  7997  8010       L1    15  1.00

> <Gold.PLP.Chemscore.Internal.Correction>
0.1930

> <Gold.Rescore>
     Score         DG    S(hbond)    S(metal)    S(lipo)     H(rot)  DE(clash)    DE(int)     intcor
     15.09     -21.16       1.80        0.00     132.79       2.30       1.50       4.58       ----

> <Gold.Chemscore.Fitness>
15.0853

> <Gold.Chemscore.DG>
-21.1612

> <Gold.Chemscore.ZeroCoef>
-5.4800

> <Gold.Chemscore.Hbond>
1.8049

> <Gold.Chemscore.Metal>
0.0000

> <Gold.Chemscore.Lipo>
132.7918

> <Gold.Chemscore.Internal_Hbond>
0.0000

> <Gold.Chemscore.DEClash>
1.4976

> <Gold.Chemscore.DEInternal>
4.5783

> <Gold.Chemscore.Rot>
2.2984

> <Gold.Chemscore.Internal.Correction>
   9.000000E+99

> <Gold.Chemscore.Hbonds>
donor molecule, donor type, donor heavy atom, donor atom, acceptor molecule, acceptor atom, score
      P1  H  7989  7998       L1    11  0.91
      P1  H  7997  8010       L1    15  0.79

> <Gold.Chemscore.Hbond.Weighted>
-6.0285

> <Gold.Chemscore.Metal.Weighted>
-0.0000

> <Gold.Chemscore.Lipo.Weighted>
-15.5366

> <Gold.Chemscore.Internal_Hbond.Weighted>
0.0000

> <Gold.Chemscore.DEClash.Weighted>
1.4976

> <Gold.Chemscore.DEInternal.Weighted>
4.5783

> <Gold.Chemscore.Rot.Weighted>
5.8839

> <Gold.Chemscore.Internal.Correction.Weighted>
   9.000000E+99

> <Gold.Protein.RotatedTorsions>
[ 6907 6896 6895 6894 ] final   49.23 input  -60.11 | X-H torsion
[ 7974 7965 7964 7962 ] final  143.00 input  175.53 | X-H torsion
[ 8008 7997 7996 7995 ] final   51.88 input   59.86 | X-H torsion
[ 10167 10162 10161 10158 ] final   92.86 input  -65.29 | X-H torsion
[ 10718 10713 10712 10709 ] final   99.10 input   66.30 | X-H torsion
[ 10763 10752 10751 10750 ] final -130.40 input  -60.55 | X-H torsion
[ 11005 11000 10999 10996 ] final  112.13 input  -57.11 | X-H torsion

> <Gold.Protein.ActiveResidues>
 VAL166  LYS551  ARG553  GLY616  TRP617  ASP618  TYR619  PRO620  LYS621  CYS622 
 ASP623  PHE694  ASN695  SER759  ASP760  ASP761  ALA762  ILE779  LEU786  VAL792 
 PHE793  MET794  SER795  GLU796  ALA797  LYS798  CYS799  TRP800  GLU811  SER814 

> <Gold.Protein.RotatedAtoms>
  152.2884  134.7750  160.0382 H   0  0  0  0  0  0  0  0  0  0  0  0  # atno 6907 bound_to 6896
  151.8304  133.3402  159.3620 H   0  0  0  0  0  0  0  0  0  0  0  0  # atno 6908 bound_to 6896
  150.7219  134.5417  159.5795 H   0  0  0  0  0  0  0  0  0  0  0  0  # atno 6909 bound_to 6896
  144.8959  139.5492  143.5776 H   0  0  0  0  0  0  0  0  0  0  0  0  # atno 7974 bound_to 7965
  155.4426  140.3455  155.4291 H   0  0  0  0  0  0  0  0  0  0  0  0  # atno 8008 bound_to 7997
  156.1269  140.1503  156.9153 H   0  0  0  0  0  0  0  0  0  0  0  0  # atno 8009 bound_to 7997
  154.4865  140.0854  156.7477 H   0  0  0  0  0  0  0  0  0  0  0  0  # atno 8010 bound_to 7997
  139.8236  144.6720  150.9488 H   0  0  0  0  0  0  0  0  0  0  0  0  # atno 10167 bound_to 10162
  157.6883  131.0660  150.4897 H   0  0  0  0  0  0  0  0  0  0  0  0  # atno 10718 bound_to 10713
  154.8755  135.3864  154.4077 H   0  0  0  0  0  0  0  0  0  0  0  0  # atno 10763 bound_to 10752
  153.4795  135.7030  153.5952 H   0  0  0  0  0  0  0  0  0  0  0  0  # atno 10764 bound_to 10752
  153.4374  135.3864  155.2175 H   0  0  0  0  0  0  0  0  0  0  0  0  # atno 10765 bound_to 10752
  139.8920  134.9523  156.6539 H   0  0  0  0  0  0  0  0  0  0  0  0  # atno 11005 bound_to 11000
  146.3081  139.7649  142.9041 LP  0  0  0  0  0  0  0  0  0  0  0  0  # atno 17320 bound_to 7965
  145.3701  141.0341  143.3236 LP  0  0  0  0  0  0  0  0  0  0  0  0  # atno 17321 bound_to 7965
  140.7811  143.4068  151.1058 LP  0  0  0  0  0  0  0  0  0  0  0  0  # atno 17342 bound_to 10162
  139.7727  143.8471  152.3123 LP  0  0  0  0  0  0  0  0  0  0  0  0  # atno 17343 bound_to 10162
  156.5224  130.4165  149.6243 LP  0  0  0  0  0  0  0  0  0  0  0  0  # atno 17370 bound_to 10713
  156.3142  130.7245  151.2144 LP  0  0  0  0  0  0  0  0  0  0  0  0  # atno 17371 bound_to 10713
  140.7499  133.8906  155.8339 LP  0  0  0  0  0  0  0  0  0  0  0  0  # atno 17394 bound_to 11000
  141.0009  134.1152  157.4318 LP  0  0  0  0  0  0  0  0  0  0  0  0  # atno 17395 bound_to 11000

$$$$
