AV-unprocessed.smi:484|AV-procd|sdf|2688|dock1
  -GOLD-   2262023113D 1   1.00000     0.00000
 Structure written by MMmdl.
 46 48  0  0  0  0  0  0  0  0  1 V2000
  143.0680  146.9330  155.0668 C   0  0  0  0  0  0  0  0  0  0  0  0
  142.7098  145.4428  155.0761 C   0  0  0  0  0  0  0  0  0  0  0  0
  143.9255  144.5599  154.8676 C   0  0  0  0  0  0  0  0  0  0  0  0
  144.6311  144.5986  153.6486 C   0  0  0  0  0  0  0  0  0  0  0  0
  145.7641  143.7838  153.4620 C   0  0  0  0  0  0  0  0  0  0  0  0
  146.2110  142.9214  154.4840 C   0  0  0  0  0  0  0  0  0  0  0  0
  147.3308  142.1631  154.2169 O   0  0  0  0  0  0  0  0  0  0  0  0
  147.7581  141.2281  155.1984 C   0  0  0  0  0  0  0  0  0  0  0  0
  149.2331  140.8715  154.9374 C   0  0  1  0  0  0  0  0  0  0  0  0
  149.4458  140.8614  153.5411 O   0  0  0  0  0  0  0  0  0  0  0  0
  150.2370  141.8776  155.5387 C   0  0  0  0  0  0  0  0  0  0  0  0
  151.1759  141.2665  156.4713 N   0  0  0  0  0  0  0  0  0  0  0  0
  151.8883  140.1217  156.3144 C   0  0  0  0  0  0  0  0  0  0  0  0
  151.7806  139.2898  155.0678 C   0  0  0  0  0  0  0  0  0  0  0  0
  152.6240  138.1561  155.0661 O   0  0  0  0  0  0  0  0  0  0  0  0
  152.6710  139.7847  157.3424 N   0  0  0  0  0  0  0  0  0  0  0  0
  152.4546  140.8091  158.2424 C   0  0  0  0  0  0  0  0  0  0  0  0
  152.9943  141.0300  159.5299 C   0  0  0  0  0  0  0  0  0  0  0  0
  152.6140  142.1630  160.2784 C   0  0  0  0  0  0  0  0  0  0  0  0
  151.6909  143.0895  159.7518 C   0  0  0  0  0  0  0  0  0  0  0  0
  151.1427  142.8891  158.4704 C   0  0  0  0  0  0  0  0  0  0  0  0
  151.5255  141.7561  157.7270 C   0  0  0  0  0  0  0  0  0  0  0  0
  145.4953  142.8853  155.7076 C   0  0  0  0  0  0  0  0  0  0  0  0
  144.3614  143.6996  155.8950 C   0  0  0  0  0  0  0  0  0  0  0  0
  142.1801  147.5469  155.2184 H   0  0  0  0  0  0  0  0  0  0  0  0
  143.5156  147.2238  154.1161 H   0  0  0  0  0  0  0  0  0  0  0  0
  143.7780  147.1724  155.8589 H   0  0  0  0  0  0  0  0  0  0  0  0
  142.2360  145.1814  156.0229 H   0  0  0  0  0  0  0  0  0  0  0  0
  141.9751  145.2349  154.2975 H   0  0  0  0  0  0  0  0  0  0  0  0
  144.3082  145.2555  152.8540 H   0  0  0  0  0  0  0  0  0  0  0  0
  146.2982  143.8233  152.5241 H   0  0  0  0  0  0  0  0  0  0  0  0
  147.6286  141.6164  156.2103 H   0  0  0  0  0  0  0  0  0  0  0  0
  147.1348  140.3398  155.0990 H   0  0  0  0  0  0  0  0  0  0  0  0
  149.4428  139.8757  155.3275 H   0  0  0  0  0  0  0  0  0  0  0  0
  149.0959  140.0559  153.1915 H   0  0  0  0  0  0  0  0  0  0  0  0
  150.8003  142.3729  154.7477 H   0  0  0  0  0  0  0  0  0  0  0  0
  149.7015  142.6718  156.0602 H   0  0  0  0  0  0  0  0  0  0  0  0
  150.7499  138.9568  154.9487 H   0  0  0  0  0  0  0  0  0  0  0  0
  152.0349  139.8957  154.1986 H   0  0  0  0  0  0  0  0  0  0  0  0
  153.4135  138.3726  155.5388 H   0  0  0  0  0  0  0  0  0  0  0  0
  153.7008  140.3255  159.9430 H   0  0  0  0  0  0  0  0  0  0  0  0
  153.0320  142.3211  161.2619 H   0  0  0  0  0  0  0  0  0  0  0  0
  151.4025  143.9538  160.3322 H   0  0  0  0  0  0  0  0  0  0  0  0
  150.4326  143.5956  158.0671 H   0  0  0  0  0  0  0  0  0  0  0  0
  145.7952  142.2420  156.5207 H   0  0  0  0  0  0  0  0  0  0  0  0
  143.8281  143.6634  156.8337 H   0  0  0  0  0  0  0  0  0  0  0  0
  1  2  1  0  0  0  0
  1 25  1  0  0  0  0
  1 26  1  0  0  0  0
  1 27  1  0  0  0  0
  2  3  1  0  0  0  0
  2 28  1  0  0  0  0
  2 29  1  0  0  0  0
  3 24  1  0  0  0  0
  3  4  2  0  0  0  0
  4  5  1  0  0  0  0
  4 30  1  0  0  0  0
  5  6  2  0  0  0  0
  5 31  1  0  0  0  0
  6  7  1  0  0  0  0
  6 23  1  0  0  0  0
  7  8  1  0  0  0  0
  8  9  1  0  0  0  0
  8 32  1  0  0  0  0
  8 33  1  0  0  0  0
  9 10  1  0  0  0  0
  9 11  1  0  0  0  0
  9 34  1  0  0  0  0
 10 35  1  0  0  0  0
 11 12  1  0  0  0  0
 11 36  1  0  0  0  0
 11 37  1  0  0  0  0
 12 22  1  0  0  0  0
 12 13  1  0  0  0  0
 13 14  1  0  0  0  0
 13 16  2  0  0  0  0
 14 15  1  0  0  0  0
 14 38  1  0  0  0  0
 14 39  1  0  0  0  0
 15 40  1  0  0  0  0
 16 17  1  0  0  0  0
 17 22  2  0  0  0  0
 17 18  1  0  0  0  0
 18 19  2  0  0  0  0
 18 41  1  0  0  0  0
 19 20  1  0  0  0  0
 19 42  1  0  0  0  0
 20 21  2  0  0  0  0
 20 43  1  0  0  0  0
 21 22  1  0  0  0  0
 21 44  1  0  0  0  0
 23 24  2  0  0  0  0
 23 45  1  0  0  0  0
 24 46  1  0  0  0  0
M  END
> <s_m_source_file>
AV-unprocessed.smi

> <i_m_source_file_index>
484

> <i_lp_mmshare_version>
43012

> <i_f3d_flags>
0

> <s_epik_input>
W0NIM11bQ0gyXWMxW2NIXVtjSF1jKFtjSF1bY0hdMSlPW0NIMl1bQ0BIXShbT0hdKVtDSDJdbihjKG4yKVtDSDJdW09IXSljKGMyMylbY0hdW2NIXVtjSF1bY0hdMw==

> <s_epik_cmdline>
J2VwaWtfcHl0aG9uJywgJy1waCcsICc3LjAnLCAnLXRuJywgJzgnLCAnLW1hJywgJzIwMCcsICctbWV0YWxfYmluZGluZycsICctaW1hZScsICc8aW5maWxlLm1hZT4nLCAnLW9tYWUnLCAnPG91dGZpbGUubWFlPic=

> <r_lp_tautomer_probability>
1

> <r_epik_Ionization_Penalty>
0.0555463

> <r_epik_Ionization_Penalty_Charging>
0

> <r_epik_Ionization_Penalty_Neutral>
0.0555463

> <r_epik_State_Penalty>
0.0477854

> <r_epik_Charging_Adjusted_Penalty>
0.0477854

> <i_epik_Tot_Q>
0

> <i_epik_Tot_abs_Q>
0

> <r_epik_Metal_State_Penalty>
4.97632e-05

> <b_epik_Metal_Only>
0

> <s_lp_Force_Field>
OPLS_2005

> <r_lp_Energy>
17.3214

> <b_lp_Chiralities_Consistent>
1

> <s_lp_Variant>
AV-unprocessed.smi:484-2

> <Gold.Version>
5.8.1

> <Gold.Id.Protein>
6NUR|6NUR_protein|mol2

> <Gold.PLP.Fitness>
56.4524

> <Gold.PLP.PLP>
-51.9804

> <Gold.PLP.part.hbond>
-4.2195

> <Gold.PLP.part.metal>
0.0000

> <Gold.PLP.part.buried>
-5.0102

> <Gold.PLP.part.nonpolar>
-41.9890

> <Gold.PLP.part.repulsive>
0.1615

> <Gold.PLP.ligand.clash>
0.0000

> <Gold.PLP.ligand.torsion>
1.3058

> <Gold.PLP.Chemscore.Hbond>
2.3112

> <Gold.PLP.Chemscore.CHOScore>
0.0000

> <Gold.PLP.Chemscore.Metal>
0.0000

> <Gold.Chemscore.Hbonds>
donor molecule, donor type, donor heavy atom, donor atom, acceptor molecule, acceptor atom, score
      L1  H    10    35       P1  7957  0.09
      P1  H  7989  7998       L1    10  0.23
      P1  H  7997  8009       L1    16  1.00
      P1  H  8011  8017       L1    10  1.00

> <Gold.PLP.Chemscore.Internal.Correction>
0.1500

> <Gold.Rescore>
     Score         DG    S(hbond)    S(metal)    S(lipo)     H(rot)  DE(clash)    DE(int)     intcor
     15.38     -18.16       1.69        0.00     127.58       3.08       0.73       2.05       ----

> <Gold.Chemscore.Fitness>
15.3830

> <Gold.Chemscore.DG>
-18.1630

> <Gold.Chemscore.ZeroCoef>
-5.4800

> <Gold.Chemscore.Hbond>
1.6877

> <Gold.Chemscore.Metal>
0.0000

> <Gold.Chemscore.Lipo>
127.5777

> <Gold.Chemscore.Internal_Hbond>
0.0000

> <Gold.Chemscore.DEClash>
0.7295

> <Gold.Chemscore.DEInternal>
2.0505

> <Gold.Chemscore.Rot>
3.0783

> <Gold.Chemscore.Internal.Correction>
   9.000000E+99

> <Gold.Chemscore.Hbonds>
donor molecule, donor type, donor heavy atom, donor atom, acceptor molecule, acceptor atom, score
      L1  H    10    35       P1  7957  0.11
      P1  H  7989  7998       L1    10  0.06
      P1  H  7997  8009       L1    16  0.17
      P1  H  8011  8017       L1    10  0.93

> <Gold.Chemscore.Hbond.Weighted>
-5.6370

> <Gold.Chemscore.Metal.Weighted>
-0.0000

> <Gold.Chemscore.Lipo.Weighted>
-14.9266

> <Gold.Chemscore.Internal_Hbond.Weighted>
0.0000

> <Gold.Chemscore.DEClash.Weighted>
0.7295

> <Gold.Chemscore.DEInternal.Weighted>
2.0505

> <Gold.Chemscore.Rot.Weighted>
7.8805

> <Gold.Chemscore.Internal.Correction.Weighted>
   9.000000E+99

> <Gold.Protein.RotatedTorsions>
[ 6907 6896 6895 6894 ] final -165.37 input  -60.11 | X-H torsion
[ 7974 7965 7964 7962 ] final -170.85 input  175.53 | X-H torsion
[ 8008 7997 7996 7995 ] final  179.84 input   59.86 | X-H torsion
[ 10167 10162 10161 10158 ] final -122.70 input  -65.29 | X-H torsion
[ 10718 10713 10712 10709 ] final  -50.33 input   66.30 | X-H torsion
[ 10763 10752 10751 10750 ] final   30.28 input  -60.55 | X-H torsion
[ 11005 11000 10999 10996 ] final -111.14 input  -57.11 | X-H torsion

> <Gold.Protein.ActiveResidues>
 VAL166  LYS551  ARG553  GLY616  TRP617  ASP618  TYR619  PRO620  LYS621  CYS622 
 ASP623  PHE694  ASN695  SER759  ASP760  ASP761  ALA762  ILE779  LEU786  VAL792 
 PHE793  MET794  SER795  GLU796  ALA797  LYS798  CYS799  TRP800  GLU811  SER814 

> <Gold.Protein.RotatedAtoms>
  151.4266  133.3682  159.2762 H   0  0  0  0  0  0  0  0  0  0  0  0  # atno 6907 bound_to 6896
  150.9255  134.8673  159.7528 H   0  0  0  0  0  0  0  0  0  0  0  0  # atno 6908 bound_to 6896
  152.5003  134.4207  159.9531 H   0  0  0  0  0  0  0  0  0  0  0  0  # atno 6909 bound_to 6896
  144.7164  140.2009  143.6338 H   0  0  0  0  0  0  0  0  0  0  0  0  # atno 7974 bound_to 7965
  156.0388  140.1299  157.0178 H   0  0  0  0  0  0  0  0  0  0  0  0  # atno 8008 bound_to 7997
  154.4382  140.1034  156.6278 H   0  0  0  0  0  0  0  0  0  0  0  0  # atno 8009 bound_to 7997
  155.5697  140.3466  155.4514 H   0  0  0  0  0  0  0  0  0  0  0  0  # atno 8010 bound_to 7997
  140.0114  143.5437  152.2261 H   0  0  0  0  0  0  0  0  0  0  0  0  # atno 10167 bound_to 10162
  156.1810  130.4150  149.9507 H   0  0  0  0  0  0  0  0  0  0  0  0  # atno 10718 bound_to 10713
  153.0381  135.6468  154.1021 H   0  0  0  0  0  0  0  0  0  0  0  0  # atno 10763 bound_to 10752
  154.0732  135.2879  155.3306 H   0  0  0  0  0  0  0  0  0  0  0  0  # atno 10764 bound_to 10752
  154.6580  135.5402  153.8047 H   0  0  0  0  0  0  0  0  0  0  0  0  # atno 10765 bound_to 10752
  141.0751  133.9314  157.2405 H   0  0  0  0  0  0  0  0  0  0  0  0  # atno 11005 bound_to 11000
  145.8680  139.2257  143.1677 LP  0  0  0  0  0  0  0  0  0  0  0  0  # atno 17320 bound_to 7965
  146.0111  140.8434  142.9970 LP  0  0  0  0  0  0  0  0  0  0  0  0  # atno 17321 bound_to 7965
  139.6202  144.7627  151.2757 LP  0  0  0  0  0  0  0  0  0  0  0  0  # atno 17342 bound_to 10162
  140.7380  143.6662  150.8121 LP  0  0  0  0  0  0  0  0  0  0  0  0  # atno 17343 bound_to 10162
  156.7277  130.9031  151.3623 LP  0  0  0  0  0  0  0  0  0  0  0  0  # atno 17370 bound_to 10713
  157.6868  130.9193  150.0407 LP  0  0  0  0  0  0  0  0  0  0  0  0  # atno 17371 bound_to 10713
  139.9564  135.0164  156.9139 LP  0  0  0  0  0  0  0  0  0  0  0  0  # atno 17394 bound_to 11000
  140.5590  134.0553  155.7393 LP  0  0  0  0  0  0  0  0  0  0  0  0  # atno 17395 bound_to 11000

$$$$
