AV-unprocessed.smi:2072|AV-procd|sdf|8447|dock4
  -GOLD-   2272011143D 1   1.00000     0.00000
 Structure written by MMmdl.
 40 42  0  0  0  0  0  0  0  0  2 V2000
  145.1826  137.7662  153.0527 O   0  0  0  0  0  0  0  0  0  0  0  0
  146.2782  137.2670  152.8000 C   0  0  0  0  0  0  0  0  0  0  0  0
  147.4716  137.8603  152.9772 N   0  0  0  0  0  0  0  0  0  0  0  0
  147.7726  139.1598  153.4736 C   0  0  0  0  0  0  0  0  0  0  0  0
  148.9499  139.5085  154.1813 C   0  0  0  0  0  0  0  0  0  0  0  0
  149.1124  140.8368  154.6197 C   0  0  0  0  0  0  0  0  0  0  0  0
  148.0946  141.7683  154.3396 C   0  0  0  0  0  0  0  0  0  0  0  0
  146.9665  141.4513  153.6710 N   0  0  0  0  0  0  0  0  0  0  0  0
  146.8178  140.1760  153.2536 C   0  0  0  0  0  0  0  0  0  0  0  0
  146.4234  136.0275  152.3101 N   0  0  0  0  0  0  0  0  0  0  0  0
  145.3273  135.1133  152.0003 C   0  0  1  0  0  0  0  0  0  0  0  0
  144.5571  135.5097  150.7282 C   0  0  0  0  0  0  0  0  0  0  0  0
  144.1835  134.1790  150.0454 C   0  0  0  0  0  0  0  0  0  0  0  0
  144.6652  133.1227  150.9561 N   0  3  1  0  0  0  0  0  0  0  0  0
  144.9606  131.8019  150.3597 C   0  0  0  0  0  0  0  0  0  0  0  0
  145.3598  130.8179  151.4773 C   0  0  0  0  0  0  0  0  0  0  0  0
  146.5088  131.3733  152.3429 C   0  0  0  0  0  0  0  0  0  0  0  0
  146.1844  132.7889  152.8582 C   0  0  0  0  0  0  0  0  0  0  0  0
  145.8131  133.6981  151.6741 C   0  0  2  0  0  0  0  0  0  0  0  0
  148.2778  137.3010  152.7395 H   0  0  0  0  0  0  0  0  0  0  0  0
  149.7287  138.7980  154.4052 H   0  0  0  0  0  0  0  0  0  0  0  0
  149.9981  141.1346  155.1609 H   0  0  0  0  0  0  0  0  0  0  0  0
  148.1889  142.7945  154.6629 H   0  0  0  0  0  0  0  0  0  0  0  0
  145.9015  139.9605  152.7231 H   0  0  0  0  0  0  0  0  0  0  0  0
  147.3599  135.6949  152.1318 H   0  0  0  0  0  0  0  0  0  0  0  0
  144.6182  135.0717  152.8301 H   0  0  0  0  0  0  0  0  0  0  0  0
  143.6760  136.1052  150.9700 H   0  0  0  0  0  0  0  0  0  0  0  0
  145.1783  136.1038  150.0558 H   0  0  0  0  0  0  0  0  0  0  0  0
  143.1102  134.0836  149.8790 H   0  0  0  0  0  0  0  0  0  0  0  0
  144.6848  134.1005  149.0795 H   0  0  0  0  0  0  0  0  0  0  0  0
  144.0811  131.4337  149.8305 H   0  0  0  0  0  0  0  0  0  0  0  0
  145.7638  131.8952  149.6272 H   0  0  0  0  0  0  0  0  0  0  0  0
  144.4944  130.6227  152.1123 H   0  0  0  0  0  0  0  0  0  0  0  0
  145.6466  129.8583  151.0461 H   0  0  0  0  0  0  0  0  0  0  0  0
  146.7057  130.7041  153.1810 H   0  0  0  0  0  0  0  0  0  0  0  0
  147.4247  131.4045  151.7512 H   0  0  0  0  0  0  0  0  0  0  0  0
  145.3615  132.7465  153.5730 H   0  0  0  0  0  0  0  0  0  0  0  0
  147.0445  133.1920  153.3931 H   0  0  0  0  0  0  0  0  0  0  0  0
  146.6591  133.7597  150.9853 H   0  0  0  0  0  0  0  0  0  0  0  0
  143.9393  132.9857  151.6451 H   0  0  0  0  0  0  0  0  0  0  0  0
  1  2  2  0  0  0  0
  2  3  1  0  0  0  0
  2 10  1  0  0  0  0
  3  4  1  0  0  0  0
  3 20  1  0  0  0  0
  4  9  1  0  0  0  0
  4  5  2  0  0  0  0
  5  6  1  0  0  0  0
  5 21  1  0  0  0  0
  6  7  2  0  0  0  0
  6 22  1  0  0  0  0
  7  8  1  0  0  0  0
  7 23  1  0  0  0  0
  8  9  2  0  0  0  0
  9 24  1  0  0  0  0
 10 11  1  0  0  0  0
 10 25  1  0  0  0  0
 11 19  1  0  0  0  0
 11 12  1  0  0  0  0
 11 26  1  0  0  0  0
 12 13  1  0  0  0  0
 12 27  1  0  0  0  0
 12 28  1  0  0  0  0
 13 14  1  0  0  0  0
 13 29  1  0  0  0  0
 13 30  1  0  0  0  0
 14 19  1  0  0  0  0
 14 15  1  0  0  0  0
 14 40  1  0  0  0  0
 15 16  1  0  0  0  0
 15 31  1  0  0  0  0
 15 32  1  0  0  0  0
 16 17  1  0  0  0  0
 16 33  1  0  0  0  0
 16 34  1  0  0  0  0
 17 18  1  0  0  0  0
 17 35  1  0  0  0  0
 17 36  1  0  0  0  0
 18 19  1  0  0  0  0
 18 37  1  0  0  0  0
 18 38  1  0  0  0  0
 19 39  1  0  0  0  0
M  CHG  1  14   1
M  END
> <s_m_source_file>
AV-unprocessed.smi

> <i_m_source_file_index>
2072

> <i_lp_mmshare_version>
43012

> <i_f3d_flags>
0

> <s_epik_input>
W0NIMl0xW0NIMl1bQ0gyXVtDSDJdW0NASF0oTjEyKVtDQEBIXShbQ0gyXVtDSDJdMilbTkhdQyg9TylbTkhdYzNbY0hdW2NIXVtjSF1uW2NIXTM=

> <s_epik_cmdline>
J2VwaWtfcHl0aG9uJywgJy1waCcsICc3LjAnLCAnLXRuJywgJzgnLCAnLW1hJywgJzIwMCcsICctbWV0YWxfYmluZGluZycsICctaW1hZScsICc8aW5maWxlLm1hZT4nLCAnLW9tYWUnLCAnPG91dGZpbGUubWFlPic=

> <r_lp_tautomer_probability>
1

> <r_epik_Ionization_Penalty>
0.00482425

> <r_epik_Ionization_Penalty_Charging>
0.000974069

> <r_epik_Ionization_Penalty_Neutral>
0.00385018

> <r_epik_State_Penalty>
-0

> <r_epik_Charging_Adjusted_Penalty>
0.000974069

> <i_epik_Tot_Q>
1

> <i_epik_Tot_abs_Q>
1

> <r_epik_Metal_State_Penalty>
-0

> <b_epik_Metal_Only>
0

> <s_lp_Force_Field>
OPLS_2005

> <r_lp_Energy>
37.8914

> <b_lp_Chiralities_Consistent>
1

> <s_lp_Variant>
AV-unprocessed.smi:2072-6

> <Gold.Version>
5.8.1

> <Gold.Id.Protein>
6NUR|6NUR_protein|mol2

> <Gold.PLP.Fitness>
41.4449

> <Gold.PLP.PLP>
-30.4593

> <Gold.PLP.part.hbond>
-1.8123

> <Gold.PLP.part.metal>
0.0000

> <Gold.PLP.part.buried>
-1.0930

> <Gold.PLP.part.nonpolar>
-28.7340

> <Gold.PLP.part.repulsive>
0.4781

> <Gold.PLP.ligand.clash>
0.0000

> <Gold.PLP.ligand.torsion>
0.3076

> <Gold.PLP.Chemscore.Hbond>
1.8640

> <Gold.PLP.Chemscore.CHOScore>
2.0000

> <Gold.PLP.Chemscore.Metal>
0.0000

> <Gold.Chemscore.Hbonds>
donor molecule, donor type, donor heavy atom, donor atom, acceptor molecule, acceptor atom, score
      L1  H     3    20       P1  7948  0.99
      L1  H    10    25       P1  7948  0.86
      L1  C     7    23       P1  8028  1.00
      L1  C     9    24       P1 10175  1.00

> <Gold.PLP.Chemscore.Internal.Correction>
0.0088

> <Gold.Rescore>
     Score         DG    S(hbond)    S(metal)    S(lipo)     H(rot)  DE(clash)    DE(int)     intcor
     17.42     -19.37       1.87        0.00      87.15       1.00       0.41       1.54       ----

> <Gold.Chemscore.Fitness>
17.4183

> <Gold.Chemscore.DG>
-19.3729

> <Gold.Chemscore.ZeroCoef>
-5.4800

> <Gold.Chemscore.Hbond>
1.8730

> <Gold.Chemscore.Metal>
0.0000

> <Gold.Chemscore.Lipo>
87.1547

> <Gold.Chemscore.Internal_Hbond>
0.0000

> <Gold.Chemscore.DEClash>
0.4145

> <Gold.Chemscore.DEInternal>
1.5401

> <Gold.Chemscore.Rot>
1.0000

> <Gold.Chemscore.Internal.Correction>
   9.000000E+99

> <Gold.Chemscore.Hbonds>
donor molecule, donor type, donor heavy atom, donor atom, acceptor molecule, acceptor atom, score
      L1  H     3    20       P1  7948  0.89
      L1  H    10    25       P1  7948  0.85

> <Gold.Chemscore.Hbond.Weighted>
-6.2558

> <Gold.Chemscore.Metal.Weighted>
-0.0000

> <Gold.Chemscore.Lipo.Weighted>
-10.1971

> <Gold.Chemscore.Internal_Hbond.Weighted>
0.0000

> <Gold.Chemscore.DEClash.Weighted>
0.4145

> <Gold.Chemscore.DEInternal.Weighted>
1.5401

> <Gold.Chemscore.Rot.Weighted>
2.5600

> <Gold.Chemscore.Internal.Correction.Weighted>
   9.000000E+99

> <Gold.Protein.RotatedTorsions>
[ 6907 6896 6895 6894 ] final   40.14 input  -60.11 | X-H torsion
[ 7974 7965 7964 7962 ] final   52.56 input  175.53 | X-H torsion
[ 8008 7997 7996 7995 ] final -165.72 input   59.86 | X-H torsion
[ 10167 10162 10161 10158 ] final  -57.70 input  -65.29 | X-H torsion
[ 10718 10713 10712 10709 ] final  157.64 input   66.30 | X-H torsion
[ 10763 10752 10751 10750 ] final   62.55 input  -60.55 | X-H torsion
[ 11005 11000 10999 10996 ] final   60.64 input  -57.11 | X-H torsion

> <Gold.Protein.ActiveResidues>
 VAL166  LYS551  ARG553  GLY616  TRP617  ASP618  TYR619  PRO620  LYS621  CYS622 
 ASP623  PHE694  ASN695  SER759  ASP760  ASP761  ALA762  ILE779  LEU786  VAL792 
 PHE793  MET794  SER795  GLU796  ALA797  LYS798  CYS799  TRP800  GLU811  SER814 

> <Gold.Protein.RotatedAtoms>
  152.1786  134.8773  160.0528 H   0  0  0  0  0  0  0  0  0  0  0  0  # atno 6907 bound_to 6896
  151.9706  133.3719  159.4078 H   0  0  0  0  0  0  0  0  0  0  0  0  # atno 6908 bound_to 6896
  150.6913  134.4067  159.5187 H   0  0  0  0  0  0  0  0  0  0  0  0  # atno 6909 bound_to 6896
  145.9801  139.4233  143.0137 H   0  0  0  0  0  0  0  0  0  0  0  0  # atno 7974 bound_to 7965
  155.8537  140.0967  157.1658 H   0  0  0  0  0  0  0  0  0  0  0  0  # atno 8008 bound_to 7997
  154.3987  140.1378  156.3938 H   0  0  0  0  0  0  0  0  0  0  0  0  # atno 8009 bound_to 7997
  155.7933  140.3455  155.5364 H   0  0  0  0  0  0  0  0  0  0  0  0  # atno 8010 bound_to 7997
  140.6242  143.2431  151.5404 H   0  0  0  0  0  0  0  0  0  0  0  0  # atno 10167 bound_to 10162
  157.1887  131.0649  151.2091 H   0  0  0  0  0  0  0  0  0  0  0  0  # atno 10718 bound_to 10713
  152.9986  135.5461  154.6210 H   0  0  0  0  0  0  0  0  0  0  0  0  # atno 10763 bound_to 10752
  154.5510  135.2826  155.1011 H   0  0  0  0  0  0  0  0  0  0  0  0  # atno 10764 bound_to 10752
  154.2251  135.6443  153.5210 H   0  0  0  0  0  0  0  0  0  0  0  0  # atno 10765 bound_to 10752
  140.0217  134.6142  155.9630 H   0  0  0  0  0  0  0  0  0  0  0  0  # atno 11005 bound_to 11000
  145.7782  140.9867  143.1113 LP  0  0  0  0  0  0  0  0  0  0  0  0  # atno 17320 bound_to 7965
  144.6859  139.9532  143.7478 LP  0  0  0  0  0  0  0  0  0  0  0  0  # atno 17321 bound_to 7965
  139.5465  144.2507  152.1452 LP  0  0  0  0  0  0  0  0  0  0  0  0  # atno 17342 bound_to 10162
  140.1734  144.4914  150.6567 LP  0  0  0  0  0  0  0  0  0  0  0  0  # atno 17343 bound_to 10162
  157.3881  130.7267  149.6678 LP  0  0  0  0  0  0  0  0  0  0  0  0  # atno 17370 bound_to 10713
  155.9714  130.4154  150.4179 LP  0  0  0  0  0  0  0  0  0  0  0  0  # atno 17371 bound_to 10713
  141.1778  133.6542  156.4897 LP  0  0  0  0  0  0  0  0  0  0  0  0  # atno 17394 bound_to 11000
  140.4375  134.7045  157.4974 LP  0  0  0  0  0  0  0  0  0  0  0  0  # atno 17395 bound_to 11000

$$$$
