AV-unprocessed.smi:1695|AV-procd|sdf|6791|dock2
  -GOLD-   22720 7553D 1   1.00000     0.00000
 Structure written by MMmdl.
 51 53  0  0  0  0  0  0  0  0  2 V2000
  153.1803  142.6083  161.8512 C   0  0  0  0  0  0  0  0  0  0  0  0
  152.6337  142.3222  160.4635 C   0  0  0  0  0  0  0  0  0  0  0  0
  152.9852  141.1127  159.8229 C   0  0  0  0  0  0  0  0  0  0  0  0
  152.4963  140.8073  158.5340 C   0  0  0  0  0  0  0  0  0  0  0  0
  152.7039  139.6970  157.7340 N   0  0  0  0  0  0  0  0  0  0  0  0
  151.9788  139.9992  156.6615 C   0  0  0  0  0  0  0  0  0  0  0  0
  151.3178  141.1727  156.6748 N   0  0  0  0  0  0  0  0  0  0  0  0
  150.4585  141.6995  155.6305 C   0  0  0  0  0  0  0  0  0  0  0  0
  149.5217  140.6262  155.0419 C   0  0  2  0  0  0  0  0  0  0  0  0
  150.2097  139.9836  153.9879 O   0  0  0  0  0  0  0  0  0  0  0  0
  148.1943  141.1974  154.4953 C   0  0  0  0  0  0  0  0  0  0  0  0
  147.4986  142.0651  155.4796 N   0  3  1  0  0  0  0  0  0  0  0  0
  146.1107  142.4146  155.0753 C   0  0  0  0  0  0  0  0  0  0  0  0
  145.4829  143.4162  156.0581 C   0  0  0  0  0  0  0  0  0  0  0  0
  145.4955  142.8667  157.4974 C   0  0  2  0  0  0  0  0  0  0  0  0
  144.9195  143.8904  158.4850 C   0  0  0  0  0  0  0  0  0  0  0  0
  145.5427  145.0677  158.5768 N   0  0  0  0  0  0  0  0  0  0  0  0
  143.9261  143.6222  159.1582 O   0  0  0  0  0  0  0  0  0  0  0  0
  146.9390  142.4829  157.8746 C   0  0  0  0  0  0  0  0  0  0  0  0
  147.5384  141.5017  156.8535 C   0  0  0  0  0  0  0  0  0  0  0  0
  151.6384  141.7520  157.8984 C   0  0  0  0  0  0  0  0  0  0  0  0
  151.2841  142.9605  158.5244 C   0  0  0  0  0  0  0  0  0  0  0  0
  151.7828  143.2504  159.8118 C   0  0  0  0  0  0  0  0  0  0  0  0
  151.3955  144.5580  160.4793 C   0  0  0  0  0  0  0  0  0  0  0  0
  153.7702  141.7720  162.2273 H   0  0  0  0  0  0  0  0  0  0  0  0
  152.3666  142.7848  162.5548 H   0  0  0  0  0  0  0  0  0  0  0  0
  153.8213  143.4900  161.8338 H   0  0  0  0  0  0  0  0  0  0  0  0
  153.6347  140.4063  160.3187 H   0  0  0  0  0  0  0  0  0  0  0  0
  151.9178  139.3255  155.8192 H   0  0  0  0  0  0  0  0  0  0  0  0
  149.8822  142.5306  156.0391 H   0  0  0  0  0  0  0  0  0  0  0  0
  151.0938  142.1172  154.8479 H   0  0  0  0  0  0  0  0  0  0  0  0
  149.3268  139.8825  155.8139 H   0  0  0  0  0  0  0  0  0  0  0  0
  149.6965  140.0601  153.1977 H   0  0  0  0  0  0  0  0  0  0  0  0
  148.3568  141.7731  153.5835 H   0  0  0  0  0  0  0  0  0  0  0  0
  147.5514  140.3619  154.2138 H   0  0  0  0  0  0  0  0  0  0  0  0
  146.1029  142.8499  154.0769 H   0  0  0  0  0  0  0  0  0  0  0  0
  145.5045  141.5084  155.0272 H   0  0  0  0  0  0  0  0  0  0  0  0
  146.0302  144.3592  156.0061 H   0  0  0  0  0  0  0  0  0  0  0  0
  144.4597  143.6361  155.7495 H   0  0  0  0  0  0  0  0  0  0  0  0
  144.8790  141.9662  157.5285 H   0  0  0  0  0  0  0  0  0  0  0  0
  145.2019  145.7752  159.2114 H   0  0  0  0  0  0  0  0  0  0  0  0
  146.3570  145.2474  158.0069 H   0  0  0  0  0  0  0  0  0  0  0  0
  147.5669  143.3742  157.9265 H   0  0  0  0  0  0  0  0  0  0  0  0
  146.9603  142.0325  158.8678 H   0  0  0  0  0  0  0  0  0  0  0  0
  146.9977  140.5539  156.8760 H   0  0  0  0  0  0  0  0  0  0  0  0
  148.5704  141.2855  157.1332 H   0  0  0  0  0  0  0  0  0  0  0  0
  150.6336  143.6586  158.0189 H   0  0  0  0  0  0  0  0  0  0  0  0
  150.7902  145.1785  159.8182 H   0  0  0  0  0  0  0  0  0  0  0  0
  152.2840  145.1287  160.7501 H   0  0  0  0  0  0  0  0  0  0  0  0
  150.8173  144.3679  161.3836 H   0  0  0  0  0  0  0  0  0  0  0  0
  148.0232  142.9280  155.5144 H   0  0  0  0  0  0  0  0  0  0  0  0
  1  2  1  0  0  0  0
  1 25  1  0  0  0  0
  1 26  1  0  0  0  0
  1 27  1  0  0  0  0
  2 23  1  0  0  0  0
  2  3  2  0  0  0  0
  3  4  1  0  0  0  0
  3 28  1  0  0  0  0
  4 21  2  0  0  0  0
  4  5  1  0  0  0  0
  5  6  2  0  0  0  0
  6  7  1  0  0  0  0
  6 29  1  0  0  0  0
  7  8  1  0  0  0  0
  7 21  1  0  0  0  0
  8  9  1  0  0  0  0
  8 30  1  0  0  0  0
  8 31  1  0  0  0  0
  9 10  1  0  0  0  0
  9 11  1  0  0  0  0
  9 32  1  0  0  0  0
 10 33  1  0  0  0  0
 11 12  1  0  0  0  0
 11 34  1  0  0  0  0
 11 35  1  0  0  0  0
 12 20  1  0  0  0  0
 12 13  1  0  0  0  0
 12 51  1  0  0  0  0
 13 14  1  0  0  0  0
 13 36  1  0  0  0  0
 13 37  1  0  0  0  0
 14 15  1  0  0  0  0
 14 38  1  0  0  0  0
 14 39  1  0  0  0  0
 15 16  1  0  0  0  0
 15 19  1  0  0  0  0
 15 40  1  0  0  0  0
 16 17  1  0  0  0  0
 16 18  2  0  0  0  0
 17 41  1  0  0  0  0
 17 42  1  0  0  0  0
 19 20  1  0  0  0  0
 19 43  1  0  0  0  0
 19 44  1  0  0  0  0
 20 45  1  0  0  0  0
 20 46  1  0  0  0  0
 21 22  1  0  0  0  0
 22 23  2  0  0  0  0
 22 47  1  0  0  0  0
 23 24  1  0  0  0  0
 24 48  1  0  0  0  0
 24 49  1  0  0  0  0
 24 50  1  0  0  0  0
M  CHG  1  12   1
M  END
> <s_m_source_file>
AV-unprocessed.smi

> <i_m_source_file_index>
1695

> <i_lp_mmshare_version>
43012

> <i_f3d_flags>
0

> <s_epik_input>
W0NIM11jKFtjSF0xKWMoW0NIM10pW2NIXWMoYzEyKW4oW2NIXW4yKVtDSDJdW0NASF0oW09IXSlbQ0gyXU4zW0NIMl1bQ0gyXVtDSF0oQyg9TylbTkgyXSlbQ0gyXVtDSDJdMw==

> <s_epik_cmdline>
J2VwaWtfcHl0aG9uJywgJy1waCcsICc3LjAnLCAnLXRuJywgJzgnLCAnLW1hJywgJzIwMCcsICctbWV0YWxfYmluZGluZycsICctaW1hZScsICc8aW5maWxlLm1hZT4nLCAnLW9tYWUnLCAnPG91dGZpbGUubWFlPic=

> <r_epik_Ionization_Penalty>
0.113899

> <r_epik_Ionization_Penalty_Charging>
0.0258844

> <r_epik_Ionization_Penalty_Neutral>
0.0880147

> <r_epik_State_Penalty>
0.0974403

> <r_epik_Charging_Adjusted_Penalty>
0.123325

> <i_epik_Tot_Q>
1

> <i_epik_Tot_abs_Q>
1

> <r_epik_Metal_State_Penalty>
0.0851148

> <b_epik_Metal_Only>
0

> <s_lp_Force_Field>
OPLS_2005

> <r_lp_Energy>
21.0029

> <b_lp_Chiralities_Consistent>
1

> <s_lp_Variant>
AV-unprocessed.smi:1695-3

> <Gold.Version>
5.8.1

> <Gold.Id.Protein>
6NUR|6NUR_protein|mol2

> <Gold.PLP.Fitness>
63.8940

> <Gold.PLP.PLP>
-47.3548

> <Gold.PLP.part.hbond>
-5.0000

> <Gold.PLP.part.metal>
0.0000

> <Gold.PLP.part.buried>
-7.0395

> <Gold.PLP.part.nonpolar>
-35.0083

> <Gold.PLP.part.repulsive>
0.0789

> <Gold.PLP.ligand.clash>
0.0000

> <Gold.PLP.ligand.torsion>
0.7065

> <Gold.PLP.Chemscore.Hbond>
5.9200

> <Gold.PLP.Chemscore.CHOScore>
0.0000

> <Gold.PLP.Chemscore.Metal>
0.0000

> <Gold.Chemscore.Hbonds>
donor molecule, donor type, donor heavy atom, donor atom, acceptor molecule, acceptor atom, score
      L1  H    10    33       P1  7957  0.95
      L1  H    12    51       P1  8028  2.00
      L1  H    17    42       P1  8029  1.00
      P1  H  7989  7998       L1    10  0.88
      P1  H  7997  8010       L1     5  0.95

> <Gold.PLP.Chemscore.Internal.Correction>
0.1923

> <Gold.Rescore>
     Score         DG    S(hbond)    S(metal)    S(lipo)     H(rot)  DE(clash)    DE(int)     intcor
     22.28     -23.32       3.63        0.00     111.20       2.85       0.41       0.63       ----

> <Gold.Chemscore.Fitness>
22.2752

> <Gold.Chemscore.DG>
-23.3161

> <Gold.Chemscore.ZeroCoef>
-5.4800

> <Gold.Chemscore.Hbond>
3.6263

> <Gold.Chemscore.Metal>
0.0000

> <Gold.Chemscore.Lipo>
111.2049

> <Gold.Chemscore.Internal_Hbond>
0.0000

> <Gold.Chemscore.DEClash>
0.4142

> <Gold.Chemscore.DEInternal>
0.6267

> <Gold.Chemscore.Rot>
2.8464

> <Gold.Chemscore.Internal.Correction>
   9.000000E+99

> <Gold.Chemscore.Hbonds>
donor molecule, donor type, donor heavy atom, donor atom, acceptor molecule, acceptor atom, score
      L1  H    10    33       P1  7957  0.86
      L1  H    12    51       P1  8028  0.84
      L1  H    17    42       P1  8029  0.91
      P1  H  7989  7998       L1    10  0.14
      P1  H  7997  8010       L1     5  0.07

> <Gold.Chemscore.Hbond.Weighted>
-12.1118

> <Gold.Chemscore.Metal.Weighted>
-0.0000

> <Gold.Chemscore.Lipo.Weighted>
-13.0110

> <Gold.Chemscore.Internal_Hbond.Weighted>
0.0000

> <Gold.Chemscore.DEClash.Weighted>
0.4142

> <Gold.Chemscore.DEInternal.Weighted>
0.6267

> <Gold.Chemscore.Rot.Weighted>
7.2867

> <Gold.Chemscore.Internal.Correction.Weighted>
   9.000000E+99

> <Gold.Protein.RotatedTorsions>
[ 6907 6896 6895 6894 ] final -174.33 input  -60.11 | X-H torsion
[ 7974 7965 7964 7962 ] final  -71.37 input  175.53 | X-H torsion
[ 8008 7997 7996 7995 ] final   36.76 input   59.86 | X-H torsion
[ 10167 10162 10161 10158 ] final  -64.87 input  -65.29 | X-H torsion
[ 10718 10713 10712 10709 ] final   41.16 input   66.30 | X-H torsion
[ 10763 10752 10751 10750 ] final   69.11 input  -60.55 | X-H torsion
[ 11005 11000 10999 10996 ] final   43.24 input  -57.11 | X-H torsion

> <Gold.Protein.ActiveResidues>
 VAL166  LYS551  ARG553  GLY616  TRP617  ASP618  TYR619  PRO620  LYS621  CYS622 
 ASP623  PHE694  ASN695  SER759  ASP760  ASP761  ALA762  ILE779  LEU786  VAL792 
 PHE793  MET794  SER795  GLU796  ALA797  LYS798  CYS799  TRP800  GLU811  SER814 

> <Gold.Protein.RotatedAtoms>
  151.5706  133.3390  159.2988 H   0  0  0  0  0  0  0  0  0  0  0  0  # atno 6907 bound_to 6896
  150.8369  134.7649  159.6912 H   0  0  0  0  0  0  0  0  0  0  0  0  # atno 6908 bound_to 6896
  152.4444  134.5531  159.9924 H   0  0  0  0  0  0  0  0  0  0  0  0  # atno 6909 bound_to 6896
  145.6790  140.9194  143.0842 H   0  0  0  0  0  0  0  0  0  0  0  0  # atno 7974 bound_to 7965
  155.1927  140.3309  155.4356 H   0  0  0  0  0  0  0  0  0  0  0  0  # atno 8008 bound_to 7997
  156.2436  140.1907  156.6969 H   0  0  0  0  0  0  0  0  0  0  0  0  # atno 8009 bound_to 7997
  154.6195  140.0597  156.9583 H   0  0  0  0  0  0  0  0  0  0  0  0  # atno 8010 bound_to 7997
  140.5770  143.2323  151.6422 H   0  0  0  0  0  0  0  0  0  0  0  0  # atno 10167 bound_to 10162
  157.3904  130.7803  149.7265 H   0  0  0  0  0  0  0  0  0  0  0  0  # atno 10718 bound_to 10713
  153.0270  135.5223  154.7237 H   0  0  0  0  0  0  0  0  0  0  0  0  # atno 10763 bound_to 10752
  154.6285  135.2897  155.0246 H   0  0  0  0  0  0  0  0  0  0  0  0  # atno 10764 bound_to 10752
  154.1207  135.6608  153.4955 H   0  0  0  0  0  0  0  0  0  0  0  0  # atno 10765 bound_to 10752
  140.1663  134.4278  155.8285 H   0  0  0  0  0  0  0  0  0  0  0  0  # atno 11005 bound_to 11000
  144.7032  139.8671  143.7438 LP  0  0  0  0  0  0  0  0  0  0  0  0  # atno 17320 bound_to 7965
  146.0981  139.3974  143.0364 LP  0  0  0  0  0  0  0  0  0  0  0  0  # atno 17321 bound_to 7965
  139.5148  144.3399  152.0750 LP  0  0  0  0  0  0  0  0  0  0  0  0  # atno 17342 bound_to 10162
  140.2543  144.4135  150.6209 LP  0  0  0  0  0  0  0  0  0  0  0  0  # atno 17343 bound_to 10162
  155.9797  130.4037  150.3572 LP  0  0  0  0  0  0  0  0  0  0  0  0  # atno 17370 bound_to 10713
  157.1688  131.0363  151.2805 LP  0  0  0  0  0  0  0  0  0  0  0  0  # atno 17371 bound_to 10713
  141.2214  133.6936  156.7684 LP  0  0  0  0  0  0  0  0  0  0  0  0  # atno 17394 bound_to 11000
  140.2430  134.8599  157.3592 LP  0  0  0  0  0  0  0  0  0  0  0  0  # atno 17395 bound_to 11000

$$$$
