AV-unprocessed.smi:240|AV-procd|sdf|1837|dock3
  -GOLD-   2262020443D 1   1.00000     0.00000
 Structure written by MMmdl.
 55 59  0  0  0  0  0  0  0  0  1 V2000
  150.0547  143.7001  157.9682 O   0  0  0  0  0  0  0  0  0  0  0  0
  151.2651  143.1151  157.5203 C   0  0  1  0  0  0  0  0  0  0  0  0
  152.3383  143.3363  158.5881 C   0  0  0  0  0  0  0  0  0  0  0  0
  152.1729  142.1821  159.5814 C   0  0  0  0  0  0  0  0  0  0  0  0
  151.2735  141.1470  158.8913 C   0  0  0  0  0  0  0  0  0  0  0  0
  151.1412  141.5806  157.4157 C   0  0  1  0  0  0  0  0  0  0  0  0
  149.8960  141.0568  156.6215 C   0  0  1  0  0  0  0  0  0  0  0  0
  149.7430  141.8357  155.2872 C   0  0  0  0  0  0  0  0  0  0  0  0
  148.6375  141.3577  154.5315 O   0  0  0  0  0  0  0  0  0  0  0  0
  148.8034  139.9981  154.1623 C   0  0  0  0  0  0  0  0  0  0  0  0
  148.8707  139.1556  155.4393 C   0  0  0  0  0  0  0  0  0  0  0  0
  149.9539  139.6186  156.3021 N   0  0  0  0  0  0  0  0  0  0  0  0
  150.1052  138.7572  157.3306 C   0  0  0  0  0  0  0  0  0  0  0  0
  151.3578  138.6020  157.8253 N   0  0  0  0  0  0  0  0  0  0  0  0
  151.5705  137.7761  158.8542 C   0  0  0  0  0  0  0  0  0  0  0  0
  150.6888  137.0269  159.5199 N   0  0  0  0  0  0  0  0  0  0  0  0
  149.4307  137.1702  159.0117 C   0  0  0  0  0  0  0  0  0  0  0  0
  149.0533  137.9992  157.9192 C   0  0  0  0  0  0  0  0  0  0  0  0
  147.6895  137.8801  157.6810 N   0  0  0  0  0  0  0  0  0  0  0  0
  147.2811  137.0384  158.5910 C   0  0  0  0  0  0  0  0  0  0  0  0
  148.2587  136.5736  159.4418 N   0  0  0  0  0  0  0  0  0  0  0  0
  148.0860  135.6449  160.5478 C   0  0  0  0  0  0  0  0  0  0  0  0
  147.1297  136.1576  161.6547 C   0  0  2  0  0  0  0  0  0  0  0  0
  147.6685  137.3384  162.2205 O   0  0  0  0  0  0  0  0  0  0  0  0
  146.8602  135.1461  162.7707 C   0  0  0  0  0  0  0  0  0  0  0  0
  145.5560  134.5011  162.3279 C   0  0  0  0  0  0  0  0  0  0  0  0
  144.8252  135.6102  161.8346 O   0  0  0  0  0  0  0  0  0  0  0  0
  145.7186  136.4381  161.0979 C   0  0  0  0  0  0  0  0  0  0  0  0
  149.4971  143.8488  157.2198 H   0  0  0  0  0  0  0  0  0  0  0  0
  151.5546  143.5743  156.5745 H   0  0  0  0  0  0  0  0  0  0  0  0
  153.3231  143.2684  158.1239 H   0  0  0  0  0  0  0  0  0  0  0  0
  152.2738  144.3156  159.0645 H   0  0  0  0  0  0  0  0  0  0  0  0
  153.1431  141.7568  159.8411 H   0  0  0  0  0  0  0  0  0  0  0  0
  151.7093  142.5266  160.5066 H   0  0  0  0  0  0  0  0  0  0  0  0
  151.6919  140.1474  159.0003 H   0  0  0  0  0  0  0  0  0  0  0  0
  150.2944  141.1502  159.3713 H   0  0  0  0  0  0  0  0  0  0  0  0
  152.0343  141.2308  156.8945 H   0  0  0  0  0  0  0  0  0  0  0  0
  148.9991  141.2391  157.2142 H   0  0  0  0  0  0  0  0  0  0  0  0
  149.5637  142.8946  155.4675 H   0  0  0  0  0  0  0  0  0  0  0  0
  150.6546  141.7678  154.6909 H   0  0  0  0  0  0  0  0  0  0  0  0
  147.9570  139.6882  153.5494 H   0  0  0  0  0  0  0  0  0  0  0  0
  149.7031  139.8717  153.5580 H   0  0  0  0  0  0  0  0  0  0  0  0
  147.9200  139.2204  155.9705 H   0  0  0  0  0  0  0  0  0  0  0  0
  149.0219  138.1072  155.1768 H   0  0  0  0  0  0  0  0  0  0  0  0
  152.5927  137.7100  159.1963 H   0  0  0  0  0  0  0  0  0  0  0  0
  146.2465  136.7382  158.6729 H   0  0  0  0  0  0  0  0  0  0  0  0
  147.7244  134.6981  160.1442 H   0  0  0  0  0  0  0  0  0  0  0  0
  149.0694  135.4370  160.9717 H   0  0  0  0  0  0  0  0  0  0  0  0
  146.9586  137.9374  162.3946 H   0  0  0  0  0  0  0  0  0  0  0  0
  147.6560  134.4210  162.9334 H   0  0  0  0  0  0  0  0  0  0  0  0
  146.6900  135.6560  163.7205 H   0  0  0  0  0  0  0  0  0  0  0  0
  145.7256  133.7797  161.5271 H   0  0  0  0  0  0  0  0  0  0  0  0
  145.0322  134.0019  163.1434 H   0  0  0  0  0  0  0  0  0  0  0  0
  145.4194  137.4829  161.1927 H   0  0  0  0  0  0  0  0  0  0  0  0
  145.6475  136.1753  160.0414 H   0  0  0  0  0  0  0  0  0  0  0  0
  1  2  1  0  0  0  0
  1 29  1  0  0  0  0
  2  6  1  0  0  0  0
  2  3  1  0  0  0  0
  2 30  1  0  0  0  0
  3  4  1  0  0  0  0
  3 31  1  0  0  0  0
  3 32  1  0  0  0  0
  4  5  1  0  0  0  0
  4 33  1  0  0  0  0
  4 34  1  0  0  0  0
  5  6  1  0  0  0  0
  5 35  1  0  0  0  0
  5 36  1  0  0  0  0
  6  7  1  0  0  0  0
  6 37  1  0  0  0  0
  7 12  1  0  0  0  0
  7  8  1  0  0  0  0
  7 38  1  0  0  0  0
  8  9  1  0  0  0  0
  8 39  1  0  0  0  0
  8 40  1  0  0  0  0
  9 10  1  0  0  0  0
 10 11  1  0  0  0  0
 10 41  1  0  0  0  0
 10 42  1  0  0  0  0
 11 12  1  0  0  0  0
 11 43  1  0  0  0  0
 11 44  1  0  0  0  0
 12 13  1  0  0  0  0
 13 18  1  0  0  0  0
 13 14  2  0  0  0  0
 14 15  1  0  0  0  0
 15 16  2  0  0  0  0
 15 45  1  0  0  0  0
 16 17  1  0  0  0  0
 17 21  1  0  0  0  0
 17 18  2  0  0  0  0
 18 19  1  0  0  0  0
 19 20  2  0  0  0  0
 20 21  1  0  0  0  0
 20 46  1  0  0  0  0
 21 22  1  0  0  0  0
 22 23  1  0  0  0  0
 22 47  1  0  0  0  0
 22 48  1  0  0  0  0
 23 28  1  0  0  0  0
 23 24  1  0  0  0  0
 23 25  1  0  0  0  0
 24 49  1  0  0  0  0
 25 26  1  0  0  0  0
 25 50  1  0  0  0  0
 25 51  1  0  0  0  0
 26 27  1  0  0  0  0
 26 52  1  0  0  0  0
 26 53  1  0  0  0  0
 27 28  1  0  0  0  0
 28 54  1  0  0  0  0
 28 55  1  0  0  0  0
M  END
> <s_m_source_file>
AV-unprocessed.smi

> <i_m_source_file_index>
240

> <i_lp_mmshare_version>
43012

> <i_f3d_flags>
0

> <s_epik_input>
W09IXVtDQEBIXTFbQ0gyXVtDSDJdW0NIMl1bQ0BIXTFbQ0BASF0yW0NIMl1PW0NIMl1bQ0gyXU4yYyhuW2NIXW4zKWMoYzM0KW5bY0hdbjRbQ0gyXVtDQEBdNShbT0hdKVtDSDJdW0NIMl1PW0NIMl01

> <s_epik_cmdline>
J2VwaWtfcHl0aG9uJywgJy1waCcsICc3LjAnLCAnLXRuJywgJzgnLCAnLW1hJywgJzIwMCcsICctbWV0YWxfYmluZGluZycsICctaW1hZScsICc8aW5maWxlLm1hZT4nLCAnLW9tYWUnLCAnPG91dGZpbGUubWFlPic=

> <r_lp_tautomer_probability>
1

> <r_epik_Ionization_Penalty>
0.000130618

> <r_epik_Ionization_Penalty_Charging>
0

> <r_epik_Ionization_Penalty_Neutral>
0.000130618

> <r_epik_State_Penalty>
-0

> <r_epik_Charging_Adjusted_Penalty>
0

> <i_epik_Tot_Q>
0

> <i_epik_Tot_abs_Q>
0

> <r_epik_Metal_State_Penalty>
-0

> <b_epik_Metal_Only>
0

> <s_lp_Force_Field>
OPLS_2005

> <r_lp_Energy>
64.0442

> <b_lp_Chiralities_Consistent>
1

> <s_lp_Variant>
AV-unprocessed.smi:240-14

> <Gold.Version>
5.8.1

> <Gold.Id.Protein>
6NUR|6NUR_protein|mol2

> <Gold.PLP.Fitness>
51.9344

> <Gold.PLP.PLP>
-44.6892

> <Gold.PLP.part.hbond>
-4.1683

> <Gold.PLP.part.metal>
0.0000

> <Gold.PLP.part.buried>
-4.3608

> <Gold.PLP.part.nonpolar>
-35.9834

> <Gold.PLP.part.repulsive>
0.1425

> <Gold.PLP.ligand.clash>
0.2789

> <Gold.PLP.ligand.torsion>
0.8053

> <Gold.PLP.Chemscore.Hbond>
2.9600

> <Gold.PLP.Chemscore.CHOScore>
0.0000

> <Gold.PLP.Chemscore.Metal>
0.0000

> <Gold.Chemscore.Hbonds>
donor molecule, donor type, donor heavy atom, donor atom, acceptor molecule, acceptor atom, score
      L1  H     1    29       P1  8028  1.00
      P1  H  6896  6909       L1    16  0.88
      P1  H  6931  6943       L1    24  0.86

> <Gold.PLP.Chemscore.Internal.Correction>
0.2546

> <Gold.Rescore>
     Score         DG    S(hbond)    S(metal)    S(lipo)     H(rot)  DE(clash)    DE(int)     intcor
     11.52     -16.55       1.96        0.00     104.30       3.00       0.36       4.67       ----

> <Gold.Chemscore.Fitness>
11.5221

> <Gold.Chemscore.DG>
-16.5505

> <Gold.Chemscore.ZeroCoef>
-5.4800

> <Gold.Chemscore.Hbond>
1.9632

> <Gold.Chemscore.Metal>
0.0000

> <Gold.Chemscore.Lipo>
104.3020

> <Gold.Chemscore.Internal_Hbond>
0.0000

> <Gold.Chemscore.DEClash>
0.3569

> <Gold.Chemscore.DEInternal>
4.6715

> <Gold.Chemscore.Rot>
3.0039

> <Gold.Chemscore.Internal.Correction>
   9.000000E+99

> <Gold.Chemscore.Hbonds>
donor molecule, donor type, donor heavy atom, donor atom, acceptor molecule, acceptor atom, score
      L1  H     1    29       P1  8028  0.59
      P1  H  6896  6909       L1    16  0.64
      P1  H  6931  6943       L1    24  0.51

> <Gold.Chemscore.Hbond.Weighted>
-6.5571

> <Gold.Chemscore.Metal.Weighted>
-0.0000

> <Gold.Chemscore.Lipo.Weighted>
-12.2033

> <Gold.Chemscore.Internal_Hbond.Weighted>
0.0000

> <Gold.Chemscore.DEClash.Weighted>
0.3569

> <Gold.Chemscore.DEInternal.Weighted>
4.6715

> <Gold.Chemscore.Rot.Weighted>
7.6899

> <Gold.Chemscore.Internal.Correction.Weighted>
   9.000000E+99

> <Gold.Protein.RotatedTorsions>
[ 6907 6896 6895 6894 ] final  117.22 input  -60.11 | X-H torsion
[ 7974 7965 7964 7962 ] final   55.45 input  175.53 | X-H torsion
[ 8008 7997 7996 7995 ] final  -63.56 input   59.86 | X-H torsion
[ 10167 10162 10161 10158 ] final  -19.28 input  -65.29 | X-H torsion
[ 10718 10713 10712 10709 ] final  121.02 input   66.30 | X-H torsion
[ 10763 10752 10751 10750 ] final   86.06 input  -60.55 | X-H torsion
[ 11005 11000 10999 10996 ] final  141.55 input  -57.11 | X-H torsion

> <Gold.Protein.ActiveResidues>
 VAL166  LYS551  ARG553  GLY616  TRP617  ASP618  TYR619  PRO620  LYS621  CYS622 
 ASP623  PHE694  ASN695  SER759  ASP760  ASP761  ALA762  ILE779  LEU786  VAL792 
 PHE793  MET794  SER795  GLU796  ALA797  LYS798  CYS799  TRP800  GLU811  SER814 

> <Gold.Protein.RotatedAtoms>
  152.4626  133.7854  159.6873 H   0  0  0  0  0  0  0  0  0  0  0  0  # atno 6907 bound_to 6896
  150.8576  133.7681  159.3009 H   0  0  0  0  0  0  0  0  0  0  0  0  # atno 6908 bound_to 6896
  151.5257  135.1071  159.9942 H   0  0  0  0  0  0  0  0  0  0  0  0  # atno 6909 bound_to 6896
  145.9503  139.3966  143.0310 H   0  0  0  0  0  0  0  0  0  0  0  0  # atno 7974 bound_to 7965
  154.4561  140.0972  156.6761 H   0  0  0  0  0  0  0  0  0  0  0  0  # atno 8008 bound_to 7997
  155.5134  140.3477  155.4374 H   0  0  0  0  0  0  0  0  0  0  0  0  # atno 8009 bound_to 7997
  156.0780  140.1366  156.9736 H   0  0  0  0  0  0  0  0  0  0  0  0  # atno 8010 bound_to 7997
  140.7267  143.4834  151.0087 H   0  0  0  0  0  0  0  0  0  0  0  0  # atno 10167 bound_to 10162
  157.5848  131.1071  150.8116 H   0  0  0  0  0  0  0  0  0  0  0  0  # atno 10718 bound_to 10713
  153.1534  135.4594  154.9670 H   0  0  0  0  0  0  0  0  0  0  0  0  # atno 10763 bound_to 10752
  154.7843  135.3198  154.7924 H   0  0  0  0  0  0  0  0  0  0  0  0  # atno 10764 bound_to 10752
  153.8425  135.6929  153.4855 H   0  0  0  0  0  0  0  0  0  0  0  0  # atno 10765 bound_to 10752
  140.0410  134.9305  157.0843 H   0  0  0  0  0  0  0  0  0  0  0  0  # atno 11005 bound_to 11000
  145.8180  140.9693  143.0913 LP  0  0  0  0  0  0  0  0  0  0  0  0  # atno 17320 bound_to 7965
  144.6794  140.0006  143.7484 LP  0  0  0  0  0  0  0  0  0  0  0  0  # atno 17321 bound_to 7965
  139.8534  143.7408  152.3177 LP  0  0  0  0  0  0  0  0  0  0  0  0  # atno 17342 bound_to 10162
  139.7598  144.7510  151.0380 LP  0  0  0  0  0  0  0  0  0  0  0  0  # atno 17343 bound_to 10162
  156.8552  130.5094  149.5308 LP  0  0  0  0  0  0  0  0  0  0  0  0  # atno 17370 bound_to 10713
  156.0897  130.5886  150.9710 LP  0  0  0  0  0  0  0  0  0  0  0  0  # atno 17371 bound_to 10713
  140.4069  134.2023  155.7163 LP  0  0  0  0  0  0  0  0  0  0  0  0  # atno 17394 bound_to 11000
  141.1883  133.8263  157.1000 LP  0  0  0  0  0  0  0  0  0  0  0  0  # atno 17395 bound_to 11000

$$$$
