AV-unprocessed.smi:1484|AV-procd|sdf|6000|dock5
  -GOLD-   22720 6 93D 1   1.00000     0.00000
 Structure written by MMmdl.
 38 39  0  0  0  0  0  0  0  0  1 V2000
  145.9234  129.7240  152.0985 C   0  0  0  0  0  0  0  0  0  0  0  0
  145.6577  131.2347  152.0443 C   0  0  1  0  0  0  0  0  0  0  0  0
  146.8611  131.9992  151.4602 C   0  0  0  0  0  0  0  0  0  0  0  0
  146.5968  133.5124  151.3973 C   0  0  0  0  0  0  0  0  0  0  0  0
  145.3081  133.8284  150.6165 C   0  0  0  0  0  0  0  0  0  0  0  0
  144.0889  133.0722  151.1789 C   0  0  2  0  0  0  0  0  0  0  0  0
  143.7386  133.6017  152.4948 N   0  0  0  0  0  0  0  0  0  0  0  0
  143.7284  134.8971  152.8422 C   0  0  0  0  0  0  0  0  0  0  0  0
  144.1011  135.8050  152.0997 O   0  0  0  0  0  0  0  0  0  0  0  0
  143.1992  135.2120  154.2440 C   0  0  0  0  0  0  0  0  0  0  0  0
  142.1103  136.1953  154.1822 N   0  0  0  0  0  0  0  0  0  0  0  0
  142.5195  137.4975  154.4312 N   0  0  0  0  0  0  0  0  0  0  0  0
  141.6539  138.4534  154.4536 C   0  0  0  0  0  0  0  0  0  0  0  0
  142.1033  139.7250  154.7113 O   0  0  0  0  0  0  0  0  0  0  0  0
  140.2508  138.1975  154.2150 C   0  0  0  0  0  0  0  0  0  0  0  0
  139.8617  136.9274  153.9691 C   0  0  0  0  0  0  0  0  0  0  0  0
  140.8167  135.8178  153.9429 C   0  0  0  0  0  0  0  0  0  0  0  0
  140.4864  134.6514  153.7317 O   0  0  0  0  0  0  0  0  0  0  0  0
  144.3786  131.5548  151.2424 C   0  0  0  0  0  0  0  0  0  0  0  0
  142.5985  139.9757  153.9468 H   0  0  0  0  0  0  0  0  0  0  0  0
  146.0863  129.3129  151.1017 H   0  0  0  0  0  0  0  0  0  0  0  0
  145.0813  129.1941  152.5444 H   0  0  0  0  0  0  0  0  0  0  0  0
  146.8061  129.5027  152.6991 H   0  0  0  0  0  0  0  0  0  0  0  0
  145.5099  131.5715  153.0716 H   0  0  0  0  0  0  0  0  0  0  0  0
  147.7511  131.8095  152.0612 H   0  0  0  0  0  0  0  0  0  0  0  0
  147.0814  131.6286  150.4582 H   0  0  0  0  0  0  0  0  0  0  0  0
  146.5246  133.9125  152.4093 H   0  0  0  0  0  0  0  0  0  0  0  0
  147.4439  134.0153  150.9301 H   0  0  0  0  0  0  0  0  0  0  0  0
  145.1218  134.9032  150.6212 H   0  0  0  0  0  0  0  0  0  0  0  0
  145.4493  133.5505  149.5713 H   0  0  0  0  0  0  0  0  0  0  0  0
  143.2430  133.2434  150.5107 H   0  0  0  0  0  0  0  0  0  0  0  0
  143.4207  132.9313  153.1795 H   0  0  0  0  0  0  0  0  0  0  0  0
  142.8517  134.2942  154.7226 H   0  0  0  0  0  0  0  0  0  0  0  0
  144.0205  135.5703  154.8669 H   0  0  0  0  0  0  0  0  0  0  0  0
  139.5385  139.0093  154.2345 H   0  0  0  0  0  0  0  0  0  0  0  0
  138.8168  136.7224  153.7888 H   0  0  0  0  0  0  0  0  0  0  0  0
  144.4860  131.1727  150.2262 H   0  0  0  0  0  0  0  0  0  0  0  0
  143.5274  131.0235  151.6694 H   0  0  0  0  0  0  0  0  0  0  0  0
  1  2  1  0  0  0  0
  1 21  1  0  0  0  0
  1 22  1  0  0  0  0
  1 23  1  0  0  0  0
  2 19  1  0  0  0  0
  2  3  1  0  0  0  0
  2 24  1  0  0  0  0
  3  4  1  0  0  0  0
  3 25  1  0  0  0  0
  3 26  1  0  0  0  0
  4  5  1  0  0  0  0
  4 27  1  0  0  0  0
  4 28  1  0  0  0  0
  5  6  1  0  0  0  0
  5 29  1  0  0  0  0
  5 30  1  0  0  0  0
  6  7  1  0  0  0  0
  6 19  1  0  0  0  0
  6 31  1  0  0  0  0
  7  8  1  0  0  0  0
  7 32  1  0  0  0  0
  8  9  2  0  0  0  0
  8 10  1  0  0  0  0
 10 33  1  0  0  0  0
 10 34  1  0  0  0  0
 10 11  1  0  0  0  0
 11 12  1  0  0  0  0
 11 17  1  0  0  0  0
 12 13  2  0  0  0  0
 13 14  1  0  0  0  0
 13 15  1  0  0  0  0
 14 20  1  0  0  0  0
 15 35  1  0  0  0  0
 15 16  2  0  0  0  0
 16 36  1  0  0  0  0
 16 17  1  0  0  0  0
 17 18  2  0  0  0  0
 19 37  1  0  0  0  0
 19 38  1  0  0  0  0
M  END
> <s_m_source_file>
AV-unprocessed.smi

> <i_m_source_file_index>
1484

> <i_lp_mmshare_version>
43012

> <i_f3d_flags>
0

> <s_epik_input>
W0NIM11bQ0BASF0xW0NIMl1bQ0gyXVtDSDJdW0NASF0oW0NIMl0xKVtOSF1DKD1PKVtDSDJdbjJbbkhdYyg9TylbY0hdW2NIXWMyPU8=

> <s_epik_cmdline>
J2VwaWtfcHl0aG9uJywgJy1waCcsICc3LjAnLCAnLXRuJywgJzgnLCAnLW1hJywgJzIwMCcsICctbWV0YWxfYmluZGluZycsICctaW1hZScsICc8aW5maWxlLm1hZT4nLCAnLW9tYWUnLCAnPG91dGZpbGUubWFlPic=

> <r_lp_tautomer_probability>
0.9996

> <r_epik_Ionization_Penalty>
2.10343

> <r_epik_Ionization_Penalty_Charging>
3.97871e-08

> <r_epik_Ionization_Penalty_Neutral>
2.10343

> <r_epik_State_Penalty>
1.67966

> <r_epik_Charging_Adjusted_Penalty>
1.67966

> <i_epik_Tot_Q>
0

> <i_epik_Tot_abs_Q>
0

> <r_epik_Metal_State_Penalty>
1.67966

> <b_epik_Metal_Only>
0

> <s_lp_Force_Field>
OPLS_2005

> <r_lp_Energy>
21.1153

> <b_lp_Chiralities_Consistent>
1

> <s_lp_Variant>
AV-unprocessed.smi:1484-8

> <Gold.Version>
5.8.1

> <Gold.Id.Protein>
6NUR|6NUR_protein|mol2

> <Gold.PLP.Fitness>
37.5973

> <Gold.PLP.PLP>
-31.7033

> <Gold.PLP.part.hbond>
-3.3972

> <Gold.PLP.part.metal>
0.0000

> <Gold.PLP.part.buried>
-3.5801

> <Gold.PLP.part.nonpolar>
-26.7646

> <Gold.PLP.part.repulsive>
0.4816

> <Gold.PLP.ligand.clash>
0.0000

> <Gold.PLP.ligand.torsion>
0.5966

> <Gold.PLP.Chemscore.Hbond>
2.3598

> <Gold.PLP.Chemscore.CHOScore>
0.0000

> <Gold.PLP.Chemscore.Metal>
0.0000

> <Gold.Chemscore.Hbonds>
donor molecule, donor type, donor heavy atom, donor atom, acceptor molecule, acceptor atom, score
      L1  H     7    32       P1 10957  0.80
      L1  H    14    20       P1 10175  1.00
      P1  H 10995 11001       L1    18  0.08
      P1  H 11000 11005       L1    18  0.65

> <Gold.PLP.Chemscore.Internal.Correction>
0.0079

> <Gold.Rescore>
     Score         DG    S(hbond)    S(metal)    S(lipo)     H(rot)  DE(clash)    DE(int)     intcor
     14.52     -16.73       2.65        0.00      69.57       2.24       0.23       1.97       ----

> <Gold.Chemscore.Fitness>
14.5158

> <Gold.Chemscore.DG>
-16.7253

> <Gold.Chemscore.ZeroCoef>
-5.4800

> <Gold.Chemscore.Hbond>
2.6483

> <Gold.Chemscore.Metal>
0.0000

> <Gold.Chemscore.Lipo>
69.5704

> <Gold.Chemscore.Internal_Hbond>
0.0000

> <Gold.Chemscore.DEClash>
0.2349

> <Gold.Chemscore.DEInternal>
1.9746

> <Gold.Chemscore.Rot>
2.2421

> <Gold.Chemscore.Internal.Correction>
   9.000000E+99

> <Gold.Chemscore.Hbonds>
donor molecule, donor type, donor heavy atom, donor atom, acceptor molecule, acceptor atom, score
      L1  H     7    32       P1 10957  0.47
      L1  H    14    20       P1 10175  0.99
      P1  H 10995 11001       L1    18  0.08
      P1  H 11000 11005       L1    18  0.05

> <Gold.Chemscore.Hbond.Weighted>
-8.8454

> <Gold.Chemscore.Metal.Weighted>
-0.0000

> <Gold.Chemscore.Lipo.Weighted>
-8.1397

> <Gold.Chemscore.Internal_Hbond.Weighted>
0.0000

> <Gold.Chemscore.DEClash.Weighted>
0.2349

> <Gold.Chemscore.DEInternal.Weighted>
1.9746

> <Gold.Chemscore.Rot.Weighted>
5.7398

> <Gold.Chemscore.Internal.Correction.Weighted>
   9.000000E+99

> <Gold.Protein.RotatedTorsions>
[ 6907 6896 6895 6894 ] final  116.67 input  -60.11 | X-H torsion
[ 7974 7965 7964 7962 ] final  -40.79 input  175.53 | X-H torsion
[ 8008 7997 7996 7995 ] final   53.24 input   59.86 | X-H torsion
[ 10167 10162 10161 10158 ] final   56.91 input  -65.29 | X-H torsion
[ 10718 10713 10712 10709 ] final  148.66 input   66.30 | X-H torsion
[ 10763 10752 10751 10750 ] final  -31.96 input  -60.55 | X-H torsion
[ 11005 11000 10999 10996 ] final   21.69 input  -57.11 | X-H torsion

> <Gold.Protein.ActiveResidues>
 VAL166  LYS551  ARG553  GLY616  TRP617  ASP618  TYR619  PRO620  LYS621  CYS622 
 ASP623  PHE694  ASN695  SER759  ASP760  ASP761  ALA762  ILE779  LEU786  VAL792 
 PHE793  MET794  SER795  GLU796  ALA797  LYS798  CYS799  TRP800  GLU811  SER814 

> <Gold.Protein.RotatedAtoms>
  152.4663  133.7930  159.6911 H   0  0  0  0  0  0  0  0  0  0  0  0  # atno 6907 bound_to 6896
  150.8629  133.7608  159.2993 H   0  0  0  0  0  0  0  0  0  0  0  0  # atno 6908 bound_to 6896
  151.5167  135.1069  159.9920 H   0  0  0  0  0  0  0  0  0  0  0  0  # atno 6909 bound_to 6896
  146.0272  140.6777  142.9150 H   0  0  0  0  0  0  0  0  0  0  0  0  # atno 7974 bound_to 7965
  155.4651  140.3463  155.4318 H   0  0  0  0  0  0  0  0  0  0  0  0  # atno 8008 bound_to 7997
  156.1136  140.1467  156.9333 H   0  0  0  0  0  0  0  0  0  0  0  0  # atno 8009 bound_to 7997
  154.4773  140.0881  156.7273 H   0  0  0  0  0  0  0  0  0  0  0  0  # atno 8010 bound_to 7997
  140.2037  144.3961  150.6518 H   0  0  0  0  0  0  0  0  0  0  0  0  # atno 10167 bound_to 10162
  157.3059  131.0879  151.1354 H   0  0  0  0  0  0  0  0  0  0  0  0  # atno 10718 bound_to 10713
  153.8059  135.6886  153.4848 H   0  0  0  0  0  0  0  0  0  0  0  0  # atno 10763 bound_to 10752
  153.1659  135.4561  154.9835 H   0  0  0  0  0  0  0  0  0  0  0  0  # atno 10764 bound_to 10752
  154.7987  135.3329  154.7543 H   0  0  0  0  0  0  0  0  0  0  0  0  # atno 10765 bound_to 10752
  140.3888  134.1841  155.7663 H   0  0  0  0  0  0  0  0  0  0  0  0  # atno 11005 bound_to 11000
  144.7014  140.3670  143.7153 LP  0  0  0  0  0  0  0  0  0  0  0  0  # atno 17320 bound_to 7965
  145.7099  139.1682  143.2544 LP  0  0  0  0  0  0  0  0  0  0  0  0  # atno 17321 bound_to 7965
  140.6372  143.2197  151.6368 LP  0  0  0  0  0  0  0  0  0  0  0  0  # atno 17342 bound_to 10162
  139.5207  144.3215  152.0906 LP  0  0  0  0  0  0  0  0  0  0  0  0  # atno 17343 bound_to 10162
  157.2695  130.6697  149.6012 LP  0  0  0  0  0  0  0  0  0  0  0  0  # atno 17370 bound_to 10713
  155.9674  130.4483  150.5616 LP  0  0  0  0  0  0  0  0  0  0  0  0  # atno 17371 bound_to 10713
  141.1898  133.8231  157.0943 LP  0  0  0  0  0  0  0  0  0  0  0  0  # atno 17394 bound_to 11000
  140.0422  134.9848  157.0983 LP  0  0  0  0  0  0  0  0  0  0  0  0  # atno 17395 bound_to 11000

$$$$
