AV-unprocessed.smi:610|AV-procd|sdf|3057|dock4
  -GOLD-   2262023583D 1   1.00000     0.00000
 Structure written by MMmdl.
 38 39  0  0  0  0  0  0  0  0  2 V2000
  145.1833  135.3679  154.0074 C   0  0  0  0  0  0  0  0  0  0  0  0
  145.8169  135.8410  152.6926 C   0  0  2  0  0  0  0  0  0  0  0  0
  146.4896  134.6706  151.9424 C   0  0  0  0  0  0  0  0  0  0  0  0
  145.5387  133.8529  151.1817 N   0  0  0  0  0  0  0  0  0  0  0  0
  145.7647  132.6245  150.6146 C   0  0  0  0  0  0  0  0  0  0  0  0
  144.5985  132.2610  149.9924 C   0  0  0  0  0  0  0  0  0  0  0  0
  143.7085  133.2780  150.2125 N   0  3  0  0  0  0  0  0  0  0  0  0
  144.2804  134.2426  150.9402 C   0  0  0  0  0  0  0  0  0  0  0  0
  146.7824  136.8992  152.9863 N   0  0  0  0  0  0  0  0  0  0  0  0
  146.5380  138.0219  153.6865 C   0  0  0  0  0  0  0  0  0  0  0  0
  145.4338  138.2616  154.1780 O   0  0  0  0  0  0  0  0  0  0  0  0
  147.6865  139.0496  153.8488 C   0  0  0  0  0  0  0  0  0  0  0  0
  148.9052  138.6189  153.1753 N   0  0  0  0  0  0  0  0  0  0  0  0
  147.2716  140.4421  153.3002 C   0  0  0  0  0  0  0  0  0  0  0  0
  147.3496  141.4284  154.4718 C   0  0  0  0  0  0  0  0  0  0  0  0
  147.2587  140.5672  155.7267 C   0  0  0  0  0  0  0  0  0  0  0  0
  148.0028  139.2885  155.3445 C   0  0  0  0  0  0  0  0  0  0  0  0
  144.4323  134.5983  153.8262 H   0  0  0  0  0  0  0  0  0  0  0  0
  144.6899  136.1918  154.5245 H   0  0  0  0  0  0  0  0  0  0  0  0
  145.9311  134.9505  154.6827 H   0  0  0  0  0  0  0  0  0  0  0  0
  145.0106  136.2404  152.0748 H   0  0  0  0  0  0  0  0  0  0  0  0
  147.2488  135.0389  151.2509 H   0  0  0  0  0  0  0  0  0  0  0  0
  146.9977  134.0094  152.6459 H   0  0  0  0  0  0  0  0  0  0  0  0
  146.7165  132.1182  150.6858 H   0  0  0  0  0  0  0  0  0  0  0  0
  144.3422  131.3788  149.4243 H   0  0  0  0  0  0  0  0  0  0  0  0
  143.8203  135.1612  151.2585 H   0  0  0  0  0  0  0  0  0  0  0  0
  147.7186  136.7743  152.6277 H   0  0  0  0  0  0  0  0  0  0  0  0
  148.8339  137.6369  152.9510 H   0  0  0  0  0  0  0  0  0  0  0  0
  148.9857  139.1039  152.2931 H   0  0  0  0  0  0  0  0  0  0  0  0
  147.9019  140.7803  152.4761 H   0  0  0  0  0  0  0  0  0  0  0  0
  146.2518  140.4322  152.9110 H   0  0  0  0  0  0  0  0  0  0  0  0
  148.3131  141.9397  154.4534 H   0  0  0  0  0  0  0  0  0  0  0  0
  146.5712  142.1909  154.4303 H   0  0  0  0  0  0  0  0  0  0  0  0
  147.6859  141.0554  156.6029 H   0  0  0  0  0  0  0  0  0  0  0  0
  146.2148  140.3408  155.9465 H   0  0  0  0  0  0  0  0  0  0  0  0
  147.7182  138.4534  155.9868 H   0  0  0  0  0  0  0  0  0  0  0  0
  149.0721  139.4470  155.4968 H   0  0  0  0  0  0  0  0  0  0  0  0
  142.7551  133.3005  149.8727 H   0  0  0  0  0  0  0  0  0  0  0  0
  1  2  1  0  0  0  0
  1 18  1  0  0  0  0
  1 19  1  0  0  0  0
  1 20  1  0  0  0  0
  2  3  1  0  0  0  0
  2  9  1  0  0  0  0
  2 21  1  0  0  0  0
  3  4  1  0  0  0  0
  3 22  1  0  0  0  0
  3 23  1  0  0  0  0
  4  8  1  0  0  0  0
  4  5  1  0  0  0  0
  5  6  2  0  0  0  0
  5 24  1  0  0  0  0
  6  7  1  0  0  0  0
  6 25  1  0  0  0  0
  7  8  2  0  0  0  0
  7 38  1  0  0  0  0
  8 26  1  0  0  0  0
  9 10  1  0  0  0  0
  9 27  1  0  0  0  0
 10 11  2  0  0  0  0
 10 12  1  0  0  0  0
 12 17  1  0  0  0  0
 12 13  1  0  0  0  0
 12 14  1  0  0  0  0
 13 28  1  0  0  0  0
 13 29  1  0  0  0  0
 14 15  1  0  0  0  0
 14 30  1  0  0  0  0
 14 31  1  0  0  0  0
 15 16  1  0  0  0  0
 15 32  1  0  0  0  0
 15 33  1  0  0  0  0
 16 17  1  0  0  0  0
 16 34  1  0  0  0  0
 16 35  1  0  0  0  0
 17 36  1  0  0  0  0
 17 37  1  0  0  0  0
M  CHG  1   7   1
M  END
> <s_m_source_file>
AV-unprocessed.smi

> <i_m_source_file_index>
610

> <i_lp_mmshare_version>
43012

> <i_f3d_flags>
0

> <s_epik_input>
W2NIXTFuW2NIXVtjSF1uMVtDSDJdW0NAQEhdKFtDSDNdKVtOSF1DKD1PKUMyKFtOSDJdKVtDSDJdW0NIMl1bQ0gyXVtDSDJdMg==

> <s_epik_cmdline>
J2VwaWtfcHl0aG9uJywgJy1waCcsICc3LjAnLCAnLXRuJywgJzgnLCAnLW1hJywgJzIwMCcsICctbWV0YWxfYmluZGluZycsICctaW1hZScsICc8aW5maWxlLm1hZT4nLCAnLW9tYWUnLCAnPG91dGZpbGUubWFlPic=

> <r_epik_Ionization_Penalty>
1.50287

> <r_epik_Ionization_Penalty_Charging>
0

> <r_epik_Ionization_Penalty_Neutral>
1.50287

> <r_epik_State_Penalty>
1.57152

> <r_epik_Charging_Adjusted_Penalty>
1.57152

> <i_epik_Tot_Q>
1

> <i_epik_Tot_abs_Q>
1

> <r_epik_Metal_State_Penalty>
1.8522

> <b_epik_Metal_Only>
0

> <s_lp_Force_Field>
OPLS_2005

> <r_lp_Energy>
22.5232

> <b_lp_Chiralities_Consistent>
1

> <s_lp_Variant>
AV-unprocessed.smi:610-5

> <Gold.Version>
5.8.1

> <Gold.Id.Protein>
6NUR|6NUR_protein|mol2

> <Gold.PLP.Fitness>
40.4216

> <Gold.PLP.PLP>
-24.1991

> <Gold.PLP.part.hbond>
-3.9790

> <Gold.PLP.part.metal>
0.0000

> <Gold.PLP.part.buried>
-2.9849

> <Gold.PLP.part.nonpolar>
-17.7978

> <Gold.PLP.part.repulsive>
0.1940

> <Gold.PLP.ligand.clash>
0.0000

> <Gold.PLP.ligand.torsion>
0.3980

> <Gold.PLP.Chemscore.Hbond>
4.9840

> <Gold.PLP.Chemscore.CHOScore>
0.6776

> <Gold.PLP.Chemscore.Metal>
0.0000

> <Gold.Chemscore.Hbonds>
donor molecule, donor type, donor heavy atom, donor atom, acceptor molecule, acceptor atom, score
      L1  H     7    38       P1 10186  1.59
      L1  H     9    27       P1  7948  1.00
      L1  H    13    28       P1  7948  1.00
      L1  H    13    29       P1  7957  1.00
      L1  C     5    24       P1 10747  0.78

> <Gold.PLP.Chemscore.Internal.Correction>
0.0336

> <Gold.Rescore>
     Score         DG    S(hbond)    S(metal)    S(lipo)     H(rot)  DE(clash)    DE(int)     intcor
     17.38     -19.09       3.91        0.00      48.89       2.02       0.03       1.68       ----

> <Gold.Chemscore.Fitness>
17.3835

> <Gold.Chemscore.DG>
-19.0902

> <Gold.Chemscore.ZeroCoef>
-5.4800

> <Gold.Chemscore.Hbond>
3.9068

> <Gold.Chemscore.Metal>
0.0000

> <Gold.Chemscore.Lipo>
48.8918

> <Gold.Chemscore.Internal_Hbond>
0.0000

> <Gold.Chemscore.DEClash>
0.0310

> <Gold.Chemscore.DEInternal>
1.6757

> <Gold.Chemscore.Rot>
2.0152

> <Gold.Chemscore.Internal.Correction>
   9.000000E+99

> <Gold.Chemscore.Hbonds>
donor molecule, donor type, donor heavy atom, donor atom, acceptor molecule, acceptor atom, score
      L1  H     7    38       P1 10186  0.74
      L1  H     9    27       P1  7948  0.95
      L1  H    13    28       P1  7948  0.97
      L1  H    13    29       P1  7957  0.96

> <Gold.Chemscore.Hbond.Weighted>
-13.0487

> <Gold.Chemscore.Metal.Weighted>
-0.0000

> <Gold.Chemscore.Lipo.Weighted>
-5.7203

> <Gold.Chemscore.Internal_Hbond.Weighted>
0.0000

> <Gold.Chemscore.DEClash.Weighted>
0.0310

> <Gold.Chemscore.DEInternal.Weighted>
1.6757

> <Gold.Chemscore.Rot.Weighted>
5.1589

> <Gold.Chemscore.Internal.Correction.Weighted>
   9.000000E+99

> <Gold.Protein.RotatedTorsions>
[ 6907 6896 6895 6894 ] final  -48.57 input  -60.11 | X-H torsion
[ 7974 7965 7964 7962 ] final   60.11 input  175.53 | X-H torsion
[ 8008 7997 7996 7995 ] final  -77.55 input   59.86 | X-H torsion
[ 10167 10162 10161 10158 ] final  160.64 input  -65.29 | X-H torsion
[ 10718 10713 10712 10709 ] final   69.36 input   66.30 | X-H torsion
[ 10763 10752 10751 10750 ] final  165.76 input  -60.55 | X-H torsion
[ 11005 11000 10999 10996 ] final   68.45 input  -57.11 | X-H torsion

> <Gold.Protein.ActiveResidues>
 VAL166  LYS551  ARG553  GLY616  TRP617  ASP618  TYR619  PRO620  LYS621  CYS622 
 ASP623  PHE694  ASN695  SER759  ASP760  ASP761  ALA762  ILE779  LEU786  VAL792 
 PHE793  MET794  SER795  GLU796  ALA797  LYS798  CYS799  TRP800  GLU811  SER814 

> <Gold.Protein.RotatedAtoms>
  150.8892  134.8294  159.7281 H   0  0  0  0  0  0  0  0  0  0  0  0  # atno 6907 bound_to 6896
  152.4827  134.4674  159.9634 H   0  0  0  0  0  0  0  0  0  0  0  0  # atno 6908 bound_to 6896
  151.4739  133.3523  159.2863 H   0  0  0  0  0  0  0  0  0  0  0  0  # atno 6909 bound_to 6896
  145.8997  139.3572  143.0600 H   0  0  0  0  0  0  0  0  0  0  0  0  # atno 7974 bound_to 7965
  154.5607  140.0708  156.8814 H   0  0  0  0  0  0  0  0  0  0  0  0  # atno 8008 bound_to 7997
  155.2817  140.3372  155.4240 H   0  0  0  0  0  0  0  0  0  0  0  0  # atno 8009 bound_to 7997
  156.2039  140.1732  156.7826 H   0  0  0  0  0  0  0  0  0  0  0  0  # atno 8010 bound_to 7997
  139.4842  144.4614  151.8699 H   0  0  0  0  0  0  0  0  0  0  0  0  # atno 10167 bound_to 10162
  157.6341  130.9422  150.0503 H   0  0  0  0  0  0  0  0  0  0  0  0  # atno 10718 bound_to 10713
  154.3289  135.2755  155.2482 H   0  0  0  0  0  0  0  0  0  0  0  0  # atno 10763 bound_to 10752
  154.4802  135.5860  153.6387 H   0  0  0  0  0  0  0  0  0  0  0  0  # atno 10764 bound_to 10752
  152.9868  135.6109  154.3480 H   0  0  0  0  0  0  0  0  0  0  0  0  # atno 10765 bound_to 10752
  139.9711  134.6899  156.0446 H   0  0  0  0  0  0  0  0  0  0  0  0  # atno 11005 bound_to 11000
  145.8806  140.9365  143.0603 LP  0  0  0  0  0  0  0  0  0  0  0  0  # atno 17320 bound_to 7965
  144.6735  140.0775  143.7470 LP  0  0  0  0  0  0  0  0  0  0  0  0  # atno 17321 bound_to 7965
  140.4077  144.2410  150.5890 LP  0  0  0  0  0  0  0  0  0  0  0  0  # atno 17342 bound_to 10162
  140.4996  143.2322  151.8697 LP  0  0  0  0  0  0  0  0  0  0  0  0  # atno 17343 bound_to 10162
  156.1567  130.3643  149.9359 LP  0  0  0  0  0  0  0  0  0  0  0  0  # atno 17370 bound_to 10713
  156.7366  130.9063  151.3629 LP  0  0  0  0  0  0  0  0  0  0  0  0  # atno 17371 bound_to 10713
  141.1390  133.6569  156.3676 LP  0  0  0  0  0  0  0  0  0  0  0  0  # atno 17394 bound_to 11000
  140.5292  134.6229  157.5344 LP  0  0  0  0  0  0  0  0  0  0  0  0  # atno 17395 bound_to 11000

$$$$
