AV-unprocessed.smi:1224|AV-procd|sdf|5133|dock7
  -GOLD-   22720 4193D 1   1.00000     0.00000
 Structure written by MMmdl.
 43 45  0  0  0  0  0  0  0  0  1 V2000
  154.9479  140.6612  160.6142 C   0  0  0  0  0  0  0  0  0  0  0  0
  153.8056  141.6600  160.5512 C   0  0  0  0  0  0  0  0  0  0  0  0
  153.3065  142.0552  159.2896 C   0  0  0  0  0  0  0  0  0  0  0  0
  152.2452  142.9812  159.1881 C   0  0  0  0  0  0  0  0  0  0  0  0
  151.6110  143.5026  158.0735 N   0  0  0  0  0  0  0  0  0  0  0  0
  150.7113  144.3086  158.6297 C   0  0  0  0  0  0  0  0  0  0  0  0
  150.6812  144.3638  159.9754 N   0  0  0  0  0  0  0  0  0  0  0  0
  149.7904  145.1594  160.8011 C   0  0  0  0  0  0  0  0  0  0  0  0
  148.3027  144.8991  160.4919 C   0  0  1  0  0  0  0  0  0  0  0  0
  147.7996  144.0627  161.5126 O   0  0  0  0  0  0  0  0  0  0  0  0
  147.4478  146.1805  160.4486 C   0  0  0  0  0  0  0  0  0  0  0  0
  146.3323  146.0389  159.5181 N   0  0  0  0  0  0  0  0  0  0  0  0
  145.4257  147.1811  159.5337 C   0  0  0  0  0  0  0  0  0  0  0  0
  144.9272  147.5167  158.1682 C   0  0  0  0  0  0  0  0  0  0  0  0
  145.1920  148.6426  157.4303 C   0  0  0  0  0  0  0  0  0  0  0  0
  144.5491  148.6432  156.1575 C   0  0  0  0  0  0  0  0  0  0  0  0
  143.8010  147.5166  155.9407 C   0  0  0  0  0  0  0  0  0  0  0  0
  143.8728  146.4292  157.3003 S   0  0  0  0  0  0  0  0  0  0  0  0
  151.6905  143.5033  160.3930 C   0  0  0  0  0  0  0  0  0  0  0  0
  152.1796  143.1195  161.6540 C   0  0  0  0  0  0  0  0  0  0  0  0
  153.2411  142.1941  161.7374 C   0  0  0  0  0  0  0  0  0  0  0  0
  153.7617  141.7856  163.1041 C   0  0  0  0  0  0  0  0  0  0  0  0
  155.2635  140.3532  159.6169 H   0  0  0  0  0  0  0  0  0  0  0  0
  154.6437  139.7674  161.1591 H   0  0  0  0  0  0  0  0  0  0  0  0
  155.8105  141.0978  161.1181 H   0  0  0  0  0  0  0  0  0  0  0  0
  153.7363  141.6493  158.3857 H   0  0  0  0  0  0  0  0  0  0  0  0
  150.0286  144.8866  158.0241 H   0  0  0  0  0  0  0  0  0  0  0  0
  150.0052  144.9300  161.8458 H   0  0  0  0  0  0  0  0  0  0  0  0
  150.0298  146.2143  160.6571 H   0  0  0  0  0  0  0  0  0  0  0  0
  148.2279  144.3679  159.5419 H   0  0  0  0  0  0  0  0  0  0  0  0
  148.1919  144.3254  162.3315 H   0  0  0  0  0  0  0  0  0  0  0  0
  147.0922  146.4382  161.4473 H   0  0  0  0  0  0  0  0  0  0  0  0
  148.0620  147.0183  160.1190 H   0  0  0  0  0  0  0  0  0  0  0  0
  146.6975  145.9152  158.5791 H   0  0  0  0  0  0  0  0  0  0  0  0
  144.5745  146.9707  160.1822 H   0  0  0  0  0  0  0  0  0  0  0  0
  145.9299  148.0482  159.9619 H   0  0  0  0  0  0  0  0  0  0  0  0
  145.8197  149.4584  157.7581 H   0  0  0  0  0  0  0  0  0  0  0  0
  144.6562  149.4578  155.4566 H   0  0  0  0  0  0  0  0  0  0  0  0
  143.2154  147.2595  155.0702 H   0  0  0  0  0  0  0  0  0  0  0  0
  151.7406  143.5340  162.5494 H   0  0  0  0  0  0  0  0  0  0  0  0
  153.2189  142.2907  163.9036 H   0  0  0  0  0  0  0  0  0  0  0  0
  154.8169  142.0411  163.2035 H   0  0  0  0  0  0  0  0  0  0  0  0
  153.6495  140.7111  163.2506 H   0  0  0  0  0  0  0  0  0  0  0  0
  1  2  1  0  0  0  0
  1 23  1  0  0  0  0
  1 24  1  0  0  0  0
  1 25  1  0  0  0  0
  2 21  1  0  0  0  0
  2  3  2  0  0  0  0
  3  4  1  0  0  0  0
  3 26  1  0  0  0  0
  4 19  2  0  0  0  0
  4  5  1  0  0  0  0
  5  6  2  0  0  0  0
  6  7  1  0  0  0  0
  6 27  1  0  0  0  0
  7  8  1  0  0  0  0
  7 19  1  0  0  0  0
  8  9  1  0  0  0  0
  8 28  1  0  0  0  0
  8 29  1  0  0  0  0
  9 10  1  0  0  0  0
  9 11  1  0  0  0  0
  9 30  1  0  0  0  0
 10 31  1  0  0  0  0
 11 12  1  0  0  0  0
 11 32  1  0  0  0  0
 11 33  1  0  0  0  0
 12 13  1  0  0  0  0
 12 34  1  0  0  0  0
 13 14  1  0  0  0  0
 13 35  1  0  0  0  0
 13 36  1  0  0  0  0
 14 18  1  0  0  0  0
 14 15  2  0  0  0  0
 15 16  1  0  0  0  0
 15 37  1  0  0  0  0
 16 17  2  0  0  0  0
 16 38  1  0  0  0  0
 17 18  1  0  0  0  0
 17 39  1  0  0  0  0
 19 20  1  0  0  0  0
 20 21  2  0  0  0  0
 20 40  1  0  0  0  0
 21 22  1  0  0  0  0
 22 41  1  0  0  0  0
 22 42  1  0  0  0  0
 22 43  1  0  0  0  0
M  END
> <s_m_source_file>
AV-unprocessed.smi

> <i_m_source_file_index>
1224

> <i_lp_mmshare_version>
43012

> <i_f3d_flags>
0

> <s_epik_input>
W0NIM11jKFtjSF0xKWMoW0NIM10pW2NIXWMoYzEyKW4oW2NIXW4yKVtDSDJdW0NASF0oW09IXSlbQ0gyXVtOSF1bQ0gyXWMzW2NIXVtjSF1bY0hdczM=

> <s_epik_cmdline>
J2VwaWtfcHl0aG9uJywgJy1waCcsICc3LjAnLCAnLXRuJywgJzgnLCAnLW1hJywgJzIwMCcsICctbWV0YWxfYmluZGluZycsICctaW1hZScsICc8aW5maWxlLm1hZT4nLCAnLW9tYWUnLCAnPG91dGZpbGUubWFlPic=

> <r_epik_Ionization_Penalty>
1.55566

> <r_epik_Ionization_Penalty_Charging>
0

> <r_epik_Ionization_Penalty_Neutral>
1.55566

> <r_epik_State_Penalty>
1.63945

> <r_epik_Charging_Adjusted_Penalty>
1.63945

> <i_epik_Tot_Q>
0

> <i_epik_Tot_abs_Q>
0

> <r_epik_Metal_State_Penalty>
1.52326

> <b_epik_Metal_Only>
0

> <s_lp_Force_Field>
OPLS_2005

> <r_lp_Energy>
15.3814

> <b_lp_Chiralities_Consistent>
1

> <s_lp_Variant>
AV-unprocessed.smi:1224-6

> <Gold.Version>
5.8.1

> <Gold.Id.Protein>
6NUR|6NUR_protein|mol2

> <Gold.PLP.Fitness>
59.1866

> <Gold.PLP.PLP>
-52.4021

> <Gold.PLP.part.hbond>
-2.0000

> <Gold.PLP.part.metal>
0.0000

> <Gold.PLP.part.buried>
0.7411

> <Gold.PLP.part.nonpolar>
-50.2599

> <Gold.PLP.part.repulsive>
0.0799

> <Gold.PLP.ligand.clash>
0.0000

> <Gold.PLP.ligand.torsion>
1.3347

> <Gold.PLP.Chemscore.Hbond>
2.0000

> <Gold.PLP.Chemscore.CHOScore>
1.1310

> <Gold.PLP.Chemscore.Metal>
0.0000

> <Gold.Chemscore.Hbonds>
donor molecule, donor type, donor heavy atom, donor atom, acceptor molecule, acceptor atom, score
      L1  H    12    34       P1  8029  1.00
      P1  H  6933  6944       L1    10  0.80
      L1  C     6    27       P1  8028  0.38
      L1  C     6    27       P1  8029  0.68

> <Gold.PLP.Chemscore.Internal.Correction>
0.0610

> <Gold.Rescore>
     Score         DG    S(hbond)    S(metal)    S(lipo)     H(rot)  DE(clash)    DE(int)     intcor
     19.92     -22.98       1.90        0.00     145.98       2.32       1.79       1.27       ----

> <Gold.Chemscore.Fitness>
19.9250

> <Gold.Chemscore.DG>
-22.9823

> <Gold.Chemscore.ZeroCoef>
-5.4800

> <Gold.Chemscore.Hbond>
1.9028

> <Gold.Chemscore.Metal>
0.0000

> <Gold.Chemscore.Lipo>
145.9784

> <Gold.Chemscore.Internal_Hbond>
0.0000

> <Gold.Chemscore.DEClash>
1.7873

> <Gold.Chemscore.DEInternal>
1.2700

> <Gold.Chemscore.Rot>
2.3173

> <Gold.Chemscore.Internal.Correction>
   9.000000E+99

> <Gold.Chemscore.Hbonds>
donor molecule, donor type, donor heavy atom, donor atom, acceptor molecule, acceptor atom, score
      L1  H    12    34       P1  8029  0.99
      P1  H  6933  6944       L1    10  0.10

> <Gold.Chemscore.Hbond.Weighted>
-6.3552

> <Gold.Chemscore.Metal.Weighted>
-0.0000

> <Gold.Chemscore.Lipo.Weighted>
-17.0795

> <Gold.Chemscore.Internal_Hbond.Weighted>
0.0000

> <Gold.Chemscore.DEClash.Weighted>
1.7873

> <Gold.Chemscore.DEInternal.Weighted>
1.2700

> <Gold.Chemscore.Rot.Weighted>
5.9324

> <Gold.Chemscore.Internal.Correction.Weighted>
   9.000000E+99

> <Gold.Protein.RotatedTorsions>
[ 6907 6896 6895 6894 ] final  -58.64 input  -60.11 | X-H torsion
[ 7974 7965 7964 7962 ] final    4.02 input  175.53 | X-H torsion
[ 8008 7997 7996 7995 ] final  156.30 input   59.86 | X-H torsion
[ 10167 10162 10161 10158 ] final -108.08 input  -65.29 | X-H torsion
[ 10718 10713 10712 10709 ] final   32.31 input   66.30 | X-H torsion
[ 10763 10752 10751 10750 ] final   36.73 input  -60.55 | X-H torsion
[ 11005 11000 10999 10996 ] final  -49.97 input  -57.11 | X-H torsion

> <Gold.Protein.ActiveResidues>
 VAL166  LYS551  ARG553  GLY616  TRP617  ASP618  TYR619  PRO620  LYS621  CYS622 
 ASP623  PHE694  ASN695  SER759  ASP760  ASP761  ALA762  ILE779  LEU786  VAL792 
 PHE793  MET794  SER795  GLU796  ALA797  LYS798  CYS799  TRP800  GLU811  SER814 

> <Gold.Protein.RotatedAtoms>
  150.7991  134.7072  159.6582 H   0  0  0  0  0  0  0  0  0  0  0  0  # atno 6907 bound_to 6896
  152.4106  134.6127  160.0039 H   0  0  0  0  0  0  0  0  0  0  0  0  # atno 6908 bound_to 6896
  151.6371  133.3291  159.3158 H   0  0  0  0  0  0  0  0  0  0  0  0  # atno 6909 bound_to 6896
  146.2444  140.0597  142.8369 H   0  0  0  0  0  0  0  0  0  0  0  0  # atno 7974 bound_to 7965
  156.2430  140.1916  156.6934 H   0  0  0  0  0  0  0  0  0  0  0  0  # atno 8008 bound_to 7997
  154.6235  140.0605  156.9671 H   0  0  0  0  0  0  0  0  0  0  0  0  # atno 8009 bound_to 7997
  155.1824  140.3277  155.4375 H   0  0  0  0  0  0  0  0  0  0  0  0  # atno 8010 bound_to 7997
  140.1700  143.4050  152.1361 H   0  0  0  0  0  0  0  0  0  0  0  0  # atno 10167 bound_to 10162
  157.2837  130.7267  149.6571 H   0  0  0  0  0  0  0  0  0  0  0  0  # atno 10718 bound_to 10713
  153.0065  135.6297  154.2031 H   0  0  0  0  0  0  0  0  0  0  0  0  # atno 10763 bound_to 10752
  154.1775  135.2815  155.3064 H   0  0  0  0  0  0  0  0  0  0  0  0  # atno 10764 bound_to 10752
  154.5861  135.5632  153.7292 H   0  0  0  0  0  0  0  0  0  0  0  0  # atno 10765 bound_to 10752
  141.0789  133.6658  156.3662 H   0  0  0  0  0  0  0  0  0  0  0  0  # atno 11005 bound_to 11000
  145.0911  140.9284  143.4769 LP  0  0  0  0  0  0  0  0  0  0  0  0  # atno 17320 bound_to 7965
  145.0770  139.2988  143.5803 LP  0  0  0  0  0  0  0  0  0  0  0  0  # atno 17321 bound_to 7965
  139.5342  144.7192  151.4950 LP  0  0  0  0  0  0  0  0  0  0  0  0  # atno 17342 bound_to 10162
  140.6588  143.8543  150.6864 LP  0  0  0  0  0  0  0  0  0  0  0  0  # atno 17343 bound_to 10162
  155.9665  130.4330  150.4988 LP  0  0  0  0  0  0  0  0  0  0  0  0  # atno 17370 bound_to 10713
  157.2937  131.0631  151.2116 LP  0  0  0  0  0  0  0  0  0  0  0  0  # atno 17371 bound_to 10713
  140.5512  134.6026  157.5408 LP  0  0  0  0  0  0  0  0  0  0  0  0  # atno 17394 bound_to 11000
  139.9602  134.7465  156.0253 LP  0  0  0  0  0  0  0  0  0  0  0  0  # atno 17395 bound_to 11000

$$$$
