AV-unprocessed.smi:213|AV-procd|sdf|1640|dock9
  -GOLD-   2262020 03D 1   1.00000     0.00000
 Structure written by MMmdl.
 59 62  0  0  0  0  0  0  0  0  2 V2000
  145.0888  136.4700  154.5317 C   0  0  0  0  0  0  0  0  0  0  0  0
  146.1049  136.6977  153.3966 C   0  0  1  0  0  0  0  0  0  0  0  0
  145.4631  136.5424  151.9978 C   0  0  0  0  0  0  0  0  0  0  0  0
  145.0967  135.1381  151.6875 N   0  3  0  0  0  0  0  0  0  0  0  0
  144.3466  135.0175  150.4147 C   0  0  0  0  0  0  0  0  0  0  0  0
  143.9511  133.5536  150.1577 C   0  0  0  0  0  0  0  0  0  0  0  0
  145.1165  132.7390  150.1482 O   0  0  0  0  0  0  0  0  0  0  0  0
  145.7996  132.7741  151.3950 C   0  0  0  0  0  0  0  0  0  0  0  0
  146.2570  134.2118  151.6932 C   0  0  0  0  0  0  0  0  0  0  0  0
  146.7728  137.9994  153.5371 N   0  0  0  0  0  0  0  0  0  0  0  0
  146.6726  138.9872  152.4645 C   0  0  0  0  0  0  0  0  0  0  0  0
  147.8277  138.1297  154.3921 C   0  0  0  0  0  0  0  0  0  0  0  0
  148.3299  137.0233  155.0066 N   0  0  0  0  0  0  0  0  0  0  0  0
  149.3673  137.1158  155.8426 C   0  0  0  0  0  0  0  0  0  0  0  0
  150.0484  138.2018  156.2077 N   0  0  0  0  0  0  0  0  0  0  0  0
  149.5514  139.3191  155.6056 C   0  0  0  0  0  0  0  0  0  0  0  0
  148.4566  139.3752  154.6949 C   0  0  0  0  0  0  0  0  0  0  0  0
  148.2430  140.6946  154.3074 N   0  0  0  0  0  0  0  0  0  0  0  0
  149.1618  141.3723  154.9398 C   0  0  0  0  0  0  0  0  0  0  0  0
  149.9907  140.6231  155.7416 N   0  0  0  0  0  0  0  0  0  0  0  0
  151.0898  141.1101  156.5558 C   0  0  0  0  0  0  0  0  0  0  0  0
  150.7274  142.3980  157.3200 C   0  0  1  0  0  0  0  0  0  0  0  0
  149.4936  142.2449  157.9967 O   0  0  0  0  0  0  0  0  0  0  0  0
  151.8335  142.8424  158.2979 C   0  0  1  0  0  0  0  0  0  0  0  0
  151.6790  144.2410  158.9178 C   0  0  0  0  0  0  0  0  0  0  0  0
  152.0354  144.0345  160.3833 C   0  0  0  0  0  0  0  0  0  0  0  0
  152.6563  142.6412  160.4161 C   0  0  0  0  0  0  0  0  0  0  0  0
  151.9557  141.9490  159.3966 O   0  0  0  0  0  0  0  0  0  0  0  0
  144.6873  135.4570  154.5018 H   0  0  0  0  0  0  0  0  0  0  0  0
  144.2447  137.1568  154.4722 H   0  0  0  0  0  0  0  0  0  0  0  0
  145.5577  136.6024  155.5075 H   0  0  0  0  0  0  0  0  0  0  0  0
  146.8606  135.9251  153.5317 H   0  0  0  0  0  0  0  0  0  0  0  0
  144.5701  137.1670  151.9516 H   0  0  0  0  0  0  0  0  0  0  0  0
  146.1286  136.9139  151.2170 H   0  0  0  0  0  0  0  0  0  0  0  0
  143.4495  135.6369  150.4519 H   0  0  0  0  0  0  0  0  0  0  0  0
  144.9599  135.3895  149.5921 H   0  0  0  0  0  0  0  0  0  0  0  0
  143.2509  133.1994  150.9161 H   0  0  0  0  0  0  0  0  0  0  0  0
  143.4493  133.4639  149.1941 H   0  0  0  0  0  0  0  0  0  0  0  0
  145.1534  132.3975  152.1894 H   0  0  0  0  0  0  0  0  0  0  0  0
  146.6618  132.1088  151.3439 H   0  0  0  0  0  0  0  0  0  0  0  0
  146.9842  134.5314  150.9451 H   0  0  0  0  0  0  0  0  0  0  0  0
  146.7632  134.2346  152.6575 H   0  0  0  0  0  0  0  0  0  0  0  0
  147.6578  139.3345  152.1508 H   0  0  0  0  0  0  0  0  0  0  0  0
  146.0923  139.8476  152.7987 H   0  0  0  0  0  0  0  0  0  0  0  0
  146.1803  138.5783  151.5830 H   0  0  0  0  0  0  0  0  0  0  0  0
  149.6992  136.1865  156.2817 H   0  0  0  0  0  0  0  0  0  0  0  0
  149.2616  142.4431  154.8374 H   0  0  0  0  0  0  0  0  0  0  0  0
  151.3846  140.3215  157.2495 H   0  0  0  0  0  0  0  0  0  0  0  0
  151.9451  141.2866  155.9027 H   0  0  0  0  0  0  0  0  0  0  0  0
  150.5850  143.2006  156.5957 H   0  0  0  0  0  0  0  0  0  0  0  0
  149.6684  141.9228  158.8677 H   0  0  0  0  0  0  0  0  0  0  0  0
  152.7888  142.8128  157.7705 H   0  0  0  0  0  0  0  0  0  0  0  0
  152.3572  144.9471  158.4376 H   0  0  0  0  0  0  0  0  0  0  0  0
  150.6699  144.6430  158.8259 H   0  0  0  0  0  0  0  0  0  0  0  0
  152.7065  144.8018  160.7710 H   0  0  0  0  0  0  0  0  0  0  0  0
  151.1270  144.0459  160.9871 H   0  0  0  0  0  0  0  0  0  0  0  0
  153.7181  142.6815  160.1675 H   0  0  0  0  0  0  0  0  0  0  0  0
  152.5468  142.1529  161.3846 H   0  0  0  0  0  0  0  0  0  0  0  0
  144.4679  134.8349  152.4176 H   0  0  0  0  0  0  0  0  0  0  0  0
  1  2  1  0  0  0  0
  1 29  1  0  0  0  0
  1 30  1  0  0  0  0
  1 31  1  0  0  0  0
  2  3  1  0  0  0  0
  2 10  1  0  0  0  0
  2 32  1  0  0  0  0
  3  4  1  0  0  0  0
  3 33  1  0  0  0  0
  3 34  1  0  0  0  0
  4  9  1  0  0  0  0
  4  5  1  0  0  0  0
  4 59  1  0  0  0  0
  5  6  1  0  0  0  0
  5 35  1  0  0  0  0
  5 36  1  0  0  0  0
  6  7  1  0  0  0  0
  6 37  1  0  0  0  0
  6 38  1  0  0  0  0
  7  8  1  0  0  0  0
  8  9  1  0  0  0  0
  8 39  1  0  0  0  0
  8 40  1  0  0  0  0
  9 41  1  0  0  0  0
  9 42  1  0  0  0  0
 10 11  1  0  0  0  0
 10 12  1  0  0  0  0
 11 43  1  0  0  0  0
 11 44  1  0  0  0  0
 11 45  1  0  0  0  0
 12 17  1  0  0  0  0
 12 13  2  0  0  0  0
 13 14  1  0  0  0  0
 14 15  2  0  0  0  0
 14 46  1  0  0  0  0
 15 16  1  0  0  0  0
 16 20  1  0  0  0  0
 16 17  2  0  0  0  0
 17 18  1  0  0  0  0
 18 19  2  0  0  0  0
 19 20  1  0  0  0  0
 19 47  1  0  0  0  0
 20 21  1  0  0  0  0
 21 22  1  0  0  0  0
 21 48  1  0  0  0  0
 21 49  1  0  0  0  0
 22 23  1  0  0  0  0
 22 24  1  0  0  0  0
 22 50  1  0  0  0  0
 23 51  1  0  0  0  0
 24 28  1  0  0  0  0
 24 25  1  0  0  0  0
 24 52  1  0  0  0  0
 25 26  1  0  0  0  0
 25 53  1  0  0  0  0
 25 54  1  0  0  0  0
 26 27  1  0  0  0  0
 26 55  1  0  0  0  0
 26 56  1  0  0  0  0
 27 28  1  0  0  0  0
 27 57  1  0  0  0  0
 27 58  1  0  0  0  0
M  CHG  1   4   1
M  END
> <s_m_source_file>
AV-unprocessed.smi

> <i_m_source_file_index>
213

> <i_lp_mmshare_version>
43012

> <i_f3d_flags>
0

> <s_epik_input>
W0NIMl0xW0NIMl1PW0NIMl1bQ0gyXU4xW0NIMl1bQ0BASF0oW0NIM10pTihbQ0gzXSljKG5bY0hdbjIpYyhjMjMpbltjSF1uM1tDSDJdW0NASF0oW09IXSlbQ0BASF00W0NIMl1bQ0gyXVtDSDJdTzQ=

> <s_epik_cmdline>
J2VwaWtfcHl0aG9uJywgJy1waCcsICc3LjAnLCAnLXRuJywgJzgnLCAnLW1hJywgJzIwMCcsICctbWV0YWxfYmluZGluZycsICctaW1hZScsICc8aW5maWxlLm1hZT4nLCAnLW9tYWUnLCAnPG91dGZpbGUubWFlPic=

> <r_lp_tautomer_probability>
1

> <r_epik_Ionization_Penalty>
0.399679

> <r_epik_Ionization_Penalty_Charging>
0.399433

> <r_epik_Ionization_Penalty_Neutral>
0.000246213

> <r_epik_State_Penalty>
0.286032

> <r_epik_Charging_Adjusted_Penalty>
0.685465

> <i_epik_Tot_Q>
1

> <i_epik_Tot_abs_Q>
1

> <r_epik_Metal_State_Penalty>
0.286072

> <b_epik_Metal_Only>
0

> <s_lp_Force_Field>
OPLS_2005

> <r_lp_Energy>
46.5476

> <b_lp_Chiralities_Consistent>
1

> <s_lp_Variant>
AV-unprocessed.smi:213-8

> <Gold.Version>
5.8.1

> <Gold.Id.Protein>
6NUR|6NUR_protein|mol2

> <Gold.PLP.Fitness>
48.3041

> <Gold.PLP.PLP>
-46.4063

> <Gold.PLP.part.hbond>
-1.0000

> <Gold.PLP.part.metal>
0.0000

> <Gold.PLP.part.buried>
-4.1775

> <Gold.PLP.part.nonpolar>
-41.8703

> <Gold.PLP.part.repulsive>
0.3784

> <Gold.PLP.ligand.clash>
0.0000

> <Gold.PLP.ligand.torsion>
0.9378

> <Gold.PLP.Chemscore.Hbond>
0.0000

> <Gold.PLP.Chemscore.CHOScore>
1.0000

> <Gold.PLP.Chemscore.Metal>
0.0000

> <Gold.Chemscore.Hbonds>
donor molecule, donor type, donor heavy atom, donor atom, acceptor molecule, acceptor atom, score
      L1  C    19    47       P1  8028  1.00

> <Gold.PLP.Chemscore.Internal.Correction>
0.7734

> <Gold.Rescore>
     Score         DG    S(hbond)    S(metal)    S(lipo)     H(rot)  DE(clash)    DE(int)     intcor
      9.36     -11.23       0.00        0.00     110.97       2.83       0.14       1.73       ----

> <Gold.Chemscore.Fitness>
9.3597

> <Gold.Chemscore.DG>
-11.2306

> <Gold.Chemscore.ZeroCoef>
-5.4800

> <Gold.Chemscore.Hbond>
0.0000

> <Gold.Chemscore.Metal>
0.0000

> <Gold.Chemscore.Lipo>
110.9707

> <Gold.Chemscore.Internal_Hbond>
0.0000

> <Gold.Chemscore.DEClash>
0.1429

> <Gold.Chemscore.DEInternal>
1.7281

> <Gold.Chemscore.Rot>
2.8254

> <Gold.Chemscore.Internal.Correction>
   9.000000E+99

> <Gold.Chemscore.Hbond.Weighted>
-0.0000

> <Gold.Chemscore.Metal.Weighted>
-0.0000

> <Gold.Chemscore.Lipo.Weighted>
-12.9836

> <Gold.Chemscore.Internal_Hbond.Weighted>
0.0000

> <Gold.Chemscore.DEClash.Weighted>
0.1429

> <Gold.Chemscore.DEInternal.Weighted>
1.7281

> <Gold.Chemscore.Rot.Weighted>
7.2330

> <Gold.Chemscore.Internal.Correction.Weighted>
   9.000000E+99

> <Gold.Protein.RotatedTorsions>
[ 6907 6896 6895 6894 ] final  -57.48 input  -60.11 | X-H torsion
[ 7974 7965 7964 7962 ] final  -61.16 input  175.53 | X-H torsion
[ 8008 7997 7996 7995 ] final   67.93 input   59.86 | X-H torsion
[ 10167 10162 10161 10158 ] final -177.25 input  -65.29 | X-H torsion
[ 10718 10713 10712 10709 ] final   23.20 input   66.30 | X-H torsion
[ 10763 10752 10751 10750 ] final -132.22 input  -60.55 | X-H torsion
[ 11005 11000 10999 10996 ] final  -91.24 input  -57.11 | X-H torsion

> <Gold.Protein.ActiveResidues>
 VAL166  LYS551  ARG553  GLY616  TRP617  ASP618  TYR619  PRO620  LYS621  CYS622 
 ASP623  PHE694  ASN695  SER759  ASP760  ASP761  ALA762  ILE779  LEU786  VAL792 
 PHE793  MET794  SER795  GLU796  ALA797  LYS798  CYS799  TRP800  GLU811  SER814 

> <Gold.Protein.RotatedAtoms>
  150.8083  134.7222  159.6664 H   0  0  0  0  0  0  0  0  0  0  0  0  # atno 6907 bound_to 6896
  152.4203  134.5964  159.9998 H   0  0  0  0  0  0  0  0  0  0  0  0  # atno 6908 bound_to 6896
  151.6182  133.3304  159.3118 H   0  0  0  0  0  0  0  0  0  0  0  0  # atno 6909 bound_to 6896
  145.8068  140.8623  143.0203 H   0  0  0  0  0  0  0  0  0  0  0  0  # atno 7974 bound_to 7965
  155.7005  140.3495  155.4931 H   0  0  0  0  0  0  0  0  0  0  0  0  # atno 8008 bound_to 7997
  155.9444  140.1107  157.1051 H   0  0  0  0  0  0  0  0  0  0  0  0  # atno 8009 bound_to 7997
  154.4109  140.1206  156.4956 H   0  0  0  0  0  0  0  0  0  0  0  0  # atno 8010 bound_to 7997
  139.5489  144.2161  152.1041 H   0  0  0  0  0  0  0  0  0  0  0  0  # atno 10167 bound_to 10162
  157.1629  130.6725  149.6050 H   0  0  0  0  0  0  0  0  0  0  0  0  # atno 10718 bound_to 10713
  154.8745  135.3805  154.4374 H   0  0  0  0  0  0  0  0  0  0  0  0  # atno 10763 bound_to 10752
  153.5062  135.7030  153.5810 H   0  0  0  0  0  0  0  0  0  0  0  0  # atno 10764 bound_to 10752
  153.4120  135.3922  155.2023 H   0  0  0  0  0  0  0  0  0  0  0  0  # atno 10765 bound_to 10752
  141.1549  133.7743  156.9851 H   0  0  0  0  0  0  0  0  0  0  0  0  # atno 11005 bound_to 11000
  144.6762  140.0337  143.7482 LP  0  0  0  0  0  0  0  0  0  0  0  0  # atno 17320 bound_to 7965
  145.9820  139.2948  143.1036 LP  0  0  0  0  0  0  0  0  0  0  0  0  # atno 17321 bound_to 7965
  140.1652  144.4988  150.6610 LP  0  0  0  0  0  0  0  0  0  0  0  0  # atno 17342 bound_to 10162
  140.6746  143.2300  151.5539 LP  0  0  0  0  0  0  0  0  0  0  0  0  # atno 17343 bound_to 10162
  155.9751  130.4705  150.6434 LP  0  0  0  0  0  0  0  0  0  0  0  0  # atno 17370 bound_to 10713
  157.4116  131.0824  151.1216 LP  0  0  0  0  0  0  0  0  0  0  0  0  # atno 17371 bound_to 10713
  140.1040  134.9518  157.1966 LP  0  0  0  0  0  0  0  0  0  0  0  0  # atno 17394 bound_to 11000
  140.3281  134.2841  155.7233 LP  0  0  0  0  0  0  0  0  0  0  0  0  # atno 17395 bound_to 11000

$$$$
