AV-unprocessed.smi:2803|AV-procd|sdf|10808|dock4
  -GOLD-   2272015243D 1   1.00000     0.00000
 Structure written by MMmdl.
 42 43  0  0  0  0  0  0  0  0  1 V2000
  149.4504  140.1178  155.5978 C   0  0  0  0  0  0  0  0  0  0  0  0
  150.6337  139.7095  156.4983 C   0  0  2  0  0  0  0  0  0  0  0  0
  151.8415  139.6746  155.6530 C   0  0  0  0  0  0  0  0  0  0  0  0
  152.7912  139.6464  154.9921 N   0  0  0  0  0  0  0  0  0  0  0  0
  150.4234  138.3517  157.0071 N   0  0  0  0  0  0  0  0  0  0  0  0
  149.4389  137.9081  157.8063 C   0  0  0  0  0  0  0  0  0  0  0  0
  148.5383  138.6252  158.2429 O   0  0  0  0  0  0  0  0  0  0  0  0
  149.5068  136.4230  158.1853 C   0  0  0  0  0  0  0  0  0  0  0  0
  148.4367  136.0143  159.0970 N   0  0  0  0  0  0  0  0  0  0  0  0
  147.4182  135.1673  158.7347 C   0  0  0  0  0  0  0  0  0  0  0  0
  146.6020  134.9585  159.7081 N   0  0  0  0  0  0  0  0  0  0  0  0
  147.1220  135.7011  160.7309 N   0  0  0  0  0  0  0  0  0  0  0  0
  146.4473  135.7229  162.0540 C   0  0  0  0  0  0  0  0  0  0  0  0
  145.2122  134.7966  162.0224 C   0  0  0  0  0  0  0  0  0  0  0  0
  145.9650  137.1450  162.4349 C   0  0  0  0  0  0  0  0  0  0  0  0
  147.4302  135.2492  163.1468 C   0  0  0  0  0  0  0  0  0  0  0  0
  148.2462  136.3501  160.3693 C   0  0  0  0  0  0  0  0  0  0  0  0
  148.9520  137.0945  161.0496 O   0  0  0  0  0  0  0  0  0  0  0  0
  150.8191  140.7487  157.6091 C   0  0  0  0  0  0  0  0  0  0  0  0
  149.6812  141.6044  158.1204 C   0  0  0  0  0  0  0  0  0  0  0  0
  150.8138  142.2368  157.3416 C   0  0  0  0  0  0  0  0  0  0  0  0
  149.6390  141.0799  155.1199 H   0  0  0  0  0  0  0  0  0  0  0  0
  148.5209  140.2156  156.1586 H   0  0  0  0  0  0  0  0  0  0  0  0
  149.2846  139.3873  154.8054 H   0  0  0  0  0  0  0  0  0  0  0  0
  151.1104  137.6709  156.7164 H   0  0  0  0  0  0  0  0  0  0  0  0
  149.4459  135.8139  157.2816 H   0  0  0  0  0  0  0  0  0  0  0  0
  150.4847  136.2216  158.6257 H   0  0  0  0  0  0  0  0  0  0  0  0
  147.3828  134.7640  157.7212 H   0  0  0  0  0  0  0  0  0  0  0  0
  144.6672  134.8341  162.9661 H   0  0  0  0  0  0  0  0  0  0  0  0
  145.4812  133.7542  161.8538 H   0  0  0  0  0  0  0  0  0  0  0  0
  144.5197  135.0899  161.2326 H   0  0  0  0  0  0  0  0  0  0  0  0
  145.2460  137.5353  161.7134 H   0  0  0  0  0  0  0  0  0  0  0  0
  146.7951  137.8500  162.4971 H   0  0  0  0  0  0  0  0  0  0  0  0
  145.4723  137.1467  163.4078 H   0  0  0  0  0  0  0  0  0  0  0  0
  146.9770  135.3077  164.1368 H   0  0  0  0  0  0  0  0  0  0  0  0
  148.3299  135.8653  163.1624 H   0  0  0  0  0  0  0  0  0  0  0  0
  147.7417  134.2148  163.0027 H   0  0  0  0  0  0  0  0  0  0  0  0
  151.5091  140.4242  158.3853 H   0  0  0  0  0  0  0  0  0  0  0  0
  148.7137  141.5297  157.6286 H   0  0  0  0  0  0  0  0  0  0  0  0
  149.6413  141.7950  159.1909 H   0  0  0  0  0  0  0  0  0  0  0  0
  151.5261  142.8450  157.8950 H   0  0  0  0  0  0  0  0  0  0  0  0
  150.6001  142.5794  156.3314 H   0  0  0  0  0  0  0  0  0  0  0  0
  1  2  1  0  0  0  0
  1 22  1  0  0  0  0
  1 23  1  0  0  0  0
  1 24  1  0  0  0  0
  2  3  1  0  0  0  0
  2  5  1  0  0  0  0
  2 19  1  0  0  0  0
  3  4  3  0  0  0  0
  5  6  1  0  0  0  0
  5 25  1  0  0  0  0
  6  7  2  0  0  0  0
  6  8  1  0  0  0  0
  8  9  1  0  0  0  0
  8 26  1  0  0  0  0
  8 27  1  0  0  0  0
  9 17  1  0  0  0  0
  9 10  1  0  0  0  0
 10 11  2  0  0  0  0
 10 28  1  0  0  0  0
 11 12  1  0  0  0  0
 12 13  1  0  0  0  0
 12 17  1  0  0  0  0
 13 14  1  0  0  0  0
 13 15  1  0  0  0  0
 13 16  1  0  0  0  0
 14 29  1  0  0  0  0
 14 30  1  0  0  0  0
 14 31  1  0  0  0  0
 15 32  1  0  0  0  0
 15 33  1  0  0  0  0
 15 34  1  0  0  0  0
 16 35  1  0  0  0  0
 16 36  1  0  0  0  0
 16 37  1  0  0  0  0
 17 18  2  0  0  0  0
 19 21  1  0  0  0  0
 19 20  1  0  0  0  0
 19 38  1  0  0  0  0
 20 21  1  0  0  0  0
 20 39  1  0  0  0  0
 20 40  1  0  0  0  0
 21 41  1  0  0  0  0
 21 42  1  0  0  0  0
M  END
> <s_m_source_file>
AV-unprocessed.smi

> <i_m_source_file_index>
2803

> <i_lp_mmshare_version>
43012

> <i_f3d_flags>
0

> <s_epik_input>
W0NIMl0xW0NIMl1bQ0hdMVtDQF0oW0NIM10pKEMjTilbTkhdQyg9TylbQ0gyXW4yW2NIXW5uKGMyPU8pQyhbQ0gzXSkoW0NIM10pW0NIM10=

> <s_epik_cmdline>
J2VwaWtfcHl0aG9uJywgJy1waCcsICc3LjAnLCAnLXRuJywgJzgnLCAnLW1hJywgJzIwMCcsICctbWV0YWxfYmluZGluZycsICctaW1hZScsICc8aW5maWxlLm1hZT4nLCAnLW9tYWUnLCAnPG91dGZpbGUubWFlPic=

> <r_lp_tautomer_probability>
1

> <r_epik_Ionization_Penalty>
4.88615e-06

> <r_epik_Ionization_Penalty_Charging>
4.80261e-08

> <r_epik_Ionization_Penalty_Neutral>
4.83813e-06

> <r_epik_State_Penalty>
-0

> <r_epik_Charging_Adjusted_Penalty>
4.80261e-08

> <i_epik_Tot_Q>
0

> <i_epik_Tot_abs_Q>
0

> <r_epik_Metal_State_Penalty>
-0

> <b_epik_Metal_Only>
0

> <s_lp_Force_Field>
OPLS_2005

> <r_lp_Energy>
31.1455

> <b_lp_Chiralities_Consistent>
1

> <s_lp_Variant>
AV-unprocessed.smi:2803-2

> <Gold.Version>
5.8.1

> <Gold.Id.Protein>
6NUR|6NUR_protein|mol2

> <Gold.PLP.Fitness>
37.8533

> <Gold.PLP.PLP>
-31.9336

> <Gold.PLP.part.hbond>
-3.2758

> <Gold.PLP.part.metal>
0.0000

> <Gold.PLP.part.buried>
-5.5315

> <Gold.PLP.part.nonpolar>
-24.8323

> <Gold.PLP.part.repulsive>
0.0177

> <Gold.PLP.ligand.clash>
0.0000

> <Gold.PLP.ligand.torsion>
0.9129

> <Gold.PLP.Chemscore.Hbond>
2.0703

> <Gold.PLP.Chemscore.CHOScore>
0.0000

> <Gold.PLP.Chemscore.Metal>
0.0000

> <Gold.Chemscore.Hbonds>
donor molecule, donor type, donor heavy atom, donor atom, acceptor molecule, acceptor atom, score
      P1  H  6931  6943       L1    18  0.69
      P1  H  7989  7998       L1     4  0.11
      P1  H  7997  8010       L1     4  1.00

> <Gold.PLP.Chemscore.Internal.Correction>
1.5346

> <Gold.Rescore>
     Score         DG    S(hbond)    S(metal)    S(lipo)     H(rot)  DE(clash)    DE(int)     intcor
     12.65     -13.62       1.91        0.00      59.83       2.05       0.00       0.97       ----

> <Gold.Chemscore.Fitness>
12.6494

> <Gold.Chemscore.DG>
-13.6206

> <Gold.Chemscore.ZeroCoef>
-5.4800

> <Gold.Chemscore.Hbond>
1.9094

> <Gold.Chemscore.Metal>
0.0000

> <Gold.Chemscore.Lipo>
59.8318

> <Gold.Chemscore.Internal_Hbond>
0.0000

> <Gold.Chemscore.DEClash>
0.0000

> <Gold.Chemscore.DEInternal>
0.9712

> <Gold.Chemscore.Rot>
2.0457

> <Gold.Chemscore.Internal.Correction>
   9.000000E+99

> <Gold.Chemscore.Hbonds>
donor molecule, donor type, donor heavy atom, donor atom, acceptor molecule, acceptor atom, score
      P1  H  6931  6943       L1    18  0.65
      P1  H  7997  8010       L1     4  0.94

> <Gold.Chemscore.Hbond.Weighted>
-6.3773

> <Gold.Chemscore.Metal.Weighted>
-0.0000

> <Gold.Chemscore.Lipo.Weighted>
-7.0003

> <Gold.Chemscore.Internal_Hbond.Weighted>
0.0000

> <Gold.Chemscore.DEClash.Weighted>
0.0000

> <Gold.Chemscore.DEInternal.Weighted>
0.9712

> <Gold.Chemscore.Rot.Weighted>
5.2370

> <Gold.Chemscore.Internal.Correction.Weighted>
   9.000000E+99

> <Gold.Protein.RotatedTorsions>
[ 6907 6896 6895 6894 ] final    3.50 input  -60.11 | X-H torsion
[ 7974 7965 7964 7962 ] final  -20.36 input  175.53 | X-H torsion
[ 8008 7997 7996 7995 ] final  110.89 input   59.86 | X-H torsion
[ 10167 10162 10161 10158 ] final   37.86 input  -65.29 | X-H torsion
[ 10718 10713 10712 10709 ] final -175.49 input   66.30 | X-H torsion
[ 10763 10752 10751 10750 ] final -128.60 input  -60.55 | X-H torsion
[ 11005 11000 10999 10996 ] final -137.75 input  -57.11 | X-H torsion

> <Gold.Protein.ActiveResidues>
 VAL166  LYS551  ARG553  GLY616  TRP617  ASP618  TYR619  PRO620  LYS621  CYS622 
 ASP623  PHE694  ASN695  SER759  ASP760  ASP761  ALA762  ILE779  LEU786  VAL792 
 PHE793  MET794  SER795  GLU796  ALA797  LYS798  CYS799  TRP800  GLU811  SER814 

> <Gold.Protein.RotatedAtoms>
  151.6261  135.1027  160.0111 H   0  0  0  0  0  0  0  0  0  0  0  0  # atno 6907 bound_to 6896
  152.4132  133.6992  159.6424 H   0  0  0  0  0  0  0  0  0  0  0  0  # atno 6908 bound_to 6896
  150.8021  133.8504  159.3245 H   0  0  0  0  0  0  0  0  0  0  0  0  # atno 6909 bound_to 6896
  146.1792  140.4191  142.8501 H   0  0  0  0  0  0  0  0  0  0  0  0  # atno 7974 bound_to 7965
  156.2085  140.3030  155.9680 H   0  0  0  0  0  0  0  0  0  0  0  0  # atno 8008 bound_to 7997
  155.2782  140.0436  157.3030 H   0  0  0  0  0  0  0  0  0  0  0  0  # atno 8009 bound_to 7997
  154.5666  140.2336  155.8262 H   0  0  0  0  0  0  0  0  0  0  0  0  # atno 8010 bound_to 7997
  140.3992  144.1747  150.6133 H   0  0  0  0  0  0  0  0  0  0  0  0  # atno 10167 bound_to 10162
  156.8006  130.9551  151.3118 H   0  0  0  0  0  0  0  0  0  0  0  0  # atno 10718 bound_to 10713
  154.8756  135.3923  154.3783 H   0  0  0  0  0  0  0  0  0  0  0  0  # atno 10763 bound_to 10752
  153.4534  135.7028  153.6100 H   0  0  0  0  0  0  0  0  0  0  0  0  # atno 10764 bound_to 10752
  153.4630  135.3808  155.2317 H   0  0  0  0  0  0  0  0  0  0  0  0  # atno 10765 bound_to 10752
  140.8682  134.2084  157.4667 H   0  0  0  0  0  0  0  0  0  0  0  0  # atno 11005 bound_to 11000
  144.8287  140.6670  143.6305 LP  0  0  0  0  0  0  0  0  0  0  0  0  # atno 17320 bound_to 7965
  145.4125  139.1577  143.4118 LP  0  0  0  0  0  0  0  0  0  0  0  0  # atno 17321 bound_to 7965
  140.4758  143.2396  151.9025 LP  0  0  0  0  0  0  0  0  0  0  0  0  # atno 17342 bound_to 10162
  139.4785  144.5322  151.8650 LP  0  0  0  0  0  0  0  0  0  0  0  0  # atno 17343 bound_to 10162
  157.6556  130.8921  149.9721 LP  0  0  0  0  0  0  0  0  0  0  0  0  # atno 17370 bound_to 10713
  156.1104  130.3650  150.0060 LP  0  0  0  0  0  0  0  0  0  0  0  0  # atno 17371 bound_to 10713
  139.8710  134.9762  156.4910 LP  0  0  0  0  0  0  0  0  0  0  0  0  # atno 17394 bound_to 11000
  140.8604  133.8064  155.9259 LP  0  0  0  0  0  0  0  0  0  0  0  0  # atno 17395 bound_to 11000

$$$$
