AV-unprocessed.smi:1964|AV-procd|sdf|7928|dock9
  -GOLD-   2272010103D 1   1.00000     0.00000
 Structure written by MMmdl.
 46 48  0  0  0  0  0  0  0  0  1 V2000
  153.7579  141.2408  160.6807 C   0  0  0  0  0  0  0  0  0  0  0  0
  153.1201  142.4567  159.9847 C   0  0  2  0  0  0  0  0  0  0  0  0
  152.7025  143.5169  161.0243 C   0  0  0  0  0  0  0  0  0  0  0  0
  152.0750  144.7527  160.3616 C   0  0  0  0  0  0  0  0  0  0  0  0
  150.8775  144.3600  159.4858 C   0  0  0  0  0  0  0  0  0  0  0  0
  151.2812  143.3141  158.4367 C   0  0  0  0  0  0  0  0  0  0  0  0
  151.9168  142.0678  159.0895 C   0  0  1  0  0  0  0  0  0  0  0  0
  152.3359  141.1240  158.0555 N   0  0  0  0  0  0  0  0  0  0  0  0
  152.2721  139.7873  158.1488 C   0  0  0  0  0  0  0  0  0  0  0  0
  151.8296  139.2005  159.1376 O   0  0  0  0  0  0  0  0  0  0  0  0
  152.7933  139.0097  156.9304 C   0  0  0  0  0  0  0  0  0  0  0  0
  151.7209  138.4020  156.1123 N   0  0  0  0  0  0  0  0  0  0  0  0
  151.6057  136.9886  156.0850 C   0  0  0  0  0  0  0  0  0  0  0  0
  152.3632  136.2768  156.7466 O   0  0  0  0  0  0  0  0  0  0  0  0
  150.5538  136.4599  155.2195 C   0  0  0  0  0  0  0  0  0  0  0  0
  150.4252  135.0425  155.1428 C   0  0  0  0  0  0  0  0  0  0  0  0
  150.3059  133.8921  155.1002 N   0  0  0  0  0  0  0  0  0  0  0  0
  149.7470  137.2861  154.5221 C   0  0  0  0  0  0  0  0  0  0  0  0
  149.8517  138.6582  154.5920 N   0  0  0  0  0  0  0  0  0  0  0  0
  149.0931  139.5127  153.7226 C   0  0  0  0  0  0  0  0  0  0  0  0
  148.3555  140.7127  154.2837 C   0  0  0  0  0  0  0  0  0  0  0  0
  147.5831  139.5031  153.8175 C   0  0  0  0  0  0  0  0  0  0  0  0
  150.8810  139.2532  155.3538 C   0  0  0  0  0  0  0  0  0  0  0  0
  151.0527  140.4749  155.3507 O   0  0  0  0  0  0  0  0  0  0  0  0
  153.0381  140.7291  161.3202 H   0  0  0  0  0  0  0  0  0  0  0  0
  154.5986  141.5454  161.3048 H   0  0  0  0  0  0  0  0  0  0  0  0
  154.1382  140.5156  159.9611 H   0  0  0  0  0  0  0  0  0  0  0  0
  153.8843  142.9050  159.3474 H   0  0  0  0  0  0  0  0  0  0  0  0
  151.9901  143.0823  161.7272 H   0  0  0  0  0  0  0  0  0  0  0  0
  153.5678  143.8224  161.6137 H   0  0  0  0  0  0  0  0  0  0  0  0
  151.7592  145.4639  161.1254 H   0  0  0  0  0  0  0  0  0  0  0  0
  152.8231  145.2631  159.7536 H   0  0  0  0  0  0  0  0  0  0  0  0
  150.0801  143.9594  160.1130 H   0  0  0  0  0  0  0  0  0  0  0  0
  150.4703  145.2436  158.9934 H   0  0  0  0  0  0  0  0  0  0  0  0
  150.4037  143.0294  157.8549 H   0  0  0  0  0  0  0  0  0  0  0  0
  151.9844  143.7614  157.7326 H   0  0  0  0  0  0  0  0  0  0  0  0
  151.1679  141.5870  159.7225 H   0  0  0  0  0  0  0  0  0  0  0  0
  152.7137  141.5202  157.2070 H   0  0  0  0  0  0  0  0  0  0  0  0
  153.4104  139.6795  156.3293 H   0  0  0  0  0  0  0  0  0  0  0  0
  153.4939  138.2500  157.2811 H   0  0  0  0  0  0  0  0  0  0  0  0
  148.9845  136.8583  153.8870 H   0  0  0  0  0  0  0  0  0  0  0  0
  149.5023  139.6348  152.7212 H   0  0  0  0  0  0  0  0  0  0  0  0
  148.3985  140.8896  155.3568 H   0  0  0  0  0  0  0  0  0  0  0  0
  148.3123  141.6073  153.6658 H   0  0  0  0  0  0  0  0  0  0  0  0
  147.0220  139.5922  152.8897 H   0  0  0  0  0  0  0  0  0  0  0  0
  147.1210  138.8823  154.5828 H   0  0  0  0  0  0  0  0  0  0  0  0
  1  2  1  0  0  0  0
  1 25  1  0  0  0  0
  1 26  1  0  0  0  0
  1 27  1  0  0  0  0
  2  7  1  0  0  0  0
  2  3  1  0  0  0  0
  2 28  1  0  0  0  0
  3  4  1  0  0  0  0
  3 29  1  0  0  0  0
  3 30  1  0  0  0  0
  4  5  1  0  0  0  0
  4 31  1  0  0  0  0
  4 32  1  0  0  0  0
  5  6  1  0  0  0  0
  5 33  1  0  0  0  0
  5 34  1  0  0  0  0
  6  7  1  0  0  0  0
  6 35  1  0  0  0  0
  6 36  1  0  0  0  0
  7  8  1  0  0  0  0
  7 37  1  0  0  0  0
  8  9  1  0  0  0  0
  8 38  1  0  0  0  0
  9 10  2  0  0  0  0
  9 11  1  0  0  0  0
 11 12  1  0  0  0  0
 11 39  1  0  0  0  0
 11 40  1  0  0  0  0
 12 23  1  0  0  0  0
 12 13  1  0  0  0  0
 13 14  2  0  0  0  0
 13 15  1  0  0  0  0
 15 16  1  0  0  0  0
 15 18  2  0  0  0  0
 16 17  3  0  0  0  0
 18 19  1  0  0  0  0
 18 41  1  0  0  0  0
 19 20  1  0  0  0  0
 19 23  1  0  0  0  0
 20 22  1  0  0  0  0
 20 21  1  0  0  0  0
 20 42  1  0  0  0  0
 21 22  1  0  0  0  0
 21 43  1  0  0  0  0
 21 44  1  0  0  0  0
 22 45  1  0  0  0  0
 22 46  1  0  0  0  0
 23 24  2  0  0  0  0
M  END
> <s_m_source_file>
AV-unprocessed.smi

> <i_m_source_file_index>
1964

> <i_lp_mmshare_version>
43012

> <i_f3d_flags>
0

> <s_epik_input>
W0NIM11bQ0BASF0xW0NIMl1bQ0gyXVtDSDJdW0NIMl1bQ0BIXTFbTkhdQyg9TylbQ0gyXW4yYyg9TyljKEMjTilbY0hdbihjMj1PKVtDSF0zW0NIMl1bQ0gyXTM=

> <s_epik_cmdline>
J2VwaWtfcHl0aG9uJywgJy1waCcsICc3LjAnLCAnLXRuJywgJzgnLCAnLW1hJywgJzIwMCcsICctbWV0YWxfYmluZGluZycsICctaW1hZScsICc8aW5maWxlLm1hZT4nLCAnLW9tYWUnLCAnPG91dGZpbGUubWFlPic=

> <r_lp_tautomer_probability>
1

> <r_epik_Ionization_Penalty>
1.91372e-08

> <r_epik_Ionization_Penalty_Charging>
9.0283e-11

> <r_epik_Ionization_Penalty_Neutral>
1.90469e-08

> <r_epik_State_Penalty>
-0

> <r_epik_Charging_Adjusted_Penalty>
9.0283e-11

> <i_epik_Tot_Q>
0

> <i_epik_Tot_abs_Q>
0

> <r_epik_Metal_State_Penalty>
-0

> <b_epik_Metal_Only>
0

> <s_lp_Force_Field>
OPLS_2005

> <r_lp_Energy>
35.656

> <b_lp_Chiralities_Consistent>
1

> <s_lp_Variant>
AV-unprocessed.smi:1964-1

> <Gold.Version>
5.8.1

> <Gold.Id.Protein>
6NUR|6NUR_protein|mol2

> <Gold.PLP.Fitness>
47.7427

> <Gold.PLP.PLP>
-40.0958

> <Gold.PLP.part.hbond>
-2.0000

> <Gold.PLP.part.metal>
0.0000

> <Gold.PLP.part.buried>
1.5385

> <Gold.PLP.part.nonpolar>
-40.5210

> <Gold.PLP.part.repulsive>
0.2110

> <Gold.PLP.ligand.clash>
0.0000

> <Gold.PLP.ligand.torsion>
0.7073

> <Gold.PLP.Chemscore.Hbond>
1.9510

> <Gold.PLP.Chemscore.CHOScore>
0.9975

> <Gold.PLP.Chemscore.Metal>
0.0000

> <Gold.Chemscore.Hbonds>
donor molecule, donor type, donor heavy atom, donor atom, acceptor molecule, acceptor atom, score
      P1  H  7989  7998       L1    24  0.96
      P1  H 10752 10764       L1    14  1.00
      L1  C    18    41       P1  7948  1.00

> <Gold.PLP.Chemscore.Internal.Correction>
0.2160

> <Gold.Rescore>
     Score         DG    S(hbond)    S(metal)    S(lipo)     H(rot)  DE(clash)    DE(int)     intcor
     15.64     -19.04       1.74        0.00     103.49       1.70       1.68       1.72       ----

> <Gold.Chemscore.Fitness>
15.6359

> <Gold.Chemscore.DG>
-19.0380

> <Gold.Chemscore.ZeroCoef>
-5.4800

> <Gold.Chemscore.Hbond>
1.7399

> <Gold.Chemscore.Metal>
0.0000

> <Gold.Chemscore.Lipo>
103.4905

> <Gold.Chemscore.Internal_Hbond>
0.0000

> <Gold.Chemscore.DEClash>
1.6827

> <Gold.Chemscore.DEInternal>
1.7193

> <Gold.Chemscore.Rot>
1.7038

> <Gold.Chemscore.Internal.Correction>
   9.000000E+99

> <Gold.Chemscore.Hbonds>
donor molecule, donor type, donor heavy atom, donor atom, acceptor molecule, acceptor atom, score
      P1  H  7989  7998       L1    24  0.45
      P1  H 10752 10764       L1    14  0.29

> <Gold.Chemscore.Hbond.Weighted>
-5.8113

> <Gold.Chemscore.Metal.Weighted>
-0.0000

> <Gold.Chemscore.Lipo.Weighted>
-12.1084

> <Gold.Chemscore.Internal_Hbond.Weighted>
0.0000

> <Gold.Chemscore.DEClash.Weighted>
1.6827

> <Gold.Chemscore.DEInternal.Weighted>
1.7193

> <Gold.Chemscore.Rot.Weighted>
4.3618

> <Gold.Chemscore.Internal.Correction.Weighted>
   9.000000E+99

> <Gold.Protein.RotatedTorsions>
[ 6907 6896 6895 6894 ] final -123.35 input  -60.11 | X-H torsion
[ 7974 7965 7964 7962 ] final  -90.22 input  175.53 | X-H torsion
[ 8008 7997 7996 7995 ] final  -75.95 input   59.86 | X-H torsion
[ 10167 10162 10161 10158 ] final   57.98 input  -65.29 | X-H torsion
[ 10718 10713 10712 10709 ] final -100.37 input   66.30 | X-H torsion
[ 10763 10752 10751 10750 ] final   -8.43 input  -60.55 | X-H torsion
[ 11005 11000 10999 10996 ] final   -0.38 input  -57.11 | X-H torsion

> <Gold.Protein.ActiveResidues>
 VAL166  LYS551  ARG553  GLY616  TRP617  ASP618  TYR619  PRO620  LYS621  CYS622 
 ASP623  PHE694  ASN695  SER759  ASP760  ASP761  ALA762  ILE779  LEU786  VAL792 
 PHE793  MET794  SER795  GLU796  ALA797  LYS798  CYS799  TRP800  GLU811  SER814 

> <Gold.Protein.RotatedAtoms>
  150.8662  133.7571  159.2975 H   0  0  0  0  0  0  0  0  0  0  0  0  # atno 6907 bound_to 6896
  151.5198  135.1065  159.9885 H   0  0  0  0  0  0  0  0  0  0  0  0  # atno 6908 bound_to 6896
  152.4662  133.7885  159.6945 H   0  0  0  0  0  0  0  0  0  0  0  0  # atno 6909 bound_to 6896
  145.4293  140.9555  143.2137 H   0  0  0  0  0  0  0  0  0  0  0  0  # atno 7974 bound_to 7965
  154.5462  140.0735  156.8592 H   0  0  0  0  0  0  0  0  0  0  0  0  # atno 8008 bound_to 7997
  155.3083  140.3388  155.4226 H   0  0  0  0  0  0  0  0  0  0  0  0  # atno 8009 bound_to 7997
  156.1920  140.1689  156.8060 H   0  0  0  0  0  0  0  0  0  0  0  0  # atno 8010 bound_to 7997
  140.1922  144.4074  150.6566 H   0  0  0  0  0  0  0  0  0  0  0  0  # atno 10167 bound_to 10162
  156.0161  130.5324  150.6807 H   0  0  0  0  0  0  0  0  0  0  0  0  # atno 10718 bound_to 10713
  153.4403  135.7013  153.6173 H   0  0  0  0  0  0  0  0  0  0  0  0  # atno 10763 bound_to 10752
  153.4551  135.3749  155.2306 H   0  0  0  0  0  0  0  0  0  0  0  0  # atno 10764 bound_to 10752
  154.8727  135.4006  154.3801 H   0  0  0  0  0  0  0  0  0  0  0  0  # atno 10765 bound_to 10752
  140.6357  133.9535  155.8298 H   0  0  0  0  0  0  0  0  0  0  0  0  # atno 11005 bound_to 11000
  144.8193  139.5820  143.6994 LP  0  0  0  0  0  0  0  0  0  0  0  0  # atno 17320 bound_to 7965
  146.2615  139.6422  142.9358 LP  0  0  0  0  0  0  0  0  0  0  0  0  # atno 17321 bound_to 7965
  140.6448  143.2211  151.6210 LP  0  0  0  0  0  0  0  0  0  0  0  0  # atno 17342 bound_to 10162
  139.5251  144.3083  152.1014 LP  0  0  0  0  0  0  0  0  0  0  0  0  # atno 17343 bound_to 10162
  157.4510  131.0872  151.0846 LP  0  0  0  0  0  0  0  0  0  0  0  0  # atno 17370 bound_to 10713
  157.1362  130.6123  149.5542 LP  0  0  0  0  0  0  0  0  0  0  0  0  # atno 17371 bound_to 10713
  141.0643  134.0299  157.3615 LP  0  0  0  0  0  0  0  0  0  0  0  0  # atno 17394 bound_to 11000
  139.9099  135.0188  156.7647 LP  0  0  0  0  0  0  0  0  0  0  0  0  # atno 17395 bound_to 11000

$$$$
