AV-unprocessed.smi:460|AV-procd|sdf|2628|dock10
  -GOLD-   2262023 33D 1   1.00000     0.00000
 Structure written by MMmdl.
 47 49  0  0  0  0  0  0  0  0  2 V2000
  147.1366  140.7850  153.7860 C   0  0  0  0  0  0  0  0  0  0  0  0
  148.0366  140.8398  155.0307 C   0  0  0  0  0  0  0  0  0  0  0  0
  149.5130  141.1798  154.7347 C   0  0  2  0  0  0  0  0  0  0  0  0
  150.0800  140.1120  154.0069 O   0  0  0  0  0  0  0  0  0  0  0  0
  150.3025  141.4754  155.9755 C   0  0  0  0  0  0  0  0  0  0  0  0
  150.5567  142.7168  156.4813 N   0  3  0  0  0  0  0  0  0  0  0  0
  151.3155  142.6103  157.6460 C   0  0  0  0  0  0  0  0  0  0  0  0
  151.8260  143.5892  158.4926 C   0  0  0  0  0  0  0  0  0  0  0  0
  152.5675  143.1396  159.6047 C   0  0  0  0  0  0  0  0  0  0  0  0
  152.7770  141.7652  159.8397 C   0  0  0  0  0  0  0  0  0  0  0  0
  152.2522  140.7822  158.9748 C   0  0  0  0  0  0  0  0  0  0  0  0
  151.5178  141.2350  157.8783 C   0  0  0  0  0  0  0  0  0  0  0  0
  150.8554  140.5715  156.8381 N   0  0  0  0  0  0  0  0  0  0  0  0
  150.8484  139.1001  156.8241 C   0  0  0  0  0  0  0  0  0  0  0  0
  150.0619  138.5023  157.9986 C   0  0  0  0  0  0  0  0  0  0  0  0
  149.6346  137.1962  157.6411 O   0  0  0  0  0  0  0  0  0  0  0  0
  148.9998  136.4275  158.5924 C   0  0  0  0  0  0  0  0  0  0  0  0
  148.6507  136.9074  159.8793 C   0  0  0  0  0  0  0  0  0  0  0  0
  148.0132  136.0628  160.8061 C   0  0  0  0  0  0  0  0  0  0  0  0
  147.7203  134.7332  160.4587 C   0  0  0  0  0  0  0  0  0  0  0  0
  148.0620  134.2474  159.1833 C   0  0  0  0  0  0  0  0  0  0  0  0
  148.7024  135.0906  158.2403 C   0  0  0  0  0  0  0  0  0  0  0  0
  149.0518  134.6882  156.9677 O   0  0  0  0  0  0  0  0  0  0  0  0
  148.8128  133.3392  156.5965 C   0  0  0  0  0  0  0  0  0  0  0  0
  146.1344  140.4470  154.0506 H   0  0  0  0  0  0  0  0  0  0  0  0
  147.5290  140.0972  153.0393 H   0  0  0  0  0  0  0  0  0  0  0  0
  147.0367  141.7621  153.3142 H   0  0  0  0  0  0  0  0  0  0  0  0
  147.6215  141.5654  155.7315 H   0  0  0  0  0  0  0  0  0  0  0  0
  147.9908  139.8741  155.5358 H   0  0  0  0  0  0  0  0  0  0  0  0
  149.5374  142.0538  154.0856 H   0  0  0  0  0  0  0  0  0  0  0  0
  149.6360  140.0481  153.1750 H   0  0  0  0  0  0  0  0  0  0  0  0
  151.6674  144.6424  158.3128 H   0  0  0  0  0  0  0  0  0  0  0  0
  152.9846  143.8630  160.2902 H   0  0  0  0  0  0  0  0  0  0  0  0
  153.3518  141.4581  160.7014 H   0  0  0  0  0  0  0  0  0  0  0  0
  152.4220  139.7330  159.1649 H   0  0  0  0  0  0  0  0  0  0  0  0
  150.4411  138.7574  155.8730 H   0  0  0  0  0  0  0  0  0  0  0  0
  151.8834  138.7579  156.8476 H   0  0  0  0  0  0  0  0  0  0  0  0
  150.6855  138.4748  158.8934 H   0  0  0  0  0  0  0  0  0  0  0  0
  149.1959  139.1319  158.2088 H   0  0  0  0  0  0  0  0  0  0  0  0
  148.8679  137.9204  160.1814 H   0  0  0  0  0  0  0  0  0  0  0  0
  147.7512  136.4355  161.7854 H   0  0  0  0  0  0  0  0  0  0  0  0
  147.2316  134.0846  161.1709 H   0  0  0  0  0  0  0  0  0  0  0  0
  147.8174  133.2223  158.9505 H   0  0  0  0  0  0  0  0  0  0  0  0
  149.1749  133.1785  155.5813 H   0  0  0  0  0  0  0  0  0  0  0  0
  147.7475  133.1049  156.6080 H   0  0  0  0  0  0  0  0  0  0  0  0
  149.3442  132.6453  157.2491 H   0  0  0  0  0  0  0  0  0  0  0  0
  150.2387  143.5742  156.0484 H   0  0  0  0  0  0  0  0  0  0  0  0
  1  2  1  0  0  0  0
  1 25  1  0  0  0  0
  1 26  1  0  0  0  0
  1 27  1  0  0  0  0
  2  3  1  0  0  0  0
  2 28  1  0  0  0  0
  2 29  1  0  0  0  0
  3  4  1  0  0  0  0
  3  5  1  0  0  0  0
  3 30  1  0  0  0  0
  4 31  1  0  0  0  0
  5 13  1  0  0  0  0
  5  6  2  0  0  0  0
  6  7  1  0  0  0  0
  6 47  1  0  0  0  0
  7 12  2  0  0  0  0
  7  8  1  0  0  0  0
  8  9  2  0  0  0  0
  8 32  1  0  0  0  0
  9 10  1  0  0  0  0
  9 33  1  0  0  0  0
 10 11  2  0  0  0  0
 10 34  1  0  0  0  0
 11 12  1  0  0  0  0
 11 35  1  0  0  0  0
 12 13  1  0  0  0  0
 13 14  1  0  0  0  0
 14 15  1  0  0  0  0
 14 36  1  0  0  0  0
 14 37  1  0  0  0  0
 15 16  1  0  0  0  0
 15 38  1  0  0  0  0
 15 39  1  0  0  0  0
 16 17  1  0  0  0  0
 17 22  1  0  0  0  0
 17 18  2  0  0  0  0
 18 19  1  0  0  0  0
 18 40  1  0  0  0  0
 19 20  2  0  0  0  0
 19 41  1  0  0  0  0
 20 21  1  0  0  0  0
 20 42  1  0  0  0  0
 21 22  2  0  0  0  0
 21 43  1  0  0  0  0
 22 23  1  0  0  0  0
 23 24  1  0  0  0  0
 24 44  1  0  0  0  0
 24 45  1  0  0  0  0
 24 46  1  0  0  0  0
M  CHG  1   6   1
M  END
> <s_m_source_file>
AV-unprocessed.smi

> <i_m_source_file_index>
460

> <i_lp_mmshare_version>
43012

> <i_f3d_flags>
0

> <s_epik_input>
W2NIXTFbY0hdW2NIXVtjSF1jKGMxMiluKGMobjIpW0NAQEhdKFtPSF0pW0NIMl1bQ0gzXSlbQ0gyXVtDSDJdT2MzW2NIXVtjSF1bY0hdW2NIXWMzT1tDSDNd

> <s_epik_cmdline>
J2VwaWtfcHl0aG9uJywgJy1waCcsICc3LjAnLCAnLXRuJywgJzgnLCAnLW1hJywgJzIwMCcsICctbWV0YWxfYmluZGluZycsICctaW1hZScsICc8aW5maWxlLm1hZT4nLCAnLW9tYWUnLCAnPG91dGZpbGUubWFlPic=

> <r_lp_tautomer_probability>
1

> <r_epik_Ionization_Penalty>
1.48085

> <r_epik_Ionization_Penalty_Charging>
1.48083

> <r_epik_Ionization_Penalty_Neutral>
1.80167e-05

> <r_epik_State_Penalty>
1.56944

> <r_epik_Charging_Adjusted_Penalty>
3.05027

> <i_epik_Tot_Q>
1

> <i_epik_Tot_abs_Q>
1

> <r_epik_Metal_State_Penalty>
5.61877

> <b_epik_Metal_Only>
0

> <s_lp_Force_Field>
OPLS_2005

> <r_lp_Energy>
23.3046

> <b_lp_Chiralities_Consistent>
1

> <s_lp_Variant>
AV-unprocessed.smi:460-3

> <Gold.Version>
5.8.1

> <Gold.Id.Protein>
6NUR|6NUR_protein|mol2

> <Gold.PLP.Fitness>
52.6102

> <Gold.PLP.PLP>
-42.5491

> <Gold.PLP.part.hbond>
-3.0000

> <Gold.PLP.part.metal>
0.0000

> <Gold.PLP.part.buried>
-5.6656

> <Gold.PLP.part.nonpolar>
-35.1316

> <Gold.PLP.part.repulsive>
0.0746

> <Gold.PLP.ligand.clash>
0.0000

> <Gold.PLP.ligand.torsion>
0.8518

> <Gold.PLP.Chemscore.Hbond>
3.8960

> <Gold.PLP.Chemscore.CHOScore>
0.0000

> <Gold.PLP.Chemscore.Metal>
0.0000

> <Gold.Chemscore.Hbonds>
donor molecule, donor type, donor heavy atom, donor atom, acceptor molecule, acceptor atom, score
      L1  H     4    31       P1  7957  1.00
      L1  H     6    47       P1  8028  2.00
      P1  H  7989  7998       L1     4  0.85

> <Gold.PLP.Chemscore.Internal.Correction>
0.0767

> <Gold.Rescore>
     Score         DG    S(hbond)    S(metal)    S(lipo)     H(rot)  DE(clash)    DE(int)     intcor
     20.29     -20.68       2.48        0.00     112.56       2.45       0.07       0.31       ----

> <Gold.Chemscore.Fitness>
20.2904

> <Gold.Chemscore.DG>
-20.6760

> <Gold.Chemscore.ZeroCoef>
-5.4800

> <Gold.Chemscore.Hbond>
2.4809

> <Gold.Chemscore.Metal>
0.0000

> <Gold.Chemscore.Lipo>
112.5564

> <Gold.Chemscore.Internal_Hbond>
0.0000

> <Gold.Chemscore.DEClash>
0.0749

> <Gold.Chemscore.DEInternal>
0.3107

> <Gold.Chemscore.Rot>
2.4450

> <Gold.Chemscore.Internal.Correction>
   9.000000E+99

> <Gold.Chemscore.Hbonds>
donor molecule, donor type, donor heavy atom, donor atom, acceptor molecule, acceptor atom, score
      L1  H     4    31       P1  7957  0.92
      L1  H     6    47       P1  8028  0.94
      P1  H  7989  7998       L1     4  0.05

> <Gold.Chemscore.Hbond.Weighted>
-8.2861

> <Gold.Chemscore.Metal.Weighted>
-0.0000

> <Gold.Chemscore.Lipo.Weighted>
-13.1691

> <Gold.Chemscore.Internal_Hbond.Weighted>
0.0000

> <Gold.Chemscore.DEClash.Weighted>
0.0749

> <Gold.Chemscore.DEInternal.Weighted>
0.3107

> <Gold.Chemscore.Rot.Weighted>
6.2593

> <Gold.Chemscore.Internal.Correction.Weighted>
   9.000000E+99

> <Gold.Protein.RotatedTorsions>
[ 6907 6896 6895 6894 ] final   48.23 input  -60.11 | X-H torsion
[ 7974 7965 7964 7962 ] final  136.75 input  175.53 | X-H torsion
[ 8008 7997 7996 7995 ] final -112.70 input   59.86 | X-H torsion
[ 10167 10162 10161 10158 ] final -111.45 input  -65.29 | X-H torsion
[ 10718 10713 10712 10709 ] final -138.95 input   66.30 | X-H torsion
[ 10763 10752 10751 10750 ] final -171.74 input  -60.55 | X-H torsion
[ 11005 11000 10999 10996 ] final  -79.84 input  -57.11 | X-H torsion

> <Gold.Protein.ActiveResidues>
 VAL166  LYS551  ARG553  GLY616  TRP617  ASP618  TYR619  PRO620  LYS621  CYS622 
 ASP623  PHE694  ASN695  SER759  ASP760  ASP761  ALA762  ILE779  LEU786  VAL792 
 PHE793  MET794  SER795  GLU796  ALA797  LYS798  CYS799  TRP800  GLU811  SER814 

> <Gold.Protein.RotatedAtoms>
  152.2771  134.7869  160.0403 H   0  0  0  0  0  0  0  0  0  0  0  0  # atno 6907 bound_to 6896
  151.8461  133.3426  159.3666 H   0  0  0  0  0  0  0  0  0  0  0  0  # atno 6908 bound_to 6896
  150.7175  134.5272  159.5727 H   0  0  0  0  0  0  0  0  0  0  0  0  # atno 6909 bound_to 6896
  144.9535  139.4792  143.5514 H   0  0  0  0  0  0  0  0  0  0  0  0  # atno 7974 bound_to 7965
  155.0093  140.0393  157.2392 H   0  0  0  0  0  0  0  0  0  0  0  0  # atno 8008 bound_to 7997
  154.7474  140.2760  155.6298 H   0  0  0  0  0  0  0  0  0  0  0  0  # atno 8009 bound_to 7997
  156.2878  140.2653  156.2219 H   0  0  0  0  0  0  0  0  0  0  0  0  # atno 8010 bound_to 7997
  140.1334  143.4341  152.1612 H   0  0  0  0  0  0  0  0  0  0  0  0  # atno 10167 bound_to 10162
  156.3052  130.7451  151.1513 H   0  0  0  0  0  0  0  0  0  0  0  0  # atno 10718 bound_to 10713
  154.6271  135.2882  155.0259 H   0  0  0  0  0  0  0  0  0  0  0  0  # atno 10763 bound_to 10752
  154.1433  135.6515  153.4951 H   0  0  0  0  0  0  0  0  0  0  0  0  # atno 10764 bound_to 10752
  153.0262  135.5338  154.7084 H   0  0  0  0  0  0  0  0  0  0  0  0  # atno 10765 bound_to 10752
  141.1668  133.7124  156.8184 H   0  0  0  0  0  0  0  0  0  0  0  0  # atno 11005 bound_to 11000
  146.3329  139.8636  142.8852 LP  0  0  0  0  0  0  0  0  0  0  0  0  # atno 17320 bound_to 7965
  145.2808  141.0138  143.3718 LP  0  0  0  0  0  0  0  0  0  0  0  0  # atno 17321 bound_to 7965
  139.5508  144.7336  151.4441 LP  0  0  0  0  0  0  0  0  0  0  0  0  # atno 17342 bound_to 10162
  140.6803  143.8096  150.7113 LP  0  0  0  0  0  0  0  0  0  0  0  0  # atno 17343 bound_to 10162
  157.7378  131.0548  150.5335 LP  0  0  0  0  0  0  0  0  0  0  0  0  # atno 17370 bound_to 10713
  156.5467  130.4221  149.6127 LP  0  0  0  0  0  0  0  0  0  0  0  0  # atno 17371 bound_to 10713
  140.2137  134.8808  157.3302 LP  0  0  0  0  0  0  0  0  0  0  0  0  # atno 17394 bound_to 11000
  140.2060  134.4197  155.7637 LP  0  0  0  0  0  0  0  0  0  0  0  0  # atno 17395 bound_to 11000

$$$$
