AV-unprocessed.smi:2562|AV-procd|sdf|10047|dock4
  -GOLD-   2272014 93D 1   1.00000     0.00000
 Structure written by MMmdl.
 30 31  0  0  0  0  0  0  0  0  1 V2000
  152.9140  142.3219  160.1794 C   0  0  0  0  0  0  0  0  0  0  0  0
  153.1106  143.6339  159.4116 C   0  0  0  0  0  0  0  0  0  0  0  0
  151.8680  144.0358  158.6044 C   0  0  0  0  0  0  0  0  0  0  0  0
  151.4037  142.9548  157.6838 C   0  0  0  0  0  0  0  0  0  0  0  0
  150.4445  143.1526  156.7775 N   0  0  0  0  0  0  0  0  0  0  0  0
  150.2439  142.0129  156.0831 N   0  0  0  0  0  0  0  0  0  0  0  0
  151.1186  141.1825  156.6505 C   0  0  0  0  0  0  0  0  0  0  0  0
  151.2694  139.7759  156.1588 C   0  0  1  0  0  0  0  0  0  0  0  0
  150.3066  139.4582  154.9980 C   0  0  0  0  0  0  0  0  0  0  0  0
  150.5548  138.1095  154.4901 N   0  0  0  0  0  0  0  0  0  0  0  0
  151.9554  137.9395  154.1052 C   0  0  0  0  0  0  0  0  0  0  0  0
  152.8833  138.3036  155.2785 C   0  0  0  0  0  0  0  0  0  0  0  0
  152.6147  139.6341  155.7076 O   0  0  0  0  0  0  0  0  0  0  0  0
  151.8927  141.7204  157.6439 N   0  0  0  0  0  0  0  0  0  0  0  0
  149.9295  144.0036  156.6024 H   0  0  0  0  0  0  0  0  0  0  0  0
  153.8094  142.0649  160.7457 H   0  0  0  0  0  0  0  0  0  0  0  0
  152.7024  141.4960  159.4998 H   0  0  0  0  0  0  0  0  0  0  0  0
  152.0853  142.3983  160.8837 H   0  0  0  0  0  0  0  0  0  0  0  0
  153.3617  144.4279  160.1159 H   0  0  0  0  0  0  0  0  0  0  0  0
  153.9656  143.5324  158.7422 H   0  0  0  0  0  0  0  0  0  0  0  0
  151.0497  144.2882  159.2802 H   0  0  0  0  0  0  0  0  0  0  0  0
  152.0751  144.9331  158.0196 H   0  0  0  0  0  0  0  0  0  0  0  0
  151.0936  139.0928  156.9925 H   0  0  0  0  0  0  0  0  0  0  0  0
  149.2724  139.5489  155.3309 H   0  0  0  0  0  0  0  0  0  0  0  0
  150.4431  140.1851  154.1963 H   0  0  0  0  0  0  0  0  0  0  0  0
  149.9582  137.9334  153.6881 H   0  0  0  0  0  0  0  0  0  0  0  0
  152.1350  136.9113  153.7905 H   0  0  0  0  0  0  0  0  0  0  0  0
  152.1838  138.5743  153.2484 H   0  0  0  0  0  0  0  0  0  0  0  0
  152.7566  137.6065  156.1084 H   0  0  0  0  0  0  0  0  0  0  0  0
  153.9254  138.2395  154.9653 H   0  0  0  0  0  0  0  0  0  0  0  0
  1  2  1  0  0  0  0
  1 16  1  0  0  0  0
  1 17  1  0  0  0  0
  1 18  1  0  0  0  0
  2  3  1  0  0  0  0
  2 19  1  0  0  0  0
  2 20  1  0  0  0  0
  3 21  1  0  0  0  0
  3 22  1  0  0  0  0
  3  4  1  0  0  0  0
  4 14  2  0  0  0  0
  4  5  1  0  0  0  0
  5  6  1  0  0  0  0
  5 15  1  0  0  0  0
  6  7  2  0  0  0  0
  7 14  1  0  0  0  0
  7  8  1  0  0  0  0
  8 13  1  0  0  0  0
  8  9  1  0  0  0  0
  8 23  1  0  0  0  0
  9 10  1  0  0  0  0
  9 24  1  0  0  0  0
  9 25  1  0  0  0  0
 10 11  1  0  0  0  0
 10 26  1  0  0  0  0
 11 12  1  0  0  0  0
 11 27  1  0  0  0  0
 11 28  1  0  0  0  0
 12 13  1  0  0  0  0
 12 29  1  0  0  0  0
 12 30  1  0  0  0  0
M  END
> <s_m_source_file>
AV-unprocessed.smi

> <i_m_source_file_index>
2562

> <i_lp_mmshare_version>
43012

> <i_f3d_flags>
0

> <s_epik_input>
W0NIM11bQ0gyXVtDSDJdYzFuW25IXWMobjEpW0NAQEhdMltDSDJdW05IXVtDSDJdW0NIMl1PMg==

> <s_epik_cmdline>
J2VwaWtfcHl0aG9uJywgJy1waCcsICc3LjAnLCAnLXRuJywgJzgnLCAnLW1hJywgJzIwMCcsICctbWV0YWxfYmluZGluZycsICctaW1hZScsICc8aW5maWxlLm1hZT4nLCAnLW9tYWUnLCAnPG91dGZpbGUubWFlPic=

> <r_epik_Ionization_Penalty>
1.10136

> <r_epik_Ionization_Penalty_Charging>
0

> <r_epik_Ionization_Penalty_Neutral>
1.10136

> <r_epik_State_Penalty>
1.43987

> <r_epik_Charging_Adjusted_Penalty>
1.43987

> <i_epik_Tot_Q>
0

> <i_epik_Tot_abs_Q>
0

> <r_epik_Metal_State_Penalty>
1.55976

> <b_epik_Metal_Only>
0

> <s_lp_Force_Field>
OPLS_2005

> <r_lp_Energy>
12.0534

> <b_lp_Chiralities_Consistent>
1

> <s_lp_Variant>
AV-unprocessed.smi:2562-6

> <Gold.Version>
5.8.1

> <Gold.Id.Protein>
6NUR|6NUR_protein|mol2

> <Gold.PLP.Fitness>
35.2000

> <Gold.PLP.PLP>
-29.5022

> <Gold.PLP.part.hbond>
-1.7649

> <Gold.PLP.part.metal>
0.0000

> <Gold.PLP.part.buried>
-4.4651

> <Gold.PLP.part.nonpolar>
-24.7360

> <Gold.PLP.part.repulsive>
0.6858

> <Gold.PLP.ligand.clash>
0.0000

> <Gold.PLP.ligand.torsion>
0.0733

> <Gold.PLP.Chemscore.Hbond>
1.9440

> <Gold.PLP.Chemscore.CHOScore>
0.0000

> <Gold.PLP.Chemscore.Metal>
0.0000

> <Gold.Chemscore.Hbonds>
donor molecule, donor type, donor heavy atom, donor atom, acceptor molecule, acceptor atom, score
      L1  H     5    15       P1  8028  0.94
      P1  H  7997  8009       L1    13  1.00

> <Gold.PLP.Chemscore.Internal.Correction>
0.0124

> <Gold.Rescore>
     Score         DG    S(hbond)    S(metal)    S(lipo)     H(rot)  DE(clash)    DE(int)     intcor
     12.80     -14.50       1.55        0.00      65.19       1.48       0.15       1.54       ----

> <Gold.Chemscore.Fitness>
12.8019

> <Gold.Chemscore.DG>
-14.4960

> <Gold.Chemscore.ZeroCoef>
-5.4800

> <Gold.Chemscore.Hbond>
1.5477

> <Gold.Chemscore.Metal>
0.0000

> <Gold.Chemscore.Lipo>
65.1917

> <Gold.Chemscore.Internal_Hbond>
0.0000

> <Gold.Chemscore.DEClash>
0.1524

> <Gold.Chemscore.DEInternal>
1.5417

> <Gold.Chemscore.Rot>
1.4769

> <Gold.Chemscore.Internal.Correction>
   9.000000E+99

> <Gold.Chemscore.Hbonds>
donor molecule, donor type, donor heavy atom, donor atom, acceptor molecule, acceptor atom, score
      L1  H     5    15       P1  8028  0.87
      P1  H  7997  8009       L1    13  0.25

> <Gold.Chemscore.Hbond.Weighted>
-5.1693

> <Gold.Chemscore.Metal.Weighted>
-0.0000

> <Gold.Chemscore.Lipo.Weighted>
-7.6274

> <Gold.Chemscore.Internal_Hbond.Weighted>
0.0000

> <Gold.Chemscore.DEClash.Weighted>
0.1524

> <Gold.Chemscore.DEInternal.Weighted>
1.5417

> <Gold.Chemscore.Rot.Weighted>
3.7808

> <Gold.Chemscore.Internal.Correction.Weighted>
   9.000000E+99

> <Gold.Protein.RotatedTorsions>
[ 6907 6896 6895 6894 ] final  113.53 input  -60.11 | X-H torsion
[ 7974 7965 7964 7962 ] final   72.38 input  175.53 | X-H torsion
[ 8008 7997 7996 7995 ] final -165.05 input   59.86 | X-H torsion
[ 10167 10162 10161 10158 ] final  -16.91 input  -65.29 | X-H torsion
[ 10718 10713 10712 10709 ] final  115.38 input   66.30 | X-H torsion
[ 10763 10752 10751 10750 ] final  141.33 input  -60.55 | X-H torsion
[ 11005 11000 10999 10996 ] final  -42.61 input  -57.11 | X-H torsion

> <Gold.Protein.ActiveResidues>
 VAL166  LYS551  ARG553  GLY616  TRP617  ASP618  TYR619  PRO620  LYS621  CYS622 
 ASP623  PHE694  ASN695  SER759  ASP760  ASP761  ALA762  ILE779  LEU786  VAL792 
 PHE793  MET794  SER795  GLU796  ALA797  LYS798  CYS799  TRP800  GLU811  SER814 

> <Gold.Protein.RotatedAtoms>
  152.4855  133.8362  159.7128 H   0  0  0  0  0  0  0  0  0  0  0  0  # atno 6907 bound_to 6896
  150.8938  133.7198  159.2904 H   0  0  0  0  0  0  0  0  0  0  0  0  # atno 6908 bound_to 6896
  151.4662  135.1046  159.9791 H   0  0  0  0  0  0  0  0  0  0  0  0  # atno 6909 bound_to 6896
  145.7541  139.2772  143.1414 H   0  0  0  0  0  0  0  0  0  0  0  0  # atno 7974 bound_to 7965
  155.8444  140.0953  157.1714 H   0  0  0  0  0  0  0  0  0  0  0  0  # atno 8008 bound_to 7997
  154.3983  140.1395  156.3829 H   0  0  0  0  0  0  0  0  0  0  0  0  # atno 8009 bound_to 7997
  155.8030  140.3452  155.5416 H   0  0  0  0  0  0  0  0  0  0  0  0  # atno 8010 bound_to 7997
  140.7240  143.5068  150.9799 H   0  0  0  0  0  0  0  0  0  0  0  0  # atno 10167 bound_to 10162
  157.6225  131.1011  150.7322 H   0  0  0  0  0  0  0  0  0  0  0  0  # atno 10718 bound_to 10713
  153.9374  135.2983  155.3444 H   0  0  0  0  0  0  0  0  0  0  0  0  # atno 10763 bound_to 10752
  154.7495  135.4987  153.9266 H   0  0  0  0  0  0  0  0  0  0  0  0  # atno 10764 bound_to 10752
  153.1060  135.6747  153.9692 H   0  0  0  0  0  0  0  0  0  0  0  0  # atno 10765 bound_to 10752
  141.0328  133.6813  156.2619 H   0  0  0  0  0  0  0  0  0  0  0  0  # atno 11005 bound_to 11000
  146.0328  140.8241  142.9867 LP  0  0  0  0  0  0  0  0  0  0  0  0  # atno 17320 bound_to 7965
  144.6844  140.2794  143.7294 LP  0  0  0  0  0  0  0  0  0  0  0  0  # atno 17321 bound_to 7965
  139.8780  143.7107  152.3160 LP  0  0  0  0  0  0  0  0  0  0  0  0  # atno 17342 bound_to 10162
  139.7380  144.7566  151.0697 LP  0  0  0  0  0  0  0  0  0  0  0  0  # atno 17343 bound_to 10162
  156.7676  130.4818  149.5424 LP  0  0  0  0  0  0  0  0  0  0  0  0  # atno 17370 bound_to 10713
  156.1378  130.6223  151.0425 LP  0  0  0  0  0  0  0  0  0  0  0  0  # atno 17371 bound_to 10713
  140.6377  134.5199  157.5566 LP  0  0  0  0  0  0  0  0  0  0  0  0  # atno 17394 bound_to 11000
  139.9219  134.8131  156.1184 LP  0  0  0  0  0  0  0  0  0  0  0  0  # atno 17395 bound_to 11000

$$$$
