AV-unprocessed.smi:3165|AV-procd|sdf|12092|dock1
  -GOLD-   2272017523D 1   1.00000     0.00000
 Structure written by MMmdl.
 37 38  0  0  0  0  0  0  0  0  1 V2000
  153.3704  140.4454  159.7633 C   0  0  0  0  0  0  0  0  0  0  0  0
  153.8668  141.6309  160.6063 C   0  0  1  0  0  0  0  0  0  0  0  0
  152.7403  142.6507  160.9129 C   0  0  0  0  0  0  0  0  0  0  0  0
  152.2049  143.3115  159.7328 N   0  0  0  0  0  0  0  0  0  0  0  0
  152.8701  144.0958  158.8133 C   0  0  0  0  0  0  0  0  0  0  0  0
  151.9552  144.4985  157.8832 C   0  0  0  0  0  0  0  0  0  0  0  0
  150.7400  143.9068  158.3276 C   0  0  0  0  0  0  0  0  0  0  0  0
  150.8915  143.2016  159.4366 N   0  0  0  0  0  0  0  0  0  0  0  0
  154.5293  141.1224  161.8124 N   0  0  0  0  0  0  0  0  0  0  0  0
  155.3821  139.9493  161.6210 C   0  0  0  0  0  0  0  0  0  0  0  0
  154.6931  138.6751  162.1314 C   0  0  1  0  0  0  0  0  0  0  0  0
  154.9778  137.4479  161.2406 C   0  0  0  0  0  0  0  0  0  0  0  0
  154.3431  136.1882  161.8407 C   0  0  0  0  0  0  0  0  0  0  0  0
  154.7961  136.0237  163.2949 C   0  0  0  0  0  0  0  0  0  0  0  0
  154.5386  137.3174  164.0838 C   0  0  0  0  0  0  0  0  0  0  0  0
  155.1849  138.4142  163.4440 O   0  0  0  0  0  0  0  0  0  0  0  0
  152.8756  140.7899  158.8549 H   0  0  0  0  0  0  0  0  0  0  0  0
  152.6626  139.8251  160.3142 H   0  0  0  0  0  0  0  0  0  0  0  0
  154.2007  139.8061  159.4618 H   0  0  0  0  0  0  0  0  0  0  0  0
  154.6130  142.1523  160.0055 H   0  0  0  0  0  0  0  0  0  0  0  0
  151.9201  142.1920  161.4657 H   0  0  0  0  0  0  0  0  0  0  0  0
  153.1331  143.4249  161.5731 H   0  0  0  0  0  0  0  0  0  0  0  0
  153.9283  144.2962  158.8947 H   0  0  0  0  0  0  0  0  0  0  0  0
  152.1275  145.1205  157.0177 H   0  0  0  0  0  0  0  0  0  0  0  0
  149.7585  143.9694  157.8812 H   0  0  0  0  0  0  0  0  0  0  0  0
  153.8330  140.9221  162.5230 H   0  0  0  0  0  0  0  0  0  0  0  0
  155.6454  139.8333  160.5689 H   0  0  0  0  0  0  0  0  0  0  0  0
  156.3167  140.0778  162.1666 H   0  0  0  0  0  0  0  0  0  0  0  0
  153.6175  138.8534  162.1928 H   0  0  0  0  0  0  0  0  0  0  0  0
  154.5946  137.6093  160.2325 H   0  0  0  0  0  0  0  0  0  0  0  0
  156.0548  137.3031  161.1460 H   0  0  0  0  0  0  0  0  0  0  0  0
  153.2562  136.2710  161.8014 H   0  0  0  0  0  0  0  0  0  0  0  0
  154.6132  135.3089  161.2555 H   0  0  0  0  0  0  0  0  0  0  0  0
  154.2758  135.1863  163.7605 H   0  0  0  0  0  0  0  0  0  0  0  0
  155.8602  135.7865  163.3225 H   0  0  0  0  0  0  0  0  0  0  0  0
  153.4690  137.5130  164.1729 H   0  0  0  0  0  0  0  0  0  0  0  0
  154.9289  137.2216  165.0971 H   0  0  0  0  0  0  0  0  0  0  0  0
  1  2  1  0  0  0  0
  1 17  1  0  0  0  0
  1 18  1  0  0  0  0
  1 19  1  0  0  0  0
  2  3  1  0  0  0  0
  2  9  1  0  0  0  0
  2 20  1  0  0  0  0
  3  4  1  0  0  0  0
  3 21  1  0  0  0  0
  3 22  1  0  0  0  0
  4  8  1  0  0  0  0
  4  5  1  0  0  0  0
  5  6  2  0  0  0  0
  5 23  1  0  0  0  0
  6  7  1  0  0  0  0
  6 24  1  0  0  0  0
  7  8  2  0  0  0  0
  7 25  1  0  0  0  0
  9 10  1  0  0  0  0
  9 26  1  0  0  0  0
 10 11  1  0  0  0  0
 10 27  1  0  0  0  0
 10 28  1  0  0  0  0
 11 16  1  0  0  0  0
 11 12  1  0  0  0  0
 11 29  1  0  0  0  0
 12 13  1  0  0  0  0
 12 30  1  0  0  0  0
 12 31  1  0  0  0  0
 13 14  1  0  0  0  0
 13 32  1  0  0  0  0
 13 33  1  0  0  0  0
 14 15  1  0  0  0  0
 14 34  1  0  0  0  0
 14 35  1  0  0  0  0
 15 16  1  0  0  0  0
 15 36  1  0  0  0  0
 15 37  1  0  0  0  0
M  END
> <s_m_source_file>
AV-unprocessed.smi

> <i_m_source_file_index>
3165

> <i_lp_mmshare_version>
43012

> <i_f3d_flags>
0

> <s_epik_input>
bjFbY0hdW2NIXVtjSF1uMVtDSDJdW0NAQEhdKFtDSDNdKVtOSF1bQ0gyXVtDQEBIXTJbQ0gyXVtDSDJdW0NIMl1bQ0gyXU8y

> <s_epik_cmdline>
J2VwaWtfcHl0aG9uJywgJy1waCcsICc3LjAnLCAnLXRuJywgJzgnLCAnLW1hJywgJzIwMCcsICctbWV0YWxfYmluZGluZycsICctaW1hZScsICc8aW5maWxlLm1hZT4nLCAnLW9tYWUnLCAnPG91dGZpbGUubWFlPic=

> <r_lp_tautomer_probability>
1

> <r_epik_Ionization_Penalty>
2.51982

> <r_epik_Ionization_Penalty_Charging>
0

> <r_epik_Ionization_Penalty_Neutral>
2.51982

> <r_epik_State_Penalty>
2.68614

> <r_epik_Charging_Adjusted_Penalty>
2.68614

> <i_epik_Tot_Q>
0

> <i_epik_Tot_abs_Q>
0

> <r_epik_Metal_State_Penalty>
2.6861

> <b_epik_Metal_Only>
0

> <s_lp_Force_Field>
OPLS_2005

> <r_lp_Energy>
14.4807

> <b_lp_Chiralities_Consistent>
1

> <s_lp_Variant>
AV-unprocessed.smi:3165-8

> <Gold.Version>
5.8.1

> <Gold.Id.Protein>
6NUR|6NUR_protein|mol2

> <Gold.PLP.Fitness>
41.5328

> <Gold.PLP.PLP>
-40.0054

> <Gold.PLP.part.hbond>
-1.1000

> <Gold.PLP.part.metal>
0.0000

> <Gold.PLP.part.buried>
-4.1692

> <Gold.PLP.part.nonpolar>
-34.6981

> <Gold.PLP.part.repulsive>
0.0398

> <Gold.PLP.ligand.clash>
0.0000

> <Gold.PLP.ligand.torsion>
0.9887

> <Gold.PLP.Chemscore.Hbond>
0.0000

> <Gold.PLP.Chemscore.CHOScore>
1.1195

> <Gold.PLP.Chemscore.Metal>
0.0000

> <Gold.Chemscore.Hbonds>
donor molecule, donor type, donor heavy atom, donor atom, acceptor molecule, acceptor atom, score
      L1  C     7    25       P1  8028  1.00
      L1  C     7    25       P1  8029  0.13

> <Gold.PLP.Chemscore.Internal.Correction>
0.1463

> <Gold.Rescore>
     Score         DG    S(hbond)    S(metal)    S(lipo)     H(rot)  DE(clash)    DE(int)     intcor
     13.51     -14.68       0.00        0.00     113.09       1.57       0.08       1.10       ----

> <Gold.Chemscore.Fitness>
13.5059

> <Gold.Chemscore.DG>
-14.6845

> <Gold.Chemscore.ZeroCoef>
-5.4800

> <Gold.Chemscore.Hbond>
0.0000

> <Gold.Chemscore.Metal>
0.0000

> <Gold.Chemscore.Lipo>
113.0921

> <Gold.Chemscore.Internal_Hbond>
0.0000

> <Gold.Chemscore.DEClash>
0.0825

> <Gold.Chemscore.DEInternal>
1.0961

> <Gold.Chemscore.Rot>
1.5731

> <Gold.Chemscore.Internal.Correction>
   9.000000E+99

> <Gold.Chemscore.Hbond.Weighted>
-0.0000

> <Gold.Chemscore.Metal.Weighted>
-0.0000

> <Gold.Chemscore.Lipo.Weighted>
-13.2318

> <Gold.Chemscore.Internal_Hbond.Weighted>
0.0000

> <Gold.Chemscore.DEClash.Weighted>
0.0825

> <Gold.Chemscore.DEInternal.Weighted>
1.0961

> <Gold.Chemscore.Rot.Weighted>
4.0273

> <Gold.Chemscore.Internal.Correction.Weighted>
   9.000000E+99

> <Gold.Protein.RotatedTorsions>
[ 6907 6896 6895 6894 ] final   51.45 input  -60.11 | X-H torsion
[ 7974 7965 7964 7962 ] final   41.99 input  175.53 | X-H torsion
[ 8008 7997 7996 7995 ] final  -95.16 input   59.86 | X-H torsion
[ 10167 10162 10161 10158 ] final  143.56 input  -65.29 | X-H torsion
[ 10718 10713 10712 10709 ] final  149.32 input   66.30 | X-H torsion
[ 10763 10752 10751 10750 ] final   33.89 input  -60.55 | X-H torsion
[ 11005 11000 10999 10996 ] final  -37.78 input  -57.11 | X-H torsion

> <Gold.Protein.ActiveResidues>
 VAL166  LYS551  ARG553  GLY616  TRP617  ASP618  TYR619  PRO620  LYS621  CYS622 
 ASP623  PHE694  ASN695  SER759  ASP760  ASP761  ALA762  ILE779  LEU786  VAL792 
 PHE793  MET794  SER795  GLU796  ALA797  LYS798  CYS799  TRP800  GLU811  SER814 

> <Gold.Protein.RotatedAtoms>
  152.3128  134.7476  160.0332 H   0  0  0  0  0  0  0  0  0  0  0  0  # atno 6907 bound_to 6896
  151.7951  133.3358  159.3518 H   0  0  0  0  0  0  0  0  0  0  0  0  # atno 6908 bound_to 6896
  150.7329  134.5736  159.5947 H   0  0  0  0  0  0  0  0  0  0  0  0  # atno 6909 bound_to 6896
  146.0778  139.5352  142.9556 H   0  0  0  0  0  0  0  0  0  0  0  0  # atno 7974 bound_to 7965
  154.7578  140.0482  157.0948 H   0  0  0  0  0  0  0  0  0  0  0  0  # atno 8008 bound_to 7997
  154.9976  140.3121  155.4861 H   0  0  0  0  0  0  0  0  0  0  0  0  # atno 8009 bound_to 7997
  156.2898  140.2207  156.5084 H   0  0  0  0  0  0  0  0  0  0  0  0  # atno 8010 bound_to 7997
  139.4967  144.6032  151.6436 H   0  0  0  0  0  0  0  0  0  0  0  0  # atno 10167 bound_to 10162
  157.2975  131.0865  151.1415 H   0  0  0  0  0  0  0  0  0  0  0  0  # atno 10718 bound_to 10713
  153.0190  135.6375  154.1582 H   0  0  0  0  0  0  0  0  0  0  0  0  # atno 10763 bound_to 10752
  154.1319  135.2840  155.3185 H   0  0  0  0  0  0  0  0  0  0  0  0  # atno 10764 bound_to 10752
  154.6188  135.5532  153.7614 H   0  0  0  0  0  0  0  0  0  0  0  0  # atno 10765 bound_to 10752
  140.9978  133.6971  156.1966 H   0  0  0  0  0  0  0  0  0  0  0  0  # atno 11005 bound_to 11000
  145.6274  141.0311  143.1882 LP  0  0  0  0  0  0  0  0  0  0  0  0  # atno 17320 bound_to 7965
  144.7273  139.7835  143.7360 LP  0  0  0  0  0  0  0  0  0  0  0  0  # atno 17321 bound_to 7965
  140.5687  144.0146  150.6205 LP  0  0  0  0  0  0  0  0  0  0  0  0  # atno 17342 bound_to 10162
  140.3256  143.3109  152.0739 LP  0  0  0  0  0  0  0  0  0  0  0  0  # atno 17343 bound_to 10162
  157.2787  130.6739  149.6055 LP  0  0  0  0  0  0  0  0  0  0  0  0  # atno 17370 bound_to 10713
  155.9670  130.4456  150.5509 LP  0  0  0  0  0  0  0  0  0  0  0  0  # atno 17371 bound_to 10713
  140.6938  134.4637  157.5588 LP  0  0  0  0  0  0  0  0  0  0  0  0  # atno 17394 bound_to 11000
  139.9023  134.8527  156.1844 LP  0  0  0  0  0  0  0  0  0  0  0  0  # atno 17395 bound_to 11000

$$$$
