AV-unprocessed.smi:3185|AV-procd|sdf|12166|dock2
  -GOLD-   2272018 03D 1   1.00000     0.00000
 Structure written by MMmdl.
 38 39  0  0  0  0  0  0  0  0  2 V2000
  151.8610  145.8307  159.2093 N   0  0  0  0  0  0  0  0  0  0  0  0
  151.6312  144.7036  159.3282 C   0  0  0  0  0  0  0  0  0  0  0  0
  151.3403  143.2702  159.4796 C   0  0  0  0  0  0  0  0  0  0  0  0
  150.4398  142.7308  158.3625 C   0  0  0  0  0  0  0  0  0  0  0  0
  151.2426  142.2631  157.1427 C   0  0  0  0  0  0  0  0  0  0  0  0
  150.4220  142.3305  155.9156 N   0  3  0  0  0  0  0  0  0  0  0  0
  149.1683  141.5402  155.9352 C   0  0  1  0  0  0  0  0  0  0  0  0
  148.3534  141.7009  154.6269 C   0  0  0  0  0  0  0  0  0  0  0  0
  147.0937  140.8202  154.6237 C   0  0  0  0  0  0  0  0  0  0  0  0
  147.4271  139.3491  154.9096 C   0  0  0  0  0  0  0  0  0  0  0  0
  148.1711  139.2081  156.2469 C   0  0  0  0  0  0  0  0  0  0  0  0
  149.4601  140.0545  156.2992 C   0  0  1  0  0  0  0  0  0  0  0  0
  150.5437  139.4223  155.5423 N   0  0  0  0  0  0  0  0  0  0  0  0
  151.8883  139.7310  155.6013 C   0  0  0  0  0  0  0  0  0  0  0  0
  152.5489  138.8771  154.7658 C   0  0  0  0  0  0  0  0  0  0  0  0
  151.5157  138.0528  154.2430 C   0  0  0  0  0  0  0  0  0  0  0  0
  150.3229  138.3763  154.7136 N   0  0  0  0  0  0  0  0  0  0  0  0
  152.2911  142.7367  159.4953 H   0  0  0  0  0  0  0  0  0  0  0  0
  150.8708  143.1266  160.4532 H   0  0  0  0  0  0  0  0  0  0  0  0
  149.8441  141.9024  158.7484 H   0  0  0  0  0  0  0  0  0  0  0  0
  149.7341  143.5069  158.0624 H   0  0  0  0  0  0  0  0  0  0  0  0
  152.1282  142.8884  157.0220 H   0  0  0  0  0  0  0  0  0  0  0  0
  151.5857  141.2415  157.3047 H   0  0  0  0  0  0  0  0  0  0  0  0
  150.1900  143.2948  155.7221 H   0  0  0  0  0  0  0  0  0  0  0  0
  148.5551  141.9376  156.7458 H   0  0  0  0  0  0  0  0  0  0  0  0
  148.0448  142.7382  154.4998 H   0  0  0  0  0  0  0  0  0  0  0  0
  148.9623  141.4677  153.7546 H   0  0  0  0  0  0  0  0  0  0  0  0
  146.3928  141.1853  155.3755 H   0  0  0  0  0  0  0  0  0  0  0  0
  146.5852  140.9055  153.6628 H   0  0  0  0  0  0  0  0  0  0  0  0
  146.5082  138.7628  154.9360 H   0  0  0  0  0  0  0  0  0  0  0  0
  148.0278  138.9385  154.0977 H   0  0  0  0  0  0  0  0  0  0  0  0
  147.5065  139.5201  157.0536 H   0  0  0  0  0  0  0  0  0  0  0  0
  148.3998  138.1588  156.4371 H   0  0  0  0  0  0  0  0  0  0  0  0
  149.7952  140.0499  157.3378 H   0  0  0  0  0  0  0  0  0  0  0  0
  152.2621  140.5273  156.2284 H   0  0  0  0  0  0  0  0  0  0  0  0
  153.6097  138.8406  154.5663 H   0  0  0  0  0  0  0  0  0  0  0  0
  151.5963  137.2331  153.5442 H   0  0  0  0  0  0  0  0  0  0  0  0
  150.9880  141.9819  155.1553 H   0  0  0  0  0  0  0  0  0  0  0  0
  1  2  3  0  0  0  0
  2  3  1  0  0  0  0
  3  4  1  0  0  0  0
  3 18  1  0  0  0  0
  3 19  1  0  0  0  0
  4  5  1  0  0  0  0
  4 20  1  0  0  0  0
  4 21  1  0  0  0  0
  5  6  1  0  0  0  0
  5 22  1  0  0  0  0
  5 23  1  0  0  0  0
  6  7  1  0  0  0  0
  6 24  1  0  0  0  0
  6 38  1  0  0  0  0
  7 12  1  0  0  0  0
  7  8  1  0  0  0  0
  7 25  1  0  0  0  0
  8  9  1  0  0  0  0
  8 26  1  0  0  0  0
  8 27  1  0  0  0  0
  9 10  1  0  0  0  0
  9 28  1  0  0  0  0
  9 29  1  0  0  0  0
 10 11  1  0  0  0  0
 10 30  1  0  0  0  0
 10 31  1  0  0  0  0
 11 12  1  0  0  0  0
 11 32  1  0  0  0  0
 11 33  1  0  0  0  0
 12 13  1  0  0  0  0
 12 34  1  0  0  0  0
 13 17  1  0  0  0  0
 13 14  1  0  0  0  0
 14 15  2  0  0  0  0
 14 35  1  0  0  0  0
 15 16  1  0  0  0  0
 15 36  1  0  0  0  0
 16 17  2  0  0  0  0
 16 37  1  0  0  0  0
M  CHG  1   6   1
M  END
> <s_m_source_file>
AV-unprocessed.smi

> <i_m_source_file_index>
3185

> <i_lp_mmshare_version>
43012

> <i_f3d_flags>
0

> <s_epik_input>
TiNDW0NIMl1bQ0gyXVtDSDJdW05IXVtDQEBIXTFbQ0gyXVtDSDJdW0NIMl1bQ0gyXVtDQEhdMW4yW2NIXVtjSF1bY0hdbjI=

> <s_epik_cmdline>
J2VwaWtfcHl0aG9uJywgJy1waCcsICc3LjAnLCAnLXRuJywgJzgnLCAnLW1hJywgJzIwMCcsICctbWV0YWxfYmluZGluZycsICctaW1hZScsICc8aW5maWxlLm1hZT4nLCAnLW9tYWUnLCAnPG91dGZpbGUubWFlPic=

> <r_lp_tautomer_probability>
1

> <r_epik_Ionization_Penalty>
0.0143465

> <r_epik_Ionization_Penalty_Charging>
0.0143338

> <r_epik_Ionization_Penalty_Neutral>
1.27047e-05

> <r_epik_State_Penalty>
0.0112058

> <r_epik_Charging_Adjusted_Penalty>
0.0255397

> <i_epik_Tot_Q>
1

> <i_epik_Tot_abs_Q>
1

> <r_epik_Metal_State_Penalty>
0.0112253

> <b_epik_Metal_Only>
0

> <s_lp_Force_Field>
OPLS_2005

> <r_lp_Energy>
18.1439

> <b_lp_Chiralities_Consistent>
1

> <s_lp_Variant>
AV-unprocessed.smi:3185-2

> <Gold.Version>
5.8.1

> <Gold.Id.Protein>
6NUR|6NUR_protein|mol2

> <Gold.PLP.Fitness>
39.1228

> <Gold.PLP.PLP>
-31.0031

> <Gold.PLP.part.hbond>
-2.0000

> <Gold.PLP.part.metal>
0.0000

> <Gold.PLP.part.buried>
-3.7469

> <Gold.PLP.part.nonpolar>
-24.9063

> <Gold.PLP.part.repulsive>
0.4283

> <Gold.PLP.ligand.clash>
0.0000

> <Gold.PLP.ligand.torsion>
0.5083

> <Gold.PLP.Chemscore.Hbond>
2.0000

> <Gold.PLP.Chemscore.CHOScore>
1.0000

> <Gold.PLP.Chemscore.Metal>
0.0000

> <Gold.Chemscore.Hbonds>
donor molecule, donor type, donor heavy atom, donor atom, acceptor molecule, acceptor atom, score
      L1  H     6    24       P1  8028  2.00
      L1  C    16    37       P1  7949  1.00

> <Gold.PLP.Chemscore.Internal.Correction>
0.1362

> <Gold.Rescore>
     Score         DG    S(hbond)    S(metal)    S(lipo)     H(rot)  DE(clash)    DE(int)     intcor
     10.42     -12.34       0.93        0.00      73.05       1.88       0.14       1.78       ----

> <Gold.Chemscore.Fitness>
10.4175

> <Gold.Chemscore.DG>
-12.3391

> <Gold.Chemscore.ZeroCoef>
-5.4800

> <Gold.Chemscore.Hbond>
0.9333

> <Gold.Chemscore.Metal>
0.0000

> <Gold.Chemscore.Lipo>
73.0505

> <Gold.Chemscore.Internal_Hbond>
0.0000

> <Gold.Chemscore.DEClash>
0.1416

> <Gold.Chemscore.DEInternal>
1.7799

> <Gold.Chemscore.Rot>
1.8769

> <Gold.Chemscore.Internal.Correction>
   9.000000E+99

> <Gold.Chemscore.Hbonds>
donor molecule, donor type, donor heavy atom, donor atom, acceptor molecule, acceptor atom, score
      L1  H     6    24       P1  8028  0.95

> <Gold.Chemscore.Hbond.Weighted>
-3.1171

> <Gold.Chemscore.Metal.Weighted>
-0.0000

> <Gold.Chemscore.Lipo.Weighted>
-8.5469

> <Gold.Chemscore.Internal_Hbond.Weighted>
0.0000

> <Gold.Chemscore.DEClash.Weighted>
0.1416

> <Gold.Chemscore.DEInternal.Weighted>
1.7799

> <Gold.Chemscore.Rot.Weighted>
4.8049

> <Gold.Chemscore.Internal.Correction.Weighted>
   9.000000E+99

> <Gold.Protein.RotatedTorsions>
[ 6907 6896 6895 6894 ] final   63.07 input  -60.11 | X-H torsion
[ 7974 7965 7964 7962 ] final -115.16 input  175.53 | X-H torsion
[ 8008 7997 7996 7995 ] final   83.39 input   59.86 | X-H torsion
[ 10167 10162 10161 10158 ] final -153.70 input  -65.29 | X-H torsion
[ 10718 10713 10712 10709 ] final -145.43 input   66.30 | X-H torsion
[ 10763 10752 10751 10750 ] final -128.43 input  -60.55 | X-H torsion
[ 11005 11000 10999 10996 ] final -124.19 input  -57.11 | X-H torsion

> <Gold.Protein.ActiveResidues>
 VAL166  LYS551  ARG553  GLY616  TRP617  ASP618  TYR619  PRO620  LYS621  CYS622 
 ASP623  PHE694  ASN695  SER759  ASP760  ASP761  ALA762  ILE779  LEU786  VAL792 
 PHE793  MET794  SER795  GLU796  ALA797  LYS798  CYS799  TRP800  GLU811  SER814 

> <Gold.Protein.RotatedAtoms>
  152.4223  134.5932  159.9979 H   0  0  0  0  0  0  0  0  0  0  0  0  # atno 6907 bound_to 6896
  151.6078  133.3344  159.3069 H   0  0  0  0  0  0  0  0  0  0  0  0  # atno 6908 bound_to 6896
  150.8112  134.7305  159.6755 H   0  0  0  0  0  0  0  0  0  0  0  0  # atno 6909 bound_to 6896
  145.1117  140.8615  143.3866 H   0  0  0  0  0  0  0  0  0  0  0  0  # atno 7974 bound_to 7965
  155.9232  140.3420  155.6190 H   0  0  0  0  0  0  0  0  0  0  0  0  # atno 8008 bound_to 7997
  155.7247  140.0788  157.2334 H   0  0  0  0  0  0  0  0  0  0  0  0  # atno 8009 bound_to 7997
  154.4073  140.1599  156.2429 H   0  0  0  0  0  0  0  0  0  0  0  0  # atno 8010 bound_to 7997
  139.7075  143.9163  152.2454 H   0  0  0  0  0  0  0  0  0  0  0  0  # atno 10167 bound_to 10162
  156.3823  130.7843  151.2037 H   0  0  0  0  0  0  0  0  0  0  0  0  # atno 10718 bound_to 10713
  154.8756  135.3929  154.3755 H   0  0  0  0  0  0  0  0  0  0  0  0  # atno 10763 bound_to 10752
  153.4509  135.7028  153.6114 H   0  0  0  0  0  0  0  0  0  0  0  0  # atno 10764 bound_to 10752
  153.4655  135.3802  155.2330 H   0  0  0  0  0  0  0  0  0  0  0  0  # atno 10765 bound_to 10752
  140.9860  134.0606  157.3710 H   0  0  0  0  0  0  0  0  0  0  0  0  # atno 11005 bound_to 11000
  145.0840  139.2939  143.5769 LP  0  0  0  0  0  0  0  0  0  0  0  0  # atno 17320 bound_to 7965
  146.3526  140.0355  142.8647 LP  0  0  0  0  0  0  0  0  0  0  0  0  # atno 17321 bound_to 7965
  139.9023  144.6905  150.8652 LP  0  0  0  0  0  0  0  0  0  0  0  0  # atno 17342 bound_to 10162
  140.7725  143.3505  151.2024 LP  0  0  0  0  0  0  0  0  0  0  0  0  # atno 17343 bound_to 10162
  157.7493  131.0340  150.4298 LP  0  0  0  0  0  0  0  0  0  0  0  0  # atno 17370 bound_to 10713
  156.4545  130.4018  149.6615 LP  0  0  0  0  0  0  0  0  0  0  0  0  # atno 17371 bound_to 10713
  139.8971  135.0149  156.7083 LP  0  0  0  0  0  0  0  0  0  0  0  0  # atno 17394 bound_to 11000
  140.7113  133.9220  155.8086 LP  0  0  0  0  0  0  0  0  0  0  0  0  # atno 17395 bound_to 11000

$$$$
