AV-unprocessed.smi:1885|AV-procd|sdf|7651|dock8
  -GOLD-   22720 9383D 1   1.00000     0.00000
 Structure written by MMmdl.
 43 45  0  0  0  0  0  0  0  0  1 V2000
  142.4918  147.0663  154.8078 C   0  0  0  0  0  0  0  0  0  0  0  0
  143.3298  146.4287  153.8551 O   0  0  0  0  0  0  0  0  0  0  0  0
  144.0544  145.3292  154.2627 C   0  0  0  0  0  0  0  0  0  0  0  0
  144.0534  144.8204  155.5861 C   0  0  0  0  0  0  0  0  0  0  0  0
  144.8304  143.6935  155.9180 C   0  0  0  0  0  0  0  0  0  0  0  0
  145.6229  143.0626  154.9380 C   0  0  0  0  0  0  0  0  0  0  0  0
  146.4702  141.8582  155.2968 C   0  0  0  0  0  0  0  0  0  0  0  0
  146.9242  141.1830  154.1357 O   0  0  0  0  0  0  0  0  0  0  0  0
  147.7902  140.0975  154.4235 C   0  0  0  0  0  0  0  0  0  0  0  0
  149.2508  140.5868  154.4652 C   0  0  1  0  0  0  0  0  0  0  0  0
  149.6085  141.1027  153.2007 O   0  0  0  0  0  0  0  0  0  0  0  0
  149.5730  141.6209  155.5663 C   0  0  0  0  0  0  0  0  0  0  0  0
  150.6625  141.2062  156.4336 N   0  0  0  0  0  0  0  0  0  0  0  0
  151.4627  140.1345  156.2730 C   0  0  0  0  0  0  0  0  0  0  0  0
  152.3959  139.9270  157.1976 N   0  0  0  0  0  0  0  0  0  0  0  0
  152.1848  140.9948  158.0532 C   0  0  0  0  0  0  0  0  0  0  0  0
  152.8472  141.3568  159.2480 C   0  0  0  0  0  0  0  0  0  0  0  0
  152.4568  142.5088  159.9620 C   0  0  0  0  0  0  0  0  0  0  0  0
  153.1019  142.8408  161.1055 F   0  0  0  0  0  0  0  0  0  0  0  0
  151.4003  143.3164  159.4919 C   0  0  0  0  0  0  0  0  0  0  0  0
  151.0330  144.4218  160.1824 F   0  0  0  0  0  0  0  0  0  0  0  0
  150.7227  142.9732  158.3066 C   0  0  0  0  0  0  0  0  0  0  0  0
  151.1132  141.8210  157.5983 C   0  0  0  0  0  0  0  0  0  0  0  0
  145.6190  143.5568  153.6185 C   0  0  0  0  0  0  0  0  0  0  0  0
  144.8411  144.6825  153.2875 C   0  0  0  0  0  0  0  0  0  0  0  0
  142.0040  147.9222  154.3417 H   0  0  0  0  0  0  0  0  0  0  0  0
  143.0660  147.4367  155.6585 H   0  0  0  0  0  0  0  0  0  0  0  0
  141.7096  146.3946  155.1636 H   0  0  0  0  0  0  0  0  0  0  0  0
  143.4667  145.2791  156.3676 H   0  0  0  0  0  0  0  0  0  0  0  0
  144.8220  143.3229  156.9325 H   0  0  0  0  0  0  0  0  0  0  0  0
  147.3231  142.1865  155.8934 H   0  0  0  0  0  0  0  0  0  0  0  0
  145.8815  141.1791  155.9148 H   0  0  0  0  0  0  0  0  0  0  0  0
  147.5305  139.6855  155.4001 H   0  0  0  0  0  0  0  0  0  0  0  0
  147.6616  139.2938  153.6967 H   0  0  0  0  0  0  0  0  0  0  0  0
  149.8834  139.7122  154.6221 H   0  0  0  0  0  0  0  0  0  0  0  0
  149.5267  140.4104  152.5624 H   0  0  0  0  0  0  0  0  0  0  0  0
  149.8311  142.5823  155.1207 H   0  0  0  0  0  0  0  0  0  0  0  0
  148.6914  141.7946  156.1843 H   0  0  0  0  0  0  0  0  0  0  0  0
  151.3459  139.4631  155.4347 H   0  0  0  0  0  0  0  0  0  0  0  0
  153.6589  140.7475  159.6166 H   0  0  0  0  0  0  0  0  0  0  0  0
  149.9070  143.5859  157.9528 H   0  0  0  0  0  0  0  0  0  0  0  0
  146.2181  143.0778  152.8579 H   0  0  0  0  0  0  0  0  0  0  0  0
  144.8511  145.0564  152.2741 H   0  0  0  0  0  0  0  0  0  0  0  0
  1  2  1  0  0  0  0
  1 26  1  0  0  0  0
  1 27  1  0  0  0  0
  1 28  1  0  0  0  0
  2  3  1  0  0  0  0
  3 25  1  0  0  0  0
  3  4  2  0  0  0  0
  4  5  1  0  0  0  0
  4 29  1  0  0  0  0
  5  6  2  0  0  0  0
  5 30  1  0  0  0  0
  6  7  1  0  0  0  0
  6 24  1  0  0  0  0
  7  8  1  0  0  0  0
  7 31  1  0  0  0  0
  7 32  1  0  0  0  0
  8  9  1  0  0  0  0
  9 10  1  0  0  0  0
  9 33  1  0  0  0  0
  9 34  1  0  0  0  0
 10 11  1  0  0  0  0
 10 12  1  0  0  0  0
 10 35  1  0  0  0  0
 11 36  1  0  0  0  0
 12 13  1  0  0  0  0
 12 37  1  0  0  0  0
 12 38  1  0  0  0  0
 13 23  1  0  0  0  0
 13 14  1  0  0  0  0
 14 15  2  0  0  0  0
 14 39  1  0  0  0  0
 15 16  1  0  0  0  0
 16 23  2  0  0  0  0
 16 17  1  0  0  0  0
 17 18  2  0  0  0  0
 17 40  1  0  0  0  0
 18 19  1  0  0  0  0
 18 20  1  0  0  0  0
 20 21  1  0  0  0  0
 20 22  2  0  0  0  0
 22 23  1  0  0  0  0
 22 41  1  0  0  0  0
 24 25  2  0  0  0  0
 24 42  1  0  0  0  0
 25 43  1  0  0  0  0
M  END
> <s_m_source_file>
AV-unprocessed.smi

> <i_m_source_file_index>
1885

> <i_lp_mmshare_version>
43012

> <i_f3d_flags>
0

> <s_epik_input>
W0NIM11PYzFbY0hdW2NIXWMoW2NIXVtjSF0xKVtDSDJdT1tDSDJdW0NASF0oW09IXSlbQ0gyXW4oW2NIXW4yKWMoYzIzKVtjSF1jKEYpYyhGKVtjSF0z

> <s_epik_cmdline>
J2VwaWtfcHl0aG9uJywgJy1waCcsICc3LjAnLCAnLXRuJywgJzgnLCAnLW1hJywgJzIwMCcsICctbWV0YWxfYmluZGluZycsICctaW1hZScsICc8aW5maWxlLm1hZT4nLCAnLW9tYWUnLCAnPG91dGZpbGUubWFlPic=

> <r_lp_tautomer_probability>
1

> <r_epik_Ionization_Penalty>
0.0160256

> <r_epik_Ionization_Penalty_Charging>
0

> <r_epik_Ionization_Penalty_Neutral>
0.0160256

> <r_epik_State_Penalty>
0.0126263

> <r_epik_Charging_Adjusted_Penalty>
0.0126263

> <i_epik_Tot_Q>
0

> <i_epik_Tot_abs_Q>
0

> <r_epik_Metal_State_Penalty>
1.27616e-05

> <b_epik_Metal_Only>
0

> <s_lp_Force_Field>
OPLS_2005

> <r_lp_Energy>
16.1037

> <b_lp_Chiralities_Consistent>
1

> <s_lp_Variant>
AV-unprocessed.smi:1885-2

> <Gold.Version>
5.8.1

> <Gold.Id.Protein>
6NUR|6NUR_protein|mol2

> <Gold.PLP.Fitness>
61.9998

> <Gold.PLP.PLP>
-55.7534

> <Gold.PLP.part.hbond>
-4.7908

> <Gold.PLP.part.metal>
0.0000

> <Gold.PLP.part.buried>
-6.7660

> <Gold.PLP.part.nonpolar>
-44.8437

> <Gold.PLP.part.repulsive>
0.2044

> <Gold.PLP.ligand.clash>
0.0000

> <Gold.PLP.ligand.torsion>
1.1489

> <Gold.PLP.Chemscore.Hbond>
2.7760

> <Gold.PLP.Chemscore.CHOScore>
0.0000

> <Gold.PLP.Chemscore.Metal>
0.0000

> <Gold.Chemscore.Hbonds>
donor molecule, donor type, donor heavy atom, donor atom, acceptor molecule, acceptor atom, score
      L1  H    11    36       P1  7957  0.73
      P1  H  7989  7998       L1    11  0.07
      P1  H  7997  8009       L1    15  0.93
      P1  H  8011  8017       L1    11  1.00

> <Gold.PLP.Chemscore.Internal.Correction>
0.2161

> <Gold.Rescore>
     Score         DG    S(hbond)    S(metal)    S(lipo)     H(rot)  DE(clash)    DE(int)     intcor
     17.11     -18.60       2.07        0.00     117.24       2.93       0.30       1.19       ----

> <Gold.Chemscore.Fitness>
17.1114

> <Gold.Chemscore.DG>
-18.6016

> <Gold.Chemscore.ZeroCoef>
-5.4800

> <Gold.Chemscore.Hbond>
2.0700

> <Gold.Chemscore.Metal>
0.0000

> <Gold.Chemscore.Lipo>
117.2446

> <Gold.Chemscore.Internal_Hbond>
0.0000

> <Gold.Chemscore.DEClash>
0.3028

> <Gold.Chemscore.DEInternal>
1.1875

> <Gold.Chemscore.Rot>
2.9335

> <Gold.Chemscore.Internal.Correction>
   9.000000E+99

> <Gold.Chemscore.Hbonds>
donor molecule, donor type, donor heavy atom, donor atom, acceptor molecule, acceptor atom, score
      L1  H    11    36       P1  7957  0.70
      P1  H  7997  8009       L1    15  0.42
      P1  H  8011  8017       L1    11  0.44

> <Gold.Chemscore.Hbond.Weighted>
-6.9137

> <Gold.Chemscore.Metal.Weighted>
-0.0000

> <Gold.Chemscore.Lipo.Weighted>
-13.7176

> <Gold.Chemscore.Internal_Hbond.Weighted>
0.0000

> <Gold.Chemscore.DEClash.Weighted>
0.3028

> <Gold.Chemscore.DEInternal.Weighted>
1.1875

> <Gold.Chemscore.Rot.Weighted>
7.5097

> <Gold.Chemscore.Internal.Correction.Weighted>
   9.000000E+99

> <Gold.Protein.RotatedTorsions>
[ 6907 6896 6895 6894 ] final  -70.25 input  -60.11 | X-H torsion
[ 7974 7965 7964 7962 ] final   76.79 input  175.53 | X-H torsion
[ 8008 7997 7996 7995 ] final -179.06 input   59.86 | X-H torsion
[ 10167 10162 10161 10158 ] final  108.58 input  -65.29 | X-H torsion
[ 10718 10713 10712 10709 ] final  -83.83 input   66.30 | X-H torsion
[ 10763 10752 10751 10750 ] final  -38.32 input  -60.55 | X-H torsion
[ 11005 11000 10999 10996 ] final  158.40 input  -57.11 | X-H torsion

> <Gold.Protein.ActiveResidues>
 VAL166  LYS551  ARG553  GLY616  TRP617  ASP618  TYR619  PRO620  LYS621  CYS622 
 ASP623  PHE694  ASN695  SER759  ASP760  ASP761  ALA762  ILE779  LEU786  VAL792 
 PHE793  MET794  SER795  GLU796  ALA797  LYS798  CYS799  TRP800  GLU811  SER814 

> <Gold.Protein.RotatedAtoms>
  150.7266  134.5479  159.5779 H   0  0  0  0  0  0  0  0  0  0  0  0  # atno 6907 bound_to 6896
  152.2974  134.7648  160.0374 H   0  0  0  0  0  0  0  0  0  0  0  0  # atno 6908 bound_to 6896
  151.8241  133.3363  159.3630 H   0  0  0  0  0  0  0  0  0  0  0  0  # atno 6909 bound_to 6896
  145.6984  139.2574  143.1719 H   0  0  0  0  0  0  0  0  0  0  0  0  # atno 7974 bound_to 7965
  156.0261  140.1271  157.0307 H   0  0  0  0  0  0  0  0  0  0  0  0  # atno 8008 bound_to 7997
  154.4331  140.1059  156.6102 H   0  0  0  0  0  0  0  0  0  0  0  0  # atno 8009 bound_to 7997
  155.5875  140.3469  155.4559 H   0  0  0  0  0  0  0  0  0  0  0  0  # atno 8010 bound_to 7997
  139.6834  144.7116  151.1474 H   0  0  0  0  0  0  0  0  0  0  0  0  # atno 10167 bound_to 10162
  156.0013  130.4678  150.4317 H   0  0  0  0  0  0  0  0  0  0  0  0  # atno 10718 bound_to 10713
  153.9109  135.6792  153.4751 H   0  0  0  0  0  0  0  0  0  0  0  0  # atno 10763 bound_to 10752
  153.1079  135.4797  154.8980 H   0  0  0  0  0  0  0  0  0  0  0  0  # atno 10764 bound_to 10752
  154.7527  135.3189  154.8482 H   0  0  0  0  0  0  0  0  0  0  0  0  # atno 10765 bound_to 10752
  140.1861  134.8440  157.2859 H   0  0  0  0  0  0  0  0  0  0  0  0  # atno 11005 bound_to 11000
  146.0820  140.7753  142.9637 LP  0  0  0  0  0  0  0  0  0  0  0  0  # atno 17320 bound_to 7965
  144.6976  140.3503  143.7183 LP  0  0  0  0  0  0  0  0  0  0  0  0  # atno 17321 bound_to 7965
  140.7660  143.5665  150.9042 LP  0  0  0  0  0  0  0  0  0  0  0  0  # atno 17342 bound_to 10162
  139.9338  143.6462  152.3070 LP  0  0  0  0  0  0  0  0  0  0  0  0  # atno 17343 bound_to 10162
  157.2366  131.0516  151.2461 LP  0  0  0  0  0  0  0  0  0  0  0  0  # atno 17370 bound_to 10713
  157.3661  130.7156  149.6533 LP  0  0  0  0  0  0  0  0  0  0  0  0  # atno 17371 bound_to 10713
  140.2212  134.4021  155.7565 LP  0  0  0  0  0  0  0  0  0  0  0  0  # atno 17394 bound_to 11000
  141.2225  133.7167  156.8493 LP  0  0  0  0  0  0  0  0  0  0  0  0  # atno 17395 bound_to 11000

$$$$
