AV-unprocessed.smi:598|AV-procd|sdf|3027|dock10
  -GOLD-   2262023543D 1   1.00000     0.00000
 Structure written by MMmdl.
 43 44  0  0  0  0  0  0  0  0  3 V2000
  149.1872  137.3885  155.2377 C   0  0  0  0  0  0  0  0  0  0  0  0
  148.6398  138.8246  155.1905 C   0  0  2  0  0  0  0  0  0  0  0  0
  148.2881  139.2563  153.7524 C   0  0  0  0  0  0  0  0  0  0  0  0
  147.6440  140.6514  153.7263 C   0  0  0  0  0  0  0  0  0  0  0  0
  148.5255  141.6955  154.4276 C   0  0  0  0  0  0  0  0  0  0  0  0
  148.8765  141.2567  155.8649 C   0  0  2  0  0  0  0  0  0  0  0  0
  149.7166  142.2539  156.5198 N   0  0  0  0  0  0  0  0  0  0  0  0
  150.4408  142.0767  157.6376 C   0  0  0  0  0  0  0  0  0  0  0  0
  150.4652  141.0137  158.2562 O   0  0  0  0  0  0  0  0  0  0  0  0
  151.2685  143.2659  158.1566 C   0  0  0  0  0  0  0  0  0  0  0  0
  152.0218  142.9972  159.3960 N   0  0  0  0  0  0  0  0  0  0  0  0
  153.0029  141.9876  159.3389 C   0  0  0  0  0  0  0  0  0  0  0  0
  153.7340  141.6376  160.4152 C   0  0  0  0  0  0  0  0  0  0  0  0
  154.7276  140.5892  160.3413 N   0  3  0  0  0  0  0  0  0  0  0  0
  155.4861  140.4295  161.2923 O   0  0  0  0  0  0  0  0  0  0  0  0
  154.7831  139.8914  159.3330 O   0  5  0  0  0  0  0  0  0  0  0  0
  153.4841  142.3425  161.6576 C   0  0  0  0  0  0  0  0  0  0  0  0
  152.5451  143.3069  161.7198 C   0  0  0  0  0  0  0  0  0  0  0  0
  151.7454  143.6808  160.5489 C   0  0  0  0  0  0  0  0  0  0  0  0
  150.8734  144.5475  160.6040 O   0  0  0  0  0  0  0  0  0  0  0  0
  149.5575  139.8630  155.8895 C   0  0  2  0  0  0  0  0  0  0  0  0
  151.0046  139.8798  155.3398 C   0  0  0  0  0  0  0  0  0  0  0  0
  150.0729  137.2705  154.6135 H   0  0  0  0  0  0  0  0  0  0  0  0
  148.4422  136.6778  154.8790 H   0  0  0  0  0  0  0  0  0  0  0  0
  149.4507  137.1005  156.2557 H   0  0  0  0  0  0  0  0  0  0  0  0
  147.7041  138.8065  155.7519 H   0  0  0  0  0  0  0  0  0  0  0  0
  149.1819  139.2514  153.1278 H   0  0  0  0  0  0  0  0  0  0  0  0
  147.6022  138.5358  153.3058 H   0  0  0  0  0  0  0  0  0  0  0  0
  147.4556  140.9551  152.6962 H   0  0  0  0  0  0  0  0  0  0  0  0
  146.6713  140.6107  154.2178 H   0  0  0  0  0  0  0  0  0  0  0  0
  149.4356  141.8552  153.8487 H   0  0  0  0  0  0  0  0  0  0  0  0
  148.0038  142.6531  154.4439 H   0  0  0  0  0  0  0  0  0  0  0  0
  147.9457  141.1759  156.4301 H   0  0  0  0  0  0  0  0  0  0  0  0
  149.7548  143.1615  156.0795 H   0  0  0  0  0  0  0  0  0  0  0  0
  151.9533  143.5709  157.3639 H   0  0  0  0  0  0  0  0  0  0  0  0
  150.6012  144.1190  158.2914 H   0  0  0  0  0  0  0  0  0  0  0  0
  153.1051  141.5180  158.3709 H   0  0  0  0  0  0  0  0  0  0  0  0
  154.0481  142.1024  162.5468 H   0  0  0  0  0  0  0  0  0  0  0  0
  152.3751  143.8188  162.6556 H   0  0  0  0  0  0  0  0  0  0  0  0
  149.6347  139.5670  156.9370 H   0  0  0  0  0  0  0  0  0  0  0  0
  151.0401  140.1554  154.2865 H   0  0  0  0  0  0  0  0  0  0  0  0
  151.4816  138.9058  155.4414 H   0  0  0  0  0  0  0  0  0  0  0  0
  151.6352  140.5837  155.8832 H   0  0  0  0  0  0  0  0  0  0  0  0
  1  2  1  0  0  0  0
  1 23  1  0  0  0  0
  1 24  1  0  0  0  0
  1 25  1  0  0  0  0
  2 21  1  0  0  0  0
  2  3  1  0  0  0  0
  2 26  1  0  0  0  0
  3  4  1  0  0  0  0
  3 27  1  0  0  0  0
  3 28  1  0  0  0  0
  4  5  1  0  0  0  0
  4 29  1  0  0  0  0
  4 30  1  0  0  0  0
  5  6  1  0  0  0  0
  5 31  1  0  0  0  0
  5 32  1  0  0  0  0
  6  7  1  0  0  0  0
  6 21  1  0  0  0  0
  6 33  1  0  0  0  0
  7  8  1  0  0  0  0
  7 34  1  0  0  0  0
  8  9  2  0  0  0  0
  8 10  1  0  0  0  0
 10 11  1  0  0  0  0
 10 35  1  0  0  0  0
 10 36  1  0  0  0  0
 11 19  1  0  0  0  0
 11 12  1  0  0  0  0
 12 13  2  0  0  0  0
 12 37  1  0  0  0  0
 13 14  1  0  0  0  0
 13 17  1  0  0  0  0
 14 15  2  0  0  0  0
 14 16  1  0  0  0  0
 17 18  2  0  0  0  0
 17 38  1  0  0  0  0
 18 19  1  0  0  0  0
 18 39  1  0  0  0  0
 19 20  2  0  0  0  0
 21 22  1  0  0  0  0
 21 40  1  0  0  0  0
 22 41  1  0  0  0  0
 22 42  1  0  0  0  0
 22 43  1  0  0  0  0
M  CHG  1  14   1
M  CHG  1  16  -1
M  END
> <s_m_source_file>
AV-unprocessed.smi

> <i_m_source_file_index>
598

> <i_lp_mmshare_version>
43012

> <i_f3d_flags>
0

> <s_epik_input>
W0NIM11bQ0BASF0xW0NIMl1bQ0gyXVtDSDJdW0NASF0oW0NASF0xW0NIM10pW05IXUMoPU8pW0NIMl1uMltjSF1jKFtOK10oPU8pW08tXSlbY0hdW2NIXWMyPU8=

> <s_epik_cmdline>
J2VwaWtfcHl0aG9uJywgJy1waCcsICc3LjAnLCAnLXRuJywgJzgnLCAnLW1hJywgJzIwMCcsICctbWV0YWxfYmluZGluZycsICctaW1hZScsICc8aW5maWxlLm1hZT4nLCAnLW9tYWUnLCAnPG91dGZpbGUubWFlPic=

> <r_lp_tautomer_probability>
1

> <r_epik_Ionization_Penalty>
1.91291e-08

> <r_epik_Ionization_Penalty_Charging>
8.21931e-11

> <r_epik_Ionization_Penalty_Neutral>
1.90469e-08

> <r_epik_State_Penalty>
-0

> <r_epik_Charging_Adjusted_Penalty>
8.21931e-11

> <i_epik_Tot_Q>
0

> <i_epik_Tot_abs_Q>
2

> <r_epik_Metal_State_Penalty>
-0

> <b_epik_Metal_Only>
0

> <s_lp_Force_Field>
OPLS_2005

> <r_lp_Energy>
25.0261

> <b_lp_Chiralities_Consistent>
1

> <s_lp_Variant>
AV-unprocessed.smi:598-7

> <Gold.Version>
5.8.1

> <Gold.Id.Protein>
6NUR|6NUR_protein|mol2

> <Gold.PLP.Fitness>
49.6422

> <Gold.PLP.PLP>
-44.2178

> <Gold.PLP.part.hbond>
-3.0000

> <Gold.PLP.part.metal>
0.0000

> <Gold.PLP.part.buried>
-2.7389

> <Gold.PLP.part.nonpolar>
-38.6223

> <Gold.PLP.part.repulsive>
0.2308

> <Gold.PLP.ligand.clash>
0.0000

> <Gold.PLP.ligand.torsion>
0.2969

> <Gold.PLP.Chemscore.Hbond>
2.0000

> <Gold.PLP.Chemscore.CHOScore>
0.0000

> <Gold.PLP.Chemscore.Metal>
0.0000

> <Gold.Chemscore.Hbonds>
donor molecule, donor type, donor heavy atom, donor atom, acceptor molecule, acceptor atom, score
      L1  H     7    34       P1  8028  0.96
      P1  H  7997  8008       L1    16  1.00

> <Gold.PLP.Chemscore.Internal.Correction>
0.0183

> <Gold.Rescore>
     Score         DG    S(hbond)    S(metal)    S(lipo)     H(rot)  DE(clash)    DE(int)     intcor
     16.15     -19.14       1.96        0.00      94.43       1.54       0.14       2.84       ----

> <Gold.Chemscore.Fitness>
16.1538

> <Gold.Chemscore.DG>
-19.1366

> <Gold.Chemscore.ZeroCoef>
-5.4800

> <Gold.Chemscore.Hbond>
1.9607

> <Gold.Chemscore.Metal>
0.0000

> <Gold.Chemscore.Lipo>
94.4335

> <Gold.Chemscore.Internal_Hbond>
0.0000

> <Gold.Chemscore.DEClash>
0.1440

> <Gold.Chemscore.DEInternal>
2.8389

> <Gold.Chemscore.Rot>
1.5393

> <Gold.Chemscore.Internal.Correction>
   9.000000E+99

> <Gold.Chemscore.Hbonds>
donor molecule, donor type, donor heavy atom, donor atom, acceptor molecule, acceptor atom, score
      L1  H     7    34       P1  8028  0.92
      P1  H  7997  8008       L1    16  0.93

> <Gold.Chemscore.Hbond.Weighted>
-6.5486

> <Gold.Chemscore.Metal.Weighted>
-0.0000

> <Gold.Chemscore.Lipo.Weighted>
-11.0487

> <Gold.Chemscore.Internal_Hbond.Weighted>
0.0000

> <Gold.Chemscore.DEClash.Weighted>
0.1440

> <Gold.Chemscore.DEInternal.Weighted>
2.8389

> <Gold.Chemscore.Rot.Weighted>
3.9407

> <Gold.Chemscore.Internal.Correction.Weighted>
   9.000000E+99

> <Gold.Protein.RotatedTorsions>
[ 6907 6896 6895 6894 ] final  -53.74 input  -60.11 | X-H torsion
[ 7974 7965 7964 7962 ] final -161.70 input  175.53 | X-H torsion
[ 8008 7997 7996 7995 ] final -120.24 input   59.86 | X-H torsion
[ 10167 10162 10161 10158 ] final  -42.17 input  -65.29 | X-H torsion
[ 10718 10713 10712 10709 ] final -157.42 input   66.30 | X-H torsion
[ 10763 10752 10751 10750 ] final  142.14 input  -60.55 | X-H torsion
[ 11005 11000 10999 10996 ] final   11.01 input  -57.11 | X-H torsion

> <Gold.Protein.ActiveResidues>
 VAL166  LYS551  ARG553  GLY616  TRP617  ASP618  TYR619  PRO620  LYS621  CYS622 
 ASP623  PHE694  ASN695  SER759  ASP760  ASP761  ALA762  ILE779  LEU786  VAL792 
 PHE793  MET794  SER795  GLU796  ALA797  LYS798  CYS799  TRP800  GLU811  SER814 

> <Gold.Protein.RotatedAtoms>
  150.8400  134.7688  159.6924 H   0  0  0  0  0  0  0  0  0  0  0  0  # atno 6907 bound_to 6896
  152.4489  134.5432  159.9855 H   0  0  0  0  0  0  0  0  0  0  0  0  # atno 6908 bound_to 6896
  151.5574  133.3370  159.3000 H   0  0  0  0  0  0  0  0  0  0  0  0  # atno 6909 bound_to 6896
  144.7382  140.3359  143.6144 H   0  0  0  0  0  0  0  0  0  0  0  0  # atno 7974 bound_to 7965
  155.1286  140.0400  157.2769 H   0  0  0  0  0  0  0  0  0  0  0  0  # atno 8008 bound_to 7997
  154.6559  140.2580  155.7136 H   0  0  0  0  0  0  0  0  0  0  0  0  # atno 8009 bound_to 7997
  156.2598  140.2827  156.1012 H   0  0  0  0  0  0  0  0  0  0  0  0  # atno 8010 bound_to 7997
  140.6978  143.3053  151.3171 H   0  0  0  0  0  0  0  0  0  0  0  0  # atno 10167 bound_to 10162
  156.5401  130.8559  151.2746 H   0  0  0  0  0  0  0  0  0  0  0  0  # atno 10718 bound_to 10713
  153.9509  135.2970  155.3438 H   0  0  0  0  0  0  0  0  0  0  0  0  # atno 10763 bound_to 10752
  154.7427  135.5017  153.9153 H   0  0  0  0  0  0  0  0  0  0  0  0  # atno 10764 bound_to 10752
  153.0995  135.6730  153.9809 H   0  0  0  0  0  0  0  0  0  0  0  0  # atno 10765 bound_to 10752
  140.5080  134.0680  155.7811 H   0  0  0  0  0  0  0  0  0  0  0  0  # atno 11005 bound_to 11000
  145.7424  139.1768  143.2368 LP  0  0  0  0  0  0  0  0  0  0  0  0  # atno 17320 bound_to 7965
  146.1124  140.7412  142.9497 LP  0  0  0  0  0  0  0  0  0  0  0  0  # atno 17321 bound_to 7965
  139.6456  144.0458  152.2588 LP  0  0  0  0  0  0  0  0  0  0  0  0  # atno 17342 bound_to 10162
  139.9977  144.6316  150.7757 LP  0  0  0  0  0  0  0  0  0  0  0  0  # atno 17343 bound_to 10162
  157.7407  130.9855  150.2394 LP  0  0  0  0  0  0  0  0  0  0  0  0  # atno 17370 bound_to 10713
  156.2980  130.3754  149.7778 LP  0  0  0  0  0  0  0  0  0  0  0  0  # atno 17371 bound_to 10713
  141.1400  133.9154  157.2346 LP  0  0  0  0  0  0  0  0  0  0  0  0  # atno 17394 bound_to 11000
  139.9675  135.0138  156.9425 LP  0  0  0  0  0  0  0  0  0  0  0  0  # atno 17395 bound_to 11000

$$$$
