AV-unprocessed.smi:243|AV-procd|sdf|1850|dock2
  -GOLD-   2262020473D 1   1.00000     0.00000
 Structure written by MMmdl.
 58 61  0  0  0  0  0  0  0  0  2 V2000
  145.7340  137.6894  152.6660 C   0  0  0  0  0  0  0  0  0  0  0  0
  146.6813  138.8973  152.6506 C   0  0  0  0  0  0  0  0  0  0  0  0
  146.2707  139.9597  153.6075 N   0  3  2  0  0  0  0  0  0  0  0  0
  147.0837  141.1964  153.5026 C   0  0  0  0  0  0  0  0  0  0  0  0
  148.4853  141.0017  154.1010 C   0  0  0  0  0  0  0  0  0  0  0  0
  148.4146  140.5376  155.5741 C   0  0  2  0  0  0  0  0  0  0  0  0
  149.7484  140.3851  156.1760 N   0  0  0  0  0  0  0  0  0  0  0  0
  150.5374  141.5997  156.3472 C   0  0  0  0  0  0  0  0  0  0  0  0
  150.4782  139.2982  155.8195 C   0  0  0  0  0  0  0  0  0  0  0  0
  151.3501  139.4360  154.7895 N   0  0  0  0  0  0  0  0  0  0  0  0
  152.0915  138.3986  154.3908 C   0  0  0  0  0  0  0  0  0  0  0  0
  152.1132  137.1549  154.8732 N   0  0  0  0  0  0  0  0  0  0  0  0
  151.2311  137.0063  155.9025 C   0  0  0  0  0  0  0  0  0  0  0  0
  150.3826  138.0170  156.4369 C   0  0  0  0  0  0  0  0  0  0  0  0
  149.6380  137.4980  157.4899 N   0  0  0  0  0  0  0  0  0  0  0  0
  150.0188  136.2526  157.5682 C   0  0  0  0  0  0  0  0  0  0  0  0
  150.9650  135.8686  156.6449 N   0  0  0  0  0  0  0  0  0  0  0  0
  151.5598  134.5482  156.5016 C   0  0  0  0  0  0  0  0  0  0  0  0
  150.5186  133.4077  156.4026 C   0  0  1  0  0  0  0  0  0  0  0  0
  149.8859  133.2484  157.6607 O   0  0  0  0  0  0  0  0  0  0  0  0
  149.4451  133.6734  155.3556 C   0  0  0  0  0  0  0  0  0  0  0  0
  149.0262  132.2688  154.9418 C   0  0  0  0  0  0  0  0  0  0  0  0
  150.2545  131.5610  154.9192 O   0  0  0  0  0  0  0  0  0  0  0  0
  151.0909  132.0429  155.9678 C   0  0  0  0  0  0  0  0  0  0  0  0
  147.5104  139.2816  155.7072 C   0  0  1  0  0  0  0  0  0  0  0  0
  147.2799  138.8911  157.1785 C   0  0  0  0  0  0  0  0  0  0  0  0
  146.1440  139.5190  155.0221 C   0  0  0  0  0  0  0  0  0  0  0  0
  145.9995  136.9868  151.8759 H   0  0  0  0  0  0  0  0  0  0  0  0
  144.7005  137.9954  152.5015 H   0  0  0  0  0  0  0  0  0  0  0  0
  145.7803  137.1442  153.6083 H   0  0  0  0  0  0  0  0  0  0  0  0
  147.7066  138.5767  152.8347 H   0  0  0  0  0  0  0  0  0  0  0  0
  146.6705  139.3117  151.6419 H   0  0  0  0  0  0  0  0  0  0  0  0
  147.1530  141.5164  152.4622 H   0  0  0  0  0  0  0  0  0  0  0  0
  146.5685  141.9982  154.0330 H   0  0  0  0  0  0  0  0  0  0  0  0
  149.0322  140.2773  153.4974 H   0  0  0  0  0  0  0  0  0  0  0  0
  149.0368  141.9390  154.0254 H   0  0  0  0  0  0  0  0  0  0  0  0
  147.9245  141.3363  156.1331 H   0  0  0  0  0  0  0  0  0  0  0  0
  151.5106  141.3803  156.7892 H   0  0  0  0  0  0  0  0  0  0  0  0
  150.0194  142.2876  157.0158 H   0  0  0  0  0  0  0  0  0  0  0  0
  150.6984  142.1109  155.3984 H   0  0  0  0  0  0  0  0  0  0  0  0
  152.7614  138.5918  153.5658 H   0  0  0  0  0  0  0  0  0  0  0  0
  149.6147  135.5754  158.3064 H   0  0  0  0  0  0  0  0  0  0  0  0
  152.1985  134.5526  155.6172 H   0  0  0  0  0  0  0  0  0  0  0  0
  152.2200  134.3807  157.3536 H   0  0  0  0  0  0  0  0  0  0  0  0
  149.3291  132.4859  157.6226 H   0  0  0  0  0  0  0  0  0  0  0  0
  148.6151  134.2797  155.7205 H   0  0  0  0  0  0  0  0  0  0  0  0
  149.8761  134.1845  154.4934 H   0  0  0  0  0  0  0  0  0  0  0  0
  148.3605  131.8241  155.6833 H   0  0  0  0  0  0  0  0  0  0  0  0
  148.5295  132.2434  153.9717 H   0  0  0  0  0  0  0  0  0  0  0  0
  152.1006  132.1302  155.5683 H   0  0  0  0  0  0  0  0  0  0  0  0
  151.1254  131.3256  156.7893 H   0  0  0  0  0  0  0  0  0  0  0  0
  147.9886  138.4379  155.2109 H   0  0  0  0  0  0  0  0  0  0  0  0
  146.7919  139.6956  157.7296 H   0  0  0  0  0  0  0  0  0  0  0  0
  148.2138  138.6630  157.6909 H   0  0  0  0  0  0  0  0  0  0  0  0
  146.6471  138.0065  157.2539 H   0  0  0  0  0  0  0  0  0  0  0  0
  145.5996  140.2946  155.5629 H   0  0  0  0  0  0  0  0  0  0  0  0
  145.5236  138.6261  155.0883 H   0  0  0  0  0  0  0  0  0  0  0  0
  145.3413  140.2257  153.3147 H   0  0  0  0  0  0  0  0  0  0  0  0
  1  2  1  0  0  0  0
  1 28  1  0  0  0  0
  1 29  1  0  0  0  0
  1 30  1  0  0  0  0
  2  3  1  0  0  0  0
  2 31  1  0  0  0  0
  2 32  1  0  0  0  0
  3 27  1  0  0  0  0
  3  4  1  0  0  0  0
  3 58  1  0  0  0  0
  4  5  1  0  0  0  0
  4 33  1  0  0  0  0
  4 34  1  0  0  0  0
  5  6  1  0  0  0  0
  5 35  1  0  0  0  0
  5 36  1  0  0  0  0
  6  7  1  0  0  0  0
  6 25  1  0  0  0  0
  6 37  1  0  0  0  0
  7  8  1  0  0  0  0
  7  9  1  0  0  0  0
  8 38  1  0  0  0  0
  8 39  1  0  0  0  0
  8 40  1  0  0  0  0
  9 14  1  0  0  0  0
  9 10  2  0  0  0  0
 10 11  1  0  0  0  0
 11 12  2  0  0  0  0
 11 41  1  0  0  0  0
 12 13  1  0  0  0  0
 13 17  1  0  0  0  0
 13 14  2  0  0  0  0
 14 15  1  0  0  0  0
 15 16  2  0  0  0  0
 16 17  1  0  0  0  0
 16 42  1  0  0  0  0
 17 18  1  0  0  0  0
 18 19  1  0  0  0  0
 18 43  1  0  0  0  0
 18 44  1  0  0  0  0
 19 24  1  0  0  0  0
 19 20  1  0  0  0  0
 19 21  1  0  0  0  0
 20 45  1  0  0  0  0
 21 22  1  0  0  0  0
 21 46  1  0  0  0  0
 21 47  1  0  0  0  0
 22 23  1  0  0  0  0
 22 48  1  0  0  0  0
 22 49  1  0  0  0  0
 23 24  1  0  0  0  0
 24 50  1  0  0  0  0
 24 51  1  0  0  0  0
 25 26  1  0  0  0  0
 25 27  1  0  0  0  0
 25 52  1  0  0  0  0
 26 53  1  0  0  0  0
 26 54  1  0  0  0  0
 26 55  1  0  0  0  0
 27 56  1  0  0  0  0
 27 57  1  0  0  0  0
M  CHG  1   3   1
M  END
> <s_m_source_file>
AV-unprocessed.smi

> <i_m_source_file_index>
243

> <i_lp_mmshare_version>
43012

> <i_f3d_flags>
0

> <s_epik_input>
W0NIM11bQ0gyXU4xW0NIMl1bQ0gyXVtDQEhdKFtDQEBIXShbQ0gzXSlbQ0gyXTEpTihbQ0gzXSljKG5bY0hdbjIpYyhjMjMpbltjSF1uM1tDSDJdW0NAQF00KFtPSF0pW0NIMl1bQ0gyXU9bQ0gyXTQ=

> <s_epik_cmdline>
J2VwaWtfcHl0aG9uJywgJy1waCcsICc3LjAnLCAnLXRuJywgJzgnLCAnLW1hJywgJzIwMCcsICctbWV0YWxfYmluZGluZycsICctaW1hZScsICc8aW5maWxlLm1hZT4nLCAnLW9tYWUnLCAnPG91dGZpbGUubWFlPic=

> <r_lp_tautomer_probability>
1

> <r_epik_Ionization_Penalty>
0.00253099

> <r_epik_Ionization_Penalty_Charging>
0.00137877

> <r_epik_Ionization_Penalty_Neutral>
0.00115221

> <r_epik_State_Penalty>
-0

> <r_epik_Charging_Adjusted_Penalty>
0.00137877

> <i_epik_Tot_Q>
1

> <i_epik_Tot_abs_Q>
1

> <r_epik_Metal_State_Penalty>
-0

> <b_epik_Metal_Only>
0

> <s_lp_Force_Field>
OPLS_2005

> <r_lp_Energy>
49.0604

> <b_lp_Chiralities_Consistent>
1

> <s_lp_Variant>
AV-unprocessed.smi:243-3

> <Gold.Version>
5.8.1

> <Gold.Id.Protein>
6NUR|6NUR_protein|mol2

> <Gold.PLP.Fitness>
49.9627

> <Gold.PLP.PLP>
-36.1135

> <Gold.PLP.part.hbond>
-4.0000

> <Gold.PLP.part.metal>
0.0000

> <Gold.PLP.part.buried>
-5.2835

> <Gold.PLP.part.nonpolar>
-26.8704

> <Gold.PLP.part.repulsive>
0.1902

> <Gold.PLP.ligand.clash>
0.0000

> <Gold.PLP.ligand.torsion>
0.7718

> <Gold.PLP.Chemscore.Hbond>
4.8320

> <Gold.PLP.Chemscore.CHOScore>
0.0000

> <Gold.PLP.Chemscore.Metal>
0.0000

> <Gold.Chemscore.Hbonds>
donor molecule, donor type, donor heavy atom, donor atom, acceptor molecule, acceptor atom, score
      L1  H     3    58       P1 10175  2.00
      P1  H  6896  6909       L1    20  1.00
      P1  H  7989  7998       L1    10  1.00
      P1  H 10752 10764       L1    12  0.86

> <Gold.PLP.Chemscore.Internal.Correction>
0.8968

> <Gold.Rescore>
     Score         DG    S(hbond)    S(metal)    S(lipo)     H(rot)  DE(clash)    DE(int)     intcor
     17.05     -18.37       3.62        0.00      62.11       2.53       0.07       1.25       ----

> <Gold.Chemscore.Fitness>
17.0539

> <Gold.Chemscore.DG>
-18.3715

> <Gold.Chemscore.ZeroCoef>
-5.4800

> <Gold.Chemscore.Hbond>
3.6235

> <Gold.Chemscore.Metal>
0.0000

> <Gold.Chemscore.Lipo>
62.1100

> <Gold.Chemscore.Internal_Hbond>
0.0000

> <Gold.Chemscore.DEClash>
0.0650

> <Gold.Chemscore.DEInternal>
1.2525

> <Gold.Chemscore.Rot>
2.5305

> <Gold.Chemscore.Internal.Correction>
   9.000000E+99

> <Gold.Chemscore.Hbonds>
donor molecule, donor type, donor heavy atom, donor atom, acceptor molecule, acceptor atom, score
      L1  H     3    58       P1 10175  1.00
      P1  H  6896  6909       L1    20  0.86
      P1  H  7989  7998       L1    10  0.55
      P1  H 10752 10764       L1    12  0.71

> <Gold.Chemscore.Hbond.Weighted>
-12.1026

> <Gold.Chemscore.Metal.Weighted>
-0.0000

> <Gold.Chemscore.Lipo.Weighted>
-7.2669

> <Gold.Chemscore.Internal_Hbond.Weighted>
0.0000

> <Gold.Chemscore.DEClash.Weighted>
0.0650

> <Gold.Chemscore.DEInternal.Weighted>
1.2525

> <Gold.Chemscore.Rot.Weighted>
6.4780

> <Gold.Chemscore.Internal.Correction.Weighted>
   9.000000E+99

> <Gold.Protein.RotatedTorsions>
[ 6907 6896 6895 6894 ] final  -21.51 input  -60.11 | X-H torsion
[ 7974 7965 7964 7962 ] final  -12.09 input  175.53 | X-H torsion
[ 8008 7997 7996 7995 ] final   27.22 input   59.86 | X-H torsion
[ 10167 10162 10161 10158 ] final -170.60 input  -65.29 | X-H torsion
[ 10718 10713 10712 10709 ] final  105.58 input   66.30 | X-H torsion
[ 10763 10752 10751 10750 ] final  -65.58 input  -60.55 | X-H torsion
[ 11005 11000 10999 10996 ] final   20.02 input  -57.11 | X-H torsion

> <Gold.Protein.ActiveResidues>
 VAL166  LYS551  ARG553  GLY616  TRP617  ASP618  TYR619  PRO620  LYS621  CYS622 
 ASP623  PHE694  ASN695  SER759  ASP760  ASP761  ALA762  ILE779  LEU786  VAL792 
 PHE793  MET794  SER795  GLU796  ALA797  LYS798  CYS799  TRP800  GLU811  SER814 

> <Gold.Protein.RotatedAtoms>
  151.2323  135.0559  159.8992 H   0  0  0  0  0  0  0  0  0  0  0  0  # atno 6907 bound_to 6896
  152.5403  134.0523  159.8126 H   0  0  0  0  0  0  0  0  0  0  0  0  # atno 6908 bound_to 6896
  151.0705  133.5421  159.2659 H   0  0  0  0  0  0  0  0  0  0  0  0  # atno 6909 bound_to 6896
  146.2164  140.3006  142.8375 H   0  0  0  0  0  0  0  0  0  0  0  0  # atno 7974 bound_to 7965
  155.0395  140.3167  155.4729 H   0  0  0  0  0  0  0  0  0  0  0  0  # atno 8008 bound_to 7997
  156.2857  140.2165  156.5462 H   0  0  0  0  0  0  0  0  0  0  0  0  # atno 8009 bound_to 7997
  154.7302  140.0482  157.0707 H   0  0  0  0  0  0  0  0  0  0  0  0  # atno 8010 bound_to 7997
  139.5852  144.1335  152.1566 H   0  0  0  0  0  0  0  0  0  0  0  0  # atno 10167 bound_to 10162
  157.6700  131.0831  150.5879 H   0  0  0  0  0  0  0  0  0  0  0  0  # atno 10718 bound_to 10713
  154.3471  135.6144  153.5624 H   0  0  0  0  0  0  0  0  0  0  0  0  # atno 10763 bound_to 10752
  152.9800  135.5783  154.4787 H   0  0  0  0  0  0  0  0  0  0  0  0  # atno 10764 bound_to 10752
  154.4501  135.2852  155.1764 H   0  0  0  0  0  0  0  0  0  0  0  0  # atno 10765 bound_to 10752
  140.4072  134.1656  155.7666 H   0  0  0  0  0  0  0  0  0  0  0  0  # atno 11005 bound_to 11000
  144.9060  140.7700  143.5837 LP  0  0  0  0  0  0  0  0  0  0  0  0  # atno 17320 bound_to 7965
  145.2935  139.1875  143.4728 LP  0  0  0  0  0  0  0  0  0  0  0  0  # atno 17321 bound_to 7965
  140.0897  144.5631  150.7063 LP  0  0  0  0  0  0  0  0  0  0  0  0  # atno 17342 bound_to 10162
  140.7124  143.2516  151.4538 LP  0  0  0  0  0  0  0  0  0  0  0  0  # atno 17343 bound_to 10162
  156.6179  130.4398  149.5833 LP  0  0  0  0  0  0  0  0  0  0  0  0  # atno 17370 bound_to 10713
  156.2379  130.6833  151.1527 LP  0  0  0  0  0  0  0  0  0  0  0  0  # atno 17371 bound_to 10713
  141.1835  133.8364  157.1174 LP  0  0  0  0  0  0  0  0  0  0  0  0  # atno 17394 bound_to 11000
  140.0293  134.9909  157.0749 LP  0  0  0  0  0  0  0  0  0  0  0  0  # atno 17395 bound_to 11000

$$$$
