AV-unprocessed.smi:1723|AV-procd|sdf|6947|dock2
  -GOLD-   22720 8153D 1   1.00000     0.00000
 Structure written by MMmdl.
 37 37  0  0  0  0  0  0  0  0  2 V2000
  145.6254  143.8293  153.3589 C   0  0  0  0  0  0  0  0  0  0  0  0
  145.7815  142.9196  154.5824 C   0  0  0  0  0  0  0  0  0  0  0  0
  147.1498  142.2222  154.6280 C   0  0  0  0  0  0  0  0  0  0  0  0
  147.2362  141.0166  153.6841 C   0  0  0  0  0  0  0  0  0  0  0  0
  148.0380  140.0081  154.2892 O   0  0  0  0  0  0  0  0  0  0  0  0
  149.4127  140.3420  154.4614 C   0  0  2  0  0  0  0  0  0  0  0  0
  150.2365  139.0849  154.1465 C   0  0  0  0  0  0  0  0  0  0  0  0
  149.6658  140.8292  155.8974 C   0  0  0  0  0  0  0  0  0  0  0  0
  148.7163  140.9357  156.6730 O   0  0  0  0  0  0  0  0  0  0  0  0
  150.9467  141.1363  156.1828 N   0  0  0  0  0  0  0  0  0  0  0  0
  151.5187  141.6049  157.3784 C   0  0  0  0  0  0  0  0  0  0  0  0
  151.2403  142.8033  157.9635 C   0  0  0  0  0  0  0  0  0  0  0  0
  151.8649  143.2275  159.2101 C   0  0  0  0  0  0  0  0  0  0  0  0
  151.5197  144.5217  159.9258 C   0  0  0  0  0  0  0  0  0  0  0  0
  152.0825  144.5692  161.1336 F   0  0  0  0  0  0  0  0  0  0  0  0
  151.9617  145.5614  159.2199 F   0  0  0  0  0  0  0  0  0  0  0  0
  150.2007  144.6493  160.0713 F   0  0  0  0  0  0  0  0  0  0  0  0
  152.7234  142.2720  159.7180 C   0  0  0  0  0  0  0  0  0  0  0  0
  153.0603  141.0704  159.2006 N   0  5  0  0  0  0  0  0  0  0  0  0
  152.4770  140.6877  158.0300 C   0  0  0  0  0  0  0  0  0  0  0  0
  152.7315  139.6009  157.5092 O   0  0  0  0  0  0  0  0  0  0  0  0
  144.6464  144.3087  153.3536 H   0  0  0  0  0  0  0  0  0  0  0  0
  145.7235  143.2633  152.4323 H   0  0  0  0  0  0  0  0  0  0  0  0
  146.3804  144.6158  153.3533 H   0  0  0  0  0  0  0  0  0  0  0  0
  145.6410  143.5096  155.4888 H   0  0  0  0  0  0  0  0  0  0  0  0
  144.9874  142.1721  154.5762 H   0  0  0  0  0  0  0  0  0  0  0  0
  147.9388  142.9340  154.3827 H   0  0  0  0  0  0  0  0  0  0  0  0
  147.3450  141.8865  155.6470 H   0  0  0  0  0  0  0  0  0  0  0  0
  146.2356  140.6229  153.5002 H   0  0  0  0  0  0  0  0  0  0  0  0
  147.6424  141.3318  152.7223 H   0  0  0  0  0  0  0  0  0  0  0  0
  149.6890  141.1204  153.7474 H   0  0  0  0  0  0  0  0  0  0  0  0
  151.3036  139.2668  154.2799 H   0  0  0  0  0  0  0  0  0  0  0  0
  150.0826  138.7714  153.1138 H   0  0  0  0  0  0  0  0  0  0  0  0
  149.9553  138.2490  154.7884 H   0  0  0  0  0  0  0  0  0  0  0  0
  151.6034  141.0483  155.4206 H   0  0  0  0  0  0  0  0  0  0  0  0
  150.5313  143.4855  157.5259 H   0  0  0  0  0  0  0  0  0  0  0  0
  153.2108  142.5064  160.6883 H   0  0  0  0  0  0  0  0  0  0  0  0
  1  2  1  0  0  0  0
  1 22  1  0  0  0  0
  1 23  1  0  0  0  0
  1 24  1  0  0  0  0
  2  3  1  0  0  0  0
  2 25  1  0  0  0  0
  2 26  1  0  0  0  0
  3  4  1  0  0  0  0
  3 27  1  0  0  0  0
  3 28  1  0  0  0  0
  4  5  1  0  0  0  0
  4 29  1  0  0  0  0
  4 30  1  0  0  0  0
  5  6  1  0  0  0  0
  6  7  1  0  0  0  0
  6  8  1  0  0  0  0
  6 31  1  0  0  0  0
  7 32  1  0  0  0  0
  7 33  1  0  0  0  0
  7 34  1  0  0  0  0
  8  9  2  0  0  0  0
  8 10  1  0  0  0  0
 10 11  1  0  0  0  0
 10 35  1  0  0  0  0
 11 20  1  0  0  0  0
 11 12  2  0  0  0  0
 12 13  1  0  0  0  0
 12 36  1  0  0  0  0
 13 14  1  0  0  0  0
 13 18  2  0  0  0  0
 14 15  1  0  0  0  0
 14 16  1  0  0  0  0
 14 17  1  0  0  0  0
 18 19  1  0  0  0  0
 18 37  1  0  0  0  0
 19 20  1  0  0  0  0
 20 21  2  0  0  0  0
M  CHG  1  19  -1
M  END
> <s_m_source_file>
AV-unprocessed.smi

> <i_m_source_file_index>
1723

> <i_lp_mmshare_version>
43012

> <i_f3d_flags>
0

> <s_epik_input>
W0NIM11bQ0gyXVtDSDJdW0NIMl1PW0NASF0oW0NIM10pQyg9TylbTkhdYzFbY0hdYyhDKEYpKEYpRilbY0hdW25IXWMxPU8=

> <s_epik_cmdline>
J2VwaWtfcHl0aG9uJywgJy1waCcsICc3LjAnLCAnLXRuJywgJzgnLCAnLW1hJywgJzIwMCcsICctbWV0YWxfYmluZGluZycsICctaW1hZScsICc8aW5maWxlLm1hZT4nLCAnLW9tYWUnLCAnPG91dGZpbGUubWFlPic=

> <r_lp_tautomer_probability>
0.999

> <r_epik_Ionization_Penalty>
2.64397

> <r_epik_Ionization_Penalty_Charging>
0.0618254

> <r_epik_Ionization_Penalty_Neutral>
2.58215

> <r_epik_State_Penalty>
2.58023

> <r_epik_Charging_Adjusted_Penalty>
2.64205

> <i_epik_Tot_Q>
-1

> <i_epik_Tot_abs_Q>
1

> <r_epik_Metal_State_Penalty>
0.429101

> <b_epik_Metal_Only>
1

> <s_lp_Force_Field>
OPLS_2005

> <r_lp_Energy>
21.4098

> <b_lp_Chiralities_Consistent>
1

> <s_lp_Variant>
AV-unprocessed.smi:1723-3

> <Gold.Version>
5.8.1

> <Gold.Id.Protein>
6NUR|6NUR_protein|mol2

> <Gold.PLP.Fitness>
46.0752

> <Gold.PLP.PLP>
-46.3579

> <Gold.PLP.part.hbond>
-1.0000

> <Gold.PLP.part.metal>
0.0000

> <Gold.PLP.part.buried>
-3.1611

> <Gold.PLP.part.nonpolar>
-40.2753

> <Gold.PLP.part.repulsive>
0.2956

> <Gold.PLP.ligand.clash>
0.0000

> <Gold.PLP.ligand.torsion>
1.6629

> <Gold.PLP.Chemscore.Hbond>
0.9500

> <Gold.PLP.Chemscore.CHOScore>
0.0000

> <Gold.PLP.Chemscore.Metal>
0.0000

> <Gold.Chemscore.Hbonds>
donor molecule, donor type, donor heavy atom, donor atom, acceptor molecule, acceptor atom, score
      P1  H  7997  8010       L1    21  0.85

> <Gold.PLP.Chemscore.Internal.Correction>
0.1931

> <Gold.Rescore>
     Score         DG    S(hbond)    S(metal)    S(lipo)     H(rot)  DE(clash)    DE(int)     intcor
     11.70     -13.53       0.60        0.00      94.35       1.95       0.24       1.60       ----

> <Gold.Chemscore.Fitness>
11.6996

> <Gold.Chemscore.DG>
-13.5317

> <Gold.Chemscore.ZeroCoef>
-5.4800

> <Gold.Chemscore.Hbond>
0.6006

> <Gold.Chemscore.Metal>
0.0000

> <Gold.Chemscore.Lipo>
94.3543

> <Gold.Chemscore.Internal_Hbond>
0.0000

> <Gold.Chemscore.DEClash>
0.2350

> <Gold.Chemscore.DEInternal>
1.5970

> <Gold.Chemscore.Rot>
1.9507

> <Gold.Chemscore.Internal.Correction>
   9.000000E+99

> <Gold.Chemscore.Hbonds>
donor molecule, donor type, donor heavy atom, donor atom, acceptor molecule, acceptor atom, score
      P1  H  7997  8010       L1    21  0.15

> <Gold.Chemscore.Hbond.Weighted>
-2.0062

> <Gold.Chemscore.Metal.Weighted>
-0.0000

> <Gold.Chemscore.Lipo.Weighted>
-11.0395

> <Gold.Chemscore.Internal_Hbond.Weighted>
0.0000

> <Gold.Chemscore.DEClash.Weighted>
0.2350

> <Gold.Chemscore.DEInternal.Weighted>
1.5970

> <Gold.Chemscore.Rot.Weighted>
4.9939

> <Gold.Chemscore.Internal.Correction.Weighted>
   9.000000E+99

> <Gold.Protein.RotatedTorsions>
[ 6907 6896 6895 6894 ] final  -58.91 input  -60.11 | X-H torsion
[ 7974 7965 7964 7962 ] final -164.78 input  175.53 | X-H torsion
[ 8008 7997 7996 7995 ] final   49.52 input   59.86 | X-H torsion
[ 10167 10162 10161 10158 ] final -139.38 input  -65.29 | X-H torsion
[ 10718 10713 10712 10709 ] final  -95.11 input   66.30 | X-H torsion
[ 10763 10752 10751 10750 ] final  151.96 input  -60.55 | X-H torsion
[ 11005 11000 10999 10996 ] final   34.71 input  -57.11 | X-H torsion

> <Gold.Protein.ActiveResidues>
 VAL166  LYS551  ARG553  GLY616  TRP617  ASP618  TYR619  PRO620  LYS621  CYS622 
 ASP623  PHE694  ASN695  SER759  ASP760  ASP761  ALA762  ILE779  LEU786  VAL792 
 PHE793  MET794  SER795  GLU796  ALA797  LYS798  CYS799  TRP800  GLU811  SER814 

> <Gold.Protein.RotatedAtoms>
  150.7970  134.7037  159.6564 H   0  0  0  0  0  0  0  0  0  0  0  0  # atno 6907 bound_to 6896
  152.4084  134.6164  160.0049 H   0  0  0  0  0  0  0  0  0  0  0  0  # atno 6908 bound_to 6896
  151.6415  133.3289  159.3167 H   0  0  0  0  0  0  0  0  0  0  0  0  # atno 6909 bound_to 6896
  144.7287  140.2911  143.6220 H   0  0  0  0  0  0  0  0  0  0  0  0  # atno 7974 bound_to 7965
  155.4036  140.3439  155.4258 H   0  0  0  0  0  0  0  0  0  0  0  0  # atno 8008 bound_to 7997
  156.1489  140.1565  156.8834 H   0  0  0  0  0  0  0  0  0  0  0  0  # atno 8009 bound_to 7997
  154.5035  140.0808  156.7828 H   0  0  0  0  0  0  0  0  0  0  0  0  # atno 8010 bound_to 7997
  139.8385  143.7352  152.2664 H   0  0  0  0  0  0  0  0  0  0  0  0  # atno 10167 bound_to 10162
  156.0038  130.5096  150.6028 H   0  0  0  0  0  0  0  0  0  0  0  0  # atno 10718 bound_to 10713
  154.1122  135.2838  155.3228 H   0  0  0  0  0  0  0  0  0  0  0  0  # atno 10763 bound_to 10752
  154.6481  135.5378  153.7872 H   0  0  0  0  0  0  0  0  0  0  0  0  # atno 10764 bound_to 10752
  153.0341  135.6503  154.1280 H   0  0  0  0  0  0  0  0  0  0  0  0  # atno 10765 bound_to 10752
  140.2501  134.3314  155.7893 H   0  0  0  0  0  0  0  0  0  0  0  0  # atno 11005 bound_to 11000
  145.7854  139.1907  143.2133 LP  0  0  0  0  0  0  0  0  0  0  0  0  # atno 17320 bound_to 7965
  146.0799  140.7775  142.9646 LP  0  0  0  0  0  0  0  0  0  0  0  0  # atno 17321 bound_to 7965
  139.7582  144.7514  151.0403 LP  0  0  0  0  0  0  0  0  0  0  0  0  # atno 17342 bound_to 10162
  140.7800  143.4781  151.0055 LP  0  0  0  0  0  0  0  0  0  0  0  0  # atno 17343 bound_to 10162
  157.3874  131.0790  151.1424 LP  0  0  0  0  0  0  0  0  0  0  0  0  # atno 17370 bound_to 10713
  157.2127  130.6445  149.5780 LP  0  0  0  0  0  0  0  0  0  0  0  0  # atno 17371 bound_to 10713
  141.2202  133.7348  156.9023 LP  0  0  0  0  0  0  0  0  0  0  0  0  # atno 17394 bound_to 11000
  140.1567  134.9193  157.2662 LP  0  0  0  0  0  0  0  0  0  0  0  0  # atno 17395 bound_to 11000

$$$$
