AV-unprocessed.smi:2087|AV-procd|sdf|8523|dock6
  -GOLD-   2272011243D 1   1.00000     0.00000
 Structure written by MMmdl.
 51 52  0  0  0  0  0  0  0  0  2 V2000
  142.4151  137.5863  153.1538 C   0  0  0  0  0  0  0  0  0  0  0  0
  143.8509  137.1178  152.8616 C   0  0  0  0  0  0  0  0  0  0  0  0
  143.8867  135.5951  152.6634 C   0  0  0  0  0  0  0  0  0  0  0  0
  144.8324  137.5436  153.9749 C   0  0  0  0  0  0  0  0  0  0  0  0
  145.5015  138.8397  153.6943 N   0  3  2  0  0  0  0  0  0  0  0  0
  146.5911  138.7450  152.6910 C   0  0  0  0  0  0  0  0  0  0  0  0
  147.2028  140.1317  152.4294 C   0  0  0  0  0  0  0  0  0  0  0  0
  147.6535  140.6921  153.6559 O   0  0  0  0  0  0  0  0  0  0  0  0
  146.5884  140.8834  154.5821 C   0  0  2  0  0  0  0  0  0  0  0  0
  147.1405  141.6104  155.8223 C   0  0  0  0  0  0  0  0  0  0  0  0
  148.5893  141.7556  155.7453 N   0  0  0  0  0  0  0  0  0  0  0  0
  149.4747  140.8036  156.0740 C   0  0  0  0  0  0  0  0  0  0  0  0
  149.1503  139.6573  156.3866 O   0  0  0  0  0  0  0  0  0  0  0  0
  150.9517  141.2162  156.0560 C   0  0  0  0  0  0  0  0  0  0  0  0
  151.4093  141.7168  157.3594 N   0  0  0  0  0  0  0  0  0  0  0  0
  150.9938  142.9601  157.8012 C   0  0  0  0  0  0  0  0  0  0  0  0
  151.3697  143.4945  158.9836 C   0  0  0  0  0  0  0  0  0  0  0  0
  152.2632  142.7719  159.8802 C   0  0  0  0  0  0  0  0  0  0  0  0
  152.6214  143.2093  160.9745 O   0  0  0  0  0  0  0  0  0  0  0  0
  152.6856  141.5104  159.4000 N   0  0  0  0  0  0  0  0  0  0  0  0
  153.5708  140.7438  160.2527 C   0  0  0  0  0  0  0  0  0  0  0  0
  152.2715  140.9457  158.1718 C   0  0  0  0  0  0  0  0  0  0  0  0
  152.6358  139.8246  157.8069 O   0  0  0  0  0  0  0  0  0  0  0  0
  145.9878  139.5079  154.9249 C   0  0  0  0  0  0  0  0  0  0  0  0
  142.0467  137.1726  154.0931 H   0  0  0  0  0  0  0  0  0  0  0  0
  141.7318  137.2735  152.3635 H   0  0  0  0  0  0  0  0  0  0  0  0
  142.3537  138.6726  153.2217 H   0  0  0  0  0  0  0  0  0  0  0  0
  144.1643  137.5642  151.9181 H   0  0  0  0  0  0  0  0  0  0  0  0
  143.5737  135.0699  153.5664 H   0  0  0  0  0  0  0  0  0  0  0  0
  144.8910  135.2535  152.4109 H   0  0  0  0  0  0  0  0  0  0  0  0
  143.2239  135.2880  151.8536 H   0  0  0  0  0  0  0  0  0  0  0  0
  144.2749  137.6189  154.9097 H   0  0  0  0  0  0  0  0  0  0  0  0
  145.5909  136.7756  154.1359 H   0  0  0  0  0  0  0  0  0  0  0  0
  147.3616  138.0614  153.0507 H   0  0  0  0  0  0  0  0  0  0  0  0
  146.2147  138.3370  151.7537 H   0  0  0  0  0  0  0  0  0  0  0  0
  148.0495  140.0472  151.7478 H   0  0  0  0  0  0  0  0  0  0  0  0
  146.4788  140.7964  151.9553 H   0  0  0  0  0  0  0  0  0  0  0  0
  145.8160  141.5014  154.1202 H   0  0  0  0  0  0  0  0  0  0  0  0
  146.6773  142.5929  155.9280 H   0  0  0  0  0  0  0  0  0  0  0  0
  146.8968  141.0521  156.7267 H   0  0  0  0  0  0  0  0  0  0  0  0
  148.9439  142.6660  155.4890 H   0  0  0  0  0  0  0  0  0  0  0  0
  151.5421  140.3515  155.7503 H   0  0  0  0  0  0  0  0  0  0  0  0
  151.1222  141.9785  155.2933 H   0  0  0  0  0  0  0  0  0  0  0  0
  150.3329  143.5379  157.1715 H   0  0  0  0  0  0  0  0  0  0  0  0
  151.0046  144.4700  159.2700 H   0  0  0  0  0  0  0  0  0  0  0  0
  154.1014  139.9877  159.6737 H   0  0  0  0  0  0  0  0  0  0  0  0
  152.9502  140.2862  161.0243 H   0  0  0  0  0  0  0  0  0  0  0  0
  154.3097  141.4213  160.6842 H   0  0  0  0  0  0  0  0  0  0  0  0
  145.1611  139.6347  155.6253 H   0  0  0  0  0  0  0  0  0  0  0  0
  146.7324  138.8786  155.4153 H   0  0  0  0  0  0  0  0  0  0  0  0
  144.7944  139.4483  153.3070 H   0  0  0  0  0  0  0  0  0  0  0  0
  1  2  1  0  0  0  0
  1 25  1  0  0  0  0
  1 26  1  0  0  0  0
  1 27  1  0  0  0  0
  2  3  1  0  0  0  0
  2  4  1  0  0  0  0
  2 28  1  0  0  0  0
  3 29  1  0  0  0  0
  3 30  1  0  0  0  0
  3 31  1  0  0  0  0
  4  5  1  0  0  0  0
  4 32  1  0  0  0  0
  4 33  1  0  0  0  0
  5 24  1  0  0  0  0
  5  6  1  0  0  0  0
  5 51  1  0  0  0  0
  6  7  1  0  0  0  0
  6 34  1  0  0  0  0
  6 35  1  0  0  0  0
  7  8  1  0  0  0  0
  7 36  1  0  0  0  0
  7 37  1  0  0  0  0
  8  9  1  0  0  0  0
  9 10  1  0  0  0  0
  9 24  1  0  0  0  0
  9 38  1  0  0  0  0
 10 11  1  0  0  0  0
 10 39  1  0  0  0  0
 10 40  1  0  0  0  0
 11 12  1  0  0  0  0
 11 41  1  0  0  0  0
 12 13  2  0  0  0  0
 12 14  1  0  0  0  0
 14 15  1  0  0  0  0
 14 42  1  0  0  0  0
 14 43  1  0  0  0  0
 15 22  1  0  0  0  0
 15 16  1  0  0  0  0
 16 17  2  0  0  0  0
 16 44  1  0  0  0  0
 17 18  1  0  0  0  0
 17 45  1  0  0  0  0
 18 19  2  0  0  0  0
 18 20  1  0  0  0  0
 20 21  1  0  0  0  0
 20 22  1  0  0  0  0
 21 46  1  0  0  0  0
 21 47  1  0  0  0  0
 21 48  1  0  0  0  0
 22 23  2  0  0  0  0
 24 49  1  0  0  0  0
 24 50  1  0  0  0  0
M  CHG  1   5   1
M  END
> <s_m_source_file>
AV-unprocessed.smi

> <i_m_source_file_index>
2087

> <i_lp_mmshare_version>
43012

> <i_f3d_flags>
0

> <s_epik_input>
W0NIM11bQ0hdKFtDSDNdKVtDSDJdTjFbQ0gyXVtDSDJdT1tDQEhdKFtDSDJdMSlbQ0gyXVtOSF1DKD1PKVtDSDJdbjJbY0hdW2NIXWMoPU8pbihbQ0gzXSljMj1P

> <s_epik_cmdline>
J2VwaWtfcHl0aG9uJywgJy1waCcsICc3LjAnLCAnLXRuJywgJzgnLCAnLW1hJywgJzIwMCcsICctbWV0YWxfYmluZGluZycsICctaW1hZScsICc8aW5maWxlLm1hZT4nLCAnLW9tYWUnLCAnPG91dGZpbGUubWFlPic=

> <r_lp_tautomer_probability>
1

> <r_epik_Ionization_Penalty>
0.097593

> <r_epik_Ionization_Penalty_Charging>
0.097593

> <r_epik_Ionization_Penalty_Neutral>
6.27044e-08

> <r_epik_State_Penalty>
0.0877056

> <r_epik_Charging_Adjusted_Penalty>
0.185299

> <i_epik_Tot_Q>
1

> <i_epik_Tot_abs_Q>
1

> <r_epik_Metal_State_Penalty>
0.0877109

> <b_epik_Metal_Only>
0

> <s_lp_Force_Field>
OPLS_2005

> <r_lp_Energy>
25.7141

> <b_lp_Chiralities_Consistent>
1

> <s_lp_Variant>
AV-unprocessed.smi:2087-4

> <Gold.Version>
5.8.1

> <Gold.Id.Protein>
6NUR|6NUR_protein|mol2

> <Gold.PLP.Fitness>
50.3647

> <Gold.PLP.PLP>
-39.3827

> <Gold.PLP.part.hbond>
-3.0000

> <Gold.PLP.part.metal>
0.0000

> <Gold.PLP.part.buried>
-3.4792

> <Gold.PLP.part.nonpolar>
-33.4581

> <Gold.PLP.part.repulsive>
0.3187

> <Gold.PLP.ligand.clash>
0.0000

> <Gold.PLP.ligand.torsion>
2.0559

> <Gold.PLP.Chemscore.Hbond>
4.0000

> <Gold.PLP.Chemscore.CHOScore>
1.0000

> <Gold.PLP.Chemscore.Metal>
0.0000

> <Gold.Chemscore.Hbonds>
donor molecule, donor type, donor heavy atom, donor atom, acceptor molecule, acceptor atom, score
      L1  H     5    51       P1 10175  2.00
      L1  H    11    41       P1  8028  0.94
      P1  H  7997  8008       L1    23  0.88
      L1  C    16    44       P1  8028  1.00

> <Gold.PLP.Chemscore.Internal.Correction>
0.0938

> <Gold.Rescore>
     Score         DG    S(hbond)    S(metal)    S(lipo)     H(rot)  DE(clash)    DE(int)     intcor
     16.12     -18.50       2.92        0.00      76.71       2.22       0.51       1.87       ----

> <Gold.Chemscore.Fitness>
16.1184

> <Gold.Chemscore.DG>
-18.4983

> <Gold.Chemscore.ZeroCoef>
-5.4800

> <Gold.Chemscore.Hbond>
2.9160

> <Gold.Chemscore.Metal>
0.0000

> <Gold.Chemscore.Lipo>
76.7058

> <Gold.Chemscore.Internal_Hbond>
0.0000

> <Gold.Chemscore.DEClash>
0.5113

> <Gold.Chemscore.DEInternal>
1.8686

> <Gold.Chemscore.Rot>
2.2249

> <Gold.Chemscore.Internal.Correction>
   9.000000E+99

> <Gold.Chemscore.Hbonds>
donor molecule, donor type, donor heavy atom, donor atom, acceptor molecule, acceptor atom, score
      L1  H     5    51       P1 10175  1.00
      L1  H    11    41       P1  8028  0.85
      P1  H  7997  8008       L1    23  0.51

> <Gold.Chemscore.Hbond.Weighted>
-9.7395

> <Gold.Chemscore.Metal.Weighted>
-0.0000

> <Gold.Chemscore.Lipo.Weighted>
-8.9746

> <Gold.Chemscore.Internal_Hbond.Weighted>
0.0000

> <Gold.Chemscore.DEClash.Weighted>
0.5113

> <Gold.Chemscore.DEInternal.Weighted>
1.8686

> <Gold.Chemscore.Rot.Weighted>
5.6957

> <Gold.Chemscore.Internal.Correction.Weighted>
   9.000000E+99

> <Gold.Protein.RotatedTorsions>
[ 6907 6896 6895 6894 ] final  177.55 input  -60.11 | X-H torsion
[ 7974 7965 7964 7962 ] final -175.65 input  175.53 | X-H torsion
[ 8008 7997 7996 7995 ] final  -67.14 input   59.86 | X-H torsion
[ 10167 10162 10161 10158 ] final  -10.03 input  -65.29 | X-H torsion
[ 10718 10713 10712 10709 ] final   28.75 input   66.30 | X-H torsion
[ 10763 10752 10751 10750 ] final  164.54 input  -60.55 | X-H torsion
[ 11005 11000 10999 10996 ] final   61.01 input  -57.11 | X-H torsion

> <Gold.Protein.ActiveResidues>
 VAL166  LYS551  ARG553  GLY616  TRP617  ASP618  TYR619  PRO620  LYS621  CYS622 
 ASP623  PHE694  ASN695  SER759  ASP760  ASP761  ALA762  ILE779  LEU786  VAL792 
 PHE793  MET794  SER795  GLU796  ALA797  LYS798  CYS799  TRP800  GLU811  SER814 

> <Gold.Protein.RotatedAtoms>
  151.7021  133.3311  159.3268 H   0  0  0  0  0  0  0  0  0  0  0  0  # atno 6907 bound_to 6896
  150.7731  134.6606  159.6347 H   0  0  0  0  0  0  0  0  0  0  0  0  # atno 6908 bound_to 6896
  152.3763  134.6661  160.0210 H   0  0  0  0  0  0  0  0  0  0  0  0  # atno 6909 bound_to 6896
  144.7128  140.1289  143.6400 H   0  0  0  0  0  0  0  0  0  0  0  0  # atno 7974 bound_to 7965
  154.4780  140.0898  156.7309 H   0  0  0  0  0  0  0  0  0  0  0  0  # atno 8008 bound_to 7997
  155.4545  140.3458  155.4286 H   0  0  0  0  0  0  0  0  0  0  0  0  # atno 8009 bound_to 7997
  156.1147  140.1457  156.9277 H   0  0  0  0  0  0  0  0  0  0  0  0  # atno 8010 bound_to 7997
  140.7103  143.5793  150.9009 H   0  0  0  0  0  0  0  0  0  0  0  0  # atno 10167 bound_to 10162
  157.2375  130.7053  149.6342 H   0  0  0  0  0  0  0  0  0  0  0  0  # atno 10718 bound_to 10713
  154.3104  135.2757  155.2569 H   0  0  0  0  0  0  0  0  0  0  0  0  # atno 10763 bound_to 10752
  154.4966  135.5819  153.6503 H   0  0  0  0  0  0  0  0  0  0  0  0  # atno 10764 bound_to 10752
  152.9889  135.6147  154.3281 H   0  0  0  0  0  0  0  0  0  0  0  0  # atno 10765 bound_to 10752
  140.0191  134.6180  155.9666 H   0  0  0  0  0  0  0  0  0  0  0  0  # atno 11005 bound_to 11000
  145.9304  139.2602  143.1328 LP  0  0  0  0  0  0  0  0  0  0  0  0  # atno 17320 bound_to 7965
  145.9529  140.8895  143.0250 LP  0  0  0  0  0  0  0  0  0  0  0  0  # atno 17321 bound_to 7965
  139.9519  143.6263  152.3027 LP  0  0  0  0  0  0  0  0  0  0  0  0  # atno 17342 bound_to 10162
  139.6784  144.7657  151.1653 LP  0  0  0  0  0  0  0  0  0  0  0  0  # atno 17343 bound_to 10162
  155.9672  130.4469  150.5558 LP  0  0  0  0  0  0  0  0  0  0  0  0  # atno 17370 bound_to 10713
  157.3414  131.0717  151.1785 LP  0  0  0  0  0  0  0  0  0  0  0  0  # atno 17371 bound_to 10713
  141.1762  133.6540  156.4838 LP  0  0  0  0  0  0  0  0  0  0  0  0  # atno 17394 bound_to 11000
  140.4419  134.7008  157.4996 LP  0  0  0  0  0  0  0  0  0  0  0  0  # atno 17395 bound_to 11000

$$$$
