AV-unprocessed.smi:703|AV-procd|sdf|3439|dock1
  -GOLD-   22720 0423D 1   1.00000     0.00000
 Structure written by MMmdl.
 37 38  0  0  0  0  0  0  0  0  3 V2000
  146.1126  132.2773  152.0583 C   0  0  0  0  0  0  0  0  0  0  0  0
  146.5937  133.7281  151.9207 C   0  0  0  0  0  0  0  0  0  0  0  0
  147.6438  134.0668  152.9108 N   0  3  2  0  0  0  0  0  0  0  0  0
  148.6786  133.0192  153.0876 C   0  0  0  0  0  0  0  0  0  0  0  0
  148.8470  132.8052  154.6011 C   0  0  1  0  0  0  0  0  0  0  0  0
  150.2888  132.4445  155.0100 C   0  0  0  0  0  0  0  0  0  0  0  0
  148.2867  134.0981  155.2129 C   0  0  2  0  0  0  0  0  0  0  0  0
  147.8134  133.8823  156.5710 N   0  5  0  0  0  0  0  0  0  0  0  0
  148.3099  134.8623  157.7649 S   0  0  0  0  0  0  0  0  0  0  0  0
  149.6539  134.5058  158.2469 O   0  0  0  0  0  0  0  0  0  0  0  0
  148.0579  136.2834  157.4731 O   0  0  0  0  0  0  0  0  0  0  0  0
  147.1447  134.3835  159.1162 C   0  0  0  0  0  0  0  0  0  0  0  0
  147.3263  135.2742  160.3142 C   0  0  0  0  0  0  0  0  0  0  0  0
  147.5883  134.8997  161.6615 C   0  0  0  0  0  0  0  0  0  0  0  0
  147.6576  136.0948  162.3172 C   0  0  0  0  0  0  0  0  0  0  0  0
  147.4486  137.1223  161.4563 O   0  0  0  0  0  0  0  0  0  0  0  0
  147.2329  136.5884  160.1808 N   0  0  0  0  0  0  0  0  0  0  0  0
  147.1435  134.4343  154.2529 C   0  0  0  0  0  0  0  0  0  0  0  0
  145.3046  132.0717  151.3561 H   0  0  0  0  0  0  0  0  0  0  0  0
  145.7370  132.0801  153.0628 H   0  0  0  0  0  0  0  0  0  0  0  0
  146.9133  131.5666  151.8522 H   0  0  0  0  0  0  0  0  0  0  0  0
  146.9618  133.9129  150.9103 H   0  0  0  0  0  0  0  0  0  0  0  0
  145.7433  134.3941  152.0729 H   0  0  0  0  0  0  0  0  0  0  0  0
  148.4075  132.0829  152.5968 H   0  0  0  0  0  0  0  0  0  0  0  0
  149.6022  133.3700  152.6228 H   0  0  0  0  0  0  0  0  0  0  0  0
  148.1941  131.9769  154.8851 H   0  0  0  0  0  0  0  0  0  0  0  0
  151.0041  133.2223  154.7364 H   0  0  0  0  0  0  0  0  0  0  0  0
  150.6059  131.5264  154.5151 H   0  0  0  0  0  0  0  0  0  0  0  0
  150.3751  132.2745  156.0848 H   0  0  0  0  0  0  0  0  0  0  0  0
  149.0467  134.8785  155.1509 H   0  0  0  0  0  0  0  0  0  0  0  0
  146.1251  134.4125  158.7314 H   0  0  0  0  0  0  0  0  0  0  0  0
  147.3617  133.3500  159.3847 H   0  0  0  0  0  0  0  0  0  0  0  0
  147.7127  133.9113  162.0779 H   0  0  0  0  0  0  0  0  0  0  0  0
  147.8378  136.3671  163.3466 H   0  0  0  0  0  0  0  0  0  0  0  0
  146.8616  135.4868  154.2943 H   0  0  0  0  0  0  0  0  0  0  0  0
  146.2594  133.8385  154.4902 H   0  0  0  0  0  0  0  0  0  0  0  0
  148.1349  134.8776  152.5624 H   0  0  0  0  0  0  0  0  0  0  0  0
  1  2  1  0  0  0  0
  1 19  1  0  0  0  0
  1 20  1  0  0  0  0
  1 21  1  0  0  0  0
  2  3  1  0  0  0  0
  2 22  1  0  0  0  0
  2 23  1  0  0  0  0
  3 18  1  0  0  0  0
  3  4  1  0  0  0  0
  3 37  1  0  0  0  0
  4  5  1  0  0  0  0
  4 24  1  0  0  0  0
  4 25  1  0  0  0  0
  5  6  1  0  0  0  0
  5  7  1  0  0  0  0
  5 26  1  0  0  0  0
  6 27  1  0  0  0  0
  6 28  1  0  0  0  0
  6 29  1  0  0  0  0
  7  8  1  0  0  0  0
  7 18  1  0  0  0  0
  7 30  1  0  0  0  0
  8  9  1  0  0  0  0
  9 10  2  0  0  0  0
  9 11  2  0  0  0  0
  9 12  1  0  0  0  0
 12 13  1  0  0  0  0
 12 31  1  0  0  0  0
 12 32  1  0  0  0  0
 13 17  2  0  0  0  0
 13 14  1  0  0  0  0
 14 15  2  0  0  0  0
 14 33  1  0  0  0  0
 15 16  1  0  0  0  0
 15 34  1  0  0  0  0
 16 17  1  0  0  0  0
 18 35  1  0  0  0  0
 18 36  1  0  0  0  0
M  CHG  1   3   1
M  CHG  1   8  -1
M  END
> <s_m_source_file>
AV-unprocessed.smi

> <i_m_source_file_index>
703

> <i_lp_mmshare_version>
43012

> <i_f3d_flags>
0

> <s_epik_input>
W0NIM11bQ0gyXU4xW0NIMl1bQ0BASF0oW0NIM10pW0NASF0oW0NIMl0xKVtOSF1TKD1PKSg9TylbQ0gyXWMyW2NIXVtjSF1vbjI=

> <s_epik_cmdline>
J2VwaWtfcHl0aG9uJywgJy1waCcsICc3LjAnLCAnLXRuJywgJzgnLCAnLW1hJywgJzIwMCcsICctbWV0YWxfYmluZGluZycsICctaW1hZScsICc8aW5maWxlLm1hZT4nLCAnLW9tYWUnLCAnPG91dGZpbGUubWFlPic=

> <r_epik_Ionization_Penalty>
3.62494

> <r_epik_Ionization_Penalty_Charging>
3.62494

> <r_epik_Ionization_Penalty_Neutral>
2.0321e-10

> <r_epik_State_Penalty>
3.62558

> <r_epik_Charging_Adjusted_Penalty>
7.25052

> <i_epik_Tot_Q>
0

> <i_epik_Tot_abs_Q>
2

> <r_epik_Metal_State_Penalty>
0.530836

> <b_epik_Metal_Only>
1

> <s_lp_Force_Field>
OPLS_2005

> <r_lp_Energy>
15.0444

> <b_lp_Chiralities_Consistent>
1

> <s_lp_Variant>
AV-unprocessed.smi:703-14

> <Gold.Version>
5.8.1

> <Gold.Id.Protein>
6NUR|6NUR_protein|mol2

> <Gold.PLP.Fitness>
39.7037

> <Gold.PLP.PLP>
-26.3324

> <Gold.PLP.part.hbond>
-3.9570

> <Gold.PLP.part.metal>
0.0000

> <Gold.PLP.part.buried>
-4.0023

> <Gold.PLP.part.nonpolar>
-18.7587

> <Gold.PLP.part.repulsive>
0.0000

> <Gold.PLP.ligand.clash>
0.0000

> <Gold.PLP.ligand.torsion>
0.9374

> <Gold.PLP.Chemscore.Hbond>
4.7352

> <Gold.PLP.Chemscore.CHOScore>
0.0000

> <Gold.PLP.Chemscore.Metal>
0.0000

> <Gold.Chemscore.Hbonds>
donor molecule, donor type, donor heavy atom, donor atom, acceptor molecule, acceptor atom, score
      L1  H     3    37       P1  7948  2.00
      P1  H  6896  6907       L1    10  1.00
      P1  H  6931  6943       L1    16  0.96
      P1  H  6934  6947       L1    16  0.78

> <Gold.PLP.Chemscore.Internal.Correction>
1.0404

> <Gold.Rescore>
     Score         DG    S(hbond)    S(metal)    S(lipo)     H(rot)  DE(clash)    DE(int)     intcor
     14.88     -17.20       2.71        0.00      58.41       1.63       0.00       2.31       ----

> <Gold.Chemscore.Fitness>
14.8850

> <Gold.Chemscore.DG>
-17.1966

> <Gold.Chemscore.ZeroCoef>
-5.4800

> <Gold.Chemscore.Hbond>
2.7140

> <Gold.Chemscore.Metal>
0.0000

> <Gold.Chemscore.Lipo>
58.4131

> <Gold.Chemscore.Internal_Hbond>
0.0000

> <Gold.Chemscore.DEClash>
0.0009

> <Gold.Chemscore.DEInternal>
2.3107

> <Gold.Chemscore.Rot>
1.6338

> <Gold.Chemscore.Internal.Correction>
   9.000000E+99

> <Gold.Chemscore.Hbonds>
donor molecule, donor type, donor heavy atom, donor atom, acceptor molecule, acceptor atom, score
      L1  H     3    37       P1  7948  0.70
      P1  H  6896  6907       L1    10  0.95
      P1  H  6931  6943       L1    16  0.23
      P1  H  6934  6947       L1    16  0.13

> <Gold.Chemscore.Hbond.Weighted>
-9.0647

> <Gold.Chemscore.Metal.Weighted>
-0.0000

> <Gold.Chemscore.Lipo.Weighted>
-6.8343

> <Gold.Chemscore.Internal_Hbond.Weighted>
0.0000

> <Gold.Chemscore.DEClash.Weighted>
0.0009

> <Gold.Chemscore.DEInternal.Weighted>
2.3107

> <Gold.Chemscore.Rot.Weighted>
4.1825

> <Gold.Chemscore.Internal.Correction.Weighted>
   9.000000E+99

> <Gold.Protein.RotatedTorsions>
[ 6907 6896 6895 6894 ] final -106.45 input  -60.11 | X-H torsion
[ 7974 7965 7964 7962 ] final  -23.64 input  175.53 | X-H torsion
[ 8008 7997 7996 7995 ] final -144.07 input   59.86 | X-H torsion
[ 10167 10162 10161 10158 ] final   -0.63 input  -65.29 | X-H torsion
[ 10718 10713 10712 10709 ] final  -42.01 input   66.30 | X-H torsion
[ 10763 10752 10751 10750 ] final  158.84 input  -60.55 | X-H torsion
[ 11005 11000 10999 10996 ] final -162.66 input  -57.11 | X-H torsion

> <Gold.Protein.ActiveResidues>
 VAL166  LYS551  ARG553  GLY616  TRP617  ASP618  TYR619  PRO620  LYS621  CYS622 
 ASP623  PHE694  ASN695  SER759  ASP760  ASP761  ALA762  ILE779  LEU786  VAL792 
 PHE793  MET794  SER795  GLU796  ALA797  LYS798  CYS799  TRP800  GLU811  SER814 

> <Gold.Protein.RotatedAtoms>
  150.7390  133.9974  159.3626 H   0  0  0  0  0  0  0  0  0  0  0  0  # atno 6907 bound_to 6896
  151.7926  135.0729  160.0398 H   0  0  0  0  0  0  0  0  0  0  0  0  # atno 6908 bound_to 6896
  152.3197  133.5804  159.5772 H   0  0  0  0  0  0  0  0  0  0  0  0  # atno 6909 bound_to 6896
  146.1604  140.4643  142.8574 H   0  0  0  0  0  0  0  0  0  0  0  0  # atno 7974 bound_to 7965
  155.5209  140.0591  157.2907 H   0  0  0  0  0  0  0  0  0  0  0  0  # atno 8008 bound_to 7997
  154.4518  140.1952  156.0443 H   0  0  0  0  0  0  0  0  0  0  0  0  # atno 8009 bound_to 7997
  156.0719  140.3259  155.7590 H   0  0  0  0  0  0  0  0  0  0  0  0  # atno 8010 bound_to 7997
  140.6775  143.6872  150.8057 H   0  0  0  0  0  0  0  0  0  0  0  0  # atno 10167 bound_to 10162
  156.2642  130.4200  149.8509 H   0  0  0  0  0  0  0  0  0  0  0  0  # atno 10718 bound_to 10713
  154.2224  135.2781  155.2920 H   0  0  0  0  0  0  0  0  0  0  0  0  # atno 10763 bound_to 10752
  154.5691  135.5624  153.7081 H   0  0  0  0  0  0  0  0  0  0  0  0  # atno 10764 bound_to 10752
  153.0038  135.6317  154.2365 H   0  0  0  0  0  0  0  0  0  0  0  0  # atno 10765 bound_to 10752
  140.6068  134.4891  157.5211 H   0  0  0  0  0  0  0  0  0  0  0  0  # atno 11005 bound_to 11000
  144.8019  140.6229  143.6472 LP  0  0  0  0  0  0  0  0  0  0  0  0  # atno 17320 bound_to 7965
  145.4603  139.1513  143.3870 LP  0  0  0  0  0  0  0  0  0  0  0  0  # atno 17321 bound_to 7965
  140.0567  143.5195  152.2647 LP  0  0  0  0  0  0  0  0  0  0  0  0  # atno 17342 bound_to 10162
  139.6077  144.7600  151.3024 LP  0  0  0  0  0  0  0  0  0  0  0  0  # atno 17343 bound_to 10162
  156.6013  130.8548  151.3432 LP  0  0  0  0  0  0  0  0  0  0  0  0  # atno 17370 bound_to 10713
  157.7261  130.9625  150.1643 LP  0  0  0  0  0  0  0  0  0  0  0  0  # atno 17371 bound_to 10713
  139.9209  134.8151  156.1215 LP  0  0  0  0  0  0  0  0  0  0  0  0  # atno 17394 bound_to 11000
  141.0835  133.6744  156.2387 LP  0  0  0  0  0  0  0  0  0  0  0  0  # atno 17395 bound_to 11000

$$$$
