AV-unprocessed.smi:2750|AV-procd|sdf|10592|dock4
  -GOLD-   2272015 43D 1   1.00000     0.00000
 Structure written by MMmdl.
 24 25  0  0  0  0  0  0  0  0  3 V2000
  147.8568  136.8196  162.4470 O   0  0  0  0  0  0  0  0  0  0  0  0
  147.3410  136.4897  161.3564 C   0  0  0  0  0  0  0  0  0  0  0  0
  146.3862  137.0717  160.7963 O   0  5  0  0  0  0  0  0  0  0  0  0
  147.9311  135.2724  160.6443 C   0  0  0  0  0  0  0  0  0  0  0  0
  148.5573  135.6291  159.3846 N   0  0  0  0  0  0  0  0  0  0  0  0
  148.7000  136.8797  158.8197 C   0  0  0  0  0  0  0  0  0  0  0  0
  149.3568  136.6258  157.6496 C   0  0  0  0  0  0  0  0  0  0  0  0
  149.7948  137.5833  156.5824 C   0  0  0  0  0  0  0  0  0  0  0  0
  150.7437  138.6741  157.1174 C   0  0  1  0  0  0  0  0  0  0  0  0
  151.8264  138.0963  157.8853 N   0  0  0  0  0  0  0  0  0  0  0  0
  153.0118  138.4186  157.3725 C   0  0  0  0  0  0  0  0  0  0  0  0
  154.0623  138.0410  157.8863 O   0  0  0  0  0  0  0  0  0  0  0  0
  152.8501  139.1729  156.2682 N   0  5  0  0  0  0  0  0  0  0  0  0
  151.5387  139.3797  156.0195 C   0  0  0  0  0  0  0  0  0  0  0  0
  150.9905  140.0065  155.1144 O   0  0  0  0  0  0  0  0  0  0  0  0
  149.5842  135.2534  157.5520 N   0  0  0  0  0  0  0  0  0  0  0  0
  149.1013  134.6660  158.6016 N   0  0  0  0  0  0  0  0  0  0  0  0
  148.6639  134.7799  161.2855 H   0  0  0  0  0  0  0  0  0  0  0  0
  147.1419  134.5451  160.4490 H   0  0  0  0  0  0  0  0  0  0  0  0
  148.3410  137.7893  159.2777 H   0  0  0  0  0  0  0  0  0  0  0  0
  150.2731  137.0395  155.7660 H   0  0  0  0  0  0  0  0  0  0  0  0
  148.9153  138.0567  156.1442 H   0  0  0  0  0  0  0  0  0  0  0  0
  150.2075  139.4110  157.7173 H   0  0  0  0  0  0  0  0  0  0  0  0
  151.6852  137.5377  158.7139 H   0  0  0  0  0  0  0  0  0  0  0  0
  1  2  2  0  0  0  0
  2  3  1  0  0  0  0
  2  4  1  0  0  0  0
  4  5  1  0  0  0  0
  4 18  1  0  0  0  0
  4 19  1  0  0  0  0
  5 17  1  0  0  0  0
  5  6  1  0  0  0  0
  6  7  2  0  0  0  0
  6 20  1  0  0  0  0
  7  8  1  0  0  0  0
  7 16  1  0  0  0  0
  8  9  1  0  0  0  0
  8 21  1  0  0  0  0
  8 22  1  0  0  0  0
  9 14  1  0  0  0  0
  9 10  1  0  0  0  0
  9 23  1  0  0  0  0
 10 11  1  0  0  0  0
 10 24  1  0  0  0  0
 11 12  2  0  0  0  0
 11 13  1  0  0  0  0
 13 14  1  0  0  0  0
 14 15  2  0  0  0  0
 16 17  2  0  0  0  0
M  CHG  1   3  -1
M  CHG  1  13  -1
M  END
> <s_m_source_file>
AV-unprocessed.smi

> <i_m_source_file_index>
2750

> <i_lp_mmshare_version>
43012

> <i_f3d_flags>
0

> <s_epik_input>
Tz1DKFtPSF0pW0NIMl1uMVtjSF1jKG5uMSlbQ0gyXVtDQEBIXTJbTkhdQyg9TylbTkhdQzI9Tw==

> <s_epik_cmdline>
J2VwaWtfcHl0aG9uJywgJy1waCcsICc3LjAnLCAnLXRuJywgJzgnLCAnLW1hJywgJzIwMCcsICctbWV0YWxfYmluZGluZycsICctaW1hZScsICc8aW5maWxlLm1hZT4nLCAnLW9tYWUnLCAnPG91dGZpbGUubWFlPic=

> <r_lp_tautomer_probability>
1

> <r_epik_Ionization_Penalty>
2.03209

> <r_epik_Ionization_Penalty_Charging>
2.03208

> <r_epik_Ionization_Penalty_Neutral>
1.30912e-05

> <r_epik_State_Penalty>
2.16313

> <r_epik_Charging_Adjusted_Penalty>
4.19521

> <i_epik_Tot_Q>
-2

> <i_epik_Tot_abs_Q>
2

> <r_epik_Metal_State_Penalty>
0.529162

> <b_epik_Metal_Only>
0

> <s_lp_Force_Field>
OPLS_2005

> <r_lp_Energy>
6.41301

> <b_lp_Chiralities_Consistent>
1

> <s_lp_Variant>
AV-unprocessed.smi:2750-4

> <Gold.Version>
5.8.1

> <Gold.Id.Protein>
6NUR|6NUR_protein|mol2

> <Gold.PLP.Fitness>
43.2135

> <Gold.PLP.PLP>
-19.6171

> <Gold.PLP.part.hbond>
-6.1774

> <Gold.PLP.part.metal>
0.0000

> <Gold.PLP.part.buried>
-3.5787

> <Gold.PLP.part.nonpolar>
-10.1425

> <Gold.PLP.part.repulsive>
0.0994

> <Gold.PLP.ligand.clash>
0.0000

> <Gold.PLP.ligand.torsion>
0.1401

> <Gold.PLP.Chemscore.Hbond>
7.9500

> <Gold.PLP.Chemscore.CHOScore>
0.0000

> <Gold.PLP.Chemscore.Metal>
0.0000

> <Gold.Chemscore.Hbonds>
donor molecule, donor type, donor heavy atom, donor atom, acceptor molecule, acceptor atom, score
      P1  H  6896  6909       L1    17  0.95
      P1  H  6931  6943       L1     1  2.00
      P1  H  6934  6947       L1     3  1.38
      P1  H  7989  7998       L1    15  1.00
      P1  H  7997  8008       L1    13  1.80

> <Gold.PLP.Chemscore.Internal.Correction>
0.0266

> <Gold.Rescore>
     Score         DG    S(hbond)    S(metal)    S(lipo)     H(rot)  DE(clash)    DE(int)     intcor
      9.54      -9.90       2.88        0.00      16.74       2.80       0.00       0.36       ----

> <Gold.Chemscore.Fitness>
9.5398

> <Gold.Chemscore.DG>
-9.8978

> <Gold.Chemscore.ZeroCoef>
-5.4800

> <Gold.Chemscore.Hbond>
2.8803

> <Gold.Chemscore.Metal>
0.0000

> <Gold.Chemscore.Lipo>
16.7423

> <Gold.Chemscore.Internal_Hbond>
0.0000

> <Gold.Chemscore.DEClash>
0.0000

> <Gold.Chemscore.DEInternal>
0.3581

> <Gold.Chemscore.Rot>
2.7973

> <Gold.Chemscore.Internal.Correction>
   9.000000E+99

> <Gold.Chemscore.Hbonds>
donor molecule, donor type, donor heavy atom, donor atom, acceptor molecule, acceptor atom, score
      P1  H  6896  6909       L1    17  0.06
      P1  H  6931  6943       L1     1  0.38
      P1  H  6934  6947       L1     3  0.12
      P1  H  7989  7998       L1    15  0.99
      P1  H  7997  8008       L1    13  0.18

> <Gold.Chemscore.Hbond.Weighted>
-9.6201

> <Gold.Chemscore.Metal.Weighted>
-0.0000

> <Gold.Chemscore.Lipo.Weighted>
-1.9588

> <Gold.Chemscore.Internal_Hbond.Weighted>
0.0000

> <Gold.Chemscore.DEClash.Weighted>
0.0000

> <Gold.Chemscore.DEInternal.Weighted>
0.3581

> <Gold.Chemscore.Rot.Weighted>
7.1611

> <Gold.Chemscore.Internal.Correction.Weighted>
   9.000000E+99

> <Gold.Protein.RotatedTorsions>
[ 6907 6896 6895 6894 ] final   36.87 input  -60.11 | X-H torsion
[ 7974 7965 7964 7962 ] final   88.28 input  175.53 | X-H torsion
[ 8008 7997 7996 7995 ] final  -45.79 input   59.86 | X-H torsion
[ 10167 10162 10161 10158 ] final -174.47 input  -65.29 | X-H torsion
[ 10718 10713 10712 10709 ] final  -62.47 input   66.30 | X-H torsion
[ 10763 10752 10751 10750 ] final -151.02 input  -60.55 | X-H torsion
[ 11005 11000 10999 10996 ] final   50.98 input  -57.11 | X-H torsion

> <Gold.Protein.ActiveResidues>
 VAL166  LYS551  ARG553  GLY616  TRP617  ASP618  TYR619  PRO620  LYS621  CYS622 
 ASP623  PHE694  ASN695  SER759  ASP760  ASP761  ALA762  ILE779  LEU786  VAL792 
 PHE793  MET794  SER795  GLU796  ALA797  LYS798  CYS799  TRP800  GLU811  SER814 

> <Gold.Protein.RotatedAtoms>
  152.1356  134.9102  160.0556 H   0  0  0  0  0  0  0  0  0  0  0  0  # atno 6907 bound_to 6896
  152.0189  133.3886  159.4258 H   0  0  0  0  0  0  0  0  0  0  0  0  # atno 6908 bound_to 6896
  150.6860  134.3569  159.4977 H   0  0  0  0  0  0  0  0  0  0  0  0  # atno 6909 bound_to 6896
  145.5477  139.2293  143.2530 H   0  0  0  0  0  0  0  0  0  0  0  0  # atno 7974 bound_to 7965
  154.4003  140.1388  156.3906 H   0  0  0  0  0  0  0  0  0  0  0  0  # atno 8008 bound_to 7997
  155.7918  140.3478  155.5333 H   0  0  0  0  0  0  0  0  0  0  0  0  # atno 8009 bound_to 7997
  155.8572  140.0950  157.1627 H   0  0  0  0  0  0  0  0  0  0  0  0  # atno 8010 bound_to 7997
  139.5632  144.1819  152.1271 H   0  0  0  0  0  0  0  0  0  0  0  0  # atno 10167 bound_to 10162
  156.0853  130.4209  150.1140 H   0  0  0  0  0  0  0  0  0  0  0  0  # atno 10718 bound_to 10713
  154.8084  135.3270  154.7371 H   0  0  0  0  0  0  0  0  0  0  0  0  # atno 10763 bound_to 10752
  153.8025  135.6902  153.4858 H   0  0  0  0  0  0  0  0  0  0  0  0  # atno 10764 bound_to 10752
  153.1845  135.4574  155.0016 H   0  0  0  0  0  0  0  0  0  0  0  0  # atno 10765 bound_to 10752
  140.0971  134.5131  155.8797 H   0  0  0  0  0  0  0  0  0  0  0  0  # atno 11005 bound_to 11000
  146.1938  140.6299  142.9133 LP  0  0  0  0  0  0  0  0  0  0  0  0  # atno 17320 bound_to 7965
  144.7545  140.5273  143.6779 LP  0  0  0  0  0  0  0  0  0  0  0  0  # atno 17321 bound_to 7965
  140.1337  144.5265  150.6787 LP  0  0  0  0  0  0  0  0  0  0  0  0  # atno 17342 bound_to 10162
  140.6913  143.2378  151.5122 LP  0  0  0  0  0  0  0  0  0  0  0  0  # atno 17343 bound_to 10162
  156.9162  130.9668  151.3555 LP  0  0  0  0  0  0  0  0  0  0  0  0  # atno 17370 bound_to 10713
  157.5985  130.8495  149.8765 LP  0  0  0  0  0  0  0  0  0  0  0  0  # atno 17371 bound_to 10713
  141.2095  133.6684  156.6444 LP  0  0  0  0  0  0  0  0  0  0  0  0  # atno 17394 bound_to 11000
  140.3271  134.7959  157.4298 LP  0  0  0  0  0  0  0  0  0  0  0  0  # atno 17395 bound_to 11000

$$$$
