AV-unprocessed.smi:3|AV-procd|sdf|32|dock6
  -GOLD-   2262015143D 1   1.00000     0.00000
 Structure written by MMmdl.
 33 35  0  0  0  0  0  0  0  0  1 V2000
  150.9334  141.9121  157.5423 C   0  0  0  0  0  0  0  0  0  0  0  0
  151.8533  140.7842  157.5645 N   0  0  0  0  0  0  0  0  0  0  0  0
  152.1634  140.0981  156.3130 C   0  0  0  0  0  0  0  0  0  0  0  0
  150.9669  139.3155  155.7756 C   0  0  1  0  0  0  0  0  0  0  0  0
  149.8739  140.0391  154.9743 C   0  0  0  0  0  0  0  0  0  0  0  0
  149.7848  138.8301  154.0390 C   0  0  2  0  0  0  0  0  0  0  0  0
  148.7102  137.9386  154.2438 O   0  0  0  0  0  0  0  0  0  0  0  0
  151.1575  138.3955  154.5620 C   0  0  0  0  0  0  0  0  0  0  0  0
  152.7440  140.6138  158.6452 C   0  0  0  0  0  0  0  0  0  0  0  0
  153.5837  139.5492  158.5900 N   0  0  0  0  0  0  0  0  0  0  0  0
  154.4488  139.3694  159.6194 C   0  0  0  0  0  0  0  0  0  0  0  0
  154.5971  140.1367  160.7263 N   0  0  0  0  0  0  0  0  0  0  0  0
  153.7707  141.2214  160.7994 C   0  0  0  0  0  0  0  0  0  0  0  0
  153.7216  142.1410  161.7576 N   0  0  0  0  0  0  0  0  0  0  0  0
  152.7780  143.0214  161.3858 C   0  0  0  0  0  0  0  0  0  0  0  0
  152.1558  142.6937  160.1212 C   0  0  0  0  0  0  0  0  0  0  0  0
  152.8318  141.4831  159.7704 C   0  0  0  0  0  0  0  0  0  0  0  0
  150.4917  138.7324  156.5668 H   0  0  0  0  0  0  0  0  0  0  0  0
  149.8175  139.1155  152.9872 H   0  0  0  0  0  0  0  0  0  0  0  0
  150.6315  142.1990  158.5500 H   0  0  0  0  0  0  0  0  0  0  0  0
  150.0302  141.6463  156.9924 H   0  0  0  0  0  0  0  0  0  0  0  0
  151.3854  142.7710  157.0468 H   0  0  0  0  0  0  0  0  0  0  0  0
  152.5284  140.8022  155.5650 H   0  0  0  0  0  0  0  0  0  0  0  0
  152.9942  139.4167  156.4979 H   0  0  0  0  0  0  0  0  0  0  0  0
  148.9690  140.2477  155.5463 H   0  0  0  0  0  0  0  0  0  0  0  0
  150.2379  140.9340  154.4670 H   0  0  0  0  0  0  0  0  0  0  0  0
  148.7023  137.3419  153.5111 H   0  0  0  0  0  0  0  0  0  0  0  0
  151.9720  138.7136  153.9094 H   0  0  0  0  0  0  0  0  0  0  0  0
  151.2388  137.3373  154.8125 H   0  0  0  0  0  0  0  0  0  0  0  0
  155.1000  138.5111  159.5461 H   0  0  0  0  0  0  0  0  0  0  0  0
  152.5422  143.8826  161.9986 H   0  0  0  0  0  0  0  0  0  0  0  0
  151.3843  143.2387  159.5940 H   0  0  0  0  0  0  0  0  0  0  0  0
  155.2906  139.8857  161.4163 H   0  0  0  0  0  0  0  0  0  0  0  0
  1  2  1  0  0  0  0
  1 20  1  0  0  0  0
  1 21  1  0  0  0  0
  1 22  1  0  0  0  0
  2  3  1  0  0  0  0
  2  9  1  0  0  0  0
  3  4  1  0  0  0  0
  3 23  1  0  0  0  0
  3 24  1  0  0  0  0
  4 18  1  0  0  0  0
  4  8  1  0  0  0  0
  4  5  1  0  0  0  0
  5  6  1  0  0  0  0
  5 25  1  0  0  0  0
  5 26  1  0  0  0  0
  6 19  1  0  0  0  0
  6  7  1  0  0  0  0
  6  8  1  0  0  0  0
  7 27  1  0  0  0  0
  8 28  1  0  0  0  0
  8 29  1  0  0  0  0
  9 17  2  0  0  0  0
  9 10  1  0  0  0  0
 10 11  2  0  0  0  0
 11 12  1  0  0  0  0
 11 30  1  0  0  0  0
 12 13  1  0  0  0  0
 12 33  1  0  0  0  0
 13 17  1  0  0  0  0
 13 14  2  0  0  0  0
 14 15  1  0  0  0  0
 15 16  2  0  0  0  0
 15 31  1  0  0  0  0
 16 17  1  0  0  0  0
 16 32  1  0  0  0  0
M  END
> <s_m_source_file>
AV-unprocessed.smi

> <i_m_source_file_index>
3

> <i_lp_mmshare_version>
43012

> <i_f3d_flags>
0

> <s_epik_input>
W25IXTFbY0hdW2NIXWMoYzEyKWMobltjSF1uMilOKFtDSDNdKVtDSDJdW0NASF0zW0NIMl1bQ0BASF0oW09IXSlbQ0gyXTM=

> <s_epik_cmdline>
J2VwaWtfcHl0aG9uJywgJy1waCcsICc3LjAnLCAnLXRuJywgJzgnLCAnLW1hJywgJzIwMCcsICctbWV0YWxfYmluZGluZycsICctaW1hZScsICc8aW5maWxlLm1hZT4nLCAnLW9tYWUnLCAnPG91dGZpbGUubWFlPic=

> <r_lp_tautomer_probability>
1.75997e-05

> <r_epik_Ionization_Penalty>
5.52529

> <r_epik_Ionization_Penalty_Charging>
0

> <r_epik_Ionization_Penalty_Neutral>
5.52529

> <r_epik_State_Penalty>
8.99615

> <r_epik_Charging_Adjusted_Penalty>
8.99615

> <i_epik_Tot_Q>
0

> <i_epik_Tot_abs_Q>
0

> <r_epik_Metal_State_Penalty>
6.01519

> <b_epik_Metal_Only>
1

> <s_lp_Force_Field>
OPLS_2005

> <r_lp_Energy>
26.4435

> <b_lp_Chiralities_Consistent>
1

> <s_lp_Variant>
AV-unprocessed.smi:3-6

> <Gold.Version>
5.8.1

> <Gold.Id.Protein>
6NUR|6NUR_protein|mol2

> <Gold.PLP.Fitness>
40.5843

> <Gold.PLP.PLP>
-34.9956

> <Gold.PLP.part.hbond>
-2.4690

> <Gold.PLP.part.metal>
0.0000

> <Gold.PLP.part.buried>
-2.5639

> <Gold.PLP.part.nonpolar>
-29.2112

> <Gold.PLP.part.repulsive>
0.0484

> <Gold.PLP.ligand.clash>
1.3557

> <Gold.PLP.ligand.torsion>
0.2937

> <Gold.PLP.Chemscore.Hbond>
2.0000

> <Gold.PLP.Chemscore.CHOScore>
0.0000

> <Gold.PLP.Chemscore.Metal>
0.0000

> <Gold.Chemscore.Hbonds>
donor molecule, donor type, donor heavy atom, donor atom, acceptor molecule, acceptor atom, score
      L1  H     7    27       P1  7948  1.00
      P1  H  7997  8008       L1    10  0.90

> <Gold.PLP.Chemscore.Internal.Correction>
1.5319

> <Gold.Rescore>
     Score         DG    S(hbond)    S(metal)    S(lipo)     H(rot)  DE(clash)    DE(int)     intcor
     11.62     -13.18       1.18        0.00      72.36       1.84       0.14       1.42       ----

> <Gold.Chemscore.Fitness>
11.6152

> <Gold.Chemscore.DG>
-13.1786

> <Gold.Chemscore.ZeroCoef>
-5.4800

> <Gold.Chemscore.Hbond>
1.1803

> <Gold.Chemscore.Metal>
0.0000

> <Gold.Chemscore.Lipo>
72.3576

> <Gold.Chemscore.Internal_Hbond>
0.0000

> <Gold.Chemscore.DEClash>
0.1394

> <Gold.Chemscore.DEInternal>
1.4240

> <Gold.Chemscore.Rot>
1.8396

> <Gold.Chemscore.Internal.Correction>
   9.000000E+99

> <Gold.Chemscore.Hbonds>
donor molecule, donor type, donor heavy atom, donor atom, acceptor molecule, acceptor atom, score
      L1  H     7    27       P1  7948  0.97
      P1  H  7997  8008       L1    10  0.09

> <Gold.Chemscore.Hbond.Weighted>
-3.9423

> <Gold.Chemscore.Metal.Weighted>
-0.0000

> <Gold.Chemscore.Lipo.Weighted>
-8.4658

> <Gold.Chemscore.Internal_Hbond.Weighted>
0.0000

> <Gold.Chemscore.DEClash.Weighted>
0.1394

> <Gold.Chemscore.DEInternal.Weighted>
1.4240

> <Gold.Chemscore.Rot.Weighted>
4.7095

> <Gold.Chemscore.Internal.Correction.Weighted>
   9.000000E+99

> <Gold.Protein.RotatedTorsions>
[ 6907 6896 6895 6894 ] final -173.76 input  -60.11 | X-H torsion
[ 7974 7965 7964 7962 ] final  -59.29 input  175.53 | X-H torsion
[ 8008 7997 7996 7995 ] final -106.87 input   59.86 | X-H torsion
[ 10167 10162 10161 10158 ] final  -55.10 input  -65.29 | X-H torsion
[ 10718 10713 10712 10709 ] final  -80.36 input   66.30 | X-H torsion
[ 10763 10752 10751 10750 ] final  -19.37 input  -60.55 | X-H torsion
[ 11005 11000 10999 10996 ] final   82.10 input  -57.11 | X-H torsion

> <Gold.Protein.ActiveResidues>
 VAL166  LYS551  ARG553  GLY616  TRP617  ASP618  TYR619  PRO620  LYS621  CYS622 
 ASP623  PHE694  ASN695  SER759  ASP760  ASP761  ALA762  ILE779  LEU786  VAL792 
 PHE793  MET794  SER795  GLU796  ALA797  LYS798  CYS799  TRP800  GLU811  SER814 

> <Gold.Protein.RotatedAtoms>
  151.5614  133.3403  159.2971 H   0  0  0  0  0  0  0  0  0  0  0  0  # atno 6907 bound_to 6896
  150.8421  134.7719  159.6951 H   0  0  0  0  0  0  0  0  0  0  0  0  # atno 6908 bound_to 6896
  152.4486  134.5449  159.9901 H   0  0  0  0  0  0  0  0  0  0  0  0  # atno 6909 bound_to 6896
  145.8292  140.8491  143.0092 H   0  0  0  0  0  0  0  0  0  0  0  0  # atno 7974 bound_to 7965
  154.9209  140.0407  157.1997 H   0  0  0  0  0  0  0  0  0  0  0  0  # atno 8008 bound_to 7997
  154.8255  140.2890  155.5736 H   0  0  0  0  0  0  0  0  0  0  0  0  # atno 8009 bound_to 7997
  156.2983  140.2510  156.3170 H   0  0  0  0  0  0  0  0  0  0  0  0  # atno 8010 bound_to 7997
  140.6393  143.2499  151.5032 H   0  0  0  0  0  0  0  0  0  0  0  0  # atno 10167 bound_to 10162
  156.0072  130.4572  150.3788 H   0  0  0  0  0  0  0  0  0  0  0  0  # atno 10718 bound_to 10713
  153.6037  135.6998  153.5374 H   0  0  0  0  0  0  0  0  0  0  0  0  # atno 10763 bound_to 10752
  153.3075  135.4111  155.1306 H   0  0  0  0  0  0  0  0  0  0  0  0  # atno 10764 bound_to 10752
  154.8577  135.3664  154.5573 H   0  0  0  0  0  0  0  0  0  0  0  0  # atno 10765 bound_to 10752
  139.9075  134.8046  156.2130 H   0  0  0  0  0  0  0  0  0  0  0  0  # atno 11005 bound_to 11000
  144.6741  140.0646  143.7475 LP  0  0  0  0  0  0  0  0  0  0  0  0  # atno 17320 bound_to 7965
  145.9590  139.2787  143.1167 LP  0  0  0  0  0  0  0  0  0  0  0  0  # atno 17321 bound_to 7965
  139.5603  144.2174  152.1680 LP  0  0  0  0  0  0  0  0  0  0  0  0  # atno 17342 bound_to 10162
  140.1439  144.5176  150.6727 LP  0  0  0  0  0  0  0  0  0  0  0  0  # atno 17343 bound_to 10162
  157.1869  131.0406  151.2720 LP  0  0  0  0  0  0  0  0  0  0  0  0  # atno 17370 bound_to 10713
  157.4096  130.7378  149.6829 LP  0  0  0  0  0  0  0  0  0  0  0  0  # atno 17371 bound_to 10713
  141.0453  133.6916  156.1673 LP  0  0  0  0  0  0  0  0  0  0  0  0  # atno 17394 bound_to 11000
  140.6893  134.4683  157.5589 LP  0  0  0  0  0  0  0  0  0  0  0  0  # atno 17395 bound_to 11000

$$$$
