AV-unprocessed.smi:3029|AV-procd|sdf|11529|dock7
  -GOLD-   2272016473D 1   1.00000     0.00000
 Structure written by MMmdl.
 41 42  0  0  0  0  0  0  0  0  3 V2000
  146.3533  131.0417  162.3696 O   0  0  0  0  0  0  0  0  0  0  0  0
  146.5752  132.2325  162.1502 C   0  0  0  0  0  0  0  0  0  0  0  0
  145.6570  133.2882  162.5899 C   0  0  0  0  0  0  0  0  0  0  0  0
  145.9133  134.5910  162.3598 C   0  0  0  0  0  0  0  0  0  0  0  0
  147.1217  134.9913  161.6651 C   0  0  0  0  0  0  0  0  0  0  0  0
  147.4139  136.3877  161.4267 N   0  3  0  0  0  0  0  0  0  0  0  0
  146.5485  137.1005  160.9270 O   0  0  0  0  0  0  0  0  0  0  0  0
  148.5216  136.8174  161.7327 O   0  5  0  0  0  0  0  0  0  0  0  0
  147.9604  134.0192  161.2559 C   0  0  0  0  0  0  0  0  0  0  0  0
  147.6917  132.6556  161.4835 N   0  0  0  0  0  0  0  0  0  0  0  0
  148.6814  131.6899  160.9896 C   0  0  0  0  0  0  0  0  0  0  0  0
  149.1781  132.0719  159.5870 C   0  0  0  0  0  0  0  0  0  0  0  0
  150.5630  132.5084  159.6650 N   0  0  0  0  0  0  0  0  0  0  0  0
  151.0869  132.8417  158.3457 C   0  0  2  0  0  0  0  0  0  0  0  0
  150.1224  133.8859  157.7460 C   0  0  0  0  0  0  0  0  0  0  0  0
  150.5052  134.2577  156.3087 C   0  0  0  0  0  0  0  0  0  0  0  0
  150.5572  133.0066  155.4254 C   0  0  0  0  0  0  0  0  0  0  0  0
  151.5352  131.9727  156.0009 C   0  0  0  0  0  0  0  0  0  0  0  0
  151.1891  131.5695  157.4545 C   0  0  1  0  0  0  0  0  0  0  0  0
  152.2128  130.5282  157.9761 C   0  0  0  0  0  0  0  0  0  0  0  0
  151.8206  130.0323  159.1502 F   0  0  0  0  0  0  0  0  0  0  0  0
  152.3693  129.5230  157.1149 F   0  0  0  0  0  0  0  0  0  0  0  0
  153.4053  131.1032  158.1341 F   0  0  0  0  0  0  0  0  0  0  0  0
  144.7516  133.0124  163.1103 H   0  0  0  0  0  0  0  0  0  0  0  0
  145.2060  135.3323  162.7019 H   0  0  0  0  0  0  0  0  0  0  0  0
  148.8880  134.2124  160.7364 H   0  0  0  0  0  0  0  0  0  0  0  0
  149.5238  131.6223  161.6808 H   0  0  0  0  0  0  0  0  0  0  0  0
  148.2509  130.6871  160.9691 H   0  0  0  0  0  0  0  0  0  0  0  0
  149.1009  131.2187  158.9118 H   0  0  0  0  0  0  0  0  0  0  0  0
  148.5630  132.8731  159.1753 H   0  0  0  0  0  0  0  0  0  0  0  0
  151.1241  131.7783  160.0802 H   0  0  0  0  0  0  0  0  0  0  0  0
  152.0756  133.2975  158.4250 H   0  0  0  0  0  0  0  0  0  0  0  0
  149.1019  133.4988  157.7520 H   0  0  0  0  0  0  0  0  0  0  0  0
  150.1142  134.7857  158.3627 H   0  0  0  0  0  0  0  0  0  0  0  0
  149.7858  134.9701  155.9040 H   0  0  0  0  0  0  0  0  0  0  0  0
  151.4753  134.7563  156.3019 H   0  0  0  0  0  0  0  0  0  0  0  0
  149.5615  132.5684  155.3463 H   0  0  0  0  0  0  0  0  0  0  0  0
  150.8573  133.2787  154.4132 H   0  0  0  0  0  0  0  0  0  0  0  0
  151.5355  131.0931  155.3568 H   0  0  0  0  0  0  0  0  0  0  0  0
  152.5472  132.3778  155.9643 H   0  0  0  0  0  0  0  0  0  0  0  0
  150.2093  131.0891  157.4332 H   0  0  0  0  0  0  0  0  0  0  0  0
  1  2  2  0  0  0  0
  2 10  1  0  0  0  0
  2  3  1  0  0  0  0
  3  4  2  0  0  0  0
  3 24  1  0  0  0  0
  4  5  1  0  0  0  0
  4 25  1  0  0  0  0
  5  6  1  0  0  0  0
  5  9  2  0  0  0  0
  6  7  2  0  0  0  0
  6  8  1  0  0  0  0
  9 10  1  0  0  0  0
  9 26  1  0  0  0  0
 10 11  1  0  0  0  0
 11 12  1  0  0  0  0
 11 27  1  0  0  0  0
 11 28  1  0  0  0  0
 12 13  1  0  0  0  0
 12 29  1  0  0  0  0
 12 30  1  0  0  0  0
 13 14  1  0  0  0  0
 13 31  1  0  0  0  0
 14 19  1  0  0  0  0
 14 15  1  0  0  0  0
 14 32  1  0  0  0  0
 15 16  1  0  0  0  0
 15 33  1  0  0  0  0
 15 34  1  0  0  0  0
 16 17  1  0  0  0  0
 16 35  1  0  0  0  0
 16 36  1  0  0  0  0
 17 18  1  0  0  0  0
 17 37  1  0  0  0  0
 17 38  1  0  0  0  0
 18 19  1  0  0  0  0
 18 39  1  0  0  0  0
 18 40  1  0  0  0  0
 19 20  1  0  0  0  0
 19 41  1  0  0  0  0
 20 21  1  0  0  0  0
 20 22  1  0  0  0  0
 20 23  1  0  0  0  0
M  CHG  1   6   1
M  CHG  1   8  -1
M  END
> <s_m_source_file>
AV-unprocessed.smi

> <i_m_source_file_index>
3029

> <i_lp_mmshare_version>
43012

> <i_f3d_flags>
0

> <s_epik_input>
Tz1jMVtjSF1bY0hdYyhbTitdKD1PKVtPLV0pW2NIXW4xW0NIMl1bQ0gyXVtOSF1bQ0BASF0yW0NIMl1bQ0gyXVtDSDJdW0NIMl1bQ0BIXTJDKEYpKEYpRg==

> <s_epik_cmdline>
J2VwaWtfcHl0aG9uJywgJy1waCcsICc3LjAnLCAnLXRuJywgJzgnLCAnLW1hJywgJzIwMCcsICctbWV0YWxfYmluZGluZycsICctaW1hZScsICc8aW5maWxlLm1hZT4nLCAnLW9tYWUnLCAnPG91dGZpbGUubWFlPic=

> <r_lp_tautomer_probability>
1

> <r_epik_Ionization_Penalty>
1.65565

> <r_epik_Ionization_Penalty_Charging>
3.32684e-10

> <r_epik_Ionization_Penalty_Neutral>
1.65565

> <r_epik_State_Penalty>
1.75811

> <r_epik_Charging_Adjusted_Penalty>
1.75811

> <i_epik_Tot_Q>
0

> <i_epik_Tot_abs_Q>
2

> <r_epik_Metal_State_Penalty>
1.75811

> <b_epik_Metal_Only>
0

> <s_lp_Force_Field>
OPLS_2005

> <r_lp_Energy>
33.0444

> <b_lp_Chiralities_Consistent>
1

> <s_lp_Variant>
AV-unprocessed.smi:3029-5

> <Gold.Version>
5.8.1

> <Gold.Id.Protein>
6NUR|6NUR_protein|mol2

> <Gold.PLP.Fitness>
38.7924

> <Gold.PLP.PLP>
-33.5031

> <Gold.PLP.part.hbond>
-3.0000

> <Gold.PLP.part.metal>
0.0000

> <Gold.PLP.part.buried>
-2.3088

> <Gold.PLP.part.nonpolar>
-29.1133

> <Gold.PLP.part.repulsive>
0.0660

> <Gold.PLP.ligand.clash>
0.0000

> <Gold.PLP.ligand.torsion>
1.5912

> <Gold.PLP.Chemscore.Hbond>
2.8100

> <Gold.PLP.Chemscore.CHOScore>
0.0000

> <Gold.PLP.Chemscore.Metal>
0.0000

> <Gold.Chemscore.Hbonds>
donor molecule, donor type, donor heavy atom, donor atom, acceptor molecule, acceptor atom, score
      P1  H  6931  6943       L1     8  0.99
      P1  H  6934  6947       L1     7  1.00

> <Gold.PLP.Chemscore.Internal.Correction>
0.0417

> <Gold.Rescore>
     Score         DG    S(hbond)    S(metal)    S(lipo)     H(rot)  DE(clash)    DE(int)     intcor
     11.38     -14.78       1.97        0.00      63.97       1.86       0.01       3.39       ----

> <Gold.Chemscore.Fitness>
11.3821

> <Gold.Chemscore.DG>
-14.7799

> <Gold.Chemscore.ZeroCoef>
-5.4800

> <Gold.Chemscore.Hbond>
1.9679

> <Gold.Chemscore.Metal>
0.0000

> <Gold.Chemscore.Lipo>
63.9712

> <Gold.Chemscore.Internal_Hbond>
0.0000

> <Gold.Chemscore.DEClash>
0.0089

> <Gold.Chemscore.DEInternal>
3.3889

> <Gold.Chemscore.Rot>
1.8584

> <Gold.Chemscore.Internal.Correction>
   9.000000E+99

> <Gold.Chemscore.Hbonds>
donor molecule, donor type, donor heavy atom, donor atom, acceptor molecule, acceptor atom, score
      P1  H  6931  6943       L1     8  0.92
      P1  H  6934  6947       L1     7  0.70

> <Gold.Chemscore.Hbond.Weighted>
-6.5729

> <Gold.Chemscore.Metal.Weighted>
-0.0000

> <Gold.Chemscore.Lipo.Weighted>
-7.4846

> <Gold.Chemscore.Internal_Hbond.Weighted>
0.0000

> <Gold.Chemscore.DEClash.Weighted>
0.0089

> <Gold.Chemscore.DEInternal.Weighted>
3.3889

> <Gold.Chemscore.Rot.Weighted>
4.7576

> <Gold.Chemscore.Internal.Correction.Weighted>
   9.000000E+99

> <Gold.Protein.RotatedTorsions>
[ 6907 6896 6895 6894 ] final  125.61 input  -60.11 | X-H torsion
[ 7974 7965 7964 7962 ] final -166.01 input  175.53 | X-H torsion
[ 8008 7997 7996 7995 ] final  -18.53 input   59.86 | X-H torsion
[ 10167 10162 10161 10158 ] final   62.25 input  -65.29 | X-H torsion
[ 10718 10713 10712 10709 ] final   33.29 input   66.30 | X-H torsion
[ 10763 10752 10751 10750 ] final   16.45 input  -60.55 | X-H torsion
[ 11005 11000 10999 10996 ] final  -92.65 input  -57.11 | X-H torsion

> <Gold.Protein.ActiveResidues>
 VAL166  LYS551  ARG553  GLY616  TRP617  ASP618  TYR619  PRO620  LYS621  CYS622 
 ASP623  PHE694  ASN695  SER759  ASP760  ASP761  ALA762  ILE779  LEU786  VAL792 
 PHE793  MET794  SER795  GLU796  ALA797  LYS798  CYS799  TRP800  GLU811  SER814 

> <Gold.Protein.RotatedAtoms>
  152.3976  133.6770  159.6289 H   0  0  0  0  0  0  0  0  0  0  0  0  # atno 6907 bound_to 6896
  150.7873  133.8846  159.3304 H   0  0  0  0  0  0  0  0  0  0  0  0  # atno 6908 bound_to 6896
  151.6619  135.0989  160.0232 H   0  0  0  0  0  0  0  0  0  0  0  0  # atno 6909 bound_to 6896
  144.7256  140.2730  143.6247 H   0  0  0  0  0  0  0  0  0  0  0  0  # atno 7974 bound_to 7965
  154.4900  140.2113  155.9570 H   0  0  0  0  0  0  0  0  0  0  0  0  # atno 8008 bound_to 7997
  156.1291  140.3200  155.8291 H   0  0  0  0  0  0  0  0  0  0  0  0  # atno 8009 bound_to 7997
  155.4329  140.0504  157.3008 H   0  0  0  0  0  0  0  0  0  0  0  0  # atno 8010 bound_to 7997
  140.1460  144.4508  150.6785 H   0  0  0  0  0  0  0  0  0  0  0  0  # atno 10167 bound_to 10162
  157.2960  130.7326  149.6638 H   0  0  0  0  0  0  0  0  0  0  0  0  # atno 10718 bound_to 10713
  153.1429  135.6763  153.8999 H   0  0  0  0  0  0  0  0  0  0  0  0  # atno 10763 bound_to 10752
  153.8450  135.3100  155.3430 H   0  0  0  0  0  0  0  0  0  0  0  0  # atno 10764 bound_to 10752
  154.7802  135.4892  153.9913 H   0  0  0  0  0  0  0  0  0  0  0  0  # atno 10765 bound_to 10752
  141.1516  133.7835  157.0050 H   0  0  0  0  0  0  0  0  0  0  0  0  # atno 11005 bound_to 11000
  145.8024  139.1969  143.2040 LP  0  0  0  0  0  0  0  0  0  0  0  0  # atno 17320 bound_to 7965
  146.0665  140.7915  142.9709 LP  0  0  0  0  0  0  0  0  0  0  0  0  # atno 17321 bound_to 7965
  140.6732  143.2294  151.5574 LP  0  0  0  0  0  0  0  0  0  0  0  0  # atno 17342 bound_to 10162
  139.5449  144.2548  152.1423 LP  0  0  0  0  0  0  0  0  0  0  0  0  # atno 17343 bound_to 10162
  155.9669  130.4294  150.4832 LP  0  0  0  0  0  0  0  0  0  0  0  0  # atno 17370 bound_to 10713
  157.2804  131.0605  151.2201 LP  0  0  0  0  0  0  0  0  0  0  0  0  # atno 17371 bound_to 10713
  140.0915  134.9590  157.1783 LP  0  0  0  0  0  0  0  0  0  0  0  0  # atno 17394 bound_to 11000
  140.3440  134.2673  155.7208 LP  0  0  0  0  0  0  0  0  0  0  0  0  # atno 17395 bound_to 11000

$$$$
