AV-unprocessed.smi:7|AV-procd|sdf|43|dock4
  -GOLD-   2262015163D 1   1.00000     0.00000
 Structure written by MMmdl.
 45 48  0  0  0  0  0  0  0  0  1 V2000
  155.8421  139.5109  163.8837 O   0  0  0  0  0  0  0  0  0  0  0  0
  155.0716  140.3820  163.4786 C   0  0  0  0  0  0  0  0  0  0  0  0
  154.6461  140.4687  162.0620 C   0  0  0  0  0  0  0  0  0  0  0  0
  154.9898  139.6836  160.9619 N   0  0  0  0  0  0  0  0  0  0  0  0
  154.2983  140.2448  159.9704 C   0  0  0  0  0  0  0  0  0  0  0  0
  153.5602  141.3032  160.3536 N   0  0  0  0  0  0  0  0  0  0  0  0
  152.7557  141.9973  159.4211 C   0  0  0  0  0  0  0  0  0  0  0  0
  152.4723  143.3708  159.5938 C   0  0  0  0  0  0  0  0  0  0  0  0
  151.6642  144.0489  158.6601 C   0  0  0  0  0  0  0  0  0  0  0  0
  151.1364  143.3591  157.5516 C   0  0  0  0  0  0  0  0  0  0  0  0
  151.4151  141.9898  157.3771 C   0  0  0  0  0  0  0  0  0  0  0  0
  152.2216  141.3097  158.3102 C   0  0  0  0  0  0  0  0  0  0  0  0
  153.7733  141.4635  161.7151 C   0  0  0  0  0  0  0  0  0  0  0  0
  153.2160  142.4344  162.5152 N   0  0  0  0  0  0  0  0  0  0  0  0
  153.6158  142.3359  163.7564 C   0  0  0  0  0  0  0  0  0  0  0  0
  154.5230  141.3573  164.2638 N   0  0  0  0  0  0  0  0  0  0  0  0
  154.8371  141.4370  165.6990 C   0  0  0  0  0  0  0  0  0  0  0  0
  154.6655  142.8743  166.2533 C   0  0  2  0  0  0  0  0  0  0  0  0
  155.7645  143.6403  165.7935 O   0  0  0  0  0  0  0  0  0  0  0  0
  154.6165  142.9427  167.8052 C   0  0  0  0  0  0  0  0  0  0  0  0
  153.5460  142.1225  168.2412 O   0  0  0  0  0  0  0  0  0  0  0  0
  155.8926  142.4546  168.5166 C   0  0  0  0  0  0  0  0  0  0  0  0
  155.8715  143.1556  169.8736 C   0  0  0  0  0  0  0  0  0  0  0  0
  155.3022  144.5412  169.5690 C   0  0  0  0  0  0  0  0  0  0  0  0
  154.3491  144.3572  168.3777 C   0  0  0  0  0  0  0  0  0  0  0  0
  154.3286  139.8687  158.9579 H   0  0  0  0  0  0  0  0  0  0  0  0
  152.8664  143.9081  160.4442 H   0  0  0  0  0  0  0  0  0  0  0  0
  151.4480  145.0984  158.7958 H   0  0  0  0  0  0  0  0  0  0  0  0
  150.5169  143.8799  156.8362 H   0  0  0  0  0  0  0  0  0  0  0  0
  151.0105  141.4601  156.5271 H   0  0  0  0  0  0  0  0  0  0  0  0
  152.4326  140.2599  158.1678 H   0  0  0  0  0  0  0  0  0  0  0  0
  153.2555  143.0322  164.5155 H   0  0  0  0  0  0  0  0  0  0  0  0
  154.1742  140.7490  166.2258 H   0  0  0  0  0  0  0  0  0  0  0  0
  155.8365  141.0554  165.9183 H   0  0  0  0  0  0  0  0  0  0  0  0
  153.7532  143.3247  165.8588 H   0  0  0  0  0  0  0  0  0  0  0  0
  156.1007  144.1460  166.5176 H   0  0  0  0  0  0  0  0  0  0  0  0
  152.9135  142.6659  168.6855 H   0  0  0  0  0  0  0  0  0  0  0  0
  155.9462  141.3686  168.6059 H   0  0  0  0  0  0  0  0  0  0  0  0
  156.7808  142.7764  167.9719 H   0  0  0  0  0  0  0  0  0  0  0  0
  155.2055  142.6237  170.5544 H   0  0  0  0  0  0  0  0  0  0  0  0
  156.8566  143.2001  170.3389 H   0  0  0  0  0  0  0  0  0  0  0  0
  154.8065  144.9824  170.4343 H   0  0  0  0  0  0  0  0  0  0  0  0
  156.1142  145.2106  169.2817 H   0  0  0  0  0  0  0  0  0  0  0  0
  154.5334  145.1424  167.6442 H   0  0  0  0  0  0  0  0  0  0  0  0
  153.3102  144.4771  168.6900 H   0  0  0  0  0  0  0  0  0  0  0  0
  1  2  2  0  0  0  0
  2 16  1  0  0  0  0
  2  3  1  0  0  0  0
  3 13  2  0  0  0  0
  3  4  1  0  0  0  0
  4  5  2  0  0  0  0
  5  6  1  0  0  0  0
  5 26  1  0  0  0  0
  6  7  1  0  0  0  0
  6 13  1  0  0  0  0
  7 12  1  0  0  0  0
  7  8  2  0  0  0  0
  8  9  1  0  0  0  0
  8 27  1  0  0  0  0
  9 10  2  0  0  0  0
  9 28  1  0  0  0  0
 10 11  1  0  0  0  0
 10 29  1  0  0  0  0
 11 12  2  0  0  0  0
 11 30  1  0  0  0  0
 12 31  1  0  0  0  0
 13 14  1  0  0  0  0
 14 15  2  0  0  0  0
 15 16  1  0  0  0  0
 15 32  1  0  0  0  0
 16 17  1  0  0  0  0
 17 18  1  0  0  0  0
 17 33  1  0  0  0  0
 17 34  1  0  0  0  0
 18 19  1  0  0  0  0
 18 20  1  0  0  0  0
 18 35  1  0  0  0  0
 19 36  1  0  0  0  0
 20 25  1  0  0  0  0
 20 21  1  0  0  0  0
 20 22  1  0  0  0  0
 21 37  1  0  0  0  0
 22 23  1  0  0  0  0
 22 38  1  0  0  0  0
 22 39  1  0  0  0  0
 23 24  1  0  0  0  0
 23 40  1  0  0  0  0
 23 41  1  0  0  0  0
 24 25  1  0  0  0  0
 24 42  1  0  0  0  0
 24 43  1  0  0  0  0
 25 44  1  0  0  0  0
 25 45  1  0  0  0  0
M  END
> <s_m_source_file>
AV-unprocessed.smi

> <i_m_source_file_index>
7

> <i_lp_mmshare_version>
43012

> <i_f3d_flags>
0

> <s_epik_input>
W0NIMl0xW0NIMl1bQ0gyXVtDSDJdQzEoW09IXSlbQ0BASF0oW09IXSlbQ0gyXW4oYzI9TylbY0hdbmMoYzIzKW4oW2NIXW4zKS1jNFtjSF1bY0hdW2NIXVtjSF1bY0hdNA==

> <s_epik_cmdline>
J2VwaWtfcHl0aG9uJywgJy1waCcsICc3LjAnLCAnLXRuJywgJzgnLCAnLW1hJywgJzIwMCcsICctbWV0YWxfYmluZGluZycsICctaW1hZScsICc8aW5maWxlLm1hZT4nLCAnLW9tYWUnLCAnPG91dGZpbGUubWFlPic=

> <r_lp_tautomer_probability>
1

> <r_epik_Ionization_Penalty>
0.000116694

> <r_epik_Ionization_Penalty_Charging>
6.60428e-09

> <r_epik_Ionization_Penalty_Neutral>
0.000116688

> <r_epik_State_Penalty>
-0

> <r_epik_Charging_Adjusted_Penalty>
6.60428e-09

> <i_epik_Tot_Q>
0

> <i_epik_Tot_abs_Q>
0

> <r_epik_Metal_State_Penalty>
-0

> <b_epik_Metal_Only>
0

> <s_lp_Force_Field>
OPLS_2005

> <r_lp_Energy>
55.7438

> <b_lp_Chiralities_Consistent>
1

> <s_lp_Variant>
AV-unprocessed.smi:7-1

> <Gold.Version>
5.8.1

> <Gold.Id.Protein>
6NUR|6NUR_protein|mol2

> <Gold.PLP.Fitness>
54.1343

> <Gold.PLP.PLP>
-55.8056

> <Gold.PLP.part.hbond>
-3.3128

> <Gold.PLP.part.metal>
0.0000

> <Gold.PLP.part.buried>
-3.0339

> <Gold.PLP.part.nonpolar>
-49.1661

> <Gold.PLP.part.repulsive>
0.0531

> <Gold.PLP.ligand.clash>
0.0000

> <Gold.PLP.ligand.torsion>
0.8428

> <Gold.PLP.Chemscore.Hbond>
0.0000

> <Gold.PLP.Chemscore.CHOScore>
0.0000

> <Gold.PLP.Chemscore.Metal>
0.0000

> <Gold.PLP.Chemscore.Internal.Correction>
0.0143

> <Gold.Rescore>
     Score         DG    S(hbond)    S(metal)    S(lipo)     H(rot)  DE(clash)    DE(int)     intcor
      9.98     -11.25       0.00        0.00     110.29       2.79       0.59       0.68       ----

> <Gold.Chemscore.Fitness>
9.9822

> <Gold.Chemscore.DG>
-11.2520

> <Gold.Chemscore.ZeroCoef>
-5.4800

> <Gold.Chemscore.Hbond>
0.0000

> <Gold.Chemscore.Metal>
0.0000

> <Gold.Chemscore.Lipo>
110.2918

> <Gold.Chemscore.Internal_Hbond>
0.0000

> <Gold.Chemscore.DEClash>
0.5882

> <Gold.Chemscore.DEInternal>
0.6816

> <Gold.Chemscore.Rot>
2.7860

> <Gold.Chemscore.Internal.Correction>
   9.000000E+99

> <Gold.Chemscore.Hbond.Weighted>
-0.0000

> <Gold.Chemscore.Metal.Weighted>
-0.0000

> <Gold.Chemscore.Lipo.Weighted>
-12.9041

> <Gold.Chemscore.Internal_Hbond.Weighted>
0.0000

> <Gold.Chemscore.DEClash.Weighted>
0.5882

> <Gold.Chemscore.DEInternal.Weighted>
0.6816

> <Gold.Chemscore.Rot.Weighted>
7.1322

> <Gold.Chemscore.Internal.Correction.Weighted>
   9.000000E+99

> <Gold.Protein.RotatedTorsions>
[ 6907 6896 6895 6894 ] final  -71.89 input  -60.11 | X-H torsion
[ 7974 7965 7964 7962 ] final  110.20 input  175.53 | X-H torsion
[ 8008 7997 7996 7995 ] final  -18.60 input   59.86 | X-H torsion
[ 10167 10162 10161 10158 ] final   31.91 input  -65.29 | X-H torsion
[ 10718 10713 10712 10709 ] final -115.67 input   66.30 | X-H torsion
[ 10763 10752 10751 10750 ] final -169.43 input  -60.55 | X-H torsion
[ 11005 11000 10999 10996 ] final -169.49 input  -57.11 | X-H torsion

> <Gold.Protein.ActiveResidues>
 VAL166  LYS551  ARG553  GLY616  TRP617  ASP618  TYR619  PRO620  LYS621  CYS622 
 ASP623  PHE694  ASN695  SER759  ASP760  ASP761  ALA762  ILE779  LEU786  VAL792 
 PHE793  MET794  SER795  GLU796  ALA797  LYS798  CYS799  TRP800  GLU811  SER814 

> <Gold.Protein.RotatedAtoms>
  150.7193  134.5242  159.5668 H   0  0  0  0  0  0  0  0  0  0  0  0  # atno 6907 bound_to 6896
  152.2790  134.7846  160.0409 H   0  0  0  0  0  0  0  0  0  0  0  0  # atno 6908 bound_to 6896
  151.8500  133.3403  159.3707 H   0  0  0  0  0  0  0  0  0  0  0  0  # atno 6909 bound_to 6896
  145.2580  139.2713  143.4032 H   0  0  0  0  0  0  0  0  0  0  0  0  # atno 7974 bound_to 7965
  154.4895  140.2111  155.9581 H   0  0  0  0  0  0  0  0  0  0  0  0  # atno 8008 bound_to 7997
  156.1284  140.3201  155.8281 H   0  0  0  0  0  0  0  0  0  0  0  0  # atno 8009 bound_to 7997
  155.4341  140.0505  157.3007 H   0  0  0  0  0  0  0  0  0  0  0  0  # atno 8010 bound_to 7997
  140.4546  144.0997  150.6199 H   0  0  0  0  0  0  0  0  0  0  0  0  # atno 10167 bound_to 10162
  156.0911  130.6093  150.8936 H   0  0  0  0  0  0  0  0  0  0  0  0  # atno 10718 bound_to 10713
  154.6524  135.2913  154.9970 H   0  0  0  0  0  0  0  0  0  0  0  0  # atno 10763 bound_to 10752
  154.1058  135.6570  153.4880 H   0  0  0  0  0  0  0  0  0  0  0  0  # atno 10764 bound_to 10752
  153.0384  135.5253  154.7438 H   0  0  0  0  0  0  0  0  0  0  0  0  # atno 10765 bound_to 10752
  140.5302  134.5624  157.5072 H   0  0  0  0  0  0  0  0  0  0  0  0  # atno 11005 bound_to 11000
  146.3283  140.2989  142.8619 LP  0  0  0  0  0  0  0  0  0  0  0  0  # atno 17320 bound_to 7965
  144.9444  140.8112  143.5610 LP  0  0  0  0  0  0  0  0  0  0  0  0  # atno 17321 bound_to 7965
  140.4166  143.2631  151.9767 LP  0  0  0  0  0  0  0  0  0  0  0  0  # atno 17342 bound_to 10162
  139.4800  144.5868  151.7839 LP  0  0  0  0  0  0  0  0  0  0  0  0  # atno 17343 bound_to 10162
  157.6061  131.0939  150.8877 LP  0  0  0  0  0  0  0  0  0  0  0  0  # atno 17370 bound_to 10713
  156.9025  130.5252  149.5282 LP  0  0  0  0  0  0  0  0  0  0  0  0  # atno 17371 bound_to 10713
  139.9558  134.7537  156.0344 LP  0  0  0  0  0  0  0  0  0  0  0  0  # atno 17394 bound_to 11000
  141.1286  133.6592  156.3402 LP  0  0  0  0  0  0  0  0  0  0  0  0  # atno 17395 bound_to 11000

$$$$
