AV-unprocessed.smi:1464|AV-procd|sdf|5937|dock2
  -GOLD-   22720 6 23D 1   1.00000     0.00000
 Structure written by MMmdl.
 40 41  0  0  0  0  0  0  0  0  2 V2000
  153.1803  142.2972  161.3075 C   0  0  0  0  0  0  0  0  0  0  0  0
  152.9663  142.5940  159.8117 C   0  0  2  0  0  0  0  0  0  0  0  0
  152.7151  144.1031  159.6182 C   0  0  0  0  0  0  0  0  0  0  0  0
  152.5297  144.4654  158.1409 C   0  0  0  0  0  0  0  0  0  0  0  0
  151.3767  143.6632  157.5313 C   0  0  0  0  0  0  0  0  0  0  0  0
  151.6021  142.1477  157.6913 C   0  0  2  0  0  0  0  0  0  0  0  0
  150.4589  141.4302  157.1289 N   0  0  0  0  0  0  0  0  0  0  0  0
  150.5020  140.5929  156.0812 C   0  0  0  0  0  0  0  0  0  0  0  0
  151.5384  140.3407  155.4642 O   0  0  0  0  0  0  0  0  0  0  0  0
  149.1598  139.9543  155.6892 C   0  0  0  0  0  0  0  0  0  0  0  0
  148.1511  140.9114  155.2112 N   0  0  0  0  0  0  0  0  0  0  0  0
  146.9408  140.9491  156.0277 N   0  5  0  0  0  0  0  0  0  0  0  0
  145.9274  141.7828  155.6723 C   0  0  0  0  0  0  0  0  0  0  0  0
  144.8739  141.8571  156.3005 O   0  0  0  0  0  0  0  0  0  0  0  0
  146.1107  142.6211  154.4991 C   0  0  0  0  0  0  0  0  0  0  0  0
  147.2478  142.5815  153.7768 C   0  0  0  0  0  0  0  0  0  0  0  0
  148.3577  141.7000  154.1178 C   0  0  0  0  0  0  0  0  0  0  0  0
  149.4026  141.6653  153.4676 O   0  0  0  0  0  0  0  0  0  0  0  0
  151.8250  141.7492  159.1759 C   0  0  1  0  0  0  0  0  0  0  0  0
  152.0846  140.2321  159.3079 C   0  0  0  0  0  0  0  0  0  0  0  0
  152.2603  142.4380  161.8756 H   0  0  0  0  0  0  0  0  0  0  0  0
  153.9351  142.9590  161.7331 H   0  0  0  0  0  0  0  0  0  0  0  0
  153.5287  141.2789  161.4758 H   0  0  0  0  0  0  0  0  0  0  0  0
  153.8952  142.3478  159.2945 H   0  0  0  0  0  0  0  0  0  0  0  0
  151.8303  144.4057  160.1799 H   0  0  0  0  0  0  0  0  0  0  0  0
  153.5486  144.6763  160.0259 H   0  0  0  0  0  0  0  0  0  0  0  0
  152.3338  145.5332  158.0403 H   0  0  0  0  0  0  0  0  0  0  0  0
  153.4505  144.2649  157.5916 H   0  0  0  0  0  0  0  0  0  0  0  0
  150.4405  143.9519  158.0115 H   0  0  0  0  0  0  0  0  0  0  0  0
  151.2744  143.9194  156.4759 H   0  0  0  0  0  0  0  0  0  0  0  0
  152.5020  141.8738  157.1366 H   0  0  0  0  0  0  0  0  0  0  0  0
  149.5657  141.5766  157.5761 H   0  0  0  0  0  0  0  0  0  0  0  0
  149.3530  139.1985  154.9254 H   0  0  0  0  0  0  0  0  0  0  0  0
  148.7680  139.4057  156.5475 H   0  0  0  0  0  0  0  0  0  0  0  0
  145.3183  143.2918  154.2012 H   0  0  0  0  0  0  0  0  0  0  0  0
  147.3403  143.2226  152.9127 H   0  0  0  0  0  0  0  0  0  0  0  0
  150.9058  141.9714  159.7207 H   0  0  0  0  0  0  0  0  0  0  0  0
  153.0144  139.9472  158.8145 H   0  0  0  0  0  0  0  0  0  0  0  0
  151.2835  139.6423  158.8629 H   0  0  0  0  0  0  0  0  0  0  0  0
  152.1476  139.9179  160.3488 H   0  0  0  0  0  0  0  0  0  0  0  0
  1  2  1  0  0  0  0
  1 21  1  0  0  0  0
  1 22  1  0  0  0  0
  1 23  1  0  0  0  0
  2 19  1  0  0  0  0
  2  3  1  0  0  0  0
  2 24  1  0  0  0  0
  3  4  1  0  0  0  0
  3 25  1  0  0  0  0
  3 26  1  0  0  0  0
  4  5  1  0  0  0  0
  4 27  1  0  0  0  0
  4 28  1  0  0  0  0
  5  6  1  0  0  0  0
  5 29  1  0  0  0  0
  5 30  1  0  0  0  0
  6  7  1  0  0  0  0
  6 19  1  0  0  0  0
  6 31  1  0  0  0  0
  7  8  1  0  0  0  0
  7 32  1  0  0  0  0
  8  9  2  0  0  0  0
  8 10  1  0  0  0  0
 10 33  1  0  0  0  0
 10 34  1  0  0  0  0
 10 11  1  0  0  0  0
 11 12  1  0  0  0  0
 11 17  1  0  0  0  0
 12 13  1  0  0  0  0
 13 14  2  0  0  0  0
 13 15  1  0  0  0  0
 15 35  1  0  0  0  0
 15 16  2  0  0  0  0
 16 36  1  0  0  0  0
 16 17  1  0  0  0  0
 17 18  2  0  0  0  0
 19 20  1  0  0  0  0
 19 37  1  0  0  0  0
 20 38  1  0  0  0  0
 20 39  1  0  0  0  0
 20 40  1  0  0  0  0
M  CHG  1  12  -1
M  END
> <s_m_source_file>
AV-unprocessed.smi

> <i_m_source_file_index>
1464

> <i_lp_mmshare_version>
43012

> <i_f3d_flags>
0

> <s_epik_input>
W0NIM11bQ0BASF0xW0NIMl1bQ0gyXVtDSDJdW0NASF0oW0NASF0xW0NIM10pW05IXUMoPU8pW0NIMl1uMltuSF1jKD1PKVtjSF1bY0hdYzI9Tw==

> <s_epik_cmdline>
J2VwaWtfcHl0aG9uJywgJy1waCcsICc3LjAnLCAnLXRuJywgJzgnLCAnLW1hJywgJzIwMCcsICctbWV0YWxfYmluZGluZycsICctaW1hZScsICc8aW5maWxlLm1hZT4nLCAnLW9tYWUnLCAnPG91dGZpbGUubWFlPic=

> <r_lp_tautomer_probability>
1

> <r_epik_Ionization_Penalty>
0.101366

> <r_epik_Ionization_Penalty_Charging>
0.101366

> <r_epik_Ionization_Penalty_Neutral>
1.90469e-08

> <r_epik_State_Penalty>
0.035861

> <r_epik_Charging_Adjusted_Penalty>
0.137227

> <i_epik_Tot_Q>
-1

> <i_epik_Tot_abs_Q>
1

> <r_epik_Metal_State_Penalty>
0.035861

> <b_epik_Metal_Only>
0

> <s_lp_Force_Field>
OPLS_2005

> <r_lp_Energy>
28.4396

> <b_lp_Chiralities_Consistent>
1

> <s_lp_Variant>
AV-unprocessed.smi:1464-3

> <Gold.Version>
5.8.1

> <Gold.Id.Protein>
6NUR|6NUR_protein|mol2

> <Gold.PLP.Fitness>
46.1144

> <Gold.PLP.PLP>
-41.3602

> <Gold.PLP.part.hbond>
-2.6319

> <Gold.PLP.part.metal>
0.0000

> <Gold.PLP.part.buried>
-4.5842

> <Gold.PLP.part.nonpolar>
-34.7422

> <Gold.PLP.part.repulsive>
1.3570

> <Gold.PLP.ligand.clash>
0.0000

> <Gold.PLP.ligand.torsion>
0.0274

> <Gold.PLP.Chemscore.Hbond>
1.6000

> <Gold.PLP.Chemscore.CHOScore>
0.0000

> <Gold.PLP.Chemscore.Metal>
0.0000

> <Gold.Chemscore.Hbonds>
donor molecule, donor type, donor heavy atom, donor atom, acceptor molecule, acceptor atom, score
      P1  H  7989  7998       L1     9  0.88
      P1  H  8011  8017       L1    18  0.55

> <Gold.PLP.Chemscore.Internal.Correction>
0.0090

> <Gold.Rescore>
     Score         DG    S(hbond)    S(metal)    S(lipo)     H(rot)  DE(clash)    DE(int)     intcor
     17.95     -18.02       1.62        0.00      97.05       1.64       0.02       0.05       ----

> <Gold.Chemscore.Fitness>
17.9512

> <Gold.Chemscore.DG>
-18.0246

> <Gold.Chemscore.ZeroCoef>
-5.4800

> <Gold.Chemscore.Hbond>
1.6162

> <Gold.Chemscore.Metal>
0.0000

> <Gold.Chemscore.Lipo>
97.0465

> <Gold.Chemscore.Internal_Hbond>
0.0000

> <Gold.Chemscore.DEClash>
0.0240

> <Gold.Chemscore.DEInternal>
0.0494

> <Gold.Chemscore.Rot>
1.6438

> <Gold.Chemscore.Internal.Correction>
   9.000000E+99

> <Gold.Chemscore.Hbonds>
donor molecule, donor type, donor heavy atom, donor atom, acceptor molecule, acceptor atom, score
      P1  H  7989  7998       L1     9  0.77
      P1  H  8011  8017       L1    18  0.55

> <Gold.Chemscore.Hbond.Weighted>
-5.3982

> <Gold.Chemscore.Metal.Weighted>
-0.0000

> <Gold.Chemscore.Lipo.Weighted>
-11.3544

> <Gold.Chemscore.Internal_Hbond.Weighted>
0.0000

> <Gold.Chemscore.DEClash.Weighted>
0.0240

> <Gold.Chemscore.DEInternal.Weighted>
0.0494

> <Gold.Chemscore.Rot.Weighted>
4.2080

> <Gold.Chemscore.Internal.Correction.Weighted>
   9.000000E+99

> <Gold.Protein.RotatedTorsions>
[ 6907 6896 6895 6894 ] final  176.01 input  -60.11 | X-H torsion
[ 7974 7965 7964 7962 ] final   21.95 input  175.53 | X-H torsion
[ 8008 7997 7996 7995 ] final   25.60 input   59.86 | X-H torsion
[ 10167 10162 10161 10158 ] final  163.46 input  -65.29 | X-H torsion
[ 10718 10713 10712 10709 ] final  -78.12 input   66.30 | X-H torsion
[ 10763 10752 10751 10750 ] final   70.49 input  -60.55 | X-H torsion
[ 11005 11000 10999 10996 ] final   19.83 input  -57.11 | X-H torsion

> <Gold.Protein.ActiveResidues>
 VAL166  LYS551  ARG553  GLY616  TRP617  ASP618  TYR619  PRO620  LYS621  CYS622 
 ASP623  PHE694  ASN695  SER759  ASP760  ASP761  ALA762  ILE779  LEU786  VAL792 
 PHE793  MET794  SER795  GLU796  ALA797  LYS798  CYS799  TRP800  GLU811  SER814 

> <Gold.Protein.RotatedAtoms>
  151.7271  133.3316  159.3330 H   0  0  0  0  0  0  0  0  0  0  0  0  # atno 6907 bound_to 6896
  150.7628  134.6397  159.6239 H   0  0  0  0  0  0  0  0  0  0  0  0  # atno 6908 bound_to 6896
  152.3616  134.6867  160.0257 H   0  0  0  0  0  0  0  0  0  0  0  0  # atno 6909 bound_to 6896
  146.2050  139.7955  142.8733 H   0  0  0  0  0  0  0  0  0  0  0  0  # atno 7974 bound_to 7965
  155.0143  140.3140  155.4818 H   0  0  0  0  0  0  0  0  0  0  0  0  # atno 8008 bound_to 7997
  156.2903  140.2209  156.5200 H   0  0  0  0  0  0  0  0  0  0  0  0  # atno 8009 bound_to 7997
  154.7508  140.0466  157.0879 H   0  0  0  0  0  0  0  0  0  0  0  0  # atno 8010 bound_to 7997
  139.4874  144.4334  151.9042 H   0  0  0  0  0  0  0  0  0  0  0  0  # atno 10167 bound_to 10162
  156.0126  130.4509  150.3448 H   0  0  0  0  0  0  0  0  0  0  0  0  # atno 10718 bound_to 10713
  153.0345  135.5172  154.7449 H   0  0  0  0  0  0  0  0  0  0  0  0  # atno 10763 bound_to 10752
  154.6438  135.2916  155.0074 H   0  0  0  0  0  0  0  0  0  0  0  0  # atno 10764 bound_to 10752
  154.0982  135.6640  153.4916 H   0  0  0  0  0  0  0  0  0  0  0  0  # atno 10765 bound_to 10752
  140.4093  134.1635  155.7666 H   0  0  0  0  0  0  0  0  0  0  0  0  # atno 11005 bound_to 11000
  145.3352  141.0275  143.3424 LP  0  0  0  0  0  0  0  0  0  0  0  0  # atno 17320 bound_to 7965
  144.8771  139.4956  143.6740 LP  0  0  0  0  0  0  0  0  0  0  0  0  # atno 17321 bound_to 7965
  140.3783  144.2768  150.5911 LP  0  0  0  0  0  0  0  0  0  0  0  0  # atno 17342 bound_to 10162
  140.5256  143.2255  151.8319 LP  0  0  0  0  0  0  0  0  0  0  0  0  # atno 17343 bound_to 10162
  157.1543  131.0329  151.2871 LP  0  0  0  0  0  0  0  0  0  0  0  0  # atno 17370 bound_to 10713
  157.4366  130.7520  149.7034 LP  0  0  0  0  0  0  0  0  0  0  0  0  # atno 17371 bound_to 10713
  141.1827  133.8379  157.1199 LP  0  0  0  0  0  0  0  0  0  0  0  0  # atno 17394 bound_to 11000
  140.0279  134.9915  157.0722 LP  0  0  0  0  0  0  0  0  0  0  0  0  # atno 17395 bound_to 11000

$$$$
