AV-unprocessed.smi:2702|AV-procd|sdf|10433|dock2
  -GOLD-   2272014473D 1   1.00000     0.00000
 Structure written by MMmdl.
 47 48  0  0  0  0  0  0  0  0  1 V2000
  152.4555  140.4715  159.2534 C   0  0  0  0  0  0  0  0  0  0  0  0
  152.5786  139.8937  157.9661 O   0  0  0  0  0  0  0  0  0  0  0  0
  151.3778  139.9750  157.2166 C   0  0  0  0  0  0  0  0  0  0  0  0
  151.0425  138.6308  156.6021 C   0  0  0  0  0  0  0  0  0  0  0  0
  150.8587  137.5217  157.3558 C   0  0  0  0  0  0  0  0  0  0  0  0
  150.5359  136.2395  156.7301 C   0  0  0  0  0  0  0  0  0  0  0  0
  150.3617  135.2087  157.3811 O   0  0  0  0  0  0  0  0  0  0  0  0
  150.4442  136.2714  155.3675 N   0  0  0  0  0  0  0  0  0  0  0  0
  150.1304  135.0554  154.5955 C   0  0  0  0  0  0  0  0  0  0  0  0
  148.6619  134.6292  154.7279 C   0  0  0  0  0  0  0  0  0  0  0  0
  148.2017  134.3059  155.8236 O   0  0  0  0  0  0  0  0  0  0  0  0
  147.9411  134.6444  153.5962 N   0  0  0  0  0  0  0  0  0  0  0  0
  146.5380  134.2482  153.4576 C   0  0  1  0  0  0  0  0  0  0  0  0
  145.6757  135.4841  153.1412 C   0  0  0  0  0  0  0  0  0  0  0  0
  145.9415  136.0223  151.7277 C   0  0  0  0  0  0  0  0  0  0  0  0
  145.7414  134.9241  150.6749 C   0  0  0  0  0  0  0  0  0  0  0  0
  146.6175  133.6850  150.9526 C   0  0  2  0  0  0  0  0  0  0  0  0
  146.3873  132.6296  149.8564 C   0  0  0  0  0  0  0  0  0  0  0  0
  146.3568  133.1397  152.3849 C   0  0  1  0  0  0  0  0  0  0  0  0
  147.1921  131.8856  152.7146 C   0  0  0  0  0  0  0  0  0  0  0  0
  150.6331  137.4582  154.6317 C   0  0  0  0  0  0  0  0  0  0  0  0
  150.9180  138.5814  155.2100 N   0  0  0  0  0  0  0  0  0  0  0  0
  153.4029  140.3853  159.7855 H   0  0  0  0  0  0  0  0  0  0  0  0
  151.6909  139.9632  159.8424 H   0  0  0  0  0  0  0  0  0  0  0  0
  152.2018  141.5304  159.1882 H   0  0  0  0  0  0  0  0  0  0  0  0
  150.5592  140.3086  157.8568 H   0  0  0  0  0  0  0  0  0  0  0  0
  151.4828  140.7094  156.4164 H   0  0  0  0  0  0  0  0  0  0  0  0
  150.9541  137.5740  158.4308 H   0  0  0  0  0  0  0  0  0  0  0  0
  150.3519  135.1815  153.5343 H   0  0  0  0  0  0  0  0  0  0  0  0
  150.7786  134.2402  154.9229 H   0  0  0  0  0  0  0  0  0  0  0  0
  148.4100  134.9301  152.7488 H   0  0  0  0  0  0  0  0  0  0  0  0
  146.1835  133.8540  154.4115 H   0  0  0  0  0  0  0  0  0  0  0  0
  144.6217  135.2170  153.2281 H   0  0  0  0  0  0  0  0  0  0  0  0
  145.8514  136.2675  153.8796 H   0  0  0  0  0  0  0  0  0  0  0  0
  145.2758  136.8604  151.5201 H   0  0  0  0  0  0  0  0  0  0  0  0
  146.9572  136.4139  151.6619 H   0  0  0  0  0  0  0  0  0  0  0  0
  144.6902  134.6329  150.6531 H   0  0  0  0  0  0  0  0  0  0  0  0
  145.9674  135.3275  149.6871 H   0  0  0  0  0  0  0  0  0  0  0  0
  147.6616  133.9943  150.8881 H   0  0  0  0  0  0  0  0  0  0  0  0
  145.3793  132.2173  149.9072 H   0  0  0  0  0  0  0  0  0  0  0  0
  147.0935  131.8035  149.9361 H   0  0  0  0  0  0  0  0  0  0  0  0
  146.5185  133.0620  148.8641 H   0  0  0  0  0  0  0  0  0  0  0  0
  145.3103  132.8334  152.4282 H   0  0  0  0  0  0  0  0  0  0  0  0
  148.2569  132.0568  152.5544 H   0  0  0  0  0  0  0  0  0  0  0  0
  146.8977  131.0341  152.1020 H   0  0  0  0  0  0  0  0  0  0  0  0
  147.0569  131.5880  153.7547 H   0  0  0  0  0  0  0  0  0  0  0  0
  150.5186  137.3641  153.5506 H   0  0  0  0  0  0  0  0  0  0  0  0
  1  2  1  0  0  0  0
  1 23  1  0  0  0  0
  1 24  1  0  0  0  0
  1 25  1  0  0  0  0
  2  3  1  0  0  0  0
  3  4  1  0  0  0  0
  3 26  1  0  0  0  0
  3 27  1  0  0  0  0
  4 22  1  0  0  0  0
  4  5  2  0  0  0  0
  5  6  1  0  0  0  0
  5 28  1  0  0  0  0
  6  7  2  0  0  0  0
  6  8  1  0  0  0  0
  8  9  1  0  0  0  0
  8 21  1  0  0  0  0
  9 10  1  0  0  0  0
  9 29  1  0  0  0  0
  9 30  1  0  0  0  0
 10 11  2  0  0  0  0
 10 12  1  0  0  0  0
 12 13  1  0  0  0  0
 12 31  1  0  0  0  0
 13 19  1  0  0  0  0
 13 14  1  0  0  0  0
 13 32  1  0  0  0  0
 14 15  1  0  0  0  0
 14 33  1  0  0  0  0
 14 34  1  0  0  0  0
 15 16  1  0  0  0  0
 15 35  1  0  0  0  0
 15 36  1  0  0  0  0
 16 17  1  0  0  0  0
 16 37  1  0  0  0  0
 16 38  1  0  0  0  0
 17 18  1  0  0  0  0
 17 19  1  0  0  0  0
 17 39  1  0  0  0  0
 18 40  1  0  0  0  0
 18 41  1  0  0  0  0
 18 42  1  0  0  0  0
 19 20  1  0  0  0  0
 19 43  1  0  0  0  0
 20 44  1  0  0  0  0
 20 45  1  0  0  0  0
 20 46  1  0  0  0  0
 21 22  2  0  0  0  0
 21 47  1  0  0  0  0
M  END
> <s_m_source_file>
AV-unprocessed.smi

> <i_m_source_file_index>
2702

> <i_lp_mmshare_version>
43012

> <i_f3d_flags>
0

> <s_epik_input>
W0NIM11PW0NIMl1jMVtjSF1jKD1PKW4oW2NIXW4xKVtDSDJdQyg9TylbTkhdW0NAQEhdMltDSDJdW0NIMl1bQ0gyXVtDQEBIXShbQ0gzXSlbQ0BIXTJbQ0gzXQ==

> <s_epik_cmdline>
J2VwaWtfcHl0aG9uJywgJy1waCcsICc3LjAnLCAnLXRuJywgJzgnLCAnLW1hJywgJzIwMCcsICctbWV0YWxfYmluZGluZycsICctaW1hZScsICc8aW5maWxlLm1hZT4nLCAnLW9tYWUnLCAnPG91dGZpbGUubWFlPic=

> <r_lp_tautomer_probability>
1

> <r_epik_Ionization_Penalty>
1.22164e-06

> <r_epik_Ionization_Penalty_Charging>
3.17988e-07

> <r_epik_Ionization_Penalty_Neutral>
9.03656e-07

> <r_epik_State_Penalty>
-0

> <r_epik_Charging_Adjusted_Penalty>
3.17988e-07

> <i_epik_Tot_Q>
0

> <i_epik_Tot_abs_Q>
0

> <r_epik_Metal_State_Penalty>
-0

> <b_epik_Metal_Only>
0

> <s_lp_Force_Field>
OPLS_2005

> <r_lp_Energy>
16.6041

> <b_lp_Chiralities_Consistent>
1

> <s_lp_Variant>
AV-unprocessed.smi:2702-4

> <Gold.Version>
5.8.1

> <Gold.Id.Protein>
6NUR|6NUR_protein|mol2

> <Gold.PLP.Fitness>
38.1323

> <Gold.PLP.PLP>
-28.3729

> <Gold.PLP.part.hbond>
-3.0000

> <Gold.PLP.part.metal>
0.0000

> <Gold.PLP.part.buried>
-3.5787

> <Gold.PLP.part.nonpolar>
-22.3601

> <Gold.PLP.part.repulsive>
0.0880

> <Gold.PLP.ligand.clash>
0.0000

> <Gold.PLP.ligand.torsion>
0.5468

> <Gold.PLP.Chemscore.Hbond>
2.4120

> <Gold.PLP.Chemscore.CHOScore>
1.1920

> <Gold.PLP.Chemscore.Metal>
0.0000

> <Gold.Chemscore.Hbonds>
donor molecule, donor type, donor heavy atom, donor atom, acceptor molecule, acceptor atom, score
      L1  H    12    31       P1  7948  0.94
      P1  H  6896  6908       L1     7  0.30
      P1  H  7997  8008       L1     2  0.54
      L1  C    21    47       P1  7948  0.66
      L1  C    21    47       P1  7949  0.51

> <Gold.PLP.Chemscore.Internal.Correction>
0.0410

> <Gold.Rescore>
     Score         DG    S(hbond)    S(metal)    S(lipo)     H(rot)  DE(clash)    DE(int)     intcor
     14.49     -15.39       2.25        0.00      62.53       1.93       0.00       0.90       ----

> <Gold.Chemscore.Fitness>
14.4921

> <Gold.Chemscore.DG>
-15.3907

> <Gold.Chemscore.ZeroCoef>
-5.4800

> <Gold.Chemscore.Hbond>
2.2550

> <Gold.Chemscore.Metal>
0.0000

> <Gold.Chemscore.Lipo>
62.5290

> <Gold.Chemscore.Internal_Hbond>
0.0000

> <Gold.Chemscore.DEClash>
0.0000

> <Gold.Chemscore.DEInternal>
0.8986

> <Gold.Chemscore.Rot>
1.9284

> <Gold.Chemscore.Internal.Correction>
   9.000000E+99

> <Gold.Chemscore.Hbonds>
donor molecule, donor type, donor heavy atom, donor atom, acceptor molecule, acceptor atom, score
      L1  H    12    31       P1  7948  0.50
      P1  H  6896  6908       L1     7  0.30
      P1  H  7997  8008       L1     2  0.45

> <Gold.Chemscore.Hbond.Weighted>
-7.5316

> <Gold.Chemscore.Metal.Weighted>
-0.0000

> <Gold.Chemscore.Lipo.Weighted>
-7.3159

> <Gold.Chemscore.Internal_Hbond.Weighted>
0.0000

> <Gold.Chemscore.DEClash.Weighted>
0.0000

> <Gold.Chemscore.DEInternal.Weighted>
0.8986

> <Gold.Chemscore.Rot.Weighted>
4.9368

> <Gold.Chemscore.Internal.Correction.Weighted>
   9.000000E+99

> <Gold.Protein.RotatedTorsions>
[ 6907 6896 6895 6894 ] final  153.24 input  -60.11 | X-H torsion
[ 7974 7965 7964 7962 ] final  -85.70 input  175.53 | X-H torsion
[ 8008 7997 7996 7995 ] final  -64.18 input   59.86 | X-H torsion
[ 10167 10162 10161 10158 ] final -141.70 input  -65.29 | X-H torsion
[ 10718 10713 10712 10709 ] final  -49.01 input   66.30 | X-H torsion
[ 10763 10752 10751 10750 ] final  -88.01 input  -60.55 | X-H torsion
[ 11005 11000 10999 10996 ] final  102.00 input  -57.11 | X-H torsion

> <Gold.Protein.ActiveResidues>
 VAL166  LYS551  ARG553  GLY616  TRP617  ASP618  TYR619  PRO620  LYS621  CYS622 
 ASP623  PHE694  ASN695  SER759  ASP760  ASP761  ALA762  ILE779  LEU786  VAL792 
 PHE793  MET794  SER795  GLU796  ALA797  LYS798  CYS799  TRP800  GLU811  SER814 

> <Gold.Protein.RotatedAtoms>
  152.0754  133.4127  159.4477 H   0  0  0  0  0  0  0  0  0  0  0  0  # atno 6907 bound_to 6896
  150.6863  134.3043  159.4729 H   0  0  0  0  0  0  0  0  0  0  0  0  # atno 6908 bound_to 6896
  152.0880  134.9426  160.0623 H   0  0  0  0  0  0  0  0  0  0  0  0  # atno 6909 bound_to 6896
  145.4898  140.9553  143.1818 H   0  0  0  0  0  0  0  0  0  0  0  0  # atno 7974 bound_to 7965
  154.4597  140.0959  156.6857 H   0  0  0  0  0  0  0  0  0  0  0  0  # atno 8008 bound_to 7997
  155.5032  140.3474  155.4356 H   0  0  0  0  0  0  0  0  0  0  0  0  # atno 8009 bound_to 7997
  156.0846  140.1381  156.9658 H   0  0  0  0  0  0  0  0  0  0  0  0  # atno 8010 bound_to 7997
  139.8160  143.7638  152.2665 H   0  0  0  0  0  0  0  0  0  0  0  0  # atno 10167 bound_to 10162
  156.1933  130.4153  149.9341 H   0  0  0  0  0  0  0  0  0  0  0  0  # atno 10718 bound_to 10713
  154.6399  135.5392  153.7777 H   0  0  0  0  0  0  0  0  0  0  0  0  # atno 10763 bound_to 10752
  153.0328  135.6456  154.1175 H   0  0  0  0  0  0  0  0  0  0  0  0  # atno 10764 bound_to 10752
  154.1100  135.2927  155.3212 H   0  0  0  0  0  0  0  0  0  0  0  0  # atno 10765 bound_to 10752
  139.8775  134.9206  156.4992 H   0  0  0  0  0  0  0  0  0  0  0  0  # atno 11005 bound_to 11000
  144.7841  139.6464  143.7142 LP  0  0  0  0  0  0  0  0  0  0  0  0  # atno 17320 bound_to 7965
  146.2291  139.5779  142.9567 LP  0  0  0  0  0  0  0  0  0  0  0  0  # atno 17321 bound_to 7965
  139.7802  144.7447  151.0099 LP  0  0  0  0  0  0  0  0  0  0  0  0  # atno 17342 bound_to 10162
  140.7816  143.4550  151.0358 LP  0  0  0  0  0  0  0  0  0  0  0  0  # atno 17343 bound_to 10162
  156.7074  130.8957  151.3606 LP  0  0  0  0  0  0  0  0  0  0  0  0  # atno 17370 bound_to 10713
  157.6942  130.9265  150.0598 LP  0  0  0  0  0  0  0  0  0  0  0  0  # atno 17371 bound_to 10713
  140.8602  133.8065  155.9257 LP  0  0  0  0  0  0  0  0  0  0  0  0  # atno 17394 bound_to 11000
  140.9057  134.2323  157.5016 LP  0  0  0  0  0  0  0  0  0  0  0  0  # atno 17395 bound_to 11000

$$$$
