AV-unprocessed.smi:2882|AV-procd|sdf|11074|dock2
  -GOLD-   2272015543D 1   1.00000     0.00000
 Structure written by MMmdl.
 28 30  0  0  0  0  0  0  0  0  1 V2000
  153.3720  138.7291  155.9211 N   0  0  0  0  0  0  0  0  0  0  0  0
  152.4306  139.3914  155.8024 C   0  0  0  0  0  0  0  0  0  0  0  0
  151.2455  140.2263  155.6520 C   0  0  0  0  0  0  0  0  0  0  0  0
  150.5296  140.0660  154.5148 N   0  0  0  0  0  0  0  0  0  0  0  0
  149.4257  140.8285  154.3662 C   0  0  0  0  0  0  0  0  0  0  0  0
  149.0309  141.7546  155.3509 C   0  0  0  0  0  0  0  0  0  0  0  0
  149.7393  141.9218  156.4877 N   0  0  0  0  0  0  0  0  0  0  0  0
  150.8509  141.1611  156.6504 C   0  0  0  0  0  0  0  0  0  0  0  0
  151.6013  141.3272  157.8288 N   0  0  0  0  0  0  0  0  0  0  0  0
  151.3439  142.4353  158.7422 C   0  0  1  0  0  0  0  0  0  0  0  0
  151.9781  142.2345  160.1248 C   0  0  0  0  0  0  0  0  0  0  0  0
  152.8412  143.4945  160.2644 C   0  0  2  0  0  0  0  0  0  0  0  0
  151.9957  144.7660  160.4200 C   0  0  0  0  0  0  0  0  0  0  0  0
  151.4469  144.9514  159.0058 C   0  0  0  0  0  0  0  0  0  0  0  0
  152.0291  143.7318  158.2786 C   0  0  1  0  0  0  0  0  0  0  0  0
  153.2871  143.6371  158.9277 O   0  0  0  0  0  0  0  0  0  0  0  0
  148.8555  140.6996  153.4582 H   0  0  0  0  0  0  0  0  0  0  0  0
  148.1469  142.3623  155.2265 H   0  0  0  0  0  0  0  0  0  0  0  0
  152.1649  140.5589  158.1645 H   0  0  0  0  0  0  0  0  0  0  0  0
  150.2673  142.5965  158.8157 H   0  0  0  0  0  0  0  0  0  0  0  0
  151.2350  142.1474  160.9179 H   0  0  0  0  0  0  0  0  0  0  0  0
  152.6082  141.3442  160.1536 H   0  0  0  0  0  0  0  0  0  0  0  0
  153.6422  143.4019  160.9982 H   0  0  0  0  0  0  0  0  0  0  0  0
  151.2107  144.6519  161.1684 H   0  0  0  0  0  0  0  0  0  0  0  0
  152.6174  145.6162  160.7029 H   0  0  0  0  0  0  0  0  0  0  0  0
  150.3571  144.9772  158.9733 H   0  0  0  0  0  0  0  0  0  0  0  0
  151.8232  145.8770  158.5689 H   0  0  0  0  0  0  0  0  0  0  0  0
  152.0825  143.8551  157.1961 H   0  0  0  0  0  0  0  0  0  0  0  0
  1  2  3  0  0  0  0
  2  3  1  0  0  0  0
  3  8  1  0  0  0  0
  3  4  2  0  0  0  0
  4  5  1  0  0  0  0
  5  6  2  0  0  0  0
  5 17  1  0  0  0  0
  6  7  1  0  0  0  0
  6 18  1  0  0  0  0
  7  8  2  0  0  0  0
  8  9  1  0  0  0  0
  9 10  1  0  0  0  0
  9 19  1  0  0  0  0
 10 15  1  0  0  0  0
 10 11  1  0  0  0  0
 10 20  1  0  0  0  0
 11 12  1  0  0  0  0
 11 21  1  0  0  0  0
 11 22  1  0  0  0  0
 12 16  1  0  0  0  0
 12 13  1  0  0  0  0
 12 23  1  0  0  0  0
 13 14  1  0  0  0  0
 13 24  1  0  0  0  0
 13 25  1  0  0  0  0
 14 15  1  0  0  0  0
 14 26  1  0  0  0  0
 14 27  1  0  0  0  0
 15 16  1  0  0  0  0
 15 28  1  0  0  0  0
M  END
> <s_m_source_file>
AV-unprocessed.smi

> <i_m_source_file_index>
2882

> <i_lp_mmshare_version>
43012

> <i_f3d_flags>
0

> <s_epik_input>
TiNDYzFuW2NIXVtjSF1uYzFbTkhdW0NASF0oW0NIMl1bQ0BASF0yMylbQ0BASF0oTzMpW0NIMl1bQ0gyXTI=

> <s_epik_cmdline>
J2VwaWtfcHl0aG9uJywgJy1waCcsICc3LjAnLCAnLXRuJywgJzgnLCAnLW1hJywgJzIwMCcsICctbWV0YWxfYmluZGluZycsICctaW1hZScsICc8aW5maWxlLm1hZT4nLCAnLW9tYWUnLCAnPG91dGZpbGUubWFlPic=

> <r_lp_tautomer_probability>
1

> <r_epik_Ionization_Penalty>
4.95445e-05

> <r_epik_Ionization_Penalty_Charging>
0

> <r_epik_Ionization_Penalty_Neutral>
4.95445e-05

> <r_epik_State_Penalty>
-0

> <r_epik_Charging_Adjusted_Penalty>
0

> <i_epik_Tot_Q>
0

> <i_epik_Tot_abs_Q>
0

> <r_epik_Metal_State_Penalty>
-0

> <b_epik_Metal_Only>
0

> <s_lp_Force_Field>
OPLS_2005

> <r_lp_Energy>
50.0658

> <b_lp_Chiralities_Consistent>
1

> <s_lp_Variant>
AV-unprocessed.smi:2882-4

> <Gold.Version>
5.8.1

> <Gold.Id.Protein>
6NUR|6NUR_protein|mol2

> <Gold.PLP.Fitness>
42.6195

> <Gold.PLP.PLP>
-34.5069

> <Gold.PLP.part.hbond>
-2.0000

> <Gold.PLP.part.metal>
0.0000

> <Gold.PLP.part.buried>
-1.4060

> <Gold.PLP.part.nonpolar>
-32.1650

> <Gold.PLP.part.repulsive>
0.7339

> <Gold.PLP.ligand.clash>
0.0000

> <Gold.PLP.ligand.torsion>
0.2851

> <Gold.PLP.Chemscore.Hbond>
1.3928

> <Gold.PLP.Chemscore.CHOScore>
1.4947

> <Gold.PLP.Chemscore.Metal>
0.0000

> <Gold.Chemscore.Hbonds>
donor molecule, donor type, donor heavy atom, donor atom, acceptor molecule, acceptor atom, score
      P1  H  7989  7998       L1     4  0.80
      P1  H  7997  8008       L1     1  0.54
      L1  C     5    17       P1  7957  1.00
      L1  C     6    18       P1  8028  0.53

> <Gold.PLP.Chemscore.Internal.Correction>
0.0202

> <Gold.Rescore>
     Score         DG    S(hbond)    S(metal)    S(lipo)     H(rot)  DE(clash)    DE(int)     intcor
     15.43     -15.80       0.95        0.00      82.99       1.00       0.03       0.35       ----

> <Gold.Chemscore.Fitness>
15.4299

> <Gold.Chemscore.DG>
-15.8013

> <Gold.Chemscore.ZeroCoef>
-5.4800

> <Gold.Chemscore.Hbond>
0.9497

> <Gold.Chemscore.Metal>
0.0000

> <Gold.Chemscore.Lipo>
82.9855

> <Gold.Chemscore.Internal_Hbond>
0.0000

> <Gold.Chemscore.DEClash>
0.0260

> <Gold.Chemscore.DEInternal>
0.3454

> <Gold.Chemscore.Rot>
1.0000

> <Gold.Chemscore.Internal.Correction>
   9.000000E+99

> <Gold.Chemscore.Hbonds>
donor molecule, donor type, donor heavy atom, donor atom, acceptor molecule, acceptor atom, score
      P1  H  7989  7998       L1     4  0.04
      P1  H  7997  8008       L1     1  0.04

> <Gold.Chemscore.Hbond.Weighted>
-3.1720

> <Gold.Chemscore.Metal.Weighted>
-0.0000

> <Gold.Chemscore.Lipo.Weighted>
-9.7093

> <Gold.Chemscore.Internal_Hbond.Weighted>
0.0000

> <Gold.Chemscore.DEClash.Weighted>
0.0260

> <Gold.Chemscore.DEInternal.Weighted>
0.3454

> <Gold.Chemscore.Rot.Weighted>
2.5600

> <Gold.Chemscore.Internal.Correction.Weighted>
   9.000000E+99

> <Gold.Protein.RotatedTorsions>
[ 6907 6896 6895 6894 ] final -165.60 input  -60.11 | X-H torsion
[ 7974 7965 7964 7962 ] final  118.24 input  175.53 | X-H torsion
[ 8008 7997 7996 7995 ] final  -26.76 input   59.86 | X-H torsion
[ 10167 10162 10161 10158 ] final   34.02 input  -65.29 | X-H torsion
[ 10718 10713 10712 10709 ] final   69.54 input   66.30 | X-H torsion
[ 10763 10752 10751 10750 ] final  -36.70 input  -60.55 | X-H torsion
[ 11005 11000 10999 10996 ] final    6.24 input  -57.11 | X-H torsion

> <Gold.Protein.ActiveResidues>
 VAL166  LYS551  ARG553  GLY616  TRP617  ASP618  TYR619  PRO620  LYS621  CYS622 
 ASP623  PHE694  ASN695  SER759  ASP760  ASP761  ALA762  ILE779  LEU786  VAL792 
 PHE793  MET794  SER795  GLU796  ALA797  LYS798  CYS799  TRP800  GLU811  SER814 

> <Gold.Protein.RotatedAtoms>
  151.4303  133.3672  159.2767 H   0  0  0  0  0  0  0  0  0  0  0  0  # atno 6907 bound_to 6896
  150.9230  134.8648  159.7512 H   0  0  0  0  0  0  0  0  0  0  0  0  # atno 6908 bound_to 6896
  152.4991  134.4242  159.9543 H   0  0  0  0  0  0  0  0  0  0  0  0  # atno 6909 bound_to 6896
  145.1576  139.3174  143.4534 H   0  0  0  0  0  0  0  0  0  0  0  0  # atno 7974 bound_to 7965
  154.4410  140.1891  156.0825 H   0  0  0  0  0  0  0  0  0  0  0  0  # atno 8008 bound_to 7997
  156.0428  140.3318  155.7236 H   0  0  0  0  0  0  0  0  0  0  0  0  # atno 8009 bound_to 7997
  155.5674  140.0609  157.2805 H   0  0  0  0  0  0  0  0  0  0  0  0  # atno 8010 bound_to 7997
  140.4354  144.1265  150.6165 H   0  0  0  0  0  0  0  0  0  0  0  0  # atno 10167 bound_to 10162
  157.6351  130.9431  150.0527 H   0  0  0  0  0  0  0  0  0  0  0  0  # atno 10718 bound_to 10713
  153.8842  135.6818  153.4765 H   0  0  0  0  0  0  0  0  0  0  0  0  # atno 10763 bound_to 10752
  153.1217  135.4737  154.9204 H   0  0  0  0  0  0  0  0  0  0  0  0  # atno 10764 bound_to 10752
  154.7654  135.3223  154.8248 H   0  0  0  0  0  0  0  0  0  0  0  0  # atno 10765 bound_to 10752
  140.5616  134.0187  155.7974 H   0  0  0  0  0  0  0  0  0  0  0  0  # atno 11005 bound_to 11000
  146.3487  140.1674  142.8590 LP  0  0  0  0  0  0  0  0  0  0  0  0  # atno 17320 bound_to 7965
  145.0365  140.8912  143.5078 LP  0  0  0  0  0  0  0  0  0  0  0  0  # atno 17321 bound_to 7965
  140.4380  143.2539  151.9510 LP  0  0  0  0  0  0  0  0  0  0  0  0  # atno 17342 bound_to 10162
  139.4786  144.5681  151.8132 LP  0  0  0  0  0  0  0  0  0  0  0  0  # atno 17343 bound_to 10162
  156.1584  130.3643  149.9335 LP  0  0  0  0  0  0  0  0  0  0  0  0  # atno 17370 bound_to 10713
  156.7338  130.9053  151.3627 LP  0  0  0  0  0  0  0  0  0  0  0  0  # atno 17371 bound_to 10713
  141.1111  133.9615  157.2909 LP  0  0  0  0  0  0  0  0  0  0  0  0  # atno 17394 bound_to 11000
  139.9405  135.0191  156.8692 LP  0  0  0  0  0  0  0  0  0  0  0  0  # atno 17395 bound_to 11000

$$$$
