AV-unprocessed.smi:1703|AV-procd|sdf|6857|dock4
  -GOLD-   22720 8 43D 1   1.00000     0.00000
 Structure written by MMmdl.
 48 50  0  0  0  0  0  0  0  0  1 V2000
  144.0570  139.4291  159.2761 C   0  0  0  0  0  0  0  0  0  0  0  0
  144.8787  140.5685  158.6642 C   0  0  1  0  0  0  0  0  0  0  0  0
  145.9841  140.0483  157.7279 C   0  0  0  0  0  0  0  0  0  0  0  0
  146.7108  141.1369  157.0876 N   0  0  0  0  0  0  0  0  0  0  0  0
  147.7883  140.6271  156.2402 C   0  0  0  0  0  0  0  0  0  0  0  0
  148.8276  141.6810  155.8017 C   0  0  2  0  0  0  0  0  0  0  0  0
  148.2963  142.4353  154.7289 O   0  0  0  0  0  0  0  0  0  0  0  0
  150.1511  141.0307  155.3492 C   0  0  0  0  0  0  0  0  0  0  0  0
  151.1440  140.9661  156.4142 N   0  0  0  0  0  0  0  0  0  0  0  0
  152.1164  140.0364  156.5929 C   0  0  0  0  0  0  0  0  0  0  0  0
  152.2897  138.8915  155.6346 C   0  0  0  0  0  0  0  0  0  0  0  0
  152.3643  139.2825  154.2782 O   0  0  0  0  0  0  0  0  0  0  0  0
  152.8995  140.2194  157.6587 N   0  0  0  0  0  0  0  0  0  0  0  0
  152.3886  141.3725  158.2208 C   0  0  0  0  0  0  0  0  0  0  0  0
  152.7868  142.0862  159.3738 C   0  0  0  0  0  0  0  0  0  0  0  0
  152.1041  143.2588  159.7587 C   0  0  0  0  0  0  0  0  0  0  0  0
  151.0169  143.7339  158.9972 C   0  0  0  0  0  0  0  0  0  0  0  0
  150.6045  143.0380  157.8444 C   0  0  0  0  0  0  0  0  0  0  0  0
  151.2887  141.8674  157.4649 C   0  0  0  0  0  0  0  0  0  0  0  0
  145.7652  141.9720  156.3505 C   0  0  0  0  0  0  0  0  0  0  0  0
  144.6149  142.4926  157.2353 C   0  0  2  0  0  0  0  0  0  0  0  0
  145.0472  143.6125  158.1973 C   0  0  0  0  0  0  0  0  0  0  0  0
  143.9924  141.4093  157.9281 O   0  0  0  0  0  0  0  0  0  0  0  0
  144.6875  138.7649  159.8676 H   0  0  0  0  0  0  0  0  0  0  0  0
  143.5725  138.8313  158.5033 H   0  0  0  0  0  0  0  0  0  0  0  0
  143.2790  139.8195  159.9324 H   0  0  0  0  0  0  0  0  0  0  0  0
  145.3290  141.1399  159.4765 H   0  0  0  0  0  0  0  0  0  0  0  0
  146.6762  139.4308  158.3016 H   0  0  0  0  0  0  0  0  0  0  0  0
  145.5448  139.4000  156.9677 H   0  0  0  0  0  0  0  0  0  0  0  0
  148.3183  139.8638  156.8118 H   0  0  0  0  0  0  0  0  0  0  0  0
  147.3805  140.1035  155.3737 H   0  0  0  0  0  0  0  0  0  0  0  0
  149.0329  142.3601  156.6297 H   0  0  0  0  0  0  0  0  0  0  0  0
  148.6343  143.3158  154.7833 H   0  0  0  0  0  0  0  0  0  0  0  0
  149.9697  140.0203  154.9823 H   0  0  0  0  0  0  0  0  0  0  0  0
  150.5762  141.5819  154.5092 H   0  0  0  0  0  0  0  0  0  0  0  0
  153.2000  138.3460  155.8808 H   0  0  0  0  0  0  0  0  0  0  0  0
  151.4532  138.2019  155.7508 H   0  0  0  0  0  0  0  0  0  0  0  0
  151.9731  138.6052  153.7482 H   0  0  0  0  0  0  0  0  0  0  0  0
  153.6187  141.7302  159.9634 H   0  0  0  0  0  0  0  0  0  0  0  0
  152.4164  143.7960  160.6422 H   0  0  0  0  0  0  0  0  0  0  0  0
  150.4990  144.6327  159.2987 H   0  0  0  0  0  0  0  0  0  0  0  0
  149.7711  143.3993  157.2610 H   0  0  0  0  0  0  0  0  0  0  0  0
  146.2776  142.8226  155.9013 H   0  0  0  0  0  0  0  0  0  0  0  0
  145.3430  141.3968  155.5249 H   0  0  0  0  0  0  0  0  0  0  0  0
  143.8532  142.9145  156.5791 H   0  0  0  0  0  0  0  0  0  0  0  0
  145.4150  144.4769  157.6442 H   0  0  0  0  0  0  0  0  0  0  0  0
  145.8448  143.2929  158.8676 H   0  0  0  0  0  0  0  0  0  0  0  0
  144.2088  143.9449  158.8095 H   0  0  0  0  0  0  0  0  0  0  0  0
  1  2  1  0  0  0  0
  1 24  1  0  0  0  0
  1 25  1  0  0  0  0
  1 26  1  0  0  0  0
  2 23  1  0  0  0  0
  2  3  1  0  0  0  0
  2 27  1  0  0  0  0
  3  4  1  0  0  0  0
  3 28  1  0  0  0  0
  3 29  1  0  0  0  0
  4  5  1  0  0  0  0
  4 20  1  0  0  0  0
  5  6  1  0  0  0  0
  5 30  1  0  0  0  0
  5 31  1  0  0  0  0
  6  7  1  0  0  0  0
  6  8  1  0  0  0  0
  6 32  1  0  0  0  0
  7 33  1  0  0  0  0
  8  9  1  0  0  0  0
  8 34  1  0  0  0  0
  8 35  1  0  0  0  0
  9 19  1  0  0  0  0
  9 10  1  0  0  0  0
 10 11  1  0  0  0  0
 10 13  2  0  0  0  0
 11 12  1  0  0  0  0
 11 36  1  0  0  0  0
 11 37  1  0  0  0  0
 12 38  1  0  0  0  0
 13 14  1  0  0  0  0
 14 19  2  0  0  0  0
 14 15  1  0  0  0  0
 15 16  2  0  0  0  0
 15 39  1  0  0  0  0
 16 17  1  0  0  0  0
 16 40  1  0  0  0  0
 17 18  2  0  0  0  0
 17 41  1  0  0  0  0
 18 19  1  0  0  0  0
 18 42  1  0  0  0  0
 20 21  1  0  0  0  0
 20 43  1  0  0  0  0
 20 44  1  0  0  0  0
 21 22  1  0  0  0  0
 21 23  1  0  0  0  0
 21 45  1  0  0  0  0
 22 46  1  0  0  0  0
 22 47  1  0  0  0  0
 22 48  1  0  0  0  0
M  END
> <s_m_source_file>
AV-unprocessed.smi

> <i_m_source_file_index>
1703

> <i_lp_mmshare_version>
43012

> <i_f3d_flags>
0

> <s_epik_input>
W0NIM11bQ0BASF0xW0NIMl1OKFtDSDJdW0NASF0oTzEpW0NIM10pW0NIMl1bQ0BIXShbT0hdKVtDSDJdbihjKG4yKVtDSDJdW09IXSljKGMyMylbY0hdW2NIXVtjSF1bY0hdMw==

> <s_epik_cmdline>
J2VwaWtfcHl0aG9uJywgJy1waCcsICc3LjAnLCAnLXRuJywgJzgnLCAnLW1hJywgJzIwMCcsICctbWV0YWxfYmluZGluZycsICctaW1hZScsICc8aW5maWxlLm1hZT4nLCAnLW9tYWUnLCAnPG91dGZpbGUubWFlPic=

> <r_epik_Ionization_Penalty>
0.307685

> <r_epik_Ionization_Penalty_Charging>
0

> <r_epik_Ionization_Penalty_Neutral>
0.307685

> <r_epik_State_Penalty>
0.277856

> <r_epik_Charging_Adjusted_Penalty>
0.277856

> <i_epik_Tot_Q>
0

> <i_epik_Tot_abs_Q>
0

> <r_epik_Metal_State_Penalty>
0.238959

> <b_epik_Metal_Only>
0

> <s_lp_Force_Field>
OPLS_2005

> <r_lp_Energy>
32.6891

> <b_lp_Chiralities_Consistent>
1

> <s_lp_Variant>
AV-unprocessed.smi:1703-5

> <Gold.Version>
5.8.1

> <Gold.Id.Protein>
6NUR|6NUR_protein|mol2

> <Gold.PLP.Fitness>
36.8949

> <Gold.PLP.PLP>
-30.7956

> <Gold.PLP.part.hbond>
-2.8445

> <Gold.PLP.part.metal>
0.0000

> <Gold.PLP.part.buried>
-0.9087

> <Gold.PLP.part.nonpolar>
-27.2625

> <Gold.PLP.part.repulsive>
0.0456

> <Gold.PLP.ligand.clash>
0.0000

> <Gold.PLP.ligand.torsion>
1.1914

> <Gold.PLP.Chemscore.Hbond>
2.7847

> <Gold.PLP.Chemscore.CHOScore>
0.0000

> <Gold.PLP.Chemscore.Metal>
0.0000

> <Gold.Chemscore.Hbonds>
donor molecule, donor type, donor heavy atom, donor atom, acceptor molecule, acceptor atom, score
      L1  H     7    33       P1  8028  1.00
      P1  H  7989  7998       L1    12  0.64
      P1  H  7997  8009       L1    13  0.93

> <Gold.PLP.Chemscore.Internal.Correction>
0.1280

> <Gold.Rescore>
     Score         DG    S(hbond)    S(metal)    S(lipo)     H(rot)  DE(clash)    DE(int)     intcor
     12.86     -15.92       2.49        0.00      81.06       2.88       0.87       2.19       ----

> <Gold.Chemscore.Fitness>
12.8648

> <Gold.Chemscore.DG>
-15.9194

> <Gold.Chemscore.ZeroCoef>
-5.4800

> <Gold.Chemscore.Hbond>
2.4918

> <Gold.Chemscore.Metal>
0.0000

> <Gold.Chemscore.Lipo>
81.0596

> <Gold.Chemscore.Internal_Hbond>
0.0000

> <Gold.Chemscore.DEClash>
0.8696

> <Gold.Chemscore.DEInternal>
2.1851

> <Gold.Chemscore.Rot>
2.8778

> <Gold.Chemscore.Internal.Correction>
   9.000000E+99

> <Gold.Chemscore.Hbonds>
donor molecule, donor type, donor heavy atom, donor atom, acceptor molecule, acceptor atom, score
      L1  H     7    33       P1  8028  0.95
      P1  H  7989  7998       L1    12  0.22
      P1  H  7997  8009       L1    13  0.20

> <Gold.Chemscore.Hbond.Weighted>
-8.3225

> <Gold.Chemscore.Metal.Weighted>
-0.0000

> <Gold.Chemscore.Lipo.Weighted>
-9.4840

> <Gold.Chemscore.Internal_Hbond.Weighted>
0.0000

> <Gold.Chemscore.DEClash.Weighted>
0.8696

> <Gold.Chemscore.DEInternal.Weighted>
2.1851

> <Gold.Chemscore.Rot.Weighted>
7.3671

> <Gold.Chemscore.Internal.Correction.Weighted>
   9.000000E+99

> <Gold.Protein.RotatedTorsions>
[ 6907 6896 6895 6894 ] final   78.61 input  -60.11 | X-H torsion
[ 7974 7965 7964 7962 ] final -155.56 input  175.53 | X-H torsion
[ 8008 7997 7996 7995 ] final  165.08 input   59.86 | X-H torsion
[ 10167 10162 10161 10158 ] final -107.22 input  -65.29 | X-H torsion
[ 10718 10713 10712 10709 ] final   96.77 input   66.30 | X-H torsion
[ 10763 10752 10751 10750 ] final  124.78 input  -60.55 | X-H torsion
[ 11005 11000 10999 10996 ] final -167.26 input  -57.11 | X-H torsion

> <Gold.Protein.ActiveResidues>
 VAL166  LYS551  ARG553  GLY616  TRP617  ASP618  TYR619  PRO620  LYS621  CYS622 
 ASP623  PHE694  ASN695  SER759  ASP760  ASP761  ALA762  ILE779  LEU786  VAL792 
 PHE793  MET794  SER795  GLU796  ALA797  LYS798  CYS799  TRP800  GLU811  SER814 

> <Gold.Protein.RotatedAtoms>
  152.5166  134.3638  159.9293 H   0  0  0  0  0  0  0  0  0  0  0  0  # atno 6907 bound_to 6896
  151.3591  133.3890  159.2695 H   0  0  0  0  0  0  0  0  0  0  0  0  # atno 6908 bound_to 6896
  150.9666  134.9065  159.7821 H   0  0  0  0  0  0  0  0  0  0  0  0  # atno 6909 bound_to 6896
  144.7634  140.4232  143.5960 H   0  0  0  0  0  0  0  0  0  0  0  0  # atno 7974 bound_to 7965
  156.1829  140.1679  156.8240 H   0  0  0  0  0  0  0  0  0  0  0  0  # atno 8008 bound_to 7997
  154.5380  140.0742  156.8494 H   0  0  0  0  0  0  0  0  0  0  0  0  # atno 8009 bound_to 7997
  155.3271  140.3377  155.4242 H   0  0  0  0  0  0  0  0  0  0  0  0  # atno 8010 bound_to 7997
  140.1793  143.3980  152.1294 H   0  0  0  0  0  0  0  0  0  0  0  0  # atno 10167 bound_to 10162
  157.6922  131.0588  150.4543 H   0  0  0  0  0  0  0  0  0  0  0  0  # atno 10718 bound_to 10713
  153.6668  135.3337  155.3142 H   0  0  0  0  0  0  0  0  0  0  0  0  # atno 10763 bound_to 10752
  154.8501  135.4377  154.1747 H   0  0  0  0  0  0  0  0  0  0  0  0  # atno 10764 bound_to 10752
  153.2728  135.7002  153.7539 H   0  0  0  0  0  0  0  0  0  0  0  0  # atno 10765 bound_to 10752
  140.5553  134.5388  157.5131 H   0  0  0  0  0  0  0  0  0  0  0  0  # atno 11005 bound_to 11000
  145.6546  139.1571  143.2842 LP  0  0  0  0  0  0  0  0  0  0  0  0  # atno 17320 bound_to 7965
  146.1719  140.6632  142.9229 LP  0  0  0  0  0  0  0  0  0  0  0  0  # atno 17321 bound_to 7965
  139.5303  144.7151  151.5080 LP  0  0  0  0  0  0  0  0  0  0  0  0  # atno 17342 bound_to 10162
  140.6530  143.8657  150.6806 LP  0  0  0  0  0  0  0  0  0  0  0  0  # atno 17343 bound_to 10162
  156.4892  130.4091  149.6416 LP  0  0  0  0  0  0  0  0  0  0  0  0  # atno 17370 bound_to 10713
  156.3433  130.7394  151.2342 LP  0  0  0  0  0  0  0  0  0  0  0  0  # atno 17371 bound_to 10713
  139.9435  134.7744  156.0620 LP  0  0  0  0  0  0  0  0  0  0  0  0  # atno 17394 bound_to 11000
  141.1147  133.6631  156.3065 LP  0  0  0  0  0  0  0  0  0  0  0  0  # atno 17395 bound_to 11000

$$$$
