AV-unprocessed.smi:2640|AV-procd|sdf|10270|dock5
  -GOLD-   2272014283D 1   1.00000     0.00000
 Structure written by MMmdl.
 41 42  0  0  0  0  0  0  0  0  1 V2000
  144.1611  136.8948  152.4973 O   0  0  0  0  0  0  0  0  0  0  0  0
  145.3799  136.8623  152.3298 C   0  0  0  0  0  0  0  0  0  0  0  0
  146.2125  138.1269  152.5265 C   0  0  0  0  0  0  0  0  0  0  0  0
  147.4815  137.8332  153.1974 N   0  0  0  0  0  0  0  0  0  0  0  0
  148.1597  139.0639  153.5777 C   0  0  0  0  0  0  0  0  0  0  0  0
  149.5679  138.7565  154.1144 C   0  0  0  0  0  0  0  0  0  0  0  0
  150.0925  139.8336  154.9354 N   0  0  0  0  0  0  0  0  0  0  0  0
  151.2991  139.8923  155.6006 C   0  0  0  0  0  0  0  0  0  0  0  0
  151.3493  141.0946  156.2458 C   0  0  0  0  0  0  0  0  0  0  0  0
  150.1117  141.7109  155.9087 C   0  0  0  0  0  0  0  0  0  0  0  0
  149.3620  140.9538  155.1242 N   0  0  0  0  0  0  0  0  0  0  0  0
  146.0505  135.7540  151.9749 N   0  0  0  0  0  0  0  0  0  0  0  0
  145.4496  134.4456  151.7078 C   0  0  2  0  0  0  0  0  0  0  0  0
  146.5703  133.5140  151.1923 C   0  0  0  0  0  0  0  0  0  0  0  0
  146.2623  132.0172  151.3702 C   0  0  0  0  0  0  0  0  0  0  0  0
  145.0752  131.4973  150.5454 C   0  0  0  0  0  0  0  0  0  0  0  0
  143.7323  132.1507  150.9137 C   0  0  0  0  0  0  0  0  0  0  0  0
  143.5978  133.4859  150.3460 N   0  0  0  0  0  0  0  0  0  0  0  0
  144.3477  134.5622  150.6282 C   0  0  0  0  0  0  0  0  0  0  0  0
  144.1602  135.6226  150.0316 O   0  0  0  0  0  0  0  0  0  0  0  0
  146.4051  138.5862  151.5556 H   0  0  0  0  0  0  0  0  0  0  0  0
  145.6360  138.8421  153.1155 H   0  0  0  0  0  0  0  0  0  0  0  0
  148.0929  137.2889  152.6047 H   0  0  0  0  0  0  0  0  0  0  0  0
  148.2252  139.7398  152.7235 H   0  0  0  0  0  0  0  0  0  0  0  0
  147.5781  139.5719  154.3479 H   0  0  0  0  0  0  0  0  0  0  0  0
  149.5384  137.8540  154.7260 H   0  0  0  0  0  0  0  0  0  0  0  0
  150.2595  138.5529  153.2951 H   0  0  0  0  0  0  0  0  0  0  0  0
  152.0113  139.0812  155.5620 H   0  0  0  0  0  0  0  0  0  0  0  0
  152.1478  141.4758  156.8648 H   0  0  0  0  0  0  0  0  0  0  0  0
  149.7383  142.6789  156.2085 H   0  0  0  0  0  0  0  0  0  0  0  0
  147.0491  135.8300  151.8472 H   0  0  0  0  0  0  0  0  0  0  0  0
  145.0276  134.0492  152.6331 H   0  0  0  0  0  0  0  0  0  0  0  0
  146.8105  133.7292  150.1494 H   0  0  0  0  0  0  0  0  0  0  0  0
  147.4861  133.7184  151.7496 H   0  0  0  0  0  0  0  0  0  0  0  0
  147.1495  131.4456  151.0964 H   0  0  0  0  0  0  0  0  0  0  0  0
  146.0897  131.8067  152.4266 H   0  0  0  0  0  0  0  0  0  0  0  0
  145.2743  131.6200  149.4798 H   0  0  0  0  0  0  0  0  0  0  0  0
  144.9933  130.4227  150.7115 H   0  0  0  0  0  0  0  0  0  0  0  0
  142.9187  131.5480  150.5098 H   0  0  0  0  0  0  0  0  0  0  0  0
  143.5869  132.1769  151.9947 H   0  0  0  0  0  0  0  0  0  0  0  0
  142.8803  133.6004  149.6447 H   0  0  0  0  0  0  0  0  0  0  0  0
  1  2  2  0  0  0  0
  2  3  1  0  0  0  0
  2 12  1  0  0  0  0
  3  4  1  0  0  0  0
  3 21  1  0  0  0  0
  3 22  1  0  0  0  0
  4  5  1  0  0  0  0
  4 23  1  0  0  0  0
  5  6  1  0  0  0  0
  5 24  1  0  0  0  0
  5 25  1  0  0  0  0
  6  7  1  0  0  0  0
  6 26  1  0  0  0  0
  6 27  1  0  0  0  0
  7 11  1  0  0  0  0
  7  8  1  0  0  0  0
  8  9  2  0  0  0  0
  8 28  1  0  0  0  0
  9 10  1  0  0  0  0
  9 29  1  0  0  0  0
 10 11  2  0  0  0  0
 10 30  1  0  0  0  0
 12 13  1  0  0  0  0
 12 31  1  0  0  0  0
 13 19  1  0  0  0  0
 13 14  1  0  0  0  0
 13 32  1  0  0  0  0
 14 15  1  0  0  0  0
 14 33  1  0  0  0  0
 14 34  1  0  0  0  0
 15 16  1  0  0  0  0
 15 35  1  0  0  0  0
 15 36  1  0  0  0  0
 16 17  1  0  0  0  0
 16 37  1  0  0  0  0
 16 38  1  0  0  0  0
 17 18  1  0  0  0  0
 17 39  1  0  0  0  0
 17 40  1  0  0  0  0
 18 19  1  0  0  0  0
 18 41  1  0  0  0  0
 19 20  2  0  0  0  0
M  END
> <s_m_source_file>
AV-unprocessed.smi

> <i_m_source_file_index>
2640

> <i_lp_mmshare_version>
43012

> <i_f3d_flags>
0

> <s_epik_input>
Tz1DMVtOSF1bQ0gyXVtDSDJdW0NIMl1bQ0gyXVtDQEhdMVtOSF1DKD1PKVtDSDJdW05IXVtDSDJdW0NIMl1uMltjSF1bY0hdW2NIXW4y

> <s_epik_cmdline>
J2VwaWtfcHl0aG9uJywgJy1waCcsICc3LjAnLCAnLXRuJywgJzgnLCAnLW1hJywgJzIwMCcsICctbWV0YWxfYmluZGluZycsICctaW1hZScsICc8aW5maWxlLm1hZT4nLCAnLW9tYWUnLCAnPG91dGZpbGUubWFlPic=

> <r_lp_tautomer_probability>
1

> <r_epik_Ionization_Penalty>
0.641667

> <r_epik_Ionization_Penalty_Charging>
0

> <r_epik_Ionization_Penalty_Neutral>
0.641667

> <r_epik_State_Penalty>
0.657743

> <r_epik_Charging_Adjusted_Penalty>
0.657743

> <i_epik_Tot_Q>
0

> <i_epik_Tot_abs_Q>
0

> <r_epik_Metal_State_Penalty>
0.656014

> <b_epik_Metal_Only>
0

> <s_lp_Force_Field>
OPLS_2005

> <r_lp_Energy>
11.9791

> <b_lp_Chiralities_Consistent>
1

> <s_lp_Variant>
AV-unprocessed.smi:2640-3

> <Gold.Version>
5.8.1

> <Gold.Id.Protein>
6NUR|6NUR_protein|mol2

> <Gold.PLP.Fitness>
45.9002

> <Gold.PLP.PLP>
-35.5198

> <Gold.PLP.part.hbond>
-3.0000

> <Gold.PLP.part.metal>
0.0000

> <Gold.PLP.part.buried>
-3.4813

> <Gold.PLP.part.nonpolar>
-31.1669

> <Gold.PLP.part.repulsive>
1.7199

> <Gold.PLP.ligand.clash>
0.0000

> <Gold.PLP.ligand.torsion>
0.4494

> <Gold.PLP.Chemscore.Hbond>
2.7454

> <Gold.PLP.Chemscore.CHOScore>
1.0000

> <Gold.PLP.Chemscore.Metal>
0.0000

> <Gold.Chemscore.Hbonds>
donor molecule, donor type, donor heavy atom, donor atom, acceptor molecule, acceptor atom, score
      L1  H     4    23       P1  7948  1.00
      L1  H    12    31       P1  7948  1.00
      L1  H    18    41       P1 10186  0.71
      L1  C    10    30       P1  8028  1.00

> <Gold.PLP.Chemscore.Internal.Correction>
0.0429

> <Gold.Rescore>
     Score         DG    S(hbond)    S(metal)    S(lipo)     H(rot)  DE(clash)    DE(int)     intcor
     14.26     -17.13       2.84        0.00      70.53       2.37       1.54       1.33       ----

> <Gold.Chemscore.Fitness>
14.2638

> <Gold.Chemscore.DG>
-17.1275

> <Gold.Chemscore.ZeroCoef>
-5.4800

> <Gold.Chemscore.Hbond>
2.8356

> <Gold.Chemscore.Metal>
0.0000

> <Gold.Chemscore.Lipo>
70.5283

> <Gold.Chemscore.Internal_Hbond>
0.0000

> <Gold.Chemscore.DEClash>
1.5355

> <Gold.Chemscore.DEInternal>
1.3283

> <Gold.Chemscore.Rot>
2.3732

> <Gold.Chemscore.Internal.Correction>
   9.000000E+99

> <Gold.Chemscore.Hbonds>
donor molecule, donor type, donor heavy atom, donor atom, acceptor molecule, acceptor atom, score
      L1  H     4    23       P1  7948  0.94
      L1  H    12    31       P1  7948  1.00
      L1  H    18    41       P1 10186  0.67

> <Gold.Chemscore.Hbond.Weighted>
-9.4711

> <Gold.Chemscore.Metal.Weighted>
-0.0000

> <Gold.Chemscore.Lipo.Weighted>
-8.2518

> <Gold.Chemscore.Internal_Hbond.Weighted>
0.0000

> <Gold.Chemscore.DEClash.Weighted>
1.5355

> <Gold.Chemscore.DEInternal.Weighted>
1.3283

> <Gold.Chemscore.Rot.Weighted>
6.0753

> <Gold.Chemscore.Internal.Correction.Weighted>
   9.000000E+99

> <Gold.Protein.RotatedTorsions>
[ 6907 6896 6895 6894 ] final  118.48 input  -60.11 | X-H torsion
[ 7974 7965 7964 7962 ] final -131.16 input  175.53 | X-H torsion
[ 8008 7997 7996 7995 ] final  175.07 input   59.86 | X-H torsion
[ 10167 10162 10161 10158 ] final   45.59 input  -65.29 | X-H torsion
[ 10718 10713 10712 10709 ] final  132.64 input   66.30 | X-H torsion
[ 10763 10752 10751 10750 ] final  164.59 input  -60.55 | X-H torsion
[ 11005 11000 10999 10996 ] final  151.24 input  -57.11 | X-H torsion

> <Gold.Protein.ActiveResidues>
 VAL166  LYS551  ARG553  GLY616  TRP617  ASP618  TYR619  PRO620  LYS621  CYS622 
 ASP623  PHE694  ASN695  SER759  ASP760  ASP761  ALA762  ILE779  LEU786  VAL792 
 PHE793  MET794  SER795  GLU796  ALA797  LYS798  CYS799  TRP800  GLU811  SER814 

> <Gold.Protein.RotatedAtoms>
  152.4540  133.7686  159.6785 H   0  0  0  0  0  0  0  0  0  0  0  0  # atno 6907 bound_to 6896
  150.8460  133.7850  159.3049 H   0  0  0  0  0  0  0  0  0  0  0  0  # atno 6908 bound_to 6896
  151.5460  135.1071  159.9990 H   0  0  0  0  0  0  0  0  0  0  0  0  # atno 6909 bound_to 6896
  144.9406  140.7234  143.4849 H   0  0  0  0  0  0  0  0  0  0  0  0  # atno 7974 bound_to 7965
  156.0909  140.1418  156.9594 H   0  0  0  0  0  0  0  0  0  0  0  0  # atno 8008 bound_to 7997
  154.4641  140.0932  156.7020 H   0  0  0  0  0  0  0  0  0  0  0  0  # atno 8009 bound_to 7997
  155.4922  140.3448  155.4359 H   0  0  0  0  0  0  0  0  0  0  0  0  # atno 8010 bound_to 7997
  140.3226  144.2687  150.6180 H   0  0  0  0  0  0  0  0  0  0  0  0  # atno 10167 bound_to 10162
  157.4851  131.1088  150.9631 H   0  0  0  0  0  0  0  0  0  0  0  0  # atno 10718 bound_to 10713
  154.3112  135.2757  155.2565 H   0  0  0  0  0  0  0  0  0  0  0  0  # atno 10763 bound_to 10752
  154.4959  135.5821  153.6498 H   0  0  0  0  0  0  0  0  0  0  0  0  # atno 10764 bound_to 10752
  152.9888  135.6146  154.3289 H   0  0  0  0  0  0  0  0  0  0  0  0  # atno 10765 bound_to 10752
  140.1201  134.8869  157.2060 H   0  0  0  0  0  0  0  0  0  0  0  0  # atno 11005 bound_to 11000
  145.2998  139.1854  143.4696 LP  0  0  0  0  0  0  0  0  0  0  0  0  # atno 17320 bound_to 7965
  146.3284  140.2987  142.8619 LP  0  0  0  0  0  0  0  0  0  0  0  0  # atno 17321 bound_to 7965
  140.5470  143.2213  151.7991 LP  0  0  0  0  0  0  0  0  0  0  0  0  # atno 17342 bound_to 10162
  139.4871  144.4527  151.9635 LP  0  0  0  0  0  0  0  0  0  0  0  0  # atno 17343 bound_to 10162
  157.0351  130.5727  149.5348 LP  0  0  0  0  0  0  0  0  0  0  0  0  # atno 17370 bound_to 10713
  156.0142  130.5236  150.8084 LP  0  0  0  0  0  0  0  0  0  0  0  0  # atno 17371 bound_to 10713
  140.2976  134.3168  155.7298 LP  0  0  0  0  0  0  0  0  0  0  0  0  # atno 17394 bound_to 11000
  141.2150  133.7572  156.9594 LP  0  0  0  0  0  0  0  0  0  0  0  0  # atno 17395 bound_to 11000

$$$$
