AV-unprocessed.smi:137|AV-procd|sdf|1178|dock8
  -GOLD-   2262018323D 1   1.00000     0.00000
 Structure written by MMmdl.
 51 54  0  0  0  0  0  0  0  0  1 V2000
  146.3738  142.3262  153.7545 C   0  0  0  0  0  0  0  0  0  0  0  0
  146.5905  141.7723  155.1717 C   0  0  1  0  0  0  0  0  0  0  0  0
  145.5567  140.6720  155.5162 C   0  0  0  0  0  0  0  0  0  0  0  0
  146.0314  139.3004  155.3094 N   0  0  0  0  0  0  0  0  0  0  0  0
  145.9620  138.7123  154.0783 C   0  0  0  0  0  0  0  0  0  0  0  0
  146.6575  139.2826  153.0581 N   0  0  0  0  0  0  0  0  0  0  0  0
  146.6363  138.7608  151.8301 C   0  0  0  0  0  0  0  0  0  0  0  0
  145.9853  137.6831  151.3963 N   0  0  0  0  0  0  0  0  0  0  0  0
  145.2758  137.0991  152.4025 C   0  0  0  0  0  0  0  0  0  0  0  0
  145.2108  137.5365  153.7596 C   0  0  0  0  0  0  0  0  0  0  0  0
  144.4042  136.6605  154.4799 N   0  0  0  0  0  0  0  0  0  0  0  0
  144.0203  135.7691  153.6096 C   0  0  0  0  0  0  0  0  0  0  0  0
  144.4722  135.9744  152.3279 N   0  0  0  0  0  0  0  0  0  0  0  0
  144.2346  135.1340  151.1905 C   0  0  0  0  0  0  0  0  0  0  0  0
  143.7389  133.6949  151.3618 C   0  0  0  0  0  0  0  0  0  0  0  0
  144.6148  133.2363  150.1745 C   0  0  0  0  0  0  0  0  0  0  0  0
  145.4154  131.9513  150.4375 C   0  0  0  0  0  0  0  0  0  0  0  0
  146.4771  131.8067  149.5157 O   0  0  0  0  0  0  0  0  0  0  0  0
  143.8910  133.0528  148.8222 C   0  0  0  0  0  0  0  0  0  0  0  0
  143.4593  134.2708  148.2504 O   0  0  0  0  0  0  0  0  0  0  0  0
  145.3981  134.5514  150.3820 C   0  0  0  0  0  0  0  0  0  0  0  0
  146.6185  138.6142  156.4603 C   0  0  0  0  0  0  0  0  0  0  0  0
  148.1152  138.9107  156.6713 C   0  0  0  0  0  0  0  0  0  0  0  0
  148.3952  140.7062  157.0675 S   0  0  2  0  0  0  0  0  0  0  0  0
  147.2774  141.1697  158.0040 O   0  0  0  0  0  0  0  0  0  0  0  0
  148.0752  141.3920  155.3686 C   0  0  0  0  0  0  0  0  0  0  0  0
  146.6119  141.5826  152.9942 H   0  0  0  0  0  0  0  0  0  0  0  0
  147.0086  143.1941  153.5731 H   0  0  0  0  0  0  0  0  0  0  0  0
  145.3405  142.6406  153.6045 H   0  0  0  0  0  0  0  0  0  0  0  0
  146.3803  142.6022  155.8477 H   0  0  0  0  0  0  0  0  0  0  0  0
  145.2920  140.7713  156.5686 H   0  0  0  0  0  0  0  0  0  0  0  0
  144.6138  140.8508  154.9992 H   0  0  0  0  0  0  0  0  0  0  0  0
  147.2231  139.2831  151.0892 H   0  0  0  0  0  0  0  0  0  0  0  0
  143.3878  134.9365  153.8818 H   0  0  0  0  0  0  0  0  0  0  0  0
  143.5616  135.6970  150.5431 H   0  0  0  0  0  0  0  0  0  0  0  0
  144.0503  133.2632  152.3144 H   0  0  0  0  0  0  0  0  0  0  0  0
  142.6650  133.5717  151.2155 H   0  0  0  0  0  0  0  0  0  0  0  0
  145.8454  131.9592  151.4394 H   0  0  0  0  0  0  0  0  0  0  0  0
  144.7770  131.0691  150.3833 H   0  0  0  0  0  0  0  0  0  0  0  0
  147.2572  131.5649  149.9910 H   0  0  0  0  0  0  0  0  0  0  0  0
  144.5396  132.5654  148.0942 H   0  0  0  0  0  0  0  0  0  0  0  0
  143.0155  132.4130  148.9373 H   0  0  0  0  0  0  0  0  0  0  0  0
  144.2206  134.7654  147.9879 H   0  0  0  0  0  0  0  0  0  0  0  0
  145.6255  135.0971  149.4656 H   0  0  0  0  0  0  0  0  0  0  0  0
  146.2970  134.4133  150.9852 H   0  0  0  0  0  0  0  0  0  0  0  0
  146.0707  138.9025  157.3578 H   0  0  0  0  0  0  0  0  0  0  0  0
  146.4535  137.5407  156.3783 H   0  0  0  0  0  0  0  0  0  0  0  0
  148.4809  138.3207  157.5116 H   0  0  0  0  0  0  0  0  0  0  0  0
  148.7140  138.6320  155.8051 H   0  0  0  0  0  0  0  0  0  0  0  0
  148.4158  140.6838  154.6126 H   0  0  0  0  0  0  0  0  0  0  0  0
  148.6879  142.2863  155.2533 H   0  0  0  0  0  0  0  0  0  0  0  0
  1  2  1  0  0  0  0
  1 27  1  0  0  0  0
  1 28  1  0  0  0  0
  1 29  1  0  0  0  0
  2 26  1  0  0  0  0
  2  3  1  0  0  0  0
  2 30  1  0  0  0  0
  3  4  1  0  0  0  0
  3 31  1  0  0  0  0
  3 32  1  0  0  0  0
  4  5  1  0  0  0  0
  4 22  1  0  0  0  0
  5 10  1  0  0  0  0
  5  6  2  0  0  0  0
  6  7  1  0  0  0  0
  7  8  2  0  0  0  0
  7 33  1  0  0  0  0
  8  9  1  0  0  0  0
  9 13  1  0  0  0  0
  9 10  2  0  0  0  0
 10 11  1  0  0  0  0
 11 12  2  0  0  0  0
 12 13  1  0  0  0  0
 12 34  1  0  0  0  0
 13 14  1  0  0  0  0
 14 21  1  0  0  0  0
 14 15  1  0  0  0  0
 14 35  1  0  0  0  0
 15 16  1  0  0  0  0
 15 36  1  0  0  0  0
 15 37  1  0  0  0  0
 16 17  1  0  0  0  0
 16 19  1  0  0  0  0
 16 21  1  0  0  0  0
 17 18  1  0  0  0  0
 17 38  1  0  0  0  0
 17 39  1  0  0  0  0
 18 40  1  0  0  0  0
 19 20  1  0  0  0  0
 19 41  1  0  0  0  0
 19 42  1  0  0  0  0
 20 43  1  0  0  0  0
 21 44  1  0  0  0  0
 21 45  1  0  0  0  0
 22 23  1  0  0  0  0
 22 46  1  0  0  0  0
 22 47  1  0  0  0  0
 23 24  1  0  0  0  0
 23 48  1  0  0  0  0
 23 49  1  0  0  0  0
 24 25  2  0  0  0  0
 24 26  1  0  0  0  0
 26 50  1  0  0  0  0
 26 51  1  0  0  0  0
M  END
> <s_m_source_file>
AV-unprocessed.smi

> <i_m_source_file_index>
137

> <i_lp_mmshare_version>
43012

> <i_f3d_flags>
0

> <s_epik_input>
Tz1bU0BAXShbQ0gyXTEpW0NIMl1bQ0gyXU4oW0NIMl1bQ0BIXTFbQ0gzXSljKG5bY0hdbjIpYyhjMjMpbltjSF1uM1tDSF0oW0NIMl00KVtDSDJdQzQoW0NIMl1bT0hdKVtDSDJdW09IXQ==

> <s_epik_cmdline>
J2VwaWtfcHl0aG9uJywgJy1waCcsICc3LjAnLCAnLXRuJywgJzgnLCAnLW1hJywgJzIwMCcsICctbWV0YWxfYmluZGluZycsICctaW1hZScsICc8aW5maWxlLm1hZT4nLCAnLW9tYWUnLCAnPG91dGZpbGUubWFlPic=

> <r_lp_tautomer_probability>
1

> <r_epik_Ionization_Penalty>
0.000811024

> <r_epik_Ionization_Penalty_Charging>
0

> <r_epik_Ionization_Penalty_Neutral>
0.000811024

> <r_epik_State_Penalty>
0.000429598

> <r_epik_Charging_Adjusted_Penalty>
0.000429598

> <i_epik_Tot_Q>
0

> <i_epik_Tot_abs_Q>
0

> <r_epik_Metal_State_Penalty>
-0

> <b_epik_Metal_Only>
0

> <s_lp_Force_Field>
OPLS_2005

> <r_lp_Energy>
44.8713

> <b_lp_Chiralities_Consistent>
1

> <s_lp_Variant>
AV-unprocessed.smi:137-4

> <Gold.Version>
5.8.1

> <Gold.Id.Protein>
6NUR|6NUR_protein|mol2

> <Gold.PLP.Fitness>
46.6437

> <Gold.PLP.PLP>
-38.0232

> <Gold.PLP.part.hbond>
-4.5537

> <Gold.PLP.part.metal>
0.0000

> <Gold.PLP.part.buried>
-5.7552

> <Gold.PLP.part.nonpolar>
-30.3224

> <Gold.PLP.part.repulsive>
2.2626

> <Gold.PLP.ligand.clash>
0.0000

> <Gold.PLP.ligand.torsion>
1.8678

> <Gold.PLP.Chemscore.Hbond>
2.9750

> <Gold.PLP.Chemscore.CHOScore>
1.0000

> <Gold.PLP.Chemscore.Metal>
0.0000

> <Gold.Chemscore.Hbonds>
donor molecule, donor type, donor heavy atom, donor atom, acceptor molecule, acceptor atom, score
      L1  H    18    40       P1 10747  1.00
      L1  H    20    43       P1  7921  0.99
      P1  H 10192 10197       L1    20  1.00
      L1  C     7    33       P1  7957  1.00

> <Gold.PLP.Chemscore.Internal.Correction>
0.4312

> <Gold.Rescore>
     Score         DG    S(hbond)    S(metal)    S(lipo)     H(rot)  DE(clash)    DE(int)     intcor
     11.34     -15.66       2.75        0.00      71.26       2.87       2.34       1.98       ----

> <Gold.Chemscore.Fitness>
11.3404

> <Gold.Chemscore.DG>
-15.6594

> <Gold.Chemscore.ZeroCoef>
-5.4800

> <Gold.Chemscore.Hbond>
2.7531

> <Gold.Chemscore.Metal>
0.0000

> <Gold.Chemscore.Lipo>
71.2617

> <Gold.Chemscore.Internal_Hbond>
0.0000

> <Gold.Chemscore.DEClash>
2.3413

> <Gold.Chemscore.DEInternal>
1.9777

> <Gold.Chemscore.Rot>
2.8725

> <Gold.Chemscore.Internal.Correction>
   9.000000E+99

> <Gold.Chemscore.Hbonds>
donor molecule, donor type, donor heavy atom, donor atom, acceptor molecule, acceptor atom, score
      L1  H    18    40       P1 10747  0.99
      L1  H    20    43       P1  7921  0.93
      P1  H 10192 10197       L1    20  0.28

> <Gold.Chemscore.Hbond.Weighted>
-9.1953

> <Gold.Chemscore.Metal.Weighted>
-0.0000

> <Gold.Chemscore.Lipo.Weighted>
-8.3376

> <Gold.Chemscore.Internal_Hbond.Weighted>
0.0000

> <Gold.Chemscore.DEClash.Weighted>
2.3413

> <Gold.Chemscore.DEInternal.Weighted>
1.9777

> <Gold.Chemscore.Rot.Weighted>
7.3535

> <Gold.Chemscore.Internal.Correction.Weighted>
   9.000000E+99

> <Gold.Protein.RotatedTorsions>
[ 6907 6896 6895 6894 ] final   66.89 input  -60.11 | X-H torsion
[ 7974 7965 7964 7962 ] final -122.57 input  175.53 | X-H torsion
[ 8008 7997 7996 7995 ] final  -26.28 input   59.86 | X-H torsion
[ 10167 10162 10161 10158 ] final   67.42 input  -65.29 | X-H torsion
[ 10718 10713 10712 10709 ] final   11.35 input   66.30 | X-H torsion
[ 10763 10752 10751 10750 ] final   82.13 input  -60.55 | X-H torsion
[ 11005 11000 10999 10996 ] final -167.54 input  -57.11 | X-H torsion

> <Gold.Protein.ActiveResidues>
 VAL166  LYS551  ARG553  GLY616  TRP617  ASP618  TYR619  PRO620  LYS621  CYS622 
 ASP623  PHE694  ASN695  SER759  ASP760  ASP761  ALA762  ILE779  LEU786  VAL792 
 PHE793  MET794  SER795  GLU796  ALA797  LYS798  CYS799  TRP800  GLU811  SER814 

> <Gold.Protein.RotatedAtoms>
  152.4513  134.5387  159.9832 H   0  0  0  0  0  0  0  0  0  0  0  0  # atno 6907 bound_to 6896
  151.5459  133.3419  159.2952 H   0  0  0  0  0  0  0  0  0  0  0  0  # atno 6908 bound_to 6896
  150.8443  134.7778  159.7021 H   0  0  0  0  0  0  0  0  0  0  0  0  # atno 6909 bound_to 6896
  145.0280  140.8044  143.4341 H   0  0  0  0  0  0  0  0  0  0  0  0  # atno 7974 bound_to 7965
  154.4433  140.1903  156.0751 H   0  0  0  0  0  0  0  0  0  0  0  0  # atno 8008 bound_to 7997
  156.0482  140.3312  155.7293 H   0  0  0  0  0  0  0  0  0  0  0  0  # atno 8009 bound_to 7997
  155.5598  140.0602  157.2822 H   0  0  0  0  0  0  0  0  0  0  0  0  # atno 8010 bound_to 7997
  140.0897  144.4998  150.7107 H   0  0  0  0  0  0  0  0  0  0  0  0  # atno 10167 bound_to 10162
  156.9944  130.6055  149.5689 H   0  0  0  0  0  0  0  0  0  0  0  0  # atno 10718 bound_to 10713
  153.1176  135.4740  154.9141 H   0  0  0  0  0  0  0  0  0  0  0  0  # atno 10763 bound_to 10752
  154.7544  135.3114  154.8500 H   0  0  0  0  0  0  0  0  0  0  0  0  # atno 10764 bound_to 10752
  153.9073  135.6869  153.4806 H   0  0  0  0  0  0  0  0  0  0  0  0  # atno 10765 bound_to 10752
  140.5521  134.5418  157.5125 H   0  0  0  0  0  0  0  0  0  0  0  0  # atno 11005 bound_to 11000
  145.1808  139.2353  143.5293 LP  0  0  0  0  0  0  0  0  0  0  0  0  # atno 17320 bound_to 7965
  146.3495  140.1581  142.8591 LP  0  0  0  0  0  0  0  0  0  0  0  0  # atno 17321 bound_to 7965
  140.7035  143.2451  151.4796 LP  0  0  0  0  0  0  0  0  0  0  0  0  # atno 17342 bound_to 10162
  139.5731  144.1881  152.1865 LP  0  0  0  0  0  0  0  0  0  0  0  0  # atno 17343 bound_to 10162
  156.0195  130.5290  150.8233 LP  0  0  0  0  0  0  0  0  0  0  0  0  # atno 17370 bound_to 10713
  157.5436  131.0941  150.9794 LP  0  0  0  0  0  0  0  0  0  0  0  0  # atno 17371 bound_to 10713
  139.9450  134.7718  156.0584 LP  0  0  0  0  0  0  0  0  0  0  0  0  # atno 17394 bound_to 11000
  141.1165  133.6626  156.3108 LP  0  0  0  0  0  0  0  0  0  0  0  0  # atno 17395 bound_to 11000

$$$$
