AV-unprocessed.smi:261|AV-procd|sdf|1998|dock2
  -GOLD-   2262021193D 1   1.00000     0.00000
 Structure written by MMmdl.
 51 54  0  0  0  0  0  0  0  0  1 V2000
  151.7644  127.0011  155.0436 C   0  0  0  0  0  0  0  0  0  0  0  0
  152.2135  127.6410  156.2274 O   0  0  0  0  0  0  0  0  0  0  0  0
  152.9336  128.8455  155.9948 C   0  0  2  0  0  0  0  0  0  0  0  0
  153.3434  129.5344  157.3039 C   0  0  0  0  0  0  0  0  0  0  0  0
  152.1114  130.3497  157.7278 C   0  0  2  0  0  0  0  0  0  0  0  0
  151.1866  129.5413  158.6635 C   0  0  0  0  0  0  0  0  0  0  0  0
  150.6931  128.3745  158.2352 N   0  0  0  0  0  0  0  0  0  0  0  0
  150.9104  129.9848  159.7759 O   0  0  0  0  0  0  0  0  0  0  0  0
  151.5077  130.7116  156.4447 N   0  0  0  0  0  0  0  0  0  0  0  0
  150.6238  131.7292  156.2462 C   0  0  0  0  0  0  0  0  0  0  0  0
  150.4706  132.6383  157.2454 N   0  0  0  0  0  0  0  0  0  0  0  0
  149.6257  133.6636  157.1151 C   0  0  0  0  0  0  0  0  0  0  0  0
  148.8433  133.9710  156.0812 N   0  0  0  0  0  0  0  0  0  0  0  0
  148.9867  133.0691  155.0691 C   0  0  0  0  0  0  0  0  0  0  0  0
  149.8408  131.9271  155.0673 C   0  0  0  0  0  0  0  0  0  0  0  0
  149.6967  131.2510  153.8606 N   0  0  0  0  0  0  0  0  0  0  0  0
  148.8194  131.9476  153.1940 C   0  0  0  0  0  0  0  0  0  0  0  0
  148.3485  133.0666  153.8400 N   0  0  0  0  0  0  0  0  0  0  0  0
  147.3752  134.0276  153.3389 C   0  0  0  0  0  0  0  0  0  0  0  0
  145.9604  133.4368  153.1237 C   0  0  1  0  0  0  0  0  0  0  0  0
  145.0385  134.2081  153.8691 O   0  0  0  0  0  0  0  0  0  0  0  0
  145.4880  133.4278  151.6551 C   0  0  1  0  0  0  0  0  0  0  0  0
  146.2087  132.4149  150.7617 C   0  0  0  0  0  0  0  0  0  0  0  0
  145.2184  132.1610  149.6379 C   0  0  0  0  0  0  0  0  0  0  0  0
  143.8814  132.6241  150.2192 C   0  0  0  0  0  0  0  0  0  0  0  0
  144.1583  132.9338  151.5779 O   0  0  0  0  0  0  0  0  0  0  0  0
  151.9759  129.8579  155.3567 C   0  0  0  0  0  0  0  0  0  0  0  0
  153.7869  128.6556  155.3416 H   0  0  0  0  0  0  0  0  0  0  0  0
  152.4561  131.2366  158.2587 H   0  0  0  0  0  0  0  0  0  0  0  0
  151.2173  126.0959  155.3068 H   0  0  0  0  0  0  0  0  0  0  0  0
  152.5923  126.7119  154.3967 H   0  0  0  0  0  0  0  0  0  0  0  0
  151.0899  127.6464  154.4798 H   0  0  0  0  0  0  0  0  0  0  0  0
  153.6980  128.8451  158.0705 H   0  0  0  0  0  0  0  0  0  0  0  0
  154.1655  130.2213  157.0985 H   0  0  0  0  0  0  0  0  0  0  0  0
  150.0805  127.8390  158.8330 H   0  0  0  0  0  0  0  0  0  0  0  0
  150.9282  128.0376  157.3131 H   0  0  0  0  0  0  0  0  0  0  0  0
  149.5712  134.3348  157.9594 H   0  0  0  0  0  0  0  0  0  0  0  0
  148.4947  131.6564  152.2070 H   0  0  0  0  0  0  0  0  0  0  0  0
  147.3360  134.8708  154.0290 H   0  0  0  0  0  0  0  0  0  0  0  0
  147.7516  134.4310  152.3980 H   0  0  0  0  0  0  0  0  0  0  0  0
  145.9457  132.4179  153.5120 H   0  0  0  0  0  0  0  0  0  0  0  0
  144.3886  133.6285  154.2361 H   0  0  0  0  0  0  0  0  0  0  0  0
  145.5372  134.4253  151.2133 H   0  0  0  0  0  0  0  0  0  0  0  0
  147.1722  132.7666  150.3961 H   0  0  0  0  0  0  0  0  0  0  0  0
  146.3793  131.4881  151.3115 H   0  0  0  0  0  0  0  0  0  0  0  0
  145.4698  132.7445  148.7514 H   0  0  0  0  0  0  0  0  0  0  0  0
  145.2008  131.1079  149.3555 H   0  0  0  0  0  0  0  0  0  0  0  0
  143.5289  133.5210  149.7079 H   0  0  0  0  0  0  0  0  0  0  0  0
  143.1058  131.8615  150.1453 H   0  0  0  0  0  0  0  0  0  0  0  0
  152.5108  130.4740  154.6324 H   0  0  0  0  0  0  0  0  0  0  0  0
  151.1518  129.3649  154.8385 H   0  0  0  0  0  0  0  0  0  0  0  0
  1  2  1  0  0  0  0
  1 30  1  0  0  0  0
  1 31  1  0  0  0  0
  1 32  1  0  0  0  0
  2  3  1  0  0  0  0
  3 28  1  0  0  0  0
  3 27  1  0  0  0  0
  3  4  1  0  0  0  0
  4  5  1  0  0  0  0
  4 33  1  0  0  0  0
  4 34  1  0  0  0  0
  5 29  1  0  0  0  0
  5  6  1  0  0  0  0
  5  9  1  0  0  0  0
  6  7  1  0  0  0  0
  6  8  2  0  0  0  0
  7 35  1  0  0  0  0
  7 36  1  0  0  0  0
  9 10  1  0  0  0  0
  9 27  1  0  0  0  0
 10 15  1  0  0  0  0
 10 11  2  0  0  0  0
 11 12  1  0  0  0  0
 12 13  2  0  0  0  0
 12 37  1  0  0  0  0
 13 14  1  0  0  0  0
 14 18  1  0  0  0  0
 14 15  2  0  0  0  0
 15 16  1  0  0  0  0
 16 17  2  0  0  0  0
 17 18  1  0  0  0  0
 17 38  1  0  0  0  0
 18 19  1  0  0  0  0
 19 20  1  0  0  0  0
 19 39  1  0  0  0  0
 19 40  1  0  0  0  0
 20 21  1  0  0  0  0
 20 22  1  0  0  0  0
 20 41  1  0  0  0  0
 21 42  1  0  0  0  0
 22 26  1  0  0  0  0
 22 23  1  0  0  0  0
 22 43  1  0  0  0  0
 23 24  1  0  0  0  0
 23 44  1  0  0  0  0
 23 45  1  0  0  0  0
 24 25  1  0  0  0  0
 24 46  1  0  0  0  0
 24 47  1  0  0  0  0
 25 26  1  0  0  0  0
 25 48  1  0  0  0  0
 25 49  1  0  0  0  0
 27 50  1  0  0  0  0
 27 51  1  0  0  0  0
M  END
> <s_m_source_file>
AV-unprocessed.smi

> <i_m_source_file_index>
261

> <i_lp_mmshare_version>
43012

> <i_f3d_flags>
0

> <s_epik_input>
W0NIM11PW0NASF0xW0NIMl1bQ0BASF0oQyg9TylbTkgyXSlOKFtDSDJdMSljKG5bY0hdbjIpYyhjMjMpbltjSF1uM1tDSDJdW0NASF0oW09IXSlbQ0BASF00W0NIMl1bQ0gyXVtDSDJdTzQ=

> <s_epik_cmdline>
J2VwaWtfcHl0aG9uJywgJy1waCcsICc3LjAnLCAnLXRuJywgJzgnLCAnLW1hJywgJzIwMCcsICctbWV0YWxfYmluZGluZycsICctaW1hZScsICc8aW5maWxlLm1hZT4nLCAnLW9tYWUnLCAnPG91dGZpbGUubWFlPic=

> <r_lp_tautomer_probability>
1

> <r_epik_Ionization_Penalty>
0.000713824

> <r_epik_Ionization_Penalty_Charging>
0

> <r_epik_Ionization_Penalty_Neutral>
0.000713824

> <r_epik_State_Penalty>
0.000402132

> <r_epik_Charging_Adjusted_Penalty>
0.000402132

> <i_epik_Tot_Q>
0

> <i_epik_Tot_abs_Q>
0

> <r_epik_Metal_State_Penalty>
-0

> <b_epik_Metal_Only>
0

> <s_lp_Force_Field>
OPLS_2005

> <r_lp_Energy>
45.1221

> <b_lp_Chiralities_Consistent>
1

> <s_lp_Variant>
AV-unprocessed.smi:261-16

> <Gold.Version>
5.8.1

> <Gold.Id.Protein>
6NUR|6NUR_protein|mol2

> <Gold.PLP.Fitness>
39.5667

> <Gold.PLP.PLP>
-32.2831

> <Gold.PLP.part.hbond>
-2.0000

> <Gold.PLP.part.metal>
0.0000

> <Gold.PLP.part.buried>
-2.7591

> <Gold.PLP.part.nonpolar>
-27.6272

> <Gold.PLP.part.repulsive>
0.2417

> <Gold.PLP.ligand.clash>
0.0000

> <Gold.PLP.ligand.torsion>
0.9349

> <Gold.PLP.Chemscore.Hbond>
2.0000

> <Gold.PLP.Chemscore.CHOScore>
1.0000

> <Gold.PLP.Chemscore.Metal>
0.0000

> <Gold.Chemscore.Hbonds>
donor molecule, donor type, donor heavy atom, donor atom, acceptor molecule, acceptor atom, score
      P1  H  6896  6908       L1    11  0.23
      L1  C    17    38       P1 10747  1.00

> <Gold.PLP.Chemscore.Internal.Correction>
0.1535

> <Gold.Rescore>
     Score         DG    S(hbond)    S(metal)    S(lipo)     H(rot)  DE(clash)    DE(int)     intcor
     10.32     -11.91       1.92        0.00      69.82       3.18       0.03       1.57       ----

> <Gold.Chemscore.Fitness>
10.3160

> <Gold.Chemscore.DG>
-11.9148

> <Gold.Chemscore.ZeroCoef>
-5.4800

> <Gold.Chemscore.Hbond>
1.9206

> <Gold.Chemscore.Metal>
0.0000

> <Gold.Chemscore.Lipo>
69.8178

> <Gold.Chemscore.Internal_Hbond>
0.0000

> <Gold.Chemscore.DEClash>
0.0330

> <Gold.Chemscore.DEInternal>
1.5658

> <Gold.Chemscore.Rot>
3.1831

> <Gold.Chemscore.Internal.Correction>
   9.000000E+99

> <Gold.Chemscore.Hbonds>
donor molecule, donor type, donor heavy atom, donor atom, acceptor molecule, acceptor atom, score
      P1  H  6896  6908       L1    11  0.01

> <Gold.Chemscore.Hbond.Weighted>
-6.4148

> <Gold.Chemscore.Metal.Weighted>
-0.0000

> <Gold.Chemscore.Lipo.Weighted>
-8.1687

> <Gold.Chemscore.Internal_Hbond.Weighted>
0.0000

> <Gold.Chemscore.DEClash.Weighted>
0.0330

> <Gold.Chemscore.DEInternal.Weighted>
1.5658

> <Gold.Chemscore.Rot.Weighted>
8.1486

> <Gold.Chemscore.Internal.Correction.Weighted>
   9.000000E+99

> <Gold.Protein.RotatedTorsions>
[ 6907 6896 6895 6894 ] final   92.69 input  -60.11 | X-H torsion
[ 7974 7965 7964 7962 ] final -131.27 input  175.53 | X-H torsion
[ 8008 7997 7996 7995 ] final   15.50 input   59.86 | X-H torsion
[ 10167 10162 10161 10158 ] final  -17.49 input  -65.29 | X-H torsion
[ 10718 10713 10712 10709 ] final -145.27 input   66.30 | X-H torsion
[ 10763 10752 10751 10750 ] final  161.65 input  -60.55 | X-H torsion
[ 11005 11000 10999 10996 ] final  -40.51 input  -57.11 | X-H torsion

> <Gold.Protein.ActiveResidues>
 VAL166  LYS551  ARG553  GLY616  TRP617  ASP618  TYR619  PRO620  LYS621  CYS622 
 ASP623  PHE694  ASN695  SER759  ASP760  ASP761  ALA762  ILE779  LEU786  VAL792 
 PHE793  MET794  SER795  GLU796  ALA797  LYS798  CYS799  TRP800  GLU811  SER814 

> <Gold.Protein.RotatedAtoms>
  152.5453  134.1464  159.8499 H   0  0  0  0  0  0  0  0  0  0  0  0  # atno 6907 bound_to 6896
  151.1495  133.4910  159.2603 H   0  0  0  0  0  0  0  0  0  0  0  0  # atno 6908 bound_to 6896
  151.1488  135.0227  159.8713 H   0  0  0  0  0  0  0  0  0  0  0  0  # atno 6909 bound_to 6896
  144.9396  140.7223  143.4855 H   0  0  0  0  0  0  0  0  0  0  0  0  # atno 7974 bound_to 7965
  154.8635  140.2948  155.5525 H   0  0  0  0  0  0  0  0  0  0  0  0  # atno 8008 bound_to 7997
  156.3020  140.2473  156.3545 H   0  0  0  0  0  0  0  0  0  0  0  0  # atno 8009 bound_to 7997
  154.8893  140.0395  157.1818 H   0  0  0  0  0  0  0  0  0  0  0  0  # atno 8010 bound_to 7997
  140.7248  143.5010  150.9869 H   0  0  0  0  0  0  0  0  0  0  0  0  # atno 10167 bound_to 10162
  156.3804  130.7834  151.2025 H   0  0  0  0  0  0  0  0  0  0  0  0  # atno 10718 bound_to 10713
  154.2663  135.2767  155.2757 H   0  0  0  0  0  0  0  0  0  0  0  0  # atno 10763 bound_to 10752
  154.5341  135.5721  153.6787 H   0  0  0  0  0  0  0  0  0  0  0  0  # atno 10764 bound_to 10752
  152.9953  135.6235  154.2815 H   0  0  0  0  0  0  0  0  0  0  0  0  # atno 10765 bound_to 10752
  141.0180  133.6876  156.2332 H   0  0  0  0  0  0  0  0  0  0  0  0  # atno 11005 bound_to 11000
  145.3013  139.1849  143.4688 LP  0  0  0  0  0  0  0  0  0  0  0  0  # atno 17320 bound_to 7965
  146.3280  140.3004  142.8620 LP  0  0  0  0  0  0  0  0  0  0  0  0  # atno 17321 bound_to 7965
  139.8720  143.7181  152.3165 LP  0  0  0  0  0  0  0  0  0  0  0  0  # atno 17342 bound_to 10162
  139.7433  144.7554  151.0619 LP  0  0  0  0  0  0  0  0  0  0  0  0  # atno 17343 bound_to 10162
  157.7492  131.0346  150.4324 LP  0  0  0  0  0  0  0  0  0  0  0  0  # atno 17370 bound_to 10713
  156.4567  130.4023  149.6602 LP  0  0  0  0  0  0  0  0  0  0  0  0  # atno 17371 bound_to 10713
  140.6621  134.4956  157.5584 LP  0  0  0  0  0  0  0  0  0  0  0  0  # atno 17394 bound_to 11000
  139.9129  134.8307  156.1467 LP  0  0  0  0  0  0  0  0  0  0  0  0  # atno 17395 bound_to 11000

$$$$
