AV-unprocessed.smi:193|AV-procd|sdf|1501|dock4
  -GOLD-   2262019333D 1   1.00000     0.00000
 Structure written by MMmdl.
 62 66  0  0  0  0  0  0  0  0  2 V2000
  146.4359  128.4871  154.5787 C   0  0  0  0  0  0  0  0  0  0  0  0
  147.1564  129.8118  154.2841 C   0  0  1  0  0  0  0  0  0  0  0  0
  148.5908  129.7456  154.8563 C   0  0  0  0  0  0  0  0  0  0  0  0
  149.2850  131.0326  154.8721 N   0  0  0  0  0  0  0  0  0  0  0  0
  149.2291  131.7884  156.0015 C   0  0  0  0  0  0  0  0  0  0  0  0
  149.5855  133.0997  155.9479 N   0  0  0  0  0  0  0  0  0  0  0  0
  149.5605  133.8541  157.0502 C   0  0  0  0  0  0  0  0  0  0  0  0
  149.2172  133.5055  158.2908 N   0  0  0  0  0  0  0  0  0  0  0  0
  148.8505  132.1939  158.3528 C   0  0  0  0  0  0  0  0  0  0  0  0
  148.8239  131.2735  157.2664 C   0  0  0  0  0  0  0  0  0  0  0  0
  148.3758  130.0347  157.7110 N   0  0  0  0  0  0  0  0  0  0  0  0
  148.1600  130.2099  158.9858 C   0  0  0  0  0  0  0  0  0  0  0  0
  148.4323  131.4737  159.4582 N   0  0  0  0  0  0  0  0  0  0  0  0
  148.2904  131.9413  160.8286 C   0  0  0  0  0  0  0  0  0  0  0  0
  146.9967  132.7542  161.0856 C   0  0  0  0  0  0  0  0  0  0  0  0
  146.8696  133.7088  160.0461 O   0  0  0  0  0  0  0  0  0  0  0  0
  145.7650  131.8270  161.0471 C   0  0  0  0  0  0  0  0  0  0  0  0
  144.4763  132.5546  161.4693 C   0  0  0  0  0  0  0  0  0  0  0  0
  144.6456  133.1340  162.7571 O   0  0  0  0  0  0  0  0  0  0  0  0
  145.6614  134.1290  162.7822 C   0  0  0  0  0  0  0  0  0  0  0  0
  147.0250  133.5053  162.4353 C   0  0  0  0  0  0  0  0  0  0  0  0
  149.4192  131.7566  153.6100 C   0  0  0  0  0  0  0  0  0  0  0  0
  148.0892  132.4036  153.1812 C   0  0  0  0  0  0  0  0  0  0  0  0
  147.2088  131.5208  152.3710 N   0  3  2  0  0  0  0  0  0  0  0  0
  145.8495  132.0939  152.2232 C   0  0  1  0  0  0  0  0  0  0  0  0
  145.8295  133.4878  151.6372 C   0  0  0  0  0  0  0  0  0  0  0  0
  145.3887  132.3120  150.7928 C   0  0  1  0  0  0  0  0  0  0  0  0
  146.1993  131.8965  149.5784 C   0  0  0  0  0  0  0  0  0  0  0  0
  147.1678  130.0835  152.7608 C   0  0  0  0  0  0  0  0  0  0  0  0
  146.9367  127.6461  154.0977 H   0  0  0  0  0  0  0  0  0  0  0  0
  145.4053  128.5097  154.2229 H   0  0  0  0  0  0  0  0  0  0  0  0
  146.4043  128.2867  155.6501 H   0  0  0  0  0  0  0  0  0  0  0  0
  146.5882  130.5922  154.7917 H   0  0  0  0  0  0  0  0  0  0  0  0
  148.5724  129.3341  155.8668 H   0  0  0  0  0  0  0  0  0  0  0  0
  149.1892  129.0437  154.2746 H   0  0  0  0  0  0  0  0  0  0  0  0
  149.8610  134.8833  156.9201 H   0  0  0  0  0  0  0  0  0  0  0  0
  147.8020  129.4146  159.6235 H   0  0  0  0  0  0  0  0  0  0  0  0
  148.3337  131.0767  161.4924 H   0  0  0  0  0  0  0  0  0  0  0  0
  149.1652  132.5477  161.0669 H   0  0  0  0  0  0  0  0  0  0  0  0
  146.1187  133.4821  159.5190 H   0  0  0  0  0  0  0  0  0  0  0  0
  145.6418  131.3948  160.0532 H   0  0  0  0  0  0  0  0  0  0  0  0
  145.9238  130.9879  161.7260 H   0  0  0  0  0  0  0  0  0  0  0  0
  144.2009  133.3225  160.7447 H   0  0  0  0  0  0  0  0  0  0  0  0
  143.6465  131.8488  161.5098 H   0  0  0  0  0  0  0  0  0  0  0  0
  145.4122  134.9368  162.0925 H   0  0  0  0  0  0  0  0  0  0  0  0
  145.6969  134.5678  163.7795 H   0  0  0  0  0  0  0  0  0  0  0  0
  147.2989  132.8081  163.2281 H   0  0  0  0  0  0  0  0  0  0  0  0
  147.7893  134.2834  162.4330 H   0  0  0  0  0  0  0  0  0  0  0  0
  150.1708  132.5375  153.7109 H   0  0  0  0  0  0  0  0  0  0  0  0
  149.7992  131.0908  152.8346 H   0  0  0  0  0  0  0  0  0  0  0  0
  147.5494  132.7851  154.0495 H   0  0  0  0  0  0  0  0  0  0  0  0
  148.3147  133.2766  152.5686 H   0  0  0  0  0  0  0  0  0  0  0  0
  145.1345  131.8228  152.9984 H   0  0  0  0  0  0  0  0  0  0  0  0
  145.0542  134.1673  151.9846 H   0  0  0  0  0  0  0  0  0  0  0  0
  146.7784  133.9591  151.3874 H   0  0  0  0  0  0  0  0  0  0  0  0
  144.3156  132.2196  150.6364 H   0  0  0  0  0  0  0  0  0  0  0  0
  147.2629  132.0863  149.7243 H   0  0  0  0  0  0  0  0  0  0  0  0
  145.8709  132.4592  148.7043 H   0  0  0  0  0  0  0  0  0  0  0  0
  146.0567  130.8349  149.3763 H   0  0  0  0  0  0  0  0  0  0  0  0
  148.0168  129.5760  152.3019 H   0  0  0  0  0  0  0  0  0  0  0  0
  146.2909  129.6315  152.2947 H   0  0  0  0  0  0  0  0  0  0  0  0
  147.6022  131.5239  151.4409 H   0  0  0  0  0  0  0  0  0  0  0  0
  1  2  1  0  0  0  0
  1 30  1  0  0  0  0
  1 31  1  0  0  0  0
  1 32  1  0  0  0  0
  2 29  1  0  0  0  0
  2  3  1  0  0  0  0
  2 33  1  0  0  0  0
  3  4  1  0  0  0  0
  3 34  1  0  0  0  0
  3 35  1  0  0  0  0
  4  5  1  0  0  0  0
  4 22  1  0  0  0  0
  5 10  1  0  0  0  0
  5  6  2  0  0  0  0
  6  7  1  0  0  0  0
  7  8  2  0  0  0  0
  7 36  1  0  0  0  0
  8  9  1  0  0  0  0
  9 13  1  0  0  0  0
  9 10  2  0  0  0  0
 10 11  1  0  0  0  0
 11 12  2  0  0  0  0
 12 13  1  0  0  0  0
 12 37  1  0  0  0  0
 13 14  1  0  0  0  0
 14 15  1  0  0  0  0
 14 38  1  0  0  0  0
 14 39  1  0  0  0  0
 15 21  1  0  0  0  0
 15 16  1  0  0  0  0
 15 17  1  0  0  0  0
 16 40  1  0  0  0  0
 17 18  1  0  0  0  0
 17 41  1  0  0  0  0
 17 42  1  0  0  0  0
 18 19  1  0  0  0  0
 18 43  1  0  0  0  0
 18 44  1  0  0  0  0
 19 20  1  0  0  0  0
 20 21  1  0  0  0  0
 20 45  1  0  0  0  0
 20 46  1  0  0  0  0
 21 47  1  0  0  0  0
 21 48  1  0  0  0  0
 22 23  1  0  0  0  0
 22 49  1  0  0  0  0
 22 50  1  0  0  0  0
 23 24  1  0  0  0  0
 23 51  1  0  0  0  0
 23 52  1  0  0  0  0
 24 25  1  0  0  0  0
 24 29  1  0  0  0  0
 24 62  1  0  0  0  0
 25 27  1  0  0  0  0
 25 26  1  0  0  0  0
 25 53  1  0  0  0  0
 26 27  1  0  0  0  0
 26 54  1  0  0  0  0
 26 55  1  0  0  0  0
 27 28  1  0  0  0  0
 27 56  1  0  0  0  0
 28 57  1  0  0  0  0
 28 58  1  0  0  0  0
 28 59  1  0  0  0  0
 29 60  1  0  0  0  0
 29 61  1  0  0  0  0
M  CHG  1  24   1
M  END
> <s_m_source_file>
AV-unprocessed.smi

> <i_m_source_file_index>
193

> <i_lp_mmshare_version>
43012

> <i_f3d_flags>
0

> <s_epik_input>
W0NIM11bQ0BASF0xW0NIMl1bQ0BIXTFOKFtDSDJdMilbQ0gyXVtDSDJdTihbQ0gyXVtDQEhdMltDSDNdKWMobltjSF1uMyljKGMzNCluW2NIXW40W0NIMl1DNShbT0hdKVtDSDJdW0NIMl1PW0NIMl1bQ0gyXTU=

> <s_epik_cmdline>
J2VwaWtfcHl0aG9uJywgJy1waCcsICc3LjAnLCAnLXRuJywgJzgnLCAnLW1hJywgJzIwMCcsICctbWV0YWxfYmluZGluZycsICctaW1hZScsICc8aW5maWxlLm1hZT4nLCAnLW9tYWUnLCAnPG91dGZpbGUubWFlPic=

> <r_lp_tautomer_probability>
1

> <r_epik_Ionization_Penalty>
0.0540825

> <r_epik_Ionization_Penalty_Charging>
0.0538476

> <r_epik_Ionization_Penalty_Neutral>
0.000234891

> <r_epik_State_Penalty>
0.0200719

> <r_epik_Charging_Adjusted_Penalty>
0.0739194

> <i_epik_Tot_Q>
1

> <i_epik_Tot_abs_Q>
1

> <r_epik_Metal_State_Penalty>
0.0199414

> <b_epik_Metal_Only>
0

> <s_lp_Force_Field>
OPLS_2005

> <r_lp_Energy>
56.4216

> <b_lp_Chiralities_Consistent>
1

> <s_lp_Variant>
AV-unprocessed.smi:193-6

> <Gold.Version>
5.8.1

> <Gold.Id.Protein>
6NUR|6NUR_protein|mol2

> <Gold.PLP.Fitness>
41.8487

> <Gold.PLP.PLP>
-36.8467

> <Gold.PLP.part.hbond>
-2.0000

> <Gold.PLP.part.metal>
0.0000

> <Gold.PLP.part.buried>
-4.4000

> <Gold.PLP.part.nonpolar>
-30.8339

> <Gold.PLP.part.repulsive>
0.0849

> <Gold.PLP.ligand.clash>
0.0000

> <Gold.PLP.ligand.torsion>
1.1954

> <Gold.PLP.Chemscore.Hbond>
1.9760

> <Gold.PLP.Chemscore.CHOScore>
0.0000

> <Gold.PLP.Chemscore.Metal>
0.0000

> <Gold.Chemscore.Hbonds>
donor molecule, donor type, donor heavy atom, donor atom, acceptor molecule, acceptor atom, score
      L1  H    24    62       P1 10747  0.93
      P1  H  6896  6907       L1     8  1.00

> <Gold.PLP.Chemscore.Internal.Correction>
1.4647

> <Gold.Rescore>
     Score         DG    S(hbond)    S(metal)    S(lipo)     H(rot)  DE(clash)    DE(int)     intcor
     14.02     -17.53       1.63        0.00      98.61       1.93       0.98       2.53       ----

> <Gold.Chemscore.Fitness>
14.0171

> <Gold.Chemscore.DG>
-17.5287

> <Gold.Chemscore.ZeroCoef>
-5.4800

> <Gold.Chemscore.Hbond>
1.6317

> <Gold.Chemscore.Metal>
0.0000

> <Gold.Chemscore.Lipo>
98.6087

> <Gold.Chemscore.Internal_Hbond>
0.0000

> <Gold.Chemscore.DEClash>
0.9828

> <Gold.Chemscore.DEInternal>
2.5288

> <Gold.Chemscore.Rot>
1.9290

> <Gold.Chemscore.Internal.Correction>
   9.000000E+99

> <Gold.Chemscore.Hbonds>
donor molecule, donor type, donor heavy atom, donor atom, acceptor molecule, acceptor atom, score
      L1  H    24    62       P1 10747  0.91
      P1  H  6896  6907       L1     8  0.43

> <Gold.Chemscore.Hbond.Weighted>
-5.4498

> <Gold.Chemscore.Metal.Weighted>
-0.0000

> <Gold.Chemscore.Lipo.Weighted>
-11.5372

> <Gold.Chemscore.Internal_Hbond.Weighted>
0.0000

> <Gold.Chemscore.DEClash.Weighted>
0.9828

> <Gold.Chemscore.DEInternal.Weighted>
2.5288

> <Gold.Chemscore.Rot.Weighted>
4.9383

> <Gold.Chemscore.Internal.Correction.Weighted>
   9.000000E+99

> <Gold.Protein.RotatedTorsions>
[ 6907 6896 6895 6894 ] final -101.64 input  -60.11 | X-H torsion
[ 7974 7965 7964 7962 ] final  -50.13 input  175.53 | X-H torsion
[ 8008 7997 7996 7995 ] final -178.63 input   59.86 | X-H torsion
[ 10167 10162 10161 10158 ] final -121.61 input  -65.29 | X-H torsion
[ 10718 10713 10712 10709 ] final   25.38 input   66.30 | X-H torsion
[ 10763 10752 10751 10750 ] final   44.05 input  -60.55 | X-H torsion
[ 11005 11000 10999 10996 ] final  114.67 input  -57.11 | X-H torsion

> <Gold.Protein.ActiveResidues>
 VAL166  LYS551  ARG553  GLY616  TRP617  ASP618  TYR619  PRO620  LYS621  CYS622 
 ASP623  PHE694  ASN695  SER759  ASP760  ASP761  ALA762  ILE779  LEU786  VAL792 
 PHE793  MET794  SER795  GLU796  ALA797  LYS798  CYS799  TRP800  GLU811  SER814 

> <Gold.Protein.RotatedAtoms>
  150.7163  134.0703  159.3861 H   0  0  0  0  0  0  0  0  0  0  0  0  # atno 6907 bound_to 6896
  151.8685  135.0496  160.0486 H   0  0  0  0  0  0  0  0  0  0  0  0  # atno 6908 bound_to 6896
  152.2661  133.5305  159.5447 H   0  0  0  0  0  0  0  0  0  0  0  0  # atno 6909 bound_to 6896
  145.9332  140.7730  142.9589 H   0  0  0  0  0  0  0  0  0  0  0  0  # atno 7974 bound_to 7965
  156.0211  140.1261  157.0356 H   0  0  0  0  0  0  0  0  0  0  0  0  # atno 8008 bound_to 7997
  154.4312  140.1068  156.6035 H   0  0  0  0  0  0  0  0  0  0  0  0  # atno 8009 bound_to 7997
  155.5943  140.3470  155.4577 H   0  0  0  0  0  0  0  0  0  0  0  0  # atno 8010 bound_to 7997
  140.0231  143.5324  152.2211 H   0  0  0  0  0  0  0  0  0  0  0  0  # atno 10167 bound_to 10162
  157.1925  130.6853  149.6156 H   0  0  0  0  0  0  0  0  0  0  0  0  # atno 10718 bound_to 10713
  152.9848  135.6083  154.3210 H   0  0  0  0  0  0  0  0  0  0  0  0  # atno 10763 bound_to 10752
  154.2920  135.2774  155.2652 H   0  0  0  0  0  0  0  0  0  0  0  0  # atno 10764 bound_to 10752
  154.4943  135.5884  153.6539 H   0  0  0  0  0  0  0  0  0  0  0  0  # atno 10765 bound_to 10752
  139.8987  134.9571  156.6928 H   0  0  0  0  0  0  0  0  0  0  0  0  # atno 11005 bound_to 11000
  144.6768  140.2160  143.7371 LP  0  0  0  0  0  0  0  0  0  0  0  0  # atno 17320 bound_to 7965
  145.8399  139.2125  143.1834 LP  0  0  0  0  0  0  0  0  0  0  0  0  # atno 17321 bound_to 7965
  139.6126  144.7612  151.2917 LP  0  0  0  0  0  0  0  0  0  0  0  0  # atno 17342 bound_to 10162
  140.7334  143.6796  150.8012 LP  0  0  0  0  0  0  0  0  0  0  0  0  # atno 17343 bound_to 10162
  155.9710  130.4610  150.6092 LP  0  0  0  0  0  0  0  0  0  0  0  0  # atno 17370 bound_to 10713
  157.3846  131.0786  151.1447 LP  0  0  0  0  0  0  0  0  0  0  0  0  # atno 17371 bound_to 10713
  140.7212  133.9139  155.8148 LP  0  0  0  0  0  0  0  0  0  0  0  0  # atno 17394 bound_to 11000
  141.0226  134.0868  157.4104 LP  0  0  0  0  0  0  0  0  0  0  0  0  # atno 17395 bound_to 11000

$$$$
