AV-unprocessed.smi:282|AV-procd|sdf|2124|dock3
  -GOLD-   2262021423D 1   1.00000     0.00000
 Structure written by MMmdl.
 65 69  0  0  0  0  0  0  0  0  2 V2000
  152.3508  143.4264  158.5902 C   0  0  0  0  0  0  0  0  0  0  0  0
  151.0615  143.2613  157.7742 C   0  0  0  0  0  0  0  0  0  0  0  0
  150.3058  141.9526  158.0888 C   0  0  1  0  0  0  0  0  0  0  0  0
  148.8040  142.0627  157.7443 C   0  0  0  0  0  0  0  0  0  0  0  0
  148.5628  142.0261  156.2783 N   0  3  2  0  0  0  0  0  0  0  0  0
  147.1207  142.1698  155.9525 C   0  0  0  0  0  0  0  0  0  0  0  0
  146.8966  142.2562  154.4350 C   0  0  0  0  0  0  0  0  0  0  0  0
  147.4921  141.0334  153.7276 C   0  0  0  0  0  0  0  0  0  0  0  0
  148.9754  140.8916  154.0909 C   0  0  0  0  0  0  0  0  0  0  0  0
  149.1809  140.8384  155.6183 C   0  0  1  0  0  0  0  0  0  0  0  0
  150.6813  140.7381  155.9595 C   0  0  0  0  0  0  0  0  0  0  0  0
  150.8986  140.7996  157.4025 N   0  0  0  0  0  0  0  0  0  0  0  0
  150.9555  139.6014  158.0408 C   0  0  0  0  0  0  0  0  0  0  0  0
  152.1323  139.1645  158.5631 N   0  0  0  0  0  0  0  0  0  0  0  0
  152.1950  137.9920  159.2004 C   0  0  0  0  0  0  0  0  0  0  0  0
  151.2183  137.1112  159.4230 N   0  0  0  0  0  0  0  0  0  0  0  0
  150.0362  137.5372  158.8934 C   0  0  0  0  0  0  0  0  0  0  0  0
  149.8181  138.7598  158.1974 C   0  0  0  0  0  0  0  0  0  0  0  0
  148.4880  138.8497  157.8058 N   0  0  0  0  0  0  0  0  0  0  0  0
  147.9484  137.7496  158.2548 C   0  0  0  0  0  0  0  0  0  0  0  0
  148.8096  136.8945  158.9050 N   0  0  0  0  0  0  0  0  0  0  0  0
  148.4774  135.6070  159.4986 C   0  0  0  0  0  0  0  0  0  0  0  0
  147.5784  135.6823  160.7687 C   0  0  0  0  0  0  0  0  0  0  0  0
  147.2934  134.2606  161.3333 C   0  0  0  0  0  0  0  0  0  0  0  0
  146.6170  133.4402  160.4016 O   0  0  0  0  0  0  0  0  0  0  0  0
  148.2757  136.5394  161.8551 C   0  0  0  0  0  0  0  0  0  0  0  0
  147.3349  136.9343  163.0083 C   0  0  0  0  0  0  0  0  0  0  0  0
  146.1937  137.6115  162.4983 O   0  0  0  0  0  0  0  0  0  0  0  0
  145.4213  136.8051  161.6183 C   0  0  0  0  0  0  0  0  0  0  0  0
  146.2645  136.4120  160.3922 C   0  0  0  0  0  0  0  0  0  0  0  0
  152.8302  144.3798  158.3669 H   0  0  0  0  0  0  0  0  0  0  0  0
  153.0689  142.6370  158.3668 H   0  0  0  0  0  0  0  0  0  0  0  0
  152.1459  143.4003  159.6609 H   0  0  0  0  0  0  0  0  0  0  0  0
  150.4104  144.1083  157.9936 H   0  0  0  0  0  0  0  0  0  0  0  0
  151.2913  143.3317  156.7110 H   0  0  0  0  0  0  0  0  0  0  0  0
  150.3888  141.8094  159.1673 H   0  0  0  0  0  0  0  0  0  0  0  0
  148.2580  141.2394  158.2069 H   0  0  0  0  0  0  0  0  0  0  0  0
  148.3899  142.9794  158.1659 H   0  0  0  0  0  0  0  0  0  0  0  0
  146.5678  141.3242  156.3653 H   0  0  0  0  0  0  0  0  0  0  0  0
  146.7271  143.0687  156.4281 H   0  0  0  0  0  0  0  0  0  0  0  0
  145.8305  142.3296  154.2186 H   0  0  0  0  0  0  0  0  0  0  0  0
  147.3555  143.1664  154.0467 H   0  0  0  0  0  0  0  0  0  0  0  0
  146.9508  140.1337  154.0230 H   0  0  0  0  0  0  0  0  0  0  0  0
  147.3757  141.1285  152.6475 H   0  0  0  0  0  0  0  0  0  0  0  0
  149.3818  139.9918  153.6274 H   0  0  0  0  0  0  0  0  0  0  0  0
  149.5321  141.7314  153.6725 H   0  0  0  0  0  0  0  0  0  0  0  0
  148.6813  139.9476  156.0045 H   0  0  0  0  0  0  0  0  0  0  0  0
  151.0867  139.8215  155.5319 H   0  0  0  0  0  0  0  0  0  0  0  0
  151.2308  141.5540  155.4897 H   0  0  0  0  0  0  0  0  0  0  0  0
  153.1664  137.7201  159.5864 H   0  0  0  0  0  0  0  0  0  0  0  0
  146.9008  137.5257  158.1151 H   0  0  0  0  0  0  0  0  0  0  0  0
  147.9920  135.0030  158.7308 H   0  0  0  0  0  0  0  0  0  0  0  0
  149.4117  135.0917  159.7254 H   0  0  0  0  0  0  0  0  0  0  0  0
  148.2193  133.7638  161.6229 H   0  0  0  0  0  0  0  0  0  0  0  0
  146.6855  134.2997  162.2355 H   0  0  0  0  0  0  0  0  0  0  0  0
  145.7886  133.1805  160.7752 H   0  0  0  0  0  0  0  0  0  0  0  0
  149.1444  136.0182  162.2585 H   0  0  0  0  0  0  0  0  0  0  0  0
  148.6551  137.4567  161.4032 H   0  0  0  0  0  0  0  0  0  0  0  0
  147.0283  136.0669  163.5933 H   0  0  0  0  0  0  0  0  0  0  0  0
  147.8546  137.6022  163.6954 H   0  0  0  0  0  0  0  0  0  0  0  0
  145.0394  135.9289  162.1429 H   0  0  0  0  0  0  0  0  0  0  0  0
  144.5509  137.3778  161.2981 H   0  0  0  0  0  0  0  0  0  0  0  0
  146.5028  137.3251  159.8447 H   0  0  0  0  0  0  0  0  0  0  0  0
  145.6671  135.8064  159.7102 H   0  0  0  0  0  0  0  0  0  0  0  0
  149.0275  142.8368  155.8947 H   0  0  0  0  0  0  0  0  0  0  0  0
  1  2  1  0  0  0  0
  1 31  1  0  0  0  0
  1 32  1  0  0  0  0
  1 33  1  0  0  0  0
  2  3  1  0  0  0  0
  2 34  1  0  0  0  0
  2 35  1  0  0  0  0
  3 12  1  0  0  0  0
  3  4  1  0  0  0  0
  3 36  1  0  0  0  0
  4  5  1  0  0  0  0
  4 37  1  0  0  0  0
  4 38  1  0  0  0  0
  5 10  1  0  0  0  0
  5  6  1  0  0  0  0
  5 65  1  0  0  0  0
  6  7  1  0  0  0  0
  6 39  1  0  0  0  0
  6 40  1  0  0  0  0
  7  8  1  0  0  0  0
  7 41  1  0  0  0  0
  7 42  1  0  0  0  0
  8  9  1  0  0  0  0
  8 43  1  0  0  0  0
  8 44  1  0  0  0  0
  9 10  1  0  0  0  0
  9 45  1  0  0  0  0
  9 46  1  0  0  0  0
 10 11  1  0  0  0  0
 10 47  1  0  0  0  0
 11 12  1  0  0  0  0
 11 48  1  0  0  0  0
 11 49  1  0  0  0  0
 12 13  1  0  0  0  0
 13 18  1  0  0  0  0
 13 14  2  0  0  0  0
 14 15  1  0  0  0  0
 15 16  2  0  0  0  0
 15 50  1  0  0  0  0
 16 17  1  0  0  0  0
 17 21  1  0  0  0  0
 17 18  2  0  0  0  0
 18 19  1  0  0  0  0
 19 20  2  0  0  0  0
 20 21  1  0  0  0  0
 20 51  1  0  0  0  0
 21 22  1  0  0  0  0
 22 23  1  0  0  0  0
 22 52  1  0  0  0  0
 22 53  1  0  0  0  0
 23 30  1  0  0  0  0
 23 24  1  0  0  0  0
 23 26  1  0  0  0  0
 24 25  1  0  0  0  0
 24 54  1  0  0  0  0
 24 55  1  0  0  0  0
 25 56  1  0  0  0  0
 26 27  1  0  0  0  0
 26 57  1  0  0  0  0
 26 58  1  0  0  0  0
 27 28  1  0  0  0  0
 27 59  1  0  0  0  0
 27 60  1  0  0  0  0
 28 29  1  0  0  0  0
 29 30  1  0  0  0  0
 29 61  1  0  0  0  0
 29 62  1  0  0  0  0
 30 63  1  0  0  0  0
 30 64  1  0  0  0  0
M  CHG  1   5   1
M  END
> <s_m_source_file>
AV-unprocessed.smi

> <i_m_source_file_index>
282

> <i_lp_mmshare_version>
43012

> <i_f3d_flags>
0

> <s_epik_input>
W0NIMl0xW0NIMl1bQ0gyXVtDSDJdW0NAQEhdKE4xMilbQ0gyXU4oW0NAQEhdKFtDSDJdMilbQ0gyXVtDSDNdKWMobltjSF1uMyljKGMzNCluW2NIXW40W0NIMl1DNShbQ0gyXVtPSF0pW0NIMl1bQ0gyXU9bQ0gyXVtDSDJdNQ==

> <s_epik_cmdline>
J2VwaWtfcHl0aG9uJywgJy1waCcsICc3LjAnLCAnLXRuJywgJzgnLCAnLW1hJywgJzIwMCcsICctbWV0YWxfYmluZGluZycsICctaW1hZScsICc8aW5maWxlLm1hZT4nLCAnLW9tYWUnLCAnPG91dGZpbGUubWFlPic=

> <r_lp_tautomer_probability>
1

> <r_epik_Ionization_Penalty>
0.00308583

> <r_epik_Ionization_Penalty_Charging>
0.00300384

> <r_epik_Ionization_Penalty_Neutral>
8.19894e-05

> <r_epik_State_Penalty>
-0

> <r_epik_Charging_Adjusted_Penalty>
0.00300384

> <i_epik_Tot_Q>
1

> <i_epik_Tot_abs_Q>
1

> <r_epik_Metal_State_Penalty>
-0

> <b_epik_Metal_Only>
0

> <s_lp_Force_Field>
OPLS_2005

> <r_lp_Energy>
57.1852

> <b_lp_Chiralities_Consistent>
1

> <s_lp_Variant>
AV-unprocessed.smi:282-8

> <Gold.Version>
5.8.1

> <Gold.Id.Protein>
6NUR|6NUR_protein|mol2

> <Gold.PLP.Fitness>
54.9736

> <Gold.PLP.PLP>
-49.1210

> <Gold.PLP.part.hbond>
-2.9765

> <Gold.PLP.part.metal>
0.0000

> <Gold.PLP.part.buried>
-3.8330

> <Gold.PLP.part.nonpolar>
-43.0278

> <Gold.PLP.part.repulsive>
0.0256

> <Gold.PLP.ligand.clash>
0.0000

> <Gold.PLP.ligand.torsion>
1.6767

> <Gold.PLP.Chemscore.Hbond>
2.9385

> <Gold.PLP.Chemscore.CHOScore>
0.0000

> <Gold.PLP.Chemscore.Metal>
0.0000

> <Gold.Chemscore.Hbonds>
donor molecule, donor type, donor heavy atom, donor atom, acceptor molecule, acceptor atom, score
      L1  H     5    65       P1  8028  1.73
      P1  H  6896  6908       L1    16  0.99
      P1  H  6934  6947       L1    28  0.19

> <Gold.PLP.Chemscore.Internal.Correction>
0.3906

> <Gold.Rescore>
     Score         DG    S(hbond)    S(metal)    S(lipo)     H(rot)  DE(clash)    DE(int)     intcor
     17.01     -19.26       1.87        0.00     112.65       2.20       0.47       1.79       ----

> <Gold.Chemscore.Fitness>
17.0065

> <Gold.Chemscore.DG>
-19.2631

> <Gold.Chemscore.ZeroCoef>
-5.4800

> <Gold.Chemscore.Hbond>
1.8701

> <Gold.Chemscore.Metal>
0.0000

> <Gold.Chemscore.Lipo>
112.6486

> <Gold.Chemscore.Internal_Hbond>
0.0000

> <Gold.Chemscore.DEClash>
0.4660

> <Gold.Chemscore.DEInternal>
1.7905

> <Gold.Chemscore.Rot>
2.2042

> <Gold.Chemscore.Internal.Correction>
   9.000000E+99

> <Gold.Chemscore.Hbonds>
donor molecule, donor type, donor heavy atom, donor atom, acceptor molecule, acceptor atom, score
      L1  H     5    65       P1  8028  0.85
      P1  H  6896  6908       L1    16  0.84
      P1  H  6934  6947       L1    28  0.02

> <Gold.Chemscore.Hbond.Weighted>
-6.2461

> <Gold.Chemscore.Metal.Weighted>
-0.0000

> <Gold.Chemscore.Lipo.Weighted>
-13.1799

> <Gold.Chemscore.Internal_Hbond.Weighted>
0.0000

> <Gold.Chemscore.DEClash.Weighted>
0.4660

> <Gold.Chemscore.DEInternal.Weighted>
1.7905

> <Gold.Chemscore.Rot.Weighted>
5.6429

> <Gold.Chemscore.Internal.Correction.Weighted>
   9.000000E+99

> <Gold.Protein.RotatedTorsions>
[ 6907 6896 6895 6894 ] final -139.18 input  -60.11 | X-H torsion
[ 7974 7965 7964 7962 ] final  -80.49 input  175.53 | X-H torsion
[ 8008 7997 7996 7995 ] final -126.03 input   59.86 | X-H torsion
[ 10167 10162 10161 10158 ] final -148.74 input  -65.29 | X-H torsion
[ 10718 10713 10712 10709 ] final  117.89 input   66.30 | X-H torsion
[ 10763 10752 10751 10750 ] final   91.44 input  -60.55 | X-H torsion
[ 11005 11000 10999 10996 ] final   93.99 input  -57.11 | X-H torsion

> <Gold.Protein.ActiveResidues>
 VAL166  LYS551  ARG553  GLY616  TRP617  ASP618  TYR619  PRO620  LYS621  CYS622 
 ASP623  PHE694  ASN695  SER759  ASP760  ASP761  ALA762  ILE779  LEU786  VAL792 
 PHE793  MET794  SER795  GLU796  ALA797  LYS798  CYS799  TRP800  GLU811  SER814 

> <Gold.Protein.RotatedAtoms>
  151.0445  133.5677  159.2647 H   0  0  0  0  0  0  0  0  0  0  0  0  # atno 6907 bound_to 6896
  151.2711  135.0684  159.9144 H   0  0  0  0  0  0  0  0  0  0  0  0  # atno 6908 bound_to 6896
  152.5370  134.0175  159.8020 H   0  0  0  0  0  0  0  0  0  0  0  0  # atno 6909 bound_to 6896
  145.5592  140.9485  143.1457 H   0  0  0  0  0  0  0  0  0  0  0  0  # atno 7974 bound_to 7965
  155.2230  140.0422  157.2951 H   0  0  0  0  0  0  0  0  0  0  0  0  # atno 8008 bound_to 7997
  154.5937  140.2433  155.7856 H   0  0  0  0  0  0  0  0  0  0  0  0  # atno 8009 bound_to 7997
  156.2276  140.2949  156.0115 H   0  0  0  0  0  0  0  0  0  0  0  0  # atno 8010 bound_to 7997
  139.7504  143.8527  152.2585 H   0  0  0  0  0  0  0  0  0  0  0  0  # atno 10167 bound_to 10162
  157.6066  131.1042  150.7679 H   0  0  0  0  0  0  0  0  0  0  0  0  # atno 10718 bound_to 10713
  153.2083  135.4397  155.0349 H   0  0  0  0  0  0  0  0  0  0  0  0  # atno 10763 bound_to 10752
  154.8186  135.3326  154.7107 H   0  0  0  0  0  0  0  0  0  0  0  0  # atno 10764 bound_to 10752
  153.7547  135.6996  153.4994 H   0  0  0  0  0  0  0  0  0  0  0  0  # atno 10765 bound_to 10752
  139.8803  134.8820  156.3798 H   0  0  0  0  0  0  0  0  0  0  0  0  # atno 11005 bound_to 11000
  144.7491  139.7241  143.7280 LP  0  0  0  0  0  0  0  0  0  0  0  0  # atno 17320 bound_to 7965
  146.1863  139.5080  142.9834 LP  0  0  0  0  0  0  0  0  0  0  0  0  # atno 17321 bound_to 7965
  139.8503  144.7167  150.9222 LP  0  0  0  0  0  0  0  0  0  0  0  0  # atno 17342 bound_to 10162
  140.7797  143.3905  151.1319 LP  0  0  0  0  0  0  0  0  0  0  0  0  # atno 17343 bound_to 10162
  156.8066  130.4938  149.5362 LP  0  0  0  0  0  0  0  0  0  0  0  0  # atno 17370 bound_to 10713
  156.1155  130.6072  151.0114 LP  0  0  0  0  0  0  0  0  0  0  0  0  # atno 17371 bound_to 10713
  140.9406  133.7517  156.0142 LP  0  0  0  0  0  0  0  0  0  0  0  0  # atno 17394 bound_to 11000
  140.8223  134.3274  157.5377 LP  0  0  0  0  0  0  0  0  0  0  0  0  # atno 17395 bound_to 11000

$$$$
