AV-unprocessed.smi:1362|AV-procd|sdf|5561|dock2
  -GOLD-   22720 5153D 1   1.00000     0.00000
 Structure written by MMmdl.
 39 39  0  0  0  0  0  0  0  0  1 V2000
  150.1620  135.6735  155.1112 C   0  0  0  0  0  0  0  0  0  0  0  0
  150.6758  137.0550  155.4545 C   0  0  0  0  0  0  0  0  0  0  0  0
  149.7844  138.0710  155.1523 N   0  0  0  0  0  0  0  0  0  0  0  0
  150.1643  139.3709  155.4357 C   0  0  0  0  0  0  0  0  0  0  0  0
  149.1292  140.4235  155.0775 C   0  0  0  0  0  0  0  0  0  0  0  0
  151.3707  139.6445  155.9942 C   0  0  0  0  0  0  0  0  0  0  0  0
  151.8220  141.0657  156.3278 C   0  0  0  0  0  0  0  0  0  0  0  0
  151.8802  141.4153  157.8171 C   0  0  0  0  0  0  0  0  0  0  0  0
  151.6899  140.5473  158.6692 O   0  0  0  0  0  0  0  0  0  0  0  0
  152.1404  142.6978  158.1140 N   0  0  0  0  0  0  0  0  0  0  0  0
  152.2069  143.2645  159.4607 C   0  0  1  0  0  0  0  0  0  0  0  0
  153.3040  142.5301  160.2550 C   0  0  0  0  0  0  0  0  0  0  0  0
  152.4270  144.7987  159.3845 C   0  0  0  0  0  0  0  0  0  0  0  0
  153.5324  145.1842  158.3846 C   0  0  0  0  0  0  0  0  0  0  0  0
  152.7453  145.4126  160.7623 C   0  0  0  0  0  0  0  0  0  0  0  0
  152.2807  138.5148  156.2984 C   0  0  0  0  0  0  0  0  0  0  0  0
  153.3828  138.6959  156.8144 O   0  0  0  0  0  0  0  0  0  0  0  0
  151.8492  137.2151  155.9866 N   0  0  0  0  0  0  0  0  0  0  0  0
  148.8757  137.9115  154.7419 H   0  0  0  0  0  0  0  0  0  0  0  0
  150.9546  134.9296  155.2002 H   0  0  0  0  0  0  0  0  0  0  0  0
  149.7852  135.6471  154.0882 H   0  0  0  0  0  0  0  0  0  0  0  0
  149.3532  135.3931  155.7864 H   0  0  0  0  0  0  0  0  0  0  0  0
  149.5260  141.1090  154.3282 H   0  0  0  0  0  0  0  0  0  0  0  0
  148.8496  141.0001  155.9596 H   0  0  0  0  0  0  0  0  0  0  0  0
  148.2222  139.9731  154.6723 H   0  0  0  0  0  0  0  0  0  0  0  0
  151.1419  141.7616  155.8348 H   0  0  0  0  0  0  0  0  0  0  0  0
  152.7984  141.2756  155.8901 H   0  0  0  0  0  0  0  0  0  0  0  0
  152.2873  143.3377  157.3470 H   0  0  0  0  0  0  0  0  0  0  0  0
  151.2515  143.0906  159.9597 H   0  0  0  0  0  0  0  0  0  0  0  0
  153.3069  142.8227  161.3043 H   0  0  0  0  0  0  0  0  0  0  0  0
  154.2943  142.7333  159.8459 H   0  0  0  0  0  0  0  0  0  0  0  0
  153.1524  141.4504  160.2319 H   0  0  0  0  0  0  0  0  0  0  0  0
  151.4999  145.2556  159.0349 H   0  0  0  0  0  0  0  0  0  0  0  0
  154.4798  144.7072  158.6383 H   0  0  0  0  0  0  0  0  0  0  0  0
  153.6965  146.2622  158.3776 H   0  0  0  0  0  0  0  0  0  0  0  0
  153.2751  144.9002  157.3648 H   0  0  0  0  0  0  0  0  0  0  0  0
  153.6427  144.9681  161.1938 H   0  0  0  0  0  0  0  0  0  0  0  0
  151.9300  145.2716  161.4721 H   0  0  0  0  0  0  0  0  0  0  0  0
  152.9135  146.4871  160.6836 H   0  0  0  0  0  0  0  0  0  0  0  0
  1 20  1  0  0  0  0
  1 21  1  0  0  0  0
  1 22  1  0  0  0  0
  1  2  1  0  0  0  0
  2  3  1  0  0  0  0
  2 18  2  0  0  0  0
  3  4  1  0  0  0  0
  3 19  1  0  0  0  0
  4  6  2  0  0  0  0
  4  5  1  0  0  0  0
  5 23  1  0  0  0  0
  5 24  1  0  0  0  0
  5 25  1  0  0  0  0
  6 16  1  0  0  0  0
  6  7  1  0  0  0  0
  7  8  1  0  0  0  0
  7 26  1  0  0  0  0
  7 27  1  0  0  0  0
  8  9  2  0  0  0  0
  8 10  1  0  0  0  0
 10 11  1  0  0  0  0
 10 28  1  0  0  0  0
 11 12  1  0  0  0  0
 11 13  1  0  0  0  0
 11 29  1  0  0  0  0
 12 30  1  0  0  0  0
 12 31  1  0  0  0  0
 12 32  1  0  0  0  0
 13 14  1  0  0  0  0
 13 15  1  0  0  0  0
 13 33  1  0  0  0  0
 14 34  1  0  0  0  0
 14 35  1  0  0  0  0
 14 36  1  0  0  0  0
 15 37  1  0  0  0  0
 15 38  1  0  0  0  0
 15 39  1  0  0  0  0
 16 17  2  0  0  0  0
 16 18  1  0  0  0  0
M  END
> <s_m_source_file>
AV-unprocessed.smi

> <i_m_source_file_index>
1362

> <i_lp_mmshare_version>
43012

> <i_f3d_flags>
0

> <s_epik_input>
W0NIM11jMW5jKFtDSDNdKWMoYyg9TylbbkhdMSlbQ0gyXUMoPU8pW05IXVtDQEhdKFtDSDNdKVtDSF0oW0NIM10pW0NIM10=

> <s_epik_cmdline>
J2VwaWtfcHl0aG9uJywgJy1waCcsICc3LjAnLCAnLXRuJywgJzgnLCAnLW1hJywgJzIwMCcsICctbWV0YWxfYmluZGluZycsICctaW1hZScsICc8aW5maWxlLm1hZT4nLCAnLW9tYWUnLCAnPG91dGZpbGUubWFlPic=

> <r_lp_tautomer_probability>
0.156392

> <r_epik_Ionization_Penalty>
0.0140737

> <r_epik_Ionization_Penalty_Charging>
0.0139511

> <r_epik_Ionization_Penalty_Neutral>
0.000122633

> <r_epik_State_Penalty>
1.53034

> <r_epik_Charging_Adjusted_Penalty>
1.54429

> <i_epik_Tot_Q>
0

> <i_epik_Tot_abs_Q>
0

> <r_epik_Metal_State_Penalty>
1.70655

> <b_epik_Metal_Only>
0

> <s_lp_Force_Field>
OPLS_2005

> <r_lp_Energy>
10.7391

> <b_lp_Chiralities_Consistent>
1

> <s_lp_Variant>
AV-unprocessed.smi:1362-4

> <Gold.Version>
5.8.1

> <Gold.Id.Protein>
6NUR|6NUR_protein|mol2

> <Gold.PLP.Fitness>
43.0779

> <Gold.PLP.PLP>
-37.7722

> <Gold.PLP.part.hbond>
-2.5017

> <Gold.PLP.part.metal>
0.0000

> <Gold.PLP.part.buried>
-4.3151

> <Gold.PLP.part.nonpolar>
-30.5359

> <Gold.PLP.part.repulsive>
0.1070

> <Gold.PLP.ligand.clash>
0.0000

> <Gold.PLP.ligand.torsion>
0.3250

> <Gold.PLP.Chemscore.Hbond>
1.9760

> <Gold.PLP.Chemscore.CHOScore>
0.0000

> <Gold.PLP.Chemscore.Metal>
0.0000

> <Gold.Chemscore.Hbonds>
donor molecule, donor type, donor heavy atom, donor atom, acceptor molecule, acceptor atom, score
      P1  H  7997  8008       L1    17  0.94
      P1  H 10752 10764       L1    18  0.12

> <Gold.PLP.Chemscore.Internal.Correction>
0.0276

> <Gold.Rescore>
     Score         DG    S(hbond)    S(metal)    S(lipo)     H(rot)  DE(clash)    DE(int)     intcor
     16.14     -17.33       1.79        0.00      87.29       1.69       0.65       0.53       ----

> <Gold.Chemscore.Fitness>
16.1448

> <Gold.Chemscore.DG>
-17.3288

> <Gold.Chemscore.ZeroCoef>
-5.4800

> <Gold.Chemscore.Hbond>
1.7864

> <Gold.Chemscore.Metal>
0.0000

> <Gold.Chemscore.Lipo>
87.2881

> <Gold.Chemscore.Internal_Hbond>
0.0000

> <Gold.Chemscore.DEClash>
0.6533

> <Gold.Chemscore.DEInternal>
0.5307

> <Gold.Chemscore.Rot>
1.6916

> <Gold.Chemscore.Internal.Correction>
   9.000000E+99

> <Gold.Chemscore.Hbonds>
donor molecule, donor type, donor heavy atom, donor atom, acceptor molecule, acceptor atom, score
      P1  H  7997  8008       L1    17  0.90
      P1  H 10752 10764       L1    18  0.02

> <Gold.Chemscore.Hbond.Weighted>
-5.9666

> <Gold.Chemscore.Metal.Weighted>
-0.0000

> <Gold.Chemscore.Lipo.Weighted>
-10.2127

> <Gold.Chemscore.Internal_Hbond.Weighted>
0.0000

> <Gold.Chemscore.DEClash.Weighted>
0.6533

> <Gold.Chemscore.DEInternal.Weighted>
0.5307

> <Gold.Chemscore.Rot.Weighted>
4.3305

> <Gold.Chemscore.Internal.Correction.Weighted>
   9.000000E+99

> <Gold.Protein.RotatedTorsions>
[ 6907 6896 6895 6894 ] final -171.16 input  -60.11 | X-H torsion
[ 7974 7965 7964 7962 ] final  174.91 input  175.53 | X-H torsion
[ 8008 7997 7996 7995 ] final  -49.27 input   59.86 | X-H torsion
[ 10167 10162 10161 10158 ] final   -3.58 input  -65.29 | X-H torsion
[ 10718 10713 10712 10709 ] final  -99.97 input   66.30 | X-H torsion
[ 10763 10752 10751 10750 ] final  -56.04 input  -60.55 | X-H torsion
[ 11005 11000 10999 10996 ] final -124.69 input  -57.11 | X-H torsion

> <Gold.Protein.ActiveResidues>
 VAL166  LYS551  ARG553  GLY616  TRP617  ASP618  TYR619  PRO620  LYS621  CYS622 
 ASP623  PHE694  ASN695  SER759  ASP760  ASP761  ALA762  ILE779  LEU786  VAL792 
 PHE793  MET794  SER795  GLU796  ALA797  LYS798  CYS799  TRP800  GLU811  SER814 

> <Gold.Protein.RotatedAtoms>
  151.5194  133.3469  159.2898 H   0  0  0  0  0  0  0  0  0  0  0  0  # atno 6907 bound_to 6896
  150.8662  134.8028  159.7131 H   0  0  0  0  0  0  0  0  0  0  0  0  # atno 6908 bound_to 6896
  152.4665  134.5071  159.9794 H   0  0  0  0  0  0  0  0  0  0  0  0  # atno 6909 bound_to 6896
  144.7212  139.9868  143.6439 H   0  0  0  0  0  0  0  0  0  0  0  0  # atno 7974 bound_to 7965
  154.4041  140.1301  156.4475 H   0  0  0  0  0  0  0  0  0  0  0  0  # atno 8008 bound_to 7997
  155.7398  140.3490  155.5079 H   0  0  0  0  0  0  0  0  0  0  0  0  # atno 8009 bound_to 7997
  155.9049  140.1026  157.1312 H   0  0  0  0  0  0  0  0  0  0  0  0  # atno 8010 bound_to 7997
  140.6895  143.6523  150.8339 H   0  0  0  0  0  0  0  0  0  0  0  0  # atno 10167 bound_to 10162
  156.0149  130.5306  150.6748 H   0  0  0  0  0  0  0  0  0  0  0  0  # atno 10718 bound_to 10713
  154.2004  135.6412  153.5085 H   0  0  0  0  0  0  0  0  0  0  0  0  # atno 10763 bound_to 10752
  153.0013  135.5450  154.6322 H   0  0  0  0  0  0  0  0  0  0  0  0  # atno 10764 bound_to 10752
  154.5733  135.2918  155.0779 H   0  0  0  0  0  0  0  0  0  0  0  0  # atno 10765 bound_to 10752
  140.9821  134.0659  157.3753 H   0  0  0  0  0  0  0  0  0  0  0  0  # atno 11005 bound_to 11000
  146.0444  139.3452  143.0678 LP  0  0  0  0  0  0  0  0  0  0  0  0  # atno 17320 bound_to 7965
  145.8294  140.9638  143.0857 LP  0  0  0  0  0  0  0  0  0  0  0  0  # atno 17321 bound_to 7965
  140.0234  143.5518  152.2791 LP  0  0  0  0  0  0  0  0  0  0  0  0  # atno 17342 bound_to 10162
  139.6285  144.7641  151.2587 LP  0  0  0  0  0  0  0  0  0  0  0  0  # atno 17343 bound_to 10162
  157.4463  131.0867  151.0892 LP  0  0  0  0  0  0  0  0  0  0  0  0  # atno 17370 bound_to 10713
  157.1421  130.6147  149.5558 LP  0  0  0  0  0  0  0  0  0  0  0  0  # atno 17371 bound_to 10713
  139.8954  135.0141  156.7002 LP  0  0  0  0  0  0  0  0  0  0  0  0  # atno 17394 bound_to 11000
  140.7171  133.9173  155.8122 LP  0  0  0  0  0  0  0  0  0  0  0  0  # atno 17395 bound_to 11000

$$$$
