AV-unprocessed.smi:1235|AV-procd|sdf|5176|dock7
  -GOLD-   22720 4253D 1   1.00000     0.00000
 Structure written by MMmdl.
 50 51  0  0  0  0  0  0  0  0  2 V2000
  152.7416  136.7373  157.1114 C   0  0  0  0  0  0  0  0  0  0  0  0
  151.9535  135.9421  156.2429 O   0  0  0  0  0  0  0  0  0  0  0  0
  150.7560  136.5908  155.8501 C   0  0  0  0  0  0  0  0  0  0  0  0
  151.0980  137.6921  154.8354 C   0  0  0  0  0  0  0  0  0  0  0  0
  149.9623  138.5927  154.6142 N   0  0  0  0  0  0  0  0  0  0  0  0
  148.7781  137.9423  154.3109 N   0  0  0  0  0  0  0  0  0  0  0  0
  147.6997  138.6228  154.0914 C   0  0  0  0  0  0  0  0  0  0  0  0
  146.4068  137.9587  153.7649 C   0  0  0  0  0  0  0  0  0  0  0  0
  145.3545  138.2652  154.3274 O   0  0  0  0  0  0  0  0  0  0  0  0
  146.4730  137.0065  152.8185 N   0  0  0  0  0  0  0  0  0  0  0  0
  145.3385  136.2247  152.3481 C   0  0  0  0  0  0  0  0  0  0  0  0
  145.4671  135.9580  150.8388 C   0  0  0  0  0  0  0  0  0  0  0  0
  145.5083  134.5115  150.4914 N   0  3  1  0  0  0  0  0  0  0  0  0
  146.5985  133.8003  151.2130 C   0  0  0  0  0  0  0  0  0  0  0  0
  146.7764  132.3655  150.6919 C   0  0  0  0  0  0  0  0  0  0  0  0
  145.4631  131.5813  150.7812 C   0  0  0  0  0  0  0  0  0  0  0  0
  144.3523  132.3424  150.0449 C   0  0  0  0  0  0  0  0  0  0  0  0
  144.1973  133.7906  150.5568 C   0  0  1  0  0  0  0  0  0  0  0  0
  143.5256  133.8491  151.9459 C   0  0  0  0  0  0  0  0  0  0  0  0
  147.7097  140.0744  154.1556 C   0  0  0  0  0  0  0  0  0  0  0  0
  148.8741  140.6952  154.4464 C   0  0  0  0  0  0  0  0  0  0  0  0
  150.1088  139.9495  154.6965 C   0  0  0  0  0  0  0  0  0  0  0  0
  151.1828  140.4922  154.9543 O   0  0  0  0  0  0  0  0  0  0  0  0
  153.6504  136.1977  157.3786 H   0  0  0  0  0  0  0  0  0  0  0  0
  152.2038  136.9678  158.0320 H   0  0  0  0  0  0  0  0  0  0  0  0
  153.0345  137.6728  156.6330 H   0  0  0  0  0  0  0  0  0  0  0  0
  150.0683  135.8675  155.4089 H   0  0  0  0  0  0  0  0  0  0  0  0
  150.2647  137.0241  156.7232 H   0  0  0  0  0  0  0  0  0  0  0  0
  151.9572  138.2611  155.1957 H   0  0  0  0  0  0  0  0  0  0  0  0
  151.4211  137.2461  153.8931 H   0  0  0  0  0  0  0  0  0  0  0  0
  147.3739  136.8124  152.4047 H   0  0  0  0  0  0  0  0  0  0  0  0
  145.3177  135.2935  152.9142 H   0  0  0  0  0  0  0  0  0  0  0  0
  144.4087  136.7570  152.5565 H   0  0  0  0  0  0  0  0  0  0  0  0
  144.5994  136.4013  150.3479 H   0  0  0  0  0  0  0  0  0  0  0  0
  146.3364  136.4719  150.4278 H   0  0  0  0  0  0  0  0  0  0  0  0
  147.5375  134.3389  151.0804 H   0  0  0  0  0  0  0  0  0  0  0  0
  146.3955  133.7928  152.2845 H   0  0  0  0  0  0  0  0  0  0  0  0
  147.1180  132.3916  149.6563 H   0  0  0  0  0  0  0  0  0  0  0  0
  147.5542  131.8557  151.2613 H   0  0  0  0  0  0  0  0  0  0  0  0
  145.5881  130.5885  150.3481 H   0  0  0  0  0  0  0  0  0  0  0  0
  145.1890  131.4311  151.8258 H   0  0  0  0  0  0  0  0  0  0  0  0
  144.5853  132.3639  148.9793 H   0  0  0  0  0  0  0  0  0  0  0  0
  143.4077  131.8048  150.1351 H   0  0  0  0  0  0  0  0  0  0  0  0
  143.5170  134.2749  149.8574 H   0  0  0  0  0  0  0  0  0  0  0  0
  142.5890  133.2910  151.9428 H   0  0  0  0  0  0  0  0  0  0  0  0
  143.2775  134.8703  152.2336 H   0  0  0  0  0  0  0  0  0  0  0  0
  144.1521  133.4239  152.7293 H   0  0  0  0  0  0  0  0  0  0  0  0
  146.8135  140.6503  153.9752 H   0  0  0  0  0  0  0  0  0  0  0  0
  148.8969  141.7739  154.4966 H   0  0  0  0  0  0  0  0  0  0  0  0
  145.7779  134.4810  149.5184 H   0  0  0  0  0  0  0  0  0  0  0  0
  1  2  1  0  0  0  0
  1 24  1  0  0  0  0
  1 25  1  0  0  0  0
  1 26  1  0  0  0  0
  2  3  1  0  0  0  0
  3  4  1  0  0  0  0
  3 27  1  0  0  0  0
  3 28  1  0  0  0  0
  4  5  1  0  0  0  0
  4 29  1  0  0  0  0
  4 30  1  0  0  0  0
  5 22  1  0  0  0  0
  5  6  1  0  0  0  0
  6  7  2  0  0  0  0
  7  8  1  0  0  0  0
  7 20  1  0  0  0  0
  8  9  2  0  0  0  0
  8 10  1  0  0  0  0
 10 11  1  0  0  0  0
 10 31  1  0  0  0  0
 11 12  1  0  0  0  0
 11 32  1  0  0  0  0
 11 33  1  0  0  0  0
 12 13  1  0  0  0  0
 12 34  1  0  0  0  0
 12 35  1  0  0  0  0
 13 18  1  0  0  0  0
 13 14  1  0  0  0  0
 13 50  1  0  0  0  0
 14 15  1  0  0  0  0
 14 36  1  0  0  0  0
 14 37  1  0  0  0  0
 15 16  1  0  0  0  0
 15 38  1  0  0  0  0
 15 39  1  0  0  0  0
 16 17  1  0  0  0  0
 16 40  1  0  0  0  0
 16 41  1  0  0  0  0
 17 18  1  0  0  0  0
 17 42  1  0  0  0  0
 17 43  1  0  0  0  0
 18 19  1  0  0  0  0
 18 44  1  0  0  0  0
 19 45  1  0  0  0  0
 19 46  1  0  0  0  0
 19 47  1  0  0  0  0
 20 21  2  0  0  0  0
 20 48  1  0  0  0  0
 21 22  1  0  0  0  0
 21 49  1  0  0  0  0
 22 23  2  0  0  0  0
M  CHG  1  13   1
M  END
> <s_m_source_file>
AV-unprocessed.smi

> <i_m_source_file_index>
1235

> <i_lp_mmshare_version>
43012

> <i_f3d_flags>
0

> <s_epik_input>
W0NIM11PW0NIMl1bQ0gyXW4xbmMoW2NIXVtjSF1jMT1PKUMoPU8pW05IXVtDSDJdW0NIMl1OMltDSDJdW0NIMl1bQ0gyXVtDSDJdW0NASF0yW0NIM10=

> <s_epik_cmdline>
J2VwaWtfcHl0aG9uJywgJy1waCcsICc3LjAnLCAnLXRuJywgJzgnLCAnLW1hJywgJzIwMCcsICctbWV0YWxfYmluZGluZycsICctaW1hZScsICc8aW5maWxlLm1hZT4nLCAnLW9tYWUnLCAnPG91dGZpbGUubWFlPic=

> <r_lp_tautomer_probability>
1

> <r_epik_Ionization_Penalty>
0.00271975

> <r_epik_Ionization_Penalty_Charging>
0.00271407

> <r_epik_Ionization_Penalty_Neutral>
5.6803e-06

> <r_epik_State_Penalty>
0.00189271

> <r_epik_Charging_Adjusted_Penalty>
0.00460678

> <i_epik_Tot_Q>
1

> <i_epik_Tot_abs_Q>
1

> <r_epik_Metal_State_Penalty>
-0

> <b_epik_Metal_Only>
0

> <s_lp_Force_Field>
OPLS_2005

> <r_lp_Energy>
41.7034

> <b_lp_Chiralities_Consistent>
1

> <s_lp_Variant>
AV-unprocessed.smi:1235-2

> <Gold.Version>
5.8.1

> <Gold.Id.Protein>
6NUR|6NUR_protein|mol2

> <Gold.PLP.Fitness>
46.1104

> <Gold.PLP.PLP>
-37.1766

> <Gold.PLP.part.hbond>
-4.0000

> <Gold.PLP.part.metal>
0.0000

> <Gold.PLP.part.buried>
-2.8482

> <Gold.PLP.part.nonpolar>
-32.0052

> <Gold.PLP.part.repulsive>
1.5295

> <Gold.PLP.ligand.clash>
0.0000

> <Gold.PLP.ligand.torsion>
1.5862

> <Gold.PLP.Chemscore.Hbond>
4.0000

> <Gold.PLP.Chemscore.CHOScore>
0.0000

> <Gold.PLP.Chemscore.Metal>
0.0000

> <Gold.Chemscore.Hbonds>
donor molecule, donor type, donor heavy atom, donor atom, acceptor molecule, acceptor atom, score
      L1  H    10    31       P1  7948  1.00
      L1  H    13    50       P1  7921  1.00
      P1  H  7989  7998       L1    23  1.00
      P1  H 10752 10763       L1     2  1.00

> <Gold.PLP.Chemscore.Internal.Correction>
0.1063

> <Gold.Rescore>
     Score         DG    S(hbond)    S(metal)    S(lipo)     H(rot)  DE(clash)    DE(int)     intcor
     20.21     -23.25       3.55        0.00      94.29       2.00       1.38       1.65       ----

> <Gold.Chemscore.Fitness>
20.2117

> <Gold.Chemscore.DG>
-23.2456

> <Gold.Chemscore.ZeroCoef>
-5.4800

> <Gold.Chemscore.Hbond>
3.5506

> <Gold.Chemscore.Metal>
0.0000

> <Gold.Chemscore.Lipo>
94.2887

> <Gold.Chemscore.Internal_Hbond>
0.0000

> <Gold.Chemscore.DEClash>
1.3790

> <Gold.Chemscore.DEInternal>
1.6548

> <Gold.Chemscore.Rot>
2.0020

> <Gold.Chemscore.Internal.Correction>
   9.000000E+99

> <Gold.Chemscore.Hbonds>
donor molecule, donor type, donor heavy atom, donor atom, acceptor molecule, acceptor atom, score
      L1  H    10    31       P1  7948  1.00
      L1  H    13    50       P1  7921  0.74
      P1  H  7989  7998       L1    23  0.23
      P1  H 10752 10763       L1     2  0.46

> <Gold.Chemscore.Hbond.Weighted>
-11.8590

> <Gold.Chemscore.Metal.Weighted>
-0.0000

> <Gold.Chemscore.Lipo.Weighted>
-11.0318

> <Gold.Chemscore.Internal_Hbond.Weighted>
0.0000

> <Gold.Chemscore.DEClash.Weighted>
1.3790

> <Gold.Chemscore.DEInternal.Weighted>
1.6548

> <Gold.Chemscore.Rot.Weighted>
5.1252

> <Gold.Chemscore.Internal.Correction.Weighted>
   9.000000E+99

> <Gold.Protein.RotatedTorsions>
[ 6907 6896 6895 6894 ] final  110.28 input  -60.11 | X-H torsion
[ 7974 7965 7964 7962 ] final  158.81 input  175.53 | X-H torsion
[ 8008 7997 7996 7995 ] final -150.76 input   59.86 | X-H torsion
[ 10167 10162 10161 10158 ] final    6.56 input  -65.29 | X-H torsion
[ 10718 10713 10712 10709 ] final  122.69 input   66.30 | X-H torsion
[ 10763 10752 10751 10750 ] final   73.02 input  -60.55 | X-H torsion
[ 11005 11000 10999 10996 ] final -107.22 input  -57.11 | X-H torsion

> <Gold.Protein.ActiveResidues>
 VAL166  LYS551  ARG553  GLY616  TRP617  ASP618  TYR619  PRO620  LYS621  CYS622 
 ASP623  PHE694  ASN695  SER759  ASP760  ASP761  ALA762  ILE779  LEU786  VAL792 
 PHE793  MET794  SER795  GLU796  ALA797  LYS798  CYS799  TRP800  GLU811  SER814 

> <Gold.Protein.RotatedAtoms>
  152.5027  133.8823  159.7352 H   0  0  0  0  0  0  0  0  0  0  0  0  # atno 6907 bound_to 6896
  150.9282  133.6789  159.2823 H   0  0  0  0  0  0  0  0  0  0  0  0  # atno 6908 bound_to 6896
  151.4143  135.0994  159.9647 H   0  0  0  0  0  0  0  0  0  0  0  0  # atno 6909 bound_to 6896
  144.7825  139.7531  143.6254 H   0  0  0  0  0  0  0  0  0  0  0  0  # atno 7974 bound_to 7965
  155.6286  140.0689  157.2656 H   0  0  0  0  0  0  0  0  0  0  0  0  # atno 8008 bound_to 7997
  154.4211  140.1771  156.1497 H   0  0  0  0  0  0  0  0  0  0  0  0  # atno 8009 bound_to 7997
  155.9951  140.3341  155.6794 H   0  0  0  0  0  0  0  0  0  0  0  0  # atno 8010 bound_to 7997
  140.6421  143.7750  150.7443 H   0  0  0  0  0  0  0  0  0  0  0  0  # atno 10167 bound_to 10162
  157.5722  131.1082  150.8345 H   0  0  0  0  0  0  0  0  0  0  0  0  # atno 10718 bound_to 10713
  153.0495  135.5078  154.7831 H   0  0  0  0  0  0  0  0  0  0  0  0  # atno 10763 bound_to 10752
  154.6704  135.2952  154.9751 H   0  0  0  0  0  0  0  0  0  0  0  0  # atno 10764 bound_to 10752
  154.0571  135.6696  153.4860 H   0  0  0  0  0  0  0  0  0  0  0  0  # atno 10765 bound_to 10752
  141.0965  133.8962  157.1950 H   0  0  0  0  0  0  0  0  0  0  0  0  # atno 11005 bound_to 11000
  146.2040  139.5352  142.9725 LP  0  0  0  0  0  0  0  0  0  0  0  0  # atno 17320 bound_to 7965
  145.6012  141.0355  143.2017 LP  0  0  0  0  0  0  0  0  0  0  0  0  # atno 17321 bound_to 7965
  140.1384  143.4463  152.2210 LP  0  0  0  0  0  0  0  0  0  0  0  0  # atno 17342 bound_to 10162
  139.5630  144.7417  151.4101 LP  0  0  0  0  0  0  0  0  0  0  0  0  # atno 17343 bound_to 10162
  156.8813  130.5180  149.5291 LP  0  0  0  0  0  0  0  0  0  0  0  0  # atno 17370 bound_to 10713
  156.0768  130.5788  150.9488 LP  0  0  0  0  0  0  0  0  0  0  0  0  # atno 17371 bound_to 10713
  139.9803  135.0100  156.9733 LP  0  0  0  0  0  0  0  0  0  0  0  0  # atno 17394 bound_to 11000
  140.5127  134.0986  155.7274 LP  0  0  0  0  0  0  0  0  0  0  0  0  # atno 17395 bound_to 11000

$$$$
