AV-unprocessed.smi:1239|AV-procd|sdf|5186|dock2
  -GOLD-   22720 4263D 1   1.00000     0.00000
 Structure written by MMmdl.
 48 49  0  0  0  0  0  0  0  0  2 V2000
  145.0248  135.9877  150.5030 C   0  0  0  0  0  0  0  0  0  0  0  0
  145.5928  136.5334  151.8382 C   0  0  1  0  0  0  0  0  0  0  0  0
  146.2871  137.8986  151.5725 C   0  0  0  0  0  0  0  0  0  0  0  0
  147.4661  138.1092  152.4103 N   0  0  0  0  0  0  0  0  0  0  0  0
  147.7608  139.2366  153.0738 C   0  0  0  0  0  0  0  0  0  0  0  0
  147.0636  140.2501  153.0407 O   0  0  0  0  0  0  0  0  0  0  0  0
  148.9152  139.1125  153.7517 N   0  0  0  0  0  0  0  0  0  0  0  0
  149.5446  140.0560  154.6090 C   0  0  0  0  0  0  0  0  0  0  0  0
  150.6065  139.6043  155.4200 C   0  0  0  0  0  0  0  0  0  0  0  0
  151.2495  140.4998  156.2993 C   0  0  0  0  0  0  0  0  0  0  0  0
  150.8199  141.8477  156.3712 C   0  0  0  0  0  0  0  0  0  0  0  0
  151.4097  142.8030  157.2269 N   0  0  0  0  0  0  0  0  0  0  0  0
  152.0436  142.3717  158.4678 C   0  0  0  0  0  0  0  0  0  0  0  0
  151.3798  144.2149  156.8682 C   0  0  0  0  0  0  0  0  0  0  0  0
  149.7882  142.2318  155.5805 N   0  3  0  0  0  0  0  0  0  0  0  0
  149.1458  141.4089  154.7238 C   0  0  0  0  0  0  0  0  0  0  0  0
  144.5715  136.5976  152.9103 N   0  0  0  0  0  0  0  0  0  0  0  0
  143.3625  137.3189  152.4952 C   0  0  0  0  0  0  0  0  0  0  0  0
  142.2878  137.3692  153.5951 C   0  0  0  0  0  0  0  0  0  0  0  0
  141.9519  136.0485  153.9956 O   0  0  0  0  0  0  0  0  0  0  0  0
  143.0813  135.3367  154.4814 C   0  0  0  0  0  0  0  0  0  0  0  0
  144.1640  135.2716  153.3901 C   0  0  0  0  0  0  0  0  0  0  0  0
  145.7716  135.9668  149.7105 H   0  0  0  0  0  0  0  0  0  0  0  0
  144.1918  136.5973  150.1517 H   0  0  0  0  0  0  0  0  0  0  0  0
  144.6781  134.9591  150.5877 H   0  0  0  0  0  0  0  0  0  0  0  0
  146.3712  135.8389  152.1587 H   0  0  0  0  0  0  0  0  0  0  0  0
  146.5235  137.9929  150.5112 H   0  0  0  0  0  0  0  0  0  0  0  0
  145.6284  138.7303  151.8151 H   0  0  0  0  0  0  0  0  0  0  0  0
  148.1035  137.3307  152.4918 H   0  0  0  0  0  0  0  0  0  0  0  0
  149.4181  138.2479  153.6141 H   0  0  0  0  0  0  0  0  0  0  0  0
  150.9333  138.5758  155.3694 H   0  0  0  0  0  0  0  0  0  0  0  0
  152.0635  140.1345  156.9075 H   0  0  0  0  0  0  0  0  0  0  0  0
  152.8653  141.6853  158.2602 H   0  0  0  0  0  0  0  0  0  0  0  0
  151.3226  141.8662  159.1110 H   0  0  0  0  0  0  0  0  0  0  0  0
  152.4493  143.2182  159.0223 H   0  0  0  0  0  0  0  0  0  0  0  0
  150.3514  144.5642  156.7716 H   0  0  0  0  0  0  0  0  0  0  0  0
  151.8958  144.3810  155.9221 H   0  0  0  0  0  0  0  0  0  0  0  0
  151.8694  144.8270  157.6258 H   0  0  0  0  0  0  0  0  0  0  0  0
  148.3340  141.8686  154.1805 H   0  0  0  0  0  0  0  0  0  0  0  0
  143.5984  138.3493  152.2361 H   0  0  0  0  0  0  0  0  0  0  0  0
  142.9435  136.8543  151.6014 H   0  0  0  0  0  0  0  0  0  0  0  0
  142.6404  137.9413  154.4550 H   0  0  0  0  0  0  0  0  0  0  0  0
  141.3914  137.8673  153.2260 H   0  0  0  0  0  0  0  0  0  0  0  0
  143.4673  135.8199  155.3804 H   0  0  0  0  0  0  0  0  0  0  0  0
  142.7712  134.3316  154.7672 H   0  0  0  0  0  0  0  0  0  0  0  0
  143.8014  134.6710  152.5546 H   0  0  0  0  0  0  0  0  0  0  0  0
  145.0106  134.7402  153.8202 H   0  0  0  0  0  0  0  0  0  0  0  0
  149.4745  143.2008  155.6369 H   0  0  0  0  0  0  0  0  0  0  0  0
  1  2  1  0  0  0  0
  1 23  1  0  0  0  0
  1 24  1  0  0  0  0
  1 25  1  0  0  0  0
  2  3  1  0  0  0  0
  2 17  1  0  0  0  0
  2 26  1  0  0  0  0
  3  4  1  0  0  0  0
  3 27  1  0  0  0  0
  3 28  1  0  0  0  0
  4  5  1  0  0  0  0
  4 29  1  0  0  0  0
  5  6  2  0  0  0  0
  5  7  1  0  0  0  0
  7  8  1  0  0  0  0
  7 30  1  0  0  0  0
  8 16  1  0  0  0  0
  8  9  2  0  0  0  0
  9 10  1  0  0  0  0
  9 31  1  0  0  0  0
 10 11  2  0  0  0  0
 10 32  1  0  0  0  0
 11 12  1  0  0  0  0
 11 15  1  0  0  0  0
 12 13  1  0  0  0  0
 12 14  1  0  0  0  0
 13 33  1  0  0  0  0
 13 34  1  0  0  0  0
 13 35  1  0  0  0  0
 14 36  1  0  0  0  0
 14 37  1  0  0  0  0
 14 38  1  0  0  0  0
 15 16  2  0  0  0  0
 15 48  1  0  0  0  0
 16 39  1  0  0  0  0
 17 22  1  0  0  0  0
 17 18  1  0  0  0  0
 18 19  1  0  0  0  0
 18 40  1  0  0  0  0
 18 41  1  0  0  0  0
 19 20  1  0  0  0  0
 19 42  1  0  0  0  0
 19 43  1  0  0  0  0
 20 21  1  0  0  0  0
 21 22  1  0  0  0  0
 21 44  1  0  0  0  0
 21 45  1  0  0  0  0
 22 46  1  0  0  0  0
 22 47  1  0  0  0  0
M  CHG  1  15   1
M  END
> <s_m_source_file>
AV-unprocessed.smi

> <i_m_source_file_index>
1239

> <i_lp_mmshare_version>
43012

> <i_f3d_flags>
0

> <s_epik_input>
W0NIMl0xW0NIMl1PW0NIMl1bQ0gyXU4xW0NASF0oW0NIM10pW0NIMl1bTkhdQyg9TylbTkhdYzJbY0hdW2NIXWMoTihbQ0gzXSlbQ0gzXSluW2NIXTI=

> <s_epik_cmdline>
J2VwaWtfcHl0aG9uJywgJy1waCcsICc3LjAnLCAnLXRuJywgJzgnLCAnLW1hJywgJzIwMCcsICctbWV0YWxfYmluZGluZycsICctaW1hZScsICc8aW5maWxlLm1hZT4nLCAnLW9tYWUnLCAnPG91dGZpbGUubWFlPic=

> <r_lp_tautomer_probability>
0.999994

> <r_epik_Ionization_Penalty>
0.528791

> <r_epik_Ionization_Penalty_Charging>
0.26278

> <r_epik_Ionization_Penalty_Neutral>
0.26601

> <r_epik_State_Penalty>
0.520375

> <r_epik_Charging_Adjusted_Penalty>
0.783156

> <i_epik_Tot_Q>
1

> <i_epik_Tot_abs_Q>
1

> <r_epik_Metal_State_Penalty>
0.806531

> <b_epik_Metal_Only>
0

> <s_lp_Force_Field>
OPLS_2005

> <r_lp_Energy>
38.5694

> <b_lp_Chiralities_Consistent>
1

> <s_lp_Variant>
AV-unprocessed.smi:1239-2

> <Gold.Version>
5.8.1

> <Gold.Id.Protein>
6NUR|6NUR_protein|mol2

> <Gold.PLP.Fitness>
43.0089

> <Gold.PLP.PLP>
-35.9388

> <Gold.PLP.part.hbond>
-3.5804

> <Gold.PLP.part.metal>
0.0000

> <Gold.PLP.part.buried>
4.1523

> <Gold.PLP.part.nonpolar>
-37.1798

> <Gold.PLP.part.repulsive>
0.7300

> <Gold.PLP.ligand.clash>
0.0000

> <Gold.PLP.ligand.torsion>
0.9862

> <Gold.PLP.Chemscore.Hbond>
3.0000

> <Gold.PLP.Chemscore.CHOScore>
0.0000

> <Gold.PLP.Chemscore.Metal>
0.0000

> <Gold.Chemscore.Hbonds>
donor molecule, donor type, donor heavy atom, donor atom, acceptor molecule, acceptor atom, score
      L1  H     4    29       P1  7948  0.95
      L1  H    15    48       P1  8028  2.00

> <Gold.PLP.Chemscore.Internal.Correction>
0.0425

> <Gold.Rescore>
     Score         DG    S(hbond)    S(metal)    S(lipo)     H(rot)  DE(clash)    DE(int)     intcor
     14.07     -17.67       1.94        0.00      80.87       1.46       1.43       2.17       ----

> <Gold.Chemscore.Fitness>
14.0727

> <Gold.Chemscore.DG>
-17.6704

> <Gold.Chemscore.ZeroCoef>
-5.4800

> <Gold.Chemscore.Hbond>
1.9363

> <Gold.Chemscore.Metal>
0.0000

> <Gold.Chemscore.Lipo>
80.8678

> <Gold.Chemscore.Internal_Hbond>
0.0000

> <Gold.Chemscore.DEClash>
1.4272

> <Gold.Chemscore.DEInternal>
2.1705

> <Gold.Chemscore.Rot>
1.4604

> <Gold.Chemscore.Internal.Correction>
   9.000000E+99

> <Gold.Chemscore.Hbonds>
donor molecule, donor type, donor heavy atom, donor atom, acceptor molecule, acceptor atom, score
      L1  H     4    29       P1  7948  0.86
      L1  H    15    48       P1  8028  0.99

> <Gold.Chemscore.Hbond.Weighted>
-6.4674

> <Gold.Chemscore.Metal.Weighted>
-0.0000

> <Gold.Chemscore.Lipo.Weighted>
-9.4615

> <Gold.Chemscore.Internal_Hbond.Weighted>
0.0000

> <Gold.Chemscore.DEClash.Weighted>
1.4272

> <Gold.Chemscore.DEInternal.Weighted>
2.1705

> <Gold.Chemscore.Rot.Weighted>
3.7385

> <Gold.Chemscore.Internal.Correction.Weighted>
   9.000000E+99

> <Gold.Protein.RotatedTorsions>
[ 6907 6896 6895 6894 ] final  176.68 input  -60.11 | X-H torsion
[ 7974 7965 7964 7962 ] final   32.88 input  175.53 | X-H torsion
[ 8008 7997 7996 7995 ] final -160.60 input   59.86 | X-H torsion
[ 10167 10162 10161 10158 ] final  -59.81 input  -65.29 | X-H torsion
[ 10718 10713 10712 10709 ] final   25.09 input   66.30 | X-H torsion
[ 10763 10752 10751 10750 ] final  134.99 input  -60.55 | X-H torsion
[ 11005 11000 10999 10996 ] final   54.31 input  -57.11 | X-H torsion

> <Gold.Protein.ActiveResidues>
 VAL166  LYS551  ARG553  GLY616  TRP617  ASP618  TYR619  PRO620  LYS621  CYS622 
 ASP623  PHE694  ASN695  SER759  ASP760  ASP761  ALA762  ILE779  LEU786  VAL792 
 PHE793  MET794  SER795  GLU796  ALA797  LYS798  CYS799  TRP800  GLU811  SER814 

> <Gold.Protein.RotatedAtoms>
  151.7162  133.3313  159.3303 H   0  0  0  0  0  0  0  0  0  0  0  0  # atno 6907 bound_to 6896
  150.7672  134.6489  159.6286 H   0  0  0  0  0  0  0  0  0  0  0  0  # atno 6908 bound_to 6896
  152.3681  134.6777  160.0237 H   0  0  0  0  0  0  0  0  0  0  0  0  # atno 6909 bound_to 6896
  146.1458  139.6469  142.9132 H   0  0  0  0  0  0  0  0  0  0  0  0  # atno 7974 bound_to 7965
  155.7799  140.0863  157.2064 H   0  0  0  0  0  0  0  0  0  0  0  0  # atno 8008 bound_to 7997
  154.3991  140.1509  156.3097 H   0  0  0  0  0  0  0  0  0  0  0  0  # atno 8009 bound_to 7997
  155.8664  140.3427  155.5793 H   0  0  0  0  0  0  0  0  0  0  0  0  # atno 8010 bound_to 7997
  140.6111  143.2387  151.5706 H   0  0  0  0  0  0  0  0  0  0  0  0  # atno 10167 bound_to 10162
  157.1886  130.6835  149.6141 H   0  0  0  0  0  0  0  0  0  0  0  0  # atno 10718 bound_to 10713
  153.8326  135.3102  155.3420 H   0  0  0  0  0  0  0  0  0  0  0  0  # atno 10763 bound_to 10752
  154.7967  135.4751  154.0180 H   0  0  0  0  0  0  0  0  0  0  0  0  # atno 10764 bound_to 10752
  153.1625  135.6863  153.8813 H   0  0  0  0  0  0  0  0  0  0  0  0  # atno 10765 bound_to 10752
  140.0696  134.5487  155.9060 H   0  0  0  0  0  0  0  0  0  0  0  0  # atno 11005 bound_to 11000
  145.4942  141.0438  143.2576 LP  0  0  0  0  0  0  0  0  0  0  0  0  # atno 17320 bound_to 7965
  144.7844  139.6457  143.7140 LP  0  0  0  0  0  0  0  0  0  0  0  0  # atno 17321 bound_to 7965
  139.5362  144.2774  152.1256 LP  0  0  0  0  0  0  0  0  0  0  0  0  # atno 17342 bound_to 10162
  140.1974  144.4692  150.6448 LP  0  0  0  0  0  0  0  0  0  0  0  0  # atno 17343 bound_to 10162
  155.9714  130.4622  150.6138 LP  0  0  0  0  0  0  0  0  0  0  0  0  # atno 17370 bound_to 10713
  157.3883  131.0791  151.1416 LP  0  0  0  0  0  0  0  0  0  0  0  0  # atno 17371 bound_to 10713
  141.2007  133.6614  156.5909 LP  0  0  0  0  0  0  0  0  0  0  0  0  # atno 17394 bound_to 11000
  140.3646  134.7658  157.4557 LP  0  0  0  0  0  0  0  0  0  0  0  0  # atno 17395 bound_to 11000

$$$$
