AV-unprocessed.smi:2664|AV-procd|sdf|10329|dock1
  -GOLD-   2272014343D 1   1.00000     0.00000
 Structure written by MMmdl.
 44 45  0  0  0  0  0  0  0  0  2 V2000
  145.6986  138.0626  154.0773 O   0  0  0  0  0  0  0  0  0  0  0  0
  146.7622  137.6338  153.6314 C   0  0  0  0  0  0  0  0  0  0  0  0
  147.9213  138.3141  153.6049 N   0  0  0  0  0  0  0  0  0  0  0  0
  148.1753  139.6508  154.0171 C   0  0  0  0  0  0  0  0  0  0  0  0
  147.1396  140.5955  153.8428 C   0  0  0  0  0  0  0  0  0  0  0  0
  147.3380  141.9297  154.2529 C   0  0  0  0  0  0  0  0  0  0  0  0
  148.5101  142.2928  154.8161 N   0  3  0  0  0  0  0  0  0  0  0  0
  149.5240  141.4237  155.0158 C   0  0  0  0  0  0  0  0  0  0  0  0
  149.3835  140.0758  154.6271 C   0  0  0  0  0  0  0  0  0  0  0  0
  146.9141  136.4021  153.1210 N   0  0  0  0  0  0  0  0  0  0  0  0
  145.8633  135.3892  152.9839 C   0  0  1  0  0  0  0  0  0  0  0  0
  144.8878  135.8265  151.8614 C   0  0  0  0  0  0  0  0  0  0  0  0
  145.5524  136.1851  150.5185 C   0  0  0  0  0  0  0  0  0  0  0  0
  146.2293  137.4205  150.6135 O   0  0  0  0  0  0  0  0  0  0  0  0
  146.4994  133.9890  152.7437 C   0  0  0  0  0  0  0  0  0  0  0  0
  145.4470  132.8523  152.7415 C   0  0  0  0  0  0  0  0  0  0  0  0
  146.0777  131.4686  152.5163 C   0  0  0  0  0  0  0  0  0  0  0  0
  147.1649  131.1716  153.5559 C   0  0  0  0  0  0  0  0  0  0  0  0
  148.2305  132.2741  153.5513 C   0  0  0  0  0  0  0  0  0  0  0  0
  147.6030  133.6581  153.7822 C   0  0  0  0  0  0  0  0  0  0  0  0
  148.7293  137.7967  153.2908 H   0  0  0  0  0  0  0  0  0  0  0  0
  146.2008  140.3052  153.3934 H   0  0  0  0  0  0  0  0  0  0  0  0
  146.5989  142.7108  154.1495 H   0  0  0  0  0  0  0  0  0  0  0  0
  150.4100  141.8276  155.4839 H   0  0  0  0  0  0  0  0  0  0  0  0
  150.1996  139.3955  154.8160 H   0  0  0  0  0  0  0  0  0  0  0  0
  147.8306  136.1401  152.7886 H   0  0  0  0  0  0  0  0  0  0  0  0
  145.2900  135.3279  153.9105 H   0  0  0  0  0  0  0  0  0  0  0  0
  144.1638  135.0291  151.6895 H   0  0  0  0  0  0  0  0  0  0  0  0
  144.3090  136.6925  152.1787 H   0  0  0  0  0  0  0  0  0  0  0  0
  146.2472  135.4117  150.1914 H   0  0  0  0  0  0  0  0  0  0  0  0
  144.7921  136.2718  149.7420 H   0  0  0  0  0  0  0  0  0  0  0  0
  145.6304  138.1121  150.3763 H   0  0  0  0  0  0  0  0  0  0  0  0
  146.9710  134.0040  151.7596 H   0  0  0  0  0  0  0  0  0  0  0  0
  144.9019  132.8541  153.6865 H   0  0  0  0  0  0  0  0  0  0  0  0
  144.7077  133.0085  151.9578 H   0  0  0  0  0  0  0  0  0  0  0  0
  145.3065  130.6987  152.5566 H   0  0  0  0  0  0  0  0  0  0  0  0
  146.5073  131.4225  151.5150 H   0  0  0  0  0  0  0  0  0  0  0  0
  146.7166  131.0957  154.5474 H   0  0  0  0  0  0  0  0  0  0  0  0
  147.6262  130.2058  153.3477 H   0  0  0  0  0  0  0  0  0  0  0  0
  148.9765  132.0716  154.3204 H   0  0  0  0  0  0  0  0  0  0  0  0
  148.7600  132.2675  152.5977 H   0  0  0  0  0  0  0  0  0  0  0  0
  148.4012  134.3993  153.7509 H   0  0  0  0  0  0  0  0  0  0  0  0
  147.1836  133.7029  154.7884 H   0  0  0  0  0  0  0  0  0  0  0  0
  148.6333  143.2630  155.1074 H   0  0  0  0  0  0  0  0  0  0  0  0
  1  2  2  0  0  0  0
  2  3  1  0  0  0  0
  2 10  1  0  0  0  0
  3  4  1  0  0  0  0
  3 21  1  0  0  0  0
  4  9  1  0  0  0  0
  4  5  2  0  0  0  0
  5  6  1  0  0  0  0
  5 22  1  0  0  0  0
  6  7  2  0  0  0  0
  6 23  1  0  0  0  0
  7  8  1  0  0  0  0
  7 44  1  0  0  0  0
  8  9  2  0  0  0  0
  8 24  1  0  0  0  0
  9 25  1  0  0  0  0
 10 11  1  0  0  0  0
 10 26  1  0  0  0  0
 11 12  1  0  0  0  0
 11 15  1  0  0  0  0
 11 27  1  0  0  0  0
 12 13  1  0  0  0  0
 12 28  1  0  0  0  0
 12 29  1  0  0  0  0
 13 14  1  0  0  0  0
 13 30  1  0  0  0  0
 13 31  1  0  0  0  0
 14 32  1  0  0  0  0
 15 20  1  0  0  0  0
 15 16  1  0  0  0  0
 15 33  1  0  0  0  0
 16 17  1  0  0  0  0
 16 34  1  0  0  0  0
 16 35  1  0  0  0  0
 17 18  1  0  0  0  0
 17 36  1  0  0  0  0
 17 37  1  0  0  0  0
 18 19  1  0  0  0  0
 18 38  1  0  0  0  0
 18 39  1  0  0  0  0
 19 20  1  0  0  0  0
 19 40  1  0  0  0  0
 19 41  1  0  0  0  0
 20 42  1  0  0  0  0
 20 43  1  0  0  0  0
M  CHG  1   7   1
M  END
> <s_m_source_file>
AV-unprocessed.smi

> <i_m_source_file_index>
2664

> <i_lp_mmshare_version>
43012

> <i_f3d_flags>
0

> <s_epik_input>
W2NIXTFbY0hdbltjSF1bY0hdYzFbTkhdQyg9TylbTkhdW0NASF0oW0NIMl1bQ0gyXVtPSF0pW0NIXTJbQ0gyXVtDSDJdW0NIMl1bQ0gyXVtDSDJdMg==

> <s_epik_cmdline>
J2VwaWtfcHl0aG9uJywgJy1waCcsICc3LjAnLCAnLXRuJywgJzgnLCAnLW1hJywgJzIwMCcsICctbWV0YWxfYmluZGluZycsICctaW1hZScsICc8aW5maWxlLm1hZT4nLCAnLW9tYWUnLCAnPG91dGZpbGUubWFlPic=

> <r_epik_Ionization_Penalty>
1.0085

> <r_epik_Ionization_Penalty_Charging>
1.00848

> <r_epik_Ionization_Penalty_Neutral>
2.14516e-05

> <r_epik_State_Penalty>
1.05769

> <r_epik_Charging_Adjusted_Penalty>
2.06617

> <i_epik_Tot_Q>
1

> <i_epik_Tot_abs_Q>
1

> <r_epik_Metal_State_Penalty>
1.15842

> <b_epik_Metal_Only>
0

> <s_lp_Force_Field>
OPLS_2005

> <r_lp_Energy>
27.8621

> <b_lp_Chiralities_Consistent>
1

> <s_lp_Variant>
AV-unprocessed.smi:2664-4

> <Gold.Version>
5.8.1

> <Gold.Id.Protein>
6NUR|6NUR_protein|mol2

> <Gold.PLP.Fitness>
47.9419

> <Gold.PLP.PLP>
-33.1745

> <Gold.PLP.part.hbond>
-5.2173

> <Gold.PLP.part.metal>
0.0000

> <Gold.PLP.part.buried>
-2.7202

> <Gold.PLP.part.nonpolar>
-26.6055

> <Gold.PLP.part.repulsive>
0.3851

> <Gold.PLP.ligand.clash>
0.0000

> <Gold.PLP.ligand.torsion>
0.5417

> <Gold.PLP.Chemscore.Hbond>
5.2501

> <Gold.PLP.Chemscore.CHOScore>
0.0000

> <Gold.PLP.Chemscore.Metal>
0.0000

> <Gold.Chemscore.Hbonds>
donor molecule, donor type, donor heavy atom, donor atom, acceptor molecule, acceptor atom, score
      L1  H     3    21       P1  7948  0.52
      L1  H     7    44       P1  8028  2.00
      L1  H    10    26       P1  7948  0.81
      L1  H    14    32       P1 10171  0.96
      P1  H  7954  7966       L1    14  0.77

> <Gold.PLP.Chemscore.Internal.Correction>
0.1005

> <Gold.Rescore>
     Score         DG    S(hbond)    S(metal)    S(lipo)     H(rot)  DE(clash)    DE(int)     intcor
     18.37     -21.59       3.99        0.00      73.53       2.27       0.01       3.20       ----

> <Gold.Chemscore.Fitness>
18.3705

> <Gold.Chemscore.DG>
-21.5875

> <Gold.Chemscore.ZeroCoef>
-5.4800

> <Gold.Chemscore.Hbond>
3.9893

> <Gold.Chemscore.Metal>
0.0000

> <Gold.Chemscore.Lipo>
73.5269

> <Gold.Chemscore.Internal_Hbond>
0.0000

> <Gold.Chemscore.DEClash>
0.0128

> <Gold.Chemscore.DEInternal>
3.2042

> <Gold.Chemscore.Rot>
2.2731

> <Gold.Chemscore.Internal.Correction>
   9.000000E+99

> <Gold.Chemscore.Hbonds>
donor molecule, donor type, donor heavy atom, donor atom, acceptor molecule, acceptor atom, score
      L1  H     3    21       P1  7948  0.52
      L1  H     7    44       P1  8028  0.96
      L1  H    10    26       P1  7948  0.78
      L1  H    14    32       P1 10171  0.92
      P1  H  7954  7966       L1    14  0.54

> <Gold.Chemscore.Hbond.Weighted>
-13.3241

> <Gold.Chemscore.Metal.Weighted>
-0.0000

> <Gold.Chemscore.Lipo.Weighted>
-8.6026

> <Gold.Chemscore.Internal_Hbond.Weighted>
0.0000

> <Gold.Chemscore.DEClash.Weighted>
0.0128

> <Gold.Chemscore.DEInternal.Weighted>
3.2042

> <Gold.Chemscore.Rot.Weighted>
5.8192

> <Gold.Chemscore.Internal.Correction.Weighted>
   9.000000E+99

> <Gold.Protein.RotatedTorsions>
[ 6907 6896 6895 6894 ] final  -93.28 input  -60.11 | X-H torsion
[ 7974 7965 7964 7962 ] final   46.13 input  175.53 | X-H torsion
[ 8008 7997 7996 7995 ] final    8.59 input   59.86 | X-H torsion
[ 10167 10162 10161 10158 ] final  122.99 input  -65.29 | X-H torsion
[ 10718 10713 10712 10709 ] final -154.12 input   66.30 | X-H torsion
[ 10763 10752 10751 10750 ] final -178.68 input  -60.55 | X-H torsion
[ 11005 11000 10999 10996 ] final  135.95 input  -57.11 | X-H torsion

> <Gold.Protein.ActiveResidues>
 VAL166  LYS551  ARG553  GLY616  TRP617  ASP618  TYR619  PRO620  LYS621  CYS622 
 ASP623  PHE694  ASN695  SER759  ASP760  ASP761  ALA762  ILE779  LEU786  VAL792 
 PHE793  MET794  SER795  GLU796  ALA797  LYS798  CYS799  TRP800  GLU811  SER814 

> <Gold.Protein.RotatedAtoms>
  150.6920  134.1992  159.4315 H   0  0  0  0  0  0  0  0  0  0  0  0  # atno 6907 bound_to 6896
  151.9959  134.9952  160.0572 H   0  0  0  0  0  0  0  0  0  0  0  0  # atno 6908 bound_to 6896
  152.1624  133.4555  159.4904 H   0  0  0  0  0  0  0  0  0  0  0  0  # atno 6909 bound_to 6896
  146.0418  139.4889  142.9774 H   0  0  0  0  0  0  0  0  0  0  0  0  # atno 7974 bound_to 7965
  154.7689  140.2798  155.6154 H   0  0  0  0  0  0  0  0  0  0  0  0  # atno 8008 bound_to 7997
  156.2930  140.2645  156.2414 H   0  0  0  0  0  0  0  0  0  0  0  0  # atno 8009 bound_to 7997
  154.9925  140.0373  157.2315 H   0  0  0  0  0  0  0  0  0  0  0  0  # atno 8010 bound_to 7997
  139.5826  144.6993  151.3490 H   0  0  0  0  0  0  0  0  0  0  0  0  # atno 10167 bound_to 10162
  156.4950  130.8365  151.2586 H   0  0  0  0  0  0  0  0  0  0  0  0  # atno 10718 bound_to 10713
  154.5446  135.2808  155.1064 H   0  0  0  0  0  0  0  0  0  0  0  0  # atno 10763 bound_to 10752
  154.2533  135.6335  153.5252 H   0  0  0  0  0  0  0  0  0  0  0  0  # atno 10764 bound_to 10752
  152.9987  135.5588  154.5995 H   0  0  0  0  0  0  0  0  0  0  0  0  # atno 10765 bound_to 10752
  140.0013  134.9477  157.0078 H   0  0  0  0  0  0  0  0  0  0  0  0  # atno 11005 bound_to 11000
  145.6872  141.0174  143.1574 LP  0  0  0  0  0  0  0  0  0  0  0  0  # atno 17320 bound_to 7965
  144.7078  139.8490  143.7424 LP  0  0  0  0  0  0  0  0  0  0  0  0  # atno 17321 bound_to 7965
  140.7102  143.7410  150.7553 LP  0  0  0  0  0  0  0  0  0  0  0  0  # atno 17342 bound_to 10162
  140.0946  143.4845  152.2459 LP  0  0  0  0  0  0  0  0  0  0  0  0  # atno 17343 bound_to 10162
  157.7469  131.0000  150.2912 LP  0  0  0  0  0  0  0  0  0  0  0  0  # atno 17370 bound_to 10713
  156.3388  130.3812  149.7426 LP  0  0  0  0  0  0  0  0  0  0  0  0  # atno 17371 bound_to 10713
  140.4722  134.1374  155.7205 LP  0  0  0  0  0  0  0  0  0  0  0  0  # atno 17394 bound_to 11000
  141.1644  133.8731  157.1757 LP  0  0  0  0  0  0  0  0  0  0  0  0  # atno 17395 bound_to 11000

$$$$
