AV-unprocessed.smi:500|AV-procd|sdf|2736|dock2
  -GOLD-   2262023193D 1   1.00000     0.00000
 Structure written by MMmdl.
 46 48  0  0  0  0  0  0  0  0  2 V2000
  153.2136  142.8718  159.9073 C   0  0  0  0  0  0  0  0  0  0  0  0
  151.9249  142.2646  159.3488 C   0  0  0  0  0  0  0  0  0  0  0  0
  152.2496  141.4665  158.2243 O   0  0  0  0  0  0  0  0  0  0  0  0
  151.1063  141.0253  157.5107 C   0  0  0  0  0  0  0  0  0  0  0  0
  151.5229  139.9825  156.4644 C   0  0  0  0  0  0  0  0  0  0  0  0
  150.3674  139.2705  155.8966 N   0  0  0  0  0  0  0  0  0  0  0  0
  150.0023  137.9588  155.9982 C   0  0  0  0  0  0  0  0  0  0  0  0
  150.7102  136.8842  156.7688 C   0  0  2  0  0  0  0  0  0  0  0  0
  151.0606  135.6828  155.8773 C   0  0  0  0  0  0  0  0  0  0  0  0
  149.8994  136.4360  157.8971 N   0  0  0  0  0  0  0  0  0  0  0  0
  149.3767  137.2205  158.8533 C   0  0  0  0  0  0  0  0  0  0  0  0
  149.5429  138.4387  158.9031 O   0  0  0  0  0  0  0  0  0  0  0  0
  148.5768  136.5292  159.8819 C   0  0  0  0  0  0  0  0  0  0  0  0
  148.2516  135.2075  160.0423 C   0  0  0  0  0  0  0  0  0  0  0  0
  147.4469  135.1252  161.2124 C   0  0  0  0  0  0  0  0  0  0  0  0
  147.3344  136.4024  161.6811 C   0  0  0  0  0  0  0  0  0  0  0  0
  148.0139  137.2685  160.8815 O   0  0  0  0  0  0  0  0  0  0  0  0
  148.8392  137.8134  155.2995 N   0  3  0  0  0  0  0  0  0  0  0  0
  148.4759  139.0294  154.7213 C   0  0  0  0  0  0  0  0  0  0  0  0
  147.3926  139.3670  153.9159 C   0  0  0  0  0  0  0  0  0  0  0  0
  147.3185  140.7077  153.4845 C   0  0  0  0  0  0  0  0  0  0  0  0
  148.2963  141.6531  153.8562 C   0  0  0  0  0  0  0  0  0  0  0  0
  149.3878  141.2990  154.6761 C   0  0  0  0  0  0  0  0  0  0  0  0
  149.4544  139.9710  155.0986 C   0  0  0  0  0  0  0  0  0  0  0  0
  153.0063  143.4905  160.7807 H   0  0  0  0  0  0  0  0  0  0  0  0
  153.7059  143.4979  159.1628 H   0  0  0  0  0  0  0  0  0  0  0  0
  153.9151  142.0929  160.2072 H   0  0  0  0  0  0  0  0  0  0  0  0
  151.4373  141.6576  160.1131 H   0  0  0  0  0  0  0  0  0  0  0  0
  151.2322  143.0573  159.0620 H   0  0  0  0  0  0  0  0  0  0  0  0
  150.3804  140.5907  158.1997 H   0  0  0  0  0  0  0  0  0  0  0  0
  150.6234  141.8705  157.0183 H   0  0  0  0  0  0  0  0  0  0  0  0
  152.0534  140.4660  155.6456 H   0  0  0  0  0  0  0  0  0  0  0  0
  152.2200  139.2597  156.8883 H   0  0  0  0  0  0  0  0  0  0  0  0
  151.6546  137.2971  157.1260 H   0  0  0  0  0  0  0  0  0  0  0  0
  151.6818  135.9891  155.0350 H   0  0  0  0  0  0  0  0  0  0  0  0
  150.1679  135.2006  155.4772 H   0  0  0  0  0  0  0  0  0  0  0  0
  151.6173  134.9313  156.4381 H   0  0  0  0  0  0  0  0  0  0  0  0
  149.7099  135.4458  157.9527 H   0  0  0  0  0  0  0  0  0  0  0  0
  148.5545  134.3955  159.3977 H   0  0  0  0  0  0  0  0  0  0  0  0
  147.0055  134.2443  161.6545 H   0  0  0  0  0  0  0  0  0  0  0  0
  146.8333  136.8508  162.5264 H   0  0  0  0  0  0  0  0  0  0  0  0
  146.6436  138.6439  153.6283 H   0  0  0  0  0  0  0  0  0  0  0  0
  146.4970  141.0169  152.8546 H   0  0  0  0  0  0  0  0  0  0  0  0
  148.2085  142.6709  153.5045 H   0  0  0  0  0  0  0  0  0  0  0  0
  150.1338  142.0306  154.9487 H   0  0  0  0  0  0  0  0  0  0  0  0
  148.3379  136.9383  155.2172 H   0  0  0  0  0  0  0  0  0  0  0  0
  1  2  1  0  0  0  0
  1 25  1  0  0  0  0
  1 26  1  0  0  0  0
  1 27  1  0  0  0  0
  2  3  1  0  0  0  0
  2 28  1  0  0  0  0
  2 29  1  0  0  0  0
  3  4  1  0  0  0  0
  4  5  1  0  0  0  0
  4 30  1  0  0  0  0
  4 31  1  0  0  0  0
  5  6  1  0  0  0  0
  5 32  1  0  0  0  0
  5 33  1  0  0  0  0
  6 24  1  0  0  0  0
  6  7  1  0  0  0  0
  7  8  1  0  0  0  0
  7 18  2  0  0  0  0
  8  9  1  0  0  0  0
  8 10  1  0  0  0  0
  8 34  1  0  0  0  0
  9 35  1  0  0  0  0
  9 36  1  0  0  0  0
  9 37  1  0  0  0  0
 10 11  1  0  0  0  0
 10 38  1  0  0  0  0
 11 12  2  0  0  0  0
 11 13  1  0  0  0  0
 13 17  1  0  0  0  0
 13 14  2  0  0  0  0
 14 15  1  0  0  0  0
 14 39  1  0  0  0  0
 15 16  2  0  0  0  0
 15 40  1  0  0  0  0
 16 17  1  0  0  0  0
 16 41  1  0  0  0  0
 18 19  1  0  0  0  0
 18 46  1  0  0  0  0
 19 24  2  0  0  0  0
 19 20  1  0  0  0  0
 20 21  2  0  0  0  0
 20 42  1  0  0  0  0
 21 22  1  0  0  0  0
 21 43  1  0  0  0  0
 22 23  2  0  0  0  0
 22 44  1  0  0  0  0
 23 24  1  0  0  0  0
 23 45  1  0  0  0  0
M  CHG  1  18   1
M  END
> <s_m_source_file>
AV-unprocessed.smi

> <i_m_source_file_index>
500

> <i_lp_mmshare_version>
43012

> <i_f3d_flags>
0

> <s_epik_input>
W0NIM11bQ0gyXU9bQ0gyXVtDSDJdbihjKGMxMilbY0hdW2NIXVtjSF1bY0hdMiljKG4xKVtDQEhdKFtDSDNdKVtOSF1DKD1PKWMzW2NIXVtjSF1bY0hdbzM=

> <s_epik_cmdline>
J2VwaWtfcHl0aG9uJywgJy1waCcsICc3LjAnLCAnLXRuJywgJzgnLCAnLW1hJywgJzIwMCcsICctbWV0YWxfYmluZGluZycsICctaW1hZScsICc8aW5maWxlLm1hZT4nLCAnLW9tYWUnLCAnPG91dGZpbGUubWFlPic=

> <r_epik_Ionization_Penalty>
1.05286

> <r_epik_Ionization_Penalty_Charging>
1.05283

> <r_epik_Ionization_Penalty_Neutral>
2.09263e-05

> <r_epik_State_Penalty>
1.10586

> <r_epik_Charging_Adjusted_Penalty>
2.15869

> <i_epik_Tot_Q>
1

> <i_epik_Tot_abs_Q>
1

> <r_epik_Metal_State_Penalty>
1.22833

> <b_epik_Metal_Only>
0

> <s_lp_Force_Field>
OPLS_2005

> <r_lp_Energy>
11.0053

> <b_lp_Chiralities_Consistent>
1

> <s_lp_Variant>
AV-unprocessed.smi:500-3

> <Gold.Version>
5.8.1

> <Gold.Id.Protein>
6NUR|6NUR_protein|mol2

> <Gold.PLP.Fitness>
42.9524

> <Gold.PLP.PLP>
-38.0656

> <Gold.PLP.part.hbond>
-2.6284

> <Gold.PLP.part.metal>
0.0000

> <Gold.PLP.part.buried>
-2.6032

> <Gold.PLP.part.nonpolar>
-32.3515

> <Gold.PLP.part.repulsive>
0.0852

> <Gold.PLP.ligand.clash>
0.0000

> <Gold.PLP.ligand.torsion>
0.2022

> <Gold.PLP.Chemscore.Hbond>
1.6800

> <Gold.PLP.Chemscore.CHOScore>
0.0000

> <Gold.PLP.Chemscore.Metal>
0.0000

> <Gold.Chemscore.Hbonds>
donor molecule, donor type, donor heavy atom, donor atom, acceptor molecule, acceptor atom, score
      P1  H  6931  6943       L1    17  0.86
      P1  H  6934  6947       L1    17  0.72

> <Gold.PLP.Chemscore.Internal.Correction>
0.2512

> <Gold.Rescore>
     Score         DG    S(hbond)    S(metal)    S(lipo)     H(rot)  DE(clash)    DE(int)     intcor
     15.99     -17.42       1.50        0.00     102.38       1.97       0.05       1.38       ----

> <Gold.Chemscore.Fitness>
15.9875

> <Gold.Chemscore.DG>
-17.4211

> <Gold.Chemscore.ZeroCoef>
-5.4800

> <Gold.Chemscore.Hbond>
1.5022

> <Gold.Chemscore.Metal>
0.0000

> <Gold.Chemscore.Lipo>
102.3831

> <Gold.Chemscore.Internal_Hbond>
0.0000

> <Gold.Chemscore.DEClash>
0.0503

> <Gold.Chemscore.DEInternal>
1.3833

> <Gold.Chemscore.Rot>
1.9746

> <Gold.Chemscore.Internal.Correction>
   9.000000E+99

> <Gold.Chemscore.Hbonds>
donor molecule, donor type, donor heavy atom, donor atom, acceptor molecule, acceptor atom, score
      P1  H  6931  6943       L1    17  0.54
      P1  H  6934  6947       L1    17  0.56

> <Gold.Chemscore.Hbond.Weighted>
-5.0173

> <Gold.Chemscore.Metal.Weighted>
-0.0000

> <Gold.Chemscore.Lipo.Weighted>
-11.9788

> <Gold.Chemscore.Internal_Hbond.Weighted>
0.0000

> <Gold.Chemscore.DEClash.Weighted>
0.0503

> <Gold.Chemscore.DEInternal.Weighted>
1.3833

> <Gold.Chemscore.Rot.Weighted>
5.0550

> <Gold.Chemscore.Internal.Correction.Weighted>
   9.000000E+99

> <Gold.Protein.RotatedTorsions>
[ 6907 6896 6895 6894 ] final  106.96 input  -60.11 | X-H torsion
[ 7974 7965 7964 7962 ] final -120.01 input  175.53 | X-H torsion
[ 8008 7997 7996 7995 ] final  -51.41 input   59.86 | X-H torsion
[ 10167 10162 10161 10158 ] final   78.09 input  -65.29 | X-H torsion
[ 10718 10713 10712 10709 ] final  131.13 input   66.30 | X-H torsion
[ 10763 10752 10751 10750 ] final  -48.02 input  -60.55 | X-H torsion
[ 11005 11000 10999 10996 ] final  -21.92 input  -57.11 | X-H torsion

> <Gold.Protein.ActiveResidues>
 VAL166  LYS551  ARG553  GLY616  TRP617  ASP618  TYR619  PRO620  LYS621  CYS622 
 ASP623  PHE694  ASN695  SER759  ASP760  ASP761  ALA762  ILE779  LEU786  VAL792 
 PHE793  MET794  SER795  GLU796  ALA797  LYS798  CYS799  TRP800  GLU811  SER814 

> <Gold.Protein.RotatedAtoms>
  152.5173  133.9305  159.7577 H   0  0  0  0  0  0  0  0  0  0  0  0  # atno 6907 bound_to 6896
  150.9657  133.6389  159.2753 H   0  0  0  0  0  0  0  0  0  0  0  0  # atno 6908 bound_to 6896
  151.3619  135.0911  159.9490 H   0  0  0  0  0  0  0  0  0  0  0  0  # atno 6909 bound_to 6896
  145.0562  140.8256  143.4180 H   0  0  0  0  0  0  0  0  0  0  0  0  # atno 7974 bound_to 7965
  154.4082  140.1249  156.4824 H   0  0  0  0  0  0  0  0  0  0  0  0  # atno 8008 bound_to 7997
  155.7072  140.3494  155.4938 H   0  0  0  0  0  0  0  0  0  0  0  0  # atno 8009 bound_to 7997
  155.9333  140.1073  157.1105 H   0  0  0  0  0  0  0  0  0  0  0  0  # atno 8010 bound_to 7997
  139.9746  144.5870  150.7954 H   0  0  0  0  0  0  0  0  0  0  0  0  # atno 10167 bound_to 10162
  157.4997  131.1093  150.9444 H   0  0  0  0  0  0  0  0  0  0  0  0  # atno 10718 bound_to 10713
  154.0709  135.6605  153.4824 H   0  0  0  0  0  0  0  0  0  0  0  0  # atno 10763 bound_to 10752
  153.0391  135.5157  154.7567 H   0  0  0  0  0  0  0  0  0  0  0  0  # atno 10764 bound_to 10752
  154.6633  135.3018  154.9806 H   0  0  0  0  0  0  0  0  0  0  0  0  # atno 10765 bound_to 10752
  140.8607  133.7790  156.0072 H   0  0  0  0  0  0  0  0  0  0  0  0  # atno 11005 bound_to 11000
  145.1466  139.2540  143.5463 LP  0  0  0  0  0  0  0  0  0  0  0  0  # atno 17320 bound_to 7965
  146.3521  140.1157  142.8602 LP  0  0  0  0  0  0  0  0  0  0  0  0  # atno 17321 bound_to 7965
  140.7510  143.2965  151.3191 LP  0  0  0  0  0  0  0  0  0  0  0  0  # atno 17342 bound_to 10162
  139.6455  144.0459  152.2587 LP  0  0  0  0  0  0  0  0  0  0  0  0  # atno 17343 bound_to 10162
  157.0119  130.5640  149.5322 LP  0  0  0  0  0  0  0  0  0  0  0  0  # atno 17370 bound_to 10713
  156.0221  130.5316  150.8306 LP  0  0  0  0  0  0  0  0  0  0  0  0  # atno 17371 bound_to 10713
  140.8686  134.2754  157.5201 LP  0  0  0  0  0  0  0  0  0  0  0  0  # atno 17394 bound_to 11000
  139.8707  134.9555  156.4209 LP  0  0  0  0  0  0  0  0  0  0  0  0  # atno 17395 bound_to 11000

$$$$
