AV-unprocessed.smi:3125|AV-procd|sdf|11908|dock6
  -GOLD-   2272017293D 1   1.00000     0.00000
 Structure written by MMmdl.
 28 29  0  0  0  0  0  0  0  0  2 V2000
  152.2540  139.1896  155.0330 C   0  0  0  0  0  0  0  0  0  0  0  0
  151.5089  140.0615  155.9209 N   0  0  0  0  0  0  0  0  0  0  0  0
  151.9385  140.5040  157.1653 C   0  0  0  0  0  0  0  0  0  0  0  0
  150.9426  141.3064  157.6654 C   0  0  0  0  0  0  0  0  0  0  0  0
  149.9001  141.3693  156.7484 N   0  0  0  0  0  0  0  0  0  0  0  0
  150.2889  140.6049  155.7309 C   0  0  0  0  0  0  0  0  0  0  0  0
  149.4602  140.3891  154.4949 C   0  0  2  0  0  0  0  0  0  0  0  0
  148.0811  141.0680  154.6027 C   0  0  0  0  0  0  0  0  0  0  0  0
  147.2498  140.8071  153.3372 C   0  0  0  0  0  0  0  0  0  0  0  0
  147.1463  139.3002  153.0499 C   0  0  0  0  0  0  0  0  0  0  0  0
  148.4920  138.6958  152.9434 N   0  3  0  0  0  0  0  0  0  0  0  0
  149.3098  138.8902  154.1612 C   0  0  0  0  0  0  0  0  0  0  0  0
  153.2246  138.9489  155.4681 H   0  0  0  0  0  0  0  0  0  0  0  0
  152.4130  139.6854  154.0750 H   0  0  0  0  0  0  0  0  0  0  0  0
  151.7008  138.2636  154.8747 H   0  0  0  0  0  0  0  0  0  0  0  0
  152.8942  140.2204  157.5816 H   0  0  0  0  0  0  0  0  0  0  0  0
  150.8967  141.8381  158.6043 H   0  0  0  0  0  0  0  0  0  0  0  0
  149.9759  140.8476  153.6513 H   0  0  0  0  0  0  0  0  0  0  0  0
  147.5441  140.6874  155.4727 H   0  0  0  0  0  0  0  0  0  0  0  0
  148.2001  142.1415  154.7549 H   0  0  0  0  0  0  0  0  0  0  0  0
  146.2532  141.2347  153.4509 H   0  0  0  0  0  0  0  0  0  0  0  0
  147.7078  141.3128  152.4859 H   0  0  0  0  0  0  0  0  0  0  0  0
  146.5886  138.7993  153.8429 H   0  0  0  0  0  0  0  0  0  0  0  0
  146.6031  139.1283  152.1205 H   0  0  0  0  0  0  0  0  0  0  0  0
  148.3941  137.7056  152.7691 H   0  0  0  0  0  0  0  0  0  0  0  0
  150.2889  138.4369  154.0036 H   0  0  0  0  0  0  0  0  0  0  0  0
  148.8409  138.3557  154.9888 H   0  0  0  0  0  0  0  0  0  0  0  0
  148.9730  139.1180  152.1621 H   0  0  0  0  0  0  0  0  0  0  0  0
  1  2  1  0  0  0  0
  1 13  1  0  0  0  0
  1 14  1  0  0  0  0
  1 15  1  0  0  0  0
  2  6  1  0  0  0  0
  2  3  1  0  0  0  0
  3  4  2  0  0  0  0
  3 16  1  0  0  0  0
  4  5  1  0  0  0  0
  4 17  1  0  0  0  0
  5  6  2  0  0  0  0
  6  7  1  0  0  0  0
  7 12  1  0  0  0  0
  7  8  1  0  0  0  0
  7 18  1  0  0  0  0
  8  9  1  0  0  0  0
  8 19  1  0  0  0  0
  8 20  1  0  0  0  0
  9 10  1  0  0  0  0
  9 21  1  0  0  0  0
  9 22  1  0  0  0  0
 10 11  1  0  0  0  0
 10 23  1  0  0  0  0
 10 24  1  0  0  0  0
 11 12  1  0  0  0  0
 11 25  1  0  0  0  0
 11 28  1  0  0  0  0
 12 26  1  0  0  0  0
 12 27  1  0  0  0  0
M  CHG  1  11   1
M  END
> <s_m_source_file>
AV-unprocessed.smi

> <i_m_source_file_index>
3125

> <i_lp_mmshare_version>
43012

> <i_f3d_flags>
0

> <s_epik_input>
W0NIM11uMVtjSF1bY0hdbmMxW0NAQEhdMltDSDJdW0NIMl1bQ0gyXVtOSF1bQ0gyXTI=

> <s_epik_cmdline>
J2VwaWtfcHl0aG9uJywgJy1waCcsICc3LjAnLCAnLXRuJywgJzgnLCAnLW1hJywgJzIwMCcsICctbWV0YWxfYmluZGluZycsICctaW1hZScsICc8aW5maWxlLm1hZT4nLCAnLW9tYWUnLCAnPG91dGZpbGUubWFlPic=

> <r_lp_tautomer_probability>
1

> <r_epik_Ionization_Penalty>
0.177191

> <r_epik_Ionization_Penalty_Charging>
0.177191

> <r_epik_Ionization_Penalty_Neutral>
7.05152e-14

> <r_epik_State_Penalty>
0.46716

> <r_epik_Charging_Adjusted_Penalty>
0.644351

> <i_epik_Tot_Q>
1

> <i_epik_Tot_abs_Q>
1

> <r_epik_Metal_State_Penalty>
0.000708398

> <b_epik_Metal_Only>
0

> <s_lp_Force_Field>
OPLS_2005

> <r_lp_Energy>
12.4076

> <b_lp_Chiralities_Consistent>
1

> <s_lp_Variant>
AV-unprocessed.smi:3125-3

> <Gold.Version>
5.8.1

> <Gold.Id.Protein>
6NUR|6NUR_protein|mol2

> <Gold.PLP.Fitness>
34.9271

> <Gold.PLP.PLP>
-26.7346

> <Gold.PLP.part.hbond>
-1.8425

> <Gold.PLP.part.metal>
0.0000

> <Gold.PLP.part.buried>
-1.6579

> <Gold.PLP.part.nonpolar>
-23.4138

> <Gold.PLP.part.repulsive>
0.1487

> <Gold.PLP.ligand.clash>
0.0000

> <Gold.PLP.ligand.torsion>
0.0895

> <Gold.PLP.Chemscore.Hbond>
2.7818

> <Gold.PLP.Chemscore.CHOScore>
0.0000

> <Gold.PLP.Chemscore.Metal>
0.0000

> <Gold.Chemscore.Hbonds>
donor molecule, donor type, donor heavy atom, donor atom, acceptor molecule, acceptor atom, score
      L1  H    11    25       P1  7948  1.89
      L1  H    11    28       P1  7957  0.89

> <Gold.PLP.Chemscore.Internal.Correction>
0.0262

> <Gold.Rescore>
     Score         DG    S(hbond)    S(metal)    S(lipo)     H(rot)  DE(clash)    DE(int)     intcor
     15.46     -15.50       1.91        0.00      53.08       1.00       0.02       0.01       ----

> <Gold.Chemscore.Fitness>
15.4633

> <Gold.Chemscore.DG>
-15.4955

> <Gold.Chemscore.ZeroCoef>
-5.4800

> <Gold.Chemscore.Hbond>
1.9058

> <Gold.Chemscore.Metal>
0.0000

> <Gold.Chemscore.Lipo>
53.0765

> <Gold.Chemscore.Internal_Hbond>
0.0000

> <Gold.Chemscore.DEClash>
0.0174

> <Gold.Chemscore.DEInternal>
0.0148

> <Gold.Chemscore.Rot>
1.0000

> <Gold.Chemscore.Internal.Correction>
   9.000000E+99

> <Gold.Chemscore.Hbonds>
donor molecule, donor type, donor heavy atom, donor atom, acceptor molecule, acceptor atom, score
      L1  H    11    25       P1  7948  0.91
      L1  H    11    28       P1  7957  0.84

> <Gold.Chemscore.Hbond.Weighted>
-6.3655

> <Gold.Chemscore.Metal.Weighted>
-0.0000

> <Gold.Chemscore.Lipo.Weighted>
-6.2099

> <Gold.Chemscore.Internal_Hbond.Weighted>
0.0000

> <Gold.Chemscore.DEClash.Weighted>
0.0174

> <Gold.Chemscore.DEInternal.Weighted>
0.0148

> <Gold.Chemscore.Rot.Weighted>
2.5600

> <Gold.Chemscore.Internal.Correction.Weighted>
   9.000000E+99

> <Gold.Protein.RotatedTorsions>
[ 6907 6896 6895 6894 ] final   25.16 input  -60.11 | X-H torsion
[ 7974 7965 7964 7962 ] final  -16.63 input  175.53 | X-H torsion
[ 8008 7997 7996 7995 ] final    2.12 input   59.86 | X-H torsion
[ 10167 10162 10161 10158 ] final   53.26 input  -65.29 | X-H torsion
[ 10718 10713 10712 10709 ] final   72.44 input   66.30 | X-H torsion
[ 10763 10752 10751 10750 ] final  168.76 input  -60.55 | X-H torsion
[ 11005 11000 10999 10996 ] final   51.26 input  -57.11 | X-H torsion

> <Gold.Protein.ActiveResidues>
 VAL166  LYS551  ARG553  GLY616  TRP617  ASP618  TYR619  PRO620  LYS621  CYS622 
 ASP623  PHE694  ASN695  SER759  ASP760  ASP761  ALA762  ILE779  LEU786  VAL792 
 PHE793  MET794  SER795  GLU796  ALA797  LYS798  CYS799  TRP800  GLU811  SER814 

> <Gold.Protein.RotatedAtoms>
  151.9684  135.0089  160.0551 H   0  0  0  0  0  0  0  0  0  0  0  0  # atno 6907 bound_to 6896
  152.1805  133.4700  159.4964 H   0  0  0  0  0  0  0  0  0  0  0  0  # atno 6908 bound_to 6896
  150.6917  134.1756  159.4272 H   0  0  0  0  0  0  0  0  0  0  0  0  # atno 6909 bound_to 6896
  146.1979  140.3664  142.8434 H   0  0  0  0  0  0  0  0  0  0  0  0  # atno 7974 bound_to 7965
  154.6878  140.2646  155.6843 H   0  0  0  0  0  0  0  0  0  0  0  0  # atno 8008 bound_to 7997
  156.2721  140.2797  156.1368 H   0  0  0  0  0  0  0  0  0  0  0  0  # atno 8009 bound_to 7997
  155.0940  140.0373  157.2667 H   0  0  0  0  0  0  0  0  0  0  0  0  # atno 8010 bound_to 7997
  140.2426  144.3567  150.6375 H   0  0  0  0  0  0  0  0  0  0  0  0  # atno 10167 bound_to 10162
  157.6501  130.9579  150.0929 H   0  0  0  0  0  0  0  0  0  0  0  0  # atno 10718 bound_to 10713
  154.3733  135.2753  155.2254 H   0  0  0  0  0  0  0  0  0  0  0  0  # atno 10763 bound_to 10752
  154.4392  135.5958  153.6121 H   0  0  0  0  0  0  0  0  0  0  0  0  # atno 10764 bound_to 10752
  152.9837  135.6014  154.3967 H   0  0  0  0  0  0  0  0  0  0  0  0  # atno 10765 bound_to 10752
  140.0948  134.5160  155.8817 H   0  0  0  0  0  0  0  0  0  0  0  0  # atno 11005 bound_to 11000
  144.8619  140.7151  143.6102 LP  0  0  0  0  0  0  0  0  0  0  0  0  # atno 17320 bound_to 7965
  145.3584  139.1688  143.4397 LP  0  0  0  0  0  0  0  0  0  0  0  0  # atno 17321 bound_to 7965
  140.6102  143.2169  151.6901 LP  0  0  0  0  0  0  0  0  0  0  0  0  # atno 17342 bound_to 10162
  139.5072  144.3654  152.0522 LP  0  0  0  0  0  0  0  0  0  0  0  0  # atno 17343 bound_to 10162
  156.1873  130.3653  149.8956 LP  0  0  0  0  0  0  0  0  0  0  0  0  # atno 17370 bound_to 10713
  156.6893  130.8889  151.3586 LP  0  0  0  0  0  0  0  0  0  0  0  0  # atno 17371 bound_to 10713
  141.2089  133.6678  156.6400 LP  0  0  0  0  0  0  0  0  0  0  0  0  # atno 17394 bound_to 11000
  140.3302  134.7935  157.4320 LP  0  0  0  0  0  0  0  0  0  0  0  0  # atno 17395 bound_to 11000

$$$$
