AV-unprocessed.smi:500|AV-procd|sdf|2741|dock10
  -GOLD-   2262023203D 1   1.00000     0.00000
 Structure written by MMmdl.
 45 47  0  0  0  0  0  0  0  0  3 V2000
  147.7858  140.6932  153.6985 C   0  0  0  0  0  0  0  0  0  0  0  0
  149.1745  140.5465  154.3354 C   0  0  0  0  0  0  0  0  0  0  0  0
  149.1238  140.6416  155.7519 O   0  0  0  0  0  0  0  0  0  0  0  0
  150.1917  139.9859  156.4218 C   0  0  0  0  0  0  0  0  0  0  0  0
  150.1058  140.2650  157.9293 C   0  0  0  0  0  0  0  0  0  0  0  0
  151.2303  139.6607  158.6748 N   0  0  0  0  0  0  0  0  0  0  0  0
  151.5310  138.3523  158.9592 C   0  0  0  0  0  0  0  0  0  0  0  0
  150.7677  137.1073  158.5831 C   0  0  1  0  0  0  0  0  0  0  0  0
  151.7083  136.0805  157.9376 C   0  0  0  0  0  0  0  0  0  0  0  0
  150.1171  136.4991  159.7450 N   0  5  0  0  0  0  0  0  0  0  0  0
  148.7839  136.2197  159.8153 C   0  0  0  0  0  0  0  0  0  0  0  0
  147.9563  136.0905  158.9067 O   0  0  0  0  0  0  0  0  0  0  0  0
  148.3122  136.1042  161.2144 C   0  0  0  0  0  0  0  0  0  0  0  0
  148.0964  135.0180  162.0246 C   0  0  0  0  0  0  0  0  0  0  0  0
  147.6220  135.5199  163.2680 C   0  0  0  0  0  0  0  0  0  0  0  0
  147.5731  136.8767  163.1296 C   0  0  0  0  0  0  0  0  0  0  0  0
  147.9846  137.2472  161.8868 O   0  0  0  0  0  0  0  0  0  0  0  0
  152.6847  138.3595  159.6870 N   0  3  0  0  0  0  0  0  0  0  0  0
  153.1185  139.6676  159.8884 C   0  0  0  0  0  0  0  0  0  0  0  0
  154.2242  140.1624  160.5726 C   0  0  0  0  0  0  0  0  0  0  0  0
  154.3751  141.5638  160.6009 C   0  0  0  0  0  0  0  0  0  0  0  0
  153.4464  142.4139  159.9668 C   0  0  0  0  0  0  0  0  0  0  0  0
  152.3301  141.8989  159.2753 C   0  0  0  0  0  0  0  0  0  0  0  0
  152.1886  140.5105  159.2472 C   0  0  0  0  0  0  0  0  0  0  0  0
  147.8355  140.5196  152.6234 H   0  0  0  0  0  0  0  0  0  0  0  0
  147.3752  141.6916  153.8478 H   0  0  0  0  0  0  0  0  0  0  0  0
  147.0844  139.9725  154.1199 H   0  0  0  0  0  0  0  0  0  0  0  0
  149.5728  139.5622  154.0893 H   0  0  0  0  0  0  0  0  0  0  0  0
  149.8749  141.2736  153.9215 H   0  0  0  0  0  0  0  0  0  0  0  0
  150.1419  138.9107  156.2474 H   0  0  0  0  0  0  0  0  0  0  0  0
  151.1521  140.3312  156.0399 H   0  0  0  0  0  0  0  0  0  0  0  0
  150.1120  141.3395  158.1141 H   0  0  0  0  0  0  0  0  0  0  0  0
  149.1627  139.9030  158.3369 H   0  0  0  0  0  0  0  0  0  0  0  0
  150.0295  137.3857  157.8303 H   0  0  0  0  0  0  0  0  0  0  0  0
  152.1875  136.4961  157.0506 H   0  0  0  0  0  0  0  0  0  0  0  0
  151.1636  135.1880  157.6274 H   0  0  0  0  0  0  0  0  0  0  0  0
  152.4955  135.7678  158.6248 H   0  0  0  0  0  0  0  0  0  0  0  0
  148.2612  133.9852  161.7548 H   0  0  0  0  0  0  0  0  0  0  0  0
  147.3492  134.9590  164.1494 H   0  0  0  0  0  0  0  0  0  0  0  0
  147.2829  137.6881  163.7805 H   0  0  0  0  0  0  0  0  0  0  0  0
  154.9320  139.5109  161.0635 H   0  0  0  0  0  0  0  0  0  0  0  0
  155.2174  141.9948  161.1224 H   0  0  0  0  0  0  0  0  0  0  0  0
  153.5906  143.4834  160.0135 H   0  0  0  0  0  0  0  0  0  0  0  0
  151.6221  142.5630  158.8028 H   0  0  0  0  0  0  0  0  0  0  0  0
  153.1205  137.5163  160.0373 H   0  0  0  0  0  0  0  0  0  0  0  0
  1  2  1  0  0  0  0
  1 25  1  0  0  0  0
  1 26  1  0  0  0  0
  1 27  1  0  0  0  0
  2  3  1  0  0  0  0
  2 28  1  0  0  0  0
  2 29  1  0  0  0  0
  3  4  1  0  0  0  0
  4  5  1  0  0  0  0
  4 30  1  0  0  0  0
  4 31  1  0  0  0  0
  5  6  1  0  0  0  0
  5 32  1  0  0  0  0
  5 33  1  0  0  0  0
  6 24  1  0  0  0  0
  6  7  1  0  0  0  0
  7  8  1  0  0  0  0
  7 18  2  0  0  0  0
  8  9  1  0  0  0  0
  8 10  1  0  0  0  0
  8 34  1  0  0  0  0
  9 35  1  0  0  0  0
  9 36  1  0  0  0  0
  9 37  1  0  0  0  0
 10 11  1  0  0  0  0
 11 12  2  0  0  0  0
 11 13  1  0  0  0  0
 13 17  1  0  0  0  0
 13 14  2  0  0  0  0
 14 15  1  0  0  0  0
 14 38  1  0  0  0  0
 15 16  2  0  0  0  0
 15 39  1  0  0  0  0
 16 17  1  0  0  0  0
 16 40  1  0  0  0  0
 18 19  1  0  0  0  0
 18 45  1  0  0  0  0
 19 24  2  0  0  0  0
 19 20  1  0  0  0  0
 20 21  2  0  0  0  0
 20 41  1  0  0  0  0
 21 22  1  0  0  0  0
 21 42  1  0  0  0  0
 22 23  2  0  0  0  0
 22 43  1  0  0  0  0
 23 24  1  0  0  0  0
 23 44  1  0  0  0  0
M  CHG  1  10  -1
M  CHG  1  18   1
M  END
> <s_m_source_file>
AV-unprocessed.smi

> <i_m_source_file_index>
500

> <i_lp_mmshare_version>
43012

> <i_f3d_flags>
0

> <s_epik_input>
W0NIM11bQ0gyXU9bQ0gyXVtDSDJdbihjKGMxMilbY0hdW2NIXVtjSF1bY0hdMiljKG4xKVtDQEhdKFtDSDNdKVtOSF1DKD1PKWMzW2NIXVtjSF1bY0hdbzM=

> <s_epik_cmdline>
J2VwaWtfcHl0aG9uJywgJy1waCcsICc3LjAnLCAnLXRuJywgJzgnLCAnLW1hJywgJzIwMCcsICctbWV0YWxfYmluZGluZycsICctaW1hZScsICc8aW5maWxlLm1hZT4nLCAnLW9tYWUnLCAnPG91dGZpbGUubWFlPic=

> <r_epik_Ionization_Penalty>
6.22753

> <r_epik_Ionization_Penalty_Charging>
6.22753

> <r_epik_Ionization_Penalty_Neutral>
2.56065e-12

> <r_epik_State_Penalty>
7.17947

> <r_epik_Charging_Adjusted_Penalty>
13.407

> <i_epik_Tot_Q>
0

> <i_epik_Tot_abs_Q>
2

> <r_epik_Metal_State_Penalty>
3.2092

> <b_epik_Metal_Only>
1

> <s_lp_Force_Field>
OPLS_2005

> <r_lp_Energy>
10.9404

> <b_lp_Chiralities_Consistent>
1

> <s_lp_Variant>
AV-unprocessed.smi:500-8

> <Gold.Version>
5.8.1

> <Gold.Id.Protein>
6NUR|6NUR_protein|mol2

> <Gold.PLP.Fitness>
55.1063

> <Gold.PLP.PLP>
-47.8552

> <Gold.PLP.part.hbond>
-2.9788

> <Gold.PLP.part.metal>
0.0000

> <Gold.PLP.part.buried>
-5.6681

> <Gold.PLP.part.nonpolar>
-39.2235

> <Gold.PLP.part.repulsive>
0.1862

> <Gold.PLP.ligand.clash>
0.0000

> <Gold.PLP.ligand.torsion>
2.0433

> <Gold.PLP.Chemscore.Hbond>
3.7200

> <Gold.PLP.Chemscore.CHOScore>
0.0000

> <Gold.PLP.Chemscore.Metal>
0.0000

> <Gold.Chemscore.Hbonds>
donor molecule, donor type, donor heavy atom, donor atom, acceptor molecule, acceptor atom, score
      P1  H  6896  6908       L1    10  2.00
      P1  H  6931  6943       L1    17  0.80
      P1  H  6934  6947       L1    17  0.37

> <Gold.PLP.Chemscore.Internal.Correction>
0.1777

> <Gold.Rescore>
     Score         DG    S(hbond)    S(metal)    S(lipo)     H(rot)  DE(clash)    DE(int)     intcor
     18.03     -20.32       1.88        0.00     114.77       1.90       0.02       2.27       ----

> <Gold.Chemscore.Fitness>
18.0325

> <Gold.Chemscore.DG>
-20.3209

> <Gold.Chemscore.ZeroCoef>
-5.4800

> <Gold.Chemscore.Hbond>
1.8786

> <Gold.Chemscore.Metal>
0.0000

> <Gold.Chemscore.Lipo>
114.7733

> <Gold.Chemscore.Internal_Hbond>
0.0000

> <Gold.Chemscore.DEClash>
0.0197

> <Gold.Chemscore.DEInternal>
2.2688

> <Gold.Chemscore.Rot>
1.8993

> <Gold.Chemscore.Internal.Correction>
   9.000000E+99

> <Gold.Chemscore.Hbonds>
donor molecule, donor type, donor heavy atom, donor atom, acceptor molecule, acceptor atom, score
      P1  H  6896  6908       L1    10  0.14
      P1  H  6931  6943       L1    17  0.58
      P1  H  6934  6947       L1    17  0.36

> <Gold.Chemscore.Hbond.Weighted>
-6.2746

> <Gold.Chemscore.Metal.Weighted>
-0.0000

> <Gold.Chemscore.Lipo.Weighted>
-13.4285

> <Gold.Chemscore.Internal_Hbond.Weighted>
0.0000

> <Gold.Chemscore.DEClash.Weighted>
0.0197

> <Gold.Chemscore.DEInternal.Weighted>
2.2688

> <Gold.Chemscore.Rot.Weighted>
4.8622

> <Gold.Chemscore.Internal.Correction.Weighted>
   9.000000E+99

> <Gold.Protein.RotatedTorsions>
[ 6907 6896 6895 6894 ] final -161.41 input  -60.11 | X-H torsion
[ 7974 7965 7964 7962 ] final  -28.69 input  175.53 | X-H torsion
[ 8008 7997 7996 7995 ] final -173.05 input   59.86 | X-H torsion
[ 10167 10162 10161 10158 ] final -168.75 input  -65.29 | X-H torsion
[ 10718 10713 10712 10709 ] final    8.72 input   66.30 | X-H torsion
[ 10763 10752 10751 10750 ] final   43.41 input  -60.55 | X-H torsion
[ 11005 11000 10999 10996 ] final -120.79 input  -57.11 | X-H torsion

> <Gold.Protein.ActiveResidues>
 VAL166  LYS551  ARG553  GLY616  TRP617  ASP618  TYR619  PRO620  LYS621  CYS622 
 ASP623  PHE694  ASN695  SER759  ASP760  ASP761  ALA762  ILE779  LEU786  VAL792 
 PHE793  MET794  SER795  GLU796  ALA797  LYS798  CYS799  TRP800  GLU811  SER814 

> <Gold.Protein.RotatedAtoms>
  151.3642  133.3878  159.2692 H   0  0  0  0  0  0  0  0  0  0  0  0  # atno 6907 bound_to 6896
  150.9701  134.9076  159.7793 H   0  0  0  0  0  0  0  0  0  0  0  0  # atno 6908 bound_to 6896
  152.5181  134.3604  159.9335 H   0  0  0  0  0  0  0  0  0  0  0  0  # atno 6909 bound_to 6896
  146.1270  140.5316  142.8710 H   0  0  0  0  0  0  0  0  0  0  0  0  # atno 7974 bound_to 7965
  155.9525  140.1129  157.0965 H   0  0  0  0  0  0  0  0  0  0  0  0  # atno 8008 bound_to 7997
  154.4113  140.1198  156.5138 H   0  0  0  0  0  0  0  0  0  0  0  0  # atno 8009 bound_to 7997
  155.6824  140.3473  155.4863 H   0  0  0  0  0  0  0  0  0  0  0  0  # atno 8010 bound_to 7997
  139.5965  144.1101  152.1695 H   0  0  0  0  0  0  0  0  0  0  0  0  # atno 10167 bound_to 10162
  156.9558  130.5914  149.5659 H   0  0  0  0  0  0  0  0  0  0  0  0  # atno 10718 bound_to 10713
  152.9861  135.6102  154.3107 H   0  0  0  0  0  0  0  0  0  0  0  0  # atno 10763 bound_to 10752
  154.2822  135.2777  155.2694 H   0  0  0  0  0  0  0  0  0  0  0  0  # atno 10764 bound_to 10752
  154.5027  135.5862  153.6600 H   0  0  0  0  0  0  0  0  0  0  0  0  # atno 10765 bound_to 10752
  141.0118  134.0253  157.3403 H   0  0  0  0  0  0  0  0  0  0  0  0  # atno 11005 bound_to 11000
  144.7652  140.5514  143.6708 LP  0  0  0  0  0  0  0  0  0  0  0  0  # atno 17320 bound_to 7965
  145.5344  139.1475  143.3481 LP  0  0  0  0  0  0  0  0  0  0  0  0  # atno 17321 bound_to 7965
  140.0687  144.5797  150.7208 LP  0  0  0  0  0  0  0  0  0  0  0  0  # atno 17342 bound_to 10162
  140.7216  143.2594  151.4259 LP  0  0  0  0  0  0  0  0  0  0  0  0  # atno 17343 bound_to 10162
  156.0343  130.5432  150.8614 LP  0  0  0  0  0  0  0  0  0  0  0  0  # atno 17370 bound_to 10713
  157.5691  131.0946  150.9445 LP  0  0  0  0  0  0  0  0  0  0  0  0  # atno 17371 bound_to 10713
  139.9094  135.0187  156.7627 LP  0  0  0  0  0  0  0  0  0  0  0  0  # atno 17394 bound_to 11000
  140.6721  133.9550  155.7862 LP  0  0  0  0  0  0  0  0  0  0  0  0  # atno 17395 bound_to 11000

$$$$
