AV-unprocessed.smi:704|AV-procd|sdf|3442|dock7
  -GOLD-   22720 0433D 1   1.00000     0.00000
 Structure written by MMmdl.
 38 39  0  0  0  0  0  0  0  0  1 V2000
  148.7078  145.0309  160.6385 C   0  0  0  0  0  0  0  0  0  0  0  0
  149.2685  144.3240  159.5374 O   0  0  0  0  0  0  0  0  0  0  0  0
  150.5595  143.8440  159.6498 C   0  0  0  0  0  0  0  0  0  0  0  0
  151.2328  144.0683  160.8062 N   0  0  0  0  0  0  0  0  0  0  0  0
  152.4944  143.6040  160.9164 C   0  0  0  0  0  0  0  0  0  0  0  0
  153.1498  142.9031  159.8876 C   0  0  0  0  0  0  0  0  0  0  0  0
  152.4535  142.6684  158.6874 C   0  0  0  0  0  0  0  0  0  0  0  0
  151.1231  143.1367  158.5622 C   0  0  0  0  0  0  0  0  0  0  0  0
  150.3375  142.9694  157.3888 N   0  0  0  0  0  0  0  0  0  0  0  0
  150.3954  141.9830  156.4785 C   0  0  0  0  0  0  0  0  0  0  0  0
  151.1740  141.0302  156.5091 O   0  0  0  0  0  0  0  0  0  0  0  0
  149.4677  142.1498  155.5253 N   0  0  0  0  0  0  0  0  0  0  0  0
  149.2424  141.2417  154.4031 C   0  0  2  0  0  0  0  0  0  0  0  0
  147.8709  141.4888  153.7569 C   0  0  0  0  0  0  0  0  0  0  0  0
  147.3918  140.1131  153.3040 C   0  0  0  0  0  0  0  0  0  0  0  0
  147.9030  139.1693  154.3894 C   0  0  0  0  0  0  0  0  0  0  0  0
  149.2539  139.7525  154.8481 C   0  0  1  0  0  0  0  0  0  0  0  0
  150.4495  138.9838  154.2611 C   0  0  0  0  0  0  0  0  0  0  0  0
  150.1748  137.9229  153.4981 N   0  0  0  0  0  0  0  0  0  0  0  0
  151.6034  139.3424  154.4902 O   0  0  0  0  0  0  0  0  0  0  0  0
  147.6909  145.3355  160.3908 H   0  0  0  0  0  0  0  0  0  0  0  0
  149.2770  145.9333  160.8656 H   0  0  0  0  0  0  0  0  0  0  0  0
  148.6573  144.4047  161.5303 H   0  0  0  0  0  0  0  0  0  0  0  0
  152.9988  143.8025  161.8505 H   0  0  0  0  0  0  0  0  0  0  0  0
  154.1653  142.5579  160.0141 H   0  0  0  0  0  0  0  0  0  0  0  0
  152.9566  142.1495  157.8863 H   0  0  0  0  0  0  0  0  0  0  0  0
  149.5891  143.6372  157.2734 H   0  0  0  0  0  0  0  0  0  0  0  0
  148.8669  142.9592  155.5823 H   0  0  0  0  0  0  0  0  0  0  0  0
  150.0051  141.4271  153.6431 H   0  0  0  0  0  0  0  0  0  0  0  0
  147.1678  141.8825  154.4929 H   0  0  0  0  0  0  0  0  0  0  0  0
  147.9197  142.2037  152.9349 H   0  0  0  0  0  0  0  0  0  0  0  0
  146.3097  140.0640  153.1793 H   0  0  0  0  0  0  0  0  0  0  0  0
  147.8509  139.8595  152.3475 H   0  0  0  0  0  0  0  0  0  0  0  0
  147.2064  139.1696  155.2288 H   0  0  0  0  0  0  0  0  0  0  0  0
  147.9695  138.1405  154.0322 H   0  0  0  0  0  0  0  0  0  0  0  0
  149.2999  139.6758  155.9364 H   0  0  0  0  0  0  0  0  0  0  0  0
  150.9264  137.3949  153.0786 H   0  0  0  0  0  0  0  0  0  0  0  0
  149.2141  137.6610  153.3315 H   0  0  0  0  0  0  0  0  0  0  0  0
  1  2  1  0  0  0  0
  1 21  1  0  0  0  0
  1 22  1  0  0  0  0
  1 23  1  0  0  0  0
  2  3  1  0  0  0  0
  3  8  1  0  0  0  0
  3  4  2  0  0  0  0
  4  5  1  0  0  0  0
  5  6  2  0  0  0  0
  5 24  1  0  0  0  0
  6  7  1  0  0  0  0
  6 25  1  0  0  0  0
  7  8  2  0  0  0  0
  7 26  1  0  0  0  0
  8  9  1  0  0  0  0
  9 10  1  0  0  0  0
  9 27  1  0  0  0  0
 10 11  2  0  0  0  0
 10 12  1  0  0  0  0
 12 13  1  0  0  0  0
 12 28  1  0  0  0  0
 13 17  1  0  0  0  0
 13 14  1  0  0  0  0
 13 29  1  0  0  0  0
 14 15  1  0  0  0  0
 14 30  1  0  0  0  0
 14 31  1  0  0  0  0
 15 16  1  0  0  0  0
 15 32  1  0  0  0  0
 15 33  1  0  0  0  0
 16 17  1  0  0  0  0
 16 34  1  0  0  0  0
 16 35  1  0  0  0  0
 17 18  1  0  0  0  0
 17 36  1  0  0  0  0
 18 19  1  0  0  0  0
 18 20  2  0  0  0  0
 19 37  1  0  0  0  0
 19 38  1  0  0  0  0
M  END
> <s_m_source_file>
AV-unprocessed.smi

> <i_m_source_file_index>
704

> <i_lp_mmshare_version>
43012

> <i_f3d_flags>
0

> <s_epik_input>
W0NIM11PYzFuW2NIXVtjSF1bY0hdYzFbTkhdQyg9TylbTkhdW0NAQEhdMltDSDJdW0NIMl1bQ0gyXVtDQEhdMkMoPU8pW05IMl0=

> <s_epik_cmdline>
J2VwaWtfcHl0aG9uJywgJy1waCcsICc3LjAnLCAnLXRuJywgJzgnLCAnLW1hJywgJzIwMCcsICctbWV0YWxfYmluZGluZycsICctaW1hZScsICc8aW5maWxlLm1hZT4nLCAnLW9tYWUnLCAnPG91dGZpbGUubWFlPic=

> <r_lp_tautomer_probability>
1

> <r_epik_Ionization_Penalty>
9.09123e-05

> <r_epik_Ionization_Penalty_Charging>
0

> <r_epik_Ionization_Penalty_Neutral>
9.09123e-05

> <r_epik_State_Penalty>
-0

> <r_epik_Charging_Adjusted_Penalty>
0

> <i_epik_Tot_Q>
0

> <i_epik_Tot_abs_Q>
0

> <r_epik_Metal_State_Penalty>
-0

> <b_epik_Metal_Only>
0

> <s_lp_Force_Field>
OPLS_2005

> <r_lp_Energy>
16.6187

> <b_lp_Chiralities_Consistent>
1

> <s_lp_Variant>
AV-unprocessed.smi:704-1

> <Gold.Version>
5.8.1

> <Gold.Id.Protein>
6NUR|6NUR_protein|mol2

> <Gold.PLP.Fitness>
47.8758

> <Gold.PLP.PLP>
-38.9674

> <Gold.PLP.part.hbond>
-5.5017

> <Gold.PLP.part.metal>
0.0000

> <Gold.PLP.part.buried>
-3.3871

> <Gold.PLP.part.nonpolar>
-29.6500

> <Gold.PLP.part.repulsive>
0.7881

> <Gold.PLP.ligand.clash>
0.3523

> <Gold.PLP.ligand.torsion>
0.3949

> <Gold.PLP.Chemscore.Hbond>
3.3489

> <Gold.PLP.Chemscore.CHOScore>
0.0000

> <Gold.PLP.Chemscore.Metal>
0.0000

> <Gold.Chemscore.Hbonds>
donor molecule, donor type, donor heavy atom, donor atom, acceptor molecule, acceptor atom, score
      L1  H     9    27       P1  8028  0.65
      L1  H    12    28       P1  8028  0.86
      L1  H    19    37       P1  7949  0.53
      L1  H    19    38       P1  7948  0.27
      P1  H  7989  7998       L1    20  1.00

> <Gold.PLP.Chemscore.Internal.Correction>
0.0039

> <Gold.Rescore>
     Score         DG    S(hbond)    S(metal)    S(lipo)     H(rot)  DE(clash)    DE(int)     intcor
     13.46     -17.59       2.07        0.00      85.31       1.86       0.20       3.93       ----

> <Gold.Chemscore.Fitness>
13.4554

> <Gold.Chemscore.DG>
-17.5860

> <Gold.Chemscore.ZeroCoef>
-5.4800

> <Gold.Chemscore.Hbond>
2.0655

> <Gold.Chemscore.Metal>
0.0000

> <Gold.Chemscore.Lipo>
85.3102

> <Gold.Chemscore.Internal_Hbond>
0.0000

> <Gold.Chemscore.DEClash>
0.2042

> <Gold.Chemscore.DEInternal>
3.9264

> <Gold.Chemscore.Rot>
1.8648

> <Gold.Chemscore.Internal.Correction>
   9.000000E+99

> <Gold.Chemscore.Hbonds>
donor molecule, donor type, donor heavy atom, donor atom, acceptor molecule, acceptor atom, score
      L1  H     9    27       P1  8028  0.48
      L1  H    12    28       P1  8028  0.87
      L1  H    19    37       P1  7949  0.12
      L1  H    19    38       P1  7948  0.24
      P1  H  7989  7998       L1    20  0.25

> <Gold.Chemscore.Hbond.Weighted>
-6.8986

> <Gold.Chemscore.Metal.Weighted>
-0.0000

> <Gold.Chemscore.Lipo.Weighted>
-9.9813

> <Gold.Chemscore.Internal_Hbond.Weighted>
0.0000

> <Gold.Chemscore.DEClash.Weighted>
0.2042

> <Gold.Chemscore.DEInternal.Weighted>
3.9264

> <Gold.Chemscore.Rot.Weighted>
4.7739

> <Gold.Chemscore.Internal.Correction.Weighted>
   9.000000E+99

> <Gold.Protein.RotatedTorsions>
[ 6907 6896 6895 6894 ] final  -86.64 input  -60.11 | X-H torsion
[ 7974 7965 7964 7962 ] final   13.47 input  175.53 | X-H torsion
[ 8008 7997 7996 7995 ] final  -38.89 input   59.86 | X-H torsion
[ 10167 10162 10161 10158 ] final  -68.63 input  -65.29 | X-H torsion
[ 10718 10713 10712 10709 ] final -133.39 input   66.30 | X-H torsion
[ 10763 10752 10751 10750 ] final -174.19 input  -60.55 | X-H torsion
[ 11005 11000 10999 10996 ] final   37.92 input  -57.11 | X-H torsion

> <Gold.Protein.ActiveResidues>
 VAL166  LYS551  ARG553  GLY616  TRP617  ASP618  TYR619  PRO620  LYS621  CYS622 
 ASP623  PHE694  ASN695  SER759  ASP760  ASP761  ALA762  ILE779  LEU786  VAL792 
 PHE793  MET794  SER795  GLU796  ALA797  LYS798  CYS799  TRP800  GLU811  SER814 

> <Gold.Protein.RotatedAtoms>
  150.6866  134.3019  159.4709 H   0  0  0  0  0  0  0  0  0  0  0  0  # atno 6907 bound_to 6896
  152.0914  134.9402  160.0581 H   0  0  0  0  0  0  0  0  0  0  0  0  # atno 6908 bound_to 6896
  152.0716  133.4075  159.4498 H   0  0  0  0  0  0  0  0  0  0  0  0  # atno 6909 bound_to 6896
  146.2328  139.9184  142.8514 H   0  0  0  0  0  0  0  0  0  0  0  0  # atno 7974 bound_to 7965
  154.4030  140.1566  156.2774 H   0  0  0  0  0  0  0  0  0  0  0  0  # atno 8008 bound_to 7997
  155.8900  140.3439  155.5927 H   0  0  0  0  0  0  0  0  0  0  0  0  # atno 8009 bound_to 7997
  155.7570  140.0812  157.2164 H   0  0  0  0  0  0  0  0  0  0  0  0  # atno 8010 bound_to 7997
  140.5492  143.2312  151.6943 H   0  0  0  0  0  0  0  0  0  0  0  0  # atno 10167 bound_to 10162
  156.2444  130.7115  151.0989 H   0  0  0  0  0  0  0  0  0  0  0  0  # atno 10718 bound_to 10713
  154.5992  135.2853  155.0554 H   0  0  0  0  0  0  0  0  0  0  0  0  # atno 10763 bound_to 10752
  154.1825  135.6454  153.5042 H   0  0  0  0  0  0  0  0  0  0  0  0  # atno 10764 bound_to 10752
  153.0150  135.5427  154.6704 H   0  0  0  0  0  0  0  0  0  0  0  0  # atno 10765 bound_to 10752
  140.2177  134.3678  155.8019 H   0  0  0  0  0  0  0  0  0  0  0  0  # atno 11005 bound_to 11000
  145.2161  140.9916  143.4073 LP  0  0  0  0  0  0  0  0  0  0  0  0  # atno 17320 bound_to 7965
  144.9650  139.3940  143.6337 LP  0  0  0  0  0  0  0  0  0  0  0  0  # atno 17321 bound_to 7965
  139.5020  144.3845  152.0342 LP  0  0  0  0  0  0  0  0  0  0  0  0  # atno 17342 bound_to 10162
  140.2960  144.3700  150.6074 LP  0  0  0  0  0  0  0  0  0  0  0  0  # atno 17343 bound_to 10162
  157.7189  131.0693  150.6217 LP  0  0  0  0  0  0  0  0  0  0  0  0  # atno 17370 bound_to 10713
  156.6293  130.4427  149.5793 LP  0  0  0  0  0  0  0  0  0  0  0  0  # atno 17371 bound_to 10713
  141.2224  133.7177  156.8524 LP  0  0  0  0  0  0  0  0  0  0  0  0  # atno 17394 bound_to 11000
  140.1883  134.8984  157.3030 LP  0  0  0  0  0  0  0  0  0  0  0  0  # atno 17395 bound_to 11000

$$$$
