AV-unprocessed.smi:1790|AV-procd|sdf|7217|dock5
  -GOLD-   22720 8463D 1   1.00000     0.00000
 Structure written by MMmdl.
 32 33  0  0  0  0  0  0  0  0  2 V2000
  153.7300  142.8900  163.7810 O   0  0  0  0  0  0  0  0  0  0  0  0
  154.3805  141.8768  163.5284 C   0  0  0  0  0  0  0  0  0  0  0  0
  155.2240  141.2427  164.6334 C   0  0  0  0  0  0  0  0  0  0  0  0
  154.9870  141.9307  165.8516 O   0  0  0  0  0  0  0  0  0  0  0  0
  155.6377  143.1877  165.9048 C   0  0  0  0  0  0  0  0  0  0  0  0
  155.3661  143.8229  167.2515 C   0  0  0  0  0  0  0  0  0  0  0  0
  156.5074  144.2179  168.1607 C   0  0  0  0  0  0  0  0  0  0  0  0
  155.6241  143.0524  168.5265 C   0  0  0  0  0  0  0  0  0  0  0  0
  154.4018  141.2324  162.3446 N   0  0  0  0  0  0  0  0  0  0  0  0
  153.7572  141.5429  161.1344 C   0  0  0  0  0  0  0  0  0  0  0  0
  153.1684  142.7368  160.8447 C   0  0  0  0  0  0  0  0  0  0  0  0
  152.5227  142.9984  159.5643 C   0  0  0  0  0  0  0  0  0  0  0  0
  151.9272  144.3410  159.1782 C   0  0  0  0  0  0  0  0  0  0  0  0
  152.5054  144.8233  158.0780 F   0  0  0  0  0  0  0  0  0  0  0  0
  150.6238  144.2069  158.9374 F   0  0  0  0  0  0  0  0  0  0  0  0
  152.0797  145.2318  160.1582 F   0  0  0  0  0  0  0  0  0  0  0  0
  152.6113  141.9220  158.7030 C   0  0  0  0  0  0  0  0  0  0  0  0
  153.1651  140.7079  158.9129 N   0  5  0  0  0  0  0  0  0  0  0  0
  153.7597  140.4715  160.1164 C   0  0  0  0  0  0  0  0  0  0  0  0
  154.2934  139.3907  160.3690 O   0  0  0  0  0  0  0  0  0  0  0  0
  154.9675  140.1869  164.7371 H   0  0  0  0  0  0  0  0  0  0  0  0
  156.2777  141.3060  164.3570 H   0  0  0  0  0  0  0  0  0  0  0  0
  156.7142  143.0629  165.7805 H   0  0  0  0  0  0  0  0  0  0  0  0
  155.2791  143.8415  165.1080 H   0  0  0  0  0  0  0  0  0  0  0  0
  154.4938  144.4738  167.2624 H   0  0  0  0  0  0  0  0  0  0  0  0
  157.5200  143.9966  167.8288 H   0  0  0  0  0  0  0  0  0  0  0  0
  156.3958  145.1355  168.7346 H   0  0  0  0  0  0  0  0  0  0  0  0
  154.9237  143.1910  169.3475 H   0  0  0  0  0  0  0  0  0  0  0  0
  156.0491  142.0544  168.4398 H   0  0  0  0  0  0  0  0  0  0  0  0
  154.9468  140.3827  162.3154 H   0  0  0  0  0  0  0  0  0  0  0  0
  153.1699  143.5446  161.5568 H   0  0  0  0  0  0  0  0  0  0  0  0
  152.1752  142.0592  157.6906 H   0  0  0  0  0  0  0  0  0  0  0  0
  1  2  2  0  0  0  0
  2  3  1  0  0  0  0
  2  9  1  0  0  0  0
  3  4  1  0  0  0  0
  3 21  1  0  0  0  0
  3 22  1  0  0  0  0
  4  5  1  0  0  0  0
  5  6  1  0  0  0  0
  5 23  1  0  0  0  0
  5 24  1  0  0  0  0
  6  8  1  0  0  0  0
  6  7  1  0  0  0  0
  6 25  1  0  0  0  0
  7  8  1  0  0  0  0
  7 26  1  0  0  0  0
  7 27  1  0  0  0  0
  8 28  1  0  0  0  0
  8 29  1  0  0  0  0
  9 10  1  0  0  0  0
  9 30  1  0  0  0  0
 10 19  1  0  0  0  0
 10 11  2  0  0  0  0
 11 12  1  0  0  0  0
 11 31  1  0  0  0  0
 12 13  1  0  0  0  0
 12 17  2  0  0  0  0
 13 14  1  0  0  0  0
 13 15  1  0  0  0  0
 13 16  1  0  0  0  0
 17 18  1  0  0  0  0
 17 32  1  0  0  0  0
 18 19  1  0  0  0  0
 19 20  2  0  0  0  0
M  CHG  1  18  -1
M  END
> <s_m_source_file>
AV-unprocessed.smi

> <i_m_source_file_index>
1790

> <i_lp_mmshare_version>
43012

> <i_f3d_flags>
0

> <s_epik_input>
W0NIMl0xW0NIMl1bQ0hdMVtDSDJdT1tDSDJdQyg9TylbTkhdYzJbY0hdYyhDKEYpKEYpRilbY0hdW25IXWMyPU8=

> <s_epik_cmdline>
J2VwaWtfcHl0aG9uJywgJy1waCcsICc3LjAnLCAnLXRuJywgJzgnLCAnLW1hJywgJzIwMCcsICctbWV0YWxfYmluZGluZycsICctaW1hZScsICc8aW5maWxlLm1hZT4nLCAnLW9tYWUnLCAnPG91dGZpbGUubWFlPic=

> <r_epik_Ionization_Penalty>
2.6027

> <r_epik_Ionization_Penalty_Charging>
0.0561891

> <r_epik_Ionization_Penalty_Neutral>
2.54651

> <r_epik_State_Penalty>
2.71477

> <r_epik_Charging_Adjusted_Penalty>
2.77096

> <i_epik_Tot_Q>
-1

> <i_epik_Tot_abs_Q>
1

> <r_epik_Metal_State_Penalty>
0.521168

> <b_epik_Metal_Only>
0

> <s_lp_Force_Field>
OPLS_2005

> <r_lp_Energy>
28.814

> <b_lp_Chiralities_Consistent>
1

> <s_lp_Variant>
AV-unprocessed.smi:1790-2

> <Gold.Version>
5.8.1

> <Gold.Id.Protein>
6NUR|6NUR_protein|mol2

> <Gold.PLP.Fitness>
52.1937

> <Gold.PLP.PLP>
-51.9517

> <Gold.PLP.part.hbond>
-1.9828

> <Gold.PLP.part.metal>
0.0000

> <Gold.PLP.part.buried>
-4.7436

> <Gold.PLP.part.nonpolar>
-43.5213

> <Gold.PLP.part.repulsive>
0.1018

> <Gold.PLP.ligand.clash>
0.0000

> <Gold.PLP.ligand.torsion>
0.5819

> <Gold.PLP.Chemscore.Hbond>
0.2517

> <Gold.PLP.Chemscore.CHOScore>
0.0000

> <Gold.PLP.Chemscore.Metal>
0.0000

> <Gold.PLP.Chemscore.Internal.Correction>
0.6508

> <Gold.Rescore>
     Score         DG    S(hbond)    S(metal)    S(lipo)     H(rot)  DE(clash)    DE(int)     intcor
      8.88     -12.54       0.19        0.00      95.12       1.83       0.60       3.06       ----

> <Gold.Chemscore.Fitness>
8.8814

> <Gold.Chemscore.DG>
-12.5387

> <Gold.Chemscore.ZeroCoef>
-5.4800

> <Gold.Chemscore.Hbond>
0.1860

> <Gold.Chemscore.Metal>
0.0000

> <Gold.Chemscore.Lipo>
95.1194

> <Gold.Chemscore.Internal_Hbond>
0.0000

> <Gold.Chemscore.DEClash>
0.5951

> <Gold.Chemscore.DEInternal>
3.0622

> <Gold.Chemscore.Rot>
1.8326

> <Gold.Chemscore.Internal.Correction>
   9.000000E+99

> <Gold.Chemscore.Hbonds>
donor molecule, donor type, donor heavy atom, donor atom, acceptor molecule, acceptor atom, score
      P1  H  7997  8010       L1    18  0.02

> <Gold.Chemscore.Hbond.Weighted>
-0.6213

> <Gold.Chemscore.Metal.Weighted>
-0.0000

> <Gold.Chemscore.Lipo.Weighted>
-11.1290

> <Gold.Chemscore.Internal_Hbond.Weighted>
0.0000

> <Gold.Chemscore.DEClash.Weighted>
0.5951

> <Gold.Chemscore.DEInternal.Weighted>
3.0622

> <Gold.Chemscore.Rot.Weighted>
4.6916

> <Gold.Chemscore.Internal.Correction.Weighted>
   9.000000E+99

> <Gold.Protein.RotatedTorsions>
[ 6907 6896 6895 6894 ] final -162.88 input  -60.11 | X-H torsion
[ 7974 7965 7964 7962 ] final   56.63 input  175.53 | X-H torsion
[ 8008 7997 7996 7995 ] final   17.79 input   59.86 | X-H torsion
[ 10167 10162 10161 10158 ] final -101.23 input  -65.29 | X-H torsion
[ 10718 10713 10712 10709 ] final  111.38 input   66.30 | X-H torsion
[ 10763 10752 10751 10750 ] final  122.38 input  -60.55 | X-H torsion
[ 11005 11000 10999 10996 ] final  -89.70 input  -57.11 | X-H torsion

> <Gold.Protein.ActiveResidues>
 VAL166  LYS551  ARG553  GLY616  TRP617  ASP618  TYR619  PRO620  LYS621  CYS622 
 ASP623  PHE694  ASN695  SER759  ASP760  ASP761  ALA762  ILE779  LEU786  VAL792 
 PHE793  MET794  SER795  GLU796  ALA797  LYS798  CYS799  TRP800  GLU811  SER814 

> <Gold.Protein.RotatedAtoms>
  151.3872  133.3801  159.2716 H   0  0  0  0  0  0  0  0  0  0  0  0  # atno 6907 bound_to 6896
  150.9532  134.8931  159.7695 H   0  0  0  0  0  0  0  0  0  0  0  0  # atno 6908 bound_to 6896
  152.5120  134.3829  159.9409 H   0  0  0  0  0  0  0  0  0  0  0  0  # atno 6909 bound_to 6896
  145.9377  139.3861  143.0383 H   0  0  0  0  0  0  0  0  0  0  0  0  # atno 7974 bound_to 7965
  154.8965  140.2994  155.5341 H   0  0  0  0  0  0  0  0  0  0  0  0  # atno 8008 bound_to 7997
  156.3020  140.2415  156.3922 H   0  0  0  0  0  0  0  0  0  0  0  0  # atno 8009 bound_to 7997
  154.8565  140.0407  157.1626 H   0  0  0  0  0  0  0  0  0  0  0  0  # atno 8010 bound_to 7997
  140.2435  143.3522  152.0780 H   0  0  0  0  0  0  0  0  0  0  0  0  # atno 10167 bound_to 10162
  157.6447  131.0949  150.6740 H   0  0  0  0  0  0  0  0  0  0  0  0  # atno 10718 bound_to 10713
  153.6289  135.3399  155.3035 H   0  0  0  0  0  0  0  0  0  0  0  0  # atno 10763 bound_to 10752
  154.8584  135.4291  154.2127 H   0  0  0  0  0  0  0  0  0  0  0  0  # atno 10764 bound_to 10752
  153.3018  135.7025  153.7269 H   0  0  0  0  0  0  0  0  0  0  0  0  # atno 10765 bound_to 10752
  141.1580  133.7646  156.9633 H   0  0  0  0  0  0  0  0  0  0  0  0  # atno 11005 bound_to 11000
  145.8342  140.9615  143.0833 LP  0  0  0  0  0  0  0  0  0  0  0  0  # atno 17320 bound_to 7965
  144.6774  140.0201  143.7484 LP  0  0  0  0  0  0  0  0  0  0  0  0  # atno 17321 bound_to 7965
  139.5069  144.6823  151.5977 LP  0  0  0  0  0  0  0  0  0  0  0  0  # atno 17342 bound_to 10162
  140.6096  143.9461  150.6443 LP  0  0  0  0  0  0  0  0  0  0  0  0  # atno 17343 bound_to 10162
  156.7059  130.4637  149.5560 LP  0  0  0  0  0  0  0  0  0  0  0  0  # atno 17370 bound_to 10713
  156.1763  130.6470  151.0898 LP  0  0  0  0  0  0  0  0  0  0  0  0  # atno 17371 bound_to 10713
  140.1179  134.9436  157.2160 LP  0  0  0  0  0  0  0  0  0  0  0  0  # atno 17394 bound_to 11000
  140.3110  134.3024  155.7267 LP  0  0  0  0  0  0  0  0  0  0  0  0  # atno 17395 bound_to 11000

$$$$
