AV-unprocessed.smi:2135|AV-procd|sdf|8700|dock2
  -GOLD-   2272011453D 1   1.00000     0.00000
 Structure written by MMmdl.
 43 44  0  0  0  0  0  0  0  0  2 V2000
  150.2537  134.2569  156.4353 C   0  0  0  0  0  0  0  0  0  0  0  0
  151.0938  135.8377  156.8543 S   0  0  0  0  0  0  0  0  0  0  0  0
  150.4681  136.3889  158.0660 O   0  0  0  0  0  0  0  0  0  0  0  0
  152.5445  135.5960  156.8252 O   0  0  0  0  0  0  0  0  0  0  0  0
  150.7185  136.8892  155.5196 N   0  0  0  0  0  0  0  0  0  0  0  0
  149.3197  137.2321  155.2046 C   0  0  0  0  0  0  0  0  0  0  0  0
  149.0283  138.7138  155.4936 C   0  0  0  0  0  0  0  0  0  0  0  0
  150.0469  139.6385  154.8019 C   0  0  0  0  0  0  0  0  0  0  0  0
  151.5037  139.2640  155.1604 C   0  0  1  0  0  0  0  0  0  0  0  0
  151.9227  139.6953  156.5790 C   0  0  0  0  0  0  0  0  0  0  0  0
  153.0307  139.4128  157.0365 O   0  0  0  0  0  0  0  0  0  0  0  0
  150.9959  140.3581  157.2893 N   0  0  0  0  0  0  0  0  0  0  0  0
  151.1778  140.8545  158.6478 C   0  0  0  0  0  0  0  0  0  0  0  0
  152.0732  142.1041  158.6799 C   0  0  0  0  0  0  0  0  0  0  0  0
  152.3482  142.5738  160.0947 C   0  0  0  0  0  0  0  0  0  0  0  0
  153.1296  141.7932  160.9751 C   0  0  0  0  0  0  0  0  0  0  0  0
  153.3648  142.2569  162.2864 C   0  0  0  0  0  0  0  0  0  0  0  0
  152.8123  143.4905  162.6879 C   0  0  0  0  0  0  0  0  0  0  0  0
  152.0689  144.2093  161.8180 N   0  3  0  0  0  0  0  0  0  0  0  0
  151.8215  143.8006  160.5541 C   0  0  0  0  0  0  0  0  0  0  0  0
  151.7359  137.7566  154.8884 C   0  0  0  0  0  0  0  0  0  0  0  0
  150.5719  133.4878  157.1384 H   0  0  0  0  0  0  0  0  0  0  0  0
  150.5213  133.9510  155.4246 H   0  0  0  0  0  0  0  0  0  0  0  0
  149.1761  134.3762  156.5158 H   0  0  0  0  0  0  0  0  0  0  0  0
  149.1410  137.0199  154.1499 H   0  0  0  0  0  0  0  0  0  0  0  0
  148.6376  136.5971  155.7698 H   0  0  0  0  0  0  0  0  0  0  0  0
  148.0221  138.9599  155.1534 H   0  0  0  0  0  0  0  0  0  0  0  0
  149.0249  138.8811  156.5698 H   0  0  0  0  0  0  0  0  0  0  0  0
  149.9176  139.5650  153.7213 H   0  0  0  0  0  0  0  0  0  0  0  0
  149.8402  140.6791  155.0558 H   0  0  0  0  0  0  0  0  0  0  0  0
  152.1545  139.8237  154.4867 H   0  0  0  0  0  0  0  0  0  0  0  0
  150.1054  140.5434  156.8503 H   0  0  0  0  0  0  0  0  0  0  0  0
  150.2064  141.0655  159.0987 H   0  0  0  0  0  0  0  0  0  0  0  0
  151.6287  140.0582  159.2408 H   0  0  0  0  0  0  0  0  0  0  0  0
  153.0201  141.8987  158.1785 H   0  0  0  0  0  0  0  0  0  0  0  0
  151.6053  142.9207  158.1282 H   0  0  0  0  0  0  0  0  0  0  0  0
  153.5444  140.8493  160.6520 H   0  0  0  0  0  0  0  0  0  0  0  0
  153.9603  141.6741  162.9740 H   0  0  0  0  0  0  0  0  0  0  0  0
  152.9413  143.9204  163.6706 H   0  0  0  0  0  0  0  0  0  0  0  0
  151.2123  144.4612  159.9541 H   0  0  0  0  0  0  0  0  0  0  0  0
  152.7348  137.4529  155.2006 H   0  0  0  0  0  0  0  0  0  0  0  0
  151.7037  137.5820  153.8125 H   0  0  0  0  0  0  0  0  0  0  0  0
  151.6778  145.0991  162.1288 H   0  0  0  0  0  0  0  0  0  0  0  0
  1  2  1  0  0  0  0
  1 22  1  0  0  0  0
  1 23  1  0  0  0  0
  1 24  1  0  0  0  0
  2  3  2  0  0  0  0
  2  4  2  0  0  0  0
  2  5  1  0  0  0  0
  5 21  1  0  0  0  0
  5  6  1  0  0  0  0
  6  7  1  0  0  0  0
  6 25  1  0  0  0  0
  6 26  1  0  0  0  0
  7  8  1  0  0  0  0
  7 27  1  0  0  0  0
  7 28  1  0  0  0  0
  8  9  1  0  0  0  0
  8 29  1  0  0  0  0
  8 30  1  0  0  0  0
  9 10  1  0  0  0  0
  9 21  1  0  0  0  0
  9 31  1  0  0  0  0
 10 11  2  0  0  0  0
 10 12  1  0  0  0  0
 12 13  1  0  0  0  0
 12 32  1  0  0  0  0
 13 14  1  0  0  0  0
 13 33  1  0  0  0  0
 13 34  1  0  0  0  0
 14 15  1  0  0  0  0
 14 35  1  0  0  0  0
 14 36  1  0  0  0  0
 15 20  1  0  0  0  0
 15 16  2  0  0  0  0
 16 17  1  0  0  0  0
 16 37  1  0  0  0  0
 17 18  2  0  0  0  0
 17 38  1  0  0  0  0
 18 19  1  0  0  0  0
 18 39  1  0  0  0  0
 19 20  2  0  0  0  0
 19 43  1  0  0  0  0
 20 40  1  0  0  0  0
 21 41  1  0  0  0  0
 21 42  1  0  0  0  0
M  CHG  1  19   1
M  END
> <s_m_source_file>
AV-unprocessed.smi

> <i_m_source_file_index>
2135

> <i_lp_mmshare_version>
43012

> <i_f3d_flags>
0

> <s_epik_input>
W0NIM11TKD1PKSg9TylOMVtDSDJdW0NIMl1bQ0gyXVtDQEhdKFtDSDJdMSlDKD1PKVtOSF1bQ0gyXVtDSDJdYzJbY0hdW2NIXVtjSF1uW2NIXTI=

> <s_epik_cmdline>
J2VwaWtfcHl0aG9uJywgJy1waCcsICc3LjAnLCAnLXRuJywgJzgnLCAnLW1hJywgJzIwMCcsICctbWV0YWxfYmluZGluZycsICctaW1hZScsICc8aW5maWxlLm1hZT4nLCAnLW9tYWUnLCAnPG91dGZpbGUubWFlPic=

> <r_epik_Ionization_Penalty>
2.24912

> <r_epik_Ionization_Penalty_Charging>
2.24912

> <r_epik_Ionization_Penalty_Neutral>
2.62834e-08

> <r_epik_State_Penalty>
2.39611

> <r_epik_Charging_Adjusted_Penalty>
4.64523

> <i_epik_Tot_Q>
1

> <i_epik_Tot_abs_Q>
1

> <r_epik_Metal_State_Penalty>
2.40934

> <b_epik_Metal_Only>
0

> <s_lp_Force_Field>
OPLS_2005

> <r_lp_Energy>
5.07519

> <b_lp_Chiralities_Consistent>
1

> <s_lp_Variant>
AV-unprocessed.smi:2135-3

> <Gold.Version>
5.8.1

> <Gold.Id.Protein>
6NUR|6NUR_protein|mol2

> <Gold.PLP.Fitness>
49.6826

> <Gold.PLP.PLP>
-43.1288

> <Gold.PLP.part.hbond>
-3.9069

> <Gold.PLP.part.metal>
0.0000

> <Gold.PLP.part.buried>
-5.3082

> <Gold.PLP.part.nonpolar>
-34.9996

> <Gold.PLP.part.repulsive>
0.1048

> <Gold.PLP.ligand.clash>
0.0000

> <Gold.PLP.ligand.torsion>
1.3311

> <Gold.PLP.Chemscore.Hbond>
2.3657

> <Gold.PLP.Chemscore.CHOScore>
0.0000

> <Gold.PLP.Chemscore.Metal>
0.0000

> <Gold.Chemscore.Hbonds>
donor molecule, donor type, donor heavy atom, donor atom, acceptor molecule, acceptor atom, score
      P1  H  6896  6909       L1     3  0.37
      P1  H  7997  8010       L1    11  1.00
      P1  H 10752 10765       L1     4  1.00

> <Gold.PLP.Chemscore.Internal.Correction>
2.1191

> <Gold.Rescore>
     Score         DG    S(hbond)    S(metal)    S(lipo)     H(rot)  DE(clash)    DE(int)     intcor
     20.18     -21.49       2.61        0.00      98.50       1.65       0.02       1.30       ----

> <Gold.Chemscore.Fitness>
20.1834

> <Gold.Chemscore.DG>
-21.4939

> <Gold.Chemscore.ZeroCoef>
-5.4800

> <Gold.Chemscore.Hbond>
2.6116

> <Gold.Chemscore.Metal>
0.0000

> <Gold.Chemscore.Lipo>
98.5021

> <Gold.Chemscore.Internal_Hbond>
0.0000

> <Gold.Chemscore.DEClash>
0.0155

> <Gold.Chemscore.DEInternal>
1.2950

> <Gold.Chemscore.Rot>
1.6538

> <Gold.Chemscore.Internal.Correction>
   9.000000E+99

> <Gold.Chemscore.Hbonds>
donor molecule, donor type, donor heavy atom, donor atom, acceptor molecule, acceptor atom, score
      P1  H  6896  6909       L1     3  0.21
      P1  H  7997  8010       L1    11  0.98
      P1  H 10752 10765       L1     4  1.00

> <Gold.Chemscore.Hbond.Weighted>
-8.7228

> <Gold.Chemscore.Metal.Weighted>
-0.0000

> <Gold.Chemscore.Lipo.Weighted>
-11.5247

> <Gold.Chemscore.Internal_Hbond.Weighted>
0.0000

> <Gold.Chemscore.DEClash.Weighted>
0.0155

> <Gold.Chemscore.DEInternal.Weighted>
1.2950

> <Gold.Chemscore.Rot.Weighted>
4.2337

> <Gold.Chemscore.Internal.Correction.Weighted>
   9.000000E+99

> <Gold.Protein.RotatedTorsions>
[ 6907 6896 6895 6894 ] final   74.06 input  -60.11 | X-H torsion
[ 7974 7965 7964 7962 ] final -113.78 input  175.53 | X-H torsion
[ 8008 7997 7996 7995 ] final   42.43 input   59.86 | X-H torsion
[ 10167 10162 10161 10158 ] final -109.35 input  -65.29 | X-H torsion
[ 10718 10713 10712 10709 ] final -151.92 input   66.30 | X-H torsion
[ 10763 10752 10751 10750 ] final -123.07 input  -60.55 | X-H torsion
[ 11005 11000 10999 10996 ] final  -22.74 input  -57.11 | X-H torsion

> <Gold.Protein.ActiveResidues>
 VAL166  LYS551  ARG553  GLY616  TRP617  ASP618  TYR619  PRO620  LYS621  CYS622 
 ASP623  PHE694  ASN695  SER759  ASP760  ASP761  ALA762  ILE779  LEU786  VAL792 
 PHE793  MET794  SER795  GLU796  ALA797  LYS798  CYS799  TRP800  GLU811  SER814 

> <Gold.Protein.RotatedAtoms>
  152.4956  134.4328  159.9517 H   0  0  0  0  0  0  0  0  0  0  0  0  # atno 6907 bound_to 6896
  151.4307  133.3665  159.2776 H   0  0  0  0  0  0  0  0  0  0  0  0  # atno 6908 bound_to 6896
  150.9157  134.8597  159.7515 H   0  0  0  0  0  0  0  0  0  0  0  0  # atno 6909 bound_to 6896
  145.1280  140.8708  143.3775 H   0  0  0  0  0  0  0  0  0  0  0  0  # atno 7974 bound_to 7965
  155.2860  140.3375  155.4255 H   0  0  0  0  0  0  0  0  0  0  0  0  # atno 8008 bound_to 7997
  156.2068  140.1754  156.7823 H   0  0  0  0  0  0  0  0  0  0  0  0  # atno 8009 bound_to 7997
  154.5631  140.0683  156.8835 H   0  0  0  0  0  0  0  0  0  0  0  0  # atno 8010 bound_to 7997
  140.1562  143.4157  152.1459 H   0  0  0  0  0  0  0  0  0  0  0  0  # atno 10167 bound_to 10162
  156.4656  130.8234  151.2464 H   0  0  0  0  0  0  0  0  0  0  0  0  # atno 10718 bound_to 10713
  154.8701  135.4111  154.2884 H   0  0  0  0  0  0  0  0  0  0  0  0  # atno 10763 bound_to 10752
  153.3764  135.7009  153.6604 H   0  0  0  0  0  0  0  0  0  0  0  0  # atno 10764 bound_to 10752
  153.5444  135.3641  155.2704 H   0  0  0  0  0  0  0  0  0  0  0  0  # atno 10765 bound_to 10752
  140.8685  133.7737  156.0159 H   0  0  0  0  0  0  0  0  0  0  0  0  # atno 11005 bound_to 11000
  145.0667  139.3063  143.5853 LP  0  0  0  0  0  0  0  0  0  0  0  0  # atno 17320 bound_to 7965
  146.3516  140.0127  142.8665 LP  0  0  0  0  0  0  0  0  0  0  0  0  # atno 17321 bound_to 7965
  139.5402  144.7249  151.4758 LP  0  0  0  0  0  0  0  0  0  0  0  0  # atno 17342 bound_to 10162
  140.6671  143.8374  150.6955 LP  0  0  0  0  0  0  0  0  0  0  0  0  # atno 17343 bound_to 10162
  157.7495  131.0093  150.3262 LP  0  0  0  0  0  0  0  0  0  0  0  0  # atno 17370 bound_to 10713
  156.3671  130.3857  149.7205 LP  0  0  0  0  0  0  0  0  0  0  0  0  # atno 17371 bound_to 10713
  140.8600  134.2852  157.5238 LP  0  0  0  0  0  0  0  0  0  0  0  0  # atno 17394 bound_to 11000
  139.8710  134.9513  156.4081 LP  0  0  0  0  0  0  0  0  0  0  0  0  # atno 17395 bound_to 11000

$$$$
