AV-unprocessed.smi:1915|AV-procd|sdf|7760|dock6
  -GOLD-   22720 9503D 1   1.00000     0.00000
 Structure written by MMmdl.
 44 45  0  0  0  0  0  0  0  0  1 V2000
  149.0554  141.4198  155.7879 C   0  0  0  0  0  0  0  0  0  0  0  0
  148.8147  140.9209  154.3526 C   0  0  0  0  0  0  0  0  0  0  0  0
  147.5082  141.5039  153.7941 C   0  0  0  0  0  0  0  0  0  0  0  0
  148.8135  139.3804  154.2320 C   0  0  0  0  0  0  0  0  0  0  0  0
  150.0299  138.7661  154.7622 N   0  0  0  0  0  0  0  0  0  0  0  0
  151.2443  139.5509  154.9087 C   0  0  0  0  0  0  0  0  0  0  0  0
  152.2468  138.6307  155.6358 C   0  0  1  0  0  0  0  0  0  0  0  0
  152.4752  139.0602  157.0936 C   0  0  0  0  0  0  0  0  0  0  0  0
  153.4705  138.6732  157.7074 O   0  0  0  0  0  0  0  0  0  0  0  0
  151.5425  139.8556  157.6351 N   0  0  0  0  0  0  0  0  0  0  0  0
  151.5720  140.3535  159.0050 C   0  0  0  0  0  0  0  0  0  0  0  0
  152.7943  141.2517  159.2630 C   0  0  0  0  0  0  0  0  0  0  0  0
  152.4348  142.7045  159.5281 C   0  0  0  0  0  0  0  0  0  0  0  0
  152.3719  143.6304  158.4651 C   0  0  0  0  0  0  0  0  0  0  0  0
  152.0478  144.9691  158.7585 C   0  0  0  0  0  0  0  0  0  0  0  0
  151.8013  145.3293  160.0974 C   0  0  0  0  0  0  0  0  0  0  0  0
  151.8903  144.3306  161.0873 C   0  0  0  0  0  0  0  0  0  0  0  0
  152.2014  143.0445  160.8167 N   0  0  0  0  0  0  0  0  0  0  0  0
  151.6289  137.2210  155.5480 C   0  0  0  0  0  0  0  0  0  0  0  0
  150.2170  137.4712  155.0441 C   0  0  0  0  0  0  0  0  0  0  0  0
  149.3812  136.5754  154.9341 O   0  0  0  0  0  0  0  0  0  0  0  0
  148.3153  141.0132  156.4777 H   0  0  0  0  0  0  0  0  0  0  0  0
  148.9960  142.5073  155.8401 H   0  0  0  0  0  0  0  0  0  0  0  0
  150.0438  141.1376  156.1506 H   0  0  0  0  0  0  0  0  0  0  0  0
  149.6277  141.3037  153.7339 H   0  0  0  0  0  0  0  0  0  0  0  0
  146.6454  141.1601  154.3657 H   0  0  0  0  0  0  0  0  0  0  0  0
  147.3585  141.2096  152.7548 H   0  0  0  0  0  0  0  0  0  0  0  0
  147.5165  142.5938  153.8268 H   0  0  0  0  0  0  0  0  0  0  0  0
  147.9382  138.9674  154.7365 H   0  0  0  0  0  0  0  0  0  0  0  0
  148.7148  139.0938  153.1840 H   0  0  0  0  0  0  0  0  0  0  0  0
  151.6187  139.8256  153.9216 H   0  0  0  0  0  0  0  0  0  0  0  0
  151.0414  140.4755  155.4518 H   0  0  0  0  0  0  0  0  0  0  0  0
  153.2022  138.6460  155.1082 H   0  0  0  0  0  0  0  0  0  0  0  0
  150.7496  140.1206  157.0681 H   0  0  0  0  0  0  0  0  0  0  0  0
  150.6595  140.9165  159.2089 H   0  0  0  0  0  0  0  0  0  0  0  0
  151.5833  139.5058  159.6910 H   0  0  0  0  0  0  0  0  0  0  0  0
  153.3553  140.8659  160.1150 H   0  0  0  0  0  0  0  0  0  0  0  0
  153.4735  141.2035  158.4103 H   0  0  0  0  0  0  0  0  0  0  0  0
  152.5694  143.3240  157.4483 H   0  0  0  0  0  0  0  0  0  0  0  0
  151.9903  145.7059  157.9711 H   0  0  0  0  0  0  0  0  0  0  0  0
  151.5498  146.3464  160.3594 H   0  0  0  0  0  0  0  0  0  0  0  0
  151.7071  144.5709  162.1241 H   0  0  0  0  0  0  0  0  0  0  0  0
  152.1659  136.6007  154.8298 H   0  0  0  0  0  0  0  0  0  0  0  0
  151.6072  136.6895  156.5009 H   0  0  0  0  0  0  0  0  0  0  0  0
  1  2  1  0  0  0  0
  1 22  1  0  0  0  0
  1 23  1  0  0  0  0
  1 24  1  0  0  0  0
  2  3  1  0  0  0  0
  2  4  1  0  0  0  0
  2 25  1  0  0  0  0
  3 26  1  0  0  0  0
  3 27  1  0  0  0  0
  3 28  1  0  0  0  0
  4  5  1  0  0  0  0
  4 29  1  0  0  0  0
  4 30  1  0  0  0  0
  5 20  1  0  0  0  0
  5  6  1  0  0  0  0
  6  7  1  0  0  0  0
  6 31  1  0  0  0  0
  6 32  1  0  0  0  0
  7  8  1  0  0  0  0
  7 19  1  0  0  0  0
  7 33  1  0  0  0  0
  8  9  2  0  0  0  0
  8 10  1  0  0  0  0
 10 11  1  0  0  0  0
 10 34  1  0  0  0  0
 11 12  1  0  0  0  0
 11 35  1  0  0  0  0
 11 36  1  0  0  0  0
 12 13  1  0  0  0  0
 12 37  1  0  0  0  0
 12 38  1  0  0  0  0
 13 18  1  0  0  0  0
 13 14  2  0  0  0  0
 14 15  1  0  0  0  0
 14 39  1  0  0  0  0
 15 16  2  0  0  0  0
 15 40  1  0  0  0  0
 16 17  1  0  0  0  0
 16 41  1  0  0  0  0
 17 18  2  0  0  0  0
 17 42  1  0  0  0  0
 19 20  1  0  0  0  0
 19 43  1  0  0  0  0
 19 44  1  0  0  0  0
 20 21  2  0  0  0  0
M  END
> <s_m_source_file>
AV-unprocessed.smi

> <i_m_source_file_index>
1915

> <i_lp_mmshare_version>
43012

> <i_f3d_flags>
0

> <s_epik_input>
W0NIM11bQ0hdKFtDSDNdKVtDSDJdTjFbQ0gyXVtDQEhdKFtDSDJdQzE9TylDKD1PKVtOSF1bQ0gyXVtDSDJdYzJbY0hdW2NIXVtjSF1bY0hdbjI=

> <s_epik_cmdline>
J2VwaWtfcHl0aG9uJywgJy1waCcsICc3LjAnLCAnLXRuJywgJzgnLCAnLW1hJywgJzIwMCcsICctbWV0YWxfYmluZGluZycsICctaW1hZScsICc8aW5maWxlLm1hZT4nLCAnLW9tYWUnLCAnPG91dGZpbGUubWFlPic=

> <r_epik_Ionization_Penalty>
0.0252359

> <r_epik_Ionization_Penalty_Charging>
0

> <r_epik_Ionization_Penalty_Neutral>
0.0252359

> <r_epik_State_Penalty>
0.020532

> <r_epik_Charging_Adjusted_Penalty>
0.020532

> <i_epik_Tot_Q>
0

> <i_epik_Tot_abs_Q>
0

> <r_epik_Metal_State_Penalty>
0.0196901

> <b_epik_Metal_Only>
0

> <s_lp_Force_Field>
OPLS_2005

> <r_lp_Energy>
14.3845

> <b_lp_Chiralities_Consistent>
1

> <s_lp_Variant>
AV-unprocessed.smi:1915-1

> <Gold.Version>
5.8.1

> <Gold.Id.Protein>
6NUR|6NUR_protein|mol2

> <Gold.PLP.Fitness>
47.2626

> <Gold.PLP.PLP>
-47.2691

> <Gold.PLP.part.hbond>
-1.0000

> <Gold.PLP.part.metal>
0.0000

> <Gold.PLP.part.buried>
-3.6043

> <Gold.PLP.part.nonpolar>
-43.7910

> <Gold.PLP.part.repulsive>
0.2776

> <Gold.PLP.ligand.clash>
0.0000

> <Gold.PLP.ligand.torsion>
1.5442

> <Gold.PLP.Chemscore.Hbond>
1.0000

> <Gold.PLP.Chemscore.CHOScore>
0.0000

> <Gold.PLP.Chemscore.Metal>
0.0000

> <Gold.Chemscore.Hbonds>
donor molecule, donor type, donor heavy atom, donor atom, acceptor molecule, acceptor atom, score
      P1  H  7997  8010       L1     9  0.98

> <Gold.PLP.Chemscore.Internal.Correction>
0.0819

> <Gold.Rescore>
     Score         DG    S(hbond)    S(metal)    S(lipo)     H(rot)  DE(clash)    DE(int)     intcor
     15.65     -17.41       0.79        0.00     117.55       1.75       0.09       1.67       ----

> <Gold.Chemscore.Fitness>
15.6510

> <Gold.Chemscore.DG>
-17.4103

> <Gold.Chemscore.ZeroCoef>
-5.4800

> <Gold.Chemscore.Hbond>
0.7920

> <Gold.Chemscore.Metal>
0.0000

> <Gold.Chemscore.Lipo>
117.5539

> <Gold.Chemscore.Internal_Hbond>
0.0000

> <Gold.Chemscore.DEClash>
0.0922

> <Gold.Chemscore.DEInternal>
1.6670

> <Gold.Chemscore.Rot>
1.7456

> <Gold.Chemscore.Internal.Correction>
   9.000000E+99

> <Gold.Chemscore.Hbonds>
donor molecule, donor type, donor heavy atom, donor atom, acceptor molecule, acceptor atom, score
      P1  H  7997  8010       L1     9  0.32

> <Gold.Chemscore.Hbond.Weighted>
-2.6452

> <Gold.Chemscore.Metal.Weighted>
-0.0000

> <Gold.Chemscore.Lipo.Weighted>
-13.7538

> <Gold.Chemscore.Internal_Hbond.Weighted>
0.0000

> <Gold.Chemscore.DEClash.Weighted>
0.0922

> <Gold.Chemscore.DEInternal.Weighted>
1.6670

> <Gold.Chemscore.Rot.Weighted>
4.4688

> <Gold.Chemscore.Internal.Correction.Weighted>
   9.000000E+99

> <Gold.Protein.RotatedTorsions>
[ 6907 6896 6895 6894 ] final  152.23 input  -60.11 | X-H torsion
[ 7974 7965 7964 7962 ] final -175.14 input  175.53 | X-H torsion
[ 8008 7997 7996 7995 ] final   18.51 input   59.86 | X-H torsion
[ 10167 10162 10161 10158 ] final -127.13 input  -65.29 | X-H torsion
[ 10718 10713 10712 10709 ] final -149.08 input   66.30 | X-H torsion
[ 10763 10752 10751 10750 ] final  168.70 input  -60.55 | X-H torsion
[ 11005 11000 10999 10996 ] final  164.44 input  -57.11 | X-H torsion

> <Gold.Protein.ActiveResidues>
 VAL166  LYS551  ARG553  GLY616  TRP617  ASP618  TYR619  PRO620  LYS621  CYS622 
 ASP623  PHE694  ASN695  SER759  ASP760  ASP761  ALA762  ILE779  LEU786  VAL792 
 PHE793  MET794  SER795  GLU796  ALA797  LYS798  CYS799  TRP800  GLU811  SER814 

> <Gold.Protein.RotatedAtoms>
  152.0897  133.4194  159.4537 H   0  0  0  0  0  0  0  0  0  0  0  0  # atno 6907 bound_to 6896
  150.6862  134.2886  159.4666 H   0  0  0  0  0  0  0  0  0  0  0  0  # atno 6908 bound_to 6896
  152.0736  134.9516  160.0625 H   0  0  0  0  0  0  0  0  0  0  0  0  # atno 6909 bound_to 6896
  144.7129  140.1366  143.6395 H   0  0  0  0  0  0  0  0  0  0  0  0  # atno 7974 bound_to 7965
  154.9070  140.3008  155.5286 H   0  0  0  0  0  0  0  0  0  0  0  0  # atno 8008 bound_to 7997
  156.3016  140.2396  156.4040 H   0  0  0  0  0  0  0  0  0  0  0  0  # atno 8009 bound_to 7997
  154.8463  140.0411  157.1564 H   0  0  0  0  0  0  0  0  0  0  0  0  # atno 8010 bound_to 7997
  139.9641  143.5917  152.2435 H   0  0  0  0  0  0  0  0  0  0  0  0  # atno 10167 bound_to 10162
  156.4286  130.8064  151.2290 H   0  0  0  0  0  0  0  0  0  0  0  0  # atno 10718 bound_to 10713
  154.3723  135.2753  155.2259 H   0  0  0  0  0  0  0  0  0  0  0  0  # atno 10763 bound_to 10752
  154.4401  135.5956  153.6127 H   0  0  0  0  0  0  0  0  0  0  0  0  # atno 10764 bound_to 10752
  152.9838  135.6016  154.3956 H   0  0  0  0  0  0  0  0  0  0  0  0  # atno 10765 bound_to 10752
  140.2460  134.8014  157.3456 H   0  0  0  0  0  0  0  0  0  0  0  0  # atno 11005 bound_to 11000
  145.9239  139.2563  143.1365 LP  0  0  0  0  0  0  0  0  0  0  0  0  # atno 17320 bound_to 7965
  145.9592  140.8849  143.0220 LP  0  0  0  0  0  0  0  0  0  0  0  0  # atno 17321 bound_to 7965
  139.6531  144.7661  151.2108 LP  0  0  0  0  0  0  0  0  0  0  0  0  # atno 17342 bound_to 10162
  140.7543  143.6129  150.8588 LP  0  0  0  0  0  0  0  0  0  0  0  0  # atno 17343 bound_to 10162
  157.7508  131.0205  150.3713 LP  0  0  0  0  0  0  0  0  0  0  0  0  # atno 17370 bound_to 10713
  156.4046  130.3922  149.6935 LP  0  0  0  0  0  0  0  0  0  0  0  0  # atno 17371 bound_to 10713
  140.1606  134.4734  155.7897 LP  0  0  0  0  0  0  0  0  0  0  0  0  # atno 17394 bound_to 11000
  141.2206  133.6899  156.7537 LP  0  0  0  0  0  0  0  0  0  0  0  0  # atno 17395 bound_to 11000

$$$$
