AV-unprocessed.smi:72|AV-procd|sdf|756|dock6
  -GOLD-   2262017 93D 1   1.00000     0.00000
 Structure written by MMmdl.
 29 30  0  0  0  0  0  0  0  0  1 V2000
  150.0841  138.6269  153.7923 N   0  0  0  0  0  0  0  0  0  0  0  0
  150.2141  139.4576  154.8854 C   0  0  0  0  0  0  0  0  0  0  0  0
  150.2478  140.8331  154.6218 N   0  0  0  0  0  0  0  0  0  0  0  0
  150.3602  141.6179  155.6463 C   0  0  0  0  0  0  0  0  0  0  0  0
  150.4239  141.0915  157.0014 N   0  0  0  0  0  0  0  0  0  0  0  0
  150.5773  141.9810  158.2267 C   0  0  1  0  0  0  0  0  0  0  0  0
  151.4458  141.3831  159.1455 O   0  0  0  0  0  0  0  0  0  0  0  0
  152.7575  141.9148  158.9848 C   0  0  2  0  0  0  0  0  0  0  0  0
  153.6397  141.6053  160.2067 C   0  0  0  0  0  0  0  0  0  0  0  0
  153.0535  142.1450  161.3721 O   0  0  0  0  0  0  0  0  0  0  0  0
  152.4667  143.3962  158.7274 C   0  0  2  0  0  0  0  0  0  0  0  0
  152.2552  144.0843  159.9506 O   0  0  0  0  0  0  0  0  0  0  0  0
  151.2116  143.3404  157.8539 C   0  0  2  0  0  0  0  0  0  0  0  0
  150.3493  144.4398  158.0790 O   0  0  0  0  0  0  0  0  0  0  0  0
  150.4252  139.6806  157.1877 C   0  0  0  0  0  0  0  0  0  0  0  0
  150.5366  139.2061  158.3179 O   0  0  0  0  0  0  0  0  0  0  0  0
  150.2956  138.8783  156.0481 N   0  0  0  0  0  0  0  0  0  0  0  0
  149.5763  142.0478  158.6566 H   0  0  0  0  0  0  0  0  0  0  0  0
  153.2132  141.4996  158.0839 H   0  0  0  0  0  0  0  0  0  0  0  0
  153.2937  143.8815  158.2080 H   0  0  0  0  0  0  0  0  0  0  0  0
  151.5069  143.3281  156.8036 H   0  0  0  0  0  0  0  0  0  0  0  0
  150.0510  137.6201  153.8607 H   0  0  0  0  0  0  0  0  0  0  0  0
  150.0081  138.9639  152.8439 H   0  0  0  0  0  0  0  0  0  0  0  0
  150.4143  142.7020  155.5488 H   0  0  0  0  0  0  0  0  0  0  0  0
  153.7182  140.5272  160.3504 H   0  0  0  0  0  0  0  0  0  0  0  0
  154.6509  141.9929  160.0779 H   0  0  0  0  0  0  0  0  0  0  0  0
  153.7259  142.5827  161.8713 H   0  0  0  0  0  0  0  0  0  0  0  0
  152.9562  144.7079  160.0647 H   0  0  0  0  0  0  0  0  0  0  0  0
  149.9156  144.6476  157.2652 H   0  0  0  0  0  0  0  0  0  0  0  0
  1  2  1  0  0  0  0
  1 22  1  0  0  0  0
  1 23  1  0  0  0  0
  2 17  2  0  0  0  0
  2  3  1  0  0  0  0
  3  4  2  0  0  0  0
  4  5  1  0  0  0  0
  4 24  1  0  0  0  0
  5  6  1  0  0  0  0
  5 15  1  0  0  0  0
  6 18  1  0  0  0  0
  6 13  1  0  0  0  0
  6  7  1  0  0  0  0
  7  8  1  0  0  0  0
  8 19  1  0  0  0  0
  8  9  1  0  0  0  0
  8 11  1  0  0  0  0
  9 10  1  0  0  0  0
  9 25  1  0  0  0  0
  9 26  1  0  0  0  0
 10 27  1  0  0  0  0
 11 20  1  0  0  0  0
 11 12  1  0  0  0  0
 11 13  1  0  0  0  0
 12 28  1  0  0  0  0
 13 21  1  0  0  0  0
 13 14  1  0  0  0  0
 14 29  1  0  0  0  0
 15 16  2  0  0  0  0
 15 17  1  0  0  0  0
M  END
> <s_m_source_file>
AV-unprocessed.smi

> <i_m_source_file_index>
72

> <i_lp_mmshare_version>
43012

> <i_f3d_flags>
0

> <s_epik_input>
W05IMl1jMW5bY0hdbihjKD1PKW4xKVtDQEBIXTJPW0NASF0oW0NIMl1bT0hdKVtDQEBIXShbT0hdKVtDQEhdMltPSF0=

> <s_epik_cmdline>
J2VwaWtfcHl0aG9uJywgJy1waCcsICc3LjAnLCAnLXRuJywgJzgnLCAnLW1hJywgJzIwMCcsICctbWV0YWxfYmluZGluZycsICctaW1hZScsICc8aW5maWxlLm1hZT4nLCAnLW9tYWUnLCAnPG91dGZpbGUubWFlPic=

> <r_lp_tautomer_probability>
4.77166e-05

> <r_epik_Ionization_Penalty>
1.3546

> <r_epik_Ionization_Penalty_Charging>
1.46833e-10

> <r_epik_Ionization_Penalty_Neutral>
1.3546

> <r_epik_State_Penalty>
3.51908

> <r_epik_Charging_Adjusted_Penalty>
3.51908

> <i_epik_Tot_Q>
0

> <i_epik_Tot_abs_Q>
0

> <r_epik_Metal_State_Penalty>
3.44088

> <b_epik_Metal_Only>
1

> <s_epik_Chemistry_Notes>
This compound contains an acetal/aminal-like group ( X-CH(R)-Y where X, Y are N, S, or O) that may be acid/base labile, releasing an aldehyde.

> <s_lp_Force_Field>
OPLS_2005

> <r_lp_Energy>
31.1202

> <b_lp_Chiralities_Consistent>
1

> <s_lp_Variant>
AV-unprocessed.smi:72-94

> <Gold.Version>
5.8.1

> <Gold.Id.Protein>
6NUR|6NUR_protein|mol2

> <Gold.PLP.Fitness>
39.0236

> <Gold.PLP.PLP>
-29.2162

> <Gold.PLP.part.hbond>
-4.3711

> <Gold.PLP.part.metal>
0.0000

> <Gold.PLP.part.buried>
-5.1729

> <Gold.PLP.part.nonpolar>
-19.5940

> <Gold.PLP.part.repulsive>
0.1922

> <Gold.PLP.ligand.clash>
0.0000

> <Gold.PLP.ligand.torsion>
0.6630

> <Gold.PLP.Chemscore.Hbond>
2.7020

> <Gold.PLP.Chemscore.CHOScore>
1.0000

> <Gold.PLP.Chemscore.Metal>
0.0000

> <Gold.Chemscore.Hbonds>
donor molecule, donor type, donor heavy atom, donor atom, acceptor molecule, acceptor atom, score
      L1  H     1    23       P1  7957  1.00
      L1  H    14    29       P1  8028  0.90
      P1  H  7989  7998       L1     3  0.75
      L1  C     4    24       P1  8028  1.00

> <Gold.PLP.Chemscore.Internal.Correction>
0.0275

> <Gold.Rescore>
     Score         DG    S(hbond)    S(metal)    S(lipo)     H(rot)  DE(clash)    DE(int)     intcor
      6.00      -8.48       2.57        0.00      41.06       4.06       0.09       2.38       ----

> <Gold.Chemscore.Fitness>
6.0046

> <Gold.Chemscore.DG>
-8.4753

> <Gold.Chemscore.ZeroCoef>
-5.4800

> <Gold.Chemscore.Hbond>
2.5701

> <Gold.Chemscore.Metal>
0.0000

> <Gold.Chemscore.Lipo>
41.0648

> <Gold.Chemscore.Internal_Hbond>
0.0000

> <Gold.Chemscore.DEClash>
0.0879

> <Gold.Chemscore.DEInternal>
2.3828

> <Gold.Chemscore.Rot>
4.0600

> <Gold.Chemscore.Internal.Correction>
   9.000000E+99

> <Gold.Chemscore.Hbonds>
donor molecule, donor type, donor heavy atom, donor atom, acceptor molecule, acceptor atom, score
      L1  H     1    23       P1  7957  0.74
      L1  H    14    29       P1  8028  0.18
      P1  H  7989  7998       L1     3  0.17

> <Gold.Chemscore.Hbond.Weighted>
-8.5843

> <Gold.Chemscore.Metal.Weighted>
-0.0000

> <Gold.Chemscore.Lipo.Weighted>
-4.8046

> <Gold.Chemscore.Internal_Hbond.Weighted>
0.0000

> <Gold.Chemscore.DEClash.Weighted>
0.0879

> <Gold.Chemscore.DEInternal.Weighted>
2.3828

> <Gold.Chemscore.Rot.Weighted>
10.3936

> <Gold.Chemscore.Internal.Correction.Weighted>
   9.000000E+99

> <Gold.Protein.RotatedTorsions>
[ 6907 6896 6895 6894 ] final -143.47 input  -60.11 | X-H torsion
[ 7974 7965 7964 7962 ] final  -74.83 input  175.53 | X-H torsion
[ 8008 7997 7996 7995 ] final   95.62 input   59.86 | X-H torsion
[ 10167 10162 10161 10158 ] final  102.69 input  -65.29 | X-H torsion
[ 10718 10713 10712 10709 ] final  -40.04 input   66.30 | X-H torsion
[ 10763 10752 10751 10750 ] final -129.88 input  -60.55 | X-H torsion
[ 11005 11000 10999 10996 ] final   82.22 input  -57.11 | X-H torsion

> <Gold.Protein.ActiveResidues>
 VAL166  LYS551  ARG553  GLY616  TRP617  ASP618  TYR619  PRO620  LYS621  CYS622 
 ASP623  PHE694  ASN695  SER759  ASP760  ASP761  ALA762  ILE779  LEU786  VAL792 
 PHE793  MET794  SER795  GLU796  ALA797  LYS798  CYS799  TRP800  GLU811  SER814 

> <Gold.Protein.RotatedAtoms>
  151.1009  133.5244  159.2609 H   0  0  0  0  0  0  0  0  0  0  0  0  # atno 6907 bound_to 6896
  151.2076  135.0467  159.8908 H   0  0  0  0  0  0  0  0  0  0  0  0  # atno 6908 bound_to 6896
  152.5443  134.0828  159.8296 H   0  0  0  0  0  0  0  0  0  0  0  0  # atno 6909 bound_to 6896
  145.6340  140.9330  143.1072 H   0  0  0  0  0  0  0  0  0  0  0  0  # atno 7974 bound_to 7965
  156.0709  140.3284  155.7574 H   0  0  0  0  0  0  0  0  0  0  0  0  # atno 8008 bound_to 7997
  155.5307  140.0593  157.2907 H   0  0  0  0  0  0  0  0  0  0  0  0  # atno 8009 bound_to 7997
  154.4529  140.1928  156.0481 H   0  0  0  0  0  0  0  0  0  0  0  0  # atno 8010 bound_to 7997
  139.7328  144.7032  151.0696 H   0  0  0  0  0  0  0  0  0  0  0  0  # atno 10167 bound_to 10162
  156.2857  130.4222  149.8290 H   0  0  0  0  0  0  0  0  0  0  0  0  # atno 10718 bound_to 10713
  154.8757  135.3881  154.3992 H   0  0  0  0  0  0  0  0  0  0  0  0  # atno 10763 bound_to 10752
  153.4719  135.7030  153.5994 H   0  0  0  0  0  0  0  0  0  0  0  0  # atno 10764 bound_to 10752
  153.4447  135.3848  155.2217 H   0  0  0  0  0  0  0  0  0  0  0  0  # atno 10765 bound_to 10752
  139.9071  134.8055  156.2145 H   0  0  0  0  0  0  0  0  0  0  0  0  # atno 11005 bound_to 11000
  144.7183  139.8120  143.7391 LP  0  0  0  0  0  0  0  0  0  0  0  0  # atno 17320 bound_to 7965
  146.1334  139.4374  143.0154 LP  0  0  0  0  0  0  0  0  0  0  0  0  # atno 17321 bound_to 7965
  140.7774  143.5022  150.9757 LP  0  0  0  0  0  0  0  0  0  0  0  0  # atno 17342 bound_to 10162
  139.8710  143.7192  152.3166 LP  0  0  0  0  0  0  0  0  0  0  0  0  # atno 17343 bound_to 10162
  156.5721  130.8429  151.3359 LP  0  0  0  0  0  0  0  0  0  0  0  0  # atno 17370 bound_to 10713
  157.7328  130.9720  150.1945 LP  0  0  0  0  0  0  0  0  0  0  0  0  # atno 17371 bound_to 10713
  141.0444  133.6921  156.1657 LP  0  0  0  0  0  0  0  0  0  0  0  0  # atno 17394 bound_to 11000
  140.6906  134.4670  157.5588 LP  0  0  0  0  0  0  0  0  0  0  0  0  # atno 17395 bound_to 11000

$$$$
