AV-unprocessed.smi:34|AV-procd|sdf|226|dock1
  -GOLD-   2262015553D 1   1.00000     0.00000
 Structure written by MMmdl.
 55 59  0  0  0  0  0  0  0  0  1 V2000
  152.7170  140.4400  158.0776 O   0  0  0  0  0  0  0  0  0  0  0  0
  152.0125  141.3789  157.7057 C   0  0  0  0  0  0  0  0  0  0  0  0
  151.0373  141.2384  156.6388 N   0  0  0  0  0  0  0  0  0  0  0  0
  150.7865  140.1522  155.8709 C   0  0  0  0  0  0  0  0  0  0  0  0
  151.7343  139.5824  155.0817 N   0  0  0  0  0  0  0  0  0  0  0  0
  151.4360  138.5117  154.3416 C   0  0  0  0  0  0  0  0  0  0  0  0
  150.2750  137.8609  154.2504 N   0  0  0  0  0  0  0  0  0  0  0  0
  149.3160  138.4172  155.0476 C   0  0  0  0  0  0  0  0  0  0  0  0
  149.4953  139.5623  155.8742 C   0  0  0  0  0  0  0  0  0  0  0  0
  148.3071  139.8657  156.5231 N   0  0  0  0  0  0  0  0  0  0  0  0
  147.4751  138.9539  156.0987 C   0  0  0  0  0  0  0  0  0  0  0  0
  148.0045  138.0148  155.2376 N   0  0  0  0  0  0  0  0  0  0  0  0
  147.2839  136.8697  154.5738 C   0  0  1  0  0  0  0  0  0  0  0  0
  147.8938  135.6727  154.9465 O   0  0  0  0  0  0  0  0  0  0  0  0
  147.2759  135.2005  156.1341 C   0  0  2  0  0  0  0  0  0  0  0  0
  147.6519  133.7381  156.4114 C   0  0  0  0  0  0  0  0  0  0  0  0
  147.6085  133.4906  157.8104 O   0  0  0  0  0  0  0  0  0  0  0  0
  148.3394  134.2363  158.6682 C   0  0  0  0  0  0  0  0  0  0  0  0
  149.3452  134.8689  158.3401 O   0  0  0  0  0  0  0  0  0  0  0  0
  147.7912  134.2292  160.0546 C   0  0  0  0  0  0  0  0  0  0  0  0
  147.8897  135.3986  160.8439 C   0  0  0  0  0  0  0  0  0  0  0  0
  147.3655  135.4284  162.1505 C   0  0  0  0  0  0  0  0  0  0  0  0
  146.7358  134.2888  162.6836 C   0  0  0  0  0  0  0  0  0  0  0  0
  146.6306  133.1194  161.9081 C   0  0  0  0  0  0  0  0  0  0  0  0
  147.1546  133.0877  160.6012 C   0  0  0  0  0  0  0  0  0  0  0  0
  145.8083  135.4188  155.7851 C   0  0  1  0  0  0  0  0  0  0  0  0
  145.0354  135.4385  156.8715 F   0  0  0  0  0  0  0  0  0  0  0  0
  145.8274  136.7716  155.0819 C   0  0  2  0  0  0  0  0  0  0  0  0
  144.8845  136.8031  154.0307 O   0  0  0  0  0  0  0  0  0  0  0  0
  152.0586  142.7175  158.3842 C   0  0  0  0  0  0  0  0  0  0  0  0
  151.6600  143.8787  157.6841 C   0  0  0  0  0  0  0  0  0  0  0  0
  151.6865  145.1373  158.3160 C   0  0  0  0  0  0  0  0  0  0  0  0
  152.1041  145.2448  159.6556 C   0  0  0  0  0  0  0  0  0  0  0  0
  152.4911  144.0923  160.3647 C   0  0  0  0  0  0  0  0  0  0  0  0
  152.4652  142.8331  159.7339 C   0  0  0  0  0  0  0  0  0  0  0  0
  150.4923  142.0618  156.4287 H   0  0  0  0  0  0  0  0  0  0  0  0
  152.2423  138.1200  153.7390 H   0  0  0  0  0  0  0  0  0  0  0  0
  146.4414  138.9402  156.4130 H   0  0  0  0  0  0  0  0  0  0  0  0
  147.3889  137.0650  153.5061 H   0  0  0  0  0  0  0  0  0  0  0  0
  147.5571  135.8329  156.9790 H   0  0  0  0  0  0  0  0  0  0  0  0
  146.9159  133.0833  155.9447 H   0  0  0  0  0  0  0  0  0  0  0  0
  148.6185  133.4829  155.9745 H   0  0  0  0  0  0  0  0  0  0  0  0
  148.3665  136.2867  160.4545 H   0  0  0  0  0  0  0  0  0  0  0  0
  147.4464  136.3272  162.7438 H   0  0  0  0  0  0  0  0  0  0  0  0
  146.3327  134.3119  163.6853 H   0  0  0  0  0  0  0  0  0  0  0  0
  146.1453  132.2446  162.3153 H   0  0  0  0  0  0  0  0  0  0  0  0
  147.0517  132.1762  160.0309 H   0  0  0  0  0  0  0  0  0  0  0  0
  145.4516  134.6271  155.1238 H   0  0  0  0  0  0  0  0  0  0  0  0
  145.6099  137.5676  155.7942 H   0  0  0  0  0  0  0  0  0  0  0  0
  145.1563  137.4566  153.4042 H   0  0  0  0  0  0  0  0  0  0  0  0
  151.3356  143.8133  156.6555 H   0  0  0  0  0  0  0  0  0  0  0  0
  151.3854  146.0206  157.7722 H   0  0  0  0  0  0  0  0  0  0  0  0
  152.1242  146.2100  160.1400 H   0  0  0  0  0  0  0  0  0  0  0  0
  152.8061  144.1734  161.3945 H   0  0  0  0  0  0  0  0  0  0  0  0
  152.7580  141.9611  160.3004 H   0  0  0  0  0  0  0  0  0  0  0  0
  1  2  2  0  0  0  0
  2  3  1  0  0  0  0
  2 30  1  0  0  0  0
  3  4  1  0  0  0  0
  3 36  1  0  0  0  0
  4  9  1  0  0  0  0
  4  5  2  0  0  0  0
  5  6  1  0  0  0  0
  6  7  2  0  0  0  0
  6 37  1  0  0  0  0
  7  8  1  0  0  0  0
  8 12  1  0  0  0  0
  8  9  2  0  0  0  0
  9 10  1  0  0  0  0
 10 11  2  0  0  0  0
 11 12  1  0  0  0  0
 11 38  1  0  0  0  0
 12 13  1  0  0  0  0
 13 28  1  0  0  0  0
 13 14  1  0  0  0  0
 13 39  1  0  0  0  0
 14 15  1  0  0  0  0
 15 16  1  0  0  0  0
 15 26  1  0  0  0  0
 15 40  1  0  0  0  0
 16 17  1  0  0  0  0
 16 41  1  0  0  0  0
 16 42  1  0  0  0  0
 17 18  1  0  0  0  0
 18 19  2  0  0  0  0
 18 20  1  0  0  0  0
 20 25  1  0  0  0  0
 20 21  2  0  0  0  0
 21 22  1  0  0  0  0
 21 43  1  0  0  0  0
 22 23  2  0  0  0  0
 22 44  1  0  0  0  0
 23 24  1  0  0  0  0
 23 45  1  0  0  0  0
 24 25  2  0  0  0  0
 24 46  1  0  0  0  0
 25 47  1  0  0  0  0
 26 27  1  0  0  0  0
 26 28  1  0  0  0  0
 26 48  1  0  0  0  0
 28 29  1  0  0  0  0
 28 49  1  0  0  0  0
 29 50  1  0  0  0  0
 30 35  1  0  0  0  0
 30 31  2  0  0  0  0
 31 32  1  0  0  0  0
 31 51  1  0  0  0  0
 32 33  2  0  0  0  0
 32 52  1  0  0  0  0
 33 34  1  0  0  0  0
 33 53  1  0  0  0  0
 34 35  2  0  0  0  0
 34 54  1  0  0  0  0
 35 55  1  0  0  0  0
M  END
> <s_m_source_file>
AV-unprocessed.smi

> <i_m_source_file_index>
34

> <i_lp_mmshare_version>
43012

> <i_f3d_flags>
0

> <s_epik_input>
W2NIXTFbY0hdW2NIXVtjSF1bY0hdYzFDKD1PKVtOSF1jKG5bY0hdbjIpYyhjMjMpbltjSF1uM1tDQEBIXTRPW0NASF0oW0NAQEhdKEYpW0NASF00W09IXSlbQ0gyXU9DKD1PKWM1W2NIXVtjSF1bY0hdW2NIXVtjSF01

> <s_epik_cmdline>
J2VwaWtfcHl0aG9uJywgJy1waCcsICc3LjAnLCAnLXRuJywgJzgnLCAnLW1hJywgJzIwMCcsICctbWV0YWxfYmluZGluZycsICctaW1hZScsICc8aW5maWxlLm1hZT4nLCAnLW9tYWUnLCAnPG91dGZpbGUubWFlPic=

> <r_lp_tautomer_probability>
1

> <r_epik_Ionization_Penalty>
0.00257489

> <r_epik_Ionization_Penalty_Charging>
0

> <r_epik_Ionization_Penalty_Neutral>
0.00257489

> <r_epik_State_Penalty>
0.00519398

> <r_epik_Charging_Adjusted_Penalty>
0.00519398

> <i_epik_Tot_Q>
0

> <i_epik_Tot_abs_Q>
0

> <r_epik_Metal_State_Penalty>
0.335891

> <b_epik_Metal_Only>
0

> <s_epik_Chemistry_Notes>
This compound has an ester and may undergo hydrolysis at high or low pH. This compound contains an acetal/aminal-like group ( X-CH(R)-Y where X, Y are N, S, or O) that may be acid/base labile, releasing an aldehyde.

> <s_lp_Force_Field>
OPLS_2005

> <r_lp_Energy>
40.9193

> <b_lp_Chiralities_Consistent>
1

> <s_lp_Variant>
AV-unprocessed.smi:34-12

> <Gold.Version>
5.8.1

> <Gold.Id.Protein>
6NUR|6NUR_protein|mol2

> <Gold.PLP.Fitness>
51.7402

> <Gold.PLP.PLP>
-48.6012

> <Gold.PLP.part.hbond>
-3.0000

> <Gold.PLP.part.metal>
0.0000

> <Gold.PLP.part.buried>
-7.8887

> <Gold.PLP.part.nonpolar>
-37.8739

> <Gold.PLP.part.repulsive>
0.4839

> <Gold.PLP.ligand.clash>
0.0000

> <Gold.PLP.ligand.torsion>
2.0892

> <Gold.PLP.Chemscore.Hbond>
2.3149

> <Gold.PLP.Chemscore.CHOScore>
0.0000

> <Gold.PLP.Chemscore.Metal>
0.0000

> <Gold.Chemscore.Hbonds>
donor molecule, donor type, donor heavy atom, donor atom, acceptor molecule, acceptor atom, score
      P1  H  6896  6909       L1    19  1.00
      P1  H  7989  7998       L1     5  0.66
      P1  H  7997  8008       L1     1  0.60

> <Gold.PLP.Chemscore.Internal.Correction>
0.3727

> <Gold.Rescore>
     Score         DG    S(hbond)    S(metal)    S(lipo)     H(rot)  DE(clash)    DE(int)     intcor
     14.48     -17.24       1.61        0.00     114.12       2.72       0.50       2.27       ----

> <Gold.Chemscore.Fitness>
14.4787

> <Gold.Chemscore.DG>
-17.2420

> <Gold.Chemscore.ZeroCoef>
-5.4800

> <Gold.Chemscore.Hbond>
1.6101

> <Gold.Chemscore.Metal>
0.0000

> <Gold.Chemscore.Lipo>
114.1154

> <Gold.Chemscore.Internal_Hbond>
0.0000

> <Gold.Chemscore.DEClash>
0.4981

> <Gold.Chemscore.DEInternal>
2.2653

> <Gold.Chemscore.Rot>
2.7215

> <Gold.Chemscore.Internal.Correction>
   9.000000E+99

> <Gold.Chemscore.Hbonds>
donor molecule, donor type, donor heavy atom, donor atom, acceptor molecule, acceptor atom, score
      P1  H  6896  6909       L1    19  0.45
      P1  H  7989  7998       L1     5  0.01
      P1  H  7997  8008       L1     1  0.55

> <Gold.Chemscore.Hbond.Weighted>
-5.3776

> <Gold.Chemscore.Metal.Weighted>
-0.0000

> <Gold.Chemscore.Lipo.Weighted>
-13.3515

> <Gold.Chemscore.Internal_Hbond.Weighted>
0.0000

> <Gold.Chemscore.DEClash.Weighted>
0.4981

> <Gold.Chemscore.DEInternal.Weighted>
2.2653

> <Gold.Chemscore.Rot.Weighted>
6.9670

> <Gold.Chemscore.Internal.Correction.Weighted>
   9.000000E+99

> <Gold.Protein.RotatedTorsions>
[ 6907 6896 6895 6894 ] final   22.61 input  -60.11 | X-H torsion
[ 7974 7965 7964 7962 ] final  -68.84 input  175.53 | X-H torsion
[ 8008 7997 7996 7995 ] final  -76.15 input   59.86 | X-H torsion
[ 10167 10162 10161 10158 ] final   33.48 input  -65.29 | X-H torsion
[ 10718 10713 10712 10709 ] final   39.31 input   66.30 | X-H torsion
[ 10763 10752 10751 10750 ] final   56.04 input  -60.55 | X-H torsion
[ 11005 11000 10999 10996 ] final  -76.75 input  -57.11 | X-H torsion

> <Gold.Protein.ActiveResidues>
 VAL166  LYS551  ARG553  GLY616  TRP617  ASP618  TYR619  PRO620  LYS621  CYS622 
 ASP623  PHE694  ASN695  SER759  ASP760  ASP761  ALA762  ILE779  LEU786  VAL792 
 PHE793  MET794  SER795  GLU796  ALA797  LYS798  CYS799  TRP800  GLU811  SER814 

> <Gold.Protein.RotatedAtoms>
  151.9298  135.0261  160.0528 H   0  0  0  0  0  0  0  0  0  0  0  0  # atno 6907 bound_to 6896
  152.2128  133.4919  159.5128 H   0  0  0  0  0  0  0  0  0  0  0  0  # atno 6908 bound_to 6896
  150.6980  134.1361  159.4130 H   0  0  0  0  0  0  0  0  0  0  0  0  # atno 6909 bound_to 6896
  145.7114  140.9077  143.0679 H   0  0  0  0  0  0  0  0  0  0  0  0  # atno 7974 bound_to 7965
  154.5480  140.0732  156.8620 H   0  0  0  0  0  0  0  0  0  0  0  0  # atno 8008 bound_to 7997
  155.3050  140.3386  155.4228 H   0  0  0  0  0  0  0  0  0  0  0  0  # atno 8009 bound_to 7997
  156.1935  140.1695  156.8030 H   0  0  0  0  0  0  0  0  0  0  0  0  # atno 8010 bound_to 7997
  140.4403  144.1197  150.6173 H   0  0  0  0  0  0  0  0  0  0  0  0  # atno 10167 bound_to 10162
  157.3690  130.7691  149.7105 H   0  0  0  0  0  0  0  0  0  0  0  0  # atno 10718 bound_to 10713
  152.9826  135.5690  154.5164 H   0  0  0  0  0  0  0  0  0  0  0  0  # atno 10763 bound_to 10752
  154.4659  135.2783  155.1680 H   0  0  0  0  0  0  0  0  0  0  0  0  # atno 10764 bound_to 10752
  154.3248  135.6261  153.5578 H   0  0  0  0  0  0  0  0  0  0  0  0  # atno 10765 bound_to 10752
  141.1656  133.6995  156.7716 H   0  0  0  0  0  0  0  0  0  0  0  0  # atno 11005 bound_to 11000
  144.6941  139.9079  143.7462 LP  0  0  0  0  0  0  0  0  0  0  0  0  # atno 17320 bound_to 7965
  146.0709  139.3698  143.0523 LP  0  0  0  0  0  0  0  0  0  0  0  0  # atno 17321 bound_to 7965
  140.4326  143.2561  151.9576 LP  0  0  0  0  0  0  0  0  0  0  0  0  # atno 17342 bound_to 10162
  139.4789  144.5730  151.8058 LP  0  0  0  0  0  0  0  0  0  0  0  0  # atno 17343 bound_to 10162
  155.9752  130.4092  150.3868 LP  0  0  0  0  0  0  0  0  0  0  0  0  # atno 17370 bound_to 10713
  157.1957  131.0426  151.2677 LP  0  0  0  0  0  0  0  0  0  0  0  0  # atno 17371 bound_to 10713
  140.2460  134.8577  157.3620 LP  0  0  0  0  0  0  0  0  0  0  0  0  # atno 17394 bound_to 11000
  140.1749  134.4562  155.7808 LP  0  0  0  0  0  0  0  0  0  0  0  0  # atno 17395 bound_to 11000

$$$$
