AV-unprocessed.smi:3222|AV-procd|sdf|12306|dock10
  -GOLD-   2272018153D 1   1.00000     0.00000
 Structure written by MMmdl.
 41 42  0  0  0  0  0  0  0  0  2 V2000
  149.2158  141.5434  154.4743 C   0  0  0  0  0  0  0  0  0  0  0  0
  150.0564  141.5781  155.7609 C   0  0  1  0  0  0  0  0  0  0  0  0
  149.5482  142.6447  156.6540 N   0  3  0  0  0  0  0  0  0  0  0  0
  150.0693  142.6070  158.0338 C   0  0  0  0  0  0  0  0  0  0  0  0
  151.5082  143.1429  158.0875 C   0  0  0  0  0  0  0  0  0  0  0  0
  152.0471  143.1117  159.4443 N   0  0  0  0  0  0  0  0  0  0  0  0
  153.1291  142.2066  159.7933 C   0  0  0  0  0  0  0  0  0  0  0  0
  153.2874  142.3420  161.3146 C   0  0  0  0  0  0  0  0  0  0  0  0
  152.4969  143.5951  161.7069 C   0  0  0  0  0  0  0  0  0  0  0  0
  151.6851  143.9035  160.4605 C   0  0  0  0  0  0  0  0  0  0  0  0
  150.8175  144.7748  160.4258 O   0  0  0  0  0  0  0  0  0  0  0  0
  150.1007  140.2075  156.4858 C   0  0  1  0  0  0  0  0  0  0  0  0
  148.7537  139.8251  157.1284 C   0  0  0  0  0  0  0  0  0  0  0  0
  150.6281  139.1338  155.6486 N   0  0  0  0  0  0  0  0  0  0  0  0
  150.9434  137.8425  156.0205 C   0  0  0  0  0  0  0  0  0  0  0  0
  151.4226  137.2019  154.9142 C   0  0  0  0  0  0  0  0  0  0  0  0
  151.3670  138.1951  153.8977 C   0  0  0  0  0  0  0  0  0  0  0  0
  150.8977  139.3501  154.3404 N   0  0  0  0  0  0  0  0  0  0  0  0
  149.5631  140.7602  153.7999 H   0  0  0  0  0  0  0  0  0  0  0  0
  149.2839  142.4904  153.9382 H   0  0  0  0  0  0  0  0  0  0  0  0
  148.1615  141.3590  154.6834 H   0  0  0  0  0  0  0  0  0  0  0  0
  151.0789  141.8221  155.4664 H   0  0  0  0  0  0  0  0  0  0  0  0
  149.7749  143.5402  156.2460 H   0  0  0  0  0  0  0  0  0  0  0  0
  149.4184  143.2040  158.6740 H   0  0  0  0  0  0  0  0  0  0  0  0
  150.0363  141.5807  158.4021 H   0  0  0  0  0  0  0  0  0  0  0  0
  152.1497  142.5531  157.4310 H   0  0  0  0  0  0  0  0  0  0  0  0
  151.5432  144.1672  157.7125 H   0  0  0  0  0  0  0  0  0  0  0  0
  152.9005  141.1811  159.5004 H   0  0  0  0  0  0  0  0  0  0  0  0
  154.0389  142.5159  159.2770 H   0  0  0  0  0  0  0  0  0  0  0  0
  152.8682  141.4678  161.8145 H   0  0  0  0  0  0  0  0  0  0  0  0
  154.3361  142.4139  161.6051 H   0  0  0  0  0  0  0  0  0  0  0  0
  151.8533  143.4233  162.5702 H   0  0  0  0  0  0  0  0  0  0  0  0
  153.1605  144.4326  161.9247 H   0  0  0  0  0  0  0  0  0  0  0  0
  150.8045  140.3169  157.3125 H   0  0  0  0  0  0  0  0  0  0  0  0
  148.4170  140.5994  157.8181 H   0  0  0  0  0  0  0  0  0  0  0  0
  148.8415  138.8977  157.6954 H   0  0  0  0  0  0  0  0  0  0  0  0
  147.9695  139.6835  156.3842 H   0  0  0  0  0  0  0  0  0  0  0  0
  150.8036  137.4901  157.0320 H   0  0  0  0  0  0  0  0  0  0  0  0
  151.7624  136.1792  154.8418 H   0  0  0  0  0  0  0  0  0  0  0  0
  151.6552  138.1132  152.8600 H   0  0  0  0  0  0  0  0  0  0  0  0
  148.5417  142.5609  156.6926 H   0  0  0  0  0  0  0  0  0  0  0  0
  1  2  1  0  0  0  0
  1 19  1  0  0  0  0
  1 20  1  0  0  0  0
  1 21  1  0  0  0  0
  2  3  1  0  0  0  0
  2 12  1  0  0  0  0
  2 22  1  0  0  0  0
  3  4  1  0  0  0  0
  3 23  1  0  0  0  0
  3 41  1  0  0  0  0
  4  5  1  0  0  0  0
  4 24  1  0  0  0  0
  4 25  1  0  0  0  0
  5  6  1  0  0  0  0
  5 26  1  0  0  0  0
  5 27  1  0  0  0  0
  6 10  1  0  0  0  0
  6  7  1  0  0  0  0
  7  8  1  0  0  0  0
  7 28  1  0  0  0  0
  7 29  1  0  0  0  0
  8  9  1  0  0  0  0
  8 30  1  0  0  0  0
  8 31  1  0  0  0  0
  9 10  1  0  0  0  0
  9 32  1  0  0  0  0
  9 33  1  0  0  0  0
 10 11  2  0  0  0  0
 12 13  1  0  0  0  0
 12 14  1  0  0  0  0
 12 34  1  0  0  0  0
 13 35  1  0  0  0  0
 13 36  1  0  0  0  0
 13 37  1  0  0  0  0
 14 18  1  0  0  0  0
 14 15  1  0  0  0  0
 15 16  2  0  0  0  0
 15 38  1  0  0  0  0
 16 17  1  0  0  0  0
 16 39  1  0  0  0  0
 17 18  2  0  0  0  0
 17 40  1  0  0  0  0
M  CHG  1   3   1
M  END
> <s_m_source_file>
AV-unprocessed.smi

> <i_m_source_file_index>
3222

> <i_lp_mmshare_version>
43012

> <i_f3d_flags>
0

> <s_epik_input>
bjFbY0hdW2NIXVtjSF1uMVtDQEBIXShbQ0gzXSlbQ0BIXShbQ0gzXSlbTkhdW0NIMl1bQ0gyXU4yW0NIMl1bQ0gyXVtDSDJdQzI9Tw==

> <s_epik_cmdline>
J2VwaWtfcHl0aG9uJywgJy1waCcsICc3LjAnLCAnLXRuJywgJzgnLCAnLW1hJywgJzIwMCcsICctbWV0YWxfYmluZGluZycsICctaW1hZScsICc8aW5maWxlLm1hZT4nLCAnLW9tYWUnLCAnPG91dGZpbGUubWFlPic=

> <r_lp_tautomer_probability>
1

> <r_epik_Ionization_Penalty>
0.0064019

> <r_epik_Ionization_Penalty_Charging>
0.00639164

> <r_epik_Ionization_Penalty_Neutral>
1.02567e-05

> <r_epik_State_Penalty>
0.00472531

> <r_epik_Charging_Adjusted_Penalty>
0.011117

> <i_epik_Tot_Q>
1

> <i_epik_Tot_abs_Q>
1

> <r_epik_Metal_State_Penalty>
-0

> <b_epik_Metal_Only>
0

> <s_lp_Force_Field>
OPLS_2005

> <r_lp_Energy>
25.7217

> <b_lp_Chiralities_Consistent>
1

> <s_lp_Variant>
AV-unprocessed.smi:3222-4

> <Gold.Version>
5.8.1

> <Gold.Id.Protein>
6NUR|6NUR_protein|mol2

> <Gold.PLP.Fitness>
47.4179

> <Gold.PLP.PLP>
-36.6771

> <Gold.PLP.part.hbond>
-1.9015

> <Gold.PLP.part.metal>
0.0000

> <Gold.PLP.part.buried>
-6.0160

> <Gold.PLP.part.nonpolar>
-30.2599

> <Gold.PLP.part.repulsive>
0.3324

> <Gold.PLP.ligand.clash>
0.0000

> <Gold.PLP.ligand.torsion>
0.3626

> <Gold.PLP.Chemscore.Hbond>
2.8880

> <Gold.PLP.Chemscore.CHOScore>
0.8586

> <Gold.PLP.Chemscore.Metal>
0.0000

> <Gold.Chemscore.Hbonds>
donor molecule, donor type, donor heavy atom, donor atom, acceptor molecule, acceptor atom, score
      L1  H     3    23       P1  8028  1.34
      P1  H  7989  7998       L1    18  1.00
      L1  C    17    40       P1  7949  0.77

> <Gold.PLP.Chemscore.Internal.Correction>
0.2263

> <Gold.Rescore>
     Score         DG    S(hbond)    S(metal)    S(lipo)     H(rot)  DE(clash)    DE(int)     intcor
     14.72     -16.72       1.71        0.00      90.81       1.99       0.14       1.86       ----

> <Gold.Chemscore.Fitness>
14.7243

> <Gold.Chemscore.DG>
-16.7201

> <Gold.Chemscore.ZeroCoef>
-5.4800

> <Gold.Chemscore.Hbond>
1.7112

> <Gold.Chemscore.Metal>
0.0000

> <Gold.Chemscore.Lipo>
90.8107

> <Gold.Chemscore.Internal_Hbond>
0.0000

> <Gold.Chemscore.DEClash>
0.1364

> <Gold.Chemscore.DEInternal>
1.8594

> <Gold.Chemscore.Rot>
1.9922

> <Gold.Chemscore.Internal.Correction>
   9.000000E+99

> <Gold.Chemscore.Hbonds>
donor molecule, donor type, donor heavy atom, donor atom, acceptor molecule, acceptor atom, score
      L1  H     3    23       P1  8028  0.67
      P1  H  7989  7998       L1    18  0.88

> <Gold.Chemscore.Hbond.Weighted>
-5.7154

> <Gold.Chemscore.Metal.Weighted>
-0.0000

> <Gold.Chemscore.Lipo.Weighted>
-10.6248

> <Gold.Chemscore.Internal_Hbond.Weighted>
0.0000

> <Gold.Chemscore.DEClash.Weighted>
0.1364

> <Gold.Chemscore.DEInternal.Weighted>
1.8594

> <Gold.Chemscore.Rot.Weighted>
5.1002

> <Gold.Chemscore.Internal.Correction.Weighted>
   9.000000E+99

> <Gold.Protein.RotatedTorsions>
[ 6907 6896 6895 6894 ] final  111.21 input  -60.11 | X-H torsion
[ 7974 7965 7964 7962 ] final   20.23 input  175.53 | X-H torsion
[ 8008 7997 7996 7995 ] final   33.81 input   59.86 | X-H torsion
[ 10167 10162 10161 10158 ] final -117.35 input  -65.29 | X-H torsion
[ 10718 10713 10712 10709 ] final   -5.93 input   66.30 | X-H torsion
[ 10763 10752 10751 10750 ] final  127.14 input  -60.55 | X-H torsion
[ 11005 11000 10999 10996 ] final   98.17 input  -57.11 | X-H torsion

> <Gold.Protein.ActiveResidues>
 VAL166  LYS551  ARG553  GLY616  TRP617  ASP618  TYR619  PRO620  LYS621  CYS622 
 ASP623  PHE694  ASN695  SER759  ASP760  ASP761  ALA762  ILE779  LEU786  VAL792 
 PHE793  MET794  SER795  GLU796  ALA797  LYS798  CYS799  TRP800  GLU811  SER814 

> <Gold.Protein.RotatedAtoms>
  152.4981  133.8690  159.7288 H   0  0  0  0  0  0  0  0  0  0  0  0  # atno 6907 bound_to 6896
  150.9182  133.6904  159.2845 H   0  0  0  0  0  0  0  0  0  0  0  0  # atno 6908 bound_to 6896
  151.4290  135.1011  159.9689 H   0  0  0  0  0  0  0  0  0  0  0  0  # atno 6909 bound_to 6896
  146.2119  139.8200  142.8682 H   0  0  0  0  0  0  0  0  0  0  0  0  # atno 7974 bound_to 7965
  155.1446  140.3269  155.4444 H   0  0  0  0  0  0  0  0  0  0  0  0  # atno 8008 bound_to 7997
  156.2594  140.1987  156.6510 H   0  0  0  0  0  0  0  0  0  0  0  0  # atno 8009 bound_to 7997
  154.6517  140.0557  156.9950 H   0  0  0  0  0  0  0  0  0  0  0  0  # atno 8010 bound_to 7997
  140.0693  143.4892  152.1988 H   0  0  0  0  0  0  0  0  0  0  0  0  # atno 10167 bound_to 10162
  156.7394  130.5205  149.5827 H   0  0  0  0  0  0  0  0  0  0  0  0  # atno 10718 bound_to 10713
  153.7046  135.3278  155.3232 H   0  0  0  0  0  0  0  0  0  0  0  0  # atno 10763 bound_to 10752
  154.8403  135.4462  154.1376 H   0  0  0  0  0  0  0  0  0  0  0  0  # atno 10764 bound_to 10752
  153.2453  135.6975  153.7817 H   0  0  0  0  0  0  0  0  0  0  0  0  # atno 10765 bound_to 10752
  139.8773  134.9036  156.4417 H   0  0  0  0  0  0  0  0  0  0  0  0  # atno 11005 bound_to 11000
  145.3106  141.0219  143.3556 LP  0  0  0  0  0  0  0  0  0  0  0  0  # atno 17320 bound_to 7965
  144.8938  139.4739  143.6665 LP  0  0  0  0  0  0  0  0  0  0  0  0  # atno 17321 bound_to 7965
  139.5846  144.7525  151.3554 LP  0  0  0  0  0  0  0  0  0  0  0  0  # atno 17342 bound_to 10162
  140.7133  143.7332  150.7608 LP  0  0  0  0  0  0  0  0  0  0  0  0  # atno 17343 bound_to 10162
  156.1475  130.6287  151.0551 LP  0  0  0  0  0  0  0  0  0  0  0  0  # atno 17370 bound_to 10713
  157.6825  131.0834  150.7332 LP  0  0  0  0  0  0  0  0  0  0  0  0  # atno 17371 bound_to 10713
  140.8995  133.7790  155.9664 LP  0  0  0  0  0  0  0  0  0  0  0  0  # atno 17394 bound_to 11000
  140.8666  134.2776  157.5210 LP  0  0  0  0  0  0  0  0  0  0  0  0  # atno 17395 bound_to 11000

$$$$
