AV-unprocessed.smi:1412|AV-procd|sdf|5745|dock3
  -GOLD-   22720 5383D 1   1.00000     0.00000
 Structure written by MMmdl.
 40 41  0  0  0  0  0  0  0  0  2 V2000
  151.3546  139.3538  155.1366 C   0  0  0  0  0  0  0  0  0  0  0  0
  152.0724  138.8366  156.3968 C   0  0  0  0  0  0  0  0  0  0  0  0
  151.2537  138.9233  157.7246 C   0  0  2  0  0  0  0  0  0  0  0  0
  151.9059  137.9119  158.7053 C   0  0  0  0  0  0  0  0  0  0  0  0
  149.7884  138.4626  157.4290 C   0  0  0  0  0  0  0  0  0  0  0  0
  148.9801  138.2415  158.6295 N   0  0  0  0  0  0  0  0  0  0  0  0
  148.8642  137.0968  159.3185 C   0  0  0  0  0  0  0  0  0  0  0  0
  149.4882  136.0943  158.9628 O   0  0  0  0  0  0  0  0  0  0  0  0
  148.0216  137.1821  160.3726 N   0  5  0  0  0  0  0  0  0  0  0  0
  147.6543  136.0695  161.0291 C   0  0  0  0  0  0  0  0  0  0  0  0
  147.6549  134.8590  160.4483 N   0  0  0  0  0  0  0  0  0  0  0  0
  147.2452  133.8437  161.3022 N   0  0  0  0  0  0  0  0  0  0  0  0
  146.9536  134.3158  162.5137 C   0  0  0  0  0  0  0  0  0  0  0  0
  147.1538  136.0427  162.7223 S   0  0  0  0  0  0  0  0  0  0  0  0
  151.3019  140.3001  158.2950 N   0  0  0  0  0  0  0  0  0  0  0  0
  150.7969  141.3599  157.4138 C   0  0  0  0  0  0  0  0  0  0  0  0
  150.7427  142.7229  158.1248 C   0  0  0  0  0  0  0  0  0  0  0  0
  152.0329  143.0579  158.6217 O   0  0  0  0  0  0  0  0  0  0  0  0
  152.5384  142.0805  159.5236 C   0  0  0  0  0  0  0  0  0  0  0  0
  152.6083  140.7139  158.8214 C   0  0  0  0  0  0  0  0  0  0  0  0
  151.9905  139.2306  154.2598 H   0  0  0  0  0  0  0  0  0  0  0  0
  151.1145  140.4137  155.2147 H   0  0  0  0  0  0  0  0  0  0  0  0
  150.4285  138.8123  154.9444 H   0  0  0  0  0  0  0  0  0  0  0  0
  152.3984  137.8117  156.2199 H   0  0  0  0  0  0  0  0  0  0  0  0
  153.0000  139.4017  156.4940 H   0  0  0  0  0  0  0  0  0  0  0  0
  152.1098  136.9525  158.2287 H   0  0  0  0  0  0  0  0  0  0  0  0
  151.2632  137.6992  159.5596 H   0  0  0  0  0  0  0  0  0  0  0  0
  152.8537  138.2824  159.0963 H   0  0  0  0  0  0  0  0  0  0  0  0
  149.2792  139.1661  156.7703 H   0  0  0  0  0  0  0  0  0  0  0  0
  149.7906  137.5130  156.8955 H   0  0  0  0  0  0  0  0  0  0  0  0
  148.4486  139.0312  158.9653 H   0  0  0  0  0  0  0  0  0  0  0  0
  146.6204  133.6432  163.2897 H   0  0  0  0  0  0  0  0  0  0  0  0
  151.4292  141.4526  156.5312 H   0  0  0  0  0  0  0  0  0  0  0  0
  149.7931  141.1294  157.0616 H   0  0  0  0  0  0  0  0  0  0  0  0
  150.4161  143.4985  157.4321 H   0  0  0  0  0  0  0  0  0  0  0  0
  150.0230  142.7017  158.9446 H   0  0  0  0  0  0  0  0  0  0  0  0
  153.5298  142.3852  159.8588 H   0  0  0  0  0  0  0  0  0  0  0  0
  151.9027  142.0273  160.4088 H   0  0  0  0  0  0  0  0  0  0  0  0
  152.9884  139.9903  159.5397 H   0  0  0  0  0  0  0  0  0  0  0  0
  153.3396  140.7740  158.0154 H   0  0  0  0  0  0  0  0  0  0  0  0
  1  2  1  0  0  0  0
  1 21  1  0  0  0  0
  1 22  1  0  0  0  0
  1 23  1  0  0  0  0
  2  3  1  0  0  0  0
  2 24  1  0  0  0  0
  2 25  1  0  0  0  0
  3  4  1  0  0  0  0
  3  5  1  0  0  0  0
  3 15  1  0  0  0  0
  4 26  1  0  0  0  0
  4 27  1  0  0  0  0
  4 28  1  0  0  0  0
  5  6  1  0  0  0  0
  5 29  1  0  0  0  0
  5 30  1  0  0  0  0
  6  7  1  0  0  0  0
  6 31  1  0  0  0  0
  7  8  2  0  0  0  0
  7  9  1  0  0  0  0
  9 10  1  0  0  0  0
 10 14  1  0  0  0  0
 10 11  2  0  0  0  0
 11 12  1  0  0  0  0
 12 13  2  0  0  0  0
 13 14  1  0  0  0  0
 13 32  1  0  0  0  0
 15 20  1  0  0  0  0
 15 16  1  0  0  0  0
 16 17  1  0  0  0  0
 16 33  1  0  0  0  0
 16 34  1  0  0  0  0
 17 18  1  0  0  0  0
 17 35  1  0  0  0  0
 17 36  1  0  0  0  0
 18 19  1  0  0  0  0
 19 20  1  0  0  0  0
 19 37  1  0  0  0  0
 19 38  1  0  0  0  0
 20 39  1  0  0  0  0
 20 40  1  0  0  0  0
M  CHG  1   9  -1
M  END
> <s_m_source_file>
AV-unprocessed.smi

> <i_m_source_file_index>
1412

> <i_lp_mmshare_version>
43012

> <i_f3d_flags>
0

> <s_epik_input>
W0NIMl0xW0NIMl1PW0NIMl1bQ0gyXU4xW0NAQF0oW0NIM10pKFtDSDJdW0NIM10pW0NIMl1bTkhdQyg9TylbTkhdYzJubltjSF1zMg==

> <s_epik_cmdline>
J2VwaWtfcHl0aG9uJywgJy1waCcsICc3LjAnLCAnLXRuJywgJzgnLCAnLW1hJywgJzIwMCcsICctbWV0YWxfYmluZGluZycsICctaW1hZScsICc8aW5maWxlLm1hZT4nLCAnLW9tYWUnLCAnPG91dGZpbGUubWFlPic=

> <r_lp_tautomer_probability>
1

> <r_epik_Ionization_Penalty>
4.84662

> <r_epik_Ionization_Penalty_Charging>
4.3852

> <r_epik_Ionization_Penalty_Neutral>
0.461421

> <r_epik_State_Penalty>
4.67356

> <r_epik_Charging_Adjusted_Penalty>
9.05877

> <i_epik_Tot_Q>
-1

> <i_epik_Tot_abs_Q>
1

> <r_epik_Metal_State_Penalty>
1.08474

> <b_epik_Metal_Only>
1

> <s_lp_Force_Field>
OPLS_2005

> <r_lp_Energy>
39.9544

> <b_lp_Chiralities_Consistent>
1

> <s_lp_Variant>
AV-unprocessed.smi:1412-6

> <Gold.Version>
5.8.1

> <Gold.Id.Protein>
6NUR|6NUR_protein|mol2

> <Gold.PLP.Fitness>
44.6228

> <Gold.PLP.PLP>
-34.5004

> <Gold.PLP.part.hbond>
-3.0000

> <Gold.PLP.part.metal>
0.0000

> <Gold.PLP.part.buried>
-5.4922

> <Gold.PLP.part.nonpolar>
-27.4283

> <Gold.PLP.part.repulsive>
0.2258

> <Gold.PLP.ligand.clash>
0.0000

> <Gold.PLP.ligand.torsion>
0.7713

> <Gold.PLP.Chemscore.Hbond>
3.8037

> <Gold.PLP.Chemscore.CHOScore>
0.0000

> <Gold.PLP.Chemscore.Metal>
0.0000

> <Gold.Chemscore.Hbonds>
donor molecule, donor type, donor heavy atom, donor atom, acceptor molecule, acceptor atom, score
      P1  H  6896  6908       L1     8  1.00
      P1  H  6931  6943       L1     9  1.12
      P1  H  6934  6947       L1     9  1.27

> <Gold.PLP.Chemscore.Internal.Correction>
0.2540

> <Gold.Rescore>
     Score         DG    S(hbond)    S(metal)    S(lipo)     H(rot)  DE(clash)    DE(int)     intcor
     13.51     -15.93       1.89        0.00      75.16       1.82       0.00       2.42       ----

> <Gold.Chemscore.Fitness>
13.5075

> <Gold.Chemscore.DG>
-15.9279

> <Gold.Chemscore.ZeroCoef>
-5.4800

> <Gold.Chemscore.Hbond>
1.8934

> <Gold.Chemscore.Metal>
0.0000

> <Gold.Chemscore.Lipo>
75.1631

> <Gold.Chemscore.Internal_Hbond>
0.0000

> <Gold.Chemscore.DEClash>
0.0029

> <Gold.Chemscore.DEInternal>
2.4175

> <Gold.Chemscore.Rot>
1.8243

> <Gold.Chemscore.Internal.Correction>
   9.000000E+99

> <Gold.Chemscore.Hbonds>
donor molecule, donor type, donor heavy atom, donor atom, acceptor molecule, acceptor atom, score
      P1  H  6896  6908       L1     8  0.99
      P1  H  6931  6943       L1     9  0.12
      P1  H  6934  6947       L1     9  0.61

> <Gold.Chemscore.Hbond.Weighted>
-6.3241

> <Gold.Chemscore.Metal.Weighted>
-0.0000

> <Gold.Chemscore.Lipo.Weighted>
-8.7941

> <Gold.Chemscore.Internal_Hbond.Weighted>
0.0000

> <Gold.Chemscore.DEClash.Weighted>
0.0029

> <Gold.Chemscore.DEInternal.Weighted>
2.4175

> <Gold.Chemscore.Rot.Weighted>
4.6702

> <Gold.Chemscore.Internal.Correction.Weighted>
   9.000000E+99

> <Gold.Protein.RotatedTorsions>
[ 6907 6896 6895 6894 ] final -178.82 input  -60.11 | X-H torsion
[ 7974 7965 7964 7962 ] final  102.54 input  175.53 | X-H torsion
[ 8008 7997 7996 7995 ] final  -71.73 input   59.86 | X-H torsion
[ 10167 10162 10161 10158 ] final -129.33 input  -65.29 | X-H torsion
[ 10718 10713 10712 10709 ] final  114.09 input   66.30 | X-H torsion
[ 10763 10752 10751 10750 ] final   61.28 input  -60.55 | X-H torsion
[ 11005 11000 10999 10996 ] final  134.63 input  -57.11 | X-H torsion

> <Gold.Protein.ActiveResidues>
 VAL166  LYS551  ARG553  GLY616  TRP617  ASP618  TYR619  PRO620  LYS621  CYS622 
 ASP623  PHE694  ASN695  SER759  ASP760  ASP761  ALA762  ILE779  LEU786  VAL792 
 PHE793  MET794  SER795  GLU796  ALA797  LYS798  CYS799  TRP800  GLU811  SER814 

> <Gold.Protein.RotatedAtoms>
  151.6435  133.3324  159.3135 H   0  0  0  0  0  0  0  0  0  0  0  0  # atno 6907 bound_to 6896
  150.7996  134.7084  159.6599 H   0  0  0  0  0  0  0  0  0  0  0  0  # atno 6908 bound_to 6896
  152.4087  134.6167  160.0091 H   0  0  0  0  0  0  0  0  0  0  0  0  # atno 6909 bound_to 6896
  145.3578  139.2424  143.3523 H   0  0  0  0  0  0  0  0  0  0  0  0  # atno 7974 bound_to 7965
  154.5111  140.0810  156.7991 H   0  0  0  0  0  0  0  0  0  0  0  0  # atno 8008 bound_to 7997
  155.3784  140.3426  155.4227 H   0  0  0  0  0  0  0  0  0  0  0  0  # atno 8009 bound_to 7997
  156.1574  140.1577  156.8657 H   0  0  0  0  0  0  0  0  0  0  0  0  # atno 8010 bound_to 7997
  139.9409  143.6164  152.2503 H   0  0  0  0  0  0  0  0  0  0  0  0  # atno 10167 bound_to 10162
  157.6301  131.0993  150.7136 H   0  0  0  0  0  0  0  0  0  0  0  0  # atno 10718 bound_to 10713
  152.9946  135.5506  154.6008 H   0  0  0  0  0  0  0  0  0  0  0  0  # atno 10763 bound_to 10752
  154.5350  135.2816  155.1149 H   0  0  0  0  0  0  0  0  0  0  0  0  # atno 10764 bound_to 10752
  154.2449  135.6409  153.5272 H   0  0  0  0  0  0  0  0  0  0  0  0  # atno 10765 bound_to 10752
  139.9927  134.9509  156.9893 H   0  0  0  0  0  0  0  0  0  0  0  0  # atno 11005 bound_to 11000
  146.2940  140.4206  142.8728 LP  0  0  0  0  0  0  0  0  0  0  0  0  # atno 17320 bound_to 7965
  144.8669  140.7218  143.6071 LP  0  0  0  0  0  0  0  0  0  0  0  0  # atno 17321 bound_to 7965
  139.6705  144.7661  151.1792 LP  0  0  0  0  0  0  0  0  0  0  0  0  # atno 17342 bound_to 10162
  140.7611  143.5872  150.8833 LP  0  0  0  0  0  0  0  0  0  0  0  0  # atno 17343 bound_to 10162
  156.7477  130.4759  149.5463 LP  0  0  0  0  0  0  0  0  0  0  0  0  # atno 17370 bound_to 10713
  156.1499  130.6302  151.0581 LP  0  0  0  0  0  0  0  0  0  0  0  0  # atno 17371 bound_to 10713
  140.4877  134.1225  155.7227 LP  0  0  0  0  0  0  0  0  0  0  0  0  # atno 17394 bound_to 11000
  141.1579  133.8848  157.1927 LP  0  0  0  0  0  0  0  0  0  0  0  0  # atno 17395 bound_to 11000

$$$$
