AV-unprocessed.smi:2545|AV-procd|sdf|9995|dock4
  -GOLD-   2272014 43D 1   1.00000     0.00000
 Structure written by MMmdl.
 27 28  0  0  0  0  0  0  0  0  2 V2000
  149.0234  138.0866  153.9309 N   0  0  0  0  0  0  0  0  0  0  0  0
  148.8508  139.4478  154.1887 C   0  0  0  0  0  0  0  0  0  0  0  0
  147.8185  140.1515  153.5316 C   0  0  0  0  0  0  0  0  0  0  0  0
  147.6452  141.5255  153.7922 C   0  0  0  0  0  0  0  0  0  0  0  0
  148.4640  142.1522  154.6634 N   0  3  0  0  0  0  0  0  0  0  0  0
  149.4633  141.5183  155.3138 C   0  0  0  0  0  0  0  0  0  0  0  0
  149.6925  140.1382  155.0984 C   0  0  0  0  0  0  0  0  0  0  0  0
  150.7289  139.4650  155.7659 N   0  0  0  0  0  0  0  0  0  0  0  0
  151.7868  138.9978  154.8789 C   0  0  0  0  0  0  0  0  0  0  0  0
  152.8063  138.1610  155.6714 C   0  0  0  0  0  0  0  0  0  0  0  0
  153.3081  138.9294  156.7614 O   0  0  0  0  0  0  0  0  0  0  0  0
  152.2758  139.3132  157.6654 C   0  0  0  0  0  0  0  0  0  0  0  0
  151.2428  140.1817  156.9266 C   0  0  0  0  0  0  0  0  0  0  0  0
  149.7492  137.5462  154.3794 H   0  0  0  0  0  0  0  0  0  0  0  0
  148.4212  137.5974  153.2837 H   0  0  0  0  0  0  0  0  0  0  0  0
  147.1650  139.6469  152.8348 H   0  0  0  0  0  0  0  0  0  0  0  0
  146.8822  142.1372  153.3330 H   0  0  0  0  0  0  0  0  0  0  0  0
  150.0473  142.1325  155.9835 H   0  0  0  0  0  0  0  0  0  0  0  0
  151.3581  138.4001  154.0736 H   0  0  0  0  0  0  0  0  0  0  0  0
  152.2889  139.8497  154.4185 H   0  0  0  0  0  0  0  0  0  0  0  0
  152.3518  137.2400  156.0404 H   0  0  0  0  0  0  0  0  0  0  0  0
  153.6367  137.8709  155.0275 H   0  0  0  0  0  0  0  0  0  0  0  0
  151.8049  138.4270  158.0942 H   0  0  0  0  0  0  0  0  0  0  0  0
  152.7152  139.8720  158.4918 H   0  0  0  0  0  0  0  0  0  0  0  0
  151.7074  141.1168  156.6111 H   0  0  0  0  0  0  0  0  0  0  0  0
  150.4215  140.4377  157.5972 H   0  0  0  0  0  0  0  0  0  0  0  0
  148.3225  143.1476  154.8383 H   0  0  0  0  0  0  0  0  0  0  0  0
  1  2  1  0  0  0  0
  1 14  1  0  0  0  0
  1 15  1  0  0  0  0
  2  7  1  0  0  0  0
  2  3  2  0  0  0  0
  3  4  1  0  0  0  0
  3 16  1  0  0  0  0
  4  5  2  0  0  0  0
  4 17  1  0  0  0  0
  5  6  1  0  0  0  0
  5 27  1  0  0  0  0
  6  7  2  0  0  0  0
  6 18  1  0  0  0  0
  7  8  1  0  0  0  0
  8 13  1  0  0  0  0
  8  9  1  0  0  0  0
  9 10  1  0  0  0  0
  9 19  1  0  0  0  0
  9 20  1  0  0  0  0
 10 11  1  0  0  0  0
 10 21  1  0  0  0  0
 10 22  1  0  0  0  0
 11 12  1  0  0  0  0
 12 13  1  0  0  0  0
 12 23  1  0  0  0  0
 12 24  1  0  0  0  0
 13 25  1  0  0  0  0
 13 26  1  0  0  0  0
M  CHG  1   5   1
M  END
> <s_m_source_file>
AV-unprocessed.smi

> <i_m_source_file_index>
2545

> <i_lp_mmshare_version>
43012

> <i_f3d_flags>
0

> <s_epik_input>
W05IMl1jMVtjSF1bY0hdbltjSF1jMU4yW0NIMl1bQ0gyXU9bQ0gyXVtDSDJdMg==

> <s_epik_cmdline>
J2VwaWtfcHl0aG9uJywgJy1waCcsICc3LjAnLCAnLXRuJywgJzgnLCAnLW1hJywgJzIwMCcsICctbWV0YWxfYmluZGluZycsICctaW1hZScsICc8aW5maWxlLm1hZT4nLCAnLW9tYWUnLCAnPG91dGZpbGUubWFlPic=

> <r_lp_tautomer_probability>
1

> <r_epik_Ionization_Penalty>
0.0125888

> <r_epik_Ionization_Penalty_Charging>
0.0125847

> <r_epik_Ionization_Penalty_Neutral>
4.08722e-06

> <r_epik_State_Penalty>
0.00974947

> <r_epik_Charging_Adjusted_Penalty>
0.0223342

> <i_epik_Tot_Q>
1

> <i_epik_Tot_abs_Q>
1

> <r_epik_Metal_State_Penalty>
1.6989

> <b_epik_Metal_Only>
0

> <s_lp_Force_Field>
OPLS_2005

> <r_lp_Energy>
29.9348

> <b_lp_Chiralities_Consistent>
1

> <s_lp_Variant>
AV-unprocessed.smi:2545-1

> <Gold.Version>
5.8.1

> <Gold.Id.Protein>
6NUR|6NUR_protein|mol2

> <Gold.PLP.Fitness>
33.4381

> <Gold.PLP.PLP>
-23.3657

> <Gold.PLP.part.hbond>
-2.8104

> <Gold.PLP.part.metal>
0.0000

> <Gold.PLP.part.buried>
-0.8979

> <Gold.PLP.part.nonpolar>
-20.1178

> <Gold.PLP.part.repulsive>
0.2420

> <Gold.PLP.ligand.clash>
0.0551

> <Gold.PLP.ligand.torsion>
0.2628

> <Gold.PLP.Chemscore.Hbond>
3.5120

> <Gold.PLP.Chemscore.CHOScore>
0.0000

> <Gold.PLP.Chemscore.Metal>
0.0000

> <Gold.Chemscore.Hbonds>
donor molecule, donor type, donor heavy atom, donor atom, acceptor molecule, acceptor atom, score
      L1  H     1    15       P1  7948  0.54
      L1  H     5    27       P1  8028  2.00
      P1  H  7997  8008       L1    11  0.99

> <Gold.PLP.Chemscore.Internal.Correction>
0.1170

> <Gold.Rescore>
     Score         DG    S(hbond)    S(metal)    S(lipo)     H(rot)  DE(clash)    DE(int)     intcor
     16.27     -17.89       2.35        0.00      60.77       1.00       0.52       1.10       ----

> <Gold.Chemscore.Fitness>
16.2702

> <Gold.Chemscore.DG>
-17.8930

> <Gold.Chemscore.ZeroCoef>
-5.4800

> <Gold.Chemscore.Hbond>
2.3541

> <Gold.Chemscore.Metal>
0.0000

> <Gold.Chemscore.Lipo>
60.7708

> <Gold.Chemscore.Internal_Hbond>
0.0000

> <Gold.Chemscore.DEClash>
0.5215

> <Gold.Chemscore.DEInternal>
1.1012

> <Gold.Chemscore.Rot>
1.0000

> <Gold.Chemscore.Internal.Correction>
   9.000000E+99

> <Gold.Chemscore.Hbonds>
donor molecule, donor type, donor heavy atom, donor atom, acceptor molecule, acceptor atom, score
      L1  H     1    15       P1  7948  0.50
      L1  H     5    27       P1  8028  0.95
      P1  H  7997  8008       L1    11  0.78

> <Gold.Chemscore.Hbond.Weighted>
-7.8628

> <Gold.Chemscore.Metal.Weighted>
-0.0000

> <Gold.Chemscore.Lipo.Weighted>
-7.1102

> <Gold.Chemscore.Internal_Hbond.Weighted>
0.0000

> <Gold.Chemscore.DEClash.Weighted>
0.5215

> <Gold.Chemscore.DEInternal.Weighted>
1.1012

> <Gold.Chemscore.Rot.Weighted>
2.5600

> <Gold.Chemscore.Internal.Correction.Weighted>
   9.000000E+99

> <Gold.Protein.RotatedTorsions>
[ 6907 6896 6895 6894 ] final  -50.28 input  -60.11 | X-H torsion
[ 7974 7965 7964 7962 ] final  153.79 input  175.53 | X-H torsion
[ 8008 7997 7996 7995 ] final  -44.35 input   59.86 | X-H torsion
[ 10167 10162 10161 10158 ] final   41.57 input  -65.29 | X-H torsion
[ 10718 10713 10712 10709 ] final    1.22 input   66.30 | X-H torsion
[ 10763 10752 10751 10750 ] final -139.74 input  -60.55 | X-H torsion
[ 11005 11000 10999 10996 ] final   77.11 input  -57.11 | X-H torsion

> <Gold.Protein.ActiveResidues>
 VAL166  LYS551  ARG553  GLY616  TRP617  ASP618  TYR619  PRO620  LYS621  CYS622 
 ASP623  PHE694  ASN695  SER759  ASP760  ASP761  ALA762  ILE779  LEU786  VAL792 
 PHE793  MET794  SER795  GLU796  ALA797  LYS798  CYS799  TRP800  GLU811  SER814 

> <Gold.Protein.RotatedAtoms>
  150.8723  134.8099  159.7163 H   0  0  0  0  0  0  0  0  0  0  0  0  # atno 6907 bound_to 6896
  152.4723  134.4927  159.9710 H   0  0  0  0  0  0  0  0  0  0  0  0  # atno 6908 bound_to 6896
  151.5014  133.3465  159.2905 H   0  0  0  0  0  0  0  0  0  0  0  0  # atno 6909 bound_to 6896
  144.8131  139.6847  143.6133 H   0  0  0  0  0  0  0  0  0  0  0  0  # atno 7974 bound_to 7965
  154.3997  140.1424  156.3669 H   0  0  0  0  0  0  0  0  0  0  0  0  # atno 8008 bound_to 7997
  155.8129  140.3472  155.5447 H   0  0  0  0  0  0  0  0  0  0  0  0  # atno 8009 bound_to 7997
  155.8368  140.0920  157.1749 H   0  0  0  0  0  0  0  0  0  0  0  0  # atno 8010 bound_to 7997
  140.3630  144.2204  150.6137 H   0  0  0  0  0  0  0  0  0  0  0  0  # atno 10167 bound_to 10162
  156.8450  130.5534  149.5674 H   0  0  0  0  0  0  0  0  0  0  0  0  # atno 10718 bound_to 10713
  154.8600  135.3573  154.5595 H   0  0  0  0  0  0  0  0  0  0  0  0  # atno 10763 bound_to 10752
  153.6211  135.7006  153.5315 H   0  0  0  0  0  0  0  0  0  0  0  0  # atno 10764 bound_to 10752
  153.3128  135.4173  155.1311 H   0  0  0  0  0  0  0  0  0  0  0  0  # atno 10765 bound_to 10752
  139.9268  134.7656  156.1481 H   0  0  0  0  0  0  0  0  0  0  0  0  # atno 11005 bound_to 11000
  146.2432  139.6043  142.9477 LP  0  0  0  0  0  0  0  0  0  0  0  0  # atno 17320 bound_to 7965
  145.5277  141.0429  143.2400 LP  0  0  0  0  0  0  0  0  0  0  0  0  # atno 17321 bound_to 7965
  140.5109  143.2291  151.8537 LP  0  0  0  0  0  0  0  0  0  0  0  0  # atno 17342 bound_to 10162
  139.4812  144.4951  151.9134 LP  0  0  0  0  0  0  0  0  0  0  0  0  # atno 17343 bound_to 10162
  156.0860  130.5858  150.9648 LP  0  0  0  0  0  0  0  0  0  0  0  0  # atno 17370 bound_to 10713
  157.6335  131.0918  150.8395 LP  0  0  0  0  0  0  0  0  0  0  0  0  # atno 17371 bound_to 10713
  141.0832  133.6745  156.2379 LP  0  0  0  0  0  0  0  0  0  0  0  0  # atno 17394 bound_to 11000
  140.6312  134.5261  157.5560 LP  0  0  0  0  0  0  0  0  0  0  0  0  # atno 17395 bound_to 11000

$$$$
