AV-unprocessed.smi:2850|AV-procd|sdf|10970|dock2
  -GOLD-   2272015423D 1   1.00000     0.00000
 Structure written by MMmdl.
 44 45  0  0  0  0  0  0  0  0  1 V2000
  152.4707  144.7661  157.6109 C   0  0  0  0  0  0  0  0  0  0  0  0
  152.2510  144.5563  159.4002 S   0  0  0  0  0  0  0  0  0  0  0  0
  152.9571  142.9950  159.8338 C   0  0  0  0  0  0  0  0  0  0  0  0
  153.0948  142.6197  161.1823 C   0  0  0  0  0  0  0  0  0  0  0  0
  153.6661  141.3612  161.4396 C   0  0  0  0  0  0  0  0  0  0  0  0
  154.0546  140.5792  160.3328 C   0  0  0  0  0  0  0  0  0  0  0  0
  154.6235  139.3186  160.5579 N   0  0  0  0  0  0  0  0  0  0  0  0
  154.8234  138.8328  161.9163 C   0  0  0  0  0  0  0  0  0  0  0  0
  154.1957  137.4483  162.1247 C   0  0  1  0  0  0  0  0  0  0  0  0
  155.1042  136.3308  161.5759 C   0  0  0  0  0  0  0  0  0  0  0  0
  154.5617  135.0004  161.8301 N   0  0  0  0  0  0  0  0  0  0  0  0
  155.4460  133.9678  161.2868 C   0  0  0  0  0  0  0  0  0  0  0  0
  154.7780  132.6189  160.9441 C   0  0  0  0  0  0  0  0  0  0  0  0
  154.0145  132.0760  162.1610 C   0  0  0  0  0  0  0  0  0  0  0  0
  155.8022  131.5855  160.4474 C   0  0  0  0  0  0  0  0  0  0  0  0
  154.3318  134.8502  163.2651 C   0  0  0  0  0  0  0  0  0  0  0  0
  153.4376  135.9705  163.8228 C   0  0  0  0  0  0  0  0  0  0  0  0
  154.0155  137.2366  163.5230 O   0  0  0  0  0  0  0  0  0  0  0  0
  153.8888  141.0102  159.0561 N   0  0  0  0  0  0  0  0  0  0  0  0
  153.3457  142.2067  158.8062 N   0  0  0  0  0  0  0  0  0  0  0  0
  152.0531  145.7208  157.2920 H   0  0  0  0  0  0  0  0  0  0  0  0
  151.9624  143.9694  157.0674 H   0  0  0  0  0  0  0  0  0  0  0  0
  153.5291  144.7487  157.3503 H   0  0  0  0  0  0  0  0  0  0  0  0
  152.7761  143.2676  161.9856 H   0  0  0  0  0  0  0  0  0  0  0  0
  153.8002  141.0103  162.4525 H   0  0  0  0  0  0  0  0  0  0  0  0
  154.7351  138.6724  159.7900 H   0  0  0  0  0  0  0  0  0  0  0  0
  155.8957  138.7755  162.1079 H   0  0  0  0  0  0  0  0  0  0  0  0
  154.4062  139.5464  162.6281 H   0  0  0  0  0  0  0  0  0  0  0  0
  153.2279  137.4076  161.6208 H   0  0  0  0  0  0  0  0  0  0  0  0
  155.2375  136.4729  160.5028 H   0  0  0  0  0  0  0  0  0  0  0  0
  156.0949  136.4161  162.0256 H   0  0  0  0  0  0  0  0  0  0  0  0
  155.9129  134.3457  160.3760 H   0  0  0  0  0  0  0  0  0  0  0  0
  156.2655  133.7962  161.9867 H   0  0  0  0  0  0  0  0  0  0  0  0
  154.0409  132.7703  160.1563 H   0  0  0  0  0  0  0  0  0  0  0  0
  154.6864  131.8885  162.9993 H   0  0  0  0  0  0  0  0  0  0  0  0
  153.5092  131.1393  161.9235 H   0  0  0  0  0  0  0  0  0  0  0  0
  153.2546  132.7826  162.4956 H   0  0  0  0  0  0  0  0  0  0  0  0
  156.5664  131.3913  161.2005 H   0  0  0  0  0  0  0  0  0  0  0  0
  156.3057  131.9294  159.5435 H   0  0  0  0  0  0  0  0  0  0  0  0
  155.3201  130.6369  160.2099 H   0  0  0  0  0  0  0  0  0  0  0  0
  153.8576  133.8927  163.4767 H   0  0  0  0  0  0  0  0  0  0  0  0
  155.2855  134.8530  163.7954 H   0  0  0  0  0  0  0  0  0  0  0  0
  152.4337  135.9112  163.3994 H   0  0  0  0  0  0  0  0  0  0  0  0
  153.3359  135.8716  164.9035 H   0  0  0  0  0  0  0  0  0  0  0  0
  1  2  1  0  0  0  0
  1 21  1  0  0  0  0
  1 22  1  0  0  0  0
  1 23  1  0  0  0  0
  2  3  1  0  0  0  0
  3 20  1  0  0  0  0
  3  4  2  0  0  0  0
  4  5  1  0  0  0  0
  4 24  1  0  0  0  0
  5  6  2  0  0  0  0
  5 25  1  0  0  0  0
  6  7  1  0  0  0  0
  6 19  1  0  0  0  0
  7  8  1  0  0  0  0
  7 26  1  0  0  0  0
  8  9  1  0  0  0  0
  8 27  1  0  0  0  0
  8 28  1  0  0  0  0
  9 18  1  0  0  0  0
  9 10  1  0  0  0  0
  9 29  1  0  0  0  0
 10 11  1  0  0  0  0
 10 30  1  0  0  0  0
 10 31  1  0  0  0  0
 11 12  1  0  0  0  0
 11 16  1  0  0  0  0
 12 13  1  0  0  0  0
 12 32  1  0  0  0  0
 12 33  1  0  0  0  0
 13 14  1  0  0  0  0
 13 15  1  0  0  0  0
 13 34  1  0  0  0  0
 14 35  1  0  0  0  0
 14 36  1  0  0  0  0
 14 37  1  0  0  0  0
 15 38  1  0  0  0  0
 15 39  1  0  0  0  0
 15 40  1  0  0  0  0
 16 17  1  0  0  0  0
 16 41  1  0  0  0  0
 16 42  1  0  0  0  0
 17 18  1  0  0  0  0
 17 43  1  0  0  0  0
 17 44  1  0  0  0  0
 19 20  2  0  0  0  0
M  END
> <s_m_source_file>
AV-unprocessed.smi

> <i_m_source_file_index>
2850

> <i_lp_mmshare_version>
43012

> <i_f3d_flags>
0

> <s_epik_input>
W0NIM11TYzFbY0hdW2NIXWMobm4xKVtOSF1bQ0gyXVtDQEBIXTJbQ0gyXU4oW0NIMl1bQ0gyXU8yKVtDSDJdW0NIXShbQ0gzXSlbQ0gzXQ==

> <s_epik_cmdline>
J2VwaWtfcHl0aG9uJywgJy1waCcsICc3LjAnLCAnLXRuJywgJzgnLCAnLW1hJywgJzIwMCcsICctbWV0YWxfYmluZGluZycsICctaW1hZScsICc8aW5maWxlLm1hZT4nLCAnLW9tYWUnLCAnPG91dGZpbGUubWFlPic=

> <r_lp_tautomer_probability>
0.999978

> <r_epik_Ionization_Penalty>
1.20939

> <r_epik_Ionization_Penalty_Charging>
0

> <r_epik_Ionization_Penalty_Neutral>
1.20939

> <r_epik_State_Penalty>
1.27042

> <r_epik_Charging_Adjusted_Penalty>
1.27042

> <i_epik_Tot_Q>
0

> <i_epik_Tot_abs_Q>
0

> <r_epik_Metal_State_Penalty>
1.26998

> <b_epik_Metal_Only>
0

> <s_lp_Force_Field>
OPLS_2005

> <r_lp_Energy>
30.7386

> <b_lp_Chiralities_Consistent>
1

> <s_lp_Variant>
AV-unprocessed.smi:2850-6

> <Gold.Version>
5.8.1

> <Gold.Id.Protein>
6NUR|6NUR_protein|mol2

> <Gold.PLP.Fitness>
39.6353

> <Gold.PLP.PLP>
-40.5634

> <Gold.PLP.part.hbond>
0.0000

> <Gold.PLP.part.metal>
0.0000

> <Gold.PLP.part.buried>
-4.9673

> <Gold.PLP.part.nonpolar>
-35.7802

> <Gold.PLP.part.repulsive>
0.0672

> <Gold.PLP.ligand.clash>
0.0000

> <Gold.PLP.ligand.torsion>
0.5353

> <Gold.PLP.Chemscore.Hbond>
0.0000

> <Gold.PLP.Chemscore.CHOScore>
0.0000

> <Gold.PLP.Chemscore.Metal>
0.0000

> <Gold.PLP.Chemscore.Internal.Correction>
0.1425

> <Gold.Rescore>
     Score         DG    S(hbond)    S(metal)    S(lipo)     H(rot)  DE(clash)    DE(int)     intcor
     13.59     -14.72       0.20        0.00     107.13       1.55       0.34       0.79       ----

> <Gold.Chemscore.Fitness>
13.5875

> <Gold.Chemscore.DG>
-14.7192

> <Gold.Chemscore.ZeroCoef>
-5.4800

> <Gold.Chemscore.Hbond>
0.1993

> <Gold.Chemscore.Metal>
0.0000

> <Gold.Chemscore.Lipo>
107.1334

> <Gold.Chemscore.Internal_Hbond>
0.0000

> <Gold.Chemscore.DEClash>
0.3403

> <Gold.Chemscore.DEInternal>
0.7914

> <Gold.Chemscore.Rot>
1.5473

> <Gold.Chemscore.Internal.Correction>
   9.000000E+99

> <Gold.Chemscore.Hbond.Weighted>
-0.6656

> <Gold.Chemscore.Metal.Weighted>
-0.0000

> <Gold.Chemscore.Lipo.Weighted>
-12.5346

> <Gold.Chemscore.Internal_Hbond.Weighted>
0.0000

> <Gold.Chemscore.DEClash.Weighted>
0.3403

> <Gold.Chemscore.DEInternal.Weighted>
0.7914

> <Gold.Chemscore.Rot.Weighted>
3.9610

> <Gold.Chemscore.Internal.Correction.Weighted>
   9.000000E+99

> <Gold.Protein.RotatedTorsions>
[ 6907 6896 6895 6894 ] final   63.06 input  -60.11 | X-H torsion
[ 7974 7965 7964 7962 ] final  102.54 input  175.53 | X-H torsion
[ 8008 7997 7996 7995 ] final  -65.04 input   59.86 | X-H torsion
[ 10167 10162 10161 10158 ] final   83.04 input  -65.29 | X-H torsion
[ 10718 10713 10712 10709 ] final  -92.30 input   66.30 | X-H torsion
[ 10763 10752 10751 10750 ] final  -64.17 input  -60.55 | X-H torsion
[ 11005 11000 10999 10996 ] final   97.83 input  -57.11 | X-H torsion

> <Gold.Protein.ActiveResidues>
 VAL166  LYS551  ARG553  GLY616  TRP617  ASP618  TYR619  PRO620  LYS621  CYS622 
 ASP623  PHE694  ASN695  SER759  ASP760  ASP761  ALA762  ILE779  LEU786  VAL792 
 PHE793  MET794  SER795  GLU796  ALA797  LYS798  CYS799  TRP800  GLU811  SER814 

> <Gold.Protein.RotatedAtoms>
  152.4222  134.5933  159.9979 H   0  0  0  0  0  0  0  0  0  0  0  0  # atno 6907 bound_to 6896
  151.6080  133.3344  159.3069 H   0  0  0  0  0  0  0  0  0  0  0  0  # atno 6908 bound_to 6896
  150.8111  134.7304  159.6754 H   0  0  0  0  0  0  0  0  0  0  0  0  # atno 6909 bound_to 6896
  145.3577  139.2425  143.3523 H   0  0  0  0  0  0  0  0  0  0  0  0  # atno 7974 bound_to 7965
  154.4648  140.0941  156.6990 H   0  0  0  0  0  0  0  0  0  0  0  0  # atno 8008 bound_to 7997
  155.4890  140.3470  155.4333 H   0  0  0  0  0  0  0  0  0  0  0  0  # atno 8009 bound_to 7997
  156.0936  140.1403  156.9549 H   0  0  0  0  0  0  0  0  0  0  0  0  # atno 8010 bound_to 7997
  139.9225  144.6203  150.8425 H   0  0  0  0  0  0  0  0  0  0  0  0  # atno 10167 bound_to 10162
  156.0001  130.4981  150.5604 H   0  0  0  0  0  0  0  0  0  0  0  0  # atno 10718 bound_to 10713
  154.3261  135.6186  153.5530 H   0  0  0  0  0  0  0  0  0  0  0  0  # atno 10763 bound_to 10752
  152.9815  135.5735  154.5015 H   0  0  0  0  0  0  0  0  0  0  0  0  # atno 10764 bound_to 10752
  154.4692  135.2858  155.1632 H   0  0  0  0  0  0  0  0  0  0  0  0  # atno 10765 bound_to 10752
  139.8774  134.9020  156.4366 H   0  0  0  0  0  0  0  0  0  0  0  0  # atno 11005 bound_to 11000
  146.2941  140.4205  142.8728 LP  0  0  0  0  0  0  0  0  0  0  0  0  # atno 17320 bound_to 7965
  144.8670  140.7219  143.6071 LP  0  0  0  0  0  0  0  0  0  0  0  0  # atno 17321 bound_to 7965
  140.7658  143.3287  151.2459 LP  0  0  0  0  0  0  0  0  0  0  0  0  # atno 17342 bound_to 10162
  139.6849  143.9790  152.2829 LP  0  0  0  0  0  0  0  0  0  0  0  0  # atno 17343 bound_to 10162
  157.3514  131.0734  151.1710 LP  0  0  0  0  0  0  0  0  0  0  0  0  # atno 17370 bound_to 10713
  157.2525  130.6620  149.5938 LP  0  0  0  0  0  0  0  0  0  0  0  0  # atno 17371 bound_to 10713
  140.9029  133.7766  155.9701 LP  0  0  0  0  0  0  0  0  0  0  0  0  # atno 17394 bound_to 11000
  140.8631  134.2817  157.5225 LP  0  0  0  0  0  0  0  0  0  0  0  0  # atno 17395 bound_to 11000

$$$$
