AV-unprocessed.smi:225|AV-procd|sdf|1724|dock5
  -GOLD-   2262020203D 1   1.00000     0.00000
 Structure written by MMmdl.
 56 59  0  0  0  0  0  0  0  0  1 V2000
  149.2695  140.6068  153.5655 O   0  0  0  0  0  0  0  0  0  0  0  0
  149.3746  141.0099  154.9132 C   0  0  0  0  0  0  0  0  0  0  0  0
  150.2070  139.9785  155.6934 C   0  0  0  0  0  0  0  0  0  0  0  0
  150.5408  140.4251  157.0490 N   0  0  0  0  0  0  0  0  0  0  0  0
  151.4229  141.5860  157.1778 C   0  0  0  0  0  0  0  0  0  0  0  0
  150.9305  142.6174  158.2150 C   0  0  0  0  0  0  0  0  0  0  0  0
  150.7128  143.9916  157.5507 C   0  0  0  0  0  0  0  0  0  0  0  0
  150.2160  145.0395  158.5603 C   0  0  0  0  0  0  0  0  0  0  0  0
  151.1780  145.1647  159.7513 C   0  0  0  0  0  0  0  0  0  0  0  0
  151.4069  143.8016  160.4215 C   0  0  0  0  0  0  0  0  0  0  0  0
  151.9015  142.7583  159.4066 C   0  0  0  0  0  0  0  0  0  0  0  0
  150.7820  139.4707  157.9852 C   0  0  0  0  0  0  0  0  0  0  0  0
  151.9984  139.3986  158.5892 N   0  0  0  0  0  0  0  0  0  0  0  0
  152.2356  138.4700  159.5202 C   0  0  0  0  0  0  0  0  0  0  0  0
  151.4115  137.5334  159.9933 N   0  0  0  0  0  0  0  0  0  0  0  0
  150.1873  137.6041  159.3966 C   0  0  0  0  0  0  0  0  0  0  0  0
  149.7936  138.5306  158.3902 C   0  0  0  0  0  0  0  0  0  0  0  0
  148.4793  138.2876  158.0118 N   0  0  0  0  0  0  0  0  0  0  0  0
  148.1144  137.2799  158.7559 C   0  0  0  0  0  0  0  0  0  0  0  0
  149.0743  136.8131  159.6257 N   0  0  0  0  0  0  0  0  0  0  0  0
  148.9390  135.7106  160.5664 C   0  0  0  0  0  0  0  0  0  0  0  0
  147.8703  135.9519  161.6607 C   0  0  2  0  0  0  0  0  0  0  0  0
  147.9543  137.2965  162.0958 O   0  0  0  0  0  0  0  0  0  0  0  0
  148.0500  135.0262  162.8663 C   0  0  0  0  0  0  0  0  0  0  0  0
  146.8768  134.0598  162.7558 C   0  0  0  0  0  0  0  0  0  0  0  0
  145.8492  134.8798  162.2301 O   0  0  0  0  0  0  0  0  0  0  0  0
  146.4291  135.6609  161.1957 C   0  0  0  0  0  0  0  0  0  0  0  0
  149.3979  139.6716  153.5211 H   0  0  0  0  0  0  0  0  0  0  0  0
  149.8479  141.9914  154.9535 H   0  0  0  0  0  0  0  0  0  0  0  0
  148.3712  141.1141  155.3261 H   0  0  0  0  0  0  0  0  0  0  0  0
  149.6809  139.0240  155.7382 H   0  0  0  0  0  0  0  0  0  0  0  0
  151.1253  139.7818  155.1416 H   0  0  0  0  0  0  0  0  0  0  0  0
  152.4410  141.2840  157.4286 H   0  0  0  0  0  0  0  0  0  0  0  0
  151.4883  142.0618  156.1986 H   0  0  0  0  0  0  0  0  0  0  0  0
  149.9654  142.2927  158.6038 H   0  0  0  0  0  0  0  0  0  0  0  0
  151.6450  144.3349  157.1000 H   0  0  0  0  0  0  0  0  0  0  0  0
  149.9923  143.9019  156.7370 H   0  0  0  0  0  0  0  0  0  0  0  0
  150.1057  146.0065  158.0687 H   0  0  0  0  0  0  0  0  0  0  0  0
  149.2245  144.7599  158.9190 H   0  0  0  0  0  0  0  0  0  0  0  0
  152.1319  145.5690  159.4099 H   0  0  0  0  0  0  0  0  0  0  0  0
  150.7820  145.8756  160.4770 H   0  0  0  0  0  0  0  0  0  0  0  0
  152.1291  143.9026  161.2321 H   0  0  0  0  0  0  0  0  0  0  0  0
  150.4775  143.4566  160.8761 H   0  0  0  0  0  0  0  0  0  0  0  0
  152.0249  141.7985  159.9093 H   0  0  0  0  0  0  0  0  0  0  0  0
  152.8887  143.0474  159.0446 H   0  0  0  0  0  0  0  0  0  0  0  0
  153.2263  138.4811  159.9496 H   0  0  0  0  0  0  0  0  0  0  0  0
  147.1260  136.8488  158.6900 H   0  0  0  0  0  0  0  0  0  0  0  0
  148.6965  134.8106  159.9999 H   0  0  0  0  0  0  0  0  0  0  0  0
  149.9129  135.5290  161.0231 H   0  0  0  0  0  0  0  0  0  0  0  0
  147.5215  137.3678  162.9328 H   0  0  0  0  0  0  0  0  0  0  0  0
  149.0105  134.5101  162.8802 H   0  0  0  0  0  0  0  0  0  0  0  0
  147.9644  135.5802  163.8025 H   0  0  0  0  0  0  0  0  0  0  0  0
  147.0981  133.2508  162.0576 H   0  0  0  0  0  0  0  0  0  0  0  0
  146.5966  133.6239  163.7149 H   0  0  0  0  0  0  0  0  0  0  0  0
  145.8428  136.5591  160.9972 H   0  0  0  0  0  0  0  0  0  0  0  0
  146.4218  135.0562  160.2885 H   0  0  0  0  0  0  0  0  0  0  0  0
  1  2  1  0  0  0  0
  1 28  1  0  0  0  0
  2  3  1  0  0  0  0
  2 29  1  0  0  0  0
  2 30  1  0  0  0  0
  3  4  1  0  0  0  0
  3 31  1  0  0  0  0
  3 32  1  0  0  0  0
  4  5  1  0  0  0  0
  4 12  1  0  0  0  0
  5  6  1  0  0  0  0
  5 33  1  0  0  0  0
  5 34  1  0  0  0  0
  6 11  1  0  0  0  0
  6  7  1  0  0  0  0
  6 35  1  0  0  0  0
  7  8  1  0  0  0  0
  7 36  1  0  0  0  0
  7 37  1  0  0  0  0
  8  9  1  0  0  0  0
  8 38  1  0  0  0  0
  8 39  1  0  0  0  0
  9 10  1  0  0  0  0
  9 40  1  0  0  0  0
  9 41  1  0  0  0  0
 10 11  1  0  0  0  0
 10 42  1  0  0  0  0
 10 43  1  0  0  0  0
 11 44  1  0  0  0  0
 11 45  1  0  0  0  0
 12 17  1  0  0  0  0
 12 13  2  0  0  0  0
 13 14  1  0  0  0  0
 14 15  2  0  0  0  0
 14 46  1  0  0  0  0
 15 16  1  0  0  0  0
 16 20  1  0  0  0  0
 16 17  2  0  0  0  0
 17 18  1  0  0  0  0
 18 19  2  0  0  0  0
 19 20  1  0  0  0  0
 19 47  1  0  0  0  0
 20 21  1  0  0  0  0
 21 22  1  0  0  0  0
 21 48  1  0  0  0  0
 21 49  1  0  0  0  0
 22 27  1  0  0  0  0
 22 23  1  0  0  0  0
 22 24  1  0  0  0  0
 23 50  1  0  0  0  0
 24 25  1  0  0  0  0
 24 51  1  0  0  0  0
 24 52  1  0  0  0  0
 25 26  1  0  0  0  0
 25 53  1  0  0  0  0
 25 54  1  0  0  0  0
 26 27  1  0  0  0  0
 27 55  1  0  0  0  0
 27 56  1  0  0  0  0
M  END
> <s_m_source_file>
AV-unprocessed.smi

> <i_m_source_file_index>
225

> <i_lp_mmshare_version>
43012

> <i_f3d_flags>
0

> <s_epik_input>
W0NIMl0xW0NIMl1bQ0gyXVtDSDJdW0NIMl1bQ0hdMVtDSDJdTihbQ0gyXVtDSDJdW09IXSljKG5bY0hdbjIpYyhjMjMpbltjSF1uM1tDSDJdW0NAQF00KFtPSF0pW0NIMl1bQ0gyXU9bQ0gyXTQ=

> <s_epik_cmdline>
J2VwaWtfcHl0aG9uJywgJy1waCcsICc3LjAnLCAnLXRuJywgJzgnLCAnLW1hJywgJzIwMCcsICctbWV0YWxfYmluZGluZycsICctaW1hZScsICc8aW5maWxlLm1hZT4nLCAnLW9tYWUnLCAnPG91dGZpbGUubWFlPic=

> <r_lp_tautomer_probability>
1

> <r_epik_Ionization_Penalty>
0.00405109

> <r_epik_Ionization_Penalty_Charging>
0

> <r_epik_Ionization_Penalty_Neutral>
0.00405109

> <r_epik_State_Penalty>
0.00270467

> <r_epik_Charging_Adjusted_Penalty>
0.00270467

> <i_epik_Tot_Q>
0

> <i_epik_Tot_abs_Q>
0

> <r_epik_Metal_State_Penalty>
-0

> <b_epik_Metal_Only>
0

> <s_lp_Force_Field>
OPLS_2005

> <r_lp_Energy>
36.6988

> <b_lp_Chiralities_Consistent>
1

> <s_lp_Variant>
AV-unprocessed.smi:225-2

> <Gold.Version>
5.8.1

> <Gold.Id.Protein>
6NUR|6NUR_protein|mol2

> <Gold.PLP.Fitness>
62.2436

> <Gold.PLP.PLP>
-54.3941

> <Gold.PLP.part.hbond>
-6.0000

> <Gold.PLP.part.metal>
0.0000

> <Gold.PLP.part.buried>
-6.6043

> <Gold.PLP.part.nonpolar>
-40.9300

> <Gold.PLP.part.repulsive>
0.0000

> <Gold.PLP.ligand.clash>
0.0000

> <Gold.PLP.ligand.torsion>
1.9903

> <Gold.PLP.Chemscore.Hbond>
3.5947

> <Gold.PLP.Chemscore.CHOScore>
0.0000

> <Gold.PLP.Chemscore.Metal>
0.0000

> <Gold.Chemscore.Hbonds>
donor molecule, donor type, donor heavy atom, donor atom, acceptor molecule, acceptor atom, score
      P1  H  6931  6943       L1    23  0.78
      P1  H  6934  6947       L1    23  0.27
      P1  H  7989  7998       L1     1  0.01
      P1  H  8011  8017       L1     1  0.46

> <Gold.PLP.Chemscore.Internal.Correction>
1.0461

> <Gold.Rescore>
     Score         DG    S(hbond)    S(metal)    S(lipo)     H(rot)  DE(clash)    DE(int)     intcor
     16.95     -19.07       2.69        0.00     121.84       3.76       0.21       1.91       ----

> <Gold.Chemscore.Fitness>
16.9484

> <Gold.Chemscore.DG>
-19.0681

> <Gold.Chemscore.ZeroCoef>
-5.4800

> <Gold.Chemscore.Hbond>
2.6856

> <Gold.Chemscore.Metal>
0.0000

> <Gold.Chemscore.Lipo>
121.8371

> <Gold.Chemscore.Internal_Hbond>
0.0000

> <Gold.Chemscore.DEClash>
0.2131

> <Gold.Chemscore.DEInternal>
1.9066

> <Gold.Chemscore.Rot>
3.7644

> <Gold.Chemscore.Internal.Correction>
   9.000000E+99

> <Gold.Chemscore.Hbonds>
donor molecule, donor type, donor heavy atom, donor atom, acceptor molecule, acceptor atom, score
      P1  H  6931  6943       L1    23  0.63
      P1  H  6934  6947       L1    23  0.12
      P1  H  8011  8017       L1     1  0.25

> <Gold.Chemscore.Hbond.Weighted>
-8.9700

> <Gold.Chemscore.Metal.Weighted>
-0.0000

> <Gold.Chemscore.Lipo.Weighted>
-14.2549

> <Gold.Chemscore.Internal_Hbond.Weighted>
0.0000

> <Gold.Chemscore.DEClash.Weighted>
0.2131

> <Gold.Chemscore.DEInternal.Weighted>
1.9066

> <Gold.Chemscore.Rot.Weighted>
9.6369

> <Gold.Chemscore.Internal.Correction.Weighted>
   9.000000E+99

> <Gold.Protein.RotatedTorsions>
[ 6907 6896 6895 6894 ] final  -24.80 input  -60.11 | X-H torsion
[ 7974 7965 7964 7962 ] final   91.72 input  175.53 | X-H torsion
[ 8008 7997 7996 7995 ] final  101.53 input   59.86 | X-H torsion
[ 10167 10162 10161 10158 ] final  147.18 input  -65.29 | X-H torsion
[ 10718 10713 10712 10709 ] final  -53.54 input   66.30 | X-H torsion
[ 10763 10752 10751 10750 ] final  -11.41 input  -60.55 | X-H torsion
[ 11005 11000 10999 10996 ] final -165.17 input  -57.11 | X-H torsion

> <Gold.Protein.ActiveResidues>
 VAL166  LYS551  ARG553  GLY616  TRP617  ASP618  TYR619  PRO620  LYS621  CYS622 
 ASP623  PHE694  ASN695  SER759  ASP760  ASP761  ALA762  ILE779  LEU786  VAL792 
 PHE793  MET794  SER795  GLU796  ALA797  LYS798  CYS799  TRP800  GLU811  SER814 

> <Gold.Protein.RotatedAtoms>
  151.1843  135.0375  159.8805 H   0  0  0  0  0  0  0  0  0  0  0  0  # atno 6907 bound_to 6896
  152.5443  134.1027  159.8335 H   0  0  0  0  0  0  0  0  0  0  0  0  # atno 6908 bound_to 6896
  151.1148  133.5099  159.2636 H   0  0  0  0  0  0  0  0  0  0  0  0  # atno 6909 bound_to 6896
  145.5019  139.2276  143.2772 H   0  0  0  0  0  0  0  0  0  0  0  0  # atno 7974 bound_to 7965
  156.1308  140.3196  155.8346 H   0  0  0  0  0  0  0  0  0  0  0  0  # atno 8008 bound_to 7997
  155.4336  140.0520  157.3033 H   0  0  0  0  0  0  0  0  0  0  0  0  # atno 8009 bound_to 7997
  154.4898  140.2087  155.9587 H   0  0  0  0  0  0  0  0  0  0  0  0  # atno 8010 bound_to 7997
  139.4894  144.5775  151.6937 H   0  0  0  0  0  0  0  0  0  0  0  0  # atno 10167 bound_to 10162
  156.1526  130.4151  149.9920 H   0  0  0  0  0  0  0  0  0  0  0  0  # atno 10718 bound_to 10713
  153.4834  135.7017  153.5925 H   0  0  0  0  0  0  0  0  0  0  0  0  # atno 10763 bound_to 10752
  153.4129  135.3844  155.2062 H   0  0  0  0  0  0  0  0  0  0  0  0  # atno 10764 bound_to 10752
  154.8720  135.3909  154.4286 H   0  0  0  0  0  0  0  0  0  0  0  0  # atno 10765 bound_to 10752
  140.5787  134.5164  157.5174 H   0  0  0  0  0  0  0  0  0  0  0  0  # atno 11005 bound_to 11000
  146.2221  140.5820  142.9013 LP  0  0  0  0  0  0  0  0  0  0  0  0  # atno 17320 bound_to 7965
  144.7775  140.5771  143.6628 LP  0  0  0  0  0  0  0  0  0  0  0  0  # atno 17321 bound_to 7965
  140.5374  144.0634  150.6075 LP  0  0  0  0  0  0  0  0  0  0  0  0  # atno 17342 bound_to 10162
  140.3645  143.2889  152.0347 LP  0  0  0  0  0  0  0  0  0  0  0  0  # atno 17343 bound_to 10162
  156.7773  130.9208  151.3645 LP  0  0  0  0  0  0  0  0  0  0  0  0  # atno 17370 bound_to 10713
  157.6669  130.9016  149.9953 LP  0  0  0  0  0  0  0  0  0  0  0  0  # atno 17371 bound_to 10713
  139.9327  134.7932  156.0885 LP  0  0  0  0  0  0  0  0  0  0  0  0  # atno 17394 bound_to 11000
  141.1010  133.6677  156.2755 LP  0  0  0  0  0  0  0  0  0  0  0  0  # atno 17395 bound_to 11000

$$$$
