AV-unprocessed.smi:1985|AV-procd|sdf|8044|dock10
  -GOLD-   2272010243D 1   1.00000     0.00000
 Structure written by MMmdl.
 51 52  0  0  0  0  0  0  0  0  2 V2000
  146.3510  142.5857  154.0707 C   0  0  0  0  0  0  0  0  0  0  0  0
  147.3030  141.4630  154.5204 C   0  0  0  0  0  0  0  0  0  0  0  0
  147.1093  140.0866  153.8112 C   0  0  1  0  0  0  0  0  0  0  0  0
  146.9384  140.3725  152.2955 C   0  0  0  0  0  0  0  0  0  0  0  0
  148.3768  139.1963  154.0117 C   0  0  0  0  0  0  0  0  0  0  0  0
  148.9734  139.3242  155.3407 N   0  0  0  0  0  0  0  0  0  0  0  0
  150.2313  139.7153  155.5959 C   0  0  0  0  0  0  0  0  0  0  0  0
  151.0224  140.0659  154.7197 O   0  0  0  0  0  0  0  0  0  0  0  0
  150.6611  139.7046  157.0677 C   0  0  0  0  0  0  0  0  0  0  0  0
  151.2953  140.9674  157.4670 N   0  0  0  0  0  0  0  0  0  0  0  0
  150.9815  142.1352  156.7954 C   0  0  0  0  0  0  0  0  0  0  0  0
  151.5335  143.3331  157.0866 C   0  0  0  0  0  0  0  0  0  0  0  0
  152.5178  143.4616  158.1535 C   0  0  0  0  0  0  0  0  0  0  0  0
  153.0535  144.5284  158.4579 O   0  0  0  0  0  0  0  0  0  0  0  0
  152.8205  142.2553  158.8250 N   0  0  0  0  0  0  0  0  0  0  0  0
  153.7999  142.3410  159.8882 C   0  0  0  0  0  0  0  0  0  0  0  0
  152.2389  141.0031  158.5180 C   0  0  0  0  0  0  0  0  0  0  0  0
  152.5303  139.9703  159.1263 O   0  0  0  0  0  0  0  0  0  0  0  0
  145.8833  139.3977  154.3574 N   0  3  0  0  0  0  0  0  0  0  0  0
  145.5676  138.0602  153.7804 C   0  0  0  0  0  0  0  0  0  0  0  0
  144.1982  137.5673  154.2796 C   0  0  0  0  0  0  0  0  0  0  0  0
  144.1868  137.5252  155.6994 O   0  0  0  0  0  0  0  0  0  0  0  0
  144.3982  138.8113  156.2648 C   0  0  0  0  0  0  0  0  0  0  0  0
  145.7803  139.3347  155.8434 C   0  0  0  0  0  0  0  0  0  0  0  0
  146.5696  143.5067  154.6117 H   0  0  0  0  0  0  0  0  0  0  0  0
  145.3074  142.3376  154.2641 H   0  0  0  0  0  0  0  0  0  0  0  0
  146.4551  142.8046  153.0083 H   0  0  0  0  0  0  0  0  0  0  0  0
  148.3190  141.8209  154.3542 H   0  0  0  0  0  0  0  0  0  0  0  0
  147.2303  141.3488  155.6016 H   0  0  0  0  0  0  0  0  0  0  0  0
  147.6985  141.0627  151.9269 H   0  0  0  0  0  0  0  0  0  0  0  0
  145.9678  140.8160  152.0726 H   0  0  0  0  0  0  0  0  0  0  0  0
  147.0323  139.4677  151.6949 H   0  0  0  0  0  0  0  0  0  0  0  0
  148.1569  138.1470  153.8151 H   0  0  0  0  0  0  0  0  0  0  0  0
  149.1518  139.4740  153.2980 H   0  0  0  0  0  0  0  0  0  0  0  0
  148.3945  139.0623  156.1257 H   0  0  0  0  0  0  0  0  0  0  0  0
  149.7780  139.5155  157.6794 H   0  0  0  0  0  0  0  0  0  0  0  0
  151.3388  138.8710  157.2605 H   0  0  0  0  0  0  0  0  0  0  0  0
  150.2607  142.0905  155.9921 H   0  0  0  0  0  0  0  0  0  0  0  0
  151.2453  144.2069  156.5209 H   0  0  0  0  0  0  0  0  0  0  0  0
  153.9656  141.3722  160.3579 H   0  0  0  0  0  0  0  0  0  0  0  0
  153.4151  143.0469  160.6266 H   0  0  0  0  0  0  0  0  0  0  0  0
  154.7294  142.6993  159.4419 H   0  0  0  0  0  0  0  0  0  0  0  0
  145.5280  138.0895  152.6932 H   0  0  0  0  0  0  0  0  0  0  0  0
  146.3376  137.3395  154.0564 H   0  0  0  0  0  0  0  0  0  0  0  0
  143.3967  138.2129  153.9168 H   0  0  0  0  0  0  0  0  0  0  0  0
  143.9970  136.5667  153.8968 H   0  0  0  0  0  0  0  0  0  0  0  0
  143.6083  139.4971  155.9537 H   0  0  0  0  0  0  0  0  0  0  0  0
  144.3421  138.7320  157.3505 H   0  0  0  0  0  0  0  0  0  0  0  0
  146.5468  138.6757  156.2514 H   0  0  0  0  0  0  0  0  0  0  0  0
  145.9233  140.3134  156.2973 H   0  0  0  0  0  0  0  0  0  0  0  0
  145.1182  139.9901  154.0673 H   0  0  0  0  0  0  0  0  0  0  0  0
  1  2  1  0  0  0  0
  1 25  1  0  0  0  0
  1 26  1  0  0  0  0
  1 27  1  0  0  0  0
  2  3  1  0  0  0  0
  2 28  1  0  0  0  0
  2 29  1  0  0  0  0
  3  4  1  0  0  0  0
  3  5  1  0  0  0  0
  3 19  1  0  0  0  0
  4 30  1  0  0  0  0
  4 31  1  0  0  0  0
  4 32  1  0  0  0  0
  5  6  1  0  0  0  0
  5 33  1  0  0  0  0
  5 34  1  0  0  0  0
  6  7  1  0  0  0  0
  6 35  1  0  0  0  0
  7  8  2  0  0  0  0
  7  9  1  0  0  0  0
  9 10  1  0  0  0  0
  9 36  1  0  0  0  0
  9 37  1  0  0  0  0
 10 17  1  0  0  0  0
 10 11  1  0  0  0  0
 11 12  2  0  0  0  0
 11 38  1  0  0  0  0
 12 13  1  0  0  0  0
 12 39  1  0  0  0  0
 13 14  2  0  0  0  0
 13 15  1  0  0  0  0
 15 16  1  0  0  0  0
 15 17  1  0  0  0  0
 16 40  1  0  0  0  0
 16 41  1  0  0  0  0
 16 42  1  0  0  0  0
 17 18  2  0  0  0  0
 19 24  1  0  0  0  0
 19 20  1  0  0  0  0
 19 51  1  0  0  0  0
 20 21  1  0  0  0  0
 20 43  1  0  0  0  0
 20 44  1  0  0  0  0
 21 22  1  0  0  0  0
 21 45  1  0  0  0  0
 21 46  1  0  0  0  0
 22 23  1  0  0  0  0
 23 24  1  0  0  0  0
 23 47  1  0  0  0  0
 23 48  1  0  0  0  0
 24 49  1  0  0  0  0
 24 50  1  0  0  0  0
M  CHG  1  19   1
M  END
> <s_m_source_file>
AV-unprocessed.smi

> <i_m_source_file_index>
1985

> <i_lp_mmshare_version>
43012

> <i_f3d_flags>
0

> <s_epik_input>
W0NIMl0xW0NIMl1PW0NIMl1bQ0gyXU4xW0NAQF0oW0NIM10pKFtDSDJdW0NIM10pW0NIMl1bTkhdQyg9TylbQ0gyXW4yW2NIXVtjSF1jKD1PKW4oW0NIM10pYzI9Tw==

> <s_epik_cmdline>
J2VwaWtfcHl0aG9uJywgJy1waCcsICc3LjAnLCAnLXRuJywgJzgnLCAnLW1hJywgJzIwMCcsICctbWV0YWxfYmluZGluZycsICctaW1hZScsICc8aW5maWxlLm1hZT4nLCAnLW9tYWUnLCAnPG91dGZpbGUubWFlPic=

> <r_lp_tautomer_probability>
1

> <r_epik_Ionization_Penalty>
0.519658

> <r_epik_Ionization_Penalty_Charging>
0.519658

> <r_epik_Ionization_Penalty_Neutral>
8.70177e-08

> <r_epik_State_Penalty>
0.527569

> <r_epik_Charging_Adjusted_Penalty>
1.04723

> <i_epik_Tot_Q>
1

> <i_epik_Tot_abs_Q>
1

> <r_epik_Metal_State_Penalty>
0.527613

> <b_epik_Metal_Only>
0

> <s_lp_Force_Field>
OPLS_2005

> <r_lp_Energy>
36.0852

> <b_lp_Chiralities_Consistent>
1

> <s_lp_Variant>
AV-unprocessed.smi:1985-3

> <Gold.Version>
5.8.1

> <Gold.Id.Protein>
6NUR|6NUR_protein|mol2

> <Gold.PLP.Fitness>
44.2909

> <Gold.PLP.PLP>
-36.6061

> <Gold.PLP.part.hbond>
-1.9703

> <Gold.PLP.part.metal>
0.0000

> <Gold.PLP.part.buried>
0.2874

> <Gold.PLP.part.nonpolar>
-34.9715

> <Gold.PLP.part.repulsive>
0.1530

> <Gold.PLP.ligand.clash>
0.0000

> <Gold.PLP.ligand.torsion>
1.1442

> <Gold.PLP.Chemscore.Hbond>
3.0000

> <Gold.PLP.Chemscore.CHOScore>
0.2362

> <Gold.PLP.Chemscore.Metal>
0.0000

> <Gold.Chemscore.Hbonds>
donor molecule, donor type, donor heavy atom, donor atom, acceptor molecule, acceptor atom, score
      L1  H    19    51       P1 10175  1.10
      P1  H  7989  7998       L1     8  1.00

> <Gold.PLP.Chemscore.Internal.Correction>
0.2645

> <Gold.Rescore>
     Score         DG    S(hbond)    S(metal)    S(lipo)     H(rot)  DE(clash)    DE(int)     intcor
     12.30     -14.35       1.95        0.00      70.03       2.27       0.68       1.38       ----

> <Gold.Chemscore.Fitness>
12.2981

> <Gold.Chemscore.DG>
-14.3545

> <Gold.Chemscore.ZeroCoef>
-5.4800

> <Gold.Chemscore.Hbond>
1.9455

> <Gold.Chemscore.Metal>
0.0000

> <Gold.Chemscore.Lipo>
70.0323

> <Gold.Chemscore.Internal_Hbond>
0.0000

> <Gold.Chemscore.DEClash>
0.6812

> <Gold.Chemscore.DEInternal>
1.3751

> <Gold.Chemscore.Rot>
2.2724

> <Gold.Chemscore.Internal.Correction>
   9.000000E+99

> <Gold.Chemscore.Hbonds>
donor molecule, donor type, donor heavy atom, donor atom, acceptor molecule, acceptor atom, score
      L1  H    19    51       P1 10175  0.53
      P1  H  7989  7998       L1     8  0.98

> <Gold.Chemscore.Hbond.Weighted>
-6.4981

> <Gold.Chemscore.Metal.Weighted>
-0.0000

> <Gold.Chemscore.Lipo.Weighted>
-8.1938

> <Gold.Chemscore.Internal_Hbond.Weighted>
0.0000

> <Gold.Chemscore.DEClash.Weighted>
0.6812

> <Gold.Chemscore.DEInternal.Weighted>
1.3751

> <Gold.Chemscore.Rot.Weighted>
5.8174

> <Gold.Chemscore.Internal.Correction.Weighted>
   9.000000E+99

> <Gold.Protein.RotatedTorsions>
[ 6907 6896 6895 6894 ] final   98.27 input  -60.11 | X-H torsion
[ 7974 7965 7964 7962 ] final   32.59 input  175.53 | X-H torsion
[ 8008 7997 7996 7995 ] final  121.15 input   59.86 | X-H torsion
[ 10167 10162 10161 10158 ] final   37.46 input  -65.29 | X-H torsion
[ 10718 10713 10712 10709 ] final  159.29 input   66.30 | X-H torsion
[ 10763 10752 10751 10750 ] final  129.26 input  -60.55 | X-H torsion
[ 11005 11000 10999 10996 ] final  -67.61 input  -57.11 | X-H torsion

> <Gold.Protein.ActiveResidues>
 VAL166  LYS551  ARG553  GLY616  TRP617  ASP618  TYR619  PRO620  LYS621  CYS622 
 ASP623  PHE694  ASN695  SER759  ASP760  ASP761  ALA762  ILE779  LEU786  VAL792 
 PHE793  MET794  SER795  GLU796  ALA797  LYS798  CYS799  TRP800  GLU811  SER814 

> <Gold.Protein.RotatedAtoms>
  152.5411  134.0606  159.8149 H   0  0  0  0  0  0  0  0  0  0  0  0  # atno 6907 bound_to 6896
  151.0734  133.5440  159.2633 H   0  0  0  0  0  0  0  0  0  0  0  0  # atno 6908 bound_to 6896
  151.2295  135.0557  159.9036 H   0  0  0  0  0  0  0  0  0  0  0  0  # atno 6909 bound_to 6896
  146.1476  139.6506  142.9120 H   0  0  0  0  0  0  0  0  0  0  0  0  # atno 7974 bound_to 7965
  156.2674  140.2815  156.1263 H   0  0  0  0  0  0  0  0  0  0  0  0  # atno 8008 bound_to 7997
  155.1102  140.0391  157.2739 H   0  0  0  0  0  0  0  0  0  0  0  0  # atno 8009 bound_to 7997
  154.6748  140.2596  155.6975 H   0  0  0  0  0  0  0  0  0  0  0  0  # atno 8010 bound_to 7997
  140.4030  144.1697  150.6134 H   0  0  0  0  0  0  0  0  0  0  0  0  # atno 10167 bound_to 10162
  157.1662  131.0599  151.2207 H   0  0  0  0  0  0  0  0  0  0  0  0  # atno 10718 bound_to 10713
  153.7388  135.3227  155.3300 H   0  0  0  0  0  0  0  0  0  0  0  0  # atno 10763 bound_to 10752
  154.8302  135.4540  154.1047 H   0  0  0  0  0  0  0  0  0  0  0  0  # atno 10764 bound_to 10752
  153.2216  135.6949  153.8075 H   0  0  0  0  0  0  0  0  0  0  0  0  # atno 10765 bound_to 10752
  141.1512  133.6723  156.6319 H   0  0  0  0  0  0  0  0  0  0  0  0  # atno 11005 bound_to 11000
  145.4900  141.0438  143.2598 LP  0  0  0  0  0  0  0  0  0  0  0  0  # atno 17320 bound_to 7965
  144.7865  139.6416  143.7132 LP  0  0  0  0  0  0  0  0  0  0  0  0  # atno 17321 bound_to 7965
  140.4719  143.2410  151.9076 LP  0  0  0  0  0  0  0  0  0  0  0  0  # atno 17342 bound_to 10162
  139.4784  144.5360  151.8597 LP  0  0  0  0  0  0  0  0  0  0  0  0  # atno 17343 bound_to 10162
  157.4086  130.7373  149.6822 LP  0  0  0  0  0  0  0  0  0  0  0  0  # atno 17370 bound_to 10713
  155.9745  130.4101  150.3914 LP  0  0  0  0  0  0  0  0  0  0  0  0  # atno 17371 bound_to 10713
  140.3460  134.7809  157.4432 LP  0  0  0  0  0  0  0  0  0  0  0  0  # atno 17394 bound_to 11000
  140.0899  134.5615  155.8454 LP  0  0  0  0  0  0  0  0  0  0  0  0  # atno 17395 bound_to 11000

$$$$
