AV-unprocessed.smi:1|AV-procd|sdf|17|dock7
  -GOLD-   2262015113D 1   1.00000     0.00000
 Structure written by MMmdl.
 56 61  0  0  0  0  0  0  0  0  2 V2000
  147.6848  130.2035  153.8741 O   0  0  0  0  0  0  0  0  0  0  0  0
  147.9463  131.3767  153.5996 C   0  0  0  0  0  0  0  0  0  0  0  0
  148.7119  132.2471  154.3059 N   0  5  0  0  0  0  0  0  0  0  0  0
  148.1978  133.4249  154.6910 C   0  0  0  0  0  0  0  0  0  0  0  0
  146.9083  133.5093  155.1085 N   0  0  0  0  0  0  0  0  0  0  0  0
  146.3984  134.6840  155.4975 C   0  0  0  0  0  0  0  0  0  0  0  0
  146.9882  135.8830  155.5442 N   0  0  0  0  0  0  0  0  0  0  0  0
  148.2812  135.8107  155.1142 C   0  0  0  0  0  0  0  0  0  0  0  0
  148.9483  134.6323  154.6724 C   0  0  0  0  0  0  0  0  0  0  0  0
  150.2546  134.9179  154.3036 N   0  0  0  0  0  0  0  0  0  0  0  0
  150.3215  136.2268  154.5397 C   0  0  0  0  0  0  0  0  0  0  0  0
  149.2140  136.8277  155.0246 N   0  0  0  0  0  0  0  0  0  0  0  0
  148.9898  138.2597  155.4034 C   0  0  2  0  0  0  0  0  0  0  0  0
  150.1653  138.9756  155.1700 O   0  0  0  0  0  0  0  0  0  0  0  0
  150.8756  139.1537  156.3893 C   0  0  1  0  0  0  0  0  0  0  0  0
  151.8218  140.3529  156.2818 C   0  0  0  0  0  0  0  0  0  0  0  0
  151.9731  140.9442  157.5617 O   0  0  0  0  0  0  0  0  0  0  0  0
  152.9570  140.5280  158.3819 C   0  0  0  0  0  0  0  0  0  0  0  0
  153.6925  139.5705  158.1330 O   0  0  0  0  0  0  0  0  0  0  0  0
  153.0631  141.3451  159.6251 C   0  0  0  0  0  0  0  0  0  0  0  0
  152.5057  142.6450  159.6479 C   0  0  0  0  0  0  0  0  0  0  0  0
  152.5915  143.4423  160.8058 C   0  0  0  0  0  0  0  0  0  0  0  0
  153.2362  142.9495  161.9551 C   0  0  0  0  0  0  0  0  0  0  0  0
  153.7946  141.6579  161.9453 C   0  0  0  0  0  0  0  0  0  0  0  0
  153.7093  140.8585  160.7885 C   0  0  0  0  0  0  0  0  0  0  0  0
  149.7529  139.3563  157.4066 C   0  0  2  0  0  0  0  0  0  0  0  0
  150.1459  138.9676  158.7109 O   0  0  0  0  0  0  0  0  0  0  0  0
  149.7061  137.3745  158.9554 S   0  0  0  0  0  0  0  0  0  0  0  0
  150.9085  136.5385  158.8177 O   0  0  0  0  0  0  0  0  0  0  0  0
  148.8306  137.3154  160.1355 O   0  0  0  0  0  0  0  0  0  0  0  0
  148.7668  137.1629  157.5922 O   0  0  0  0  0  0  0  0  0  0  0  0
  148.6603  138.4013  156.9037 C   0  0  2  0  0  0  0  0  0  0  0  0
  147.3172  131.9923  152.3785 C   0  0  0  0  0  0  0  0  0  0  0  0
  146.1375  131.4300  151.8396 C   0  0  0  0  0  0  0  0  0  0  0  0
  145.5496  131.9734  150.6807 C   0  0  0  0  0  0  0  0  0  0  0  0
  146.1407  133.0801  150.0427 C   0  0  0  0  0  0  0  0  0  0  0  0
  147.3221  133.6408  150.5627 C   0  0  0  0  0  0  0  0  0  0  0  0
  147.9105  133.0981  151.7217 C   0  0  0  0  0  0  0  0  0  0  0  0
  145.3678  134.6596  155.8188 H   0  0  0  0  0  0  0  0  0  0  0  0
  151.2328  136.7738  154.3507 H   0  0  0  0  0  0  0  0  0  0  0  0
  148.1938  138.6000  154.7398 H   0  0  0  0  0  0  0  0  0  0  0  0
  151.4320  138.2451  156.6243 H   0  0  0  0  0  0  0  0  0  0  0  0
  152.7881  140.0418  155.8821 H   0  0  0  0  0  0  0  0  0  0  0  0
  151.4044  141.0938  155.5987 H   0  0  0  0  0  0  0  0  0  0  0  0
  152.0069  143.0456  158.7770 H   0  0  0  0  0  0  0  0  0  0  0  0
  152.1626  144.4333  160.8110 H   0  0  0  0  0  0  0  0  0  0  0  0
  153.3025  143.5614  162.8425 H   0  0  0  0  0  0  0  0  0  0  0  0
  154.2899  141.2791  162.8273 H   0  0  0  0  0  0  0  0  0  0  0  0
  154.1480  139.8717  160.8152 H   0  0  0  0  0  0  0  0  0  0  0  0
  149.3934  140.3860  157.3940 H   0  0  0  0  0  0  0  0  0  0  0  0
  147.6601  138.8146  157.0363 H   0  0  0  0  0  0  0  0  0  0  0  0
  145.6727  130.5789  152.3163 H   0  0  0  0  0  0  0  0  0  0  0  0
  144.6455  131.5388  150.2809 H   0  0  0  0  0  0  0  0  0  0  0  0
  145.6906  133.4962  149.1537 H   0  0  0  0  0  0  0  0  0  0  0  0
  147.7804  134.4861  150.0711 H   0  0  0  0  0  0  0  0  0  0  0  0
  148.8237  133.5362  152.0983 H   0  0  0  0  0  0  0  0  0  0  0  0
  1  2  2  0  0  0  0
  2  3  1  0  0  0  0
  2 33  1  0  0  0  0
  3  4  1  0  0  0  0
  4  9  1  0  0  0  0
  4  5  2  0  0  0  0
  5  6  1  0  0  0  0
  6  7  2  0  0  0  0
  6 39  1  0  0  0  0
  7  8  1  0  0  0  0
  8 12  1  0  0  0  0
  8  9  2  0  0  0  0
  9 10  1  0  0  0  0
 10 11  2  0  0  0  0
 11 12  1  0  0  0  0
 11 40  1  0  0  0  0
 12 13  1  0  0  0  0
 13 32  1  0  0  0  0
 13 14  1  0  0  0  0
 13 41  1  0  0  0  0
 14 15  1  0  0  0  0
 15 16  1  0  0  0  0
 15 26  1  0  0  0  0
 15 42  1  0  0  0  0
 16 17  1  0  0  0  0
 16 43  1  0  0  0  0
 16 44  1  0  0  0  0
 17 18  1  0  0  0  0
 18 19  2  0  0  0  0
 18 20  1  0  0  0  0
 20 25  1  0  0  0  0
 20 21  2  0  0  0  0
 21 22  1  0  0  0  0
 21 45  1  0  0  0  0
 22 23  2  0  0  0  0
 22 46  1  0  0  0  0
 23 24  1  0  0  0  0
 23 47  1  0  0  0  0
 24 25  2  0  0  0  0
 24 48  1  0  0  0  0
 25 49  1  0  0  0  0
 26 32  1  0  0  0  0
 26 27  1  0  0  0  0
 26 50  1  0  0  0  0
 27 28  1  0  0  0  0
 28 29  2  0  0  0  0
 28 30  2  0  0  0  0
 28 31  1  0  0  0  0
 31 32  1  0  0  0  0
 32 51  1  0  0  0  0
 33 38  1  0  0  0  0
 33 34  2  0  0  0  0
 34 35  1  0  0  0  0
 34 52  1  0  0  0  0
 35 36  2  0  0  0  0
 35 53  1  0  0  0  0
 36 37  1  0  0  0  0
 36 54  1  0  0  0  0
 37 38  2  0  0  0  0
 37 55  1  0  0  0  0
 38 56  1  0  0  0  0
M  CHG  1   3  -1
M  END
> <s_m_source_file>
AV-unprocessed.smi

> <i_m_source_file_index>
1

> <i_lp_mmshare_version>
43012

> <i_f3d_flags>
0

> <s_epik_input>
W2NIXTFbY0hdW2NIXVtjSF1bY0hdYzFDKD1PKVtOSF1jKG5bY0hdbjIpYyhjMjMpbltjSF1uM1tDQEBIXShbQ0BIXShbQ0BIXTQ1KU9TKE81KSg9Tyk9TylPW0NASF00W0NIMl1PQyg9TyljNltjSF1bY0hdW2NIXVtjSF1bY0hdNg==

> <s_epik_cmdline>
J2VwaWtfcHl0aG9uJywgJy1waCcsICc3LjAnLCAnLXRuJywgJzgnLCAnLW1hJywgJzIwMCcsICctbWV0YWxfYmluZGluZycsICctaW1hZScsICc8aW5maWxlLm1hZT4nLCAnLW9tYWUnLCAnPG91dGZpbGUubWFlPic=

> <r_lp_tautomer_probability>
1

> <r_epik_Ionization_Penalty>
4.39121

> <r_epik_Ionization_Penalty_Charging>
3.39398

> <r_epik_Ionization_Penalty_Neutral>
0.997232

> <r_epik_State_Penalty>
3.39839

> <r_epik_Charging_Adjusted_Penalty>
6.79237

> <i_epik_Tot_Q>
-1

> <i_epik_Tot_abs_Q>
1

> <r_epik_Metal_State_Penalty>
0.497663

> <b_epik_Metal_Only>
1

> <s_epik_Chemistry_Notes>
This compound has an ester and may undergo hydrolysis at high or low pH. This compound contains an acetal/aminal-like group ( X-CH(R)-Y where X, Y are N, S, or O) that may be acid/base labile, releasing an aldehyde.

> <s_lp_Force_Field>
OPLS_2005

> <r_lp_Energy>
42.9132

> <b_lp_Chiralities_Consistent>
1

> <s_lp_Variant>
AV-unprocessed.smi:1-17

> <Gold.Version>
5.8.1

> <Gold.Id.Protein>
6NUR|6NUR_protein|mol2

> <Gold.PLP.Fitness>
54.9516

> <Gold.PLP.PLP>
-49.9685

> <Gold.PLP.part.hbond>
-4.1508

> <Gold.PLP.part.metal>
0.0000

> <Gold.PLP.part.buried>
-4.8476

> <Gold.PLP.part.nonpolar>
-41.1906

> <Gold.PLP.part.repulsive>
0.5524

> <Gold.PLP.ligand.clash>
0.0000

> <Gold.PLP.ligand.torsion>
1.7744

> <Gold.PLP.Chemscore.Hbond>
2.6880

> <Gold.PLP.Chemscore.CHOScore>
0.0000

> <Gold.PLP.Chemscore.Metal>
0.0000

> <Gold.Chemscore.Hbonds>
donor molecule, donor type, donor heavy atom, donor atom, acceptor molecule, acceptor atom, score
      P1  H  6896  6908       L1    29  0.96
      P1  H  6931  6943       L1    30  0.50
      P1  H  7997  8010       L1    19  0.91

> <Gold.PLP.Chemscore.Internal.Correction>
0.4679

> <Gold.Rescore>
     Score         DG    S(hbond)    S(metal)    S(lipo)     H(rot)  DE(clash)    DE(int)     intcor
     18.00     -23.64       2.90        0.00     118.77       2.11       0.11       5.53       ----

> <Gold.Chemscore.Fitness>
18.0023

> <Gold.Chemscore.DG>
-23.6418

> <Gold.Chemscore.ZeroCoef>
-5.4800

> <Gold.Chemscore.Hbond>
2.8971

> <Gold.Chemscore.Metal>
0.0000

> <Gold.Chemscore.Lipo>
118.7714

> <Gold.Chemscore.Internal_Hbond>
0.0000

> <Gold.Chemscore.DEClash>
0.1093

> <Gold.Chemscore.DEInternal>
5.5302

> <Gold.Chemscore.Rot>
2.1136

> <Gold.Chemscore.Internal.Correction>
   9.000000E+99

> <Gold.Chemscore.Hbonds>
donor molecule, donor type, donor heavy atom, donor atom, acceptor molecule, acceptor atom, score
      P1  H  6896  6908       L1    29  0.90
      P1  H  6931  6943       L1    30  0.48
      P1  H  6934  6947       L1    30  0.01
      P1  H  7997  8010       L1    19  0.31

> <Gold.Chemscore.Hbond.Weighted>
-9.6763

> <Gold.Chemscore.Metal.Weighted>
-0.0000

> <Gold.Chemscore.Lipo.Weighted>
-13.8962

> <Gold.Chemscore.Internal_Hbond.Weighted>
0.0000

> <Gold.Chemscore.DEClash.Weighted>
0.1093

> <Gold.Chemscore.DEInternal.Weighted>
5.5302

> <Gold.Chemscore.Rot.Weighted>
5.4107

> <Gold.Chemscore.Internal.Correction.Weighted>
   9.000000E+99

> <Gold.Protein.RotatedTorsions>
[ 6907 6896 6895 6894 ] final -152.41 input  -60.11 | X-H torsion
[ 7974 7965 7964 7962 ] final  -87.34 input  175.53 | X-H torsion
[ 8008 7997 7996 7995 ] final   50.13 input   59.86 | X-H torsion
[ 10167 10162 10161 10158 ] final  -31.50 input  -65.29 | X-H torsion
[ 10718 10713 10712 10709 ] final   30.60 input   66.30 | X-H torsion
[ 10763 10752 10751 10750 ] final -150.74 input  -60.55 | X-H torsion
[ 11005 11000 10999 10996 ] final  -25.07 input  -57.11 | X-H torsion

> <Gold.Protein.ActiveResidues>
 VAL166  LYS551  ARG553  GLY616  TRP617  ASP618  TYR619  PRO620  LYS621  CYS622 
 ASP623  PHE694  ASN695  SER759  ASP760  ASP761  ALA762  ILE779  LEU786  VAL792 
 PHE793  MET794  SER795  GLU796  ALA797  LYS798  CYS799  TRP800  GLU811  SER814 

> <Gold.Protein.RotatedAtoms>
  151.2274  133.4469  159.2602 H   0  0  0  0  0  0  0  0  0  0  0  0  # atno 6907 bound_to 6896
  151.0827  134.9868  159.8374 H   0  0  0  0  0  0  0  0  0  0  0  0  # atno 6908 bound_to 6896
  152.5426  134.2213  159.8841 H   0  0  0  0  0  0  0  0  0  0  0  0  # atno 6909 bound_to 6896
  145.4678  140.9560  143.1934 H   0  0  0  0  0  0  0  0  0  0  0  0  # atno 7974 bound_to 7965
  155.4137  140.3443  155.4265 H   0  0  0  0  0  0  0  0  0  0  0  0  # atno 8008 bound_to 7997
  156.1433  140.1549  156.8917 H   0  0  0  0  0  0  0  0  0  0  0  0  # atno 8009 bound_to 7997
  154.4989  140.0820  156.7738 H   0  0  0  0  0  0  0  0  0  0  0  0  # atno 8010 bound_to 7997
  140.7235  143.3766  151.1679 H   0  0  0  0  0  0  0  0  0  0  0  0  # atno 10167 bound_to 10162
  157.2617  130.7164  149.6457 H   0  0  0  0  0  0  0  0  0  0  0  0  # atno 10718 bound_to 10713
  154.8101  135.3277  154.7329 H   0  0  0  0  0  0  0  0  0  0  0  0  # atno 10763 bound_to 10752
  153.7980  135.6906  153.4865 H   0  0  0  0  0  0  0  0  0  0  0  0  # atno 10764 bound_to 10752
  153.1873  135.4564  155.0051 H   0  0  0  0  0  0  0  0  0  0  0  0  # atno 10765 bound_to 10752
  140.8903  133.7593  156.0413 H   0  0  0  0  0  0  0  0  0  0  0  0  # atno 11005 bound_to 11000
  144.7963  139.6227  143.7091 LP  0  0  0  0  0  0  0  0  0  0  0  0  # atno 17320 bound_to 7965
  146.2414  139.6009  142.9489 LP  0  0  0  0  0  0  0  0  0  0  0  0  # atno 17321 bound_to 7965
  139.7347  143.9018  152.3031 LP  0  0  0  0  0  0  0  0  0  0  0  0  # atno 17342 bound_to 10162
  139.8819  144.7013  150.8868 LP  0  0  0  0  0  0  0  0  0  0  0  0  # atno 17343 bound_to 10162
  155.9664  130.4395  150.5262 LP  0  0  0  0  0  0  0  0  0  0  0  0  # atno 17370 bound_to 10713
  157.3168  131.0674  151.1961 LP  0  0  0  0  0  0  0  0  0  0  0  0  # atno 17371 bound_to 10713
  140.8354  134.3129  157.5333 LP  0  0  0  0  0  0  0  0  0  0  0  0  # atno 17394 bound_to 11000
  139.8729  134.9387  156.3721 LP  0  0  0  0  0  0  0  0  0  0  0  0  # atno 17395 bound_to 11000

$$$$
