AV-unprocessed.smi:177|AV-procd|sdf|1437|dock2
  -GOLD-   2262019223D 1   1.00000     0.00000
 Structure written by MMmdl.
 61 65  0  0  0  0  0  0  0  0  1 V2000
  150.8422  144.7866  159.4170 C   0  0  0  0  0  0  0  0  0  0  0  0
  152.0297  144.1007  159.0516 O   0  0  0  0  0  0  0  0  0  0  0  0
  152.1504  142.7967  159.6066 C   0  0  2  0  0  0  0  0  0  0  0  0
  153.0402  142.9125  160.8562 C   0  0  0  0  0  0  0  0  0  0  0  0
  153.3071  141.5370  161.4848 C   0  0  0  0  0  0  0  0  0  0  0  0
  153.9247  140.5815  160.4537 C   0  0  1  0  0  0  0  0  0  0  0  0
  154.1435  139.3142  161.0624 O   0  0  0  0  0  0  0  0  0  0  0  0
  154.8098  138.4193  160.1801 C   0  0  0  0  0  0  0  0  0  0  0  0
  153.9346  138.1781  158.9407 C   0  0  0  0  0  0  0  0  0  0  0  0
  153.5823  139.4415  158.2984 N   0  0  0  0  0  0  0  0  0  0  0  0
  152.9307  139.2038  157.1339 C   0  0  0  0  0  0  0  0  0  0  0  0
  153.5700  139.3534  155.9429 N   0  0  0  0  0  0  0  0  0  0  0  0
  152.9151  139.1338  154.7988 C   0  0  0  0  0  0  0  0  0  0  0  0
  151.6411  138.7775  154.6208 N   0  0  0  0  0  0  0  0  0  0  0  0
  150.9922  138.6451  155.8136 C   0  0  0  0  0  0  0  0  0  0  0  0
  151.5586  138.8371  157.1047 C   0  0  0  0  0  0  0  0  0  0  0  0
  150.6015  138.6078  158.0844 N   0  0  0  0  0  0  0  0  0  0  0  0
  149.5286  138.2947  157.4100 C   0  0  0  0  0  0  0  0  0  0  0  0
  149.6682  138.3082  156.0395 N   0  0  0  0  0  0  0  0  0  0  0  0
  148.6428  137.9897  155.0554 C   0  0  0  0  0  0  0  0  0  0  0  0
  147.9912  139.2092  154.3323 C   0  0  0  0  0  0  0  0  0  0  0  0
  147.5434  138.7296  152.9215 C   0  0  0  0  0  0  0  0  0  0  0  0
  148.6087  138.1767  152.1739 O   0  0  0  0  0  0  0  0  0  0  0  0
  146.7961  139.7808  155.1398 C   0  0  0  0  0  0  0  0  0  0  0  0
  146.2583  141.0968  154.5485 C   0  0  0  0  0  0  0  0  0  0  0  0
  147.3014  142.0619  154.4893 O   0  0  0  0  0  0  0  0  0  0  0  0
  148.3798  141.6653  153.6512 C   0  0  0  0  0  0  0  0  0  0  0  0
  149.0133  140.3665  154.1851 C   0  0  0  0  0  0  0  0  0  0  0  0
  152.9970  140.4177  159.2266 C   0  0  2  0  0  0  0  0  0  0  0  0
  152.7591  141.8085  158.5874 C   0  0  0  0  0  0  0  0  0  0  0  0
  150.8629  145.7925  158.9982 H   0  0  0  0  0  0  0  0  0  0  0  0
  150.7563  144.8799  160.5002 H   0  0  0  0  0  0  0  0  0  0  0  0
  149.9504  144.2896  159.0364 H   0  0  0  0  0  0  0  0  0  0  0  0
  151.1685  142.4385  159.9217 H   0  0  0  0  0  0  0  0  0  0  0  0
  153.9897  143.3783  160.5886 H   0  0  0  0  0  0  0  0  0  0  0  0
  152.5702  143.5695  161.5888 H   0  0  0  0  0  0  0  0  0  0  0  0
  153.9737  141.6438  162.3408 H   0  0  0  0  0  0  0  0  0  0  0  0
  152.3748  141.1187  161.8664 H   0  0  0  0  0  0  0  0  0  0  0  0
  154.8871  140.9905  160.1382 H   0  0  0  0  0  0  0  0  0  0  0  0
  155.7839  138.8214  159.8971 H   0  0  0  0  0  0  0  0  0  0  0  0
  154.9929  137.4789  160.6998 H   0  0  0  0  0  0  0  0  0  0  0  0
  154.4673  137.5318  158.2418 H   0  0  0  0  0  0  0  0  0  0  0  0
  153.0221  137.6538  159.2291 H   0  0  0  0  0  0  0  0  0  0  0  0
  153.4951  139.2643  153.8970 H   0  0  0  0  0  0  0  0  0  0  0  0
  148.5963  138.0477  157.8968 H   0  0  0  0  0  0  0  0  0  0  0  0
  149.0879  137.3189  154.3189 H   0  0  0  0  0  0  0  0  0  0  0  0
  147.8793  137.4021  155.5662 H   0  0  0  0  0  0  0  0  0  0  0  0
  146.7581  137.9779  152.9707 H   0  0  0  0  0  0  0  0  0  0  0  0
  147.1287  139.5634  152.3541 H   0  0  0  0  0  0  0  0  0  0  0  0
  149.1823  138.8779  151.9049 H   0  0  0  0  0  0  0  0  0  0  0  0
  145.9922  139.0481  155.2144 H   0  0  0  0  0  0  0  0  0  0  0  0
  147.1034  139.9929  156.1631 H   0  0  0  0  0  0  0  0  0  0  0  0
  145.8224  140.9476  153.5603 H   0  0  0  0  0  0  0  0  0  0  0  0
  145.4621  141.4880  155.1819 H   0  0  0  0  0  0  0  0  0  0  0  0
  148.0390  141.5593  152.6214 H   0  0  0  0  0  0  0  0  0  0  0  0
  149.1240  142.4618  153.6473 H   0  0  0  0  0  0  0  0  0  0  0  0
  149.4517  140.6062  155.1532 H   0  0  0  0  0  0  0  0  0  0  0  0
  149.8416  140.0635  153.5437 H   0  0  0  0  0  0  0  0  0  0  0  0
  152.0403  140.0223  159.5728 H   0  0  0  0  0  0  0  0  0  0  0  0
  152.0969  141.7240  157.7277 H   0  0  0  0  0  0  0  0  0  0  0  0
  153.7020  142.2059  158.2093 H   0  0  0  0  0  0  0  0  0  0  0  0
  1  2  1  0  0  0  0
  1 31  1  0  0  0  0
  1 32  1  0  0  0  0
  1 33  1  0  0  0  0
  2  3  1  0  0  0  0
  3 30  1  0  0  0  0
  3  4  1  0  0  0  0
  3 34  1  0  0  0  0
  4  5  1  0  0  0  0
  4 35  1  0  0  0  0
  4 36  1  0  0  0  0
  5  6  1  0  0  0  0
  5 37  1  0  0  0  0
  5 38  1  0  0  0  0
  6 29  1  0  0  0  0
  6  7  1  0  0  0  0
  6 39  1  0  0  0  0
  7  8  1  0  0  0  0
  8  9  1  0  0  0  0
  8 40  1  0  0  0  0
  8 41  1  0  0  0  0
  9 10  1  0  0  0  0
  9 42  1  0  0  0  0
  9 43  1  0  0  0  0
 10 11  1  0  0  0  0
 10 29  1  0  0  0  0
 11 16  1  0  0  0  0
 11 12  2  0  0  0  0
 12 13  1  0  0  0  0
 13 14  2  0  0  0  0
 13 44  1  0  0  0  0
 14 15  1  0  0  0  0
 15 19  1  0  0  0  0
 15 16  2  0  0  0  0
 16 17  1  0  0  0  0
 17 18  2  0  0  0  0
 18 19  1  0  0  0  0
 18 45  1  0  0  0  0
 19 20  1  0  0  0  0
 20 21  1  0  0  0  0
 20 46  1  0  0  0  0
 20 47  1  0  0  0  0
 21 28  1  0  0  0  0
 21 22  1  0  0  0  0
 21 24  1  0  0  0  0
 22 23  1  0  0  0  0
 22 48  1  0  0  0  0
 22 49  1  0  0  0  0
 23 50  1  0  0  0  0
 24 25  1  0  0  0  0
 24 51  1  0  0  0  0
 24 52  1  0  0  0  0
 25 26  1  0  0  0  0
 25 53  1  0  0  0  0
 25 54  1  0  0  0  0
 26 27  1  0  0  0  0
 27 28  1  0  0  0  0
 27 55  1  0  0  0  0
 27 56  1  0  0  0  0
 28 57  1  0  0  0  0
 28 58  1  0  0  0  0
 29 30  1  0  0  0  0
 29 59  1  0  0  0  0
 30 60  1  0  0  0  0
 30 61  1  0  0  0  0
M  END
> <s_m_source_file>
AV-unprocessed.smi

> <i_m_source_file_index>
177

> <i_lp_mmshare_version>
43012

> <i_f3d_flags>
0

> <s_epik_input>
W0NIM11PW0NASF0oW0NIMl1bQ0gyXTEpW0NIMl1bQ0BIXShbQ0BASF0xMilOKFtDSDJdW0NIMl1PMiljKG5bY0hdbjMpYyhjMzQpbltjSF1uNFtDSDJdQzUoW0NIMl1bT0hdKVtDSDJdW0NIMl1PW0NIMl1bQ0gyXTU=

> <s_epik_cmdline>
J2VwaWtfcHl0aG9uJywgJy1waCcsICc3LjAnLCAnLXRuJywgJzgnLCAnLW1hJywgJzIwMCcsICctbWV0YWxfYmluZGluZycsICctaW1hZScsICc8aW5maWxlLm1hZT4nLCAnLW9tYWUnLCAnPG91dGZpbGUubWFlPic=

> <r_lp_tautomer_probability>
1

> <r_epik_Ionization_Penalty>
0.0065899

> <r_epik_Ionization_Penalty_Charging>
0

> <r_epik_Ionization_Penalty_Neutral>
0.0065899

> <r_epik_State_Penalty>
0.00470042

> <r_epik_Charging_Adjusted_Penalty>
0.00470042

> <i_epik_Tot_Q>
0

> <i_epik_Tot_abs_Q>
0

> <r_epik_Metal_State_Penalty>
-0

> <b_epik_Metal_Only>
0

> <s_lp_Force_Field>
OPLS_2005

> <r_lp_Energy>
44.8058

> <b_lp_Chiralities_Consistent>
1

> <s_lp_Variant>
AV-unprocessed.smi:177-1

> <Gold.Version>
5.8.1

> <Gold.Id.Protein>
6NUR|6NUR_protein|mol2

> <Gold.PLP.Fitness>
46.7263

> <Gold.PLP.PLP>
-43.0718

> <Gold.PLP.part.hbond>
-4.0000

> <Gold.PLP.part.metal>
0.0000

> <Gold.PLP.part.buried>
-7.5586

> <Gold.PLP.part.nonpolar>
-31.3960

> <Gold.PLP.part.repulsive>
0.5497

> <Gold.PLP.ligand.clash>
0.0000

> <Gold.PLP.ligand.torsion>
1.5505

> <Gold.PLP.Chemscore.Hbond>
2.1936

> <Gold.PLP.Chemscore.CHOScore>
0.0000

> <Gold.PLP.Chemscore.Metal>
0.0000

> <Gold.Chemscore.Hbonds>
donor molecule, donor type, donor heavy atom, donor atom, acceptor molecule, acceptor atom, score
      L1  H    23    50       P1  7957  0.71
      P1  H  7954  7966       L1    23  0.05
      P1  H  7997  8009       L1    10  0.30
      P1  H  7997  8010       L1    12  0.26

> <Gold.PLP.Chemscore.Internal.Correction>
0.1746

> <Gold.Rescore>
     Score         DG    S(hbond)    S(metal)    S(lipo)     H(rot)  DE(clash)    DE(int)     intcor
     15.09     -17.05       1.64        0.00     108.58       2.58       0.35       1.61       ----

> <Gold.Chemscore.Fitness>
15.0921

> <Gold.Chemscore.DG>
-17.0457

> <Gold.Chemscore.ZeroCoef>
-5.4800

> <Gold.Chemscore.Hbond>
1.6372

> <Gold.Chemscore.Metal>
0.0000

> <Gold.Chemscore.Lipo>
108.5801

> <Gold.Chemscore.Internal_Hbond>
0.0000

> <Gold.Chemscore.DEClash>
0.3475

> <Gold.Chemscore.DEInternal>
1.6061

> <Gold.Chemscore.Rot>
2.5806

> <Gold.Chemscore.Internal.Correction>
   9.000000E+99

> <Gold.Chemscore.Hbonds>
donor molecule, donor type, donor heavy atom, donor atom, acceptor molecule, acceptor atom, score
      L1  H    23    50       P1  7957  0.35
      P1  H  7997  8010       L1    12  0.15

> <Gold.Chemscore.Hbond.Weighted>
-5.4681

> <Gold.Chemscore.Metal.Weighted>
-0.0000

> <Gold.Chemscore.Lipo.Weighted>
-12.7039

> <Gold.Chemscore.Internal_Hbond.Weighted>
0.0000

> <Gold.Chemscore.DEClash.Weighted>
0.3475

> <Gold.Chemscore.DEInternal.Weighted>
1.6061

> <Gold.Chemscore.Rot.Weighted>
6.6062

> <Gold.Chemscore.Internal.Correction.Weighted>
   9.000000E+99

> <Gold.Protein.RotatedTorsions>
[ 6907 6896 6895 6894 ] final  143.80 input  -60.11 | X-H torsion
[ 7974 7965 7964 7962 ] final   -7.64 input  175.53 | X-H torsion
[ 8008 7997 7996 7995 ] final  128.25 input   59.86 | X-H torsion
[ 10167 10162 10161 10158 ] final  -84.33 input  -65.29 | X-H torsion
[ 10718 10713 10712 10709 ] final   32.85 input   66.30 | X-H torsion
[ 10763 10752 10751 10750 ] final  -11.97 input  -60.55 | X-H torsion
[ 11005 11000 10999 10996 ] final   25.06 input  -57.11 | X-H torsion

> <Gold.Protein.ActiveResidues>
 VAL166  LYS551  ARG553  GLY616  TRP617  ASP618  TYR619  PRO620  LYS621  CYS622 
 ASP623  PHE694  ASN695  SER759  ASP760  ASP761  ALA762  ILE779  LEU786  VAL792 
 PHE793  MET794  SER795  GLU796  ALA797  LYS798  CYS799  TRP800  GLU811  SER814 

> <Gold.Protein.RotatedAtoms>
  152.2017  133.4845  159.5061 H   0  0  0  0  0  0  0  0  0  0  0  0  # atno 6907 bound_to 6896
  150.6971  134.1582  159.4175 H   0  0  0  0  0  0  0  0  0  0  0  0  # atno 6908 bound_to 6896
  151.9500  135.0173  160.0592 H   0  0  0  0  0  0  0  0  0  0  0  0  # atno 6909 bound_to 6896
  146.2302  140.2349  142.8341 H   0  0  0  0  0  0  0  0  0  0  0  0  # atno 7974 bound_to 7965
  156.2910  140.2649  156.2406 H   0  0  0  0  0  0  0  0  0  0  0  0  # atno 8008 bound_to 7997
  154.9981  140.0388  157.2367 H   0  0  0  0  0  0  0  0  0  0  0  0  # atno 8009 bound_to 7997
  154.7626  140.2763  155.6207 H   0  0  0  0  0  0  0  0  0  0  0  0  # atno 8010 bound_to 7997
  140.4142  143.2610  151.8977 H   0  0  0  0  0  0  0  0  0  0  0  0  # atno 10167 bound_to 10162
  157.2904  130.7300  149.6607 H   0  0  0  0  0  0  0  0  0  0  0  0  # atno 10718 bound_to 10713
  153.4916  135.7017  153.5881 H   0  0  0  0  0  0  0  0  0  0  0  0  # atno 10763 bound_to 10752
  153.4051  135.3862  155.2013 H   0  0  0  0  0  0  0  0  0  0  0  0  # atno 10764 bound_to 10752
  154.8716  135.3891  154.4377 H   0  0  0  0  0  0  0  0  0  0  0  0  # atno 10765 bound_to 10752
  140.3519  134.2219  155.7679 H   0  0  0  0  0  0  0  0  0  0  0  0  # atno 11005 bound_to 11000
  144.9529  140.8197  143.5561 LP  0  0  0  0  0  0  0  0  0  0  0  0  # atno 17320 bound_to 7965
  145.2311  139.2114  143.5042 LP  0  0  0  0  0  0  0  0  0  0  0  0  # atno 17321 bound_to 7965
  139.4782  144.5505  151.8393 LP  0  0  0  0  0  0  0  0  0  0  0  0  # atno 17342 bound_to 10162
  140.4604  144.1729  150.5906 LP  0  0  0  0  0  0  0  0  0  0  0  0  # atno 17343 bound_to 10162
  155.9667  130.4310  150.4903 LP  0  0  0  0  0  0  0  0  0  0  0  0  # atno 17370 bound_to 10713
  157.2864  131.0617  151.2163 LP  0  0  0  0  0  0  0  0  0  0  0  0  # atno 17371 bound_to 10713
  141.2009  133.7975  157.0464 LP  0  0  0  0  0  0  0  0  0  0  0  0  # atno 17394 bound_to 11000
  140.0696  134.9710  157.1445 LP  0  0  0  0  0  0  0  0  0  0  0  0  # atno 17395 bound_to 11000

$$$$
