AV-unprocessed.smi:2790|AV-procd|sdf|10770|dock9
  -GOLD-   2272015203D 1   1.00000     0.00000
 Structure written by MMmdl.
 46 47  0  0  0  0  0  0  0  0  4 V2000
  152.2952  144.6679  157.9187 C   0  0  0  0  0  0  0  0  0  0  0  0
  151.5400  144.2319  159.1144 N   0  3  0  0  0  0  0  0  0  0  0  0
  152.4314  143.7897  160.2085 C   0  0  0  0  0  0  0  0  0  0  0  0
  150.4711  143.2496  158.8016 C   0  0  0  0  0  0  0  0  0  0  0  0
  151.0804  142.0445  158.0793 C   0  0  0  0  0  0  0  0  0  0  0  0
  152.1112  141.5445  158.5391 O   0  0  0  0  0  0  0  0  0  0  0  0
  150.3409  141.7036  156.9894 N   0  5  0  0  0  0  0  0  0  0  0  0
  150.8984  141.1258  155.7644 C   0  0  0  0  0  0  0  0  0  0  0  0
  150.1982  139.7613  155.3925 C   0  0  0  0  0  0  0  0  0  0  0  0
  148.8578  140.0680  154.6615 C   0  0  0  0  0  0  0  0  0  0  0  0
  148.4032  141.4040  154.4808 C   0  0  0  0  0  0  0  0  0  0  0  0
  147.1827  141.6583  153.8248 C   0  0  0  0  0  0  0  0  0  0  0  0
  146.4380  140.6317  153.3677 N   0  3  0  0  0  0  0  0  0  0  0  0
  146.8107  139.3445  153.5134 C   0  0  0  0  0  0  0  0  0  0  0  0
  148.0220  139.0312  154.1613 C   0  0  0  0  0  0  0  0  0  0  0  0
  151.1033  138.9105  154.4278 C   0  0  0  0  0  0  0  0  0  0  0  0
  152.3368  138.2292  155.0626 C   0  0  0  0  0  0  0  0  0  0  0  0
  151.9489  137.3646  156.2640 C   0  0  0  0  0  0  0  0  0  0  0  0
  151.1804  138.1975  157.2919 C   0  0  0  0  0  0  0  0  0  0  0  0
  149.9390  138.8627  156.6592 C   0  0  0  0  0  0  0  0  0  0  0  0
  152.8517  143.8371  157.4830 H   0  0  0  0  0  0  0  0  0  0  0  0
  153.0027  145.4560  158.1772 H   0  0  0  0  0  0  0  0  0  0  0  0
  151.6217  145.0654  157.1588 H   0  0  0  0  0  0  0  0  0  0  0  0
  152.9857  142.8947  159.9230 H   0  0  0  0  0  0  0  0  0  0  0  0
  151.8544  143.5663  161.1065 H   0  0  0  0  0  0  0  0  0  0  0  0
  153.1482  144.5715  160.4613 H   0  0  0  0  0  0  0  0  0  0  0  0
  149.9475  142.9255  159.7034 H   0  0  0  0  0  0  0  0  0  0  0  0
  149.7099  143.6945  158.1582 H   0  0  0  0  0  0  0  0  0  0  0  0
  150.8043  141.8016  154.9129 H   0  0  0  0  0  0  0  0  0  0  0  0
  151.9696  140.9608  155.8761 H   0  0  0  0  0  0  0  0  0  0  0  0
  148.9682  142.2441  154.8534 H   0  0  0  0  0  0  0  0  0  0  0  0
  146.7803  142.6471  153.6598 H   0  0  0  0  0  0  0  0  0  0  0  0
  146.1308  138.6059  153.1143 H   0  0  0  0  0  0  0  0  0  0  0  0
  148.2806  137.9905  154.2754 H   0  0  0  0  0  0  0  0  0  0  0  0
  150.4904  138.1115  154.0073 H   0  0  0  0  0  0  0  0  0  0  0  0
  151.4475  139.4865  153.5671 H   0  0  0  0  0  0  0  0  0  0  0  0
  152.8340  137.6094  154.3160 H   0  0  0  0  0  0  0  0  0  0  0  0
  153.0715  138.9751  155.3672 H   0  0  0  0  0  0  0  0  0  0  0  0
  151.3335  136.5272  155.9330 H   0  0  0  0  0  0  0  0  0  0  0  0
  152.8413  136.9354  156.7205 H   0  0  0  0  0  0  0  0  0  0  0  0
  150.8689  137.5578  158.1179 H   0  0  0  0  0  0  0  0  0  0  0  0
  151.8384  138.9496  157.7280 H   0  0  0  0  0  0  0  0  0  0  0  0
  149.4051  139.3995  157.4455 H   0  0  0  0  0  0  0  0  0  0  0  0
  149.2734  138.0486  156.3679 H   0  0  0  0  0  0  0  0  0  0  0  0
  151.0560  145.0506  159.4557 H   0  0  0  0  0  0  0  0  0  0  0  0
  145.5555  140.8369  152.8988 H   0  0  0  0  0  0  0  0  0  0  0  0
  1  2  1  0  0  0  0
  1 21  1  0  0  0  0
  1 22  1  0  0  0  0
  1 23  1  0  0  0  0
  2  3  1  0  0  0  0
  2  4  1  0  0  0  0
  2 45  1  0  0  0  0
  3 24  1  0  0  0  0
  3 25  1  0  0  0  0
  3 26  1  0  0  0  0
  4  5  1  0  0  0  0
  4 27  1  0  0  0  0
  4 28  1  0  0  0  0
  5  6  2  0  0  0  0
  5  7  1  0  0  0  0
  7  8  1  0  0  0  0
  8  9  1  0  0  0  0
  8 29  1  0  0  0  0
  8 30  1  0  0  0  0
  9 20  1  0  0  0  0
  9 10  1  0  0  0  0
  9 16  1  0  0  0  0
 10 15  1  0  0  0  0
 10 11  2  0  0  0  0
 11 12  1  0  0  0  0
 11 31  1  0  0  0  0
 12 13  2  0  0  0  0
 12 32  1  0  0  0  0
 13 14  1  0  0  0  0
 13 46  1  0  0  0  0
 14 15  2  0  0  0  0
 14 33  1  0  0  0  0
 15 34  1  0  0  0  0
 16 17  1  0  0  0  0
 16 35  1  0  0  0  0
 16 36  1  0  0  0  0
 17 18  1  0  0  0  0
 17 37  1  0  0  0  0
 17 38  1  0  0  0  0
 18 19  1  0  0  0  0
 18 39  1  0  0  0  0
 18 40  1  0  0  0  0
 19 20  1  0  0  0  0
 19 41  1  0  0  0  0
 19 42  1  0  0  0  0
 20 43  1  0  0  0  0
 20 44  1  0  0  0  0
M  CHG  1   2   1
M  CHG  1   7  -1
M  CHG  1  13   1
M  END
> <s_m_source_file>
AV-unprocessed.smi

> <i_m_source_file_index>
2790

> <i_lp_mmshare_version>
43012

> <i_f3d_flags>
0

> <s_epik_input>
W0NIM11OKFtDSDNdKVtDSDJdQyg9TylbTkhdW0NIMl1DMShbQ0gyXVtDSDJdW0NIMl1bQ0gyXVtDSDJdMSljMltjSF1bY0hdbltjSF1bY0hdMg==

> <s_epik_cmdline>
J2VwaWtfcHl0aG9uJywgJy1waCcsICc3LjAnLCAnLXRuJywgJzgnLCAnLW1hJywgJzIwMCcsICctbWV0YWxfYmluZGluZycsICctaW1hZScsICc8aW5maWxlLm1hZT4nLCAnLW9tYWUnLCAnPG91dGZpbGUubWFlPic=

> <r_epik_Ionization_Penalty>
6.72126

> <r_epik_Ionization_Penalty_Charging>
6.72126

> <r_epik_Ionization_Penalty_Neutral>
0

> <r_epik_State_Penalty>
7.43246

> <r_epik_Charging_Adjusted_Penalty>
14.1537

> <i_epik_Tot_Q>
1

> <i_epik_Tot_abs_Q>
3

> <r_epik_Metal_State_Penalty>
3.42758

> <b_epik_Metal_Only>
1

> <s_lp_Force_Field>
OPLS_2005

> <r_lp_Energy>
31.5627

> <b_lp_Chiralities_Consistent>
1

> <s_lp_Variant>
AV-unprocessed.smi:2790-5

> <Gold.Version>
5.8.1

> <Gold.Id.Protein>
6NUR|6NUR_protein|mol2

> <Gold.PLP.Fitness>
42.1552

> <Gold.PLP.PLP>
-37.5904

> <Gold.PLP.part.hbond>
-1.0000

> <Gold.PLP.part.metal>
0.0000

> <Gold.PLP.part.buried>
-6.4623

> <Gold.PLP.part.nonpolar>
-31.1566

> <Gold.PLP.part.repulsive>
0.1458

> <Gold.PLP.ligand.clash>
0.0000

> <Gold.PLP.ligand.torsion>
0.7338

> <Gold.PLP.Chemscore.Hbond>
1.9840

> <Gold.PLP.Chemscore.CHOScore>
0.0000

> <Gold.PLP.Chemscore.Metal>
0.0000

> <Gold.Chemscore.Hbonds>
donor molecule, donor type, donor heavy atom, donor atom, acceptor molecule, acceptor atom, score
      L1  H    13    46       P1 10175  2.00

> <Gold.PLP.Chemscore.Internal.Correction>
0.0804

> <Gold.Rescore>
     Score         DG    S(hbond)    S(metal)    S(lipo)     H(rot)  DE(clash)    DE(int)     intcor
     14.48     -16.82       0.92        0.00     107.25       1.67       0.03       2.31       ----

> <Gold.Chemscore.Fitness>
14.4827

> <Gold.Chemscore.DG>
-16.8238

> <Gold.Chemscore.ZeroCoef>
-5.4800

> <Gold.Chemscore.Hbond>
0.9224

> <Gold.Chemscore.Metal>
0.0000

> <Gold.Chemscore.Lipo>
107.2533

> <Gold.Chemscore.Internal_Hbond>
0.0000

> <Gold.Chemscore.DEClash>
0.0312

> <Gold.Chemscore.DEInternal>
2.3099

> <Gold.Chemscore.Rot>
1.6741

> <Gold.Chemscore.Internal.Correction>
   9.000000E+99

> <Gold.Chemscore.Hbonds>
donor molecule, donor type, donor heavy atom, donor atom, acceptor molecule, acceptor atom, score
      L1  H    13    46       P1 10175  0.38

> <Gold.Chemscore.Hbond.Weighted>
-3.0810

> <Gold.Chemscore.Metal.Weighted>
-0.0000

> <Gold.Chemscore.Lipo.Weighted>
-12.5486

> <Gold.Chemscore.Internal_Hbond.Weighted>
0.0000

> <Gold.Chemscore.DEClash.Weighted>
0.0312

> <Gold.Chemscore.DEInternal.Weighted>
2.3099

> <Gold.Chemscore.Rot.Weighted>
4.2858

> <Gold.Chemscore.Internal.Correction.Weighted>
   9.000000E+99

> <Gold.Protein.RotatedTorsions>
[ 6907 6896 6895 6894 ] final -119.98 input  -60.11 | X-H torsion
[ 7974 7965 7964 7962 ] final  -18.99 input  175.53 | X-H torsion
[ 8008 7997 7996 7995 ] final  -43.23 input   59.86 | X-H torsion
[ 10167 10162 10161 10158 ] final   32.46 input  -65.29 | X-H torsion
[ 10718 10713 10712 10709 ] final  -28.18 input   66.30 | X-H torsion
[ 10763 10752 10751 10750 ] final  163.79 input  -60.55 | X-H torsion
[ 11005 11000 10999 10996 ] final  136.41 input  -57.11 | X-H torsion

> <Gold.Protein.ActiveResidues>
 VAL166  LYS551  ARG553  GLY616  TRP617  ASP618  TYR619  PRO620  LYS621  CYS622 
 ASP623  PHE694  ASN695  SER759  ASP760  ASP761  ALA762  ILE779  LEU786  VAL792 
 PHE793  MET794  SER795  GLU796  ALA797  LYS798  CYS799  TRP800  GLU811  SER814 

> <Gold.Protein.RotatedAtoms>
  150.8353  133.8024  159.3082 H   0  0  0  0  0  0  0  0  0  0  0  0  # atno 6907 bound_to 6896
  151.5742  135.1059  160.0012 H   0  0  0  0  0  0  0  0  0  0  0  0  # atno 6908 bound_to 6896
  152.4426  133.7434  159.6710 H   0  0  0  0  0  0  0  0  0  0  0  0  # atno 6909 bound_to 6896
  146.1864  140.3999  142.8474 H   0  0  0  0  0  0  0  0  0  0  0  0  # atno 7974 bound_to 7965
  154.3997  140.1453  156.3486 H   0  0  0  0  0  0  0  0  0  0  0  0  # atno 8008 bound_to 7997
  155.8290  140.3466  155.5540 H   0  0  0  0  0  0  0  0  0  0  0  0  # atno 8009 bound_to 7997
  155.8208  140.0897  157.1840 H   0  0  0  0  0  0  0  0  0  0  0  0  # atno 8010 bound_to 7997
  140.4497  144.1067  150.6189 H   0  0  0  0  0  0  0  0  0  0  0  0  # atno 10167 bound_to 10162
  156.4285  130.4440  149.7134 H   0  0  0  0  0  0  0  0  0  0  0  0  # atno 10718 bound_to 10713
  154.2991  135.2759  155.2619 H   0  0  0  0  0  0  0  0  0  0  0  0  # atno 10763 bound_to 10752
  154.5064  135.5794  153.6574 H   0  0  0  0  0  0  0  0  0  0  0  0  # atno 10764 bound_to 10752
  152.9903  135.6170  154.3161 H   0  0  0  0  0  0  0  0  0  0  0  0  # atno 10765 bound_to 10752
  140.0044  134.9465  157.0143 H   0  0  0  0  0  0  0  0  0  0  0  0  # atno 11005 bound_to 11000
  144.8405  140.6850  143.6232 LP  0  0  0  0  0  0  0  0  0  0  0  0  # atno 17320 bound_to 7965
  145.3925  139.1613  143.4221 LP  0  0  0  0  0  0  0  0  0  0  0  0  # atno 17321 bound_to 7965
  140.4222  143.2606  151.9701 LP  0  0  0  0  0  0  0  0  0  0  0  0  # atno 17342 bound_to 10162
  139.4795  144.5820  151.7916 LP  0  0  0  0  0  0  0  0  0  0  0  0  # atno 17343 bound_to 10162
  156.4046  130.7692  151.2701 LP  0  0  0  0  0  0  0  0  0  0  0  0  # atno 17370 bound_to 10713
  157.7508  131.0229  150.3814 LP  0  0  0  0  0  0  0  0  0  0  0  0  # atno 17371 bound_to 10713
  140.4668  134.1427  155.7198 LP  0  0  0  0  0  0  0  0  0  0  0  0  # atno 17394 bound_to 11000
  141.1666  133.8691  157.1696 LP  0  0  0  0  0  0  0  0  0  0  0  0  # atno 17395 bound_to 11000

$$$$
