AV-unprocessed.smi:1419|AV-procd|sdf|5778|dock7
  -GOLD-   22720 5423D 1   1.00000     0.00000
 Structure written by MMmdl.
 42 43  0  0  0  0  0  0  0  0  2 V2000
  144.8747  136.6824  154.0574 C   0  0  0  0  0  0  0  0  0  0  0  0
  145.1539  137.4687  152.7696 C   0  0  2  0  0  0  0  0  0  0  0  0
  145.9726  136.6246  151.7686 C   0  0  0  0  0  0  0  0  0  0  0  0
  145.2626  135.4233  151.3156 N   0  0  0  0  0  0  0  0  0  0  0  0
  145.7314  134.1344  151.3099 C   0  0  0  0  0  0  0  0  0  0  0  0
  144.7206  133.3528  150.8132 C   0  0  0  0  0  0  0  0  0  0  0  0
  143.6828  134.1983  150.5254 N   0  3  0  0  0  0  0  0  0  0  0  0
  144.0173  135.4577  150.8241 C   0  0  0  0  0  0  0  0  0  0  0  0
  145.8551  138.7044  153.1161 N   0  0  0  0  0  0  0  0  0  0  0  0
  147.0564  138.7947  153.7137 C   0  0  0  0  0  0  0  0  0  0  0  0
  147.6991  137.7992  154.0498 O   0  0  0  0  0  0  0  0  0  0  0  0
  147.4832  140.0621  153.9364 N   0  0  0  0  0  0  0  0  0  0  0  0
  146.7444  141.3053  153.6759 C   0  0  0  0  0  0  0  0  0  0  0  0
  146.3915  141.9721  155.0217 C   0  0  1  0  0  0  0  0  0  0  0  0
  145.3117  141.2240  155.8231 C   0  0  0  0  0  0  0  0  0  0  0  0
  147.5810  142.1589  155.7961 O   0  0  0  0  0  0  0  0  0  0  0  0
  148.3847  140.9928  155.9971 C   0  0  2  0  0  0  0  0  0  0  0  0
  149.6358  141.4102  156.7772 C   0  0  0  0  0  0  0  0  0  0  0  0
  148.7345  140.3650  154.6334 C   0  0  0  0  0  0  0  0  0  0  0  0
  144.3217  135.7669  153.8461 H   0  0  0  0  0  0  0  0  0  0  0  0
  144.2788  137.2705  154.7563 H   0  0  0  0  0  0  0  0  0  0  0  0
  145.8005  136.4022  154.5614 H   0  0  0  0  0  0  0  0  0  0  0  0
  144.1864  137.7088  152.3247 H   0  0  0  0  0  0  0  0  0  0  0  0
  146.2529  137.2185  150.8970 H   0  0  0  0  0  0  0  0  0  0  0  0
  146.9010  136.2865  152.2309 H   0  0  0  0  0  0  0  0  0  0  0  0
  146.7198  133.8747  151.6607 H   0  0  0  0  0  0  0  0  0  0  0  0
  144.6641  132.2870  150.6462 H   0  0  0  0  0  0  0  0  0  0  0  0
  143.3990  136.3286  150.6992 H   0  0  0  0  0  0  0  0  0  0  0  0
  145.3912  139.5682  152.8746 H   0  0  0  0  0  0  0  0  0  0  0  0
  147.3808  141.9733  153.0935 H   0  0  0  0  0  0  0  0  0  0  0  0
  145.8447  141.1733  153.0750 H   0  0  0  0  0  0  0  0  0  0  0  0
  146.0026  142.9685  154.8108 H   0  0  0  0  0  0  0  0  0  0  0  0
  144.3854  141.1543  155.2525 H   0  0  0  0  0  0  0  0  0  0  0  0
  145.0880  141.7466  156.7533 H   0  0  0  0  0  0  0  0  0  0  0  0
  145.6148  140.2097  156.0773 H   0  0  0  0  0  0  0  0  0  0  0  0
  147.8337  140.2708  156.6007 H   0  0  0  0  0  0  0  0  0  0  0  0
  150.2813  140.5535  156.9727 H   0  0  0  0  0  0  0  0  0  0  0  0
  149.3673  141.8497  157.7382 H   0  0  0  0  0  0  0  0  0  0  0  0
  150.2175  142.1485  156.2246 H   0  0  0  0  0  0  0  0  0  0  0  0
  149.3612  139.4837  154.7777 H   0  0  0  0  0  0  0  0  0  0  0  0
  149.3267  141.0586  154.0343 H   0  0  0  0  0  0  0  0  0  0  0  0
  142.7910  133.9141  150.1396 H   0  0  0  0  0  0  0  0  0  0  0  0
  1  2  1  0  0  0  0
  1 20  1  0  0  0  0
  1 21  1  0  0  0  0
  1 22  1  0  0  0  0
  2  3  1  0  0  0  0
  2  9  1  0  0  0  0
  2 23  1  0  0  0  0
  3  4  1  0  0  0  0
  3 24  1  0  0  0  0
  3 25  1  0  0  0  0
  4  8  1  0  0  0  0
  4  5  1  0  0  0  0
  5  6  2  0  0  0  0
  5 26  1  0  0  0  0
  6  7  1  0  0  0  0
  6 27  1  0  0  0  0
  7  8  2  0  0  0  0
  7 42  1  0  0  0  0
  8 28  1  0  0  0  0
  9 10  1  0  0  0  0
  9 29  1  0  0  0  0
 10 11  2  0  0  0  0
 10 12  1  0  0  0  0
 12 19  1  0  0  0  0
 12 13  1  0  0  0  0
 13 14  1  0  0  0  0
 13 30  1  0  0  0  0
 13 31  1  0  0  0  0
 14 15  1  0  0  0  0
 14 16  1  0  0  0  0
 14 32  1  0  0  0  0
 15 33  1  0  0  0  0
 15 34  1  0  0  0  0
 15 35  1  0  0  0  0
 16 17  1  0  0  0  0
 17 18  1  0  0  0  0
 17 19  1  0  0  0  0
 17 36  1  0  0  0  0
 18 37  1  0  0  0  0
 18 38  1  0  0  0  0
 18 39  1  0  0  0  0
 19 40  1  0  0  0  0
 19 41  1  0  0  0  0
M  CHG  1   7   1
M  END
> <s_m_source_file>
AV-unprocessed.smi

> <i_m_source_file_index>
1419

> <i_lp_mmshare_version>
43012

> <i_f3d_flags>
0

> <s_epik_input>
W2NIXTFuW2NIXVtjSF1uMVtDSDJdW0NAQEhdKFtDSDNdKVtOSF1DKD1PKU4yW0NIMl1bQ0BASF0oW0NIM10pT1tDQEBIXShbQ0gzXSlbQ0gyXTI=

> <s_epik_cmdline>
J2VwaWtfcHl0aG9uJywgJy1waCcsICc3LjAnLCAnLXRuJywgJzgnLCAnLW1hJywgJzIwMCcsICctbWV0YWxfYmluZGluZycsICctaW1hZScsICc8aW5maWxlLm1hZT4nLCAnLW9tYWUnLCAnPG91dGZpbGUubWFlPic=

> <r_lp_tautomer_probability>
1

> <r_epik_Ionization_Penalty>
0.253607

> <r_epik_Ionization_Penalty_Charging>
0

> <r_epik_Ionization_Penalty_Neutral>
0.253607

> <r_epik_State_Penalty>
0.245018

> <r_epik_Charging_Adjusted_Penalty>
0.245018

> <i_epik_Tot_Q>
1

> <i_epik_Tot_abs_Q>
1

> <r_epik_Metal_State_Penalty>
0.535379

> <b_epik_Metal_Only>
0

> <s_lp_Force_Field>
OPLS_2005

> <r_lp_Energy>
31.638

> <b_lp_Chiralities_Consistent>
1

> <s_lp_Variant>
AV-unprocessed.smi:1419-5

> <Gold.Version>
5.8.1

> <Gold.Id.Protein>
6NUR|6NUR_protein|mol2

> <Gold.PLP.Fitness>
36.3832

> <Gold.PLP.PLP>
-25.3660

> <Gold.PLP.part.hbond>
-2.0000

> <Gold.PLP.part.metal>
0.0000

> <Gold.PLP.part.buried>
-4.8597

> <Gold.PLP.part.nonpolar>
-22.7871

> <Gold.PLP.part.repulsive>
3.2714

> <Gold.PLP.ligand.clash>
0.0000

> <Gold.PLP.ligand.torsion>
0.0897

> <Gold.PLP.Chemscore.Hbond>
2.7200

> <Gold.PLP.Chemscore.CHOScore>
1.0000

> <Gold.PLP.Chemscore.Metal>
0.0000

> <Gold.Chemscore.Hbonds>
donor molecule, donor type, donor heavy atom, donor atom, acceptor molecule, acceptor atom, score
      L1  H     7    42       P1 10186  1.92
      L1  H     9    29       P1 10175  0.94
      L1  C     8    28       P1 10171  1.00

> <Gold.PLP.Chemscore.Internal.Correction>
0.0365

> <Gold.Rescore>
     Score         DG    S(hbond)    S(metal)    S(lipo)     H(rot)  DE(clash)    DE(int)     intcor
     11.76     -12.91       1.80        0.00      47.63       1.63       0.06       1.09       ----

> <Gold.Chemscore.Fitness>
11.7644

> <Gold.Chemscore.DG>
-12.9093

> <Gold.Chemscore.ZeroCoef>
-5.4800

> <Gold.Chemscore.Hbond>
1.8033

> <Gold.Chemscore.Metal>
0.0000

> <Gold.Chemscore.Lipo>
47.6255

> <Gold.Chemscore.Internal_Hbond>
0.0000

> <Gold.Chemscore.DEClash>
0.0570

> <Gold.Chemscore.DEInternal>
1.0879

> <Gold.Chemscore.Rot>
1.6273

> <Gold.Chemscore.Internal.Correction>
   9.000000E+99

> <Gold.Chemscore.Hbonds>
donor molecule, donor type, donor heavy atom, donor atom, acceptor molecule, acceptor atom, score
      L1  H     7    42       P1 10186  0.91
      L1  H     9    29       P1 10175  0.89

> <Gold.Chemscore.Hbond.Weighted>
-6.0230

> <Gold.Chemscore.Metal.Weighted>
-0.0000

> <Gold.Chemscore.Lipo.Weighted>
-5.5722

> <Gold.Chemscore.Internal_Hbond.Weighted>
0.0000

> <Gold.Chemscore.DEClash.Weighted>
0.0570

> <Gold.Chemscore.DEInternal.Weighted>
1.0879

> <Gold.Chemscore.Rot.Weighted>
4.1658

> <Gold.Chemscore.Internal.Correction.Weighted>
   9.000000E+99

> <Gold.Protein.RotatedTorsions>
[ 6907 6896 6895 6894 ] final  116.05 input  -60.11 | X-H torsion
[ 7974 7965 7964 7962 ] final   26.06 input  175.53 | X-H torsion
[ 8008 7997 7996 7995 ] final   38.01 input   59.86 | X-H torsion
[ 10167 10162 10161 10158 ] final  117.83 input  -65.29 | X-H torsion
[ 10718 10713 10712 10709 ] final  119.87 input   66.30 | X-H torsion
[ 10763 10752 10751 10750 ] final -153.53 input  -60.55 | X-H torsion
[ 11005 11000 10999 10996 ] final   53.60 input  -57.11 | X-H torsion

> <Gold.Protein.ActiveResidues>
 VAL166  LYS551  ARG553  GLY616  TRP617  ASP618  TYR619  PRO620  LYS621  CYS622 
 ASP623  PHE694  ASN695  SER759  ASP760  ASP761  ALA762  ILE779  LEU786  VAL792 
 PHE793  MET794  SER795  GLU796  ALA797  LYS798  CYS799  TRP800  GLU811  SER814 

> <Gold.Protein.RotatedAtoms>
  152.4702  133.8013  159.6954 H   0  0  0  0  0  0  0  0  0  0  0  0  # atno 6907 bound_to 6896
  150.8688  133.7526  159.2974 H   0  0  0  0  0  0  0  0  0  0  0  0  # atno 6908 bound_to 6896
  151.5068  135.1067  159.9895 H   0  0  0  0  0  0  0  0  0  0  0  0  # atno 6909 bound_to 6896
  146.1857  139.7380  142.8868 H   0  0  0  0  0  0  0  0  0  0  0  0  # atno 7974 bound_to 7965
  155.2132  140.3325  155.4326 H   0  0  0  0  0  0  0  0  0  0  0  0  # atno 8008 bound_to 7997
  156.2362  140.1873  156.7160 H   0  0  0  0  0  0  0  0  0  0  0  0  # atno 8009 bound_to 7997
  154.6064  140.0615  156.9422 H   0  0  0  0  0  0  0  0  0  0  0  0  # atno 8010 bound_to 7997
  139.6152  144.7090  151.2755 H   0  0  0  0  0  0  0  0  0  0  0  0  # atno 10167 bound_to 10162
  157.5931  131.1061  150.7957 H   0  0  0  0  0  0  0  0  0  0  0  0  # atno 10718 bound_to 10713
  154.7921  135.3210  154.7752 H   0  0  0  0  0  0  0  0  0  0  0  0  # atno 10763 bound_to 10752
  153.8439  135.6868  153.4804 H   0  0  0  0  0  0  0  0  0  0  0  0  # atno 10764 bound_to 10752
  153.1596  135.4666  154.9694 H   0  0  0  0  0  0  0  0  0  0  0  0  # atno 10765 bound_to 10752
  140.0753  134.5412  155.9002 H   0  0  0  0  0  0  0  0  0  0  0  0  # atno 11005 bound_to 11000
  145.3945  141.0377  143.3105 LP  0  0  0  0  0  0  0  0  0  0  0  0  # atno 17320 bound_to 7965
  144.8393  139.5498  143.6907 LP  0  0  0  0  0  0  0  0  0  0  0  0  # atno 17321 bound_to 7965
  140.7346  143.6761  150.8040 LP  0  0  0  0  0  0  0  0  0  0  0  0  # atno 17342 bound_to 10162
  140.0363  143.5392  152.2738 LP  0  0  0  0  0  0  0  0  0  0  0  0  # atno 17343 bound_to 10162
  156.8374  130.5036  149.5325 LP  0  0  0  0  0  0  0  0  0  0  0  0  # atno 17370 bound_to 10713
  156.0989  130.5953  150.9860 LP  0  0  0  0  0  0  0  0  0  0  0  0  # atno 17371 bound_to 10713
  141.2027  133.6627  156.6022 LP  0  0  0  0  0  0  0  0  0  0  0  0  # atno 17394 bound_to 11000
  140.3566  134.7723  157.4504 LP  0  0  0  0  0  0  0  0  0  0  0  0  # atno 17395 bound_to 11000

$$$$
