AV-unprocessed.smi:2001|AV-procd|sdf|8105|dock3
  -GOLD-   2272010333D 1   1.00000     0.00000
 Structure written by MMmdl.
 51 52  0  0  0  0  0  0  0  0  2 V2000
  147.6448  142.1389  153.5768 C   0  0  0  0  0  0  0  0  0  0  0  0
  147.7828  141.2926  154.7048 O   0  0  0  0  0  0  0  0  0  0  0  0
  149.1352  140.9671  154.9774 C   0  0  0  0  0  0  0  0  0  0  0  0
  149.5806  139.8539  154.0171 C   0  0  0  0  0  0  0  0  0  0  0  0
  150.5706  138.9688  154.6388 N   0  0  0  0  0  0  0  0  0  0  0  0
  150.2343  137.6258  154.5946 N   0  0  0  0  0  0  0  0  0  0  0  0
  151.0234  136.7407  155.1128 C   0  0  0  0  0  0  0  0  0  0  0  0
  150.6943  135.2879  155.0929 C   0  0  0  0  0  0  0  0  0  0  0  0
  151.1460  134.5051  155.9303 O   0  0  0  0  0  0  0  0  0  0  0  0
  149.8713  134.8964  154.1045 N   0  0  0  0  0  0  0  0  0  0  0  0
  149.4027  133.5311  153.9108 C   0  0  0  0  0  0  0  0  0  0  0  0
  147.8662  133.4819  153.9360 C   0  0  0  0  0  0  0  0  0  0  0  0
  147.2570  133.8774  152.6411 N   0  3  1  0  0  0  0  0  0  0  0  0
  146.8885  132.7027  151.8155 C   0  0  0  0  0  0  0  0  0  0  0  0
  146.3177  133.1492  150.4563 C   0  0  1  0  0  0  0  0  0  0  0  0
  145.8469  131.9614  149.6100 C   0  0  0  0  0  0  0  0  0  0  0  0
  145.2016  134.0035  150.6797 O   0  0  0  0  0  0  0  0  0  0  0  0
  145.5504  135.1848  151.3926 C   0  0  1  0  0  0  0  0  0  0  0  0
  144.3024  136.0694  151.4904 C   0  0  0  0  0  0  0  0  0  0  0  0
  146.0971  134.7930  152.7789 C   0  0  0  0  0  0  0  0  0  0  0  0
  152.2722  137.1347  155.7426 C   0  0  0  0  0  0  0  0  0  0  0  0
  152.5897  138.4476  155.7720 C   0  0  0  0  0  0  0  0  0  0  0  0
  151.7159  139.4692  155.1932 C   0  0  0  0  0  0  0  0  0  0  0  0
  151.9866  140.6695  155.2010 O   0  0  0  0  0  0  0  0  0  0  0  0
  146.5900  142.3561  153.4090 H   0  0  0  0  0  0  0  0  0  0  0  0
  148.0382  141.6648  152.6768 H   0  0  0  0  0  0  0  0  0  0  0  0
  148.1635  143.0864  153.7286 H   0  0  0  0  0  0  0  0  0  0  0  0
  149.7631  141.8500  154.8455 H   0  0  0  0  0  0  0  0  0  0  0  0
  149.2376  140.6402  156.0135 H   0  0  0  0  0  0  0  0  0  0  0  0
  148.7146  139.2808  153.6811 H   0  0  0  0  0  0  0  0  0  0  0  0
  149.9986  140.3019  153.1136 H   0  0  0  0  0  0  0  0  0  0  0  0
  149.5427  135.5968  153.4550 H   0  0  0  0  0  0  0  0  0  0  0  0
  149.7866  133.1583  152.9608 H   0  0  0  0  0  0  0  0  0  0  0  0
  149.8147  132.8988  154.6986 H   0  0  0  0  0  0  0  0  0  0  0  0
  147.5633  132.4602  154.1704 H   0  0  0  0  0  0  0  0  0  0  0  0
  147.4730  134.1121  154.7355 H   0  0  0  0  0  0  0  0  0  0  0  0
  147.7665  132.0755  151.6554 H   0  0  0  0  0  0  0  0  0  0  0  0
  146.1558  132.0974  152.3522 H   0  0  0  0  0  0  0  0  0  0  0  0
  147.0805  133.6933  149.8966 H   0  0  0  0  0  0  0  0  0  0  0  0
  146.6682  131.2738  149.4071 H   0  0  0  0  0  0  0  0  0  0  0  0
  145.4514  132.2986  148.6514 H   0  0  0  0  0  0  0  0  0  0  0  0
  145.0594  131.4026  150.1166 H   0  0  0  0  0  0  0  0  0  0  0  0
  146.3162  135.7276  150.8356 H   0  0  0  0  0  0  0  0  0  0  0  0
  144.5176  136.9957  152.0235 H   0  0  0  0  0  0  0  0  0  0  0  0
  143.4960  135.5590  152.0178 H   0  0  0  0  0  0  0  0  0  0  0  0
  143.9349  136.3353  150.4991 H   0  0  0  0  0  0  0  0  0  0  0  0
  145.3173  134.3071  153.3679 H   0  0  0  0  0  0  0  0  0  0  0  0
  146.3869  135.6959  153.3150 H   0  0  0  0  0  0  0  0  0  0  0  0
  152.9368  136.4023  156.1775 H   0  0  0  0  0  0  0  0  0  0  0  0
  153.5155  138.7545  156.2362 H   0  0  0  0  0  0  0  0  0  0  0  0
  147.9680  134.3757  152.1247 H   0  0  0  0  0  0  0  0  0  0  0  0
  1  2  1  0  0  0  0
  1 25  1  0  0  0  0
  1 26  1  0  0  0  0
  1 27  1  0  0  0  0
  2  3  1  0  0  0  0
  3  4  1  0  0  0  0
  3 28  1  0  0  0  0
  3 29  1  0  0  0  0
  4  5  1  0  0  0  0
  4 30  1  0  0  0  0
  4 31  1  0  0  0  0
  5 23  1  0  0  0  0
  5  6  1  0  0  0  0
  6  7  2  0  0  0  0
  7  8  1  0  0  0  0
  7 21  1  0  0  0  0
  8  9  2  0  0  0  0
  8 10  1  0  0  0  0
 10 11  1  0  0  0  0
 10 32  1  0  0  0  0
 11 12  1  0  0  0  0
 11 33  1  0  0  0  0
 11 34  1  0  0  0  0
 12 13  1  0  0  0  0
 12 35  1  0  0  0  0
 12 36  1  0  0  0  0
 13 20  1  0  0  0  0
 13 14  1  0  0  0  0
 13 51  1  0  0  0  0
 14 15  1  0  0  0  0
 14 37  1  0  0  0  0
 14 38  1  0  0  0  0
 15 16  1  0  0  0  0
 15 17  1  0  0  0  0
 15 39  1  0  0  0  0
 16 40  1  0  0  0  0
 16 41  1  0  0  0  0
 16 42  1  0  0  0  0
 17 18  1  0  0  0  0
 18 19  1  0  0  0  0
 18 20  1  0  0  0  0
 18 43  1  0  0  0  0
 19 44  1  0  0  0  0
 19 45  1  0  0  0  0
 19 46  1  0  0  0  0
 20 47  1  0  0  0  0
 20 48  1  0  0  0  0
 21 22  2  0  0  0  0
 21 49  1  0  0  0  0
 22 23  1  0  0  0  0
 22 50  1  0  0  0  0
 23 24  2  0  0  0  0
M  CHG  1  13   1
M  END
> <s_m_source_file>
AV-unprocessed.smi

> <i_m_source_file_index>
2001

> <i_lp_mmshare_version>
43012

> <i_f3d_flags>
0

> <s_epik_input>
W0NIM11PW0NIMl1bQ0gyXW4xbmMoW2NIXVtjSF1jMT1PKUMoPU8pW05IXVtDSDJdW0NIMl1OMltDSDJdW0NAQEhdKFtDSDNdKU9bQ0BASF0oW0NIM10pW0NIMl0y

> <s_epik_cmdline>
J2VwaWtfcHl0aG9uJywgJy1waCcsICc3LjAnLCAnLXRuJywgJzgnLCAnLW1hJywgJzIwMCcsICctbWV0YWxfYmluZGluZycsICctaW1hZScsICc8aW5maWxlLm1hZT4nLCAnLW9tYWUnLCAnPG91dGZpbGUubWFlPic=

> <r_lp_tautomer_probability>
1

> <r_epik_Ionization_Penalty>
0.724354

> <r_epik_Ionization_Penalty_Charging>
0.724348

> <r_epik_Ionization_Penalty_Neutral>
6.1656e-06

> <r_epik_State_Penalty>
0.749058

> <r_epik_Charging_Adjusted_Penalty>
1.47341

> <i_epik_Tot_Q>
1

> <i_epik_Tot_abs_Q>
1

> <r_epik_Metal_State_Penalty>
0.750779

> <b_epik_Metal_Only>
0

> <s_lp_Force_Field>
OPLS_2005

> <r_lp_Energy>
35.6345

> <b_lp_Chiralities_Consistent>
1

> <s_lp_Variant>
AV-unprocessed.smi:2001-4

> <Gold.Version>
5.8.1

> <Gold.Id.Protein>
6NUR|6NUR_protein|mol2

> <Gold.PLP.Fitness>
47.2934

> <Gold.PLP.PLP>
-39.8625

> <Gold.PLP.part.hbond>
-3.9019

> <Gold.PLP.part.metal>
0.0000

> <Gold.PLP.part.buried>
-0.9630

> <Gold.PLP.part.nonpolar>
-34.6004

> <Gold.PLP.part.repulsive>
0.4847

> <Gold.PLP.ligand.clash>
0.0000

> <Gold.PLP.ligand.torsion>
1.2882

> <Gold.PLP.Chemscore.Hbond>
3.2194

> <Gold.PLP.Chemscore.CHOScore>
0.0000

> <Gold.PLP.Chemscore.Metal>
0.0000

> <Gold.Chemscore.Hbonds>
donor molecule, donor type, donor heavy atom, donor atom, acceptor molecule, acceptor atom, score
      L1  H    10    32       P1  7948  0.80
      L1  H    13    51       P1  7948  1.57
      P1  H  7989  7998       L1    24  0.43

> <Gold.PLP.Chemscore.Internal.Correction>
0.3491

> <Gold.Rescore>
     Score         DG    S(hbond)    S(metal)    S(lipo)     H(rot)  DE(clash)    DE(int)     intcor
     11.24     -13.37       1.09        0.00      81.67       2.07       0.23       1.90       ----

> <Gold.Chemscore.Fitness>
11.2449

> <Gold.Chemscore.DG>
-13.3697

> <Gold.Chemscore.ZeroCoef>
-5.4800

> <Gold.Chemscore.Hbond>
1.0894

> <Gold.Chemscore.Metal>
0.0000

> <Gold.Chemscore.Lipo>
81.6740

> <Gold.Chemscore.Internal_Hbond>
0.0000

> <Gold.Chemscore.DEClash>
0.2272

> <Gold.Chemscore.DEInternal>
1.8976

> <Gold.Chemscore.Rot>
2.0721

> <Gold.Chemscore.Internal.Correction>
   9.000000E+99

> <Gold.Chemscore.Hbonds>
donor molecule, donor type, donor heavy atom, donor atom, acceptor molecule, acceptor atom, score
      L1  H    10    32       P1  7948  0.12
      L1  H    13    51       P1  7948  0.14
      P1  H  7989  7998       L1    24  0.05

> <Gold.Chemscore.Hbond.Weighted>
-3.6385

> <Gold.Chemscore.Metal.Weighted>
-0.0000

> <Gold.Chemscore.Lipo.Weighted>
-9.5559

> <Gold.Chemscore.Internal_Hbond.Weighted>
0.0000

> <Gold.Chemscore.DEClash.Weighted>
0.2272

> <Gold.Chemscore.DEInternal.Weighted>
1.8976

> <Gold.Chemscore.Rot.Weighted>
5.3047

> <Gold.Chemscore.Internal.Correction.Weighted>
   9.000000E+99

> <Gold.Protein.RotatedTorsions>
[ 6907 6896 6895 6894 ] final  125.32 input  -60.11 | X-H torsion
[ 7974 7965 7964 7962 ] final   78.43 input  175.53 | X-H torsion
[ 8008 7997 7996 7995 ] final  -79.30 input   59.86 | X-H torsion
[ 10167 10162 10161 10158 ] final   11.45 input  -65.29 | X-H torsion
[ 10718 10713 10712 10709 ] final  101.71 input   66.30 | X-H torsion
[ 10763 10752 10751 10750 ] final   88.29 input  -60.55 | X-H torsion
[ 11005 11000 10999 10996 ] final   50.06 input  -57.11 | X-H torsion

> <Gold.Protein.ActiveResidues>
 VAL166  LYS551  ARG553  GLY616  TRP617  ASP618  TYR619  PRO620  LYS621  CYS622 
 ASP623  PHE694  ASN695  SER759  ASP760  ASP761  ALA762  ILE779  LEU786  VAL792 
 PHE793  MET794  SER795  GLU796  ALA797  LYS798  CYS799  TRP800  GLU811  SER814 

> <Gold.Protein.RotatedAtoms>
  152.4002  133.6806  159.6309 H   0  0  0  0  0  0  0  0  0  0  0  0  # atno 6907 bound_to 6896
  150.7894  133.8805  159.3293 H   0  0  0  0  0  0  0  0  0  0  0  0  # atno 6908 bound_to 6896
  151.6572  135.0995  160.0224 H   0  0  0  0  0  0  0  0  0  0  0  0  # atno 6909 bound_to 6896
  145.6772  139.2513  143.1835 H   0  0  0  0  0  0  0  0  0  0  0  0  # atno 7974 bound_to 7965
  154.5772  140.0680  156.9051 H   0  0  0  0  0  0  0  0  0  0  0  0  # atno 8008 bound_to 7997
  155.2528  140.3353  155.4262 H   0  0  0  0  0  0  0  0  0  0  0  0  # atno 8009 bound_to 7997
  156.2162  140.1779  156.7568 H   0  0  0  0  0  0  0  0  0  0  0  0  # atno 8010 bound_to 7997
  140.6131  143.8366  150.7087 H   0  0  0  0  0  0  0  0  0  0  0  0  # atno 10167 bound_to 10162
  157.6822  131.0733  150.5294 H   0  0  0  0  0  0  0  0  0  0  0  0  # atno 10718 bound_to 10713
  153.1754  135.4512  154.9957 H   0  0  0  0  0  0  0  0  0  0  0  0  # atno 10763 bound_to 10752
  154.7994  135.3250  154.7589 H   0  0  0  0  0  0  0  0  0  0  0  0  # atno 10764 bound_to 10752
  153.8060  135.6958  153.4903 H   0  0  0  0  0  0  0  0  0  0  0  0  # atno 10765 bound_to 10752
  140.1050  134.5031  155.8728 H   0  0  0  0  0  0  0  0  0  0  0  0  # atno 11005 bound_to 11000
  146.0995  140.7560  142.9556 LP  0  0  0  0  0  0  0  0  0  0  0  0  # atno 17320 bound_to 7965
  144.7038  140.3765  143.7135 LP  0  0  0  0  0  0  0  0  0  0  0  0  # atno 17321 bound_to 7965
  140.1939  143.4014  152.1842 LP  0  0  0  0  0  0  0  0  0  0  0  0  # atno 17342 bound_to 10162
  139.5377  144.7226  151.4839 LP  0  0  0  0  0  0  0  0  0  0  0  0  # atno 17343 bound_to 10162
  156.5604  130.4254  149.6065 LP  0  0  0  0  0  0  0  0  0  0  0  0  # atno 17370 bound_to 10713
  156.2825  130.7079  151.1907 LP  0  0  0  0  0  0  0  0  0  0  0  0  # atno 17371 bound_to 10713
  141.2116  133.6708  156.6592 LP  0  0  0  0  0  0  0  0  0  0  0  0  # atno 17394 bound_to 11000
  140.3168  134.8040  157.4221 LP  0  0  0  0  0  0  0  0  0  0  0  0  # atno 17395 bound_to 11000

$$$$
