AV-unprocessed.smi:118|AV-procd|sdf|1131|dock2
  -GOLD-   2262018263D 1   1.00000     0.00000
 Structure written by MMmdl.
 41 44  0  0  0  0  0  0  0  0  1 V2000
  150.1357  135.1512  158.7744 O   0  0  0  0  0  0  0  0  0  0  0  0
  149.6078  136.2623  158.8366 C   0  0  0  0  0  0  0  0  0  0  0  0
  149.9346  137.3431  157.7935 C   0  0  0  0  0  0  0  0  0  0  0  0
  150.7946  138.4295  158.3131 N   0  0  0  0  0  0  0  0  0  0  0  0
  152.0936  138.1050  158.7772 C   0  0  0  0  0  0  0  0  0  0  0  0
  152.5021  136.9428  158.7734 O   0  0  0  0  0  0  0  0  0  0  0  0
  152.8970  139.2317  159.2376 C   0  0  0  0  0  0  0  0  0  0  0  0
  154.1482  139.0208  159.6805 F   0  0  0  0  0  0  0  0  0  0  0  0
  152.4054  140.4876  159.2212 C   0  0  0  0  0  0  0  0  0  0  0  0
  151.1294  140.7883  158.7870 N   0  0  0  0  0  0  0  0  0  0  0  0
  150.6819  142.2315  158.7543 C   0  0  2  0  0  0  0  0  0  0  0  0
  151.4290  143.0868  157.7134 C   0  0  0  0  0  0  0  0  0  0  0  0
  152.0483  144.1876  158.5589 C   0  0  0  0  0  0  0  0  0  0  0  0
  151.1880  144.1737  159.8176 C   0  0  0  0  0  0  0  0  0  0  0  0
  150.9094  142.7956  160.0089 O   0  0  0  0  0  0  0  0  0  0  0  0
  150.3008  139.7561  158.2891 C   0  0  0  0  0  0  0  0  0  0  0  0
  149.1811  140.0024  157.8377 O   0  0  0  0  0  0  0  0  0  0  0  0
  148.7478  136.6419  159.7982 N   0  0  0  0  0  0  0  0  0  0  0  0
  148.2498  135.8811  160.8921 C   0  0  0  0  0  0  0  0  0  0  0  0
  148.8267  134.6570  161.3183 C   0  0  0  0  0  0  0  0  0  0  0  0
  148.2757  133.9349  162.4004 C   0  0  0  0  0  0  0  0  0  0  0  0
  147.1327  134.4100  163.0749 C   0  0  0  0  0  0  0  0  0  0  0  0
  146.5466  135.6139  162.6450 C   0  0  0  0  0  0  0  0  0  0  0  0
  147.0942  136.3402  161.5620 C   0  0  0  0  0  0  0  0  0  0  0  0
  146.3900  137.5062  161.2654 N   0  0  0  0  0  0  0  0  0  0  0  0
  145.2890  137.4409  162.3241 S   0  0  0  0  0  0  0  0  0  0  0  0
  145.4165  136.1992  163.2065 N   0  0  0  0  0  0  0  0  0  0  0  0
  150.3979  136.8638  156.9296 H   0  0  0  0  0  0  0  0  0  0  0  0
  148.9958  137.7382  157.4023 H   0  0  0  0  0  0  0  0  0  0  0  0
  153.0443  141.2871  159.5668 H   0  0  0  0  0  0  0  0  0  0  0  0
  149.6085  142.2097  158.5607 H   0  0  0  0  0  0  0  0  0  0  0  0
  152.1674  142.5142  157.1512 H   0  0  0  0  0  0  0  0  0  0  0  0
  150.7005  143.4936  157.0116 H   0  0  0  0  0  0  0  0  0  0  0  0
  153.0785  143.9345  158.8102 H   0  0  0  0  0  0  0  0  0  0  0  0
  152.0524  145.1565  158.0591 H   0  0  0  0  0  0  0  0  0  0  0  0
  151.6955  144.6052  160.6806 H   0  0  0  0  0  0  0  0  0  0  0  0
  150.2548  144.7161  159.6580 H   0  0  0  0  0  0  0  0  0  0  0  0
  148.4720  137.6131  159.7863 H   0  0  0  0  0  0  0  0  0  0  0  0
  149.6886  134.2429  160.8184 H   0  0  0  0  0  0  0  0  0  0  0  0
  148.7324  133.0067  162.7105 H   0  0  0  0  0  0  0  0  0  0  0  0
  146.7127  133.8557  163.9014 H   0  0  0  0  0  0  0  0  0  0  0  0
  1  2  2  0  0  0  0
  2  3  1  0  0  0  0
  2 18  1  0  0  0  0
  3  4  1  0  0  0  0
  3 28  1  0  0  0  0
  3 29  1  0  0  0  0
  4 16  1  0  0  0  0
  4  5  1  0  0  0  0
  5  6  2  0  0  0  0
  5  7  1  0  0  0  0
  7  8  1  0  0  0  0
  7  9  2  0  0  0  0
  9 10  1  0  0  0  0
  9 30  1  0  0  0  0
 10 11  1  0  0  0  0
 10 16  1  0  0  0  0
 11 15  1  0  0  0  0
 11 12  1  0  0  0  0
 11 31  1  0  0  0  0
 12 13  1  0  0  0  0
 12 32  1  0  0  0  0
 12 33  1  0  0  0  0
 13 14  1  0  0  0  0
 13 34  1  0  0  0  0
 13 35  1  0  0  0  0
 14 15  1  0  0  0  0
 14 36  1  0  0  0  0
 14 37  1  0  0  0  0
 16 17  2  0  0  0  0
 18 19  1  0  0  0  0
 18 38  1  0  0  0  0
 19 24  1  0  0  0  0
 19 20  2  0  0  0  0
 20 21  1  0  0  0  0
 20 39  1  0  0  0  0
 21 22  2  0  0  0  0
 21 40  1  0  0  0  0
 22 23  1  0  0  0  0
 22 41  1  0  0  0  0
 23 27  1  0  0  0  0
 23 24  2  0  0  0  0
 24 25  1  0  0  0  0
 25 26  2  0  0  0  0
 26 27  2  0  0  0  0
M  END
> <s_m_source_file>
AV-unprocessed.smi

> <i_m_source_file_index>
118

> <i_lp_mmshare_version>
43012

> <i_f3d_flags>
0

> <s_epik_input>
TjE9Uz1OYyhjMTIpYyhbY0hdW2NIXVtjSF0yKVtOSF1DKD1PKVtDSDJdbjNjKD1PKWMoRilbY0hdbihjMz1PKVtDQEBIXTRbQ0gyXVtDSDJdW0NIMl1PNA==

> <s_epik_cmdline>
J2VwaWtfcHl0aG9uJywgJy1waCcsICc3LjAnLCAnLXRuJywgJzgnLCAnLW1hJywgJzIwMCcsICctbWV0YWxfYmluZGluZycsICctaW1hZScsICc8aW5maWxlLm1hZT4nLCAnLW9tYWUnLCAnPG91dGZpbGUubWFlPic=

> <r_lp_tautomer_probability>
1

> <r_epik_Ionization_Penalty>
1.81156e-06

> <r_epik_Ionization_Penalty_Charging>
3.88729e-08

> <r_epik_Ionization_Penalty_Neutral>
1.77269e-06

> <r_epik_State_Penalty>
-0

> <r_epik_Charging_Adjusted_Penalty>
3.88729e-08

> <i_epik_Tot_Q>
0

> <i_epik_Tot_abs_Q>
0

> <r_epik_Metal_State_Penalty>
-0

> <b_epik_Metal_Only>
0

> <s_epik_Chemistry_Notes>
This compound contains an acetal/aminal-like group ( X-CH(R)-Y where X, Y are N, S, or O) that may be acid/base labile, releasing an aldehyde.

> <s_lp_Force_Field>
OPLS_2005

> <r_lp_Energy>
47.7675

> <b_lp_Chiralities_Consistent>
1

> <s_lp_Variant>
AV-unprocessed.smi:118-1

> <Gold.Version>
5.8.1

> <Gold.Id.Protein>
6NUR|6NUR_protein|mol2

> <Gold.PLP.Fitness>
49.5343

> <Gold.PLP.PLP>
-43.0188

> <Gold.PLP.part.hbond>
-4.0000

> <Gold.PLP.part.metal>
0.0000

> <Gold.PLP.part.buried>
-8.1208

> <Gold.PLP.part.nonpolar>
-31.9778

> <Gold.PLP.part.repulsive>
0.2406

> <Gold.PLP.ligand.clash>
0.0000

> <Gold.PLP.ligand.torsion>
0.3785

> <Gold.PLP.Chemscore.Hbond>
2.4104

> <Gold.PLP.Chemscore.CHOScore>
0.0000

> <Gold.PLP.Chemscore.Metal>
0.0000

> <Gold.Chemscore.Hbonds>
donor molecule, donor type, donor heavy atom, donor atom, acceptor molecule, acceptor atom, score
      P1  H  6896  6908       L1     1  0.12
      P1  H  6896  6909       L1     6  0.21
      P1  H  6934  6947       L1    25  1.00

> <Gold.PLP.Chemscore.Internal.Correction>
0.0413

> <Gold.Rescore>
     Score         DG    S(hbond)    S(metal)    S(lipo)     H(rot)  DE(clash)    DE(int)     intcor
     12.14     -17.01       1.81        0.00      86.13       1.80       0.16       4.70       ----

> <Gold.Chemscore.Fitness>
12.1439

> <Gold.Chemscore.DG>
-17.0085

> <Gold.Chemscore.ZeroCoef>
-5.4800

> <Gold.Chemscore.Hbond>
1.8123

> <Gold.Chemscore.Metal>
0.0000

> <Gold.Chemscore.Lipo>
86.1327

> <Gold.Chemscore.Internal_Hbond>
0.0000

> <Gold.Chemscore.DEClash>
0.1621

> <Gold.Chemscore.DEInternal>
4.7025

> <Gold.Chemscore.Rot>
1.7977

> <Gold.Chemscore.Internal.Correction>
   9.000000E+99

> <Gold.Chemscore.Hbonds>
donor molecule, donor type, donor heavy atom, donor atom, acceptor molecule, acceptor atom, score
      P1  H  6896  6908       L1     1  0.14
      P1  H  6896  6909       L1     6  0.21
      P1  H  6934  6947       L1    25  0.96

> <Gold.Chemscore.Hbond.Weighted>
-6.0532

> <Gold.Chemscore.Metal.Weighted>
-0.0000

> <Gold.Chemscore.Lipo.Weighted>
-10.0775

> <Gold.Chemscore.Internal_Hbond.Weighted>
0.0000

> <Gold.Chemscore.DEClash.Weighted>
0.1621

> <Gold.Chemscore.DEInternal.Weighted>
4.7025

> <Gold.Chemscore.Rot.Weighted>
4.6022

> <Gold.Chemscore.Internal.Correction.Weighted>
   9.000000E+99

> <Gold.Protein.RotatedTorsions>
[ 6907 6896 6895 6894 ] final  148.21 input  -60.11 | X-H torsion
[ 7974 7965 7964 7962 ] final   88.11 input  175.53 | X-H torsion
[ 8008 7997 7996 7995 ] final  -30.37 input   59.86 | X-H torsion
[ 10167 10162 10161 10158 ] final  -35.47 input  -65.29 | X-H torsion
[ 10718 10713 10712 10709 ] final  -83.36 input   66.30 | X-H torsion
[ 10763 10752 10751 10750 ] final  -65.84 input  -60.55 | X-H torsion
[ 11005 11000 10999 10996 ] final  -13.05 input  -57.11 | X-H torsion

> <Gold.Protein.ActiveResidues>
 VAL166  LYS551  ARG553  GLY616  TRP617  ASP618  TYR619  PRO620  LYS621  CYS622 
 ASP623  PHE694  ASN695  SER759  ASP760  ASP761  ALA762  ILE779  LEU786  VAL792 
 PHE793  MET794  SER795  GLU796  ALA797  LYS798  CYS799  TRP800  GLU811  SER814 

> <Gold.Protein.RotatedAtoms>
  152.1445  133.4484  159.4782 H   0  0  0  0  0  0  0  0  0  0  0  0  # atno 6907 bound_to 6896
  150.6889  134.2264  159.4426 H   0  0  0  0  0  0  0  0  0  0  0  0  # atno 6908 bound_to 6896
  152.0157  134.9851  160.0620 H   0  0  0  0  0  0  0  0  0  0  0  0  # atno 6909 bound_to 6896
  145.5500  139.2295  143.2518 H   0  0  0  0  0  0  0  0  0  0  0  0  # atno 7974 bound_to 7965
  154.4253  140.1793  156.1396 H   0  0  0  0  0  0  0  0  0  0  0  0  # atno 8008 bound_to 7997
  156.0002  140.3360  155.6813 H   0  0  0  0  0  0  0  0  0  0  0  0  # atno 8009 bound_to 7997
  155.6253  140.0664  157.2656 H   0  0  0  0  0  0  0  0  0  0  0  0  # atno 8010 bound_to 7997
  140.7164  143.3475  151.2226 H   0  0  0  0  0  0  0  0  0  0  0  0  # atno 10167 bound_to 10162
  156.0019  130.4663  150.4246 H   0  0  0  0  0  0  0  0  0  0  0  0  # atno 10718 bound_to 10713
  154.3510  135.6136  153.5643 H   0  0  0  0  0  0  0  0  0  0  0  0  # atno 10763 bound_to 10752
  152.9798  135.5792  154.4743 H   0  0  0  0  0  0  0  0  0  0  0  0  # atno 10764 bound_to 10752
  154.4464  135.2851  155.1789 H   0  0  0  0  0  0  0  0  0  0  0  0  # atno 10765 bound_to 10752
  140.7721  133.8430  155.9216 H   0  0  0  0  0  0  0  0  0  0  0  0  # atno 11005 bound_to 11000
  146.1923  140.6323  142.9140 LP  0  0  0  0  0  0  0  0  0  0  0  0  # atno 17320 bound_to 7965
  144.7534  140.5247  143.6786 LP  0  0  0  0  0  0  0  0  0  0  0  0  # atno 17321 bound_to 7965
  139.6998  143.9552  152.2900 LP  0  0  0  0  0  0  0  0  0  0  0  0  # atno 17342 bound_to 10162
  139.9242  144.6781  150.8430 LP  0  0  0  0  0  0  0  0  0  0  0  0  # atno 17343 bound_to 10162
  157.2299  131.0502  151.2498 LP  0  0  0  0  0  0  0  0  0  0  0  0  # atno 17370 bound_to 10713
  157.3721  130.7186  149.6572 LP  0  0  0  0  0  0  0  0  0  0  0  0  # atno 17371 bound_to 10713
  140.9564  134.1713  157.4688 LP  0  0  0  0  0  0  0  0  0  0  0  0  # atno 17394 bound_to 11000
  139.8754  134.9928  156.5615 LP  0  0  0  0  0  0  0  0  0  0  0  0  # atno 17395 bound_to 11000

$$$$
