AV-unprocessed.smi:232|AV-procd|sdf|1782|dock4
  -GOLD-   2262020333D 1   1.00000     0.00000
 Structure written by MMmdl.
 52 55  0  0  0  0  0  0  0  0  1 V2000
  153.0644  142.3718  161.6418 C   0  0  0  0  0  0  0  0  0  0  0  0
  153.1768  141.8869  160.1911 C   0  0  0  0  0  0  0  0  0  0  0  0
  151.9735  142.3054  159.3181 C   0  0  1  0  0  0  0  0  0  0  0  0
  151.9109  143.8230  159.0560 C   0  0  0  0  0  0  0  0  0  0  0  0
  151.6979  143.9746  157.5453 C   0  0  0  0  0  0  0  0  0  0  0  0
  151.3007  142.5785  157.0635 C   0  0  2  0  0  0  0  0  0  0  0  0
  149.7695  142.3868  157.0714 C   0  0  0  0  0  0  0  0  0  0  0  0
  151.9949  141.6911  157.9906 N   0  0  0  0  0  0  0  0  0  0  0  0
  151.7996  140.3551  157.8288 C   0  0  0  0  0  0  0  0  0  0  0  0
  151.9868  139.5077  158.8760 N   0  0  0  0  0  0  0  0  0  0  0  0
  151.7703  138.1973  158.7339 C   0  0  0  0  0  0  0  0  0  0  0  0
  151.3619  137.5322  157.6522 N   0  0  0  0  0  0  0  0  0  0  0  0
  151.1728  138.3748  156.5970 C   0  0  0  0  0  0  0  0  0  0  0  0
  151.3713  139.7847  156.5968 C   0  0  0  0  0  0  0  0  0  0  0  0
  151.0927  140.2993  155.3360 N   0  0  0  0  0  0  0  0  0  0  0  0
  150.7358  139.2575  154.6365 C   0  0  0  0  0  0  0  0  0  0  0  0
  150.7311  138.0642  155.3225 N   0  0  0  0  0  0  0  0  0  0  0  0
  150.3673  136.7606  154.7950 C   0  0  0  0  0  0  0  0  0  0  0  0
  149.0169  136.2305  155.3302 C   0  0  1  0  0  0  0  0  0  0  0  0
  148.0478  136.6267  154.3812 O   0  0  0  0  0  0  0  0  0  0  0  0
  148.9120  134.6939  155.4768 C   0  0  1  0  0  0  0  0  0  0  0  0
  148.8955  133.8870  154.1753 C   0  0  0  0  0  0  0  0  0  0  0  0
  149.4378  132.5259  154.5772 C   0  0  0  0  0  0  0  0  0  0  0  0
  150.1193  132.7855  155.9209 C   0  0  0  0  0  0  0  0  0  0  0  0
  150.1026  134.1975  156.0730 O   0  0  0  0  0  0  0  0  0  0  0  0
  153.9123  142.0235  162.2319 H   0  0  0  0  0  0  0  0  0  0  0  0
  152.1557  141.9948  162.1115 H   0  0  0  0  0  0  0  0  0  0  0  0
  153.0466  143.4600  161.7008 H   0  0  0  0  0  0  0  0  0  0  0  0
  154.1013  142.2611  159.7497 H   0  0  0  0  0  0  0  0  0  0  0  0
  153.2724  140.8019  160.2075 H   0  0  0  0  0  0  0  0  0  0  0  0
  151.0503  142.0067  159.8171 H   0  0  0  0  0  0  0  0  0  0  0  0
  151.0849  144.2659  159.6134 H   0  0  0  0  0  0  0  0  0  0  0  0
  152.8228  144.3382  159.3599 H   0  0  0  0  0  0  0  0  0  0  0  0
  150.9652  144.7425  157.2945 H   0  0  0  0  0  0  0  0  0  0  0  0
  152.6415  144.2608  157.0785 H   0  0  0  0  0  0  0  0  0  0  0  0
  151.6720  142.4381  156.0488 H   0  0  0  0  0  0  0  0  0  0  0  0
  149.2862  143.1073  156.4113 H   0  0  0  0  0  0  0  0  0  0  0  0
  149.3487  142.5189  158.0686 H   0  0  0  0  0  0  0  0  0  0  0  0
  149.4895  141.3930  156.7207 H   0  0  0  0  0  0  0  0  0  0  0  0
  151.9438  137.5974  159.6148 H   0  0  0  0  0  0  0  0  0  0  0  0
  150.4523  139.3344  153.5968 H   0  0  0  0  0  0  0  0  0  0  0  0
  150.3251  136.8590  153.7093 H   0  0  0  0  0  0  0  0  0  0  0  0
  151.1657  136.0489  155.0086 H   0  0  0  0  0  0  0  0  0  0  0  0
  148.7789  136.7135  156.2787 H   0  0  0  0  0  0  0  0  0  0  0  0
  148.2998  136.2875  153.5360 H   0  0  0  0  0  0  0  0  0  0  0  0
  148.0514  134.4178  156.0897 H   0  0  0  0  0  0  0  0  0  0  0  0
  147.9021  133.8174  153.7333 H   0  0  0  0  0  0  0  0  0  0  0  0
  149.5654  134.3374  153.4417 H   0  0  0  0  0  0  0  0  0  0  0  0
  148.6359  131.7956  154.6893 H   0  0  0  0  0  0  0  0  0  0  0  0
  150.1373  132.1468  153.8313 H   0  0  0  0  0  0  0  0  0  0  0  0
  149.5548  132.3270  156.7341 H   0  0  0  0  0  0  0  0  0  0  0  0
  151.1394  132.4021  155.9542 H   0  0  0  0  0  0  0  0  0  0  0  0
  1  2  1  0  0  0  0
  1 26  1  0  0  0  0
  1 27  1  0  0  0  0
  1 28  1  0  0  0  0
  2  3  1  0  0  0  0
  2 29  1  0  0  0  0
  2 30  1  0  0  0  0
  3  8  1  0  0  0  0
  3  4  1  0  0  0  0
  3 31  1  0  0  0  0
  4  5  1  0  0  0  0
  4 32  1  0  0  0  0
  4 33  1  0  0  0  0
  5  6  1  0  0  0  0
  5 34  1  0  0  0  0
  5 35  1  0  0  0  0
  6  7  1  0  0  0  0
  6  8  1  0  0  0  0
  6 36  1  0  0  0  0
  7 37  1  0  0  0  0
  7 38  1  0  0  0  0
  7 39  1  0  0  0  0
  8  9  1  0  0  0  0
  9 14  1  0  0  0  0
  9 10  2  0  0  0  0
 10 11  1  0  0  0  0
 11 12  2  0  0  0  0
 11 40  1  0  0  0  0
 12 13  1  0  0  0  0
 13 17  1  0  0  0  0
 13 14  2  0  0  0  0
 14 15  1  0  0  0  0
 15 16  2  0  0  0  0
 16 17  1  0  0  0  0
 16 41  1  0  0  0  0
 17 18  1  0  0  0  0
 18 19  1  0  0  0  0
 18 42  1  0  0  0  0
 18 43  1  0  0  0  0
 19 20  1  0  0  0  0
 19 21  1  0  0  0  0
 19 44  1  0  0  0  0
 20 45  1  0  0  0  0
 21 25  1  0  0  0  0
 21 22  1  0  0  0  0
 21 46  1  0  0  0  0
 22 23  1  0  0  0  0
 22 47  1  0  0  0  0
 22 48  1  0  0  0  0
 23 24  1  0  0  0  0
 23 49  1  0  0  0  0
 23 50  1  0  0  0  0
 24 25  1  0  0  0  0
 24 51  1  0  0  0  0
 24 52  1  0  0  0  0
M  END
> <s_m_source_file>
AV-unprocessed.smi

> <i_m_source_file_index>
232

> <i_lp_mmshare_version>
43012

> <i_f3d_flags>
0

> <s_epik_input>
W0NIM11bQ0gyXVtDQEBIXTFbQ0gyXVtDSDJdW0NAQEhdKFtDSDNdKU4xYyhuW2NIXW4yKWMoYzIzKW5bY0hdbjNbQ0gyXVtDQEhdKFtPSF0pW0NAQEhdNFtDSDJdW0NIMl1bQ0gyXU80

> <s_epik_cmdline>
J2VwaWtfcHl0aG9uJywgJy1waCcsICc3LjAnLCAnLXRuJywgJzgnLCAnLW1hJywgJzIwMCcsICctbWV0YWxfYmluZGluZycsICctaW1hZScsICc8aW5maWxlLm1hZT4nLCAnLW9tYWUnLCAnPG91dGZpbGUubWFlPic=

> <r_lp_tautomer_probability>
1

> <r_epik_Ionization_Penalty>
0.00258048

> <r_epik_Ionization_Penalty_Charging>
0

> <r_epik_Ionization_Penalty_Neutral>
0.00258048

> <r_epik_State_Penalty>
0.00168551

> <r_epik_Charging_Adjusted_Penalty>
0.00168551

> <i_epik_Tot_Q>
0

> <i_epik_Tot_abs_Q>
0

> <r_epik_Metal_State_Penalty>
-0

> <b_epik_Metal_Only>
0

> <s_lp_Force_Field>
OPLS_2005

> <r_lp_Energy>
55.4366

> <b_lp_Chiralities_Consistent>
1

> <s_lp_Variant>
AV-unprocessed.smi:232-16

> <Gold.Version>
5.8.1

> <Gold.Id.Protein>
6NUR|6NUR_protein|mol2

> <Gold.PLP.Fitness>
47.2820

> <Gold.PLP.PLP>
-44.5969

> <Gold.PLP.part.hbond>
-2.0000

> <Gold.PLP.part.metal>
0.0000

> <Gold.PLP.part.buried>
-2.8332

> <Gold.PLP.part.nonpolar>
-38.7616

> <Gold.PLP.part.repulsive>
0.0474

> <Gold.PLP.ligand.clash>
0.0000

> <Gold.PLP.ligand.torsion>
1.4085

> <Gold.PLP.Chemscore.Hbond>
1.0000

> <Gold.PLP.Chemscore.CHOScore>
0.7316

> <Gold.PLP.Chemscore.Metal>
0.0000

> <Gold.Chemscore.Hbonds>
donor molecule, donor type, donor heavy atom, donor atom, acceptor molecule, acceptor atom, score
      L1  H    20    45       P1  7948  1.00
      L1  C    16    41       P1  7957  0.67

> <Gold.PLP.Chemscore.Internal.Correction>
0.3073

> <Gold.Rescore>
     Score         DG    S(hbond)    S(metal)    S(lipo)     H(rot)  DE(clash)    DE(int)     intcor
     11.51     -15.11       1.00        0.00     106.87       2.43       0.09       3.51       ----

> <Gold.Chemscore.Fitness>
11.5135

> <Gold.Chemscore.DG>
-15.1057

> <Gold.Chemscore.ZeroCoef>
-5.4800

> <Gold.Chemscore.Hbond>
0.9979

> <Gold.Chemscore.Metal>
0.0000

> <Gold.Chemscore.Lipo>
106.8658

> <Gold.Chemscore.Internal_Hbond>
0.0000

> <Gold.Chemscore.DEClash>
0.0860

> <Gold.Chemscore.DEInternal>
3.5061

> <Gold.Chemscore.Rot>
2.4260

> <Gold.Chemscore.Internal.Correction>
   9.000000E+99

> <Gold.Chemscore.Hbonds>
donor molecule, donor type, donor heavy atom, donor atom, acceptor molecule, acceptor atom, score
      L1  H    20    45       P1  7948  1.00

> <Gold.Chemscore.Hbond.Weighted>
-3.3330

> <Gold.Chemscore.Metal.Weighted>
-0.0000

> <Gold.Chemscore.Lipo.Weighted>
-12.5033

> <Gold.Chemscore.Internal_Hbond.Weighted>
0.0000

> <Gold.Chemscore.DEClash.Weighted>
0.0860

> <Gold.Chemscore.DEInternal.Weighted>
3.5061

> <Gold.Chemscore.Rot.Weighted>
6.2107

> <Gold.Chemscore.Internal.Correction.Weighted>
   9.000000E+99

> <Gold.Protein.RotatedTorsions>
[ 6907 6896 6895 6894 ] final    3.92 input  -60.11 | X-H torsion
[ 7974 7965 7964 7962 ] final -105.48 input  175.53 | X-H torsion
[ 8008 7997 7996 7995 ] final   54.76 input   59.86 | X-H torsion
[ 10167 10162 10161 10158 ] final  145.53 input  -65.29 | X-H torsion
[ 10718 10713 10712 10709 ] final -111.56 input   66.30 | X-H torsion
[ 10763 10752 10751 10750 ] final  -68.46 input  -60.55 | X-H torsion
[ 11005 11000 10999 10996 ] final   11.82 input  -57.11 | X-H torsion

> <Gold.Protein.ActiveResidues>
 VAL166  LYS551  ARG553  GLY616  TRP617  ASP618  TYR619  PRO620  LYS621  CYS622 
 ASP623  PHE694  ASN695  SER759  ASP760  ASP761  ALA762  ILE779  LEU786  VAL792 
 PHE793  MET794  SER795  GLU796  ALA797  LYS798  CYS799  TRP800  GLU811  SER814 

> <Gold.Protein.RotatedAtoms>
  151.6330  135.1021  160.0125 H   0  0  0  0  0  0  0  0  0  0  0  0  # atno 6907 bound_to 6896
  152.4096  133.6938  159.6395 H   0  0  0  0  0  0  0  0  0  0  0  0  # atno 6908 bound_to 6896
  150.7987  133.8565  159.3260 H   0  0  0  0  0  0  0  0  0  0  0  0  # atno 6909 bound_to 6896
  145.2299  140.9166  143.3211 H   0  0  0  0  0  0  0  0  0  0  0  0  # atno 7974 bound_to 7965
  155.4900  140.3471  155.4353 H   0  0  0  0  0  0  0  0  0  0  0  0  # atno 8008 bound_to 7997
  156.0983  140.1428  156.9530 H   0  0  0  0  0  0  0  0  0  0  0  0  # atno 8009 bound_to 7997
  154.4677  140.0911  156.7042 H   0  0  0  0  0  0  0  0  0  0  0  0  # atno 8010 bound_to 7997
  139.4924  144.5895  151.6710 H   0  0  0  0  0  0  0  0  0  0  0  0  # atno 10167 bound_to 10162
  156.0654  130.5874  150.8390 H   0  0  0  0  0  0  0  0  0  0  0  0  # atno 10718 bound_to 10713
  154.3894  135.6056  153.5834 H   0  0  0  0  0  0  0  0  0  0  0  0  # atno 10763 bound_to 10752
  152.9787  135.5880  154.4316 H   0  0  0  0  0  0  0  0  0  0  0  0  # atno 10764 bound_to 10752
  154.4097  135.2844  155.2022 H   0  0  0  0  0  0  0  0  0  0  0  0  # atno 10765 bound_to 10752
  140.4990  134.0765  155.7789 H   0  0  0  0  0  0  0  0  0  0  0  0  # atno 11005 bound_to 11000
  144.9686  139.3904  143.6320 LP  0  0  0  0  0  0  0  0  0  0  0  0  # atno 17320 bound_to 7965
  146.3355  139.8773  142.8830 LP  0  0  0  0  0  0  0  0  0  0  0  0  # atno 17321 bound_to 7965
  140.5518  144.0412  150.6130 LP  0  0  0  0  0  0  0  0  0  0  0  0  # atno 17342 bound_to 10162
  140.3469  143.2986  152.0529 LP  0  0  0  0  0  0  0  0  0  0  0  0  # atno 17343 bound_to 10162
  157.5692  131.0946  150.9443 LP  0  0  0  0  0  0  0  0  0  0  0  0  # atno 17370 bound_to 10713
  156.9663  130.5474  149.5288 LP  0  0  0  0  0  0  0  0  0  0  0  0  # atno 17371 bound_to 10713
  141.1445  133.9079  157.2247 LP  0  0  0  0  0  0  0  0  0  0  0  0  # atno 17394 bound_to 11000
  139.9725  135.0124  156.9547 LP  0  0  0  0  0  0  0  0  0  0  0  0  # atno 17395 bound_to 11000

$$$$
