AV-unprocessed.smi:2845|AV-procd|sdf|10943|dock4
  -GOLD-   2272015393D 1   1.00000     0.00000
 Structure written by MMmdl.
 42 44  0  0  0  0  0  0  0  0  1 V2000
  152.9815  142.8021  161.4294 C   0  0  0  0  0  0  0  0  0  0  0  0
  152.3839  142.4736  160.0726 C   0  0  0  0  0  0  0  0  0  0  0  0
  152.7933  141.2957  159.4084 C   0  0  0  0  0  0  0  0  0  0  0  0
  152.2616  140.9541  158.1457 C   0  0  0  0  0  0  0  0  0  0  0  0
  152.5169  139.8668  157.3277 N   0  0  0  0  0  0  0  0  0  0  0  0
  151.7176  140.1157  156.2945 C   0  0  0  0  0  0  0  0  0  0  0  0
  150.9750  141.2379  156.3452 N   0  0  0  0  0  0  0  0  0  0  0  0
  150.0413  141.7108  155.3387 C   0  0  0  0  0  0  0  0  0  0  0  0
  149.2803  140.5589  154.6566 C   0  0  2  0  0  0  0  0  0  0  0  0
  150.1388  139.8888  153.7524 O   0  0  0  0  0  0  0  0  0  0  0  0
  148.0262  141.0585  153.9144 C   0  0  0  0  0  0  0  0  0  0  0  0
  147.0976  141.7499  154.7912 N   0  0  0  0  0  0  0  0  0  0  0  0
  145.9616  142.3968  154.5141 C   0  0  0  0  0  0  0  0  0  0  0  0
  145.3584  142.9091  155.5789 N   0  0  0  0  0  0  0  0  0  0  0  0
  146.2417  142.5054  156.5373 C   0  0  0  0  0  0  0  0  0  0  0  0
  145.9757  142.8964  158.2952 S   0  0  1  0  0  0  0  0  0  0  0  0
  144.1376  142.6493  158.2617 C   0  0  0  0  0  0  0  0  0  0  0  0
  146.5705  141.7276  159.0834 O   0  0  0  0  0  0  0  0  0  0  0  0
  147.2973  141.8036  156.1294 N   0  0  0  0  0  0  0  0  0  0  0  0
  151.3013  141.8304  157.5605 C   0  0  0  0  0  0  0  0  0  0  0  0
  150.8870  143.0061  158.2109 C   0  0  0  0  0  0  0  0  0  0  0  0
  151.4277  143.3320  159.4723 C   0  0  0  0  0  0  0  0  0  0  0  0
  150.9734  144.6033  160.1669 C   0  0  0  0  0  0  0  0  0  0  0  0
  153.6971  142.0418  161.7441 H   0  0  0  0  0  0  0  0  0  0  0  0
  152.2000  142.8592  162.1874 H   0  0  0  0  0  0  0  0  0  0  0  0
  153.5031  143.7588  161.3958 H   0  0  0  0  0  0  0  0  0  0  0  0
  153.5224  140.6424  159.8648 H   0  0  0  0  0  0  0  0  0  0  0  0
  151.6695  139.4442  155.4493 H   0  0  0  0  0  0  0  0  0  0  0  0
  149.3384  142.3913  155.8214 H   0  0  0  0  0  0  0  0  0  0  0  0
  150.5876  142.3008  154.6014 H   0  0  0  0  0  0  0  0  0  0  0  0
  148.9764  139.8385  155.4175 H   0  0  0  0  0  0  0  0  0  0  0  0
  149.7380  139.8946  152.8964 H   0  0  0  0  0  0  0  0  0  0  0  0
  148.3113  141.7480  153.1188 H   0  0  0  0  0  0  0  0  0  0  0  0
  147.5108  140.2244  153.4349 H   0  0  0  0  0  0  0  0  0  0  0  0
  145.5697  142.4965  153.5125 H   0  0  0  0  0  0  0  0  0  0  0  0
  143.7290  142.8765  157.2768 H   0  0  0  0  0  0  0  0  0  0  0  0
  143.6597  143.3024  158.9917 H   0  0  0  0  0  0  0  0  0  0  0  0
  143.8923  141.6166  158.5095 H   0  0  0  0  0  0  0  0  0  0  0  0
  150.1603  143.6527  157.7412 H   0  0  0  0  0  0  0  0  0  0  0  0
  150.2468  145.1484  159.5635 H   0  0  0  0  0  0  0  0  0  0  0  0
  151.8214  145.2643  160.3471 H   0  0  0  0  0  0  0  0  0  0  0  0
  150.5059  144.3699  161.1236 H   0  0  0  0  0  0  0  0  0  0  0  0
  1  2  1  0  0  0  0
  1 24  1  0  0  0  0
  1 25  1  0  0  0  0
  1 26  1  0  0  0  0
  2 22  1  0  0  0  0
  2  3  2  0  0  0  0
  3  4  1  0  0  0  0
  3 27  1  0  0  0  0
  4 20  2  0  0  0  0
  4  5  1  0  0  0  0
  5  6  2  0  0  0  0
  6  7  1  0  0  0  0
  6 28  1  0  0  0  0
  7  8  1  0  0  0  0
  7 20  1  0  0  0  0
  8  9  1  0  0  0  0
  8 29  1  0  0  0  0
  8 30  1  0  0  0  0
  9 10  1  0  0  0  0
  9 11  1  0  0  0  0
  9 31  1  0  0  0  0
 10 32  1  0  0  0  0
 11 12  1  0  0  0  0
 11 33  1  0  0  0  0
 11 34  1  0  0  0  0
 12 19  1  0  0  0  0
 12 13  1  0  0  0  0
 13 14  2  0  0  0  0
 13 35  1  0  0  0  0
 14 15  1  0  0  0  0
 15 16  1  0  0  0  0
 15 19  2  0  0  0  0
 16 17  1  0  0  0  0
 16 18  2  0  0  0  0
 17 36  1  0  0  0  0
 17 37  1  0  0  0  0
 17 38  1  0  0  0  0
 20 21  1  0  0  0  0
 21 22  2  0  0  0  0
 21 39  1  0  0  0  0
 22 23  1  0  0  0  0
 23 40  1  0  0  0  0
 23 41  1  0  0  0  0
 23 42  1  0  0  0  0
M  END
> <s_m_source_file>
AV-unprocessed.smi

> <i_m_source_file_index>
2845

> <i_lp_mmshare_version>
43012

> <i_f3d_flags>
0

> <s_epik_input>
W0NIM11jKFtjSF0xKWMoW0NIM10pW2NIXWMoYzEyKW4oW2NIXW4yKVtDSDJdW0NASF0oW09IXSlbQ0gyXW4zW2NIXW5jKG4zKVtTQF0oPU8pW0NIM10=

> <s_epik_cmdline>
J2VwaWtfcHl0aG9uJywgJy1waCcsICc3LjAnLCAnLXRuJywgJzgnLCAnLW1hJywgJzIwMCcsICctbWV0YWxfYmluZGluZycsICctaW1hZScsICc8aW5maWxlLm1hZT4nLCAnLW9tYWUnLCAnPG91dGZpbGUubWFlPic=

> <r_lp_tautomer_probability>
1

> <r_epik_Ionization_Penalty>
0.0968684

> <r_epik_Ionization_Penalty_Charging>
0

> <r_epik_Ionization_Penalty_Neutral>
0.0968684

> <r_epik_State_Penalty>
0.0870047

> <r_epik_Charging_Adjusted_Penalty>
0.0870047

> <i_epik_Tot_Q>
0

> <i_epik_Tot_abs_Q>
0

> <r_epik_Metal_State_Penalty>
0.0746849

> <b_epik_Metal_Only>
0

> <s_lp_Force_Field>
OPLS_2005

> <r_lp_Energy>
9.4381

> <b_lp_Chiralities_Consistent>
1

> <s_lp_Variant>
AV-unprocessed.smi:2845-1

> <Gold.Version>
5.8.1

> <Gold.Id.Protein>
6NUR|6NUR_protein|mol2

> <Gold.PLP.Fitness>
57.5055

> <Gold.PLP.PLP>
-47.2673

> <Gold.PLP.part.hbond>
-4.0000

> <Gold.PLP.part.metal>
0.0000

> <Gold.PLP.part.buried>
-5.8859

> <Gold.PLP.part.nonpolar>
-37.0770

> <Gold.PLP.part.repulsive>
0.3457

> <Gold.PLP.ligand.clash>
0.0000

> <Gold.PLP.ligand.torsion>
0.9904

> <Gold.PLP.Chemscore.Hbond>
3.7280

> <Gold.PLP.Chemscore.CHOScore>
0.0000

> <Gold.PLP.Chemscore.Metal>
0.0000

> <Gold.Chemscore.Hbonds>
donor molecule, donor type, donor heavy atom, donor atom, acceptor molecule, acceptor atom, score
      L1  H    10    32       P1  7957  1.00
      P1  H  6934  6946       L1    18  0.77
      P1  H  7989  7998       L1    10  0.86
      P1  H  7997  8009       L1     5  1.00

> <Gold.PLP.Chemscore.Internal.Correction>
1.0350

> <Gold.Rescore>
     Score         DG    S(hbond)    S(metal)    S(lipo)     H(rot)  DE(clash)    DE(int)     intcor
     16.54     -20.02       2.95        0.00      99.36       2.71       0.11       3.38       ----

> <Gold.Chemscore.Fitness>
16.5365

> <Gold.Chemscore.DG>
-20.0247

> <Gold.Chemscore.ZeroCoef>
-5.4800

> <Gold.Chemscore.Hbond>
2.9519

> <Gold.Chemscore.Metal>
0.0000

> <Gold.Chemscore.Lipo>
99.3587

> <Gold.Chemscore.Internal_Hbond>
0.0000

> <Gold.Chemscore.DEClash>
0.1129

> <Gold.Chemscore.DEInternal>
3.3753

> <Gold.Chemscore.Rot>
2.7108

> <Gold.Chemscore.Internal.Correction>
   9.000000E+99

> <Gold.Chemscore.Hbonds>
donor molecule, donor type, donor heavy atom, donor atom, acceptor molecule, acceptor atom, score
      L1  H    10    32       P1  7957  0.99
      P1  H  6934  6946       L1    18  0.76
      P1  H  7989  7998       L1    10  0.19
      P1  H  7997  8009       L1     5  0.34

> <Gold.Chemscore.Hbond.Weighted>
-9.8594

> <Gold.Chemscore.Metal.Weighted>
-0.0000

> <Gold.Chemscore.Lipo.Weighted>
-11.6250

> <Gold.Chemscore.Internal_Hbond.Weighted>
0.0000

> <Gold.Chemscore.DEClash.Weighted>
0.1129

> <Gold.Chemscore.DEInternal.Weighted>
3.3753

> <Gold.Chemscore.Rot.Weighted>
6.9396

> <Gold.Chemscore.Internal.Correction.Weighted>
   9.000000E+99

> <Gold.Protein.RotatedTorsions>
[ 6907 6896 6895 6894 ] final   95.32 input  -60.11 | X-H torsion
[ 7974 7965 7964 7962 ] final  -47.84 input  175.53 | X-H torsion
[ 8008 7997 7996 7995 ] final  174.26 input   59.86 | X-H torsion
[ 10167 10162 10161 10158 ] final  153.22 input  -65.29 | X-H torsion
[ 10718 10713 10712 10709 ] final   83.78 input   66.30 | X-H torsion
[ 10763 10752 10751 10750 ] final  -29.31 input  -60.55 | X-H torsion
[ 11005 11000 10999 10996 ] final   66.65 input  -57.11 | X-H torsion

> <Gold.Protein.ActiveResidues>
 VAL166  LYS551  ARG553  GLY616  TRP617  ASP618  TYR619  PRO620  LYS621  CYS622 
 ASP623  PHE694  ASN695  SER759  ASP760  ASP761  ALA762  ILE779  LEU786  VAL792 
 PHE793  MET794  SER795  GLU796  ALA797  LYS798  CYS799  TRP800  GLU811  SER814 

> <Gold.Protein.RotatedAtoms>
  152.5444  134.1058  159.8336 H   0  0  0  0  0  0  0  0  0  0  0  0  # atno 6907 bound_to 6896
  151.1130  133.5152  159.2612 H   0  0  0  0  0  0  0  0  0  0  0  0  # atno 6908 bound_to 6896
  151.1863  135.0392  159.8868 H   0  0  0  0  0  0  0  0  0  0  0  0  # atno 6909 bound_to 6896
  145.9574  140.7513  142.9474 H   0  0  0  0  0  0  0  0  0  0  0  0  # atno 7974 bound_to 7965
  156.0992  140.1439  156.9490 H   0  0  0  0  0  0  0  0  0  0  0  0  # atno 8008 bound_to 7997
  154.4691  140.0916  156.7144 H   0  0  0  0  0  0  0  0  0  0  0  0  # atno 8009 bound_to 7997
  155.4789  140.3444  155.4339 H   0  0  0  0  0  0  0  0  0  0  0  0  # atno 8010 bound_to 7997
  139.4828  144.5292  151.7751 H   0  0  0  0  0  0  0  0  0  0  0  0  # atno 10167 bound_to 10162
  157.6886  131.0105  150.2575 H   0  0  0  0  0  0  0  0  0  0  0  0  # atno 10718 bound_to 10713
  153.7626  135.6918  153.4922 H   0  0  0  0  0  0  0  0  0  0  0  0  # atno 10763 bound_to 10752
  153.1928  135.4465  155.0169 H   0  0  0  0  0  0  0  0  0  0  0  0  # atno 10764 bound_to 10752
  154.8147  135.3393  154.7140 H   0  0  0  0  0  0  0  0  0  0  0  0  # atno 10765 bound_to 10752
  139.9819  134.6730  156.0247 H   0  0  0  0  0  0  0  0  0  0  0  0  # atno 11005 bound_to 11000
  144.6808  140.2534  143.7328 LP  0  0  0  0  0  0  0  0  0  0  0  0  # atno 17320 bound_to 7965
  145.8088  139.1994  143.2005 LP  0  0  0  0  0  0  0  0  0  0  0  0  # atno 17321 bound_to 7965
  140.4816  144.1442  150.5933 LP  0  0  0  0  0  0  0  0  0  0  0  0  # atno 17342 bound_to 10162
  140.4272  143.2585  151.9642 LP  0  0  0  0  0  0  0  0  0  0  0  0  # atno 17343 bound_to 10162
  156.3160  130.3779  149.7618 LP  0  0  0  0  0  0  0  0  0  0  0  0  # atno 17370 bound_to 10713
  156.5203  130.8212  151.3201 LP  0  0  0  0  0  0  0  0  0  0  0  0  # atno 17371 bound_to 10713
  141.1490  133.6551  156.3954 LP  0  0  0  0  0  0  0  0  0  0  0  0  # atno 17394 bound_to 11000
  140.5080  134.6423  157.5273 LP  0  0  0  0  0  0  0  0  0  0  0  0  # atno 17395 bound_to 11000

$$$$
