AV-unprocessed.smi:2693|AV-procd|sdf|10399|dock5
  -GOLD-   2272014433D 1   1.00000     0.00000
 Structure written by MMmdl.
 45 47  0  0  0  0  0  0  0  0  1 V2000
  150.9824  142.4519  156.4309 C   0  0  0  0  0  0  0  0  0  0  0  0
  150.5727  141.1760  157.0105 N   0  0  0  0  0  0  0  0  0  0  0  0
  150.8828  140.9406  158.4180 C   0  0  0  0  0  0  0  0  0  0  0  0
  149.9269  140.2045  156.2397 C   0  0  0  0  0  0  0  0  0  0  0  0
  149.0058  139.4464  156.8482 N   0  0  0  0  0  0  0  0  0  0  0  0
  148.3773  138.5054  156.1121 C   0  0  0  0  0  0  0  0  0  0  0  0
  148.6696  138.3177  154.7396 C   0  0  0  0  0  0  0  0  0  0  0  0
  148.0692  137.3467  153.8929 N   0  0  0  0  0  0  0  0  0  0  0  0
  146.8882  136.7216  154.0356 C   0  0  0  0  0  0  0  0  0  0  0  0
  146.0914  136.8998  154.9559 O   0  0  0  0  0  0  0  0  0  0  0  0
  146.6656  135.8725  153.0239 N   0  0  0  0  0  0  0  0  0  0  0  0
  145.4678  135.0498  152.8886 C   0  0  2  0  0  0  0  0  0  0  0  0
  145.1098  134.7671  151.4213 C   0  0  1  0  0  0  0  0  0  0  0  0
  145.1721  133.3600  150.8920 C   0  0  0  0  0  0  0  0  0  0  0  0
  143.7255  132.8776  151.0322 C   0  0  0  0  0  0  0  0  0  0  0  0
  143.1589  133.7251  152.0291 O   0  0  0  0  0  0  0  0  0  0  0  0
  143.6652  135.0398  151.8118 C   0  0  1  0  0  0  0  0  0  0  0  0
  144.1319  135.8176  153.0604 C   0  0  0  0  0  0  0  0  0  0  0  0
  143.3566  135.5433  154.3499 C   0  0  0  0  0  0  0  0  0  0  0  0
  144.1594  137.3417  152.8765 C   0  0  0  0  0  0  0  0  0  0  0  0
  149.6612  139.1647  154.2053 C   0  0  0  0  0  0  0  0  0  0  0  0
  150.2814  140.1022  154.9520 N   0  0  0  0  0  0  0  0  0  0  0  0
  150.1223  142.9732  156.0091 H   0  0  0  0  0  0  0  0  0  0  0  0
  151.7110  142.2903  155.6356 H   0  0  0  0  0  0  0  0  0  0  0  0
  151.4374  143.1095  157.1715 H   0  0  0  0  0  0  0  0  0  0  0  0
  151.5218  140.0635  158.5253 H   0  0  0  0  0  0  0  0  0  0  0  0
  149.9674  140.7707  158.9858 H   0  0  0  0  0  0  0  0  0  0  0  0
  151.4023  141.7859  158.8690 H   0  0  0  0  0  0  0  0  0  0  0  0
  147.6585  137.9076  156.6488 H   0  0  0  0  0  0  0  0  0  0  0  0
  148.5884  137.1250  153.0560 H   0  0  0  0  0  0  0  0  0  0  0  0
  147.3663  135.7874  152.3022 H   0  0  0  0  0  0  0  0  0  0  0  0
  145.4962  134.1319  153.4805 H   0  0  0  0  0  0  0  0  0  0  0  0
  145.4906  135.5295  150.7389 H   0  0  0  0  0  0  0  0  0  0  0  0
  145.5108  133.3156  149.8566 H   0  0  0  0  0  0  0  0  0  0  0  0
  145.8455  132.7475  151.4926 H   0  0  0  0  0  0  0  0  0  0  0  0
  143.1827  133.0184  150.0963 H   0  0  0  0  0  0  0  0  0  0  0  0
  143.6565  131.8263  151.3120 H   0  0  0  0  0  0  0  0  0  0  0  0
  143.1022  135.6089  151.0706 H   0  0  0  0  0  0  0  0  0  0  0  0
  142.3262  135.8927  154.2791 H   0  0  0  0  0  0  0  0  0  0  0  0
  143.8166  136.0380  155.2059 H   0  0  0  0  0  0  0  0  0  0  0  0
  143.3211  134.4778  154.5790 H   0  0  0  0  0  0  0  0  0  0  0  0
  143.1519  137.7481  152.7833 H   0  0  0  0  0  0  0  0  0  0  0  0
  144.7039  137.6314  151.9774 H   0  0  0  0  0  0  0  0  0  0  0  0
  144.6363  137.8417  153.7201 H   0  0  0  0  0  0  0  0  0  0  0  0
  149.9603  139.0936  153.1698 H   0  0  0  0  0  0  0  0  0  0  0  0
  1  2  1  0  0  0  0
  1 23  1  0  0  0  0
  1 24  1  0  0  0  0
  1 25  1  0  0  0  0
  2  3  1  0  0  0  0
  2  4  1  0  0  0  0
  3 26  1  0  0  0  0
  3 27  1  0  0  0  0
  3 28  1  0  0  0  0
  4 22  1  0  0  0  0
  4  5  2  0  0  0  0
  5  6  1  0  0  0  0
  6  7  2  0  0  0  0
  6 29  1  0  0  0  0
  7  8  1  0  0  0  0
  7 21  1  0  0  0  0
  8  9  1  0  0  0  0
  8 30  1  0  0  0  0
  9 10  2  0  0  0  0
  9 11  1  0  0  0  0
 11 12  1  0  0  0  0
 11 31  1  0  0  0  0
 12 18  1  0  0  0  0
 12 13  1  0  0  0  0
 12 32  1  0  0  0  0
 13 17  1  0  0  0  0
 13 14  1  0  0  0  0
 13 33  1  0  0  0  0
 14 15  1  0  0  0  0
 14 34  1  0  0  0  0
 14 35  1  0  0  0  0
 15 16  1  0  0  0  0
 15 36  1  0  0  0  0
 15 37  1  0  0  0  0
 16 17  1  0  0  0  0
 17 18  1  0  0  0  0
 17 38  1  0  0  0  0
 18 19  1  0  0  0  0
 18 20  1  0  0  0  0
 19 39  1  0  0  0  0
 19 40  1  0  0  0  0
 19 41  1  0  0  0  0
 20 42  1  0  0  0  0
 20 43  1  0  0  0  0
 20 44  1  0  0  0  0
 21 22  2  0  0  0  0
 21 45  1  0  0  0  0
M  END
> <s_m_source_file>
AV-unprocessed.smi

> <i_m_source_file_index>
2693

> <i_lp_mmshare_version>
43012

> <i_f3d_flags>
0

> <s_epik_input>
W0NIM11OKFtDSDNdKWMxbltjSF1jKFtjSF1uMSlbTkhdQyg9TylbTkhdW0NASF0yQyhbQ0gzXSkoW0NIM10pW0NAQEhdKFtDQEhdMjMpT1tDSDJdW0NIMl0z

> <s_epik_cmdline>
J2VwaWtfcHl0aG9uJywgJy1waCcsICc3LjAnLCAnLXRuJywgJzgnLCAnLW1hJywgJzIwMCcsICctbWV0YWxfYmluZGluZycsICctaW1hZScsICc8aW5maWxlLm1hZT4nLCAnLW9tYWUnLCAnPG91dGZpbGUubWFlPic=

> <r_lp_tautomer_probability>
1

> <r_epik_Ionization_Penalty>
0.00031779

> <r_epik_Ionization_Penalty_Charging>
0

> <r_epik_Ionization_Penalty_Neutral>
0.00031779

> <r_epik_State_Penalty>
-0

> <r_epik_Charging_Adjusted_Penalty>
0

> <i_epik_Tot_Q>
0

> <i_epik_Tot_abs_Q>
0

> <r_epik_Metal_State_Penalty>
-0

> <b_epik_Metal_Only>
0

> <s_lp_Force_Field>
OPLS_2005

> <r_lp_Energy>
29.3552

> <b_lp_Chiralities_Consistent>
1

> <s_lp_Variant>
AV-unprocessed.smi:2693-3

> <Gold.Version>
5.8.1

> <Gold.Id.Protein>
6NUR|6NUR_protein|mol2

> <Gold.PLP.Fitness>
35.3896

> <Gold.PLP.PLP>
-25.7794

> <Gold.PLP.part.hbond>
-2.6534

> <Gold.PLP.part.metal>
0.0000

> <Gold.PLP.part.buried>
-2.5025

> <Gold.PLP.part.nonpolar>
-20.5232

> <Gold.PLP.part.repulsive>
0.3181

> <Gold.PLP.ligand.clash>
0.0000

> <Gold.PLP.ligand.torsion>
0.8323

> <Gold.PLP.Chemscore.Hbond>
2.6995

> <Gold.PLP.Chemscore.CHOScore>
1.0000

> <Gold.PLP.Chemscore.Metal>
0.0000

> <Gold.Chemscore.Hbonds>
donor molecule, donor type, donor heavy atom, donor atom, acceptor molecule, acceptor atom, score
      L1  H     8    30       P1  7948  0.99
      L1  H    11    31       P1  7948  0.91
      P1  H  7989  7998       L1    22  0.73
      L1  C    21    45       P1  7957  1.00

> <Gold.PLP.Chemscore.Internal.Correction>
0.1763

> <Gold.Rescore>
     Score         DG    S(hbond)    S(metal)    S(lipo)     H(rot)  DE(clash)    DE(int)     intcor
     14.49     -17.04       2.17        0.00      58.78       1.00       0.04       2.51       ----

> <Gold.Chemscore.Fitness>
14.4924

> <Gold.Chemscore.DG>
-17.0431

> <Gold.Chemscore.ZeroCoef>
-5.4800

> <Gold.Chemscore.Hbond>
2.1693

> <Gold.Chemscore.Metal>
0.0000

> <Gold.Chemscore.Lipo>
58.7830

> <Gold.Chemscore.Internal_Hbond>
0.0000

> <Gold.Chemscore.DEClash>
0.0375

> <Gold.Chemscore.DEInternal>
2.5132

> <Gold.Chemscore.Rot>
1.0000

> <Gold.Chemscore.Internal.Correction>
   9.000000E+99

> <Gold.Chemscore.Hbonds>
donor molecule, donor type, donor heavy atom, donor atom, acceptor molecule, acceptor atom, score
      L1  H     8    30       P1  7948  0.91
      L1  H    11    31       P1  7948  0.90
      P1  H  7989  7998       L1    22  0.16

> <Gold.Chemscore.Hbond.Weighted>
-7.2454

> <Gold.Chemscore.Metal.Weighted>
-0.0000

> <Gold.Chemscore.Lipo.Weighted>
-6.8776

> <Gold.Chemscore.Internal_Hbond.Weighted>
0.0000

> <Gold.Chemscore.DEClash.Weighted>
0.0375

> <Gold.Chemscore.DEInternal.Weighted>
2.5132

> <Gold.Chemscore.Rot.Weighted>
2.5600

> <Gold.Chemscore.Internal.Correction.Weighted>
   9.000000E+99

> <Gold.Protein.RotatedTorsions>
[ 6907 6896 6895 6894 ] final   70.35 input  -60.11 | X-H torsion
[ 7974 7965 7964 7962 ] final  -57.09 input  175.53 | X-H torsion
[ 8008 7997 7996 7995 ] final -133.23 input   59.86 | X-H torsion
[ 10167 10162 10161 10158 ] final -140.13 input  -65.29 | X-H torsion
[ 10718 10713 10712 10709 ] final -130.90 input   66.30 | X-H torsion
[ 10763 10752 10751 10750 ] final  163.44 input  -60.55 | X-H torsion
[ 11005 11000 10999 10996 ] final  172.49 input  -57.11 | X-H torsion

> <Gold.Protein.ActiveResidues>
 VAL166  LYS551  ARG553  GLY616  TRP617  ASP618  TYR619  PRO620  LYS621  CYS622 
 ASP623  PHE694  ASN695  SER759  ASP760  ASP761  ALA762  ILE779  LEU786  VAL792 
 PHE793  MET794  SER795  GLU796  ALA797  LYS798  CYS799  TRP800  GLU811  SER814 

> <Gold.Protein.RotatedAtoms>
  152.4744  134.4882  159.9686 H   0  0  0  0  0  0  0  0  0  0  0  0  # atno 6907 bound_to 6896
  151.4901  133.3521  159.2860 H   0  0  0  0  0  0  0  0  0  0  0  0  # atno 6908 bound_to 6896
  150.8773  134.8185  159.7260 H   0  0  0  0  0  0  0  0  0  0  0  0  # atno 6909 bound_to 6896
  145.8550  140.8325  142.9966 H   0  0  0  0  0  0  0  0  0  0  0  0  # atno 7974 bound_to 7965
  155.3420  140.0472  157.3045 H   0  0  0  0  0  0  0  0  0  0  0  0  # atno 8008 bound_to 7997
  154.5272  140.2245  155.8834 H   0  0  0  0  0  0  0  0  0  0  0  0  # atno 8009 bound_to 7997
  156.1751  140.3087  155.9051 H   0  0  0  0  0  0  0  0  0  0  0  0  # atno 8010 bound_to 7997
  139.8312  143.7445  152.2666 H   0  0  0  0  0  0  0  0  0  0  0  0  # atno 10167 bound_to 10162
  156.2190  130.6966  151.0735 H   0  0  0  0  0  0  0  0  0  0  0  0  # atno 10718 bound_to 10713
  154.2937  135.2760  155.2643 H   0  0  0  0  0  0  0  0  0  0  0  0  # atno 10763 bound_to 10752
  154.5111  135.5782  153.6609 H   0  0  0  0  0  0  0  0  0  0  0  0  # atno 10764 bound_to 10752
  152.9910  135.6181  154.3103 H   0  0  0  0  0  0  0  0  0  0  0  0  # atno 10765 bound_to 10752
  140.3302  134.7363  157.4129 H   0  0  0  0  0  0  0  0  0  0  0  0  # atno 11005 bound_to 11000
  144.6728  140.1011  143.7460 LP  0  0  0  0  0  0  0  0  0  0  0  0  # atno 17320 bound_to 7965
  145.9313  139.2608  143.1323 LP  0  0  0  0  0  0  0  0  0  0  0  0  # atno 17321 bound_to 7965
  139.7653  144.7494  151.0304 LP  0  0  0  0  0  0  0  0  0  0  0  0  # atno 17342 bound_to 10162
  140.7806  143.4705  151.0153 LP  0  0  0  0  0  0  0  0  0  0  0  0  # atno 17343 bound_to 10162
  157.7078  131.0748  150.6607 LP  0  0  0  0  0  0  0  0  0  0  0  0  # atno 17370 bound_to 10713
  156.6669  130.4528  149.5669 LP  0  0  0  0  0  0  0  0  0  0  0  0  # atno 17371 bound_to 10713
  140.0867  134.5657  155.8485 LP  0  0  0  0  0  0  0  0  0  0  0  0  # atno 17394 bound_to 11000
  141.2065  133.6656  156.6247 LP  0  0  0  0  0  0  0  0  0  0  0  0  # atno 17395 bound_to 11000

$$$$
