AV-unprocessed.smi:227|AV-procd|sdf|1742|dock10
  -GOLD-   2262020253D 1   1.00000     0.00000
 Structure written by MMmdl.
 54 58  0  0  0  0  0  0  0  0  1 V2000
  147.5585  137.8089  159.4998 O   0  0  0  0  0  0  0  0  0  0  0  0
  148.1849  136.8775  158.6410 C   0  0  0  0  0  0  0  0  0  0  0  0
  147.6526  135.4381  158.8648 C   0  0  1  0  0  0  0  0  0  0  0  0
  148.2176  134.4328  157.8263 C   0  0  0  0  0  0  0  0  0  0  0  0
  147.3135  134.1598  156.7234 N   0  0  0  0  0  0  0  0  0  0  0  0
  145.9647  134.4216  156.6868 C   0  0  0  0  0  0  0  0  0  0  0  0
  145.3667  134.0885  155.5765 N   0  0  0  0  0  0  0  0  0  0  0  0
  146.3778  133.5619  154.7790 C   0  0  0  0  0  0  0  0  0  0  0  0
  146.4406  133.0272  153.4569 C   0  0  0  0  0  0  0  0  0  0  0  0
  145.3825  132.9119  152.6061 N   0  0  0  0  0  0  0  0  0  0  0  0
  144.3767  133.9573  152.4821 C   0  0  1  0  0  0  0  0  0  0  0  0
  145.0981  135.0775  151.7068 C   0  0  0  0  0  0  0  0  0  0  0  0
  146.0077  134.2575  150.7794 C   0  0  0  0  0  0  0  0  0  0  0  0
  145.6217  132.8123  151.1719 C   0  0  2  0  0  0  0  0  0  0  0  0
  144.2158  132.4332  150.6543 C   0  0  2  0  0  0  0  0  0  0  0  0
  143.9510  132.5865  149.1447 C   0  0  0  0  0  0  0  0  0  0  0  0
  142.6826  132.0636  148.8130 O   0  0  0  0  0  0  0  0  0  0  0  0
  143.3299  133.3097  151.5566 C   0  0  0  0  0  0  0  0  0  0  0  0
  147.6511  132.5822  153.0264 N   0  0  0  0  0  0  0  0  0  0  0  0
  148.7279  132.6671  153.8112 C   0  0  0  0  0  0  0  0  0  0  0  0
  148.8193  133.1504  155.0500 N   0  0  0  0  0  0  0  0  0  0  0  0
  147.6086  133.5888  155.4980 C   0  0  0  0  0  0  0  0  0  0  0  0
  147.9513  134.9546  160.3079 C   0  0  1  0  0  0  0  0  0  0  0  0
  147.0148  135.5151  161.3794 C   0  0  0  0  0  0  0  0  0  0  0  0
  146.7931  134.3577  162.3579 C   0  0  0  0  0  0  0  0  0  0  0  0
  147.6785  133.3336  161.9341 O   0  0  0  0  0  0  0  0  0  0  0  0
  147.8068  133.4462  160.5283 C   0  0  0  0  0  0  0  0  0  0  0  0
  148.1245  137.9624  160.2411 H   0  0  0  0  0  0  0  0  0  0  0  0
  148.0475  137.1845  157.6037 H   0  0  0  0  0  0  0  0  0  0  0  0
  149.2531  136.9441  158.8432 H   0  0  0  0  0  0  0  0  0  0  0  0
  146.5669  135.4599  158.7543 H   0  0  0  0  0  0  0  0  0  0  0  0
  149.1596  134.8031  157.4197 H   0  0  0  0  0  0  0  0  0  0  0  0
  148.4436  133.4770  158.2988 H   0  0  0  0  0  0  0  0  0  0  0  0
  145.4367  134.8740  157.5135 H   0  0  0  0  0  0  0  0  0  0  0  0
  143.9258  134.2927  153.4142 H   0  0  0  0  0  0  0  0  0  0  0  0
  144.4092  135.7244  151.1625 H   0  0  0  0  0  0  0  0  0  0  0  0
  145.6918  135.7021  152.3756 H   0  0  0  0  0  0  0  0  0  0  0  0
  145.8663  134.4838  149.7238 H   0  0  0  0  0  0  0  0  0  0  0  0
  147.0555  134.4514  151.0127 H   0  0  0  0  0  0  0  0  0  0  0  0
  146.3739  132.0768  150.8848 H   0  0  0  0  0  0  0  0  0  0  0  0
  144.0358  131.3895  150.9192 H   0  0  0  0  0  0  0  0  0  0  0  0
  143.9685  133.6420  148.8727 H   0  0  0  0  0  0  0  0  0  0  0  0
  144.7170  132.0996  148.5423 H   0  0  0  0  0  0  0  0  0  0  0  0
  142.0210  132.6695  149.1098 H   0  0  0  0  0  0  0  0  0  0  0  0
  142.6334  132.6908  152.1237 H   0  0  0  0  0  0  0  0  0  0  0  0
  142.7483  134.0503  151.0060 H   0  0  0  0  0  0  0  0  0  0  0  0
  149.6479  132.2952  153.3849 H   0  0  0  0  0  0  0  0  0  0  0  0
  148.9731  135.2317  160.5729 H   0  0  0  0  0  0  0  0  0  0  0  0
  147.4614  136.3779  161.8748 H   0  0  0  0  0  0  0  0  0  0  0  0
  146.0593  135.8325  160.9596 H   0  0  0  0  0  0  0  0  0  0  0  0
  146.9907  134.6404  163.3921 H   0  0  0  0  0  0  0  0  0  0  0  0
  145.7665  133.9943  162.2948 H   0  0  0  0  0  0  0  0  0  0  0  0
  146.9089  133.0560  160.0460 H   0  0  0  0  0  0  0  0  0  0  0  0
  148.6666  132.8803  160.1691 H   0  0  0  0  0  0  0  0  0  0  0  0
  1  2  1  0  0  0  0
  1 28  1  0  0  0  0
  2  3  1  0  0  0  0
  2 29  1  0  0  0  0
  2 30  1  0  0  0  0
  3  4  1  0  0  0  0
  3 23  1  0  0  0  0
  3 31  1  0  0  0  0
  4  5  1  0  0  0  0
  4 32  1  0  0  0  0
  4 33  1  0  0  0  0
  5 22  1  0  0  0  0
  5  6  1  0  0  0  0
  6  7  2  0  0  0  0
  6 34  1  0  0  0  0
  7  8  1  0  0  0  0
  8 22  2  0  0  0  0
  8  9  1  0  0  0  0
  9 10  1  0  0  0  0
  9 19  2  0  0  0  0
 10 14  1  0  0  0  0
 10 11  1  0  0  0  0
 11 18  1  0  0  0  0
 11 12  1  0  0  0  0
 11 35  1  0  0  0  0
 12 13  1  0  0  0  0
 12 36  1  0  0  0  0
 12 37  1  0  0  0  0
 13 14  1  0  0  0  0
 13 38  1  0  0  0  0
 13 39  1  0  0  0  0
 14 15  1  0  0  0  0
 14 40  1  0  0  0  0
 15 16  1  0  0  0  0
 15 18  1  0  0  0  0
 15 41  1  0  0  0  0
 16 17  1  0  0  0  0
 16 42  1  0  0  0  0
 16 43  1  0  0  0  0
 17 44  1  0  0  0  0
 18 45  1  0  0  0  0
 18 46  1  0  0  0  0
 19 20  1  0  0  0  0
 20 21  2  0  0  0  0
 20 47  1  0  0  0  0
 21 22  1  0  0  0  0
 23 27  1  0  0  0  0
 23 24  1  0  0  0  0
 23 48  1  0  0  0  0
 24 25  1  0  0  0  0
 24 49  1  0  0  0  0
 24 50  1  0  0  0  0
 25 26  1  0  0  0  0
 25 51  1  0  0  0  0
 25 52  1  0  0  0  0
 26 27  1  0  0  0  0
 27 53  1  0  0  0  0
 27 54  1  0  0  0  0
M  END
> <s_m_source_file>
AV-unprocessed.smi

> <i_m_source_file_index>
227

> <i_lp_mmshare_version>
43012

> <i_f3d_flags>
0

> <s_epik_input>
W0NIMl0xT1tDSDJdW0NIMl1bQ0BIXTFbQ0BIXShbQ0gyXVtPSF0pW0NIMl1uKFtjSF1uMiljKGMyMyluW2NIXW5jM04oW0NASF00NSlbQ0BASF0oW0NIMl1bQ0gyXTQpW0NASF0oW0NIMl01KVtDSDJdW09IXQ==

> <s_epik_cmdline>
J2VwaWtfcHl0aG9uJywgJy1waCcsICc3LjAnLCAnLXRuJywgJzgnLCAnLW1hJywgJzIwMCcsICctbWV0YWxfYmluZGluZycsICctaW1hZScsICc8aW5maWxlLm1hZT4nLCAnLW9tYWUnLCAnPG91dGZpbGUubWFlPic=

> <r_lp_tautomer_probability>
1

> <r_epik_Ionization_Penalty>
0.0055791

> <r_epik_Ionization_Penalty_Charging>
0

> <r_epik_Ionization_Penalty_Neutral>
0.0055791

> <r_epik_State_Penalty>
0.00401299

> <r_epik_Charging_Adjusted_Penalty>
0.00401299

> <i_epik_Tot_Q>
0

> <i_epik_Tot_abs_Q>
0

> <r_epik_Metal_State_Penalty>
-0

> <b_epik_Metal_Only>
0

> <s_lp_Force_Field>
OPLS_2005

> <r_lp_Energy>
88.534

> <b_lp_Chiralities_Consistent>
1

> <s_lp_Variant>
AV-unprocessed.smi:227-16

> <Gold.Version>
5.8.1

> <Gold.Id.Protein>
6NUR|6NUR_protein|mol2

> <Gold.PLP.Fitness>
42.9475

> <Gold.PLP.PLP>
-40.5541

> <Gold.PLP.part.hbond>
-4.0000

> <Gold.PLP.part.metal>
0.0000

> <Gold.PLP.part.buried>
-8.1641

> <Gold.PLP.part.nonpolar>
-29.1072

> <Gold.PLP.part.repulsive>
0.3458

> <Gold.PLP.ligand.clash>
0.0000

> <Gold.PLP.ligand.torsion>
1.7836

> <Gold.PLP.Chemscore.Hbond>
1.9500

> <Gold.PLP.Chemscore.CHOScore>
0.0000

> <Gold.PLP.Chemscore.Metal>
0.0000

> <Gold.Chemscore.Hbonds>
donor molecule, donor type, donor heavy atom, donor atom, acceptor molecule, acceptor atom, score
      L1  H    17    44       P1 10186  0.94
      P1  H 10785 10796       L1    17  0.90

> <Gold.PLP.Chemscore.Internal.Correction>
0.1106

> <Gold.Rescore>
     Score         DG    S(hbond)    S(metal)    S(lipo)     H(rot)  DE(clash)    DE(int)     intcor
      8.06     -10.03       1.15        0.00      84.82       3.61       0.01       1.96       ----

> <Gold.Chemscore.Fitness>
8.0570

> <Gold.Chemscore.DG>
-10.0270

> <Gold.Chemscore.ZeroCoef>
-5.4800

> <Gold.Chemscore.Hbond>
1.1547

> <Gold.Chemscore.Metal>
0.0000

> <Gold.Chemscore.Lipo>
84.8247

> <Gold.Chemscore.Internal_Hbond>
0.0000

> <Gold.Chemscore.DEClash>
0.0099

> <Gold.Chemscore.DEInternal>
1.9601

> <Gold.Chemscore.Rot>
3.6071

> <Gold.Chemscore.Internal.Correction>
   9.000000E+99

> <Gold.Chemscore.Hbonds>
donor molecule, donor type, donor heavy atom, donor atom, acceptor molecule, acceptor atom, score
      L1  H    17    44       P1 10186  0.90
      P1  H 10785 10796       L1    17  0.17

> <Gold.Chemscore.Hbond.Weighted>
-3.8567

> <Gold.Chemscore.Metal.Weighted>
-0.0000

> <Gold.Chemscore.Lipo.Weighted>
-9.9245

> <Gold.Chemscore.Internal_Hbond.Weighted>
0.0000

> <Gold.Chemscore.DEClash.Weighted>
0.0099

> <Gold.Chemscore.DEInternal.Weighted>
1.9601

> <Gold.Chemscore.Rot.Weighted>
9.2342

> <Gold.Chemscore.Internal.Correction.Weighted>
   9.000000E+99

> <Gold.Protein.RotatedTorsions>
[ 6907 6896 6895 6894 ] final -109.79 input  -60.11 | X-H torsion
[ 7974 7965 7964 7962 ] final  -67.95 input  175.53 | X-H torsion
[ 8008 7997 7996 7995 ] final  -76.90 input   59.86 | X-H torsion
[ 10167 10162 10161 10158 ] final -129.88 input  -65.29 | X-H torsion
[ 10718 10713 10712 10709 ] final  125.83 input   66.30 | X-H torsion
[ 10763 10752 10751 10750 ] final -172.60 input  -60.55 | X-H torsion
[ 11005 11000 10999 10996 ] final  131.38 input  -57.11 | X-H torsion

> <Gold.Protein.ActiveResidues>
 VAL166  LYS551  ARG553  GLY616  TRP617  ASP618  TYR619  PRO620  LYS621  CYS622 
 ASP623  PHE694  ASN695  SER759  ASP760  ASP761  ALA762  ILE779  LEU786  VAL792 
 PHE793  MET794  SER795  GLU796  ALA797  LYS798  CYS799  TRP800  GLU811  SER814 

> <Gold.Protein.RotatedAtoms>
  150.7584  133.9477  159.3475 H   0  0  0  0  0  0  0  0  0  0  0  0  # atno 6907 bound_to 6896
  151.7391  135.0856  160.0322 H   0  0  0  0  0  0  0  0  0  0  0  0  # atno 6908 bound_to 6896
  152.3540  133.6177  159.6001 H   0  0  0  0  0  0  0  0  0  0  0  0  # atno 6909 bound_to 6896
  145.7227  140.9031  143.0622 H   0  0  0  0  0  0  0  0  0  0  0  0  # atno 7974 bound_to 7965
  154.5547  140.0719  156.8724 H   0  0  0  0  0  0  0  0  0  0  0  0  # atno 8008 bound_to 7997
  155.2926  140.3379  155.4233 H   0  0  0  0  0  0  0  0  0  0  0  0  # atno 8009 bound_to 7997
  156.1991  140.1715  156.7922 H   0  0  0  0  0  0  0  0  0  0  0  0  # atno 8010 bound_to 7997
  139.9351  143.6227  152.2519 H   0  0  0  0  0  0  0  0  0  0  0  0  # atno 10167 bound_to 10162
  157.5470  131.1095  150.8764 H   0  0  0  0  0  0  0  0  0  0  0  0  # atno 10718 bound_to 10713
  154.6174  135.2871  155.0364 H   0  0  0  0  0  0  0  0  0  0  0  0  # atno 10763 bound_to 10752
  154.1572  135.6494  153.4981 H   0  0  0  0  0  0  0  0  0  0  0  0  # atno 10764 bound_to 10752
  153.0221  135.5369  154.6951 H   0  0  0  0  0  0  0  0  0  0  0  0  # atno 10765 bound_to 10752
  139.9727  134.9573  156.9430 H   0  0  0  0  0  0  0  0  0  0  0  0  # atno 11005 bound_to 11000
  144.6913  139.9223  143.7468 LP  0  0  0  0  0  0  0  0  0  0  0  0  # atno 17320 bound_to 7965
  146.0611  139.3604  143.0581 LP  0  0  0  0  0  0  0  0  0  0  0  0  # atno 17321 bound_to 7965
  139.6750  144.7659  151.1713 LP  0  0  0  0  0  0  0  0  0  0  0  0  # atno 17342 bound_to 10162
  140.7626  143.5808  150.8896 LP  0  0  0  0  0  0  0  0  0  0  0  0  # atno 17343 bound_to 10162
  156.9300  130.5346  149.5279 LP  0  0  0  0  0  0  0  0  0  0  0  0  # atno 17370 bound_to 10713
  156.0544  130.5608  150.9060 LP  0  0  0  0  0  0  0  0  0  0  0  0  # atno 17371 bound_to 10713
  140.5260  134.0861  155.7303 LP  0  0  0  0  0  0  0  0  0  0  0  0  # atno 17394 bound_to 11000
  141.1406  133.9145  157.2335 LP  0  0  0  0  0  0  0  0  0  0  0  0  # atno 17395 bound_to 11000

$$$$
