AV-unprocessed.smi:1109|AV-procd|sdf|4789|dock8
  -GOLD-   22720 3333D 1   1.00000     0.00000
 Structure written by MMmdl.
 45 46  0  0  0  0  0  0  0  0  1 V2000
  152.4625  143.0849  162.5374 C   0  0  0  0  0  0  0  0  0  0  0  0
  153.0466  142.4578  161.4099 O   0  0  0  0  0  0  0  0  0  0  0  0
  152.9200  143.2334  160.2284 C   0  0  0  0  0  0  0  0  0  0  0  0
  153.5068  142.4556  159.0401 C   0  0  0  0  0  0  0  0  0  0  0  0
  152.8857  141.1346  158.8978 N   0  0  0  0  0  0  0  0  0  0  0  0
  153.3759  140.1917  159.7808 N   0  0  0  0  0  0  0  0  0  0  0  0
  152.9301  138.9799  159.7665 C   0  0  0  0  0  0  0  0  0  0  0  0
  153.3991  137.9325  160.7304 C   0  0  0  0  0  0  0  0  0  0  0  0
  153.0022  136.7779  160.5615 O   0  0  0  0  0  0  0  0  0  0  0  0
  154.1829  138.2717  161.8033 N   0  0  0  0  0  0  0  0  0  0  0  0
  155.0562  139.4672  161.8573 C   0  0  0  0  0  0  0  0  0  0  0  0
  156.1354  139.5465  160.7610 C   0  0  0  0  0  0  0  0  0  0  0  0
  157.4196  139.6367  161.1226 N   0  0  0  0  0  0  0  0  0  0  0  0
  155.7992  139.5351  159.5796 O   0  0  0  0  0  0  0  0  0  0  0  0
  154.3968  137.3421  162.9417 C   0  0  0  0  0  0  0  0  0  0  0  0
  154.7448  135.8983  162.5133 C   0  0  0  0  0  0  0  0  0  0  0  0
  153.6632  134.9989  163.1195 C   0  0  0  0  0  0  0  0  0  0  0  0
  153.1566  135.7646  164.3394 C   0  0  0  0  0  0  0  0  0  0  0  0
  153.2050  137.2346  163.9210 C   0  0  0  0  0  0  0  0  0  0  0  0
  151.8878  138.5921  158.8296 C   0  0  0  0  0  0  0  0  0  0  0  0
  151.3997  139.5274  157.9850 C   0  0  0  0  0  0  0  0  0  0  0  0
  151.8919  140.9060  157.9884 C   0  0  0  0  0  0  0  0  0  0  0  0
  151.4512  141.7811  157.2440 O   0  0  0  0  0  0  0  0  0  0  0  0
  152.5852  142.4496  163.4145 H   0  0  0  0  0  0  0  0  0  0  0  0
  151.3949  143.2496  162.3873 H   0  0  0  0  0  0  0  0  0  0  0  0
  152.9393  144.0433  162.7464 H   0  0  0  0  0  0  0  0  0  0  0  0
  151.8743  143.4843  160.0438 H   0  0  0  0  0  0  0  0  0  0  0  0
  153.4620  144.1720  160.3518 H   0  0  0  0  0  0  0  0  0  0  0  0
  153.3791  143.0339  158.1235 H   0  0  0  0  0  0  0  0  0  0  0  0
  154.5864  142.3527  159.1654 H   0  0  0  0  0  0  0  0  0  0  0  0
  154.4367  140.3612  161.7713 H   0  0  0  0  0  0  0  0  0  0  0  0
  155.5299  139.5792  162.8332 H   0  0  0  0  0  0  0  0  0  0  0  0
  158.1401  139.6840  160.4170 H   0  0  0  0  0  0  0  0  0  0  0  0
  157.6647  139.6516  162.1019 H   0  0  0  0  0  0  0  0  0  0  0  0
  155.2389  137.6975  163.5386 H   0  0  0  0  0  0  0  0  0  0  0  0
  154.8162  135.7694  161.4328 H   0  0  0  0  0  0  0  0  0  0  0  0
  155.7170  135.6248  162.9252 H   0  0  0  0  0  0  0  0  0  0  0  0
  152.8486  134.8673  162.4066 H   0  0  0  0  0  0  0  0  0  0  0  0
  154.0393  134.0079  163.3747 H   0  0  0  0  0  0  0  0  0  0  0  0
  152.1597  135.4494  164.6486 H   0  0  0  0  0  0  0  0  0  0  0  0
  153.8329  135.6010  165.1792 H   0  0  0  0  0  0  0  0  0  0  0  0
  153.3232  137.8961  164.7797 H   0  0  0  0  0  0  0  0  0  0  0  0
  152.2579  137.5001  163.4525 H   0  0  0  0  0  0  0  0  0  0  0  0
  151.5108  137.5797  158.8016 H   0  0  0  0  0  0  0  0  0  0  0  0
  150.6258  139.2510  157.2842 H   0  0  0  0  0  0  0  0  0  0  0  0
  1  2  1  0  0  0  0
  1 24  1  0  0  0  0
  1 25  1  0  0  0  0
  1 26  1  0  0  0  0
  2  3  1  0  0  0  0
  3  4  1  0  0  0  0
  3 27  1  0  0  0  0
  3 28  1  0  0  0  0
  4  5  1  0  0  0  0
  4 29  1  0  0  0  0
  4 30  1  0  0  0  0
  5 22  1  0  0  0  0
  5  6  1  0  0  0  0
  6  7  2  0  0  0  0
  7  8  1  0  0  0  0
  7 20  1  0  0  0  0
  8  9  2  0  0  0  0
  8 10  1  0  0  0  0
 10 11  1  0  0  0  0
 10 15  1  0  0  0  0
 11 12  1  0  0  0  0
 11 31  1  0  0  0  0
 11 32  1  0  0  0  0
 12 13  1  0  0  0  0
 12 14  2  0  0  0  0
 13 33  1  0  0  0  0
 13 34  1  0  0  0  0
 15 19  1  0  0  0  0
 15 16  1  0  0  0  0
 15 35  1  0  0  0  0
 16 17  1  0  0  0  0
 16 36  1  0  0  0  0
 16 37  1  0  0  0  0
 17 18  1  0  0  0  0
 17 38  1  0  0  0  0
 17 39  1  0  0  0  0
 18 19  1  0  0  0  0
 18 40  1  0  0  0  0
 18 41  1  0  0  0  0
 19 42  1  0  0  0  0
 19 43  1  0  0  0  0
 20 21  2  0  0  0  0
 20 44  1  0  0  0  0
 21 22  1  0  0  0  0
 21 45  1  0  0  0  0
 22 23  2  0  0  0  0
M  END
> <s_m_source_file>
AV-unprocessed.smi

> <i_m_source_file_index>
1109

> <i_lp_mmshare_version>
43012

> <i_f3d_flags>
0

> <s_epik_input>
W0NIM11PW0NIMl1bQ0gyXW4xbmMoW2NIXVtjSF1jMT1PKUMoPU8pTihbQ0gyXUMoPU8pW05IMl0pW0NIXTJbQ0gyXVtDSDJdW0NIMl1bQ0gyXTI=

> <s_epik_cmdline>
J2VwaWtfcHl0aG9uJywgJy1waCcsICc3LjAnLCAnLXRuJywgJzgnLCAnLW1hJywgJzIwMCcsICctbWV0YWxfYmluZGluZycsICctaW1hZScsICc8aW5maWxlLm1hZT4nLCAnLW9tYWUnLCAnPG91dGZpbGUubWFlPic=

> <r_lp_tautomer_probability>
1

> <r_epik_Ionization_Penalty>
6.63696e-08

> <r_epik_Ionization_Penalty_Charging>
1.13312e-09

> <r_epik_Ionization_Penalty_Neutral>
6.52365e-08

> <r_epik_State_Penalty>
-0

> <r_epik_Charging_Adjusted_Penalty>
1.13312e-09

> <i_epik_Tot_Q>
0

> <i_epik_Tot_abs_Q>
0

> <r_epik_Metal_State_Penalty>
-0

> <b_epik_Metal_Only>
0

> <s_lp_Force_Field>
OPLS_2005

> <r_lp_Energy>
53.0262

> <b_lp_Chiralities_Consistent>
1

> <s_lp_Variant>
AV-unprocessed.smi:1109-1

> <Gold.Version>
5.8.1

> <Gold.Id.Protein>
6NUR|6NUR_protein|mol2

> <Gold.PLP.Fitness>
44.1226

> <Gold.PLP.PLP>
-39.0823

> <Gold.PLP.part.hbond>
-2.0000

> <Gold.PLP.part.metal>
0.0000

> <Gold.PLP.part.buried>
-6.5126

> <Gold.PLP.part.nonpolar>
-29.7464

> <Gold.PLP.part.repulsive>
0.0856

> <Gold.PLP.ligand.clash>
0.0000

> <Gold.PLP.ligand.torsion>
0.7393

> <Gold.PLP.Chemscore.Hbond>
2.0000

> <Gold.PLP.Chemscore.CHOScore>
0.0000

> <Gold.PLP.Chemscore.Metal>
0.0000

> <Gold.Chemscore.Hbonds>
donor molecule, donor type, donor heavy atom, donor atom, acceptor molecule, acceptor atom, score
      P1  H  6896  6909       L1     9  0.96
      P1  H  7997  8009       L1    14  0.11

> <Gold.PLP.Chemscore.Internal.Correction>
0.5189

> <Gold.Rescore>
     Score         DG    S(hbond)    S(metal)    S(lipo)     H(rot)  DE(clash)    DE(int)     intcor
     10.33     -15.17       1.97        0.00      83.62       2.61       0.06       4.78       ----

> <Gold.Chemscore.Fitness>
10.3319

> <Gold.Chemscore.DG>
-15.1711

> <Gold.Chemscore.ZeroCoef>
-5.4800

> <Gold.Chemscore.Hbond>
1.9695

> <Gold.Chemscore.Metal>
0.0000

> <Gold.Chemscore.Lipo>
83.6212

> <Gold.Chemscore.Internal_Hbond>
0.0000

> <Gold.Chemscore.DEClash>
0.0556

> <Gold.Chemscore.DEInternal>
4.7836

> <Gold.Chemscore.Rot>
2.6057

> <Gold.Chemscore.Internal.Correction>
   9.000000E+99

> <Gold.Chemscore.Hbonds>
donor molecule, donor type, donor heavy atom, donor atom, acceptor molecule, acceptor atom, score
      P1  H  6896  6909       L1     9  0.91
      P1  H  7997  8009       L1    14  0.13

> <Gold.Chemscore.Hbond.Weighted>
-6.5780

> <Gold.Chemscore.Metal.Weighted>
-0.0000

> <Gold.Chemscore.Lipo.Weighted>
-9.7837

> <Gold.Chemscore.Internal_Hbond.Weighted>
0.0000

> <Gold.Chemscore.DEClash.Weighted>
0.0556

> <Gold.Chemscore.DEInternal.Weighted>
4.7836

> <Gold.Chemscore.Rot.Weighted>
6.6707

> <Gold.Chemscore.Internal.Correction.Weighted>
   9.000000E+99

> <Gold.Protein.RotatedTorsions>
[ 6907 6896 6895 6894 ] final  154.97 input  -60.11 | X-H torsion
[ 7974 7965 7964 7962 ] final  113.71 input  175.53 | X-H torsion
[ 8008 7997 7996 7995 ] final   77.11 input   59.86 | X-H torsion
[ 10167 10162 10161 10158 ] final   79.37 input  -65.29 | X-H torsion
[ 10718 10713 10712 10709 ] final  145.28 input   66.30 | X-H torsion
[ 10763 10752 10751 10750 ] final  -75.91 input  -60.55 | X-H torsion
[ 11005 11000 10999 10996 ] final -153.52 input  -57.11 | X-H torsion

> <Gold.Protein.ActiveResidues>
 VAL166  LYS551  ARG553  GLY616  TRP617  ASP618  TYR619  PRO620  LYS621  CYS622 
 ASP623  PHE694  ASN695  SER759  ASP760  ASP761  ALA762  ILE779  LEU786  VAL792 
 PHE793  MET794  SER795  GLU796  ALA797  LYS798  CYS799  TRP800  GLU811  SER814 

> <Gold.Protein.RotatedAtoms>
  152.0508  133.4018  159.4376 H   0  0  0  0  0  0  0  0  0  0  0  0  # atno 6907 bound_to 6896
  150.6870  134.3310  159.4836 H   0  0  0  0  0  0  0  0  0  0  0  0  # atno 6908 bound_to 6896
  152.1119  134.9267  160.0617 H   0  0  0  0  0  0  0  0  0  0  0  0  # atno 6909 bound_to 6896
  145.2135  139.2895  143.4255 H   0  0  0  0  0  0  0  0  0  0  0  0  # atno 7974 bound_to 7965
  155.8369  140.3464  155.5607 H   0  0  0  0  0  0  0  0  0  0  0  0  # atno 8008 bound_to 7997
  155.8183  140.0909  157.1884 H   0  0  0  0  0  0  0  0  0  0  0  0  # atno 8009 bound_to 7997
  154.4004  140.1435  156.3456 H   0  0  0  0  0  0  0  0  0  0  0  0  # atno 8010 bound_to 7997
  139.9611  144.5960  150.8071 H   0  0  0  0  0  0  0  0  0  0  0  0  # atno 10167 bound_to 10162
  157.3471  131.0945  151.1032 H   0  0  0  0  0  0  0  0  0  0  0  0  # atno 10718 bound_to 10713
  154.4928  135.5815  153.6472 H   0  0  0  0  0  0  0  0  0  0  0  0  # atno 10763 bound_to 10752
  152.9865  135.6117  154.3103 H   0  0  0  0  0  0  0  0  0  0  0  0  # atno 10764 bound_to 10752
  154.3004  135.2847  155.2593 H   0  0  0  0  0  0  0  0  0  0  0  0  # atno 10765 bound_to 10752
  140.7072  134.3872  157.5202 H   0  0  0  0  0  0  0  0  0  0  0  0  # atno 11005 bound_to 11000
  146.3392  140.2419  142.8596 LP  0  0  0  0  0  0  0  0  0  0  0  0  # atno 17320 bound_to 7965
  144.9833  140.8479  143.5384 LP  0  0  0  0  0  0  0  0  0  0  0  0  # atno 17321 bound_to 7965
  140.7553  143.3043  151.3001 LP  0  0  0  0  0  0  0  0  0  0  0  0  # atno 17342 bound_to 10162
  139.6553  144.0287  152.2655 LP  0  0  0  0  0  0  0  0  0  0  0  0  # atno 17343 bound_to 10162
  157.2222  130.6486  149.5815 LP  0  0  0  0  0  0  0  0  0  0  0  0  # atno 17370 bound_to 10713
  155.9716  130.4625  150.6150 LP  0  0  0  0  0  0  0  0  0  0  0  0  # atno 17371 bound_to 10713
  139.8881  134.8865  156.2492 LP  0  0  0  0  0  0  0  0  0  0  0  0  # atno 17394 bound_to 11000
  141.0114  133.7093  156.1119 LP  0  0  0  0  0  0  0  0  0  0  0  0  # atno 17395 bound_to 11000

$$$$
