AV-unprocessed.smi:2789|AV-procd|sdf|10765|dock4
  -GOLD-   2272015203D 1   1.00000     0.00000
 Structure written by MMmdl.
 35 36  0  0  0  0  0  0  0  0  1 V2000
  153.1966  141.4046  160.7227 C   0  0  0  0  0  0  0  0  0  0  0  0
  152.9666  141.8520  159.3966 O   0  0  0  0  0  0  0  0  0  0  0  0
  151.9829  142.8730  159.3017 C   0  0  1  0  0  0  0  0  0  0  0  0
  152.1541  143.9418  160.3882 C   0  0  0  0  0  0  0  0  0  0  0  0
  151.6150  145.2166  159.7496 C   0  0  0  0  0  0  0  0  0  0  0  0
  152.0773  145.1241  158.2954 C   0  0  0  0  0  0  0  0  0  0  0  0
  152.1196  143.6222  157.9567 C   0  0  2  0  0  0  0  0  0  0  0  0
  151.0391  143.2771  157.0364 N   0  0  0  0  0  0  0  0  0  0  0  0
  150.8508  142.0623  156.5009 C   0  0  0  0  0  0  0  0  0  0  0  0
  151.5862  141.1011  156.7270 O   0  0  0  0  0  0  0  0  0  0  0  0
  149.7651  142.0434  155.7083 N   0  0  0  0  0  0  0  0  0  0  0  0
  149.2502  141.0032  155.0000 C   0  0  0  0  0  0  0  0  0  0  0  0
  149.7621  139.7466  154.8223 C   0  0  0  0  0  0  0  0  0  0  0  0
  148.7838  139.1302  153.9907 C   0  0  0  0  0  0  0  0  0  0  0  0
  147.7741  139.9374  153.6894 N   0  0  0  0  0  0  0  0  0  0  0  0
  148.0605  141.1017  154.3118 N   0  0  0  0  0  0  0  0  0  0  0  0
  147.1547  142.2280  154.1970 C   0  0  0  0  0  0  0  0  0  0  0  0
  153.9454  140.6128  160.7147 H   0  0  0  0  0  0  0  0  0  0  0  0
  152.2856  140.9987  161.1644 H   0  0  0  0  0  0  0  0  0  0  0  0
  153.5672  142.2085  161.3592 H   0  0  0  0  0  0  0  0  0  0  0  0
  150.9816  142.4438  159.3807 H   0  0  0  0  0  0  0  0  0  0  0  0
  151.6411  143.6867  161.3158 H   0  0  0  0  0  0  0  0  0  0  0  0
  153.2128  144.0729  160.6175 H   0  0  0  0  0  0  0  0  0  0  0  0
  150.5250  145.2173  159.7918 H   0  0  0  0  0  0  0  0  0  0  0  0
  151.9705  146.1195  160.2469 H   0  0  0  0  0  0  0  0  0  0  0  0
  151.4396  145.7029  157.6256 H   0  0  0  0  0  0  0  0  0  0  0  0
  153.0834  145.5381  158.2136 H   0  0  0  0  0  0  0  0  0  0  0  0
  153.0796  143.3995  157.4863 H   0  0  0  0  0  0  0  0  0  0  0  0
  150.3892  144.0123  156.7998 H   0  0  0  0  0  0  0  0  0  0  0  0
  149.2498  142.9085  155.6390 H   0  0  0  0  0  0  0  0  0  0  0  0
  150.6763  139.3215  155.2084 H   0  0  0  0  0  0  0  0  0  0  0  0
  148.7775  138.1246  153.5967 H   0  0  0  0  0  0  0  0  0  0  0  0
  146.7856  142.5021  155.1855 H   0  0  0  0  0  0  0  0  0  0  0  0
  146.3055  141.9761  153.5604 H   0  0  0  0  0  0  0  0  0  0  0  0
  147.6813  143.0784  153.7635 H   0  0  0  0  0  0  0  0  0  0  0  0
  1  2  1  0  0  0  0
  1 18  1  0  0  0  0
  1 19  1  0  0  0  0
  1 20  1  0  0  0  0
  2  3  1  0  0  0  0
  3  7  1  0  0  0  0
  3  4  1  0  0  0  0
  3 21  1  0  0  0  0
  4  5  1  0  0  0  0
  4 22  1  0  0  0  0
  4 23  1  0  0  0  0
  5  6  1  0  0  0  0
  5 24  1  0  0  0  0
  5 25  1  0  0  0  0
  6  7  1  0  0  0  0
  6 26  1  0  0  0  0
  6 27  1  0  0  0  0
  7  8  1  0  0  0  0
  7 28  1  0  0  0  0
  8  9  1  0  0  0  0
  8 29  1  0  0  0  0
  9 10  2  0  0  0  0
  9 11  1  0  0  0  0
 11 12  1  0  0  0  0
 11 30  1  0  0  0  0
 12 16  1  0  0  0  0
 12 13  2  0  0  0  0
 13 14  1  0  0  0  0
 13 31  1  0  0  0  0
 14 15  2  0  0  0  0
 14 32  1  0  0  0  0
 15 16  1  0  0  0  0
 16 17  1  0  0  0  0
 17 33  1  0  0  0  0
 17 34  1  0  0  0  0
 17 35  1  0  0  0  0
M  END
> <s_m_source_file>
AV-unprocessed.smi

> <i_m_source_file_index>
2789

> <i_lp_mmshare_version>
43012

> <i_f3d_flags>
0

> <s_epik_input>
W0NIM11PW0NAQEhdMVtDSDJdW0NIMl1bQ0gyXVtDQEhdMVtOSF1DKD1PKVtOSF1jMltjSF1bY0hdbm4yW0NIM10=

> <s_epik_cmdline>
J2VwaWtfcHl0aG9uJywgJy1waCcsICc3LjAnLCAnLXRuJywgJzgnLCAnLW1hJywgJzIwMCcsICctbWV0YWxfYmluZGluZycsICctaW1hZScsICc8aW5maWxlLm1hZT4nLCAnLW9tYWUnLCAnPG91dGZpbGUubWFlPic=

> <r_lp_tautomer_probability>
1

> <r_epik_Ionization_Penalty>
4.40608e-05

> <r_epik_Ionization_Penalty_Charging>
0

> <r_epik_Ionization_Penalty_Neutral>
4.40608e-05

> <r_epik_State_Penalty>
-0

> <r_epik_Charging_Adjusted_Penalty>
0

> <i_epik_Tot_Q>
0

> <i_epik_Tot_abs_Q>
0

> <r_epik_Metal_State_Penalty>
-0

> <b_epik_Metal_Only>
0

> <s_lp_Force_Field>
OPLS_2005

> <r_lp_Energy>
20.286

> <b_lp_Chiralities_Consistent>
1

> <s_lp_Variant>
AV-unprocessed.smi:2789-4

> <Gold.Version>
5.8.1

> <Gold.Id.Protein>
6NUR|6NUR_protein|mol2

> <Gold.PLP.Fitness>
48.8566

> <Gold.PLP.PLP>
-40.2050

> <Gold.PLP.part.hbond>
-2.0000

> <Gold.PLP.part.metal>
0.0000

> <Gold.PLP.part.buried>
-5.1299

> <Gold.PLP.part.nonpolar>
-33.8999

> <Gold.PLP.part.repulsive>
0.7305

> <Gold.PLP.ligand.clash>
0.0000

> <Gold.PLP.ligand.torsion>
0.1774

> <Gold.PLP.Chemscore.Hbond>
2.0000

> <Gold.PLP.Chemscore.CHOScore>
1.0000

> <Gold.PLP.Chemscore.Metal>
0.0000

> <Gold.Chemscore.Hbonds>
donor molecule, donor type, donor heavy atom, donor atom, acceptor molecule, acceptor atom, score
      L1  H     8    29       P1  8028  1.00
      L1  H    11    30       P1  8028  1.00
      L1  C    14    32       P1  7948  0.94

> <Gold.PLP.Chemscore.Internal.Correction>
0.0065

> <Gold.Rescore>
     Score         DG    S(hbond)    S(metal)    S(lipo)     H(rot)  DE(clash)    DE(int)     intcor
     17.63     -19.09       1.94        0.00      88.65       1.27       0.14       1.32       ----

> <Gold.Chemscore.Fitness>
17.6328

> <Gold.Chemscore.DG>
-19.0884

> <Gold.Chemscore.ZeroCoef>
-5.4800

> <Gold.Chemscore.Hbond>
1.9435

> <Gold.Chemscore.Metal>
0.0000

> <Gold.Chemscore.Lipo>
88.6457

> <Gold.Chemscore.Internal_Hbond>
0.0000

> <Gold.Chemscore.DEClash>
0.1388

> <Gold.Chemscore.DEInternal>
1.3169

> <Gold.Chemscore.Rot>
1.2712

> <Gold.Chemscore.Internal.Correction>
   9.000000E+99

> <Gold.Chemscore.Hbonds>
donor molecule, donor type, donor heavy atom, donor atom, acceptor molecule, acceptor atom, score
      L1  H     8    29       P1  8028  0.93
      L1  H    11    30       P1  8028  1.00

> <Gold.Chemscore.Hbond.Weighted>
-6.4913

> <Gold.Chemscore.Metal.Weighted>
-0.0000

> <Gold.Chemscore.Lipo.Weighted>
-10.3715

> <Gold.Chemscore.Internal_Hbond.Weighted>
0.0000

> <Gold.Chemscore.DEClash.Weighted>
0.1388

> <Gold.Chemscore.DEInternal.Weighted>
1.3169

> <Gold.Chemscore.Rot.Weighted>
3.2544

> <Gold.Chemscore.Internal.Correction.Weighted>
   9.000000E+99

> <Gold.Protein.RotatedTorsions>
[ 6907 6896 6895 6894 ] final -176.25 input  -60.11 | X-H torsion
[ 7974 7965 7964 7962 ] final   54.91 input  175.53 | X-H torsion
[ 8008 7997 7996 7995 ] final  -60.76 input   59.86 | X-H torsion
[ 10167 10162 10161 10158 ] final  176.76 input  -65.29 | X-H torsion
[ 10718 10713 10712 10709 ] final   -8.18 input   66.30 | X-H torsion
[ 10763 10752 10751 10750 ] final   -9.70 input  -60.55 | X-H torsion
[ 11005 11000 10999 10996 ] final   91.74 input  -57.11 | X-H torsion

> <Gold.Protein.ActiveResidues>
 VAL166  LYS551  ARG553  GLY616  TRP617  ASP618  TYR619  PRO620  LYS621  CYS622 
 ASP623  PHE694  ASN695  SER759  ASP760  ASP761  ALA762  ILE779  LEU786  VAL792 
 PHE793  MET794  SER795  GLU796  ALA797  LYS798  CYS799  TRP800  GLU811  SER814 

> <Gold.Protein.RotatedAtoms>
  151.6017  133.3356  159.3048 H   0  0  0  0  0  0  0  0  0  0  0  0  # atno 6907 bound_to 6896
  150.8204  134.7412  159.6778 H   0  0  0  0  0  0  0  0  0  0  0  0  # atno 6908 bound_to 6896
  152.4298  134.5805  159.9998 H   0  0  0  0  0  0  0  0  0  0  0  0  # atno 6909 bound_to 6896
  145.9560  139.4015  143.0277 H   0  0  0  0  0  0  0  0  0  0  0  0  # atno 7974 bound_to 7965
  154.4414  140.1032  156.6325 H   0  0  0  0  0  0  0  0  0  0  0  0  # atno 8008 bound_to 7997
  155.5589  140.3487  155.4468 H   0  0  0  0  0  0  0  0  0  0  0  0  # atno 8009 bound_to 7997
  156.0474  140.1296  157.0077 H   0  0  0  0  0  0  0  0  0  0  0  0  # atno 8010 bound_to 7997
  139.5227  144.2878  152.0491 H   0  0  0  0  0  0  0  0  0  0  0  0  # atno 10167 bound_to 10162
  156.7064  130.5108  149.5903 H   0  0  0  0  0  0  0  0  0  0  0  0  # atno 10718 bound_to 10713
  153.4586  135.7016  153.6064 H   0  0  0  0  0  0  0  0  0  0  0  0  # atno 10763 bound_to 10752
  153.4369  135.3789  155.2204 H   0  0  0  0  0  0  0  0  0  0  0  0  # atno 10764 bound_to 10752
  154.8727  135.3964  154.4008 H   0  0  0  0  0  0  0  0  0  0  0  0  # atno 10765 bound_to 10752
  139.8834  134.8692  156.3472 H   0  0  0  0  0  0  0  0  0  0  0  0  # atno 11005 bound_to 11000
  145.8106  140.9727  143.0950 LP  0  0  0  0  0  0  0  0  0  0  0  0  # atno 17320 bound_to 7965
  144.6805  139.9916  143.7484 LP  0  0  0  0  0  0  0  0  0  0  0  0  # atno 17321 bound_to 7965
  140.2330  144.4349  150.6292 LP  0  0  0  0  0  0  0  0  0  0  0  0  # atno 17342 bound_to 10162
  140.6342  143.2192  151.6430 LP  0  0  0  0  0  0  0  0  0  0  0  0  # atno 17343 bound_to 10162
  156.1692  130.6426  151.0816 LP  0  0  0  0  0  0  0  0  0  0  0  0  # atno 17370 bound_to 10713
  157.6953  131.0796  150.6986 LP  0  0  0  0  0  0  0  0  0  0  0  0  # atno 17371 bound_to 10713
  140.9619  133.7383  156.0413 LP  0  0  0  0  0  0  0  0  0  0  0  0  # atno 17394 bound_to 11000
  140.7979  134.3542  157.5447 LP  0  0  0  0  0  0  0  0  0  0  0  0  # atno 17395 bound_to 11000

$$$$
