AV-unprocessed.smi:3231|AV-procd|sdf|12334|dock5
  -GOLD-   2272018183D 1   1.00000     0.00000
 Structure written by MMmdl.
 41 42  0  0  0  0  0  0  0  0  2 V2000
  149.6637  138.4039  153.5469 O   0  0  0  0  0  0  0  0  0  0  0  0
  148.6954  139.0238  154.3713 C   0  0  1  0  0  0  0  0  0  0  0  0
  149.1770  140.4471  154.7122 C   0  0  0  0  0  0  0  0  0  0  0  0
  150.5210  140.4541  155.2837 N   0  0  0  0  0  0  0  0  0  0  0  0
  150.7996  141.6259  156.1086 C   0  0  0  0  0  0  0  0  0  0  0  0
  150.4705  141.3673  157.5879 C   0  0  0  0  0  0  0  0  0  0  0  0
  151.1245  142.3162  158.4719 N   0  0  0  0  0  0  0  0  0  0  0  0
  151.1330  143.6929  158.3928 C   0  0  0  0  0  0  0  0  0  0  0  0
  151.8709  144.1562  159.4441 C   0  0  0  0  0  0  0  0  0  0  0  0
  152.2776  142.9715  160.1194 C   0  0  0  0  0  0  0  0  0  0  0  0
  151.8290  141.8718  159.5360 N   0  0  0  0  0  0  0  0  0  0  0  0
  147.3012  138.9821  153.7061 C   0  0  0  0  0  0  0  0  0  0  0  0
  146.9748  137.6550  153.1234 N   0  3  0  0  0  0  0  0  0  0  0  0
  146.6614  136.6177  154.1384 C   0  0  0  0  0  0  0  0  0  0  0  0
  146.3701  135.2695  153.4579 C   0  0  0  0  0  0  0  0  0  0  0  0
  145.3043  135.4220  152.5289 O   0  0  0  0  0  0  0  0  0  0  0  0
  145.6251  136.3489  151.4995 C   0  0  0  0  0  0  0  0  0  0  0  0
  145.8898  137.7329  152.1159 C   0  0  0  0  0  0  0  0  0  0  0  0
  149.7608  138.9081  152.7542 H   0  0  0  0  0  0  0  0  0  0  0  0
  148.6777  138.4683  155.3078 H   0  0  0  0  0  0  0  0  0  0  0  0
  149.1666  141.0539  153.8061 H   0  0  0  0  0  0  0  0  0  0  0  0
  148.4723  140.9146  155.4013 H   0  0  0  0  0  0  0  0  0  0  0  0
  150.6607  139.6125  155.8352 H   0  0  0  0  0  0  0  0  0  0  0  0
  151.8516  141.8974  156.0158 H   0  0  0  0  0  0  0  0  0  0  0  0
  150.2254  142.4829  155.7537 H   0  0  0  0  0  0  0  0  0  0  0  0
  149.3929  141.3977  157.7577 H   0  0  0  0  0  0  0  0  0  0  0  0
  150.8005  140.3659  157.8665 H   0  0  0  0  0  0  0  0  0  0  0  0
  150.6181  144.2222  157.6045 H   0  0  0  0  0  0  0  0  0  0  0  0
  152.0875  145.1844  159.6930 H   0  0  0  0  0  0  0  0  0  0  0  0
  152.8811  142.8789  161.0102 H   0  0  0  0  0  0  0  0  0  0  0  0
  146.5279  139.2556  154.4258 H   0  0  0  0  0  0  0  0  0  0  0  0
  147.2649  139.7384  152.9201 H   0  0  0  0  0  0  0  0  0  0  0  0
  147.4909  136.4944  154.8333 H   0  0  0  0  0  0  0  0  0  0  0  0
  145.7969  136.9299  154.7266 H   0  0  0  0  0  0  0  0  0  0  0  0
  147.2587  134.8875  152.9526 H   0  0  0  0  0  0  0  0  0  0  0  0
  146.0843  134.5271  154.2032 H   0  0  0  0  0  0  0  0  0  0  0  0
  146.4921  136.0005  150.9357 H   0  0  0  0  0  0  0  0  0  0  0  0
  144.7911  136.4023  150.7996 H   0  0  0  0  0  0  0  0  0  0  0  0
  144.9807  138.1132  152.5848 H   0  0  0  0  0  0  0  0  0  0  0  0
  146.1637  138.4360  151.3284 H   0  0  0  0  0  0  0  0  0  0  0  0
  147.7982  137.3477  152.6258 H   0  0  0  0  0  0  0  0  0  0  0  0
  1  2  1  0  0  0  0
  1 19  1  0  0  0  0
  2  3  1  0  0  0  0
  2 12  1  0  0  0  0
  2 20  1  0  0  0  0
  3  4  1  0  0  0  0
  3 21  1  0  0  0  0
  3 22  1  0  0  0  0
  4  5  1  0  0  0  0
  4 23  1  0  0  0  0
  5  6  1  0  0  0  0
  5 24  1  0  0  0  0
  5 25  1  0  0  0  0
  6  7  1  0  0  0  0
  6 26  1  0  0  0  0
  6 27  1  0  0  0  0
  7 11  1  0  0  0  0
  7  8  1  0  0  0  0
  8  9  2  0  0  0  0
  8 28  1  0  0  0  0
  9 10  1  0  0  0  0
  9 29  1  0  0  0  0
 10 11  2  0  0  0  0
 10 30  1  0  0  0  0
 12 13  1  0  0  0  0
 12 31  1  0  0  0  0
 12 32  1  0  0  0  0
 13 18  1  0  0  0  0
 13 14  1  0  0  0  0
 13 41  1  0  0  0  0
 14 15  1  0  0  0  0
 14 33  1  0  0  0  0
 14 34  1  0  0  0  0
 15 16  1  0  0  0  0
 15 35  1  0  0  0  0
 15 36  1  0  0  0  0
 16 17  1  0  0  0  0
 17 18  1  0  0  0  0
 17 37  1  0  0  0  0
 17 38  1  0  0  0  0
 18 39  1  0  0  0  0
 18 40  1  0  0  0  0
M  CHG  1  13   1
M  END
> <s_m_source_file>
AV-unprocessed.smi

> <i_m_source_file_index>
3231

> <i_lp_mmshare_version>
43012

> <i_f3d_flags>
0

> <s_epik_input>
W0NIMl0xW0NIMl1PW0NIMl1bQ0gyXU4xW0NIMl1bQ0BIXShbT0hdKVtDSDJdW05IXVtDSDJdW0NIMl1uMltjSF1bY0hdW2NIXW4y

> <s_epik_cmdline>
J2VwaWtfcHl0aG9uJywgJy1waCcsICc3LjAnLCAnLXRuJywgJzgnLCAnLW1hJywgJzIwMCcsICctbWV0YWxfYmluZGluZycsICctaW1hZScsICc8aW5maWxlLm1hZT4nLCAnLW9tYWUnLCAnPG91dGZpbGUubWFlPic=

> <r_epik_Ionization_Penalty>
0.33973

> <r_epik_Ionization_Penalty_Charging>
0.202493

> <r_epik_Ionization_Penalty_Neutral>
0.137237

> <r_epik_State_Penalty>
0.943915

> <r_epik_Charging_Adjusted_Penalty>
1.14641

> <i_epik_Tot_Q>
1

> <i_epik_Tot_abs_Q>
1

> <r_epik_Metal_State_Penalty>
0.94313

> <b_epik_Metal_Only>
0

> <s_lp_Force_Field>
OPLS_2005

> <r_lp_Energy>
28.856

> <b_lp_Chiralities_Consistent>
1

> <s_lp_Variant>
AV-unprocessed.smi:3231-4

> <Gold.Version>
5.8.1

> <Gold.Id.Protein>
6NUR|6NUR_protein|mol2

> <Gold.PLP.Fitness>
48.5764

> <Gold.PLP.PLP>
-34.8775

> <Gold.PLP.part.hbond>
-4.0000

> <Gold.PLP.part.metal>
0.0000

> <Gold.PLP.part.buried>
-4.7192

> <Gold.PLP.part.nonpolar>
-26.9136

> <Gold.PLP.part.repulsive>
0.1087

> <Gold.PLP.ligand.clash>
0.0000

> <Gold.PLP.ligand.torsion>
0.7447

> <Gold.PLP.Chemscore.Hbond>
3.9920

> <Gold.PLP.Chemscore.CHOScore>
1.0000

> <Gold.PLP.Chemscore.Metal>
0.0000

> <Gold.Chemscore.Hbonds>
donor molecule, donor type, donor heavy atom, donor atom, acceptor molecule, acceptor atom, score
      L1  H     1    19       P1  7957  1.00
      L1  H    13    41       P1  7948  2.00
      P1  H  7989  7998       L1     4  0.69
      L1  C     8    28       P1  8028  0.77

> <Gold.PLP.Chemscore.Internal.Correction>
0.2123

> <Gold.Rescore>
     Score         DG    S(hbond)    S(metal)    S(lipo)     H(rot)  DE(clash)    DE(int)     intcor
     13.87     -14.73       2.04        0.00      83.09       2.84       0.06       0.80       ----

> <Gold.Chemscore.Fitness>
13.8703

> <Gold.Chemscore.DG>
-14.7333

> <Gold.Chemscore.ZeroCoef>
-5.4800

> <Gold.Chemscore.Hbond>
2.0362

> <Gold.Chemscore.Metal>
0.0000

> <Gold.Chemscore.Lipo>
83.0943

> <Gold.Chemscore.Internal_Hbond>
0.0000

> <Gold.Chemscore.DEClash>
0.0615

> <Gold.Chemscore.DEInternal>
0.8015

> <Gold.Chemscore.Rot>
2.8397

> <Gold.Chemscore.Internal.Correction>
   9.000000E+99

> <Gold.Chemscore.Hbonds>
donor molecule, donor type, donor heavy atom, donor atom, acceptor molecule, acceptor atom, score
      L1  H     1    19       P1  7957  0.84
      L1  H    13    41       P1  7948  1.00
      P1  H  7989  7998       L1     4  0.05

> <Gold.Chemscore.Hbond.Weighted>
-6.8009

> <Gold.Chemscore.Metal.Weighted>
-0.0000

> <Gold.Chemscore.Lipo.Weighted>
-9.7220

> <Gold.Chemscore.Internal_Hbond.Weighted>
0.0000

> <Gold.Chemscore.DEClash.Weighted>
0.0615

> <Gold.Chemscore.DEInternal.Weighted>
0.8015

> <Gold.Chemscore.Rot.Weighted>
7.2696

> <Gold.Chemscore.Internal.Correction.Weighted>
   9.000000E+99

> <Gold.Protein.RotatedTorsions>
[ 6907 6896 6895 6894 ] final -146.16 input  -60.11 | X-H torsion
[ 7974 7965 7964 7962 ] final -113.59 input  175.53 | X-H torsion
[ 8008 7997 7996 7995 ] final  -83.96 input   59.86 | X-H torsion
[ 10167 10162 10161 10158 ] final  152.28 input  -65.29 | X-H torsion
[ 10718 10713 10712 10709 ] final -104.45 input   66.30 | X-H torsion
[ 10763 10752 10751 10750 ] final  -47.89 input  -60.55 | X-H torsion
[ 11005 11000 10999 10996 ] final   61.15 input  -57.11 | X-H torsion

> <Gold.Protein.ActiveResidues>
 VAL166  LYS551  ARG553  GLY616  TRP617  ASP618  TYR619  PRO620  LYS621  CYS622 
 ASP623  PHE694  ASN695  SER759  ASP760  ASP761  ALA762  ILE779  LEU786  VAL792 
 PHE793  MET794  SER795  GLU796  ALA797  LYS798  CYS799  TRP800  GLU811  SER814 

> <Gold.Protein.RotatedAtoms>
  151.1378  133.4992  159.2597 H   0  0  0  0  0  0  0  0  0  0  0  0  # atno 6907 bound_to 6896
  151.1688  135.0307  159.8752 H   0  0  0  0  0  0  0  0  0  0  0  0  # atno 6908 bound_to 6896
  152.5461  134.1243  159.8465 H   0  0  0  0  0  0  0  0  0  0  0  0  # atno 6909 bound_to 6896
  145.1302  140.8720  143.3762 H   0  0  0  0  0  0  0  0  0  0  0  0  # atno 7974 bound_to 7965
  154.6247  140.0611  156.9659 H   0  0  0  0  0  0  0  0  0  0  0  0  # atno 8008 bound_to 7997
  155.1761  140.3295  155.4365 H   0  0  0  0  0  0  0  0  0  0  0  0  # atno 8009 bound_to 7997
  156.2451  140.1906  156.6860 H   0  0  0  0  0  0  0  0  0  0  0  0  # atno 8010 bound_to 7997
  139.4834  144.5371  151.7627 H   0  0  0  0  0  0  0  0  0  0  0  0  # atno 10167 bound_to 10162
  156.0305  130.5516  150.7398 H   0  0  0  0  0  0  0  0  0  0  0  0  # atno 10718 bound_to 10713
  154.0689  135.6607  153.4821 H   0  0  0  0  0  0  0  0  0  0  0  0  # atno 10763 bound_to 10752
  153.0398  135.5152  154.7586 H   0  0  0  0  0  0  0  0  0  0  0  0  # atno 10764 bound_to 10752
  154.6646  135.3020  154.9789 H   0  0  0  0  0  0  0  0  0  0  0  0  # atno 10765 bound_to 10752
  140.0181  134.6193  155.9679 H   0  0  0  0  0  0  0  0  0  0  0  0  # atno 11005 bound_to 11000
  145.0643  139.3080  143.5864 LP  0  0  0  0  0  0  0  0  0  0  0  0  # atno 17320 bound_to 7965
  146.3514  140.0096  142.8668 LP  0  0  0  0  0  0  0  0  0  0  0  0  # atno 17321 bound_to 7965
  140.4905  144.1318  150.5949 LP  0  0  0  0  0  0  0  0  0  0  0  0  # atno 17342 bound_to 10162
  140.4177  143.2626  151.9755 LP  0  0  0  0  0  0  0  0  0  0  0  0  # atno 17343 bound_to 10162
  157.4969  131.0915  151.0360 LP  0  0  0  0  0  0  0  0  0  0  0  0  # atno 17370 bound_to 10713
  157.0751  130.5880  149.5410 LP  0  0  0  0  0  0  0  0  0  0  0  0  # atno 17371 bound_to 10713
  141.1756  133.6540  156.4817 LP  0  0  0  0  0  0  0  0  0  0  0  0  # atno 17394 bound_to 11000
  140.4434  134.6994  157.5003 LP  0  0  0  0  0  0  0  0  0  0  0  0  # atno 17395 bound_to 11000

$$$$
