AV-unprocessed.smi:3150|AV-procd|sdf|12008|dock8
  -GOLD-   2272017413D 1   1.00000     0.00000
 Structure written by MMmdl.
 33 34  0  0  0  0  0  0  0  0  1 V2000
  153.4392  137.9599  156.2610 C   0  0  0  0  0  0  0  0  0  0  0  0
  152.3758  138.8366  156.9393 C   0  0  1  0  0  0  0  0  0  0  0  0
  153.0554  139.7726  157.7717 O   0  0  0  0  0  0  0  0  0  0  0  0
  152.2460  140.4212  158.7450 C   0  0  0  0  0  0  0  0  0  0  0  0
  153.1261  141.3117  159.5951 C   0  0  0  0  0  0  0  0  0  0  0  0
  152.5658  141.9825  160.8289 C   0  0  0  0  0  0  0  0  0  0  0  0
  152.9156  142.8088  159.6177 C   0  0  0  0  0  0  0  0  0  0  0  0
  151.5098  139.5724  155.9037 C   0  0  0  0  0  0  0  0  0  0  0  0
  152.0390  140.3425  155.1017 O   0  0  0  0  0  0  0  0  0  0  0  0
  150.1890  139.3211  155.9664 N   0  0  0  0  0  0  0  0  0  0  0  0
  149.1448  139.8531  155.1606 C   0  0  0  0  0  0  0  0  0  0  0  0
  148.3803  139.0896  154.3398 N   0  0  0  0  0  0  0  0  0  0  0  0
  147.4075  139.6721  153.6086 C   0  0  0  0  0  0  0  0  0  0  0  0
  147.1358  141.0512  153.6496 C   0  0  0  0  0  0  0  0  0  0  0  0
  147.9198  141.8554  154.4949 C   0  0  0  0  0  0  0  0  0  0  0  0
  148.9377  141.2527  155.2612 C   0  0  0  0  0  0  0  0  0  0  0  0
  149.7047  142.0299  156.0845 O   0  0  0  0  0  0  0  0  0  0  0  0
  152.9826  137.2313  155.5902 H   0  0  0  0  0  0  0  0  0  0  0  0
  154.0144  137.4069  157.0039 H   0  0  0  0  0  0  0  0  0  0  0  0
  154.1426  138.5574  155.6800 H   0  0  0  0  0  0  0  0  0  0  0  0
  151.7480  138.1918  157.5577 H   0  0  0  0  0  0  0  0  0  0  0  0
  151.4615  141.0218  158.2827 H   0  0  0  0  0  0  0  0  0  0  0  0
  151.7666  139.6829  159.3889 H   0  0  0  0  0  0  0  0  0  0  0  0
  154.1563  140.9688  159.6715 H   0  0  0  0  0  0  0  0  0  0  0  0
  151.5096  141.8410  161.0498 H   0  0  0  0  0  0  0  0  0  0  0  0
  153.2170  142.0626  161.6970 H   0  0  0  0  0  0  0  0  0  0  0  0
  153.8010  143.4384  159.6766 H   0  0  0  0  0  0  0  0  0  0  0  0
  152.0939  143.2143  159.0304 H   0  0  0  0  0  0  0  0  0  0  0  0
  149.8908  138.6728  156.6807 H   0  0  0  0  0  0  0  0  0  0  0  0
  146.8286  139.0187  152.9729 H   0  0  0  0  0  0  0  0  0  0  0  0
  146.3473  141.4795  153.0490 H   0  0  0  0  0  0  0  0  0  0  0  0
  147.7416  142.9191  154.5536 H   0  0  0  0  0  0  0  0  0  0  0  0
  149.3882  142.9176  156.1565 H   0  0  0  0  0  0  0  0  0  0  0  0
  1  2  1  0  0  0  0
  1 18  1  0  0  0  0
  1 19  1  0  0  0  0
  1 20  1  0  0  0  0
  2  3  1  0  0  0  0
  2  8  1  0  0  0  0
  2 21  1  0  0  0  0
  3  4  1  0  0  0  0
  4  5  1  0  0  0  0
  4 22  1  0  0  0  0
  4 23  1  0  0  0  0
  5  7  1  0  0  0  0
  5  6  1  0  0  0  0
  5 24  1  0  0  0  0
  6  7  1  0  0  0  0
  6 25  1  0  0  0  0
  6 26  1  0  0  0  0
  7 27  1  0  0  0  0
  7 28  1  0  0  0  0
  8  9  2  0  0  0  0
  8 10  1  0  0  0  0
 10 11  1  0  0  0  0
 10 29  1  0  0  0  0
 11 16  1  0  0  0  0
 11 12  2  0  0  0  0
 12 13  1  0  0  0  0
 13 14  2  0  0  0  0
 13 30  1  0  0  0  0
 14 15  1  0  0  0  0
 14 31  1  0  0  0  0
 15 16  2  0  0  0  0
 15 32  1  0  0  0  0
 16 17  1  0  0  0  0
 17 33  1  0  0  0  0
M  END
> <s_m_source_file>
AV-unprocessed.smi

> <i_m_source_file_index>
3150

> <i_lp_mmshare_version>
43012

> <i_f3d_flags>
0

> <s_epik_input>
W0NIMl0xW0NIMl1bQ0hdMVtDSDJdT1tDQEBIXShbQ0gzXSlDKD1PKVtOSF1jMm5bY0hdW2NIXVtjSF1jMltPSF0=

> <s_epik_cmdline>
J2VwaWtfcHl0aG9uJywgJy1waCcsICc3LjAnLCAnLXRuJywgJzgnLCAnLW1hJywgJzIwMCcsICctbWV0YWxfYmluZGluZycsICctaW1hZScsICc8aW5maWxlLm1hZT4nLCAnLW9tYWUnLCAnPG91dGZpbGUubWFlPic=

> <r_lp_tautomer_probability>
0.43658

> <r_epik_Ionization_Penalty>
0.0204299

> <r_epik_Ionization_Penalty_Charging>
0

> <r_epik_Ionization_Penalty_Neutral>
0.0204299

> <r_epik_State_Penalty>
0.419322

> <r_epik_Charging_Adjusted_Penalty>
0.419322

> <i_epik_Tot_Q>
0

> <i_epik_Tot_abs_Q>
0

> <r_epik_Metal_State_Penalty>
0.377394

> <b_epik_Metal_Only>
0

> <s_lp_Force_Field>
OPLS_2005

> <r_lp_Energy>
16.197

> <b_lp_Chiralities_Consistent>
1

> <s_lp_Variant>
AV-unprocessed.smi:3150-2

> <Gold.Version>
5.8.1

> <Gold.Id.Protein>
6NUR|6NUR_protein|mol2

> <Gold.PLP.Fitness>
40.3248

> <Gold.PLP.PLP>
-33.4021

> <Gold.PLP.part.hbond>
-3.0000

> <Gold.PLP.part.metal>
0.0000

> <Gold.PLP.part.buried>
-4.1419

> <Gold.PLP.part.nonpolar>
-26.5017

> <Gold.PLP.part.repulsive>
0.2095

> <Gold.PLP.ligand.clash>
0.0000

> <Gold.PLP.ligand.torsion>
1.1136

> <Gold.PLP.Chemscore.Hbond>
2.8640

> <Gold.PLP.Chemscore.CHOScore>
0.0000

> <Gold.PLP.Chemscore.Metal>
0.0000

> <Gold.Chemscore.Hbonds>
donor molecule, donor type, donor heavy atom, donor atom, acceptor molecule, acceptor atom, score
      L1  H    17    33       P1  8028  1.00
      P1  H  7989  7998       L1     9  0.70
      P1  H  7997  8008       L1     3  1.00

> <Gold.PLP.Chemscore.Internal.Correction>
0.5579

> <Gold.Rescore>
     Score         DG    S(hbond)    S(metal)    S(lipo)     H(rot)  DE(clash)    DE(int)     intcor
     16.96     -18.85       2.93        0.00      79.28       2.22       0.01       1.88       ----

> <Gold.Chemscore.Fitness>
16.9621

> <Gold.Chemscore.DG>
-18.8492

> <Gold.Chemscore.ZeroCoef>
-5.4800

> <Gold.Chemscore.Hbond>
2.9266

> <Gold.Chemscore.Metal>
0.0000

> <Gold.Chemscore.Lipo>
79.2774

> <Gold.Chemscore.Internal_Hbond>
0.0000

> <Gold.Chemscore.DEClash>
0.0067

> <Gold.Chemscore.DEInternal>
1.8804

> <Gold.Chemscore.Rot>
2.2192

> <Gold.Chemscore.Internal.Correction>
   9.000000E+99

> <Gold.Chemscore.Hbonds>
donor molecule, donor type, donor heavy atom, donor atom, acceptor molecule, acceptor atom, score
      L1  H    17    33       P1  8028  0.99
      P1  H  7989  7998       L1     9  0.70
      P1  H  7997  8008       L1     3  0.35

> <Gold.Chemscore.Hbond.Weighted>
-9.7749

> <Gold.Chemscore.Metal.Weighted>
-0.0000

> <Gold.Chemscore.Lipo.Weighted>
-9.2755

> <Gold.Chemscore.Internal_Hbond.Weighted>
0.0000

> <Gold.Chemscore.DEClash.Weighted>
0.0067

> <Gold.Chemscore.DEInternal.Weighted>
1.8804

> <Gold.Chemscore.Rot.Weighted>
5.6812

> <Gold.Chemscore.Internal.Correction.Weighted>
   9.000000E+99

> <Gold.Protein.RotatedTorsions>
[ 6907 6896 6895 6894 ] final  -99.13 input  -60.11 | X-H torsion
[ 7974 7965 7964 7962 ] final -170.20 input  175.53 | X-H torsion
[ 8008 7997 7996 7995 ] final  -74.48 input   59.86 | X-H torsion
[ 10167 10162 10161 10158 ] final  -72.01 input  -65.29 | X-H torsion
[ 10718 10713 10712 10709 ] final -124.57 input   66.30 | X-H torsion
[ 10763 10752 10751 10750 ] final   74.25 input  -60.55 | X-H torsion
[ 11005 11000 10999 10996 ] final   63.51 input  -57.11 | X-H torsion

> <Gold.Protein.ActiveResidues>
 VAL166  LYS551  ARG553  GLY616  TRP617  ASP618  TYR619  PRO620  LYS621  CYS622 
 ASP623  PHE694  ASN695  SER759  ASP760  ASP761  ALA762  ILE779  LEU786  VAL792 
 PHE793  MET794  SER795  GLU796  ALA797  LYS798  CYS799  TRP800  GLU811  SER814 

> <Gold.Protein.RotatedAtoms>
  150.7069  134.1088  159.3992 H   0  0  0  0  0  0  0  0  0  0  0  0  # atno 6907 bound_to 6896
  151.9075  135.0350  160.0521 H   0  0  0  0  0  0  0  0  0  0  0  0  # atno 6908 bound_to 6896
  152.2363  133.5064  159.5281 H   0  0  0  0  0  0  0  0  0  0  0  0  # atno 6909 bound_to 6896
  144.7173  140.2108  143.6327 H   0  0  0  0  0  0  0  0  0  0  0  0  # atno 7974 bound_to 7965
  154.5334  140.0761  156.8385 H   0  0  0  0  0  0  0  0  0  0  0  0  # atno 8008 bound_to 7997
  155.3328  140.3403  155.4221 H   0  0  0  0  0  0  0  0  0  0  0  0  # atno 8009 bound_to 7997
  156.1804  140.1650  156.8271 H   0  0  0  0  0  0  0  0  0  0  0  0  # atno 8010 bound_to 7997
  140.5227  143.2330  151.7402 H   0  0  0  0  0  0  0  0  0  0  0  0  # atno 10167 bound_to 10162
  156.1599  130.6594  151.0034 H   0  0  0  0  0  0  0  0  0  0  0  0  # atno 10718 bound_to 10713
  153.0574  135.5033  154.8014 H   0  0  0  0  0  0  0  0  0  0  0  0  # atno 10763 bound_to 10752
  154.6829  135.2971  154.9590 H   0  0  0  0  0  0  0  0  0  0  0  0  # atno 10764 bound_to 10752
  154.0370  135.6722  153.4839 H   0  0  0  0  0  0  0  0  0  0  0  0  # atno 10765 bound_to 10752
  140.0020  134.6427  155.9915 H   0  0  0  0  0  0  0  0  0  0  0  0  # atno 11005 bound_to 11000
  145.8593  139.2214  143.1726 LP  0  0  0  0  0  0  0  0  0  0  0  0  # atno 17320 bound_to 7965
  146.0188  140.8367  142.9933 LP  0  0  0  0  0  0  0  0  0  0  0  0  # atno 17321 bound_to 7965
  139.4928  144.4231  151.9955 LP  0  0  0  0  0  0  0  0  0  0  0  0  # atno 17342 bound_to 10162
  140.3329  144.3295  150.5983 LP  0  0  0  0  0  0  0  0  0  0  0  0  # atno 17343 bound_to 10162
  157.6724  131.0858  150.7579 LP  0  0  0  0  0  0  0  0  0  0  0  0  # atno 17370 bound_to 10713
  156.7642  130.4808  149.5431 LP  0  0  0  0  0  0  0  0  0  0  0  0  # atno 17371 bound_to 10713
  141.1649  133.6537  156.4445 LP  0  0  0  0  0  0  0  0  0  0  0  0  # atno 17394 bound_to 11000
  140.4710  134.6753  157.5129 LP  0  0  0  0  0  0  0  0  0  0  0  0  # atno 17395 bound_to 11000

$$$$
