AV-unprocessed.smi:284|AV-procd|sdf|2163|dock1
  -GOLD-   2262021523D 1   1.00000     0.00000
 Structure written by MMmdl.
 60 62  0  0  0  0  0  0  0  0  1 V2000
  148.6287  141.6433  154.4582 C   0  0  0  0  0  0  0  0  0  0  0  0
  149.8084  141.0865  155.2393 C   0  0  0  0  0  0  0  0  0  0  0  0
  150.4424  141.8048  156.1942 C   0  0  0  0  0  0  0  0  0  0  0  0
  151.5179  141.3298  156.9198 N   0  0  0  0  0  0  0  0  0  0  0  0
  152.1800  142.1936  157.9655 C   0  0  2  0  0  0  0  0  0  0  0  0
  152.0547  141.5784  159.3557 C   0  0  0  0  0  0  0  0  0  0  0  0
  152.1925  142.8200  160.2119 C   0  0  2  0  0  0  0  0  0  0  0  0
  151.6584  142.6416  161.5090 O   0  0  0  0  0  0  0  0  0  0  0  0
  151.5074  143.9045  159.3544 C   0  0  2  0  0  0  0  0  0  0  0  0
  150.0561  144.3001  159.7049 C   0  0  0  0  0  0  0  0  0  0  0  0
  149.1321  143.9444  158.6965 O   0  0  0  0  0  0  0  0  0  0  0  0
  151.5389  143.4323  158.0065 O   0  0  0  0  0  0  0  0  0  0  0  0
  151.9930  140.0228  156.6919 C   0  0  0  0  0  0  0  0  0  0  0  0
  152.9409  139.5696  157.3377 O   0  0  0  0  0  0  0  0  0  0  0  0
  151.3488  139.2430  155.7047 N   0  0  0  0  0  0  0  0  0  0  0  0
  151.8544  137.8763  155.4461 C   0  0  0  0  0  0  0  0  0  0  0  0
  151.1500  136.7925  156.2776 C   0  0  0  0  0  0  0  0  0  0  0  0
  151.3800  135.6009  156.0698 O   0  0  0  0  0  0  0  0  0  0  0  0
  150.2720  137.2557  157.1862 N   0  0  0  0  0  0  0  0  0  0  0  0
  149.4664  136.5344  158.1096 C   0  0  0  0  0  0  0  0  0  0  0  0
  148.8529  135.2923  157.8253 C   0  0  0  0  0  0  0  0  0  0  0  0
  148.0821  134.6365  158.8050 C   0  0  0  0  0  0  0  0  0  0  0  0
  147.9112  135.1971  160.0948 C   0  0  0  0  0  0  0  0  0  0  0  0
  147.0784  134.5070  161.1922 C   0  0  0  0  0  0  0  0  0  0  0  0
  147.6471  133.0984  161.4585 C   0  0  0  0  0  0  0  0  0  0  0  0
  145.5895  134.3490  160.8096 C   0  0  0  0  0  0  0  0  0  0  0  0
  147.1378  135.3354  162.4934 C   0  0  0  0  0  0  0  0  0  0  0  0
  148.5446  136.4307  160.3727 C   0  0  0  0  0  0  0  0  0  0  0  0
  149.3133  137.0889  159.3948 C   0  0  0  0  0  0  0  0  0  0  0  0
  150.2589  139.7254  154.9385 C   0  0  0  0  0  0  0  0  0  0  0  0
  149.7398  139.0203  154.0708 O   0  0  0  0  0  0  0  0  0  0  0  0
  148.3925  142.6658  154.7541 H   0  0  0  0  0  0  0  0  0  0  0  0
  147.7398  141.0336  154.6244 H   0  0  0  0  0  0  0  0  0  0  0  0
  148.8466  141.6480  153.3896 H   0  0  0  0  0  0  0  0  0  0  0  0
  150.0873  142.8034  156.4007 H   0  0  0  0  0  0  0  0  0  0  0  0
  153.2147  142.3636  157.6652 H   0  0  0  0  0  0  0  0  0  0  0  0
  151.0697  141.1238  159.4719 H   0  0  0  0  0  0  0  0  0  0  0  0
  152.8244  140.8262  159.5306 H   0  0  0  0  0  0  0  0  0  0  0  0
  153.2522  143.0609  160.3083 H   0  0  0  0  0  0  0  0  0  0  0  0
  151.8192  143.4253  162.0119 H   0  0  0  0  0  0  0  0  0  0  0  0
  152.1133  144.8106  159.3949 H   0  0  0  0  0  0  0  0  0  0  0  0
  149.7519  143.8018  160.6257 H   0  0  0  0  0  0  0  0  0  0  0  0
  149.9894  145.3721  159.8911 H   0  0  0  0  0  0  0  0  0  0  0  0
  148.8105  144.7348  158.2909 H   0  0  0  0  0  0  0  0  0  0  0  0
  151.7607  137.6273  154.3874 H   0  0  0  0  0  0  0  0  0  0  0  0
  152.9264  137.8062  155.6357 H   0  0  0  0  0  0  0  0  0  0  0  0
  150.1291  138.2551  157.1829 H   0  0  0  0  0  0  0  0  0  0  0  0
  148.9670  134.8108  156.8670 H   0  0  0  0  0  0  0  0  0  0  0  0
  147.6345  133.6932  158.5348 H   0  0  0  0  0  0  0  0  0  0  0  0
  147.0721  132.5768  162.2243 H   0  0  0  0  0  0  0  0  0  0  0  0
  148.6810  133.1322  161.8021 H   0  0  0  0  0  0  0  0  0  0  0  0
  147.6212  132.4860  160.5565 H   0  0  0  0  0  0  0  0  0  0  0  0
  145.4633  133.7273  159.9224 H   0  0  0  0  0  0  0  0  0  0  0  0
  145.1180  135.3139  160.6186 H   0  0  0  0  0  0  0  0  0  0  0  0
  145.0251  133.8719  161.6118 H   0  0  0  0  0  0  0  0  0  0  0  0
  146.5327  134.8824  163.2796 H   0  0  0  0  0  0  0  0  0  0  0  0
  146.7625  136.3468  162.3340 H   0  0  0  0  0  0  0  0  0  0  0  0
  148.1516  135.4189  162.8844 H   0  0  0  0  0  0  0  0  0  0  0  0
  148.4484  136.8868  161.3465 H   0  0  0  0  0  0  0  0  0  0  0  0
  149.7849  138.0297  159.6383 H   0  0  0  0  0  0  0  0  0  0  0  0
  1  2  1  0  0  0  0
  1 32  1  0  0  0  0
  1 33  1  0  0  0  0
  1 34  1  0  0  0  0
  2 30  1  0  0  0  0
  2  3  2  0  0  0  0
  3  4  1  0  0  0  0
  3 35  1  0  0  0  0
  4  5  1  0  0  0  0
  4 13  1  0  0  0  0
  5 12  1  0  0  0  0
  5  6  1  0  0  0  0
  5 36  1  0  0  0  0
  6  7  1  0  0  0  0
  6 37  1  0  0  0  0
  6 38  1  0  0  0  0
  7  8  1  0  0  0  0
  7  9  1  0  0  0  0
  7 39  1  0  0  0  0
  8 40  1  0  0  0  0
  9 10  1  0  0  0  0
  9 12  1  0  0  0  0
  9 41  1  0  0  0  0
 10 11  1  0  0  0  0
 10 42  1  0  0  0  0
 10 43  1  0  0  0  0
 11 44  1  0  0  0  0
 13 14  2  0  0  0  0
 13 15  1  0  0  0  0
 15 16  1  0  0  0  0
 15 30  1  0  0  0  0
 16 17  1  0  0  0  0
 16 45  1  0  0  0  0
 16 46  1  0  0  0  0
 17 18  2  0  0  0  0
 17 19  1  0  0  0  0
 19 20  1  0  0  0  0
 19 47  1  0  0  0  0
 20 29  1  0  0  0  0
 20 21  2  0  0  0  0
 21 22  1  0  0  0  0
 21 48  1  0  0  0  0
 22 23  2  0  0  0  0
 22 49  1  0  0  0  0
 23 24  1  0  0  0  0
 23 28  1  0  0  0  0
 24 25  1  0  0  0  0
 24 26  1  0  0  0  0
 24 27  1  0  0  0  0
 25 50  1  0  0  0  0
 25 51  1  0  0  0  0
 25 52  1  0  0  0  0
 26 53  1  0  0  0  0
 26 54  1  0  0  0  0
 26 55  1  0  0  0  0
 27 56  1  0  0  0  0
 27 57  1  0  0  0  0
 27 58  1  0  0  0  0
 28 29  2  0  0  0  0
 28 59  1  0  0  0  0
 29 60  1  0  0  0  0
 30 31  2  0  0  0  0
M  END
> <s_m_source_file>
AV-unprocessed.smi

> <i_m_source_file_index>
284

> <i_lp_mmshare_version>
43012

> <i_f3d_flags>
0

> <s_epik_input>
W09IXVtDSDJdW0NAQEhdKE8xKVtDQEhdKFtPSF0pW0NIMl1bQ0BIXTFuKFtjSF1jMltDSDNdKWMoPU8pbihjMj1PKVtDSDJdQyg9TylbTkhdYzNbY0hdW2NIXWMoQyhbQ0gzXSkoW0NIM10pW0NIM10pW2NIXVtjSF0z

> <s_epik_cmdline>
J2VwaWtfcHl0aG9uJywgJy1waCcsICc3LjAnLCAnLXRuJywgJzgnLCAnLW1hJywgJzIwMCcsICctbWV0YWxfYmluZGluZycsICctaW1hZScsICc8aW5maWxlLm1hZT4nLCAnLW9tYWUnLCAnPG91dGZpbGUubWFlPic=

> <r_lp_tautomer_probability>
1

> <r_epik_Ionization_Penalty>
4.92358e-06

> <r_epik_Ionization_Penalty_Charging>
1.29777e-07

> <r_epik_Ionization_Penalty_Neutral>
4.79381e-06

> <r_epik_State_Penalty>
-0

> <r_epik_Charging_Adjusted_Penalty>
1.29777e-07

> <i_epik_Tot_Q>
0

> <i_epik_Tot_abs_Q>
0

> <r_epik_Metal_State_Penalty>
-0

> <b_epik_Metal_Only>
0

> <s_epik_Chemistry_Notes>
This compound contains an acetal/aminal-like group ( X-CH(R)-Y where X, Y are N, S, or O) that may be acid/base labile, releasing an aldehyde.

> <s_lp_Force_Field>
OPLS_2005

> <r_lp_Energy>
44.8012

> <b_lp_Chiralities_Consistent>
1

> <s_lp_Variant>
AV-unprocessed.smi:284-7

> <Gold.Version>
5.8.1

> <Gold.Id.Protein>
6NUR|6NUR_protein|mol2

> <Gold.PLP.Fitness>
64.1708

> <Gold.PLP.PLP>
-53.2226

> <Gold.PLP.part.hbond>
-4.7713

> <Gold.PLP.part.metal>
0.0000

> <Gold.PLP.part.buried>
-7.6496

> <Gold.PLP.part.nonpolar>
-41.9560

> <Gold.PLP.part.repulsive>
0.3756

> <Gold.PLP.ligand.clash>
0.0000

> <Gold.PLP.ligand.torsion>
1.4464

> <Gold.PLP.Chemscore.Hbond>
3.5920

> <Gold.PLP.Chemscore.CHOScore>
1.0000

> <Gold.PLP.Chemscore.Metal>
0.0000

> <Gold.Chemscore.Hbonds>
donor molecule, donor type, donor heavy atom, donor atom, acceptor molecule, acceptor atom, score
      L1  H    11    44       P1  8029  1.00
      P1  H  6933  6945       L1     8  0.59
      P1  H  7997  8009       L1    14  1.00
      P1  H 10752 10765       L1    18  1.00
      L1  C     3    35       P1  8028  1.00

> <Gold.PLP.Chemscore.Internal.Correction>
0.0650

> <Gold.Rescore>
     Score         DG    S(hbond)    S(metal)    S(lipo)     H(rot)  DE(clash)    DE(int)     intcor
     18.94     -22.51       3.46        0.00     118.33       3.27       0.27       3.30       ----

> <Gold.Chemscore.Fitness>
18.9427

> <Gold.Chemscore.DG>
-22.5094

> <Gold.Chemscore.ZeroCoef>
-5.4800

> <Gold.Chemscore.Hbond>
3.4624

> <Gold.Chemscore.Metal>
0.0000

> <Gold.Chemscore.Lipo>
118.3348

> <Gold.Chemscore.Internal_Hbond>
0.0000

> <Gold.Chemscore.DEClash>
0.2668

> <Gold.Chemscore.DEInternal>
3.3000

> <Gold.Chemscore.Rot>
3.2735

> <Gold.Chemscore.Internal.Correction>
   9.000000E+99

> <Gold.Chemscore.Hbonds>
donor molecule, donor type, donor heavy atom, donor atom, acceptor molecule, acceptor atom, score
      L1  H    11    44       P1  8029  0.60
      P1  H  6933  6945       L1     8  0.37
      P1  H  7997  8009       L1    14  0.97
      P1  H 10752 10765       L1    18  0.61

> <Gold.Chemscore.Hbond.Weighted>
-11.5643

> <Gold.Chemscore.Metal.Weighted>
-0.0000

> <Gold.Chemscore.Lipo.Weighted>
-13.8452

> <Gold.Chemscore.Internal_Hbond.Weighted>
0.0000

> <Gold.Chemscore.DEClash.Weighted>
0.2668

> <Gold.Chemscore.DEInternal.Weighted>
3.3000

> <Gold.Chemscore.Rot.Weighted>
8.3801

> <Gold.Chemscore.Internal.Correction.Weighted>
   9.000000E+99

> <Gold.Protein.RotatedTorsions>
[ 6907 6896 6895 6894 ] final    9.18 input  -60.11 | X-H torsion
[ 7974 7965 7964 7962 ] final  -53.55 input  175.53 | X-H torsion
[ 8008 7997 7996 7995 ] final  159.11 input   59.86 | X-H torsion
[ 10167 10162 10161 10158 ] final  -30.47 input  -65.29 | X-H torsion
[ 10718 10713 10712 10709 ] final -150.77 input   66.30 | X-H torsion
[ 10763 10752 10751 10750 ] final -153.85 input  -60.55 | X-H torsion
[ 11005 11000 10999 10996 ] final    2.08 input  -57.11 | X-H torsion

> <Gold.Protein.ActiveResidues>
 VAL166  LYS551  ARG553  GLY616  TRP617  ASP618  TYR619  PRO620  LYS621  CYS622 
 ASP623  PHE694  ASN695  SER759  ASP760  ASP761  ALA762  ILE779  LEU786  VAL792 
 PHE793  MET794  SER795  GLU796  ALA797  LYS798  CYS799  TRP800  GLU811  SER814 

> <Gold.Protein.RotatedAtoms>
  151.7179  135.0900  160.0278 H   0  0  0  0  0  0  0  0  0  0  0  0  # atno 6907 bound_to 6896
  152.3620  133.6305  159.6031 H   0  0  0  0  0  0  0  0  0  0  0  0  # atno 6908 bound_to 6896
  150.7611  133.9324  159.3472 H   0  0  0  0  0  0  0  0  0  0  0  0  # atno 6909 bound_to 6896
  145.8955  140.8036  142.9770 H   0  0  0  0  0  0  0  0  0  0  0  0  # atno 7974 bound_to 7965
  156.2260  140.1840  156.7363 H   0  0  0  0  0  0  0  0  0  0  0  0  # atno 8008 bound_to 7997
  154.5941  140.0646  156.9308 H   0  0  0  0  0  0  0  0  0  0  0  0  # atno 8009 bound_to 7997
  155.2285  140.3313  155.4309 H   0  0  0  0  0  0  0  0  0  0  0  0  # atno 8010 bound_to 7997
  140.7249  143.3846  151.1539 H   0  0  0  0  0  0  0  0  0  0  0  0  # atno 10167 bound_to 10162
  156.4505  130.8165  151.2396 H   0  0  0  0  0  0  0  0  0  0  0  0  # atno 10718 bound_to 10713
  154.7900  135.3203  154.7800 H   0  0  0  0  0  0  0  0  0  0  0  0  # atno 10763 bound_to 10752
  153.8491  135.6864  153.4798 H   0  0  0  0  0  0  0  0  0  0  0  0  # atno 10764 bound_to 10752
  153.1566  135.4678  154.9653 H   0  0  0  0  0  0  0  0  0  0  0  0  # atno 10765 bound_to 10752
  140.6083  133.9772  155.8165 H   0  0  0  0  0  0  0  0  0  0  0  0  # atno 11005 bound_to 11000
  144.6732  140.1596  143.7423 LP  0  0  0  0  0  0  0  0  0  0  0  0  # atno 17320 bound_to 7965
  145.8855  139.2347  143.1580 LP  0  0  0  0  0  0  0  0  0  0  0  0  # atno 17321 bound_to 7965
  139.7441  143.8879  152.3058 LP  0  0  0  0  0  0  0  0  0  0  0  0  # atno 17342 bound_to 10162
  139.8710  144.7068  150.8987 LP  0  0  0  0  0  0  0  0  0  0  0  0  # atno 17343 bound_to 10162
  157.7503  131.0139  150.3444 LP  0  0  0  0  0  0  0  0  0  0  0  0  # atno 17370 bound_to 10713
  156.3821  130.3882  149.7093 LP  0  0  0  0  0  0  0  0  0  0  0  0  # atno 17371 bound_to 10713
  141.0826  134.0040  157.3363 LP  0  0  0  0  0  0  0  0  0  0  0  0  # atno 17394 bound_to 11000
  139.9203  135.0200  156.8039 LP  0  0  0  0  0  0  0  0  0  0  0  0  # atno 17395 bound_to 11000

$$$$
