AV-unprocessed.smi:1390|AV-procd|sdf|5657|dock4
  -GOLD-   22720 5283D 1   1.00000     0.00000
 Structure written by MMmdl.
 44 45  0  0  0  0  0  0  0  0  1 V2000
  153.0000  142.3006  161.6266 C   0  0  0  0  0  0  0  0  0  0  0  0
  152.8322  142.7252  160.1641 C   0  0  1  0  0  0  0  0  0  0  0  0
  152.1992  141.6113  159.3091 C   0  0  0  0  0  0  0  0  0  0  0  0
  151.9542  142.0837  157.9472 N   0  0  0  0  0  0  0  0  0  0  0  0
  151.6199  141.1244  156.9654 C   0  0  0  0  0  0  0  0  0  0  0  0
  150.3812  141.2008  156.2833 C   0  0  0  0  0  0  0  0  0  0  0  0
  150.0684  140.2284  155.3140 C   0  0  0  0  0  0  0  0  0  0  0  0
  151.0021  139.2090  155.0450 C   0  0  0  0  0  0  0  0  0  0  0  0
  150.7071  138.1314  154.0210 C   0  0  0  0  0  0  0  0  0  0  0  0
  151.0344  136.8072  154.5315 N   0  0  0  0  0  0  0  0  0  0  0  0
  150.1648  135.9640  155.1082 C   0  0  0  0  0  0  0  0  0  0  0  0
  148.9829  136.2413  155.3101 O   0  0  0  0  0  0  0  0  0  0  0  0
  150.7123  134.6032  155.5382 C   0  0  0  0  0  0  0  0  0  0  0  0
  149.9869  133.5764  154.8783 O   0  0  0  0  0  0  0  0  0  0  0  0
  150.5566  132.2911  155.0658 C   0  0  0  0  0  0  0  0  0  0  0  0
  149.5551  131.2191  154.6184 C   0  0  0  0  0  0  0  0  0  0  0  0
  148.9877  131.5975  153.4739 F   0  0  0  0  0  0  0  0  0  0  0  0
  150.1793  130.0577  154.4242 F   0  0  0  0  0  0  0  0  0  0  0  0
  148.6020  131.0667  155.5376 F   0  0  0  0  0  0  0  0  0  0  0  0
  152.2127  139.2134  155.7656 C   0  0  0  0  0  0  0  0  0  0  0  0
  152.5158  140.1420  156.6966 N   0  0  0  0  0  0  0  0  0  0  0  0
  151.1999  143.3338  157.8989 C   0  0  0  0  0  0  0  0  0  0  0  0
  151.8548  144.3909  158.8041 C   0  0  0  0  0  0  0  0  0  0  0  0
  151.9946  143.8769  160.1242 O   0  0  0  0  0  0  0  0  0  0  0  0
  153.6420  141.4231  161.7087 H   0  0  0  0  0  0  0  0  0  0  0  0
  152.0388  142.0552  162.0792 H   0  0  0  0  0  0  0  0  0  0  0  0
  153.4517  143.0995  162.2152 H   0  0  0  0  0  0  0  0  0  0  0  0
  153.8140  142.9830  159.7628 H   0  0  0  0  0  0  0  0  0  0  0  0
  152.8655  140.7477  159.2935 H   0  0  0  0  0  0  0  0  0  0  0  0
  151.2552  141.2879  159.7508 H   0  0  0  0  0  0  0  0  0  0  0  0
  149.6765  141.9946  156.4805 H   0  0  0  0  0  0  0  0  0  0  0  0
  149.1273  140.2673  154.7852 H   0  0  0  0  0  0  0  0  0  0  0  0
  149.6480  138.1612  153.7619 H   0  0  0  0  0  0  0  0  0  0  0  0
  151.2628  138.3434  153.1058 H   0  0  0  0  0  0  0  0  0  0  0  0
  151.9865  136.4926  154.4106 H   0  0  0  0  0  0  0  0  0  0  0  0
  151.7713  134.5499  155.2825 H   0  0  0  0  0  0  0  0  0  0  0  0
  150.6212  134.4958  156.6205 H   0  0  0  0  0  0  0  0  0  0  0  0
  151.4775  132.2034  154.4872 H   0  0  0  0  0  0  0  0  0  0  0  0
  150.8147  132.1461  156.1159 H   0  0  0  0  0  0  0  0  0  0  0  0
  152.9578  138.4498  155.5972 H   0  0  0  0  0  0  0  0  0  0  0  0
  151.1338  143.7302  156.8868 H   0  0  0  0  0  0  0  0  0  0  0  0
  150.1791  143.1402  158.2306 H   0  0  0  0  0  0  0  0  0  0  0  0
  152.8290  144.6886  158.4129 H   0  0  0  0  0  0  0  0  0  0  0  0
  151.2384  145.2892  158.8374 H   0  0  0  0  0  0  0  0  0  0  0  0
  1  2  1  0  0  0  0
  1 25  1  0  0  0  0
  1 26  1  0  0  0  0
  1 27  1  0  0  0  0
  2 24  1  0  0  0  0
  2  3  1  0  0  0  0
  2 28  1  0  0  0  0
  3  4  1  0  0  0  0
  3 29  1  0  0  0  0
  3 30  1  0  0  0  0
  4  5  1  0  0  0  0
  4 22  1  0  0  0  0
  5 21  1  0  0  0  0
  5  6  2  0  0  0  0
  6  7  1  0  0  0  0
  6 31  1  0  0  0  0
  7  8  2  0  0  0  0
  7 32  1  0  0  0  0
  8  9  1  0  0  0  0
  8 20  1  0  0  0  0
  9 10  1  0  0  0  0
  9 33  1  0  0  0  0
  9 34  1  0  0  0  0
 10 11  1  0  0  0  0
 10 35  1  0  0  0  0
 11 12  2  0  0  0  0
 11 13  1  0  0  0  0
 13 14  1  0  0  0  0
 13 36  1  0  0  0  0
 13 37  1  0  0  0  0
 14 15  1  0  0  0  0
 15 16  1  0  0  0  0
 15 38  1  0  0  0  0
 15 39  1  0  0  0  0
 16 17  1  0  0  0  0
 16 18  1  0  0  0  0
 16 19  1  0  0  0  0
 20 21  2  0  0  0  0
 20 40  1  0  0  0  0
 22 23  1  0  0  0  0
 22 41  1  0  0  0  0
 22 42  1  0  0  0  0
 23 24  1  0  0  0  0
 23 43  1  0  0  0  0
 23 44  1  0  0  0  0
M  END
> <s_m_source_file>
AV-unprocessed.smi

> <i_m_source_file_index>
1390

> <i_lp_mmshare_version>
43012

> <i_f3d_flags>
0

> <s_epik_input>
W0NIM11bQ0BASF0xW0NIMl1OKFtDSDJdW0NIMl1PMSljMltjSF1bY0hdYyhbY0hdbjIpW0NIMl1bTkhdQyg9TylbQ0gyXU9bQ0gyXUMoRikoRilG

> <s_epik_cmdline>
J2VwaWtfcHl0aG9uJywgJy1waCcsICc3LjAnLCAnLXRuJywgJzgnLCAnLW1hJywgJzIwMCcsICctbWV0YWxfYmluZGluZycsICctaW1hZScsICc8aW5maWxlLm1hZT4nLCAnLW9tYWUnLCAnPG91dGZpbGUubWFlPic=

> <r_lp_tautomer_probability>
1

> <r_epik_Ionization_Penalty>
0.00481831

> <r_epik_Ionization_Penalty_Charging>
0

> <r_epik_Ionization_Penalty_Neutral>
0.00481831

> <r_epik_State_Penalty>
0.00349373

> <r_epik_Charging_Adjusted_Penalty>
0.00349373

> <i_epik_Tot_Q>
0

> <i_epik_Tot_abs_Q>
0

> <r_epik_Metal_State_Penalty>
-0

> <b_epik_Metal_Only>
0

> <s_lp_Force_Field>
OPLS_2005

> <r_lp_Energy>
17.1102

> <b_lp_Chiralities_Consistent>
1

> <s_lp_Variant>
AV-unprocessed.smi:1390-2

> <Gold.Version>
5.8.1

> <Gold.Id.Protein>
6NUR|6NUR_protein|mol2

> <Gold.PLP.Fitness>
48.3293

> <Gold.PLP.PLP>
-46.8648

> <Gold.PLP.part.hbond>
-1.4874

> <Gold.PLP.part.metal>
0.0000

> <Gold.PLP.part.buried>
-4.9009

> <Gold.PLP.part.nonpolar>
-40.8696

> <Gold.PLP.part.repulsive>
0.3470

> <Gold.PLP.ligand.clash>
0.0000

> <Gold.PLP.ligand.torsion>
0.8869

> <Gold.PLP.Chemscore.Hbond>
0.9500

> <Gold.PLP.Chemscore.CHOScore>
0.0000

> <Gold.PLP.Chemscore.Metal>
0.0000

> <Gold.Chemscore.Hbonds>
donor molecule, donor type, donor heavy atom, donor atom, acceptor molecule, acceptor atom, score
      P1  H  7997  8008       L1    21  0.95

> <Gold.PLP.Chemscore.Internal.Correction>
0.3882

> <Gold.Rescore>
     Score         DG    S(hbond)    S(metal)    S(lipo)     H(rot)  DE(clash)    DE(int)     intcor
     12.98     -14.05       0.81        0.00     106.28       2.57       0.33       0.73       ----

> <Gold.Chemscore.Fitness>
12.9842

> <Gold.Chemscore.DG>
-14.0468

> <Gold.Chemscore.ZeroCoef>
-5.4800

> <Gold.Chemscore.Hbond>
0.8086

> <Gold.Chemscore.Metal>
0.0000

> <Gold.Chemscore.Lipo>
106.2750

> <Gold.Chemscore.Internal_Hbond>
0.0000

> <Gold.Chemscore.DEClash>
0.3322

> <Gold.Chemscore.DEInternal>
0.7305

> <Gold.Chemscore.Rot>
2.5657

> <Gold.Chemscore.Internal.Correction>
   9.000000E+99

> <Gold.Chemscore.Hbonds>
donor molecule, donor type, donor heavy atom, donor atom, acceptor molecule, acceptor atom, score
      P1  H  7997  8008       L1    21  0.21

> <Gold.Chemscore.Hbond.Weighted>
-2.7008

> <Gold.Chemscore.Metal.Weighted>
-0.0000

> <Gold.Chemscore.Lipo.Weighted>
-12.4342

> <Gold.Chemscore.Internal_Hbond.Weighted>
0.0000

> <Gold.Chemscore.DEClash.Weighted>
0.3322

> <Gold.Chemscore.DEInternal.Weighted>
0.7305

> <Gold.Chemscore.Rot.Weighted>
6.5682

> <Gold.Chemscore.Internal.Correction.Weighted>
   9.000000E+99

> <Gold.Protein.RotatedTorsions>
[ 6907 6896 6895 6894 ] final   30.36 input  -60.11 | X-H torsion
[ 7974 7965 7964 7962 ] final  -92.11 input  175.53 | X-H torsion
[ 8008 7997 7996 7995 ] final  -54.10 input   59.86 | X-H torsion
[ 10167 10162 10161 10158 ] final   -2.96 input  -65.29 | X-H torsion
[ 10718 10713 10712 10709 ] final  -62.37 input   66.30 | X-H torsion
[ 10763 10752 10751 10750 ] final   28.70 input  -60.55 | X-H torsion
[ 11005 11000 10999 10996 ] final  -22.84 input  -57.11 | X-H torsion

> <Gold.Protein.ActiveResidues>
 VAL166  LYS551  ARG553  GLY616  TRP617  ASP618  TYR619  PRO620  LYS621  CYS622 
 ASP623  PHE694  ASN695  SER759  ASP760  ASP761  ALA762  ILE779  LEU786  VAL792 
 PHE793  MET794  SER795  GLU796  ALA797  LYS798  CYS799  TRP800  GLU811  SER814 

> <Gold.Protein.RotatedAtoms>
  152.0449  134.9689  160.0574 H   0  0  0  0  0  0  0  0  0  0  0  0  # atno 6907 bound_to 6896
  152.1113  133.4297  159.4640 H   0  0  0  0  0  0  0  0  0  0  0  0  # atno 6908 bound_to 6896
  150.6843  134.2563  159.4574 H   0  0  0  0  0  0  0  0  0  0  0  0  # atno 6909 bound_to 6896
  145.4041  140.9540  143.2270 H   0  0  0  0  0  0  0  0  0  0  0  0  # atno 7974 bound_to 7965
  154.4152  140.1184  156.5260 H   0  0  0  0  0  0  0  0  0  0  0  0  # atno 8008 bound_to 7997
  155.6654  140.3496  155.4779 H   0  0  0  0  0  0  0  0  0  0  0  0  # atno 8009 bound_to 7997
  155.9678  140.1135  157.0829 H   0  0  0  0  0  0  0  0  0  0  0  0  # atno 8010 bound_to 7997
  140.6872  143.6595  150.8279 H   0  0  0  0  0  0  0  0  0  0  0  0  # atno 10167 bound_to 10162
  156.0860  130.4208  150.1126 H   0  0  0  0  0  0  0  0  0  0  0  0  # atno 10718 bound_to 10713
  153.0476  135.6507  154.0777 H   0  0  0  0  0  0  0  0  0  0  0  0  # atno 10763 bound_to 10752
  154.0472  135.2898  155.3347 H   0  0  0  0  0  0  0  0  0  0  0  0  # atno 10764 bound_to 10752
  154.6743  135.5344  153.8245 H   0  0  0  0  0  0  0  0  0  0  0  0  # atno 10765 bound_to 10752
  140.8695  133.7730  156.0169 H   0  0  0  0  0  0  0  0  0  0  0  0  # atno 11005 bound_to 11000
  144.8353  139.5560  143.6925 LP  0  0  0  0  0  0  0  0  0  0  0  0  # atno 17320 bound_to 7965
  146.2737  139.6699  142.9278 LP  0  0  0  0  0  0  0  0  0  0  0  0  # atno 17321 bound_to 7965
  140.0304  143.5450  152.2762 LP  0  0  0  0  0  0  0  0  0  0  0  0  # atno 17342 bound_to 10162
  139.6240  144.7634  151.2678 LP  0  0  0  0  0  0  0  0  0  0  0  0  # atno 17343 bound_to 10162
  156.9147  130.9663  151.3558 LP  0  0  0  0  0  0  0  0  0  0  0  0  # atno 17370 bound_to 10713
  157.5994  130.8501  149.8778 LP  0  0  0  0  0  0  0  0  0  0  0  0  # atno 17371 bound_to 10713
  140.8590  134.2864  157.5243 LP  0  0  0  0  0  0  0  0  0  0  0  0  # atno 17394 bound_to 11000
  139.8711  134.9508  156.4066 LP  0  0  0  0  0  0  0  0  0  0  0  0  # atno 17395 bound_to 11000

$$$$
