AV-unprocessed.smi:1718|AV-procd|sdf|6925|dock4
  -GOLD-   22720 8133D 1   1.00000     0.00000
 Structure written by MMmdl.
 40 41  0  0  0  0  0  0  0  0  1 V2000
  156.5064  138.6423  160.7724 C   0  0  0  0  0  0  0  0  0  0  0  0
  155.4365  138.9548  161.8285 C   0  0  1  0  0  0  0  0  0  0  0  0
  156.1052  139.1446  163.0727 O   0  0  0  0  0  0  0  0  0  0  0  0
  155.3193  138.8981  164.2336 C   0  0  0  0  0  0  0  0  0  0  0  0
  155.8854  139.7198  165.3974 C   0  0  1  0  0  0  0  0  0  0  0  0
  155.3460  141.1490  165.4706 C   0  0  0  0  0  0  0  0  0  0  0  0
  155.4707  141.4499  166.9464 C   0  0  0  0  0  0  0  0  0  0  0  0
  155.0878  140.1088  167.5628 C   0  0  0  0  0  0  0  0  0  0  0  0
  155.5397  139.1181  166.6434 O   0  0  0  0  0  0  0  0  0  0  0  0
  154.6400  140.2156  161.4559 C   0  0  0  0  0  0  0  0  0  0  0  0
  154.6184  141.1696  162.2338 O   0  0  0  0  0  0  0  0  0  0  0  0
  154.0064  140.1709  160.2675 N   0  0  0  0  0  0  0  0  0  0  0  0
  153.1463  141.1169  159.6862 C   0  0  0  0  0  0  0  0  0  0  0  0
  152.7437  142.2662  160.2880 C   0  0  0  0  0  0  0  0  0  0  0  0
  151.8349  143.1970  159.6427 C   0  0  0  0  0  0  0  0  0  0  0  0
  151.4218  144.4869  160.3328 C   0  0  0  0  0  0  0  0  0  0  0  0
  151.9163  144.5694  161.5687 F   0  0  0  0  0  0  0  0  0  0  0  0
  151.8562  145.5366  159.6364 F   0  0  0  0  0  0  0  0  0  0  0  0
  150.0934  144.5640  160.4061 F   0  0  0  0  0  0  0  0  0  0  0  0
  151.4006  142.8599  158.4138 C   0  0  0  0  0  0  0  0  0  0  0  0
  151.7991  141.6731  157.7938 N   0  0  0  0  0  0  0  0  0  0  0  0
  152.6415  140.7715  158.3471 C   0  0  0  0  0  0  0  0  0  0  0  0
  152.9408  139.7450  157.7379 O   0  0  0  0  0  0  0  0  0  0  0  0
  151.4248  141.4879  156.8742 H   0  0  0  0  0  0  0  0  0  0  0  0
  156.0608  138.4979  159.7875 H   0  0  0  0  0  0  0  0  0  0  0  0
  157.0437  137.7285  161.0268 H   0  0  0  0  0  0  0  0  0  0  0  0
  157.2409  139.4450  160.6947 H   0  0  0  0  0  0  0  0  0  0  0  0
  154.7665  138.0961  161.9062 H   0  0  0  0  0  0  0  0  0  0  0  0
  154.2718  139.1575  164.0758 H   0  0  0  0  0  0  0  0  0  0  0  0
  155.3576  137.8361  164.4798 H   0  0  0  0  0  0  0  0  0  0  0  0
  156.9747  139.7456  165.3413 H   0  0  0  0  0  0  0  0  0  0  0  0
  155.9019  141.8455  164.8424 H   0  0  0  0  0  0  0  0  0  0  0  0
  154.2970  141.1827  165.1719 H   0  0  0  0  0  0  0  0  0  0  0  0
  156.5038  141.6981  167.1933 H   0  0  0  0  0  0  0  0  0  0  0  0
  154.8315  142.2700  167.2746 H   0  0  0  0  0  0  0  0  0  0  0  0
  155.5215  139.9645  168.5525 H   0  0  0  0  0  0  0  0  0  0  0  0
  154.0037  140.0289  167.6529 H   0  0  0  0  0  0  0  0  0  0  0  0
  154.1882  139.3590  159.6946 H   0  0  0  0  0  0  0  0  0  0  0  0
  153.0706  142.5176  161.2840 H   0  0  0  0  0  0  0  0  0  0  0  0
  150.7277  143.4580  157.8172 H   0  0  0  0  0  0  0  0  0  0  0  0
  1  2  1  0  0  0  0
  1 25  1  0  0  0  0
  1 26  1  0  0  0  0
  1 27  1  0  0  0  0
  2  3  1  0  0  0  0
  2 10  1  0  0  0  0
  2 28  1  0  0  0  0
  3  4  1  0  0  0  0
  4  5  1  0  0  0  0
  4 29  1  0  0  0  0
  4 30  1  0  0  0  0
  5  9  1  0  0  0  0
  5  6  1  0  0  0  0
  5 31  1  0  0  0  0
  6  7  1  0  0  0  0
  6 32  1  0  0  0  0
  6 33  1  0  0  0  0
  7  8  1  0  0  0  0
  7 34  1  0  0  0  0
  7 35  1  0  0  0  0
  8  9  1  0  0  0  0
  8 36  1  0  0  0  0
  8 37  1  0  0  0  0
 10 11  2  0  0  0  0
 10 12  1  0  0  0  0
 12 13  1  0  0  0  0
 12 38  1  0  0  0  0
 13 22  1  0  0  0  0
 13 14  2  0  0  0  0
 14 15  1  0  0  0  0
 14 39  1  0  0  0  0
 15 16  1  0  0  0  0
 15 20  2  0  0  0  0
 16 17  1  0  0  0  0
 16 18  1  0  0  0  0
 16 19  1  0  0  0  0
 20 21  1  0  0  0  0
 20 40  1  0  0  0  0
 21 24  1  0  0  0  0
 21 22  1  0  0  0  0
 22 23  2  0  0  0  0
M  END
> <s_m_source_file>
AV-unprocessed.smi

> <i_m_source_file_index>
1718

> <i_lp_mmshare_version>
43012

> <i_f3d_flags>
0

> <s_epik_input>
TzFbQ0gyXVtDSDJdW0NIMl1bQ0BIXTFbQ0gyXU9bQ0BASF0oW0NIM10pQyg9TylbTkhdYzJbY0hdYyhDKEYpKEYpRilbY0hdW25IXWMyPU8=

> <s_epik_cmdline>
J2VwaWtfcHl0aG9uJywgJy1waCcsICc3LjAnLCAnLXRuJywgJzgnLCAnLW1hJywgJzIwMCcsICctbWV0YWxfYmluZGluZycsICctaW1hZScsICc8aW5maWxlLm1hZT4nLCAnLW9tYWUnLCAnPG91dGZpbGUubWFlPic=

> <r_lp_tautomer_probability>
0.999

> <r_epik_Ionization_Penalty>
0.00894336

> <r_epik_Ionization_Penalty_Charging>
0.00894326

> <r_epik_Ionization_Penalty_Neutral>
1.00145e-07

> <r_epik_State_Penalty>
0.00676626

> <r_epik_Charging_Adjusted_Penalty>
0.0157095

> <i_epik_Tot_Q>
0

> <i_epik_Tot_abs_Q>
0

> <r_epik_Metal_State_Penalty>
0.321145

> <b_epik_Metal_Only>
0

> <s_lp_Force_Field>
OPLS_2005

> <r_lp_Energy>
34.4612

> <b_lp_Chiralities_Consistent>
1

> <s_lp_Variant>
AV-unprocessed.smi:1718-4

> <Gold.Version>
5.8.1

> <Gold.Id.Protein>
6NUR|6NUR_protein|mol2

> <Gold.PLP.Fitness>
45.0446

> <Gold.PLP.PLP>
-43.3300

> <Gold.PLP.part.hbond>
-2.0808

> <Gold.PLP.part.metal>
0.0000

> <Gold.PLP.part.buried>
-5.8734

> <Gold.PLP.part.nonpolar>
-35.0852

> <Gold.PLP.part.repulsive>
0.2134

> <Gold.PLP.ligand.clash>
0.0000

> <Gold.PLP.ligand.torsion>
0.7530

> <Gold.PLP.Chemscore.Hbond>
1.0000

> <Gold.PLP.Chemscore.CHOScore>
0.0000

> <Gold.PLP.Chemscore.Metal>
0.0000

> <Gold.Chemscore.Hbonds>
donor molecule, donor type, donor heavy atom, donor atom, acceptor molecule, acceptor atom, score
      P1  H  7997  8009       L1    23  1.00

> <Gold.PLP.Chemscore.Internal.Correction>
0.2205

> <Gold.Rescore>
     Score         DG    S(hbond)    S(metal)    S(lipo)     H(rot)  DE(clash)    DE(int)     intcor
     10.05     -12.92       0.68        0.00      85.34       1.88       0.87       2.00       ----

> <Gold.Chemscore.Fitness>
10.0518

> <Gold.Chemscore.DG>
-12.9205

> <Gold.Chemscore.ZeroCoef>
-5.4800

> <Gold.Chemscore.Hbond>
0.6785

> <Gold.Chemscore.Metal>
0.0000

> <Gold.Chemscore.Lipo>
85.3372

> <Gold.Chemscore.Internal_Hbond>
0.0000

> <Gold.Chemscore.DEClash>
0.8654

> <Gold.Chemscore.DEInternal>
2.0033

> <Gold.Chemscore.Rot>
1.8790

> <Gold.Chemscore.Internal.Correction>
   9.000000E+99

> <Gold.Chemscore.Hbonds>
donor molecule, donor type, donor heavy atom, donor atom, acceptor molecule, acceptor atom, score
      P1  H  7997  8009       L1    23  0.60

> <Gold.Chemscore.Hbond.Weighted>
-2.2662

> <Gold.Chemscore.Metal.Weighted>
-0.0000

> <Gold.Chemscore.Lipo.Weighted>
-9.9844

> <Gold.Chemscore.Internal_Hbond.Weighted>
0.0000

> <Gold.Chemscore.DEClash.Weighted>
0.8654

> <Gold.Chemscore.DEInternal.Weighted>
2.0033

> <Gold.Chemscore.Rot.Weighted>
4.8102

> <Gold.Chemscore.Internal.Correction.Weighted>
   9.000000E+99

> <Gold.Protein.RotatedTorsions>
[ 6907 6896 6895 6894 ] final   81.34 input  -60.11 | X-H torsion
[ 7974 7965 7964 7962 ] final  -37.97 input  175.53 | X-H torsion
[ 8008 7997 7996 7995 ] final  158.96 input   59.86 | X-H torsion
[ 10167 10162 10161 10158 ] final  158.80 input  -65.29 | X-H torsion
[ 10718 10713 10712 10709 ] final  -72.03 input   66.30 | X-H torsion
[ 10763 10752 10751 10750 ] final  -43.72 input  -60.55 | X-H torsion
[ 11005 11000 10999 10996 ] final   55.26 input  -57.11 | X-H torsion

> <Gold.Protein.ActiveResidues>
 VAL166  LYS551  ARG553  GLY616  TRP617  ASP618  TYR619  PRO620  LYS621  CYS622 
 ASP623  PHE694  ASN695  SER759  ASP760  ASP761  ALA762  ILE779  LEU786  VAL792 
 PHE793  MET794  SER795  GLU796  ALA797  LYS798  CYS799  TRP800  GLU811  SER814 

> <Gold.Protein.RotatedAtoms>
  152.5265  134.3218  159.9150 H   0  0  0  0  0  0  0  0  0  0  0  0  # atno 6907 bound_to 6896
  151.3167  133.4051  159.2659 H   0  0  0  0  0  0  0  0  0  0  0  0  # atno 6908 bound_to 6896
  150.9993  134.9326  159.8002 H   0  0  0  0  0  0  0  0  0  0  0  0  # atno 6909 bound_to 6896
  146.0528  140.6457  142.9034 H   0  0  0  0  0  0  0  0  0  0  0  0  # atno 7974 bound_to 7965
  156.2270  140.1844  156.7339 H   0  0  0  0  0  0  0  0  0  0  0  0  # atno 8008 bound_to 7997
  154.5957  140.0644  156.9328 H   0  0  0  0  0  0  0  0  0  0  0  0  # atno 8009 bound_to 7997
  155.2260  140.3311  155.4312 H   0  0  0  0  0  0  0  0  0  0  0  0  # atno 8010 bound_to 7997
  139.4828  144.4790  151.8470 H   0  0  0  0  0  0  0  0  0  0  0  0  # atno 10167 bound_to 10162
  156.0337  130.4363  150.2531 H   0  0  0  0  0  0  0  0  0  0  0  0  # atno 10718 bound_to 10713
  154.0003  135.6694  153.4759 H   0  0  0  0  0  0  0  0  0  0  0  0  # atno 10763 bound_to 10752
  153.0665  135.4998  154.8208 H   0  0  0  0  0  0  0  0  0  0  0  0  # atno 10764 bound_to 10752
  154.7057  135.3087  154.9237 H   0  0  0  0  0  0  0  0  0  0  0  0  # atno 10765 bound_to 10752
  140.0621  134.5588  155.9140 H   0  0  0  0  0  0  0  0  0  0  0  0  # atno 11005 bound_to 11000
  144.7132  140.4114  143.7064 LP  0  0  0  0  0  0  0  0  0  0  0  0  # atno 17320 bound_to 7965
  145.6695  139.1596  143.2763 LP  0  0  0  0  0  0  0  0  0  0  0  0  # atno 17321 bound_to 7965
  140.4265  144.2173  150.5887 LP  0  0  0  0  0  0  0  0  0  0  0  0  # atno 17342 bound_to 10162
  140.4822  143.2375  151.8939 LP  0  0  0  0  0  0  0  0  0  0  0  0  # atno 17343 bound_to 10162
  157.0632  131.0096  151.3215 LP  0  0  0  0  0  0  0  0  0  0  0  0  # atno 17370 bound_to 10713
  157.5055  130.7906  149.7649 LP  0  0  0  0  0  0  0  0  0  0  0  0  # atno 17371 bound_to 10713
  141.1977  133.6598  156.5756 LP  0  0  0  0  0  0  0  0  0  0  0  0  # atno 17394 bound_to 11000
  140.3755  134.7569  157.4626 LP  0  0  0  0  0  0  0  0  0  0  0  0  # atno 17395 bound_to 11000

$$$$
