AV-unprocessed.smi:3085|AV-procd|sdf|11751|dock2
  -GOLD-   2272017143D 1   1.00000     0.00000
 Structure written by MMmdl.
 28 29  0  0  0  0  0  0  0  0  2 V2000
  152.6157  142.5322  159.4706 C   0  0  0  0  0  0  0  0  0  0  0  0
  151.7183  143.0869  158.3592 C   0  0  0  0  0  0  0  0  0  0  0  0
  151.2237  142.0218  157.4365 C   0  0  0  0  0  0  0  0  0  0  0  0
  150.4818  142.2293  156.3537 N   0  0  0  0  0  0  0  0  0  0  0  0
  150.3017  140.9414  155.9305 C   0  0  0  0  0  0  0  0  0  0  0  0
  149.5506  140.6107  154.6780 C   0  0  1  0  0  0  0  0  0  0  0  0
  149.5506  139.0990  154.3806 C   0  0  0  0  0  0  0  0  0  0  0  0
  148.7187  138.8212  153.1938 N   0  3  0  0  0  0  0  0  0  0  0  0
  147.3547  139.3642  153.3510 C   0  0  0  0  0  0  0  0  0  0  0  0
  147.4161  140.8645  153.6889 C   0  0  0  0  0  0  0  0  0  0  0  0
  148.2094  141.0637  154.8545 O   0  0  0  0  0  0  0  0  0  0  0  0
  150.8982  139.9998  156.6627 N   0  0  0  0  0  0  0  0  0  0  0  0
  151.4760  140.7274  157.6413 N   0  0  0  0  0  0  0  0  0  0  0  0
  152.0152  140.3170  158.3906 H   0  0  0  0  0  0  0  0  0  0  0  0
  152.9593  143.3316  160.1273 H   0  0  0  0  0  0  0  0  0  0  0  0
  153.4956  142.0388  159.0567 H   0  0  0  0  0  0  0  0  0  0  0  0
  152.0804  141.8053  160.0820 H   0  0  0  0  0  0  0  0  0  0  0  0
  150.8596  143.5976  158.7966 H   0  0  0  0  0  0  0  0  0  0  0  0
  152.2626  143.8346  157.7811 H   0  0  0  0  0  0  0  0  0  0  0  0
  150.0055  141.1552  153.8482 H   0  0  0  0  0  0  0  0  0  0  0  0
  150.5649  138.7399  154.2042 H   0  0  0  0  0  0  0  0  0  0  0  0
  149.1540  138.5417  155.2307 H   0  0  0  0  0  0  0  0  0  0  0  0
  149.1487  139.2547  152.3891 H   0  0  0  0  0  0  0  0  0  0  0  0
  146.7914  139.1999  152.4322 H   0  0  0  0  0  0  0  0  0  0  0  0
  146.8420  138.8198  154.1452 H   0  0  0  0  0  0  0  0  0  0  0  0
  147.8271  141.4350  152.8545 H   0  0  0  0  0  0  0  0  0  0  0  0
  146.4132  141.2497  153.8734 H   0  0  0  0  0  0  0  0  0  0  0  0
  148.6689  137.8234  153.0437 H   0  0  0  0  0  0  0  0  0  0  0  0
  1  2  1  0  0  0  0
  1 15  1  0  0  0  0
  1 16  1  0  0  0  0
  1 17  1  0  0  0  0
  2  3  1  0  0  0  0
  2 18  1  0  0  0  0
  2 19  1  0  0  0  0
  3 13  1  0  0  0  0
  3  4  2  0  0  0  0
  4  5  1  0  0  0  0
  5  6  1  0  0  0  0
  5 12  2  0  0  0  0
  6 11  1  0  0  0  0
  6  7  1  0  0  0  0
  6 20  1  0  0  0  0
  7  8  1  0  0  0  0
  7 21  1  0  0  0  0
  7 22  1  0  0  0  0
  8  9  1  0  0  0  0
  8 23  1  0  0  0  0
  8 28  1  0  0  0  0
  9 10  1  0  0  0  0
  9 24  1  0  0  0  0
  9 25  1  0  0  0  0
 10 11  1  0  0  0  0
 10 26  1  0  0  0  0
 10 27  1  0  0  0  0
 12 13  1  0  0  0  0
 13 14  1  0  0  0  0
M  CHG  1   8   1
M  END
> <s_m_source_file>
AV-unprocessed.smi

> <i_m_source_file_index>
3085

> <i_lp_mmshare_version>
43012

> <i_f3d_flags>
0

> <s_epik_input>
W0NIM11bQ0gyXWMxbmMobltuSF0xKVtDQEBIXTJbQ0gyXVtOSF1bQ0gyXVtDSDJdTzI=

> <s_epik_cmdline>
J2VwaWtfcHl0aG9uJywgJy1waCcsICc3LjAnLCAnLXRuJywgJzgnLCAnLW1hJywgJzIwMCcsICctbWV0YWxfYmluZGluZycsICctaW1hZScsICc8aW5maWxlLm1hZT4nLCAnLW9tYWUnLCAnPG91dGZpbGUubWFlPic=

> <r_lp_tautomer_probability>
0.948284

> <r_epik_Ionization_Penalty>
0.107151

> <r_epik_Ionization_Penalty_Charging>
0.100865

> <r_epik_Ionization_Penalty_Neutral>
0.00628602

> <r_epik_State_Penalty>
0.429695

> <r_epik_Charging_Adjusted_Penalty>
0.530559

> <i_epik_Tot_Q>
1

> <i_epik_Tot_abs_Q>
1

> <r_epik_Metal_State_Penalty>
0.651827

> <b_epik_Metal_Only>
0

> <s_lp_Force_Field>
OPLS_2005

> <r_lp_Energy>
10.0575

> <b_lp_Chiralities_Consistent>
1

> <s_lp_Variant>
AV-unprocessed.smi:3085-2

> <Gold.Version>
5.8.1

> <Gold.Id.Protein>
6NUR|6NUR_protein|mol2

> <Gold.PLP.Fitness>
32.7041

> <Gold.PLP.PLP>
-24.0059

> <Gold.PLP.part.hbond>
-1.9475

> <Gold.PLP.part.metal>
0.0000

> <Gold.PLP.part.buried>
-3.8641

> <Gold.PLP.part.nonpolar>
-19.8548

> <Gold.PLP.part.repulsive>
0.8289

> <Gold.PLP.ligand.clash>
0.0000

> <Gold.PLP.ligand.torsion>
0.0247

> <Gold.PLP.Chemscore.Hbond>
2.9108

> <Gold.PLP.Chemscore.CHOScore>
0.0000

> <Gold.PLP.Chemscore.Metal>
0.0000

> <Gold.Chemscore.Hbonds>
donor molecule, donor type, donor heavy atom, donor atom, acceptor molecule, acceptor atom, score
      L1  H     8    23       P1  7957  0.98
      L1  H     8    28       P1  7948  1.95

> <Gold.PLP.Chemscore.Internal.Correction>
0.0153

> <Gold.Rescore>
     Score         DG    S(hbond)    S(metal)    S(lipo)     H(rot)  DE(clash)    DE(int)     intcor
     14.19     -14.21       1.91        0.00      48.58       1.30       0.00       0.01       ----

> <Gold.Chemscore.Fitness>
14.1940

> <Gold.Chemscore.DG>
-14.2105

> <Gold.Chemscore.ZeroCoef>
-5.4800

> <Gold.Chemscore.Hbond>
1.9093

> <Gold.Chemscore.Metal>
0.0000

> <Gold.Chemscore.Lipo>
48.5816

> <Gold.Chemscore.Internal_Hbond>
0.0000

> <Gold.Chemscore.DEClash>
0.0048

> <Gold.Chemscore.DEInternal>
0.0117

> <Gold.Chemscore.Rot>
1.3011

> <Gold.Chemscore.Internal.Correction>
   9.000000E+99

> <Gold.Chemscore.Hbonds>
donor molecule, donor type, donor heavy atom, donor atom, acceptor molecule, acceptor atom, score
      L1  H     8    23       P1  7957  0.91
      L1  H     8    28       P1  7948  0.91

> <Gold.Chemscore.Hbond.Weighted>
-6.3772

> <Gold.Chemscore.Metal.Weighted>
-0.0000

> <Gold.Chemscore.Lipo.Weighted>
-5.6840

> <Gold.Chemscore.Internal_Hbond.Weighted>
0.0000

> <Gold.Chemscore.DEClash.Weighted>
0.0048

> <Gold.Chemscore.DEInternal.Weighted>
0.0117

> <Gold.Chemscore.Rot.Weighted>
3.3308

> <Gold.Chemscore.Internal.Correction.Weighted>
   9.000000E+99

> <Gold.Protein.RotatedTorsions>
[ 6907 6896 6895 6894 ] final  152.02 input  -60.11 | X-H torsion
[ 7974 7965 7964 7962 ] final -120.21 input  175.53 | X-H torsion
[ 8008 7997 7996 7995 ] final  159.02 input   59.86 | X-H torsion
[ 10167 10162 10161 10158 ] final -128.50 input  -65.29 | X-H torsion
[ 10718 10713 10712 10709 ] final  124.96 input   66.30 | X-H torsion
[ 10763 10752 10751 10750 ] final -118.33 input  -60.55 | X-H torsion
[ 11005 11000 10999 10996 ] final  148.49 input  -57.11 | X-H torsion

> <Gold.Protein.ActiveResidues>
 VAL166  LYS551  ARG553  GLY616  TRP617  ASP618  TYR619  PRO620  LYS621  CYS622 
 ASP623  PHE694  ASN695  SER759  ASP760  ASP761  ALA762  ILE779  LEU786  VAL792 
 PHE793  MET794  SER795  GLU796  ALA797  LYS798  CYS799  TRP800  GLU811  SER814 

> <Gold.Protein.RotatedAtoms>
  152.0925  133.4208  159.4549 H   0  0  0  0  0  0  0  0  0  0  0  0  # atno 6907 bound_to 6896
  150.6862  134.2855  159.4654 H   0  0  0  0  0  0  0  0  0  0  0  0  # atno 6908 bound_to 6896
  152.0708  134.9534  160.0625 H   0  0  0  0  0  0  0  0  0  0  0  0  # atno 6909 bound_to 6896
  145.0539  140.8239  143.4193 H   0  0  0  0  0  0  0  0  0  0  0  0  # atno 7974 bound_to 7965
  156.2265  140.1842  156.7349 H   0  0  0  0  0  0  0  0  0  0  0  0  # atno 8008 bound_to 7997
  154.5950  140.0645  156.9319 H   0  0  0  0  0  0  0  0  0  0  0  0  # atno 8009 bound_to 7997
  155.2271  140.3312  155.4310 H   0  0  0  0  0  0  0  0  0  0  0  0  # atno 8010 bound_to 7997
  139.9497  143.6070  152.2479 H   0  0  0  0  0  0  0  0  0  0  0  0  # atno 10167 bound_to 10162
  157.5542  131.1093  150.8650 H   0  0  0  0  0  0  0  0  0  0  0  0  # atno 10718 bound_to 10713
  154.8584  135.4277  154.2122 H   0  0  0  0  0  0  0  0  0  0  0  0  # atno 10763 bound_to 10752
  153.3145  135.6978  153.7091 H   0  0  0  0  0  0  0  0  0  0  0  0  # atno 10764 bound_to 10752
  153.6170  135.3509  155.2972 H   0  0  0  0  0  0  0  0  0  0  0  0  # atno 10765 bound_to 10752
  140.0964  134.9010  157.1729 H   0  0  0  0  0  0  0  0  0  0  0  0  # atno 11005 bound_to 11000
  145.1493  139.2524  143.5449 LP  0  0  0  0  0  0  0  0  0  0  0  0  # atno 17320 bound_to 7965
  146.3520  140.1191  142.8601 LP  0  0  0  0  0  0  0  0  0  0  0  0  # atno 17321 bound_to 7965
  139.6638  144.7662  151.1911 LP  0  0  0  0  0  0  0  0  0  0  0  0  # atno 17342 bound_to 10162
  140.7586  143.5969  150.8739 LP  0  0  0  0  0  0  0  0  0  0  0  0  # atno 17343 bound_to 10162
  156.9166  130.5300  149.5279 LP  0  0  0  0  0  0  0  0  0  0  0  0  # atno 17370 bound_to 10713
  156.0603  130.5657  150.9179 LP  0  0  0  0  0  0  0  0  0  0  0  0  # atno 17371 bound_to 10713
  140.3280  134.2841  155.7233 LP  0  0  0  0  0  0  0  0  0  0  0  0  # atno 17394 bound_to 11000
  141.2093  133.7752  157.0004 LP  0  0  0  0  0  0  0  0  0  0  0  0  # atno 17395 bound_to 11000

$$$$
