AV-unprocessed.smi:1586|AV-procd|sdf|6377|dock10
  -GOLD-   22720 7 03D 1   1.00000     0.00000
 Structure written by MMmdl.
 46 47  0  0  0  0  0  0  0  0  1 V2000
  152.4844  144.0568  158.8637 C   0  0  0  0  0  0  0  0  0  0  0  0
  152.1160  142.6525  159.3645 C   0  0  0  0  0  0  0  0  0  0  0  0
  152.0188  141.6332  158.3216 N   0  0  0  0  0  0  0  0  0  0  0  0
  152.3026  140.2893  158.8218 C   0  0  0  0  0  0  0  0  0  0  0  0
  152.1952  139.2329  157.7062 C   0  0  0  0  0  0  0  0  0  0  0  0
  150.8636  139.2022  157.0807 N   0  0  0  0  0  0  0  0  0  0  0  0
  150.7665  138.1985  155.9954 C   0  0  2  0  0  0  0  0  0  0  0  0
  151.6003  138.5838  154.7470 C   0  0  0  0  0  0  0  0  0  0  0  0
  149.3028  137.9115  155.5497 C   0  0  0  0  0  0  0  0  0  0  0  0
  149.1758  136.7326  154.6966 N   0  0  0  0  0  0  0  0  0  0  0  0
  149.2149  135.4634  155.1277 C   0  0  0  0  0  0  0  0  0  0  0  0
  149.3571  135.1546  156.3107 O   0  0  0  0  0  0  0  0  0  0  0  0
  149.0822  134.5991  154.1074 N   0  0  0  0  0  0  0  0  0  0  0  0
  149.0760  133.1808  154.1481 C   0  0  0  0  0  0  0  0  0  0  0  0
  148.3234  132.3147  153.3023 C   0  0  0  0  0  0  0  0  0  0  0  0
  148.6725  131.0716  153.7489 C   0  0  0  0  0  0  0  0  0  0  0  0
  148.2772  129.6964  153.3326 C   0  0  0  0  0  0  0  0  0  0  0  0
  149.5577  131.1685  154.7768 O   0  0  0  0  0  0  0  0  0  0  0  0
  149.8107  132.5224  155.0257 N   0  0  0  0  0  0  0  0  0  0  0  0
  150.5723  140.5657  156.6104 C   0  0  0  0  0  0  0  0  0  0  0  0
  150.6837  141.6139  157.7325 C   0  0  0  0  0  0  0  0  0  0  0  0
  152.4317  144.7792  159.6783 H   0  0  0  0  0  0  0  0  0  0  0  0
  151.7991  144.3877  158.0830 H   0  0  0  0  0  0  0  0  0  0  0  0
  153.4974  144.0948  158.4639 H   0  0  0  0  0  0  0  0  0  0  0  0
  152.8296  142.3381  160.1276 H   0  0  0  0  0  0  0  0  0  0  0  0
  151.1523  142.7294  159.8697 H   0  0  0  0  0  0  0  0  0  0  0  0
  153.3082  140.2478  159.2387 H   0  0  0  0  0  0  0  0  0  0  0  0
  151.6170  140.0378  159.6328 H   0  0  0  0  0  0  0  0  0  0  0  0
  152.9605  139.4162  156.9503 H   0  0  0  0  0  0  0  0  0  0  0  0
  152.4272  138.2746  158.1653 H   0  0  0  0  0  0  0  0  0  0  0  0
  151.1779  137.2615  156.3738 H   0  0  0  0  0  0  0  0  0  0  0  0
  151.4823  137.8721  153.9309 H   0  0  0  0  0  0  0  0  0  0  0  0
  152.6695  138.6009  154.9535 H   0  0  0  0  0  0  0  0  0  0  0  0
  151.3132  139.5655  154.3689 H   0  0  0  0  0  0  0  0  0  0  0  0
  148.6377  137.7542  156.3975 H   0  0  0  0  0  0  0  0  0  0  0  0
  148.9072  138.7689  155.0046 H   0  0  0  0  0  0  0  0  0  0  0  0
  149.0555  136.8984  153.7080 H   0  0  0  0  0  0  0  0  0  0  0  0
  148.9725  135.0034  153.1891 H   0  0  0  0  0  0  0  0  0  0  0  0
  147.6403  132.5467  152.4996 H   0  0  0  0  0  0  0  0  0  0  0  0
  147.7533  129.7146  152.3768 H   0  0  0  0  0  0  0  0  0  0  0  0
  147.6166  129.2439  154.0721 H   0  0  0  0  0  0  0  0  0  0  0  0
  149.1536  129.0574  153.2244 H   0  0  0  0  0  0  0  0  0  0  0  0
  151.2427  140.8307  155.7912 H   0  0  0  0  0  0  0  0  0  0  0  0
  149.5578  140.6275  156.2213 H   0  0  0  0  0  0  0  0  0  0  0  0
  149.9367  141.4090  158.5013 H   0  0  0  0  0  0  0  0  0  0  0  0
  150.4476  142.5973  157.3247 H   0  0  0  0  0  0  0  0  0  0  0  0
  1  2  1  0  0  0  0
  1 22  1  0  0  0  0
  1 23  1  0  0  0  0
  1 24  1  0  0  0  0
  2  3  1  0  0  0  0
  2 25  1  0  0  0  0
  2 26  1  0  0  0  0
  3 21  1  0  0  0  0
  3  4  1  0  0  0  0
  4  5  1  0  0  0  0
  4 27  1  0  0  0  0
  4 28  1  0  0  0  0
  5  6  1  0  0  0  0
  5 29  1  0  0  0  0
  5 30  1  0  0  0  0
  6  7  1  0  0  0  0
  6 20  1  0  0  0  0
  7  8  1  0  0  0  0
  7  9  1  0  0  0  0
  7 31  1  0  0  0  0
  8 32  1  0  0  0  0
  8 33  1  0  0  0  0
  8 34  1  0  0  0  0
  9 10  1  0  0  0  0
  9 35  1  0  0  0  0
  9 36  1  0  0  0  0
 10 11  1  0  0  0  0
 10 37  1  0  0  0  0
 11 12  2  0  0  0  0
 11 13  1  0  0  0  0
 13 14  1  0  0  0  0
 13 38  1  0  0  0  0
 14 19  2  0  0  0  0
 14 15  1  0  0  0  0
 15 16  2  0  0  0  0
 15 39  1  0  0  0  0
 16 17  1  0  0  0  0
 16 18  1  0  0  0  0
 17 40  1  0  0  0  0
 17 41  1  0  0  0  0
 17 42  1  0  0  0  0
 18 19  1  0  0  0  0
 20 21  1  0  0  0  0
 20 43  1  0  0  0  0
 20 44  1  0  0  0  0
 21 45  1  0  0  0  0
 21 46  1  0  0  0  0
M  END
> <s_m_source_file>
AV-unprocessed.smi

> <i_m_source_file_index>
1586

> <i_lp_mmshare_version>
43012

> <i_f3d_flags>
0

> <s_epik_input>
W0NIM11bQ0gyXU4xW0NIMl1bQ0gyXU4oW0NIMl1bQ0gyXTEpW0NASF0oW0NIM10pW0NIMl1bTkhdQyg9TylbTkhdYzJbY0hdYyhbQ0gzXSlvbjI=

> <s_epik_cmdline>
J2VwaWtfcHl0aG9uJywgJy1waCcsICc3LjAnLCAnLXRuJywgJzgnLCAnLW1hJywgJzIwMCcsICctbWV0YWxfYmluZGluZycsICctaW1hZScsICc8aW5maWxlLm1hZT4nLCAnLW9tYWUnLCAnPG91dGZpbGUubWFlPic=

> <r_epik_Ionization_Penalty>
2.42597

> <r_epik_Ionization_Penalty_Charging>
0

> <r_epik_Ionization_Penalty_Neutral>
2.42597

> <r_epik_State_Penalty>
1.76326

> <r_epik_Charging_Adjusted_Penalty>
1.76326

> <i_epik_Tot_Q>
0

> <i_epik_Tot_abs_Q>
0

> <r_epik_Metal_State_Penalty>
1.7742

> <b_epik_Metal_Only>
0

> <s_lp_Force_Field>
OPLS_2005

> <r_lp_Energy>
40.1671

> <b_lp_Chiralities_Consistent>
1

> <s_lp_Variant>
AV-unprocessed.smi:1586-5

> <Gold.Version>
5.8.1

> <Gold.Id.Protein>
6NUR|6NUR_protein|mol2

> <Gold.PLP.Fitness>
37.2350

> <Gold.PLP.PLP>
-33.1604

> <Gold.PLP.part.hbond>
-2.0000

> <Gold.PLP.part.metal>
0.0000

> <Gold.PLP.part.buried>
-4.6685

> <Gold.PLP.part.nonpolar>
-26.9215

> <Gold.PLP.part.repulsive>
0.0683

> <Gold.PLP.ligand.clash>
0.0000

> <Gold.PLP.ligand.torsion>
0.8242

> <Gold.PLP.Chemscore.Hbond>
1.9000

> <Gold.PLP.Chemscore.CHOScore>
0.0000

> <Gold.PLP.Chemscore.Metal>
0.0000

> <Gold.Chemscore.Hbonds>
donor molecule, donor type, donor heavy atom, donor atom, acceptor molecule, acceptor atom, score
      L1  H    10    37       P1  7948  1.00
      L1  H    13    38       P1  7948  0.95

> <Gold.PLP.Chemscore.Internal.Correction>
0.0230

> <Gold.Rescore>
     Score         DG    S(hbond)    S(metal)    S(lipo)     H(rot)  DE(clash)    DE(int)     intcor
     14.30     -16.08       1.75        0.00      78.25       1.72       0.01       1.76       ----

> <Gold.Chemscore.Fitness>
14.2991

> <Gold.Chemscore.DG>
-16.0755

> <Gold.Chemscore.ZeroCoef>
-5.4800

> <Gold.Chemscore.Hbond>
1.7478

> <Gold.Chemscore.Metal>
0.0000

> <Gold.Chemscore.Lipo>
78.2512

> <Gold.Chemscore.Internal_Hbond>
0.0000

> <Gold.Chemscore.DEClash>
0.0135

> <Gold.Chemscore.DEInternal>
1.7629

> <Gold.Chemscore.Rot>
1.7178

> <Gold.Chemscore.Internal.Correction>
   9.000000E+99

> <Gold.Chemscore.Hbonds>
donor molecule, donor type, donor heavy atom, donor atom, acceptor molecule, acceptor atom, score
      L1  H    10    37       P1  7948  0.93
      L1  H    13    38       P1  7948  0.21

> <Gold.Chemscore.Hbond.Weighted>
-5.8378

> <Gold.Chemscore.Metal.Weighted>
-0.0000

> <Gold.Chemscore.Lipo.Weighted>
-9.1554

> <Gold.Chemscore.Internal_Hbond.Weighted>
0.0000

> <Gold.Chemscore.DEClash.Weighted>
0.0135

> <Gold.Chemscore.DEInternal.Weighted>
1.7629

> <Gold.Chemscore.Rot.Weighted>
4.3976

> <Gold.Chemscore.Internal.Correction.Weighted>
   9.000000E+99

> <Gold.Protein.RotatedTorsions>
[ 6907 6896 6895 6894 ] final -171.71 input  -60.11 | X-H torsion
[ 7974 7965 7964 7962 ] final  113.90 input  175.53 | X-H torsion
[ 8008 7997 7996 7995 ] final  -46.89 input   59.86 | X-H torsion
[ 10167 10162 10161 10158 ] final   23.17 input  -65.29 | X-H torsion
[ 10718 10713 10712 10709 ] final   82.93 input   66.30 | X-H torsion
[ 10763 10752 10751 10750 ] final  127.74 input  -60.55 | X-H torsion
[ 11005 11000 10999 10996 ] final   62.25 input  -57.11 | X-H torsion

> <Gold.Protein.ActiveResidues>
 VAL166  LYS551  ARG553  GLY616  TRP617  ASP618  TYR619  PRO620  LYS621  CYS622 
 ASP623  PHE694  ASN695  SER759  ASP760  ASP761  ALA762  ILE779  LEU786  VAL792 
 PHE793  MET794  SER795  GLU796  ALA797  LYS798  CYS799  TRP800  GLU811  SER814 

> <Gold.Protein.RotatedAtoms>
  151.5283  133.3454  159.2913 H   0  0  0  0  0  0  0  0  0  0  0  0  # atno 6907 bound_to 6896
  150.8609  134.7963  159.7093 H   0  0  0  0  0  0  0  0  0  0  0  0  # atno 6908 bound_to 6896
  152.4629  134.5152  159.9817 H   0  0  0  0  0  0  0  0  0  0  0  0  # atno 6909 bound_to 6896
  145.2111  139.2906  143.4268 H   0  0  0  0  0  0  0  0  0  0  0  0  # atno 7974 bound_to 7965
  154.4011  140.1360  156.4085 H   0  0  0  0  0  0  0  0  0  0  0  0  # atno 8008 bound_to 7997
  155.7756  140.3483  155.5250 H   0  0  0  0  0  0  0  0  0  0  0  0  # atno 8009 bound_to 7997
  155.8724  140.0974  157.1531 H   0  0  0  0  0  0  0  0  0  0  0  0  # atno 8010 bound_to 7997
  140.5290  143.9874  150.6455 H   0  0  0  0  0  0  0  0  0  0  0  0  # atno 10167 bound_to 10162
  157.6868  131.0069  150.2448 H   0  0  0  0  0  0  0  0  0  0  0  0  # atno 10718 bound_to 10713
  153.7142  135.3263  155.3253 H   0  0  0  0  0  0  0  0  0  0  0  0  # atno 10763 bound_to 10752
  154.8376  135.4484  154.1283 H   0  0  0  0  0  0  0  0  0  0  0  0  # atno 10764 bound_to 10752
  153.2385  135.6968  153.7889 H   0  0  0  0  0  0  0  0  0  0  0  0  # atno 10765 bound_to 10752
  140.0105  134.6303  155.9788 H   0  0  0  0  0  0  0  0  0  0  0  0  # atno 11005 bound_to 11000
  146.3397  140.2387  142.8595 LP  0  0  0  0  0  0  0  0  0  0  0  0  # atno 17320 bound_to 7965
  144.9855  140.8498  143.5371 LP  0  0  0  0  0  0  0  0  0  0  0  0  # atno 17321 bound_to 7965
  140.3244  143.3117  152.0752 LP  0  0  0  0  0  0  0  0  0  0  0  0  # atno 17342 bound_to 10162
  139.4948  144.6552  151.6588 LP  0  0  0  0  0  0  0  0  0  0  0  0  # atno 17343 bound_to 10162
  156.3055  130.3764  149.7710 LP  0  0  0  0  0  0  0  0  0  0  0  0  # atno 17370 bound_to 10713
  156.5326  130.8264  151.3242 LP  0  0  0  0  0  0  0  0  0  0  0  0  # atno 17371 bound_to 10713
  141.1707  133.6537  156.4643 LP  0  0  0  0  0  0  0  0  0  0  0  0  # atno 17394 bound_to 11000
  140.4563  134.6882  157.5064 LP  0  0  0  0  0  0  0  0  0  0  0  0  # atno 17395 bound_to 11000

$$$$
