AV-unprocessed.smi:1906|AV-procd|sdf|7728|dock7
  -GOLD-   22720 9473D 1   1.00000     0.00000
 Structure written by MMmdl.
 35 37  0  0  0  0  0  0  0  0  1 V2000
  152.0981  139.9237  155.8542 C   0  0  0  0  0  0  0  0  0  0  0  0
  150.7362  140.4890  155.6038 C   0  0  0  0  0  0  0  0  0  0  0  0
  150.1364  140.3894  154.4175 N   0  0  0  0  0  0  0  0  0  0  0  0
  148.9303  141.0273  154.6330 C   0  0  0  0  0  0  0  0  0  0  0  0
  147.8442  141.2586  153.7591 C   0  0  0  0  0  0  0  0  0  0  0  0
  146.6969  141.9427  154.2119 C   0  0  0  0  0  0  0  0  0  0  0  0
  146.6190  142.4040  155.5419 C   0  0  0  0  0  0  0  0  0  0  0  0
  147.6902  142.1845  156.4290 C   0  0  0  0  0  0  0  0  0  0  0  0
  148.8336  141.5026  155.9716 C   0  0  0  0  0  0  0  0  0  0  0  0
  150.0361  141.1373  156.5682 N   0  0  0  0  0  0  0  0  0  0  0  0
  150.4282  141.4110  157.9445 C   0  0  0  0  0  0  0  0  0  0  0  0
  151.4975  142.5182  158.0404 C   0  0  1  0  0  0  0  0  0  0  0  0
  150.9125  143.7351  157.6234 O   0  0  0  0  0  0  0  0  0  0  0  0
  152.1106  142.6146  159.4308 C   0  0  0  0  0  0  0  0  0  0  0  0
  151.8101  143.7026  160.2801 C   0  0  0  0  0  0  0  0  0  0  0  0
  152.3658  143.7684  161.5726 C   0  0  0  0  0  0  0  0  0  0  0  0
  153.2237  142.7472  162.0241 C   0  0  0  0  0  0  0  0  0  0  0  0
  153.5262  141.6599  161.1823 C   0  0  0  0  0  0  0  0  0  0  0  0
  154.3484  140.6759  161.6167 F   0  0  0  0  0  0  0  0  0  0  0  0
  152.9716  141.5943  159.8896 C   0  0  0  0  0  0  0  0  0  0  0  0
  152.4955  139.4676  154.9470 H   0  0  0  0  0  0  0  0  0  0  0  0
  152.0530  139.1596  156.6305 H   0  0  0  0  0  0  0  0  0  0  0  0
  152.7832  140.7103  156.1685 H   0  0  0  0  0  0  0  0  0  0  0  0
  147.8941  140.9091  152.7386 H   0  0  0  0  0  0  0  0  0  0  0  0
  145.8723  142.1131  153.5353 H   0  0  0  0  0  0  0  0  0  0  0  0
  145.7366  142.9266  155.8815 H   0  0  0  0  0  0  0  0  0  0  0  0
  147.6343  142.5363  157.4484 H   0  0  0  0  0  0  0  0  0  0  0  0
  149.5308  141.7144  158.4856 H   0  0  0  0  0  0  0  0  0  0  0  0
  150.7759  140.4958  158.4238 H   0  0  0  0  0  0  0  0  0  0  0  0
  152.2955  142.3071  157.3276 H   0  0  0  0  0  0  0  0  0  0  0  0
  149.9878  143.5921  157.4906 H   0  0  0  0  0  0  0  0  0  0  0  0
  151.1456  144.4864  159.9471 H   0  0  0  0  0  0  0  0  0  0  0  0
  152.1315  144.6009  162.2193 H   0  0  0  0  0  0  0  0  0  0  0  0
  153.6478  142.7968  163.0159 H   0  0  0  0  0  0  0  0  0  0  0  0
  153.2021  140.7518  159.2537 H   0  0  0  0  0  0  0  0  0  0  0  0
  1  2  1  0  0  0  0
  1 21  1  0  0  0  0
  1 22  1  0  0  0  0
  1 23  1  0  0  0  0
  2 10  1  0  0  0  0
  2  3  2  0  0  0  0
  3  4  1  0  0  0  0
  4  9  2  0  0  0  0
  4  5  1  0  0  0  0
  5  6  2  0  0  0  0
  5 24  1  0  0  0  0
  6  7  1  0  0  0  0
  6 25  1  0  0  0  0
  7  8  2  0  0  0  0
  7 26  1  0  0  0  0
  8  9  1  0  0  0  0
  8 27  1  0  0  0  0
  9 10  1  0  0  0  0
 10 11  1  0  0  0  0
 11 12  1  0  0  0  0
 11 28  1  0  0  0  0
 11 29  1  0  0  0  0
 12 13  1  0  0  0  0
 12 14  1  0  0  0  0
 12 30  1  0  0  0  0
 13 31  1  0  0  0  0
 14 20  1  0  0  0  0
 14 15  2  0  0  0  0
 15 16  1  0  0  0  0
 15 32  1  0  0  0  0
 16 17  2  0  0  0  0
 16 33  1  0  0  0  0
 17 18  1  0  0  0  0
 17 34  1  0  0  0  0
 18 19  1  0  0  0  0
 18 20  2  0  0  0  0
 20 35  1  0  0  0  0
M  END
> <s_m_source_file>
AV-unprocessed.smi

> <i_m_source_file_index>
1906

> <i_lp_mmshare_version>
43012

> <i_f3d_flags>
0

> <s_epik_input>
W2NIXTFbY0hdW2NIXVtjSF1jKGMxMiluKGMobjIpW0NIM10pW0NIMl1bQ0BIXShbT0hdKWMzW2NIXVtjSF1bY0hdYyhGKVtjSF0z

> <s_epik_cmdline>
J2VwaWtfcHl0aG9uJywgJy1waCcsICc3LjAnLCAnLXRuJywgJzgnLCAnLW1hJywgJzIwMCcsICctbWV0YWxfYmluZGluZycsICctaW1hZScsICc8aW5maWxlLm1hZT4nLCAnLW9tYWUnLCAnPG91dGZpbGUubWFlPic=

> <r_epik_Ionization_Penalty>
0.129664

> <r_epik_Ionization_Penalty_Charging>
0

> <r_epik_Ionization_Penalty_Neutral>
0.129664

> <r_epik_State_Penalty>
0.119073

> <r_epik_Charging_Adjusted_Penalty>
0.119073

> <i_epik_Tot_Q>
0

> <i_epik_Tot_abs_Q>
0

> <r_epik_Metal_State_Penalty>
0.000131867

> <b_epik_Metal_Only>
0

> <s_lp_Force_Field>
OPLS_2005

> <r_lp_Energy>
11.7028

> <b_lp_Chiralities_Consistent>
1

> <s_lp_Variant>
AV-unprocessed.smi:1906-2

> <Gold.Version>
5.8.1

> <Gold.Id.Protein>
6NUR|6NUR_protein|mol2

> <Gold.PLP.Fitness>
51.7699

> <Gold.PLP.PLP>
-49.6051

> <Gold.PLP.part.hbond>
-2.0000

> <Gold.PLP.part.metal>
0.0000

> <Gold.PLP.part.buried>
-2.2543

> <Gold.PLP.part.nonpolar>
-45.0440

> <Gold.PLP.part.repulsive>
0.1027

> <Gold.PLP.ligand.clash>
0.0000

> <Gold.PLP.ligand.torsion>
0.4761

> <Gold.PLP.Chemscore.Hbond>
1.0345

> <Gold.PLP.Chemscore.CHOScore>
0.0000

> <Gold.PLP.Chemscore.Metal>
0.0000

> <Gold.Chemscore.Hbonds>
donor molecule, donor type, donor heavy atom, donor atom, acceptor molecule, acceptor atom, score
      L1  H    13    31       P1  8028  0.03
      P1  H  7989  7998       L1     3  0.66

> <Gold.PLP.Chemscore.Internal.Correction>
0.0134

> <Gold.Rescore>
     Score         DG    S(hbond)    S(metal)    S(lipo)     H(rot)  DE(clash)    DE(int)     intcor
     16.56     -17.09       0.72        0.00     117.98       1.79       0.22       0.31       ----

> <Gold.Chemscore.Fitness>
16.5620

> <Gold.Chemscore.DG>
-17.0938

> <Gold.Chemscore.ZeroCoef>
-5.4800

> <Gold.Chemscore.Hbond>
0.7182

> <Gold.Chemscore.Metal>
0.0000

> <Gold.Chemscore.Lipo>
117.9840

> <Gold.Chemscore.Internal_Hbond>
0.0000

> <Gold.Chemscore.DEClash>
0.2247

> <Gold.Chemscore.DEInternal>
0.3070

> <Gold.Chemscore.Rot>
1.7926

> <Gold.Chemscore.Internal.Correction>
   9.000000E+99

> <Gold.Chemscore.Hbonds>
donor molecule, donor type, donor heavy atom, donor atom, acceptor molecule, acceptor atom, score
      L1  H    13    31       P1  8028  0.04
      P1  H  7989  7998       L1     3  0.07

> <Gold.Chemscore.Hbond.Weighted>
-2.3987

> <Gold.Chemscore.Metal.Weighted>
-0.0000

> <Gold.Chemscore.Lipo.Weighted>
-13.8041

> <Gold.Chemscore.Internal_Hbond.Weighted>
0.0000

> <Gold.Chemscore.DEClash.Weighted>
0.2247

> <Gold.Chemscore.DEInternal.Weighted>
0.3070

> <Gold.Chemscore.Rot.Weighted>
4.5890

> <Gold.Chemscore.Internal.Correction.Weighted>
   9.000000E+99

> <Gold.Protein.RotatedTorsions>
[ 6907 6896 6895 6894 ] final  164.03 input  -60.11 | X-H torsion
[ 7974 7965 7964 7962 ] final  108.92 input  175.53 | X-H torsion
[ 8008 7997 7996 7995 ] final  -22.60 input   59.86 | X-H torsion
[ 10167 10162 10161 10158 ] final  169.72 input  -65.29 | X-H torsion
[ 10718 10713 10712 10709 ] final -100.51 input   66.30 | X-H torsion
[ 10763 10752 10751 10750 ] final -101.22 input  -60.55 | X-H torsion
[ 11005 11000 10999 10996 ] final  -69.51 input  -57.11 | X-H torsion

> <Gold.Protein.ActiveResidues>
 VAL166  LYS551  ARG553  GLY616  TRP617  ASP618  TYR619  PRO620  LYS621  CYS622 
 ASP623  PHE694  ASN695  SER759  ASP760  ASP761  ALA762  ILE779  LEU786  VAL792 
 PHE793  MET794  SER795  GLU796  ALA797  LYS798  CYS799  TRP800  GLU811  SER814 

> <Gold.Protein.RotatedAtoms>
  151.9161  133.3573  159.3880 H   0  0  0  0  0  0  0  0  0  0  0  0  # atno 6907 bound_to 6896
  150.7047  134.4682  159.5422 H   0  0  0  0  0  0  0  0  0  0  0  0  # atno 6908 bound_to 6896
  152.2297  134.8333  160.0526 H   0  0  0  0  0  0  0  0  0  0  0  0  # atno 6909 bound_to 6896
  145.2745  139.2654  143.3948 H   0  0  0  0  0  0  0  0  0  0  0  0  # atno 7974 bound_to 7965
  154.4634  140.2003  156.0183 H   0  0  0  0  0  0  0  0  0  0  0  0  # atno 8008 bound_to 7997
  156.0882  140.3262  155.7753 H   0  0  0  0  0  0  0  0  0  0  0  0  # atno 8009 bound_to 7997
  155.4999  140.0553  157.2931 H   0  0  0  0  0  0  0  0  0  0  0  0  # atno 8010 bound_to 7997
  139.4999  144.3675  151.9760 H   0  0  0  0  0  0  0  0  0  0  0  0  # atno 10167 bound_to 10162
  156.0165  130.5331  150.6828 H   0  0  0  0  0  0  0  0  0  0  0  0  # atno 10718 bound_to 10713
  154.7641  135.4906  153.9520 H   0  0  0  0  0  0  0  0  0  0  0  0  # atno 10763 bound_to 10752
  153.1286  135.6748  153.9223 H   0  0  0  0  0  0  0  0  0  0  0  0  # atno 10764 bound_to 10752
  153.8933  135.3118  155.3426 H   0  0  0  0  0  0  0  0  0  0  0  0  # atno 10765 bound_to 10752
  141.1555  133.6766  156.6610 H   0  0  0  0  0  0  0  0  0  0  0  0  # atno 11005 bound_to 11000
  146.3236  140.3196  142.8632 LP  0  0  0  0  0  0  0  0  0  0  0  0  # atno 17320 bound_to 7965
  144.9306  140.7971  143.5691 LP  0  0  0  0  0  0  0  0  0  0  0  0  # atno 17321 bound_to 7965
  140.3111  144.3537  150.6033 LP  0  0  0  0  0  0  0  0  0  0  0  0  # atno 17342 bound_to 10162
  140.5798  143.2173  151.7449 LP  0  0  0  0  0  0  0  0  0  0  0  0  # atno 17343 bound_to 10162
  157.4527  131.0874  151.0829 LP  0  0  0  0  0  0  0  0  0  0  0  0  # atno 17370 bound_to 10713
  157.1340  130.6114  149.5537 LP  0  0  0  0  0  0  0  0  0  0  0  0  # atno 17371 bound_to 10713
  140.3247  134.7978  157.4280 LP  0  0  0  0  0  0  0  0  0  0  0  0  # atno 17394 bound_to 11000
  140.1067  134.5400  155.8303 LP  0  0  0  0  0  0  0  0  0  0  0  0  # atno 17395 bound_to 11000

$$$$
