AV-unprocessed.smi:54|AV-procd|sdf|538|dock9
  -GOLD-   2262016423D 1   1.00000     0.00000
 Structure written by MMmdl.
 44 46  0  0  0  0  0  0  0  0  1 V2000
  151.8560  145.0206  158.7370 C   0  0  0  0  0  0  0  0  0  0  0  0
  151.2545  143.9427  159.6532 C   0  0  0  0  0  0  0  0  0  0  0  0
  152.1169  143.7347  160.9089 C   0  0  0  0  0  0  0  0  0  0  0  0
  151.0811  142.6241  158.8910 C   0  0  0  0  0  0  0  0  0  0  0  0
  151.0691  141.5349  159.4656 O   0  0  0  0  0  0  0  0  0  0  0  0
  150.9394  142.7517  157.4510 N   0  0  0  0  0  0  0  0  0  0  0  0
  150.7805  141.7549  156.5495 C   0  0  0  0  0  0  0  0  0  0  0  0
  151.4083  140.5911  156.6373 N   0  0  0  0  0  0  0  0  0  0  0  0
  151.1235  139.7117  155.6301 C   0  0  0  0  0  0  0  0  0  0  0  0
  150.2555  139.9203  154.5790 C   0  0  0  0  0  0  0  0  0  0  0  0
  150.2105  138.7939  153.7660 N   0  0  0  0  0  0  0  0  0  0  0  0
  151.0318  137.9575  154.3374 C   0  0  0  0  0  0  0  0  0  0  0  0
  151.6523  138.4488  155.4639 N   0  0  0  0  0  0  0  0  0  0  0  0
  152.6256  137.7814  156.3911 C   0  0  1  0  0  0  0  0  0  0  0  0
  153.0355  138.7030  157.3516 O   0  0  0  0  0  0  0  0  0  0  0  0
  152.1434  138.6537  158.4573 C   0  0  2  0  0  0  0  0  0  0  0  0
  152.8122  139.2667  159.6963 C   0  0  0  0  0  0  0  0  0  0  0  0
  153.9456  140.0152  159.3126 O   0  0  0  0  0  0  0  0  0  0  0  0
  151.8668  137.1518  158.5904 C   0  0  1  0  0  0  0  0  0  0  0  0
  150.5762  136.9440  159.1292 O   0  0  0  0  0  0  0  0  0  0  0  0
  151.9462  136.6285  157.1551 C   0  0  2  0  0  0  0  0  0  0  0  0
  152.7196  135.4472  157.0973 O   0  0  0  0  0  0  0  0  0  0  0  0
  149.5600  141.1708  154.4746 C   0  0  0  0  0  0  0  0  0  0  0  0
  148.7582  141.5275  153.6139 O   0  0  0  0  0  0  0  0  0  0  0  0
  149.8869  142.0461  155.5187 N   0  0  0  0  0  0  0  0  0  0  0  0
  153.4478  137.4797  155.7403 H   0  0  0  0  0  0  0  0  0  0  0  0
  151.2196  139.1814  158.2112 H   0  0  0  0  0  0  0  0  0  0  0  0
  152.6207  136.6802  159.2231 H   0  0  0  0  0  0  0  0  0  0  0  0
  150.9575  136.4276  156.7391 H   0  0  0  0  0  0  0  0  0  0  0  0
  151.2414  145.1748  157.8493 H   0  0  0  0  0  0  0  0  0  0  0  0
  152.8594  144.7508  158.4050 H   0  0  0  0  0  0  0  0  0  0  0  0
  151.9262  145.9771  159.2556 H   0  0  0  0  0  0  0  0  0  0  0  0
  150.2692  144.2834  159.9746 H   0  0  0  0  0  0  0  0  0  0  0  0
  151.6940  142.9672  161.5583 H   0  0  0  0  0  0  0  0  0  0  0  0
  152.1853  144.6539  161.4914 H   0  0  0  0  0  0  0  0  0  0  0  0
  153.1328  143.4312  160.6522 H   0  0  0  0  0  0  0  0  0  0  0  0
  150.9907  143.6905  157.0841 H   0  0  0  0  0  0  0  0  0  0  0  0
  151.2023  136.9646  153.9470 H   0  0  0  0  0  0  0  0  0  0  0  0
  152.1229  139.9491  160.1940 H   0  0  0  0  0  0  0  0  0  0  0  0
  153.0887  138.4995  160.4200 H   0  0  0  0  0  0  0  0  0  0  0  0
  154.6835  139.7294  159.8292 H   0  0  0  0  0  0  0  0  0  0  0  0
  150.0084  137.6357  158.8253 H   0  0  0  0  0  0  0  0  0  0  0  0
  153.3475  135.4642  157.8031 H   0  0  0  0  0  0  0  0  0  0  0  0
  149.4358  142.9488  155.5072 H   0  0  0  0  0  0  0  0  0  0  0  0
  1  2  1  0  0  0  0
  1 30  1  0  0  0  0
  1 31  1  0  0  0  0
  1 32  1  0  0  0  0
  2  3  1  0  0  0  0
  2  4  1  0  0  0  0
  2 33  1  0  0  0  0
  3 34  1  0  0  0  0
  3 35  1  0  0  0  0
  3 36  1  0  0  0  0
  4  5  2  0  0  0  0
  4  6  1  0  0  0  0
  6 37  1  0  0  0  0
  6  7  1  0  0  0  0
  7 25  1  0  0  0  0
  7  8  2  0  0  0  0
  8  9  1  0  0  0  0
  9 13  1  0  0  0  0
  9 10  2  0  0  0  0
 10 11  1  0  0  0  0
 10 23  1  0  0  0  0
 11 12  2  0  0  0  0
 12 13  1  0  0  0  0
 12 38  1  0  0  0  0
 13 14  1  0  0  0  0
 14 26  1  0  0  0  0
 14 21  1  0  0  0  0
 14 15  1  0  0  0  0
 15 16  1  0  0  0  0
 16 27  1  0  0  0  0
 16 17  1  0  0  0  0
 16 19  1  0  0  0  0
 17 18  1  0  0  0  0
 17 39  1  0  0  0  0
 17 40  1  0  0  0  0
 18 41  1  0  0  0  0
 19 28  1  0  0  0  0
 19 20  1  0  0  0  0
 19 21  1  0  0  0  0
 20 42  1  0  0  0  0
 21 29  1  0  0  0  0
 21 22  1  0  0  0  0
 22 43  1  0  0  0  0
 23 24  2  0  0  0  0
 23 25  1  0  0  0  0
 25 44  1  0  0  0  0
M  END
> <s_m_source_file>
AV-unprocessed.smi

> <i_m_source_file_index>
54

> <i_lp_mmshare_version>
43012

> <i_f3d_flags>
0

> <s_epik_input>
W0NIM11bQ0hdKFtDSDNdKUMoPU8pW05IXWMobjEpW25IXWMoPU8pYyhjMTIpbltjSF1uMltDQEBIXTNPW0NASF0oW0NIMl1bT0hdKVtDQEBIXShbT0hdKVtDQEhdM1tPSF0=

> <s_epik_cmdline>
J2VwaWtfcHl0aG9uJywgJy1waCcsICc3LjAnLCAnLXRuJywgJzgnLCAnLW1hJywgJzIwMCcsICctbWV0YWxfYmluZGluZycsICctaW1hZScsICc8aW5maWxlLm1hZT4nLCAnLW9tYWUnLCAnPG91dGZpbGUubWFlPic=

> <r_lp_tautomer_probability>
0.85571

> <r_epik_Ionization_Penalty>
0.0316551

> <r_epik_Ionization_Penalty_Charging>
0.0316043

> <r_epik_Ionization_Penalty_Neutral>
5.07097e-05

> <r_epik_State_Penalty>
3.15494e-07

> <r_epik_Charging_Adjusted_Penalty>
0.0316047

> <i_epik_Tot_Q>
0

> <i_epik_Tot_abs_Q>
0

> <r_epik_Metal_State_Penalty>
0.421206

> <b_epik_Metal_Only>
0

> <s_epik_Chemistry_Notes>
This compound contains an acetal/aminal-like group ( X-CH(R)-Y where X, Y are N, S, or O) that may be acid/base labile, releasing an aldehyde.

> <s_lp_Force_Field>
OPLS_2005

> <r_lp_Energy>
36.3126

> <b_lp_Chiralities_Consistent>
1

> <s_lp_Variant>
AV-unprocessed.smi:54-10

> <Gold.Version>
5.8.1

> <Gold.Id.Protein>
6NUR|6NUR_protein|mol2

> <Gold.PLP.Fitness>
56.4013

> <Gold.PLP.PLP>
-43.6764

> <Gold.PLP.part.hbond>
-6.5391

> <Gold.PLP.part.metal>
0.0000

> <Gold.PLP.part.buried>
-4.0865

> <Gold.PLP.part.nonpolar>
-33.2440

> <Gold.PLP.part.repulsive>
1.5328

> <Gold.PLP.ligand.clash>
0.0000

> <Gold.PLP.ligand.torsion>
1.7939

> <Gold.PLP.Chemscore.Hbond>
4.6503

> <Gold.PLP.Chemscore.CHOScore>
0.7693

> <Gold.PLP.Chemscore.Metal>
0.0000

> <Gold.Chemscore.Hbonds>
donor molecule, donor type, donor heavy atom, donor atom, acceptor molecule, acceptor atom, score
      L1  H    25    44       P1  8028  1.00
      P1  H  6896  6907       L1    20  0.20
      P1  H  7997  8009       L1    18  0.44
      P1  H  8011  8017       L1    24  0.74
      P1  H 10752 10764       L1    22  0.76
      L1  C    12    38       P1  7949  0.72

> <Gold.PLP.Chemscore.Internal.Correction>
0.0538

> <Gold.Rescore>
     Score         DG    S(hbond)    S(metal)    S(lipo)     H(rot)  DE(clash)    DE(int)     intcor
      8.96     -14.10       3.53        0.00      61.50       4.05       0.36       4.77       ----

> <Gold.Chemscore.Fitness>
8.9649

> <Gold.Chemscore.DG>
-14.0959

> <Gold.Chemscore.ZeroCoef>
-5.4800

> <Gold.Chemscore.Hbond>
3.5288

> <Gold.Chemscore.Metal>
0.0000

> <Gold.Chemscore.Lipo>
61.5030

> <Gold.Chemscore.Internal_Hbond>
0.0000

> <Gold.Chemscore.DEClash>
0.3594

> <Gold.Chemscore.DEInternal>
4.7716

> <Gold.Chemscore.Rot>
4.0493

> <Gold.Chemscore.Internal.Correction>
   9.000000E+99

> <Gold.Chemscore.Hbonds>
donor molecule, donor type, donor heavy atom, donor atom, acceptor molecule, acceptor atom, score
      L1  H    25    44       P1  8028  1.00
      P1  H  7997  8009       L1    15  0.26
      P1  H  8011  8017       L1    24  0.37
      P1  H 10752 10764       L1    22  0.25

> <Gold.Chemscore.Hbond.Weighted>
-11.7863

> <Gold.Chemscore.Metal.Weighted>
-0.0000

> <Gold.Chemscore.Lipo.Weighted>
-7.1959

> <Gold.Chemscore.Internal_Hbond.Weighted>
0.0000

> <Gold.Chemscore.DEClash.Weighted>
0.3594

> <Gold.Chemscore.DEInternal.Weighted>
4.7716

> <Gold.Chemscore.Rot.Weighted>
10.3662

> <Gold.Chemscore.Internal.Correction.Weighted>
   9.000000E+99

> <Gold.Protein.RotatedTorsions>
[ 6907 6896 6895 6894 ] final   -9.76 input  -60.11 | X-H torsion
[ 7974 7965 7964 7962 ] final  -66.84 input  175.53 | X-H torsion
[ 8008 7997 7996 7995 ] final  132.56 input   59.86 | X-H torsion
[ 10167 10162 10161 10158 ] final   96.45 input  -65.29 | X-H torsion
[ 10718 10713 10712 10709 ] final -146.13 input   66.30 | X-H torsion
[ 10763 10752 10751 10750 ] final   22.39 input  -60.55 | X-H torsion
[ 11005 11000 10999 10996 ] final  -11.24 input  -57.11 | X-H torsion

> <Gold.Protein.ActiveResidues>
 VAL166  LYS551  ARG553  GLY616  TRP617  ASP618  TYR619  PRO620  LYS621  CYS622 
 ASP623  PHE694  ASN695  SER759  ASP760  ASP761  ALA762  ILE779  LEU786  VAL792 
 PHE793  MET794  SER795  GLU796  ALA797  LYS798  CYS799  TRP800  GLU811  SER814 

> <Gold.Protein.RotatedAtoms>
  151.4126  135.0987  159.9589 H   0  0  0  0  0  0  0  0  0  0  0  0  # atno 6907 bound_to 6896
  152.5015  133.8783  159.7344 H   0  0  0  0  0  0  0  0  0  0  0  0  # atno 6908 bound_to 6896
  150.9281  133.6742  159.2845 H   0  0  0  0  0  0  0  0  0  0  0  0  # atno 6909 bound_to 6896
  145.7367  140.8972  143.0551 H   0  0  0  0  0  0  0  0  0  0  0  0  # atno 7974 bound_to 7965
  156.2984  140.2543  156.3109 H   0  0  0  0  0  0  0  0  0  0  0  0  # atno 8008 bound_to 7997
  154.9327  140.0398  157.2075 H   0  0  0  0  0  0  0  0  0  0  0  0  # atno 8009 bound_to 7997
  154.8203  140.2859  155.5796 H   0  0  0  0  0  0  0  0  0  0  0  0  # atno 8010 bound_to 7997
  139.7893  144.6858  150.9915 H   0  0  0  0  0  0  0  0  0  0  0  0  # atno 10167 bound_to 10162
  156.3911  130.7886  151.2088 H   0  0  0  0  0  0  0  0  0  0  0  0  # atno 10718 bound_to 10713
  153.0919  135.6649  153.9837 H   0  0  0  0  0  0  0  0  0  0  0  0  # atno 10763 bound_to 10752
  153.9431  135.2992  155.3443 H   0  0  0  0  0  0  0  0  0  0  0  0  # atno 10764 bound_to 10752
  154.7335  135.5112  153.9076 H   0  0  0  0  0  0  0  0  0  0  0  0  # atno 10765 bound_to 10752
  140.7532  133.8575  155.9062 H   0  0  0  0  0  0  0  0  0  0  0  0  # atno 11005 bound_to 11000
  144.6880  139.9405  143.7475 LP  0  0  0  0  0  0  0  0  0  0  0  0  # atno 17320 bound_to 7965
  146.0486  139.3490  143.0653 LP  0  0  0  0  0  0  0  0  0  0  0  0  # atno 17321 bound_to 7965
  140.7820  143.4398  151.0568 LP  0  0  0  0  0  0  0  0  0  0  0  0  # atno 17342 bound_to 10162
  139.8076  143.7996  152.3168 LP  0  0  0  0  0  0  0  0  0  0  0  0  # atno 17343 bound_to 10162
  157.7499  131.0315  150.4185 LP  0  0  0  0  0  0  0  0  0  0  0  0  # atno 17370 bound_to 10713
  156.4447  130.3999  149.6675 LP  0  0  0  0  0  0  0  0  0  0  0  0  # atno 17371 bound_to 10713
  140.9731  134.1504  157.4559 LP  0  0  0  0  0  0  0  0  0  0  0  0  # atno 17394 bound_to 11000
  139.8784  134.9985  156.5905 LP  0  0  0  0  0  0  0  0  0  0  0  0  # atno 17395 bound_to 11000

$$$$
