AV-unprocessed.smi:3005|AV-procd|sdf|11443|dock1
  -GOLD-   2272016373D 1   1.00000     0.00000
 Structure written by MMmdl.
 33 34  0  0  0  0  0  0  0  0  1 V2000
  147.0890  139.1124  152.8795 C   0  0  0  0  0  0  0  0  0  0  0  0
  148.0541  139.9234  153.6891 C   0  0  0  0  0  0  0  0  0  0  0  0
  149.1876  139.3086  154.2282 N   0  0  0  0  0  0  0  0  0  0  0  0
  149.9553  140.1549  154.9190 C   0  0  0  0  0  0  0  0  0  0  0  0
  151.4631  139.7521  155.7392 S   0  0  0  0  0  0  0  0  0  0  0  0
  151.4884  141.0525  157.0074 C   0  0  0  0  0  0  0  0  0  0  0  0
  152.3382  140.6534  158.2171 C   0  0  0  0  0  0  0  0  0  0  0  0
  153.0003  139.6160  158.1884 O   0  0  0  0  0  0  0  0  0  0  0  0
  152.3778  141.5228  159.3111 N   0  0  0  0  0  0  0  0  0  0  0  0
  152.4833  142.9641  159.1386 C   0  0  0  0  0  0  0  0  0  0  0  0
  153.2219  142.9625  160.4807 C   0  0  0  0  0  0  0  0  0  0  0  0
  153.4651  141.4637  160.2773 C   0  0  0  0  0  0  0  0  0  0  0  0
  149.3174  141.7912  154.9553 S   0  0  0  0  0  0  0  0  0  0  0  0
  147.9669  141.2651  153.9818 C   0  0  0  0  0  0  0  0  0  0  0  0
  146.9004  142.2314  153.5697 C   0  0  0  0  0  0  0  0  0  0  0  0
  145.9925  142.5869  154.7493 C   0  0  0  0  0  0  0  0  0  0  0  0
  144.7082  142.2325  154.6584 N   0  0  0  0  0  0  0  0  0  0  0  0
  146.4423  143.1776  155.7291 O   0  0  0  0  0  0  0  0  0  0  0  0
  147.0270  139.4841  151.8566 H   0  0  0  0  0  0  0  0  0  0  0  0
  146.0873  139.1520  153.3076 H   0  0  0  0  0  0  0  0  0  0  0  0
  147.3835  138.0637  152.8300 H   0  0  0  0  0  0  0  0  0  0  0  0
  151.9056  141.9637  156.5777 H   0  0  0  0  0  0  0  0  0  0  0  0
  150.4620  141.2759  157.2966 H   0  0  0  0  0  0  0  0  0  0  0  0
  153.1163  143.2572  158.2984 H   0  0  0  0  0  0  0  0  0  0  0  0
  151.5255  143.4857  159.1491 H   0  0  0  0  0  0  0  0  0  0  0  0
  154.1296  143.5665  160.4930 H   0  0  0  0  0  0  0  0  0  0  0  0
  152.5747  143.1842  161.3312 H   0  0  0  0  0  0  0  0  0  0  0  0
  153.2502  140.8449  161.1489 H   0  0  0  0  0  0  0  0  0  0  0  0
  154.4382  141.2438  159.8329 H   0  0  0  0  0  0  0  0  0  0  0  0
  147.3532  143.1324  153.1535 H   0  0  0  0  0  0  0  0  0  0  0  0
  146.2883  141.8004  152.7767 H   0  0  0  0  0  0  0  0  0  0  0  0
  144.0704  142.4451  155.4115 H   0  0  0  0  0  0  0  0  0  0  0  0
  144.3797  141.7513  153.8336 H   0  0  0  0  0  0  0  0  0  0  0  0
  1  2  1  0  0  0  0
  1 19  1  0  0  0  0
  1 20  1  0  0  0  0
  1 21  1  0  0  0  0
  2 14  2  0  0  0  0
  2  3  1  0  0  0  0
  3  4  2  0  0  0  0
  4  5  1  0  0  0  0
  4 13  1  0  0  0  0
  5  6  1  0  0  0  0
  6  7  1  0  0  0  0
  6 22  1  0  0  0  0
  6 23  1  0  0  0  0
  7  8  2  0  0  0  0
  7  9  1  0  0  0  0
  9 12  1  0  0  0  0
  9 10  1  0  0  0  0
 10 11  1  0  0  0  0
 10 24  1  0  0  0  0
 10 25  1  0  0  0  0
 11 12  1  0  0  0  0
 11 26  1  0  0  0  0
 11 27  1  0  0  0  0
 12 28  1  0  0  0  0
 12 29  1  0  0  0  0
 13 14  1  0  0  0  0
 14 15  1  0  0  0  0
 15 16  1  0  0  0  0
 15 30  1  0  0  0  0
 15 31  1  0  0  0  0
 16 17  1  0  0  0  0
 16 18  2  0  0  0  0
 17 32  1  0  0  0  0
 17 33  1  0  0  0  0
M  END
> <s_m_source_file>
AV-unprocessed.smi

> <i_m_source_file_index>
3005

> <i_lp_mmshare_version>
43012

> <i_f3d_flags>
0

> <s_epik_input>
W05IMl1DKD1PKVtDSDJdYzFzYyhuYzFbQ0gzXSlTW0NIMl1DKD1PKU4yW0NIMl1bQ0gyXVtDSDJdMg==

> <s_epik_cmdline>
J2VwaWtfcHl0aG9uJywgJy1waCcsICc3LjAnLCAnLXRuJywgJzgnLCAnLW1hJywgJzIwMCcsICctbWV0YWxfYmluZGluZycsICctaW1hZScsICc8aW5maWxlLm1hZT4nLCAnLW9tYWUnLCAnPG91dGZpbGUubWFlPic=

> <r_lp_tautomer_probability>
1

> <r_epik_Ionization_Penalty>
8.1701e-07

> <r_epik_Ionization_Penalty_Charging>
0

> <r_epik_Ionization_Penalty_Neutral>
8.1701e-07

> <r_epik_State_Penalty>
-0

> <r_epik_Charging_Adjusted_Penalty>
0

> <i_epik_Tot_Q>
0

> <i_epik_Tot_abs_Q>
0

> <r_epik_Metal_State_Penalty>
-0

> <b_epik_Metal_Only>
0

> <s_lp_Force_Field>
OPLS_2005

> <r_lp_Energy>
11.7673

> <b_lp_Chiralities_Consistent>
1

> <s_lp_Variant>
AV-unprocessed.smi:3005-1

> <Gold.Version>
5.8.1

> <Gold.Id.Protein>
6NUR|6NUR_protein|mol2

> <Gold.PLP.Fitness>
43.3716

> <Gold.PLP.PLP>
-38.5998

> <Gold.PLP.part.hbond>
-2.0000

> <Gold.PLP.part.metal>
0.0000

> <Gold.PLP.part.buried>
-0.4266

> <Gold.PLP.part.nonpolar>
-35.4054

> <Gold.PLP.part.repulsive>
0.4148

> <Gold.PLP.ligand.clash>
0.0000

> <Gold.PLP.ligand.torsion>
1.1198

> <Gold.PLP.Chemscore.Hbond>
2.0000

> <Gold.PLP.Chemscore.CHOScore>
0.0000

> <Gold.PLP.Chemscore.Metal>
0.0000

> <Gold.Chemscore.Hbonds>
donor molecule, donor type, donor heavy atom, donor atom, acceptor molecule, acceptor atom, score
      L1  H    17    33       P1 10175  0.50
      P1  H  7997  8010       L1     8  1.00

> <Gold.PLP.Chemscore.Internal.Correction>
1.0115

> <Gold.Rescore>
     Score         DG    S(hbond)    S(metal)    S(lipo)     H(rot)  DE(clash)    DE(int)     intcor
     14.69     -16.05       1.84        0.00      90.66       2.41       0.17       1.19       ----

> <Gold.Chemscore.Fitness>
14.6897

> <Gold.Chemscore.DG>
-16.0468

> <Gold.Chemscore.ZeroCoef>
-5.4800

> <Gold.Chemscore.Hbond>
1.8389

> <Gold.Chemscore.Metal>
0.0000

> <Gold.Chemscore.Lipo>
90.6599

> <Gold.Chemscore.Internal_Hbond>
0.0000

> <Gold.Chemscore.DEClash>
0.1695

> <Gold.Chemscore.DEInternal>
1.1877

> <Gold.Chemscore.Rot>
2.4149

> <Gold.Chemscore.Internal.Correction>
   9.000000E+99

> <Gold.Chemscore.Hbonds>
donor molecule, donor type, donor heavy atom, donor atom, acceptor molecule, acceptor atom, score
      L1  H    17    33       P1 10175  0.02
      P1  H  7997  8010       L1     8  0.37

> <Gold.Chemscore.Hbond.Weighted>
-6.1419

> <Gold.Chemscore.Metal.Weighted>
-0.0000

> <Gold.Chemscore.Lipo.Weighted>
-10.6072

> <Gold.Chemscore.Internal_Hbond.Weighted>
0.0000

> <Gold.Chemscore.DEClash.Weighted>
0.1695

> <Gold.Chemscore.DEInternal.Weighted>
1.1877

> <Gold.Chemscore.Rot.Weighted>
6.1822

> <Gold.Chemscore.Internal.Correction.Weighted>
   9.000000E+99

> <Gold.Protein.RotatedTorsions>
[ 6907 6896 6895 6894 ] final -100.18 input  -60.11 | X-H torsion
[ 7974 7965 7964 7962 ] final  107.44 input  175.53 | X-H torsion
[ 8008 7997 7996 7995 ] final   45.51 input   59.86 | X-H torsion
[ 10167 10162 10161 10158 ] final   22.33 input  -65.29 | X-H torsion
[ 10718 10713 10712 10709 ] final  -18.29 input   66.30 | X-H torsion
[ 10763 10752 10751 10750 ] final  -57.24 input  -60.55 | X-H torsion
[ 11005 11000 10999 10996 ] final -137.45 input  -57.11 | X-H torsion

> <Gold.Protein.ActiveResidues>
 VAL166  LYS551  ARG553  GLY616  TRP617  ASP618  TYR619  PRO620  LYS621  CYS622 
 ASP623  PHE694  ASN695  SER759  ASP760  ASP761  ALA762  ILE779  LEU786  VAL792 
 PHE793  MET794  SER795  GLU796  ALA797  LYS798  CYS799  TRP800  GLU811  SER814 

> <Gold.Protein.RotatedAtoms>
  150.7106  134.0927  159.3937 H   0  0  0  0  0  0  0  0  0  0  0  0  # atno 6907 bound_to 6896
  151.8912  135.0413  160.0507 H   0  0  0  0  0  0  0  0  0  0  0  0  # atno 6908 bound_to 6896
  152.2490  133.5163  159.5351 H   0  0  0  0  0  0  0  0  0  0  0  0  # atno 6909 bound_to 6896
  145.2936  139.2592  143.3852 H   0  0  0  0  0  0  0  0  0  0  0  0  # atno 7974 bound_to 7965
  155.3372  140.3406  155.4239 H   0  0  0  0  0  0  0  0  0  0  0  0  # atno 8008 bound_to 7997
  156.1832  140.1671  156.8271 H   0  0  0  0  0  0  0  0  0  0  0  0  # atno 8009 bound_to 7997
  154.5356  140.0735  156.8405 H   0  0  0  0  0  0  0  0  0  0  0  0  # atno 8010 bound_to 7997
  140.5357  143.9765  150.6490 H   0  0  0  0  0  0  0  0  0  0  0  0  # atno 10167 bound_to 10162
  156.5616  130.4727  149.6404 H   0  0  0  0  0  0  0  0  0  0  0  0  # atno 10718 bound_to 10713
  154.2194  135.6380  153.5140 H   0  0  0  0  0  0  0  0  0  0  0  0  # atno 10763 bound_to 10752
  152.9972  135.5493  154.6131 H   0  0  0  0  0  0  0  0  0  0  0  0  # atno 10764 bound_to 10752
  154.5587  135.2907  155.0914 H   0  0  0  0  0  0  0  0  0  0  0  0  # atno 10765 bound_to 10752
  140.8710  134.2051  157.4651 H   0  0  0  0  0  0  0  0  0  0  0  0  # atno 11005 bound_to 11000
  146.3176  140.3433  142.8650 LP  0  0  0  0  0  0  0  0  0  0  0  0  # atno 17320 bound_to 7965
  144.9152  140.7804  143.5782 LP  0  0  0  0  0  0  0  0  0  0  0  0  # atno 17321 bound_to 7965
  140.3152  143.3172  152.0840 LP  0  0  0  0  0  0  0  0  0  0  0  0  # atno 17342 bound_to 10162
  139.4970  144.6610  151.6464 LP  0  0  0  0  0  0  0  0  0  0  0  0  # atno 17343 bound_to 10162
  156.2794  130.7062  151.1882 LP  0  0  0  0  0  0  0  0  0  0  0  0  # atno 17370 bound_to 10713
  157.7367  131.0559  150.5397 LP  0  0  0  0  0  0  0  0  0  0  0  0  # atno 17371 bound_to 10713
  139.8712  134.9774  156.4958 LP  0  0  0  0  0  0  0  0  0  0  0  0  # atno 17394 bound_to 11000
  140.8573  133.8086  155.9229 LP  0  0  0  0  0  0  0  0  0  0  0  0  # atno 17395 bound_to 11000

$$$$
