AV-unprocessed.smi:8|AV-procd|sdf|48|dock1
  -GOLD-   2262015163D 1   1.00000     0.00000
 Structure written by MMmdl.
 34 35  0  0  0  0  0  0  0  0  3 V2000
  152.7357  142.7073  161.9172 C   0  0  0  0  0  0  0  0  0  0  0  0
  152.7515  143.2486  160.4808 C   0  0  0  0  0  0  0  0  0  0  0  0
  152.5458  142.1747  159.4999 N   0  0  0  0  0  0  0  0  0  0  0  0
  151.3301  142.1633  158.7960 C   0  0  0  0  0  0  0  0  0  0  0  0
  151.0393  141.2303  157.8659 C   0  0  0  0  0  0  0  0  0  0  0  0
  149.7121  141.2095  157.1229 C   0  0  0  0  0  0  0  0  0  0  0  0
  149.8733  141.1793  155.6743 N   0  0  0  0  0  0  0  0  0  0  0  0
  148.7320  141.0964  154.8638 C   0  0  0  0  0  0  0  0  0  0  0  0
  147.8196  142.0940  154.9075 N   0  0  0  0  0  0  0  0  0  0  0  0
  146.7304  142.0272  154.1330 C   0  0  0  0  0  0  0  0  0  0  0  0
  146.4907  141.0064  153.2972 N   0  3  0  0  0  0  0  0  0  0  0  0
  147.3785  139.9859  153.2180 C   0  0  0  0  0  0  0  0  0  0  0  0
  148.5471  139.9915  154.0056 C   0  0  0  0  0  0  0  0  0  0  0  0
  149.5452  138.8508  153.9250 C   0  0  0  0  0  0  0  0  0  0  0  0
  152.0460  140.1915  157.6194 C   0  0  0  0  0  0  0  0  0  0  0  0
  151.8195  139.3048  156.7962 O   0  0  0  0  0  0  0  0  0  0  0  0
  153.2143  140.2528  158.3220 N   0  5  0  0  0  0  0  0  0  0  0  0
  153.4892  141.2201  159.2495 C   0  0  0  0  0  0  0  0  0  0  0  0
  154.5558  141.2593  159.8637 O   0  0  0  0  0  0  0  0  0  0  0  0
  152.9038  143.5102  162.6351 H   0  0  0  0  0  0  0  0  0  0  0  0
  153.5152  141.9595  162.0655 H   0  0  0  0  0  0  0  0  0  0  0  0
  151.7775  142.2449  162.1557 H   0  0  0  0  0  0  0  0  0  0  0  0
  151.9939  144.0257  160.3682 H   0  0  0  0  0  0  0  0  0  0  0  0
  153.7017  143.7502  160.2927 H   0  0  0  0  0  0  0  0  0  0  0  0
  150.6508  142.9623  159.0553 H   0  0  0  0  0  0  0  0  0  0  0  0
  149.1404  140.3384  157.4461 H   0  0  0  0  0  0  0  0  0  0  0  0
  149.1357  142.0927  157.4013 H   0  0  0  0  0  0  0  0  0  0  0  0
  150.7030  140.7167  155.3303 H   0  0  0  0  0  0  0  0  0  0  0  0
  145.9942  142.8170  154.1603 H   0  0  0  0  0  0  0  0  0  0  0  0
  147.1230  139.1973  152.5253 H   0  0  0  0  0  0  0  0  0  0  0  0
  149.2193  138.0900  153.2150 H   0  0  0  0  0  0  0  0  0  0  0  0
  149.6606  138.3769  154.9005 H   0  0  0  0  0  0  0  0  0  0  0  0
  150.5196  139.2191  153.6031 H   0  0  0  0  0  0  0  0  0  0  0  0
  145.6485  140.9898  152.7215 H   0  0  0  0  0  0  0  0  0  0  0  0
  1  2  1  0  0  0  0
  1 20  1  0  0  0  0
  1 21  1  0  0  0  0
  1 22  1  0  0  0  0
  2  3  1  0  0  0  0
  2 23  1  0  0  0  0
  2 24  1  0  0  0  0
  3 18  1  0  0  0  0
  3  4  1  0  0  0  0
  4  5  2  0  0  0  0
  4 25  1  0  0  0  0
  5  6  1  0  0  0  0
  5 15  1  0  0  0  0
  6  7  1  0  0  0  0
  6 26  1  0  0  0  0
  6 27  1  0  0  0  0
  7  8  1  0  0  0  0
  7 28  1  0  0  0  0
  8 13  1  0  0  0  0
  8  9  2  0  0  0  0
  9 10  1  0  0  0  0
 10 11  2  0  0  0  0
 10 29  1  0  0  0  0
 11 12  1  0  0  0  0
 11 34  1  0  0  0  0
 12 13  2  0  0  0  0
 12 30  1  0  0  0  0
 13 14  1  0  0  0  0
 14 31  1  0  0  0  0
 14 32  1  0  0  0  0
 14 33  1  0  0  0  0
 15 16  2  0  0  0  0
 15 17  1  0  0  0  0
 17 18  1  0  0  0  0
 18 19  2  0  0  0  0
M  CHG  1  11   1
M  CHG  1  17  -1
M  END
> <s_m_source_file>
AV-unprocessed.smi

> <i_m_source_file_index>
8

> <i_lp_mmshare_version>
43012

> <i_f3d_flags>
0

> <s_epik_input>
W0NIM11bQ0gyXW4xW2NIXWMoYyg9TylbbkhdYzE9TylbQ0gyXVtOSF1jMm5bY0hdbltjSF1jMltDSDNd

> <s_epik_cmdline>
J2VwaWtfcHl0aG9uJywgJy1waCcsICc3LjAnLCAnLXRuJywgJzgnLCAnLW1hJywgJzIwMCcsICctbWV0YWxfYmluZGluZycsICctaW1hZScsICc8aW5maWxlLm1hZT4nLCAnLW9tYWUnLCAnPG91dGZpbGUubWFlPic=

> <r_lp_tautomer_probability>
0.998874

> <r_epik_Ionization_Penalty>
7.33654

> <r_epik_Ionization_Penalty_Charging>
3.33717

> <r_epik_Ionization_Penalty_Neutral>
3.99937

> <r_epik_State_Penalty>
6.31594

> <r_epik_Charging_Adjusted_Penalty>
9.65311

> <i_epik_Tot_Q>
0

> <i_epik_Tot_abs_Q>
2

> <r_epik_Metal_State_Penalty>
2.94778

> <b_epik_Metal_Only>
1

> <s_lp_Force_Field>
OPLS_2005

> <r_lp_Energy>
21.5879

> <b_lp_Chiralities_Consistent>
1

> <s_lp_Variant>
AV-unprocessed.smi:8-4

> <Gold.Version>
5.8.1

> <Gold.Id.Protein>
6NUR|6NUR_protein|mol2

> <Gold.PLP.Fitness>
46.4107

> <Gold.PLP.PLP>
-35.9636

> <Gold.PLP.part.hbond>
-2.0000

> <Gold.PLP.part.metal>
0.0000

> <Gold.PLP.part.buried>
-4.3306

> <Gold.PLP.part.nonpolar>
-29.7893

> <Gold.PLP.part.repulsive>
1.3868

> <Gold.PLP.ligand.clash>
0.0000

> <Gold.PLP.ligand.torsion>
0.7126

> <Gold.PLP.Chemscore.Hbond>
3.9520

> <Gold.PLP.Chemscore.CHOScore>
0.0000

> <Gold.PLP.Chemscore.Metal>
0.0000

> <Gold.Chemscore.Hbonds>
donor molecule, donor type, donor heavy atom, donor atom, acceptor molecule, acceptor atom, score
      L1  H    11    34       P1 10175  1.69
      P1  H  7997  8008       L1    17  1.86

> <Gold.PLP.Chemscore.Internal.Correction>
0.0162

> <Gold.Rescore>
     Score         DG    S(hbond)    S(metal)    S(lipo)     H(rot)  DE(clash)    DE(int)     intcor
     11.09     -13.01       1.49        0.00      59.70       1.73       0.08       1.85       ----

> <Gold.Chemscore.Fitness>
11.0874

> <Gold.Chemscore.DG>
-13.0135

> <Gold.Chemscore.ZeroCoef>
-5.4800

> <Gold.Chemscore.Hbond>
1.4894

> <Gold.Chemscore.Metal>
0.0000

> <Gold.Chemscore.Lipo>
59.7036

> <Gold.Chemscore.Internal_Hbond>
0.0000

> <Gold.Chemscore.DEClash>
0.0781

> <Gold.Chemscore.DEInternal>
1.8481

> <Gold.Chemscore.Rot>
1.7290

> <Gold.Chemscore.Internal.Correction>
   9.000000E+99

> <Gold.Chemscore.Hbonds>
donor molecule, donor type, donor heavy atom, donor atom, acceptor molecule, acceptor atom, score
      L1  H    11    34       P1 10175  0.13
      P1  H  7997  8008       L1    17  0.41

> <Gold.Chemscore.Hbond.Weighted>
-4.9745

> <Gold.Chemscore.Metal.Weighted>
-0.0000

> <Gold.Chemscore.Lipo.Weighted>
-6.9853

> <Gold.Chemscore.Internal_Hbond.Weighted>
0.0000

> <Gold.Chemscore.DEClash.Weighted>
0.0781

> <Gold.Chemscore.DEInternal.Weighted>
1.8481

> <Gold.Chemscore.Rot.Weighted>
4.4263

> <Gold.Chemscore.Internal.Correction.Weighted>
   9.000000E+99

> <Gold.Protein.RotatedTorsions>
[ 6907 6896 6895 6894 ] final  100.98 input  -60.11 | X-H torsion
[ 7974 7965 7964 7962 ] final    4.15 input  175.53 | X-H torsion
[ 8008 7997 7996 7995 ] final  -86.05 input   59.86 | X-H torsion
[ 10167 10162 10161 10158 ] final -142.36 input  -65.29 | X-H torsion
[ 10718 10713 10712 10709 ] final  148.28 input   66.30 | X-H torsion
[ 10763 10752 10751 10750 ] final  -84.18 input  -60.55 | X-H torsion
[ 11005 11000 10999 10996 ] final   52.58 input  -57.11 | X-H torsion

> <Gold.Protein.ActiveResidues>
 VAL166  LYS551  ARG553  GLY616  TRP617  ASP618  TYR619  PRO620  LYS621  CYS622 
 ASP623  PHE694  ASN695  SER759  ASP760  ASP761  ALA762  ILE779  LEU786  VAL792 
 PHE793  MET794  SER795  GLU796  ALA797  LYS798  CYS799  TRP800  GLU811  SER814 

> <Gold.Protein.RotatedAtoms>
  152.5360  134.0195  159.7974 H   0  0  0  0  0  0  0  0  0  0  0  0  # atno 6907 bound_to 6896
  151.0383  133.5720  159.2661 H   0  0  0  0  0  0  0  0  0  0  0  0  # atno 6908 bound_to 6896
  151.2699  135.0688  159.9184 H   0  0  0  0  0  0  0  0  0  0  0  0  # atno 6909 bound_to 6896
  146.2444  140.0578  142.8370 H   0  0  0  0  0  0  0  0  0  0  0  0  # atno 7974 bound_to 7965
  154.6475  140.0583  156.9917 H   0  0  0  0  0  0  0  0  0  0  0  0  # atno 8008 bound_to 7997
  155.1422  140.3266  155.4431 H   0  0  0  0  0  0  0  0  0  0  0  0  # atno 8009 bound_to 7997
  156.2560  140.1962  156.6537 H   0  0  0  0  0  0  0  0  0  0  0  0  # atno 8010 bound_to 7997
  139.8096  143.7721  152.2663 H   0  0  0  0  0  0  0  0  0  0  0  0  # atno 10167 bound_to 10162
  157.3105  131.0887  151.1320 H   0  0  0  0  0  0  0  0  0  0  0  0  # atno 10718 bound_to 10713
  154.5965  135.5529  153.7331 H   0  0  0  0  0  0  0  0  0  0  0  0  # atno 10763 bound_to 10752
  153.0137  135.6356  154.1775 H   0  0  0  0  0  0  0  0  0  0  0  0  # atno 10764 bound_to 10752
  154.1715  135.2892  155.3059 H   0  0  0  0  0  0  0  0  0  0  0  0  # atno 10765 bound_to 10752
  140.0837  134.5303  155.8920 H   0  0  0  0  0  0  0  0  0  0  0  0  # atno 11005 bound_to 11000
  145.0927  140.9295  143.4759 LP  0  0  0  0  0  0  0  0  0  0  0  0  # atno 17320 bound_to 7965
  145.0754  139.2999  143.5810 LP  0  0  0  0  0  0  0  0  0  0  0  0  # atno 17321 bound_to 7965
  139.7866  144.7425  151.0014 LP  0  0  0  0  0  0  0  0  0  0  0  0  # atno 17342 bound_to 10162
  140.7818  143.4486  151.0446 LP  0  0  0  0  0  0  0  0  0  0  0  0  # atno 17343 bound_to 10162
  157.2644  130.6674  149.5989 LP  0  0  0  0  0  0  0  0  0  0  0  0  # atno 17370 bound_to 10713
  155.9677  130.4498  150.5675 LP  0  0  0  0  0  0  0  0  0  0  0  0  # atno 17371 bound_to 10713
  141.2055  133.6648  156.6187 LP  0  0  0  0  0  0  0  0  0  0  0  0  # atno 17394 bound_to 11000
  140.3451  134.7816  157.4426 LP  0  0  0  0  0  0  0  0  0  0  0  0  # atno 17395 bound_to 11000

$$$$
