AV-unprocessed.smi:2753|AV-procd|sdf|10613|dock5
  -GOLD-   2272015 63D 1   1.00000     0.00000
 Structure written by MMmdl.
 27 28  0  0  0  0  0  0  0  0  3 V2000
  153.0492  142.7817  159.2350 F   0  0  0  0  0  0  0  0  0  0  0  0
  151.9571  143.2497  158.6307 C   0  0  0  0  0  0  0  0  0  0  0  0
  151.0519  143.5604  159.5583 F   0  0  0  0  0  0  0  0  0  0  0  0
  152.2738  144.3519  157.9515 F   0  0  0  0  0  0  0  0  0  0  0  0
  151.3976  142.2028  157.6878 C   0  0  0  0  0  0  0  0  0  0  0  0
  151.5685  140.8210  157.9971 C   0  0  0  0  0  0  0  0  0  0  0  0
  150.9763  140.1619  156.9951 N   0  5  0  0  0  0  0  0  0  0  0  0
  150.4653  141.0420  156.1084 C   0  0  0  0  0  0  0  0  0  0  0  0
  149.7157  140.6754  154.8442 C   0  0  2  0  0  0  0  0  0  0  0  0
  148.2470  141.1349  154.8867 C   0  0  0  0  0  0  0  0  0  0  0  0
  147.5205  140.7241  153.5967 C   0  0  0  0  0  0  0  0  0  0  0  0
  147.6767  139.2166  153.3339 C   0  0  0  0  0  0  0  0  0  0  0  0
  149.1061  138.8385  153.2847 N   0  3  0  0  0  0  0  0  0  0  0  0
  149.8351  139.1734  154.5271 C   0  0  0  0  0  0  0  0  0  0  0  0
  150.7182  142.2959  156.5285 N   0  0  0  0  0  0  0  0  0  0  0  0
  152.0442  140.2964  158.8162 H   0  0  0  0  0  0  0  0  0  0  0  0
  150.2023  141.2189  154.0325 H   0  0  0  0  0  0  0  0  0  0  0  0
  147.7440  140.6878  155.7453 H   0  0  0  0  0  0  0  0  0  0  0  0
  148.1926  142.2160  155.0205 H   0  0  0  0  0  0  0  0  0  0  0  0
  146.4640  140.9847  153.6653 H   0  0  0  0  0  0  0  0  0  0  0  0
  147.9241  141.2871  152.7539 H   0  0  0  0  0  0  0  0  0  0  0  0
  147.1796  138.6413  154.1162 H   0  0  0  0  0  0  0  0  0  0  0  0
  147.2044  138.9463  152.3893 H   0  0  0  0  0  0  0  0  0  0  0  0
  149.1794  137.8446  153.1215 H   0  0  0  0  0  0  0  0  0  0  0  0
  150.8819  138.8913  154.4110 H   0  0  0  0  0  0  0  0  0  0  0  0
  149.4326  138.5769  155.3473 H   0  0  0  0  0  0  0  0  0  0  0  0
  149.5423  139.3295  152.5174 H   0  0  0  0  0  0  0  0  0  0  0  0
  1  2  1  0  0  0  0
  2  3  1  0  0  0  0
  2  4  1  0  0  0  0
  2  5  1  0  0  0  0
  5 15  1  0  0  0  0
  5  6  2  0  0  0  0
  6  7  1  0  0  0  0
  6 16  1  0  0  0  0
  7  8  1  0  0  0  0
  8  9  1  0  0  0  0
  8 15  2  0  0  0  0
  9 14  1  0  0  0  0
  9 10  1  0  0  0  0
  9 17  1  0  0  0  0
 10 11  1  0  0  0  0
 10 18  1  0  0  0  0
 10 19  1  0  0  0  0
 11 12  1  0  0  0  0
 11 20  1  0  0  0  0
 11 21  1  0  0  0  0
 12 13  1  0  0  0  0
 12 22  1  0  0  0  0
 12 23  1  0  0  0  0
 13 14  1  0  0  0  0
 13 24  1  0  0  0  0
 13 27  1  0  0  0  0
 14 25  1  0  0  0  0
 14 26  1  0  0  0  0
M  CHG  1   7  -1
M  CHG  1  13   1
M  END
> <s_m_source_file>
AV-unprocessed.smi

> <i_m_source_file_index>
2753

> <i_lp_mmshare_version>
43012

> <i_f3d_flags>
0

> <s_epik_input>
RkMoRikoRiljMVtjSF1bbkhdYyhuMSlbQ0BASF0yW0NIMl1bQ0gyXVtDSDJdW05IXVtDSDJdMg==

> <s_epik_cmdline>
J2VwaWtfcHl0aG9uJywgJy1waCcsICc3LjAnLCAnLXRuJywgJzgnLCAnLW1hJywgJzIwMCcsICctbWV0YWxfYmluZGluZycsICctaW1hZScsICc8aW5maWxlLm1hZT4nLCAnLW9tYWUnLCAnPG91dGZpbGUubWFlPic=

> <r_lp_tautomer_probability>
0.5

> <r_epik_Ionization_Penalty>
6.42345

> <r_epik_Ionization_Penalty_Charging>
5.19935

> <r_epik_Ionization_Penalty_Neutral>
1.22411

> <r_epik_State_Penalty>
5.30226

> <r_epik_Charging_Adjusted_Penalty>
10.5016

> <i_epik_Tot_Q>
0

> <i_epik_Tot_abs_Q>
2

> <r_epik_Metal_State_Penalty>
1.35744

> <b_epik_Metal_Only>
1

> <s_lp_Force_Field>
OPLS_2005

> <r_lp_Energy>
18.3827

> <b_lp_Chiralities_Consistent>
1

> <s_lp_Variant>
AV-unprocessed.smi:2753-5

> <Gold.Version>
5.8.1

> <Gold.Id.Protein>
6NUR|6NUR_protein|mol2

> <Gold.PLP.Fitness>
40.3620

> <Gold.PLP.PLP>
-33.9543

> <Gold.PLP.part.hbond>
-1.8272

> <Gold.PLP.part.metal>
0.0000

> <Gold.PLP.part.buried>
-3.1237

> <Gold.PLP.part.nonpolar>
-30.2578

> <Gold.PLP.part.repulsive>
0.2113

> <Gold.PLP.ligand.clash>
0.0000

> <Gold.PLP.ligand.torsion>
1.2553

> <Gold.PLP.Chemscore.Hbond>
2.9590

> <Gold.PLP.Chemscore.CHOScore>
0.0000

> <Gold.PLP.Chemscore.Metal>
0.0000

> <Gold.Chemscore.Hbonds>
donor molecule, donor type, donor heavy atom, donor atom, acceptor molecule, acceptor atom, score
      L1  H    13    24       P1  7948  1.95
      L1  H    13    27       P1  7957  0.99

> <Gold.PLP.Chemscore.Internal.Correction>
0.0414

> <Gold.Rescore>
     Score         DG    S(hbond)    S(metal)    S(lipo)     H(rot)  DE(clash)    DE(int)     intcor
     14.78     -15.78       1.87        0.00      56.61       1.00       0.02       0.98       ----

> <Gold.Chemscore.Fitness>
14.7829

> <Gold.Chemscore.DG>
-15.7844

> <Gold.Chemscore.ZeroCoef>
-5.4800

> <Gold.Chemscore.Hbond>
1.8687

> <Gold.Chemscore.Metal>
0.0000

> <Gold.Chemscore.Lipo>
56.6050

> <Gold.Chemscore.Internal_Hbond>
0.0000

> <Gold.Chemscore.DEClash>
0.0249

> <Gold.Chemscore.DEInternal>
0.9765

> <Gold.Chemscore.Rot>
1.0000

> <Gold.Chemscore.Internal.Correction>
   9.000000E+99

> <Gold.Chemscore.Hbonds>
donor molecule, donor type, donor heavy atom, donor atom, acceptor molecule, acceptor atom, score
      L1  H    13    24       P1  7948  0.87
      L1  H    13    27       P1  7957  0.91

> <Gold.Chemscore.Hbond.Weighted>
-6.2416

> <Gold.Chemscore.Metal.Weighted>
-0.0000

> <Gold.Chemscore.Lipo.Weighted>
-6.6228

> <Gold.Chemscore.Internal_Hbond.Weighted>
0.0000

> <Gold.Chemscore.DEClash.Weighted>
0.0249

> <Gold.Chemscore.DEInternal.Weighted>
0.9765

> <Gold.Chemscore.Rot.Weighted>
2.5600

> <Gold.Chemscore.Internal.Correction.Weighted>
   9.000000E+99

> <Gold.Protein.RotatedTorsions>
[ 6907 6896 6895 6894 ] final  139.64 input  -60.11 | X-H torsion
[ 7974 7965 7964 7962 ] final  -44.33 input  175.53 | X-H torsion
[ 8008 7997 7996 7995 ] final  -74.33 input   59.86 | X-H torsion
[ 10167 10162 10161 10158 ] final -163.07 input  -65.29 | X-H torsion
[ 10718 10713 10712 10709 ] final  -23.69 input   66.30 | X-H torsion
[ 10763 10752 10751 10750 ] final   99.55 input  -60.55 | X-H torsion
[ 11005 11000 10999 10996 ] final  -41.73 input  -57.11 | X-H torsion

> <Gold.Protein.ActiveResidues>
 VAL166  LYS551  ARG553  GLY616  TRP617  ASP618  TYR619  PRO620  LYS621  CYS622 
 ASP623  PHE694  ASN695  SER759  ASP760  ASP761  ALA762  ILE779  LEU786  VAL792 
 PHE793  MET794  SER795  GLU796  ALA797  LYS798  CYS799  TRP800  GLU811  SER814 

> <Gold.Protein.RotatedAtoms>
  152.2525  133.5227  159.5333 H   0  0  0  0  0  0  0  0  0  0  0  0  # atno 6907 bound_to 6896
  150.7098  134.0941  159.3951 H   0  0  0  0  0  0  0  0  0  0  0  0  # atno 6908 bound_to 6896
  151.8860  135.0435  160.0544 H   0  0  0  0  0  0  0  0  0  0  0  0  # atno 6909 bound_to 6896
  145.9931  140.7158  142.9307 H   0  0  0  0  0  0  0  0  0  0  0  0  # atno 7974 bound_to 7965
  154.5321  140.0763  156.8364 H   0  0  0  0  0  0  0  0  0  0  0  0  # atno 8008 bound_to 7997
  155.3353  140.3404  155.4221 H   0  0  0  0  0  0  0  0  0  0  0  0  # atno 8009 bound_to 7997
  156.1792  140.1646  156.8293 H   0  0  0  0  0  0  0  0  0  0  0  0  # atno 8010 bound_to 7997
  139.6347  144.0373  152.2044 H   0  0  0  0  0  0  0  0  0  0  0  0  # atno 10167 bound_to 10162
  156.4877  130.4559  149.6774 H   0  0  0  0  0  0  0  0  0  0  0  0  # atno 10718 bound_to 10713
  153.3029  135.4109  155.1268 H   0  0  0  0  0  0  0  0  0  0  0  0  # atno 10763 bound_to 10752
  154.8554  135.3545  154.5828 H   0  0  0  0  0  0  0  0  0  0  0  0  # atno 10764 bound_to 10752
  153.6254  135.7063  153.5353 H   0  0  0  0  0  0  0  0  0  0  0  0  # atno 10765 bound_to 10752
  141.0266  133.6838  156.2498 H   0  0  0  0  0  0  0  0  0  0  0  0  # atno 11005 bound_to 11000
  144.6895  140.3105  143.7249 LP  0  0  0  0  0  0  0  0  0  0  0  0  # atno 17320 bound_to 7965
  145.7599  139.1821  143.2273 LP  0  0  0  0  0  0  0  0  0  0  0  0  # atno 17321 bound_to 7965
  140.0047  144.6267  150.7699 LP  0  0  0  0  0  0  0  0  0  0  0  0  # atno 17342 bound_to 10162
  140.7458  143.2882  151.3405 LP  0  0  0  0  0  0  0  0  0  0  0  0  # atno 17343 bound_to 10162
  156.3458  130.7406  151.2358 LP  0  0  0  0  0  0  0  0  0  0  0  0  # atno 17370 bound_to 10713
  157.7477  131.0391  150.4534 LP  0  0  0  0  0  0  0  0  0  0  0  0  # atno 17371 bound_to 10713
  140.6480  134.5097  157.5575 LP  0  0  0  0  0  0  0  0  0  0  0  0  # atno 17394 bound_to 11000
  139.9180  134.8206  156.1302 LP  0  0  0  0  0  0  0  0  0  0  0  0  # atno 17395 bound_to 11000

$$$$
