AV-unprocessed.smi:1423|AV-procd|sdf|5795|dock9
  -GOLD-   22720 5443D 1   1.00000     0.00000
 Structure written by MMmdl.
 44 45  0  0  0  0  0  0  0  0  2 V2000
  152.4684  140.4024  158.3204 C   0  0  0  0  0  0  0  0  0  0  0  0
  152.4312  140.3595  156.8981 O   0  0  0  0  0  0  0  0  0  0  0  0
  151.7116  139.3502  156.2918 C   0  0  0  0  0  0  0  0  0  0  0  0
  151.3734  138.2129  157.0515 C   0  0  0  0  0  0  0  0  0  0  0  0
  150.6444  137.1756  156.4392 C   0  0  0  0  0  0  0  0  0  0  0  0
  150.2675  137.3126  155.0813 C   0  0  0  0  0  0  0  0  0  0  0  0
  149.5528  136.3329  154.3390 N   0  0  0  0  0  0  0  0  0  0  0  0
  149.1202  135.1232  154.7345 C   0  0  0  0  0  0  0  0  0  0  0  0
  149.2146  134.6668  155.8734 O   0  0  0  0  0  0  0  0  0  0  0  0
  148.5454  134.4591  153.7211 N   0  0  0  0  0  0  0  0  0  0  0  0
  147.9754  133.1176  153.8119 C   0  0  2  0  0  0  0  0  0  0  0  0
  149.0820  132.0601  153.9865 C   0  0  0  0  0  0  0  0  0  0  0  0
  148.5011  130.6362  153.9728 C   0  0  0  0  0  0  0  0  0  0  0  0
  147.7310  130.3860  152.7282 N   0  3  1  0  0  0  0  0  0  0  0  0
  147.2799  128.9757  152.6093 C   0  0  0  0  0  0  0  0  0  0  0  0
  148.3506  128.0579  152.0105 C   0  0  0  0  0  0  0  0  0  0  0  0
  149.5373  128.0362  152.6213 N   0  0  0  0  0  0  0  0  0  0  0  0
  148.1194  127.3898  151.0041 O   0  0  0  0  0  0  0  0  0  0  0  0
  146.6258  131.3678  152.5648 C   0  0  0  0  0  0  0  0  0  0  0  0
  147.1642  132.8081  152.5432 C   0  0  0  0  0  0  0  0  0  0  0  0
  150.6624  138.4876  154.4083 C   0  0  0  0  0  0  0  0  0  0  0  0
  151.3621  139.4849  154.9887 N   0  0  0  0  0  0  0  0  0  0  0  0
  153.0727  141.2511  158.6398 H   0  0  0  0  0  0  0  0  0  0  0  0
  152.9192  139.5002  158.7361 H   0  0  0  0  0  0  0  0  0  0  0  0
  151.4701  140.5310  158.7412 H   0  0  0  0  0  0  0  0  0  0  0  0
  151.6738  138.1335  158.0859 H   0  0  0  0  0  0  0  0  0  0  0  0
  150.4066  136.2985  157.0197 H   0  0  0  0  0  0  0  0  0  0  0  0
  149.3264  136.5958  153.3911 H   0  0  0  0  0  0  0  0  0  0  0  0
  148.5021  134.9135  152.8207 H   0  0  0  0  0  0  0  0  0  0  0  0
  147.3008  133.0743  154.6693 H   0  0  0  0  0  0  0  0  0  0  0  0
  149.8175  132.1575  153.1866 H   0  0  0  0  0  0  0  0  0  0  0  0
  149.6196  132.2247  154.9210 H   0  0  0  0  0  0  0  0  0  0  0  0
  149.3180  129.9180  154.0520 H   0  0  0  0  0  0  0  0  0  0  0  0
  147.8564  130.4822  154.8395 H   0  0  0  0  0  0  0  0  0  0  0  0
  147.0482  128.5784  153.5985 H   0  0  0  0  0  0  0  0  0  0  0  0
  146.3583  128.9243  152.0271 H   0  0  0  0  0  0  0  0  0  0  0  0
  150.2794  127.4469  152.2721 H   0  0  0  0  0  0  0  0  0  0  0  0
  149.6890  128.6107  153.4384 H   0  0  0  0  0  0  0  0  0  0  0  0
  146.0854  131.1751  151.6378 H   0  0  0  0  0  0  0  0  0  0  0  0
  145.9082  131.2482  153.3780 H   0  0  0  0  0  0  0  0  0  0  0  0
  146.3344  133.5100  152.4492 H   0  0  0  0  0  0  0  0  0  0  0  0
  147.7881  132.9464  151.6587 H   0  0  0  0  0  0  0  0  0  0  0  0
  150.4089  138.6346  153.3683 H   0  0  0  0  0  0  0  0  0  0  0  0
  148.3733  130.5361  151.9628 H   0  0  0  0  0  0  0  0  0  0  0  0
  1  2  1  0  0  0  0
  1 23  1  0  0  0  0
  1 24  1  0  0  0  0
  1 25  1  0  0  0  0
  2  3  1  0  0  0  0
  3 22  1  0  0  0  0
  3  4  2  0  0  0  0
  4  5  1  0  0  0  0
  4 26  1  0  0  0  0
  5  6  2  0  0  0  0
  5 27  1  0  0  0  0
  6  7  1  0  0  0  0
  6 21  1  0  0  0  0
  7  8  1  0  0  0  0
  7 28  1  0  0  0  0
  8  9  2  0  0  0  0
  8 10  1  0  0  0  0
 10 11  1  0  0  0  0
 10 29  1  0  0  0  0
 11 20  1  0  0  0  0
 11 12  1  0  0  0  0
 11 30  1  0  0  0  0
 12 13  1  0  0  0  0
 12 31  1  0  0  0  0
 12 32  1  0  0  0  0
 13 14  1  0  0  0  0
 13 33  1  0  0  0  0
 13 34  1  0  0  0  0
 14 15  1  0  0  0  0
 14 19  1  0  0  0  0
 14 44  1  0  0  0  0
 15 16  1  0  0  0  0
 15 35  1  0  0  0  0
 15 36  1  0  0  0  0
 16 17  1  0  0  0  0
 16 18  2  0  0  0  0
 17 37  1  0  0  0  0
 17 38  1  0  0  0  0
 19 20  1  0  0  0  0
 19 39  1  0  0  0  0
 19 40  1  0  0  0  0
 20 41  1  0  0  0  0
 20 42  1  0  0  0  0
 21 22  2  0  0  0  0
 21 43  1  0  0  0  0
M  CHG  1  14   1
M  END
> <s_m_source_file>
AV-unprocessed.smi

> <i_m_source_file_index>
1423

> <i_lp_mmshare_version>
43012

> <i_f3d_flags>
0

> <s_epik_input>
W0NIM11PYzFbY0hdW2NIXWMoW2NIXW4xKVtOSF1DKD1PKVtOSF1bQ0hdMltDSDJdW0NIMl1OKFtDSDJdW0NIMl0yKVtDSDJdQyg9TylbTkgyXQ==

> <s_epik_cmdline>
J2VwaWtfcHl0aG9uJywgJy1waCcsICc3LjAnLCAnLXRuJywgJzgnLCAnLW1hJywgJzIwMCcsICctbWV0YWxfYmluZGluZycsICctaW1hZScsICc8aW5maWxlLm1hZT4nLCAnLW9tYWUnLCAnPG91dGZpbGUubWFlPic=

> <r_lp_tautomer_probability>
1

> <r_epik_Ionization_Penalty>
0.838963

> <r_epik_Ionization_Penalty_Charging>
0.838844

> <r_epik_Ionization_Penalty_Neutral>
0.0001192

> <r_epik_State_Penalty>
0.8734

> <r_epik_Charging_Adjusted_Penalty>
1.71224

> <i_epik_Tot_Q>
1

> <i_epik_Tot_abs_Q>
1

> <r_epik_Metal_State_Penalty>
0.890706

> <b_epik_Metal_Only>
0

> <s_lp_Force_Field>
OPLS_2005

> <r_lp_Energy>
16.4152

> <b_lp_Chiralities_Consistent>
1

> <s_lp_Variant>
AV-unprocessed.smi:1423-2

> <Gold.Version>
5.8.1

> <Gold.Id.Protein>
6NUR|6NUR_protein|mol2

> <Gold.PLP.Fitness>
48.2017

> <Gold.PLP.PLP>
-30.9572

> <Gold.PLP.part.hbond>
-6.1642

> <Gold.PLP.part.metal>
0.0000

> <Gold.PLP.part.buried>
-0.2849

> <Gold.PLP.part.nonpolar>
-23.2800

> <Gold.PLP.part.repulsive>
0.3865

> <Gold.PLP.ligand.clash>
0.0000

> <Gold.PLP.ligand.torsion>
0.7053

> <Gold.PLP.Chemscore.Hbond>
5.6633

> <Gold.PLP.Chemscore.CHOScore>
0.5485

> <Gold.PLP.Chemscore.Metal>
0.0000

> <Gold.Chemscore.Hbonds>
donor molecule, donor type, donor heavy atom, donor atom, acceptor molecule, acceptor atom, score
      L1  H     7    28       P1  7948  1.00
      L1  H    10    29       P1  7948  0.98
      L1  H    14    44       P1 10747  1.00
      L1  H    17    37       P1 10737  0.72
      P1  H  7989  7998       L1    22  0.96
      P1  H  7997  8008       L1     2  0.98
      L1  C    21    43       P1  7957  0.53

> <Gold.PLP.Chemscore.Internal.Correction>
0.0199

> <Gold.Rescore>
     Score         DG    S(hbond)    S(metal)    S(lipo)     H(rot)  DE(clash)    DE(int)     intcor
     18.25     -20.18       4.10        0.00      59.38       2.33       0.03       1.90       ----

> <Gold.Chemscore.Fitness>
18.2459

> <Gold.Chemscore.DG>
-20.1792

> <Gold.Chemscore.ZeroCoef>
-5.4800

> <Gold.Chemscore.Hbond>
4.1045

> <Gold.Chemscore.Metal>
0.0000

> <Gold.Chemscore.Lipo>
59.3801

> <Gold.Chemscore.Internal_Hbond>
0.0000

> <Gold.Chemscore.DEClash>
0.0348

> <Gold.Chemscore.DEInternal>
1.8986

> <Gold.Chemscore.Rot>
2.3271

> <Gold.Chemscore.Internal.Correction>
   9.000000E+99

> <Gold.Chemscore.Hbonds>
donor molecule, donor type, donor heavy atom, donor atom, acceptor molecule, acceptor atom, score
      L1  H     7    28       P1  7948  0.86
      L1  H    10    29       P1  7948  0.46
      L1  H    14    44       P1 10747  0.94
      L1  H    17    37       P1 10737  0.72
      P1  H  7989  7998       L1    22  0.46
      P1  H  7997  8008       L1     2  0.19

> <Gold.Chemscore.Hbond.Weighted>
-13.7091

> <Gold.Chemscore.Metal.Weighted>
-0.0000

> <Gold.Chemscore.Lipo.Weighted>
-6.9475

> <Gold.Chemscore.Internal_Hbond.Weighted>
0.0000

> <Gold.Chemscore.DEClash.Weighted>
0.0348

> <Gold.Chemscore.DEInternal.Weighted>
1.8986

> <Gold.Chemscore.Rot.Weighted>
5.9573

> <Gold.Chemscore.Internal.Correction.Weighted>
   9.000000E+99

> <Gold.Protein.RotatedTorsions>
[ 6907 6896 6895 6894 ] final -161.21 input  -60.11 | X-H torsion
[ 7974 7965 7964 7962 ] final  -24.32 input  175.53 | X-H torsion
[ 8008 7997 7996 7995 ] final  -51.22 input   59.86 | X-H torsion
[ 10167 10162 10161 10158 ] final   26.06 input  -65.29 | X-H torsion
[ 10718 10713 10712 10709 ] final   85.93 input   66.30 | X-H torsion
[ 10763 10752 10751 10750 ] final  -18.50 input  -60.55 | X-H torsion
[ 11005 11000 10999 10996 ] final -116.32 input  -57.11 | X-H torsion

> <Gold.Protein.ActiveResidues>
 VAL166  LYS551  ARG553  GLY616  TRP617  ASP618  TYR619  PRO620  LYS621  CYS622 
 ASP623  PHE694  ASN695  SER759  ASP760  ASP761  ALA762  ILE779  LEU786  VAL792 
 PHE793  MET794  SER795  GLU796  ALA797  LYS798  CYS799  TRP800  GLU811  SER814 

> <Gold.Protein.RotatedAtoms>
  151.3611  133.3889  159.2689 H   0  0  0  0  0  0  0  0  0  0  0  0  # atno 6907 bound_to 6896
  150.9725  134.9096  159.7807 H   0  0  0  0  0  0  0  0  0  0  0  0  # atno 6908 bound_to 6896
  152.5189  134.3573  159.9324 H   0  0  0  0  0  0  0  0  0  0  0  0  # atno 6909 bound_to 6896
  146.1562  140.4736  142.8590 H   0  0  0  0  0  0  0  0  0  0  0  0  # atno 7974 bound_to 7965
  154.4078  140.1253  156.4794 H   0  0  0  0  0  0  0  0  0  0  0  0  # atno 8008 bound_to 7997
  155.7100  140.3494  155.4950 H   0  0  0  0  0  0  0  0  0  0  0  0  # atno 8009 bound_to 7997
  155.9309  140.1069  157.1123 H   0  0  0  0  0  0  0  0  0  0  0  0  # atno 8010 bound_to 7997
  140.5054  144.0247  150.6350 H   0  0  0  0  0  0  0  0  0  0  0  0  # atno 10167 bound_to 10162
  157.6922  131.0195  150.2897 H   0  0  0  0  0  0  0  0  0  0  0  0  # atno 10718 bound_to 10713
  153.5903  135.7002  153.5426 H   0  0  0  0  0  0  0  0  0  0  0  0  # atno 10763 bound_to 10752
  153.3184  135.4081  155.1396 H   0  0  0  0  0  0  0  0  0  0  0  0  # atno 10764 bound_to 10752
  154.8602  135.3689  154.5434 H   0  0  0  0  0  0  0  0  0  0  0  0  # atno 10765 bound_to 10752
  141.0429  133.9807  157.2964 H   0  0  0  0  0  0  0  0  0  0  0  0  # atno 11005 bound_to 11000
  144.7966  140.6134  143.6506 LP  0  0  0  0  0  0  0  0  0  0  0  0  # atno 17320 bound_to 7965
  145.4703  139.1504  143.3817 LP  0  0  0  0  0  0  0  0  0  0  0  0  # atno 17321 bound_to 7965
  140.3555  143.2938  152.0441 LP  0  0  0  0  0  0  0  0  0  0  0  0  # atno 17342 bound_to 10162
  139.4882  144.6342  151.7009 LP  0  0  0  0  0  0  0  0  0  0  0  0  # atno 17343 bound_to 10162
  156.3430  130.3818  149.7393 LP  0  0  0  0  0  0  0  0  0  0  0  0  # atno 17370 bound_to 10713
  156.4895  130.8078  151.3089 LP  0  0  0  0  0  0  0  0  0  0  0  0  # atno 17371 bound_to 10713
  139.9290  135.0200  156.8334 LP  0  0  0  0  0  0  0  0  0  0  0  0  # atno 17394 bound_to 11000
  140.6200  134.0003  155.7614 LP  0  0  0  0  0  0  0  0  0  0  0  0  # atno 17395 bound_to 11000

$$$$
