AV-unprocessed.smi:3250|AV-procd|sdf|12431|dock9
  -GOLD-   2272018323D 1   1.00000     0.00000
 Structure written by MMmdl.
 40 41  0  0  0  0  0  0  0  0  3 V2000
  143.8437  132.3994  149.5906 C   0  0  0  0  0  0  0  0  0  0  0  0
  145.0009  133.1352  150.2805 C   0  0  0  0  0  0  0  0  0  0  0  0
  144.5724  134.4112  150.9061 N   0  3  1  0  0  0  0  0  0  0  0  0
  143.5258  134.2087  151.9353 C   0  0  0  0  0  0  0  0  0  0  0  0
  143.0794  135.5573  152.5210 C   0  0  0  0  0  0  0  0  0  0  0  0
  144.2077  136.2391  153.0542 O   0  0  0  0  0  0  0  0  0  0  0  0
  145.1840  136.5337  152.0600 C   0  0  1  0  0  0  0  0  0  0  0  0
  146.3168  137.3268  152.7278 C   0  0  0  0  0  0  0  0  0  0  0  0
  145.9741  138.7326  152.8851 N   0  0  0  0  0  0  0  0  0  0  0  0
  146.8354  139.6798  153.4070 C   0  0  0  0  0  0  0  0  0  0  0  0
  146.3908  140.9422  153.4964 N   0  3  0  0  0  0  0  0  0  0  0  0
  147.1996  141.9070  153.9999 C   0  0  0  0  0  0  0  0  0  0  0  0
  148.5006  141.5904  154.4303 C   0  0  0  0  0  0  0  0  0  0  0  0
  148.9015  140.2496  154.3121 C   0  0  0  0  0  0  0  0  0  0  0  0
  150.1648  139.8786  154.7244 O   0  0  0  0  0  0  0  0  0  0  0  0
  150.5538  138.5179  154.5687 C   0  0  0  0  0  0  0  0  0  0  0  0
  148.0644  139.3160  153.8004 N   0  0  0  0  0  0  0  0  0  0  0  0
  145.6955  135.2069  151.4624 C   0  0  0  0  0  0  0  0  0  0  0  0
  144.1742  131.4280  149.2220 H   0  0  0  0  0  0  0  0  0  0  0  0
  143.4569  132.9535  148.7356 H   0  0  0  0  0  0  0  0  0  0  0  0
  143.0191  132.2252  150.2823 H   0  0  0  0  0  0  0  0  0  0  0  0
  145.3997  132.4766  151.0534 H   0  0  0  0  0  0  0  0  0  0  0  0
  145.8158  133.3158  149.5780 H   0  0  0  0  0  0  0  0  0  0  0  0
  142.6671  133.6985  151.4974 H   0  0  0  0  0  0  0  0  0  0  0  0
  143.9113  133.5656  152.7282 H   0  0  0  0  0  0  0  0  0  0  0  0
  142.5909  136.1713  151.7626 H   0  0  0  0  0  0  0  0  0  0  0  0
  142.3533  135.3981  153.3183 H   0  0  0  0  0  0  0  0  0  0  0  0
  144.7360  137.1386  151.2690 H   0  0  0  0  0  0  0  0  0  0  0  0
  146.5573  136.8933  153.6994 H   0  0  0  0  0  0  0  0  0  0  0  0
  147.2190  137.2655  152.1181 H   0  0  0  0  0  0  0  0  0  0  0  0
  145.0671  139.0457  152.5707 H   0  0  0  0  0  0  0  0  0  0  0  0
  146.7779  142.9007  154.0427 H   0  0  0  0  0  0  0  0  0  0  0  0
  149.1610  142.3433  154.8356 H   0  0  0  0  0  0  0  0  0  0  0  0
  151.5693  138.3879  154.9425 H   0  0  0  0  0  0  0  0  0  0  0  0
  150.5469  138.2180  153.5197 H   0  0  0  0  0  0  0  0  0  0  0  0
  149.9044  137.8500  155.1367 H   0  0  0  0  0  0  0  0  0  0  0  0
  146.2105  134.6231  152.2275 H   0  0  0  0  0  0  0  0  0  0  0  0
  146.4247  135.4230  150.6821 H   0  0  0  0  0  0  0  0  0  0  0  0
  144.1475  134.9628  150.1740 H   0  0  0  0  0  0  0  0  0  0  0  0
  145.4498  141.1900  153.1901 H   0  0  0  0  0  0  0  0  0  0  0  0
  1  2  1  0  0  0  0
  1 19  1  0  0  0  0
  1 20  1  0  0  0  0
  1 21  1  0  0  0  0
  2  3  1  0  0  0  0
  2 22  1  0  0  0  0
  2 23  1  0  0  0  0
  3 18  1  0  0  0  0
  3  4  1  0  0  0  0
  3 39  1  0  0  0  0
  4  5  1  0  0  0  0
  4 24  1  0  0  0  0
  4 25  1  0  0  0  0
  5  6  1  0  0  0  0
  5 26  1  0  0  0  0
  5 27  1  0  0  0  0
  6  7  1  0  0  0  0
  7  8  1  0  0  0  0
  7 18  1  0  0  0  0
  7 28  1  0  0  0  0
  8  9  1  0  0  0  0
  8 29  1  0  0  0  0
  8 30  1  0  0  0  0
  9 10  1  0  0  0  0
  9 31  1  0  0  0  0
 10 17  1  0  0  0  0
 10 11  2  0  0  0  0
 11 12  1  0  0  0  0
 11 40  1  0  0  0  0
 12 13  2  0  0  0  0
 12 32  1  0  0  0  0
 13 14  1  0  0  0  0
 13 33  1  0  0  0  0
 14 15  1  0  0  0  0
 14 17  2  0  0  0  0
 15 16  1  0  0  0  0
 16 34  1  0  0  0  0
 16 35  1  0  0  0  0
 16 36  1  0  0  0  0
 18 37  1  0  0  0  0
 18 38  1  0  0  0  0
M  CHG  1   3   1
M  CHG  1  11   1
M  END
> <s_m_source_file>
AV-unprocessed.smi

> <i_m_source_file_index>
3250

> <i_lp_mmshare_version>
43012

> <i_f3d_flags>
0

> <s_epik_input>
W0NIM11bQ0gyXU4xW0NIMl1bQ0gyXU9bQ0BIXShbQ0gyXTEpW0NIMl1bTkhdYzJuW2NIXVtjSF1jKG4yKU9bQ0gzXQ==

> <s_epik_cmdline>
J2VwaWtfcHl0aG9uJywgJy1waCcsICc3LjAnLCAnLXRuJywgJzgnLCAnLW1hJywgJzIwMCcsICctbWV0YWxfYmluZGluZycsICctaW1hZScsICc8aW5maWxlLm1hZT4nLCAnLW9tYWUnLCAnPG91dGZpbGUubWFlPic=

> <r_lp_tautomer_probability>
0.999985

> <r_epik_Ionization_Penalty>
2.24691

> <r_epik_Ionization_Penalty_Charging>
2.24686

> <r_epik_Ionization_Penalty_Neutral>
4.52111e-05

> <r_epik_State_Penalty>
2.24709

> <r_epik_Charging_Adjusted_Penalty>
4.49395

> <i_epik_Tot_Q>
2

> <i_epik_Tot_abs_Q>
2

> <r_epik_Metal_State_Penalty>
2.26327

> <b_epik_Metal_Only>
0

> <s_lp_Force_Field>
OPLS_2005

> <r_lp_Energy>
18.3796

> <b_lp_Chiralities_Consistent>
1

> <s_lp_Variant>
AV-unprocessed.smi:3250-7

> <Gold.Version>
5.8.1

> <Gold.Id.Protein>
6NUR|6NUR_protein|mol2

> <Gold.PLP.Fitness>
47.3454

> <Gold.PLP.PLP>
-33.0576

> <Gold.PLP.part.hbond>
-3.0000

> <Gold.PLP.part.metal>
0.0000

> <Gold.PLP.part.buried>
-4.2211

> <Gold.PLP.part.nonpolar>
-27.4948

> <Gold.PLP.part.repulsive>
0.8523

> <Gold.PLP.ligand.clash>
0.0000

> <Gold.PLP.ligand.torsion>
0.1973

> <Gold.PLP.Chemscore.Hbond>
4.8880

> <Gold.PLP.Chemscore.CHOScore>
0.0000

> <Gold.PLP.Chemscore.Metal>
0.0000

> <Gold.Chemscore.Hbonds>
donor molecule, donor type, donor heavy atom, donor atom, acceptor molecule, acceptor atom, score
      L1  H     9    31       P1 10175  2.00
      L1  H    11    40       P1 10175  1.76
      P1  H  7989  7998       L1    15  0.70

> <Gold.PLP.Chemscore.Internal.Correction>
0.0184

> <Gold.Rescore>
     Score         DG    S(hbond)    S(metal)    S(lipo)     H(rot)  DE(clash)    DE(int)     intcor
     14.41     -15.08       1.85        0.00      67.47       1.75       0.52       0.15       ----

> <Gold.Chemscore.Fitness>
14.4141

> <Gold.Chemscore.DG>
-15.0805

> <Gold.Chemscore.ZeroCoef>
-5.4800

> <Gold.Chemscore.Hbond>
1.8547

> <Gold.Chemscore.Metal>
0.0000

> <Gold.Chemscore.Lipo>
67.4661

> <Gold.Chemscore.Internal_Hbond>
0.0000

> <Gold.Chemscore.DEClash>
0.5206

> <Gold.Chemscore.DEInternal>
0.1458

> <Gold.Chemscore.Rot>
1.7530

> <Gold.Chemscore.Internal.Correction>
   9.000000E+99

> <Gold.Chemscore.Hbonds>
donor molecule, donor type, donor heavy atom, donor atom, acceptor molecule, acceptor atom, score
      L1  H     9    31       P1 10175  0.93
      L1  H    11    40       P1 10175  0.18
      P1  H  7989  7998       L1    15  0.14

> <Gold.Chemscore.Hbond.Weighted>
-6.1946

> <Gold.Chemscore.Metal.Weighted>
-0.0000

> <Gold.Chemscore.Lipo.Weighted>
-7.8935

> <Gold.Chemscore.Internal_Hbond.Weighted>
0.0000

> <Gold.Chemscore.DEClash.Weighted>
0.5206

> <Gold.Chemscore.DEInternal.Weighted>
0.1458

> <Gold.Chemscore.Rot.Weighted>
4.4876

> <Gold.Chemscore.Internal.Correction.Weighted>
   9.000000E+99

> <Gold.Protein.RotatedTorsions>
[ 6907 6896 6895 6894 ] final    4.54 input  -60.11 | X-H torsion
[ 7974 7965 7964 7962 ] final -160.08 input  175.53 | X-H torsion
[ 8008 7997 7996 7995 ] final   31.43 input   59.86 | X-H torsion
[ 10167 10162 10161 10158 ] final   61.78 input  -65.29 | X-H torsion
[ 10718 10713 10712 10709 ] final  113.78 input   66.30 | X-H torsion
[ 10763 10752 10751 10750 ] final  107.14 input  -60.55 | X-H torsion
[ 11005 11000 10999 10996 ] final   32.30 input  -57.11 | X-H torsion

> <Gold.Protein.ActiveResidues>
 VAL166  LYS551  ARG553  GLY616  TRP617  ASP618  TYR619  PRO620  LYS621  CYS622 
 ASP623  PHE694  ASN695  SER759  ASP760  ASP761  ALA762  ILE779  LEU786  VAL792 
 PHE793  MET794  SER795  GLU796  ALA797  LYS798  CYS799  TRP800  GLU811  SER814 

> <Gold.Protein.RotatedAtoms>
  151.6429  135.1010  160.0144 H   0  0  0  0  0  0  0  0  0  0  0  0  # atno 6907 bound_to 6896
  152.4044  133.6862  159.6352 H   0  0  0  0  0  0  0  0  0  0  0  0  # atno 6908 bound_to 6896
  150.7940  133.8652  159.3284 H   0  0  0  0  0  0  0  0  0  0  0  0  # atno 6909 bound_to 6896
  144.7440  140.3593  143.6099 H   0  0  0  0  0  0  0  0  0  0  0  0  # atno 7974 bound_to 7965
  155.1063  140.3234  155.4533 H   0  0  0  0  0  0  0  0  0  0  0  0  # atno 8008 bound_to 7997
  156.2703  140.2052  156.6136 H   0  0  0  0  0  0  0  0  0  0  0  0  # atno 8009 bound_to 7997
  154.6790  140.0528  157.0233 H   0  0  0  0  0  0  0  0  0  0  0  0  # atno 8010 bound_to 7997
  140.1510  144.4462  150.6759 H   0  0  0  0  0  0  0  0  0  0  0  0  # atno 10167 bound_to 10162
  157.6319  131.0989  150.7091 H   0  0  0  0  0  0  0  0  0  0  0  0  # atno 10718 bound_to 10713
  153.4026  135.3854  155.1998 H   0  0  0  0  0  0  0  0  0  0  0  0  # atno 10763 bound_to 10752
  154.8731  135.3775  154.4599 H   0  0  0  0  0  0  0  0  0  0  0  0  # atno 10764 bound_to 10752
  153.5098  135.7087  153.5849 H   0  0  0  0  0  0  0  0  0  0  0  0  # atno 10765 bound_to 10752
  140.2749  134.3040  155.7817 H   0  0  0  0  0  0  0  0  0  0  0  0  # atno 11005 bound_to 11000
  145.7194  139.1706  143.2493 LP  0  0  0  0  0  0  0  0  0  0  0  0  # atno 17320 bound_to 7965
  146.1288  140.7213  142.9422 LP  0  0  0  0  0  0  0  0  0  0  0  0  # atno 17321 bound_to 7965
  140.6702  143.2283  151.5643 LP  0  0  0  0  0  0  0  0  0  0  0  0  # atno 17342 bound_to 10162
  139.5426  144.2607  152.1380 LP  0  0  0  0  0  0  0  0  0  0  0  0  # atno 17343 bound_to 10162
  156.7429  130.4744  149.5473 LP  0  0  0  0  0  0  0  0  0  0  0  0  # atno 17370 bound_to 10713
  156.1528  130.6321  151.0618 LP  0  0  0  0  0  0  0  0  0  0  0  0  # atno 17371 bound_to 10713
  141.2172  133.7489  156.9391 LP  0  0  0  0  0  0  0  0  0  0  0  0  # atno 17394 bound_to 11000
  140.1338  134.9338  157.2374 LP  0  0  0  0  0  0  0  0  0  0  0  0  # atno 17395 bound_to 11000

$$$$
