AV-unprocessed.smi:1863|AV-procd|sdf|7550|dock6
  -GOLD-   22720 9263D 1   1.00000     0.00000
 Structure written by MMmdl.
 37 38  0  0  0  0  0  0  0  0  1 V2000
  146.9644  142.3327  154.0633 C   0  0  0  0  0  0  0  0  0  0  0  0
  147.1346  140.8960  154.5767 C   0  0  2  0  0  0  0  0  0  0  0  0
  148.5791  140.3948  154.3591 C   0  0  0  0  0  0  0  0  0  0  0  0
  149.4773  140.8081  155.4364 N   0  0  0  0  0  0  0  0  0  0  0  0
  148.9974  141.6512  156.5185 C   0  0  0  0  0  0  0  0  0  0  0  0
  150.1475  141.6837  157.5343 C   0  0  0  0  0  0  0  0  0  0  0  0
  151.3790  141.1705  156.7812 C   0  0  0  0  0  0  0  0  0  0  0  0
  150.7887  140.5534  155.5248 C   0  0  0  0  0  0  0  0  0  0  0  0
  151.4601  139.9098  154.7193 O   0  0  0  0  0  0  0  0  0  0  0  0
  146.1802  140.0427  153.8707 N   0  0  0  0  0  0  0  0  0  0  0  0
  146.1686  138.7017  153.8901 C   0  0  0  0  0  0  0  0  0  0  0  0
  146.9718  138.0223  154.5293 O   0  0  0  0  0  0  0  0  0  0  0  0
  145.1972  138.2150  153.0995 N   0  0  0  0  0  0  0  0  0  0  0  0
  144.8731  136.8567  152.8394 C   0  0  0  0  0  0  0  0  0  0  0  0
  143.5113  136.5119  152.7176 C   0  0  0  0  0  0  0  0  0  0  0  0
  143.1626  135.1694  152.4764 C   0  0  0  0  0  0  0  0  0  0  0  0
  144.1953  134.2171  152.3765 C   0  0  0  0  0  0  0  0  0  0  0  0
  145.5025  134.5265  152.5065 N   0  0  0  0  0  0  0  0  0  0  0  0
  145.8300  135.8169  152.7350 C   0  0  0  0  0  0  0  0  0  0  0  0
  147.6350  143.0172  154.5836 H   0  0  0  0  0  0  0  0  0  0  0  0
  145.9461  142.6891  154.2224 H   0  0  0  0  0  0  0  0  0  0  0  0
  147.1798  142.4026  152.9964 H   0  0  0  0  0  0  0  0  0  0  0  0
  146.9202  140.9105  155.6469 H   0  0  0  0  0  0  0  0  0  0  0  0
  148.5993  139.3104  154.2359 H   0  0  0  0  0  0  0  0  0  0  0  0
  148.9719  140.8061  153.4281 H   0  0  0  0  0  0  0  0  0  0  0  0
  148.7891  142.6495  156.1315 H   0  0  0  0  0  0  0  0  0  0  0  0
  148.0809  141.2555  156.9581 H   0  0  0  0  0  0  0  0  0  0  0  0
  150.3013  142.6842  157.9398 H   0  0  0  0  0  0  0  0  0  0  0  0
  149.9251  141.0201  158.3711 H   0  0  0  0  0  0  0  0  0  0  0  0
  152.0462  141.9873  156.5049 H   0  0  0  0  0  0  0  0  0  0  0  0
  151.9410  140.4368  157.3601 H   0  0  0  0  0  0  0  0  0  0  0  0
  145.4870  140.5121  153.3067 H   0  0  0  0  0  0  0  0  0  0  0  0
  144.6756  138.8956  152.5667 H   0  0  0  0  0  0  0  0  0  0  0  0
  142.7414  137.2652  152.8017 H   0  0  0  0  0  0  0  0  0  0  0  0
  142.1286  134.8768  152.3706 H   0  0  0  0  0  0  0  0  0  0  0  0
  143.9650  133.1781  152.1926 H   0  0  0  0  0  0  0  0  0  0  0  0
  146.8865  135.9990  152.8556 H   0  0  0  0  0  0  0  0  0  0  0  0
  1  2  1  0  0  0  0
  1 20  1  0  0  0  0
  1 21  1  0  0  0  0
  1 22  1  0  0  0  0
  2  3  1  0  0  0  0
  2 10  1  0  0  0  0
  2 23  1  0  0  0  0
  3  4  1  0  0  0  0
  3 24  1  0  0  0  0
  3 25  1  0  0  0  0
  4  8  1  0  0  0  0
  4  5  1  0  0  0  0
  5  6  1  0  0  0  0
  5 26  1  0  0  0  0
  5 27  1  0  0  0  0
  6  7  1  0  0  0  0
  6 28  1  0  0  0  0
  6 29  1  0  0  0  0
  7  8  1  0  0  0  0
  7 30  1  0  0  0  0
  7 31  1  0  0  0  0
  8  9  2  0  0  0  0
 10 11  1  0  0  0  0
 10 32  1  0  0  0  0
 11 12  2  0  0  0  0
 11 13  1  0  0  0  0
 13 14  1  0  0  0  0
 13 33  1  0  0  0  0
 14 19  1  0  0  0  0
 14 15  2  0  0  0  0
 15 16  1  0  0  0  0
 15 34  1  0  0  0  0
 16 17  2  0  0  0  0
 16 35  1  0  0  0  0
 17 18  1  0  0  0  0
 17 36  1  0  0  0  0
 18 19  2  0  0  0  0
 19 37  1  0  0  0  0
M  END
> <s_m_source_file>
AV-unprocessed.smi

> <i_m_source_file_index>
1863

> <i_lp_mmshare_version>
43012

> <i_f3d_flags>
0

> <s_epik_input>
Tz1DMVtDSDJdW0NIMl1bQ0gyXU4xW0NIMl1bQ0BASF0oW0NIM10pW05IXUMoPU8pW05IXWMyW2NIXVtjSF1bY0hdbltjSF0y

> <s_epik_cmdline>
J2VwaWtfcHl0aG9uJywgJy1waCcsICc3LjAnLCAnLXRuJywgJzgnLCAnLW1hJywgJzIwMCcsICctbWV0YWxfYmluZGluZycsICctaW1hZScsICc8aW5maWxlLm1hZT4nLCAnLW9tYWUnLCAnPG91dGZpbGUubWFlPic=

> <r_epik_Ionization_Penalty>
0.0047799

> <r_epik_Ionization_Penalty_Charging>
0

> <r_epik_Ionization_Penalty_Neutral>
0.0047799

> <r_epik_State_Penalty>
0.0034394

> <r_epik_Charging_Adjusted_Penalty>
0.0034394

> <i_epik_Tot_Q>
0

> <i_epik_Tot_abs_Q>
0

> <r_epik_Metal_State_Penalty>
-0

> <b_epik_Metal_Only>
0

> <s_lp_Force_Field>
OPLS_2005

> <r_lp_Energy>
22.2943

> <b_lp_Chiralities_Consistent>
1

> <s_lp_Variant>
AV-unprocessed.smi:1863-1

> <Gold.Version>
5.8.1

> <Gold.Id.Protein>
6NUR|6NUR_protein|mol2

> <Gold.PLP.Fitness>
40.3282

> <Gold.PLP.PLP>
-29.7305

> <Gold.PLP.part.hbond>
-3.0000

> <Gold.PLP.part.metal>
0.0000

> <Gold.PLP.part.buried>
-4.6624

> <Gold.PLP.part.nonpolar>
-22.4510

> <Gold.PLP.part.repulsive>
0.2570

> <Gold.PLP.ligand.clash>
0.0000

> <Gold.PLP.ligand.torsion>
0.6745

> <Gold.PLP.Chemscore.Hbond>
2.9760

> <Gold.PLP.Chemscore.CHOScore>
1.0000

> <Gold.PLP.Chemscore.Metal>
0.0000

> <Gold.Chemscore.Hbonds>
donor molecule, donor type, donor heavy atom, donor atom, acceptor molecule, acceptor atom, score
      L1  H    10    32       P1 10175  0.98
      L1  H    13    33       P1 10175  1.00
      P1  H  7989  7998       L1     9  1.00
      L1  C    19    37       P1  7948  1.00

> <Gold.PLP.Chemscore.Internal.Correction>
0.0188

> <Gold.Rescore>
     Score         DG    S(hbond)    S(metal)    S(lipo)     H(rot)  DE(clash)    DE(int)     intcor
     14.63     -16.97       2.89        0.00      49.55       1.54       0.00       2.34       ----

> <Gold.Chemscore.Fitness>
14.6292

> <Gold.Chemscore.DG>
-16.9726

> <Gold.Chemscore.ZeroCoef>
-5.4800

> <Gold.Chemscore.Hbond>
2.8878

> <Gold.Chemscore.Metal>
0.0000

> <Gold.Chemscore.Lipo>
49.5485

> <Gold.Chemscore.Internal_Hbond>
0.0000

> <Gold.Chemscore.DEClash>
0.0000

> <Gold.Chemscore.DEInternal>
2.3435

> <Gold.Chemscore.Rot>
1.5428

> <Gold.Chemscore.Internal.Correction>
   9.000000E+99

> <Gold.Chemscore.Hbonds>
donor molecule, donor type, donor heavy atom, donor atom, acceptor molecule, acceptor atom, score
      L1  H    10    32       P1 10175  0.86
      L1  H    13    33       P1 10175  0.96
      P1  H  7989  7998       L1     9  0.48

> <Gold.Chemscore.Hbond.Weighted>
-9.6452

> <Gold.Chemscore.Metal.Weighted>
-0.0000

> <Gold.Chemscore.Lipo.Weighted>
-5.7972

> <Gold.Chemscore.Internal_Hbond.Weighted>
0.0000

> <Gold.Chemscore.DEClash.Weighted>
0.0000

> <Gold.Chemscore.DEInternal.Weighted>
2.3435

> <Gold.Chemscore.Rot.Weighted>
3.9497

> <Gold.Chemscore.Internal.Correction.Weighted>
   9.000000E+99

> <Gold.Protein.RotatedTorsions>
[ 6907 6896 6895 6894 ] final   87.66 input  -60.11 | X-H torsion
[ 7974 7965 7964 7962 ] final  124.43 input  175.53 | X-H torsion
[ 8008 7997 7996 7995 ] final -175.37 input   59.86 | X-H torsion
[ 10167 10162 10161 10158 ] final -152.36 input  -65.29 | X-H torsion
[ 10718 10713 10712 10709 ] final  -36.38 input   66.30 | X-H torsion
[ 10763 10752 10751 10750 ] final  -42.68 input  -60.55 | X-H torsion
[ 11005 11000 10999 10996 ] final  121.65 input  -57.11 | X-H torsion

> <Gold.Protein.ActiveResidues>
 VAL166  LYS551  ARG553  GLY616  TRP617  ASP618  TYR619  PRO620  LYS621  CYS622 
 ASP623  PHE694  ASN695  SER759  ASP760  ASP761  ALA762  ILE779  LEU786  VAL792 
 PHE793  MET794  SER795  GLU796  ALA797  LYS798  CYS799  TRP800  GLU811  SER814 

> <Gold.Protein.RotatedAtoms>
  152.5414  134.2242  159.8799 H   0  0  0  0  0  0  0  0  0  0  0  0  # atno 6907 bound_to 6896
  151.2217  133.4492  159.2608 H   0  0  0  0  0  0  0  0  0  0  0  0  # atno 6908 bound_to 6896
  151.0799  134.9864  159.8406 H   0  0  0  0  0  0  0  0  0  0  0  0  # atno 6909 bound_to 6896
  145.0845  139.3633  143.4892 H   0  0  0  0  0  0  0  0  0  0  0  0  # atno 7974 bound_to 7965
  155.9818  140.1183  157.0720 H   0  0  0  0  0  0  0  0  0  0  0  0  # atno 8008 bound_to 7997
  154.4185  140.1143  156.5513 H   0  0  0  0  0  0  0  0  0  0  0  0  # atno 8009 bound_to 7997
  155.6461  140.3473  155.4734 H   0  0  0  0  0  0  0  0  0  0  0  0  # atno 8010 bound_to 7997
  139.7188  143.8991  152.2495 H   0  0  0  0  0  0  0  0  0  0  0  0  # atno 10167 bound_to 10162
  156.3275  130.4274  149.7903 H   0  0  0  0  0  0  0  0  0  0  0  0  # atno 10718 bound_to 10713
  153.9831  135.6714  153.4751 H   0  0  0  0  0  0  0  0  0  0  0  0  # atno 10763 bound_to 10752
  153.0739  135.4959  154.8360 H   0  0  0  0  0  0  0  0  0  0  0  0  # atno 10764 bound_to 10752
  154.7153  135.3105  154.9095 H   0  0  0  0  0  0  0  0  0  0  0  0  # atno 10765 bound_to 10752
  139.9235  134.9639  156.7990 H   0  0  0  0  0  0  0  0  0  0  0  0  # atno 11005 bound_to 11000
  146.3531  140.0650  142.8627 LP  0  0  0  0  0  0  0  0  0  0  0  0  # atno 17320 bound_to 7965
  145.1139  140.9422  143.4640 LP  0  0  0  0  0  0  0  0  0  0  0  0  # atno 17321 bound_to 7965
  139.8881  144.6981  150.8802 LP  0  0  0  0  0  0  0  0  0  0  0  0  # atno 17342 bound_to 10162
  140.7749  143.3608  151.1832 LP  0  0  0  0  0  0  0  0  0  0  0  0  # atno 17343 bound_to 10162
  156.5188  130.8205  151.3196 LP  0  0  0  0  0  0  0  0  0  0  0  0  # atno 17370 bound_to 10713
  157.7424  130.9890  150.2514 LP  0  0  0  0  0  0  0  0  0  0  0  0  # atno 17371 bound_to 10713
  140.6405  133.9822  155.7705 LP  0  0  0  0  0  0  0  0  0  0  0  0  # atno 17394 bound_to 11000
  141.0774  134.0114  157.3437 LP  0  0  0  0  0  0  0  0  0  0  0  0  # atno 17395 bound_to 11000

$$$$
