AV-unprocessed.smi:3350|AV-procd|sdf|12940|dock10
  -GOLD-   2272019373D 1   1.00000     0.00000
 Structure written by MMmdl.
 41 42  0  0  0  0  0  0  0  0  1 V2000
  145.0645  136.0094  150.3971 C   0  0  0  0  0  0  0  0  0  0  0  0
  145.4696  135.8125  151.8664 C   0  0  1  0  0  0  0  0  0  0  0  0
  145.9186  134.3638  152.1390 C   0  0  0  0  0  0  0  0  0  0  0  0
  145.3743  133.4251  151.1732 N   0  0  0  0  0  0  0  0  0  0  0  0
  146.0571  132.5836  150.3205 C   0  0  0  0  0  0  0  0  0  0  0  0
  145.1258  131.8974  149.5949 C   0  0  0  0  0  0  0  0  0  0  0  0
  143.8847  132.3945  150.0817 C   0  0  0  0  0  0  0  0  0  0  0  0
  144.0362  133.3080  151.0270 N   0  0  0  0  0  0  0  0  0  0  0  0
  146.5393  136.7440  152.2182 N   0  0  0  0  0  0  0  0  0  0  0  0
  146.4239  137.7746  153.0662 C   0  0  0  0  0  0  0  0  0  0  0  0
  145.3770  138.0917  153.6313 O   0  0  0  0  0  0  0  0  0  0  0  0
  147.5903  138.4141  153.2256 N   0  0  0  0  0  0  0  0  0  0  0  0
  147.8136  139.5658  154.0956 C   0  0  2  0  0  0  0  0  0  0  0  0
  147.0487  140.7831  153.5521 C   0  0  0  0  0  0  0  0  0  0  0  0
  149.3248  139.8403  154.2106 C   0  0  2  0  0  0  0  0  0  0  0  0
  150.2059  138.5891  154.1886 C   0  0  0  0  0  0  0  0  0  0  0  0
  151.4589  139.0182  154.9365 C   0  0  0  0  0  0  0  0  0  0  0  0
  151.0554  140.3250  155.6249 C   0  0  0  0  0  0  0  0  0  0  0  0
  149.6453  140.4033  155.4729 O   0  0  0  0  0  0  0  0  0  0  0  0
  144.2541  135.3344  150.1207 H   0  0  0  0  0  0  0  0  0  0  0  0
  145.9018  135.8178  149.7253 H   0  0  0  0  0  0  0  0  0  0  0  0
  144.7177  137.0271  150.2149 H   0  0  0  0  0  0  0  0  0  0  0  0
  144.5964  136.0168  152.4893 H   0  0  0  0  0  0  0  0  0  0  0  0
  147.0062  134.2954  152.0919 H   0  0  0  0  0  0  0  0  0  0  0  0
  145.6318  134.0514  153.1446 H   0  0  0  0  0  0  0  0  0  0  0  0
  147.1364  132.5456  150.3003 H   0  0  0  0  0  0  0  0  0  0  0  0
  145.3042  131.1544  148.8320 H   0  0  0  0  0  0  0  0  0  0  0  0
  142.8853  132.1198  149.7782 H   0  0  0  0  0  0  0  0  0  0  0  0
  147.4451  136.5668  151.8091 H   0  0  0  0  0  0  0  0  0  0  0  0
  148.3916  138.0707  152.7168 H   0  0  0  0  0  0  0  0  0  0  0  0
  147.4367  139.3391  155.0949 H   0  0  0  0  0  0  0  0  0  0  0  0
  147.1835  141.6520  154.1967 H   0  0  0  0  0  0  0  0  0  0  0  0
  145.9782  140.5829  153.4944 H   0  0  0  0  0  0  0  0  0  0  0  0
  147.3918  141.0539  152.5530 H   0  0  0  0  0  0  0  0  0  0  0  0
  149.6461  140.5291  153.4265 H   0  0  0  0  0  0  0  0  0  0  0  0
  149.7196  137.7762  154.7301 H   0  0  0  0  0  0  0  0  0  0  0  0
  150.4148  138.2397  153.1773 H   0  0  0  0  0  0  0  0  0  0  0  0
  151.7572  138.2585  155.6598 H   0  0  0  0  0  0  0  0  0  0  0  0
  152.2961  139.1829  154.2572 H   0  0  0  0  0  0  0  0  0  0  0  0
  151.3403  140.3509  156.6768 H   0  0  0  0  0  0  0  0  0  0  0  0
  151.5166  141.1790  155.1265 H   0  0  0  0  0  0  0  0  0  0  0  0
  1  2  1  0  0  0  0
  1 20  1  0  0  0  0
  1 21  1  0  0  0  0
  1 22  1  0  0  0  0
  2  3  1  0  0  0  0
  2  9  1  0  0  0  0
  2 23  1  0  0  0  0
  3  4  1  0  0  0  0
  3 24  1  0  0  0  0
  3 25  1  0  0  0  0
  4  8  1  0  0  0  0
  4  5  1  0  0  0  0
  5  6  2  0  0  0  0
  5 26  1  0  0  0  0
  6  7  1  0  0  0  0
  6 27  1  0  0  0  0
  7  8  2  0  0  0  0
  7 28  1  0  0  0  0
  9 10  1  0  0  0  0
  9 29  1  0  0  0  0
 10 11  2  0  0  0  0
 10 12  1  0  0  0  0
 12 13  1  0  0  0  0
 12 30  1  0  0  0  0
 13 14  1  0  0  0  0
 13 15  1  0  0  0  0
 13 31  1  0  0  0  0
 14 32  1  0  0  0  0
 14 33  1  0  0  0  0
 14 34  1  0  0  0  0
 15 19  1  0  0  0  0
 15 16  1  0  0  0  0
 15 35  1  0  0  0  0
 16 17  1  0  0  0  0
 16 36  1  0  0  0  0
 16 37  1  0  0  0  0
 17 18  1  0  0  0  0
 17 38  1  0  0  0  0
 17 39  1  0  0  0  0
 18 19  1  0  0  0  0
 18 40  1  0  0  0  0
 18 41  1  0  0  0  0
M  END
> <s_m_source_file>
AV-unprocessed.smi

> <i_m_source_file_index>
3350

> <i_lp_mmshare_version>
43012

> <i_f3d_flags>
0

> <s_epik_input>
bjFbY0hdW2NIXVtjSF1uMVtDSDJdW0NAQEhdKFtDSDNdKVtOSF1DKD1PKVtOSF1bQ0BIXShbQ0gzXSlbQ0BASF0yW0NIMl1bQ0gyXVtDSDJdTzI=

> <s_epik_cmdline>
J2VwaWtfcHl0aG9uJywgJy1waCcsICc3LjAnLCAnLXRuJywgJzgnLCAnLW1hJywgJzIwMCcsICctbWV0YWxfYmluZGluZycsICctaW1hZScsICc8aW5maWxlLm1hZT4nLCAnLW9tYWUnLCAnPG91dGZpbGUubWFlPic=

> <r_lp_tautomer_probability>
1

> <r_epik_Ionization_Penalty>
6.42349e-05

> <r_epik_Ionization_Penalty_Charging>
0

> <r_epik_Ionization_Penalty_Neutral>
6.42349e-05

> <r_epik_State_Penalty>
-0

> <r_epik_Charging_Adjusted_Penalty>
0

> <i_epik_Tot_Q>
0

> <i_epik_Tot_abs_Q>
0

> <r_epik_Metal_State_Penalty>
-0

> <b_epik_Metal_Only>
0

> <s_lp_Force_Field>
OPLS_2005

> <r_lp_Energy>
16.0006

> <b_lp_Chiralities_Consistent>
1

> <s_lp_Variant>
AV-unprocessed.smi:3350-2

> <Gold.Version>
5.8.1

> <Gold.Id.Protein>
6NUR|6NUR_protein|mol2

> <Gold.PLP.Fitness>
42.5677

> <Gold.PLP.PLP>
-33.6717

> <Gold.PLP.part.hbond>
-2.0000

> <Gold.PLP.part.metal>
0.0000

> <Gold.PLP.part.buried>
-4.2524

> <Gold.PLP.part.nonpolar>
-29.4411

> <Gold.PLP.part.repulsive>
0.4666

> <Gold.PLP.ligand.clash>
0.0000

> <Gold.PLP.ligand.torsion>
1.2416

> <Gold.PLP.Chemscore.Hbond>
1.8800

> <Gold.PLP.Chemscore.CHOScore>
1.8974

> <Gold.PLP.Chemscore.Metal>
0.0000

> <Gold.Chemscore.Hbonds>
donor molecule, donor type, donor heavy atom, donor atom, acceptor molecule, acceptor atom, score
      L1  H     9    29       P1  7948  0.98
      L1  H    12    30       P1  7948  0.65
      L1  C     5    26       P1 10747  1.00
      L1  C     7    28       P1 10952  0.51

> <Gold.PLP.Chemscore.Internal.Correction>
0.0471

> <Gold.Rescore>
     Score         DG    S(hbond)    S(metal)    S(lipo)     H(rot)  DE(clash)    DE(int)     intcor
     14.37     -17.53       1.91        0.00      88.25       1.82       0.48       2.68       ----

> <Gold.Chemscore.Fitness>
14.3693

> <Gold.Chemscore.DG>
-17.5294

> <Gold.Chemscore.ZeroCoef>
-5.4800

> <Gold.Chemscore.Hbond>
1.9109

> <Gold.Chemscore.Metal>
0.0000

> <Gold.Chemscore.Lipo>
88.2516

> <Gold.Chemscore.Internal_Hbond>
0.0000

> <Gold.Chemscore.DEClash>
0.4818

> <Gold.Chemscore.DEInternal>
2.6783

> <Gold.Chemscore.Rot>
1.8197

> <Gold.Chemscore.Internal.Correction>
   9.000000E+99

> <Gold.Chemscore.Hbonds>
donor molecule, donor type, donor heavy atom, donor atom, acceptor molecule, acceptor atom, score
      L1  H     9    29       P1  7948  0.90
      L1  H    12    30       P1  7948  0.63

> <Gold.Chemscore.Hbond.Weighted>
-6.3823

> <Gold.Chemscore.Metal.Weighted>
-0.0000

> <Gold.Chemscore.Lipo.Weighted>
-10.3254

> <Gold.Chemscore.Internal_Hbond.Weighted>
0.0000

> <Gold.Chemscore.DEClash.Weighted>
0.4818

> <Gold.Chemscore.DEInternal.Weighted>
2.6783

> <Gold.Chemscore.Rot.Weighted>
4.6583

> <Gold.Chemscore.Internal.Correction.Weighted>
   9.000000E+99

> <Gold.Protein.RotatedTorsions>
[ 6907 6896 6895 6894 ] final -154.28 input  -60.11 | X-H torsion
[ 7974 7965 7964 7962 ] final  104.52 input  175.53 | X-H torsion
[ 8008 7997 7996 7995 ] final -164.94 input   59.86 | X-H torsion
[ 10167 10162 10161 10158 ] final   21.27 input  -65.29 | X-H torsion
[ 10718 10713 10712 10709 ] final -115.16 input   66.30 | X-H torsion
[ 10763 10752 10751 10750 ] final -144.57 input  -60.55 | X-H torsion
[ 11005 11000 10999 10996 ] final  -44.27 input  -57.11 | X-H torsion

> <Gold.Protein.ActiveResidues>
 VAL166  LYS551  ARG553  GLY616  TRP617  ASP618  TYR619  PRO620  LYS621  CYS622 
 ASP623  PHE694  ASN695  SER759  ASP760  ASP761  ALA762  ILE779  LEU786  VAL792 
 PHE793  MET794  SER795  GLU796  ALA797  LYS798  CYS799  TRP800  GLU811  SER814 

> <Gold.Protein.RotatedAtoms>
  151.2552  133.4330  159.2613 H   0  0  0  0  0  0  0  0  0  0  0  0  # atno 6907 bound_to 6896
  151.0581  134.9718  159.8256 H   0  0  0  0  0  0  0  0  0  0  0  0  # atno 6908 bound_to 6896
  152.5394  134.2503  159.8949 H   0  0  0  0  0  0  0  0  0  0  0  0  # atno 6909 bound_to 6896
  145.3316  139.2485  143.3657 H   0  0  0  0  0  0  0  0  0  0  0  0  # atno 7974 bound_to 7965
  155.8427  140.0951  157.1724 H   0  0  0  0  0  0  0  0  0  0  0  0  # atno 8008 bound_to 7997
  154.3982  140.1398  156.3810 H   0  0  0  0  0  0  0  0  0  0  0  0  # atno 8009 bound_to 7997
  155.8047  140.3451  155.5425 H   0  0  0  0  0  0  0  0  0  0  0  0  # atno 8010 bound_to 7997
  140.5439  143.9628  150.6536 H   0  0  0  0  0  0  0  0  0  0  0  0  # atno 10167 bound_to 10162
  156.0877  130.6065  150.8869 H   0  0  0  0  0  0  0  0  0  0  0  0  # atno 10718 bound_to 10713
  154.8422  135.3437  154.6367 H   0  0  0  0  0  0  0  0  0  0  0  0  # atno 10763 bound_to 10752
  153.6977  135.6971  153.5076 H   0  0  0  0  0  0  0  0  0  0  0  0  # atno 10764 bound_to 10752
  153.2546  135.4342  155.0787 H   0  0  0  0  0  0  0  0  0  0  0  0  # atno 10765 bound_to 10752
  141.0439  133.6769  156.2849 H   0  0  0  0  0  0  0  0  0  0  0  0  # atno 11005 bound_to 11000
  146.3043  140.3895  142.8693 LP  0  0  0  0  0  0  0  0  0  0  0  0  # atno 17320 bound_to 7965
  144.8859  140.7462  143.5957 LP  0  0  0  0  0  0  0  0  0  0  0  0  # atno 17321 bound_to 7965
  140.3036  143.3244  152.0948 LP  0  0  0  0  0  0  0  0  0  0  0  0  # atno 17342 bound_to 10162
  139.5000  144.6681  151.6308 LP  0  0  0  0  0  0  0  0  0  0  0  0  # atno 17343 bound_to 10162
  157.6017  131.0941  150.8949 LP  0  0  0  0  0  0  0  0  0  0  0  0  # atno 17370 bound_to 10713
  156.9105  130.5279  149.5280 LP  0  0  0  0  0  0  0  0  0  0  0  0  # atno 17371 bound_to 10713
  140.6183  134.5388  157.5544 LP  0  0  0  0  0  0  0  0  0  0  0  0  # atno 17394 bound_to 11000
  139.9297  134.7988  156.0967 LP  0  0  0  0  0  0  0  0  0  0  0  0  # atno 17395 bound_to 11000

$$$$
