AV-unprocessed.smi:269|AV-procd|sdf|2044|dock1
  -GOLD-   2262021263D 1   1.00000     0.00000
 Structure written by MMmdl.
 61 64  0  0  0  0  0  0  0  0  3 V2000
  143.5338  132.8445  148.9910 C   0  0  0  0  0  0  0  0  0  0  0  0
  144.0490  132.1409  150.2507 C   0  0  0  0  0  0  0  0  0  0  0  0
  143.7989  132.9782  151.4199 N   0  5  0  0  0  0  0  0  0  0  0  0
  144.2245  134.2655  151.5272 C   0  0  0  0  0  0  0  0  0  0  0  0
  144.9078  134.9547  150.7627 O   0  0  0  0  0  0  0  0  0  0  0  0
  143.7124  134.9112  152.8196 C   0  0  0  0  0  0  0  0  0  0  0  0
  144.2808  134.2132  153.9992 N   0  3  0  0  0  0  0  0  0  0  0  0
  144.1138  134.9935  155.2519 C   0  0  0  0  0  0  0  0  0  0  0  0
  144.6295  134.2080  156.4711 C   0  0  0  0  0  0  0  0  0  0  0  0
  146.0090  133.7749  156.2649 N   0  0  0  0  0  0  0  0  0  0  0  0
  146.9817  134.6286  156.6841 C   0  0  0  0  0  0  0  0  0  0  0  0
  147.9416  134.1897  157.5416 N   0  0  0  0  0  0  0  0  0  0  0  0
  148.9097  135.0112  157.9556 C   0  0  0  0  0  0  0  0  0  0  0  0
  149.1013  136.2938  157.6469 N   0  0  0  0  0  0  0  0  0  0  0  0
  148.1345  136.7507  156.8015 C   0  0  0  0  0  0  0  0  0  0  0  0
  147.0520  135.9913  156.2723 C   0  0  0  0  0  0  0  0  0  0  0  0
  146.2745  136.7959  155.4480 N   0  0  0  0  0  0  0  0  0  0  0  0
  146.8698  137.9565  155.4777 C   0  0  0  0  0  0  0  0  0  0  0  0
  147.9853  138.0262  156.2825 N   0  0  0  0  0  0  0  0  0  0  0  0
  148.8353  139.1901  156.5006 C   0  0  0  0  0  0  0  0  0  0  0  0
  149.4447  139.8200  155.2068 C   0  0  0  0  0  0  0  0  0  0  0  0
  148.3276  140.3032  154.2436 C   0  0  0  0  0  0  0  0  0  0  0  0
  148.8354  141.0967  153.1892 O   0  0  0  0  0  0  0  0  0  0  0  0
  150.3469  141.0384  155.5289 C   0  0  0  0  0  0  0  0  0  0  0  0
  151.6656  140.6408  156.2174 C   0  0  0  0  0  0  0  0  0  0  0  0
  152.3732  139.7130  155.4060 O   0  0  0  0  0  0  0  0  0  0  0  0
  151.6578  138.5009  155.2075 C   0  0  0  0  0  0  0  0  0  0  0  0
  150.3343  138.7842  154.4734 C   0  0  0  0  0  0  0  0  0  0  0  0
  146.2116  133.0097  155.0345 C   0  0  0  0  0  0  0  0  0  0  0  0
  145.6885  133.7729  153.8019 C   0  0  0  0  0  0  0  0  0  0  0  0
  143.7176  132.2341  148.1067 H   0  0  0  0  0  0  0  0  0  0  0  0
  144.0310  133.8031  148.8398 H   0  0  0  0  0  0  0  0  0  0  0  0
  142.4602  133.0266  149.0495 H   0  0  0  0  0  0  0  0  0  0  0  0
  143.5601  131.1698  150.3341 H   0  0  0  0  0  0  0  0  0  0  0  0
  145.1123  131.9322  150.1277 H   0  0  0  0  0  0  0  0  0  0  0  0
  143.9210  135.9821  152.8734 H   0  0  0  0  0  0  0  0  0  0  0  0
  142.6265  134.8087  152.8147 H   0  0  0  0  0  0  0  0  0  0  0  0
  144.6494  135.9401  155.1625 H   0  0  0  0  0  0  0  0  0  0  0  0
  143.0606  135.2355  155.3987 H   0  0  0  0  0  0  0  0  0  0  0  0
  144.5185  134.8149  157.3682 H   0  0  0  0  0  0  0  0  0  0  0  0
  144.0131  133.3217  156.6258 H   0  0  0  0  0  0  0  0  0  0  0  0
  149.6335  134.5795  158.6312 H   0  0  0  0  0  0  0  0  0  0  0  0
  146.5012  138.8014  154.9146 H   0  0  0  0  0  0  0  0  0  0  0  0
  148.2518  139.9235  157.0556 H   0  0  0  0  0  0  0  0  0  0  0  0
  149.6337  138.8909  157.1806 H   0  0  0  0  0  0  0  0  0  0  0  0
  147.7806  139.4612  153.8198 H   0  0  0  0  0  0  0  0  0  0  0  0
  147.5902  140.9005  154.7810 H   0  0  0  0  0  0  0  0  0  0  0  0
  148.7172  140.6296  152.3766 H   0  0  0  0  0  0  0  0  0  0  0  0
  150.6025  141.5536  154.6019 H   0  0  0  0  0  0  0  0  0  0  0  0
  149.8138  141.7736  156.1311 H   0  0  0  0  0  0  0  0  0  0  0  0
  152.2885  141.5237  156.3608 H   0  0  0  0  0  0  0  0  0  0  0  0
  151.4957  140.2165  157.2066 H   0  0  0  0  0  0  0  0  0  0  0  0
  152.2750  137.8294  154.6104 H   0  0  0  0  0  0  0  0  0  0  0  0
  151.4896  138.0007  156.1615 H   0  0  0  0  0  0  0  0  0  0  0  0
  149.7920  137.8498  154.3246 H   0  0  0  0  0  0  0  0  0  0  0  0
  150.5760  139.1531  153.4755 H   0  0  0  0  0  0  0  0  0  0  0  0
  147.2608  132.7405  154.9058 H   0  0  0  0  0  0  0  0  0  0  0  0
  145.6715  132.0676  155.1337 H   0  0  0  0  0  0  0  0  0  0  0  0
  145.7669  133.1296  152.9253 H   0  0  0  0  0  0  0  0  0  0  0  0
  146.3110  134.6461  153.6039 H   0  0  0  0  0  0  0  0  0  0  0  0
  143.7291  133.3750  154.1145 H   0  0  0  0  0  0  0  0  0  0  0  0
  1  2  1  0  0  0  0
  1 31  1  0  0  0  0
  1 32  1  0  0  0  0
  1 33  1  0  0  0  0
  2  3  1  0  0  0  0
  2 34  1  0  0  0  0
  2 35  1  0  0  0  0
  3  4  1  0  0  0  0
  4  5  2  0  0  0  0
  4  6  1  0  0  0  0
  6  7  1  0  0  0  0
  6 36  1  0  0  0  0
  6 37  1  0  0  0  0
  7 30  1  0  0  0  0
  7  8  1  0  0  0  0
  7 61  1  0  0  0  0
  8  9  1  0  0  0  0
  8 38  1  0  0  0  0
  8 39  1  0  0  0  0
  9 10  1  0  0  0  0
  9 40  1  0  0  0  0
  9 41  1  0  0  0  0
 10 11  1  0  0  0  0
 10 29  1  0  0  0  0
 11 16  1  0  0  0  0
 11 12  2  0  0  0  0
 12 13  1  0  0  0  0
 13 14  2  0  0  0  0
 13 42  1  0  0  0  0
 14 15  1  0  0  0  0
 15 19  1  0  0  0  0
 15 16  2  0  0  0  0
 16 17  1  0  0  0  0
 17 18  2  0  0  0  0
 18 19  1  0  0  0  0
 18 43  1  0  0  0  0
 19 20  1  0  0  0  0
 20 21  1  0  0  0  0
 20 44  1  0  0  0  0
 20 45  1  0  0  0  0
 21 28  1  0  0  0  0
 21 22  1  0  0  0  0
 21 24  1  0  0  0  0
 22 23  1  0  0  0  0
 22 46  1  0  0  0  0
 22 47  1  0  0  0  0
 23 48  1  0  0  0  0
 24 25  1  0  0  0  0
 24 49  1  0  0  0  0
 24 50  1  0  0  0  0
 25 26  1  0  0  0  0
 25 51  1  0  0  0  0
 25 52  1  0  0  0  0
 26 27  1  0  0  0  0
 27 28  1  0  0  0  0
 27 53  1  0  0  0  0
 27 54  1  0  0  0  0
 28 55  1  0  0  0  0
 28 56  1  0  0  0  0
 29 30  1  0  0  0  0
 29 57  1  0  0  0  0
 29 58  1  0  0  0  0
 30 59  1  0  0  0  0
 30 60  1  0  0  0  0
M  CHG  1   3  -1
M  CHG  1   7   1
M  END
> <s_m_source_file>
AV-unprocessed.smi

> <i_m_source_file_index>
269

> <i_lp_mmshare_version>
43012

> <i_f3d_flags>
0

> <s_epik_input>
W0NIM11bQ0gyXVtOSF1DKD1PKVtDSDJdTjFbQ0gyXVtDSDJdTihbQ0gyXVtDSDJdMSljKG5bY0hdbjIpYyhjMjMpbltjSF1uM1tDSDJdQzQoW0NIMl1bT0hdKVtDSDJdW0NIMl1PW0NIMl1bQ0gyXTQ=

> <s_epik_cmdline>
J2VwaWtfcHl0aG9uJywgJy1waCcsICc3LjAnLCAnLXRuJywgJzgnLCAnLW1hJywgJzIwMCcsICctbWV0YWxfYmluZGluZycsICctaW1hZScsICc8aW5maWxlLm1hZT4nLCAnLW9tYWUnLCAnPG91dGZpbGUubWFlPic=

> <r_lp_tautomer_probability>
1

> <r_epik_Ionization_Penalty>
6.2463

> <r_epik_Ionization_Penalty_Charging>
6.24626

> <r_epik_Ionization_Penalty_Neutral>
4.36947e-05

> <r_epik_State_Penalty>
6.38251

> <r_epik_Charging_Adjusted_Penalty>
12.6288

> <i_epik_Tot_Q>
0

> <i_epik_Tot_abs_Q>
2

> <r_epik_Metal_State_Penalty>
2.3175

> <b_epik_Metal_Only>
1

> <s_lp_Force_Field>
OPLS_2005

> <r_lp_Energy>
38.3131

> <b_lp_Chiralities_Consistent>
1

> <s_lp_Variant>
AV-unprocessed.smi:269-3

> <Gold.Version>
5.8.1

> <Gold.Id.Protein>
6NUR|6NUR_protein|mol2

> <Gold.PLP.Fitness>
45.9976

> <Gold.PLP.PLP>
-33.8707

> <Gold.PLP.part.hbond>
-4.0236

> <Gold.PLP.part.metal>
0.0000

> <Gold.PLP.part.buried>
-6.1009

> <Gold.PLP.part.nonpolar>
-24.8667

> <Gold.PLP.part.repulsive>
0.4654

> <Gold.PLP.ligand.clash>
0.0156

> <Gold.PLP.ligand.torsion>
0.7179

> <Gold.PLP.Chemscore.Hbond>
4.2155

> <Gold.PLP.Chemscore.CHOScore>
0.0000

> <Gold.PLP.Chemscore.Metal>
0.0000

> <Gold.Chemscore.Hbonds>
donor molecule, donor type, donor heavy atom, donor atom, acceptor molecule, acceptor atom, score
      L1  H     7    61       P1 10957  1.95
      L1  H    23    48       P1  7957  0.80
      P1  H  7989  7998       L1    26  0.08
      P1  H  7997  8009       L1    26  0.65
      P1  H  8011  8017       L1    23  0.55

> <Gold.PLP.Chemscore.Internal.Correction>
0.9319

> <Gold.Rescore>
     Score         DG    S(hbond)    S(metal)    S(lipo)     H(rot)  DE(clash)    DE(int)     intcor
     11.55     -14.70       2.75        0.00      72.17       3.28       0.00       3.15       ----

> <Gold.Chemscore.Fitness>
11.5467

> <Gold.Chemscore.DG>
-14.6985

> <Gold.Chemscore.ZeroCoef>
-5.4800

> <Gold.Chemscore.Hbond>
2.7471

> <Gold.Chemscore.Metal>
0.0000

> <Gold.Chemscore.Lipo>
72.1727

> <Gold.Chemscore.Internal_Hbond>
0.0000

> <Gold.Chemscore.DEClash>
0.0009

> <Gold.Chemscore.DEInternal>
3.1509

> <Gold.Chemscore.Rot>
3.2816

> <Gold.Chemscore.Internal.Correction>
   9.000000E+99

> <Gold.Chemscore.Hbonds>
donor molecule, donor type, donor heavy atom, donor atom, acceptor molecule, acceptor atom, score
      L1  H     7    61       P1 10957  0.91
      L1  H    23    48       P1  7957  0.79
      P1  H  7997  8009       L1    26  0.15
      P1  H  8011  8017       L1    23  0.03

> <Gold.Chemscore.Hbond.Weighted>
-9.1752

> <Gold.Chemscore.Metal.Weighted>
-0.0000

> <Gold.Chemscore.Lipo.Weighted>
-8.4442

> <Gold.Chemscore.Internal_Hbond.Weighted>
0.0000

> <Gold.Chemscore.DEClash.Weighted>
0.0009

> <Gold.Chemscore.DEInternal.Weighted>
3.1509

> <Gold.Chemscore.Rot.Weighted>
8.4009

> <Gold.Chemscore.Internal.Correction.Weighted>
   9.000000E+99

> <Gold.Protein.RotatedTorsions>
[ 6907 6896 6895 6894 ] final  130.34 input  -60.11 | X-H torsion
[ 7974 7965 7964 7962 ] final -167.18 input  175.53 | X-H torsion
[ 8008 7997 7996 7995 ] final -145.82 input   59.86 | X-H torsion
[ 10167 10162 10161 10158 ] final -172.62 input  -65.29 | X-H torsion
[ 10718 10713 10712 10709 ] final  -19.52 input   66.30 | X-H torsion
[ 10763 10752 10751 10750 ] final   -2.87 input  -60.55 | X-H torsion
[ 11005 11000 10999 10996 ] final  123.43 input  -57.11 | X-H torsion

> <Gold.Protein.ActiveResidues>
 VAL166  LYS551  ARG553  GLY616  TRP617  ASP618  TYR619  PRO620  LYS621  CYS622 
 ASP623  PHE694  ASN695  SER759  ASP760  ASP761  ALA762  ILE779  LEU786  VAL792 
 PHE793  MET794  SER795  GLU796  ALA797  LYS798  CYS799  TRP800  GLU811  SER814 

> <Gold.Protein.RotatedAtoms>
  152.3536  133.6209  159.5962 H   0  0  0  0  0  0  0  0  0  0  0  0  # atno 6907 bound_to 6896
  150.7554  133.9536  159.3502 H   0  0  0  0  0  0  0  0  0  0  0  0  # atno 6908 bound_to 6896
  151.7384  135.0860  160.0363 H   0  0  0  0  0  0  0  0  0  0  0  0  # atno 6909 bound_to 6896
  144.7228  140.2556  143.6272 H   0  0  0  0  0  0  0  0  0  0  0  0  # atno 7974 bound_to 7965
  155.5494  140.0615  157.2853 H   0  0  0  0  0  0  0  0  0  0  0  0  # atno 8008 bound_to 7997
  154.4425  140.1905  156.0716 H   0  0  0  0  0  0  0  0  0  0  0  0  # atno 8009 bound_to 7997
  156.0527  140.3282  155.7373 H   0  0  0  0  0  0  0  0  0  0  0  0  # atno 8010 bound_to 7997
  139.5734  144.1588  152.1417 H   0  0  0  0  0  0  0  0  0  0  0  0  # atno 10167 bound_to 10162
  156.5445  130.4686  149.6482 H   0  0  0  0  0  0  0  0  0  0  0  0  # atno 10718 bound_to 10713
  153.3638  135.6991  153.6691 H   0  0  0  0  0  0  0  0  0  0  0  0  # atno 10763 bound_to 10752
  153.5369  135.3581  155.2701 H   0  0  0  0  0  0  0  0  0  0  0  0  # atno 10764 bound_to 10752
  154.8672  135.4194  154.2901 H   0  0  0  0  0  0  0  0  0  0  0  0  # atno 10765 bound_to 10752
  139.9312  134.9641  156.8259 H   0  0  0  0  0  0  0  0  0  0  0  0  # atno 11005 bound_to 11000
  145.8186  139.2034  143.1951 LP  0  0  0  0  0  0  0  0  0  0  0  0  # atno 17320 bound_to 7965
  146.0534  140.8046  142.9770 LP  0  0  0  0  0  0  0  0  0  0  0  0  # atno 17321 bound_to 7965
  140.1126  144.5444  150.6915 LP  0  0  0  0  0  0  0  0  0  0  0  0  # atno 17342 bound_to 10162
  140.7018  143.2440  151.4842 LP  0  0  0  0  0  0  0  0  0  0  0  0  # atno 17343 bound_to 10162
  156.2941  130.7140  151.1996 LP  0  0  0  0  0  0  0  0  0  0  0  0  # atno 17370 bound_to 10713
  157.7399  131.0523  150.5201 LP  0  0  0  0  0  0  0  0  0  0  0  0  # atno 17371 bound_to 10713
  140.6196  134.0006  155.7612 LP  0  0  0  0  0  0  0  0  0  0  0  0  # atno 17394 bound_to 11000
  141.0902  133.9928  157.3249 LP  0  0  0  0  0  0  0  0  0  0  0  0  # atno 17395 bound_to 11000

$$$$
