AV-unprocessed.smi:502|AV-procd|sdf|2745|dock8
  -GOLD-   2262023213D 1   1.00000     0.00000
 Structure written by MMmdl.
 49 51  0  0  0  0  0  0  0  0  2 V2000
  149.5063  137.1455  159.0190 C   0  0  0  0  0  0  0  0  0  0  0  0
  150.8587  137.1165  158.3152 C   0  0  0  0  0  0  0  0  0  0  0  0
  151.8721  136.7946  158.9351 O   0  0  0  0  0  0  0  0  0  0  0  0
  150.8610  137.4562  157.0175 N   0  0  0  0  0  0  0  0  0  0  0  0
  152.0469  137.5114  156.1708 C   0  0  0  0  0  0  0  0  0  0  0  0
  151.6810  137.6420  154.6829 C   0  0  0  0  0  0  0  0  0  0  0  0
  150.5670  138.6166  154.4758 C   0  0  0  0  0  0  0  0  0  0  0  0
  149.4698  138.4073  153.6941 N   0  3  0  0  0  0  0  0  0  0  0  0
  148.6450  139.5321  153.7237 C   0  0  0  0  0  0  0  0  0  0  0  0
  147.4305  139.7892  153.0951 C   0  0  0  0  0  0  0  0  0  0  0  0
  146.8469  141.0502  153.3378 C   0  0  0  0  0  0  0  0  0  0  0  0
  147.4681  141.9976  154.1775 C   0  0  0  0  0  0  0  0  0  0  0  0
  148.6993  141.7251  154.8094 C   0  0  0  0  0  0  0  0  0  0  0  0
  149.2702  140.4767  154.5624 C   0  0  0  0  0  0  0  0  0  0  0  0
  150.4555  139.8733  154.9981 N   0  0  0  0  0  0  0  0  0  0  0  0
  151.3467  140.6241  155.8937 C   0  0  0  0  0  0  0  0  0  0  0  0
  150.6636  140.9921  157.2176 C   0  0  0  0  0  0  0  0  0  0  0  0
  151.6698  141.2605  158.1827 O   0  0  0  0  0  0  0  0  0  0  0  0
  151.7783  142.5432  158.6800 C   0  0  0  0  0  0  0  0  0  0  0  0
  151.1567  143.6725  158.0877 C   0  0  0  0  0  0  0  0  0  0  0  0
  151.3118  144.9532  158.6514 C   0  0  0  0  0  0  0  0  0  0  0  0
  152.0870  145.1239  159.8119 C   0  0  0  0  0  0  0  0  0  0  0  0
  152.7082  144.0120  160.4084 C   0  0  0  0  0  0  0  0  0  0  0  0
  152.5567  142.7266  159.8471 C   0  0  0  0  0  0  0  0  0  0  0  0
  153.2336  141.5383  160.5043 C   0  0  0  0  0  0  0  0  0  0  0  0
  148.8067  136.4670  158.5305 H   0  0  0  0  0  0  0  0  0  0  0  0
  149.0866  138.1515  158.9957 H   0  0  0  0  0  0  0  0  0  0  0  0
  149.6048  136.8417  160.0616 H   0  0  0  0  0  0  0  0  0  0  0  0
  149.9809  137.7080  156.5905 H   0  0  0  0  0  0  0  0  0  0  0  0
  152.6437  138.3668  156.4855 H   0  0  0  0  0  0  0  0  0  0  0  0
  152.6618  136.6253  156.3374 H   0  0  0  0  0  0  0  0  0  0  0  0
  152.5453  137.9771  154.1081 H   0  0  0  0  0  0  0  0  0  0  0  0
  151.3969  136.6730  154.2724 H   0  0  0  0  0  0  0  0  0  0  0  0
  146.9529  139.0651  152.4515 H   0  0  0  0  0  0  0  0  0  0  0  0
  145.9043  141.2960  152.8703 H   0  0  0  0  0  0  0  0  0  0  0  0
  146.9913  142.9536  154.3398 H   0  0  0  0  0  0  0  0  0  0  0  0
  149.1684  142.4576  155.4495 H   0  0  0  0  0  0  0  0  0  0  0  0
  152.2449  140.0305  156.0683 H   0  0  0  0  0  0  0  0  0  0  0  0
  151.6683  141.5272  155.3757 H   0  0  0  0  0  0  0  0  0  0  0  0
  150.0319  141.8700  157.0778 H   0  0  0  0  0  0  0  0  0  0  0  0
  150.0316  140.1695  157.5551 H   0  0  0  0  0  0  0  0  0  0  0  0
  150.5535  143.5849  157.1970 H   0  0  0  0  0  0  0  0  0  0  0  0
  150.8347  145.8060  158.1917 H   0  0  0  0  0  0  0  0  0  0  0  0
  152.2049  146.1064  160.2445 H   0  0  0  0  0  0  0  0  0  0  0  0
  153.3021  144.1508  161.3001 H   0  0  0  0  0  0  0  0  0  0  0  0
  153.7793  141.8343  161.4008 H   0  0  0  0  0  0  0  0  0  0  0  0
  153.9403  141.0761  159.8147 H   0  0  0  0  0  0  0  0  0  0  0  0
  152.4926  140.7913  160.7905 H   0  0  0  0  0  0  0  0  0  0  0  0
  149.3001  137.5531  153.1784 H   0  0  0  0  0  0  0  0  0  0  0  0
  1  2  1  0  0  0  0
  1 26  1  0  0  0  0
  1 27  1  0  0  0  0
  1 28  1  0  0  0  0
  2  3  2  0  0  0  0
  2  4  1  0  0  0  0
  4  5  1  0  0  0  0
  4 29  1  0  0  0  0
  5  6  1  0  0  0  0
  5 30  1  0  0  0  0
  5 31  1  0  0  0  0
  6  7  1  0  0  0  0
  6 32  1  0  0  0  0
  6 33  1  0  0  0  0
  7 15  1  0  0  0  0
  7  8  2  0  0  0  0
  8  9  1  0  0  0  0
  8 49  1  0  0  0  0
  9 14  2  0  0  0  0
  9 10  1  0  0  0  0
 10 11  2  0  0  0  0
 10 34  1  0  0  0  0
 11 12  1  0  0  0  0
 11 35  1  0  0  0  0
 12 13  2  0  0  0  0
 12 36  1  0  0  0  0
 13 14  1  0  0  0  0
 13 37  1  0  0  0  0
 14 15  1  0  0  0  0
 15 16  1  0  0  0  0
 16 17  1  0  0  0  0
 16 38  1  0  0  0  0
 16 39  1  0  0  0  0
 17 18  1  0  0  0  0
 17 40  1  0  0  0  0
 17 41  1  0  0  0  0
 18 19  1  0  0  0  0
 19 24  1  0  0  0  0
 19 20  2  0  0  0  0
 20 21  1  0  0  0  0
 20 42  1  0  0  0  0
 21 22  2  0  0  0  0
 21 43  1  0  0  0  0
 22 23  1  0  0  0  0
 22 44  1  0  0  0  0
 23 24  2  0  0  0  0
 23 45  1  0  0  0  0
 24 25  1  0  0  0  0
 25 46  1  0  0  0  0
 25 47  1  0  0  0  0
 25 48  1  0  0  0  0
M  CHG  1   8   1
M  END
> <s_m_source_file>
AV-unprocessed.smi

> <i_m_source_file_index>
502

> <i_lp_mmshare_version>
43012

> <i_f3d_flags>
0

> <s_epik_input>
W0NIM11DKD1PKVtOSF1bQ0gyXVtDSDJdYyhuMSluKGMoYzEyKVtjSF1bY0hdW2NIXVtjSF0yKVtDSDJdW0NIMl1PYzNbY0hdW2NIXVtjSF1bY0hdYzNbQ0gzXQ==

> <s_epik_cmdline>
J2VwaWtfcHl0aG9uJywgJy1waCcsICc3LjAnLCAnLXRuJywgJzgnLCAnLW1hJywgJzIwMCcsICctbWV0YWxfYmluZGluZycsICctaW1hZScsICc8aW5maWxlLm1hZT4nLCAnLW9tYWUnLCAnPG91dGZpbGUubWFlPic=

> <r_lp_tautomer_probability>
1

> <r_epik_Ionization_Penalty>
1.10789

> <r_epik_Ionization_Penalty_Charging>
1.10789

> <r_epik_Ionization_Penalty_Neutral>
3.05925e-07

> <r_epik_State_Penalty>
1.16562

> <r_epik_Charging_Adjusted_Penalty>
2.27351

> <i_epik_Tot_Q>
1

> <i_epik_Tot_abs_Q>
1

> <r_epik_Metal_State_Penalty>
1.2518

> <b_epik_Metal_Only>
0

> <s_lp_Force_Field>
OPLS_2005

> <r_lp_Energy>
20.1677

> <b_lp_Chiralities_Consistent>
1

> <s_lp_Variant>
AV-unprocessed.smi:502-2

> <Gold.Version>
5.8.1

> <Gold.Id.Protein>
6NUR|6NUR_protein|mol2

> <Gold.PLP.Fitness>
63.2523

> <Gold.PLP.PLP>
-56.1149

> <Gold.PLP.part.hbond>
-3.0000

> <Gold.PLP.part.metal>
0.0000

> <Gold.PLP.part.buried>
-0.5868

> <Gold.PLP.part.nonpolar>
-52.5660

> <Gold.PLP.part.repulsive>
0.1001

> <Gold.PLP.ligand.clash>
0.0000

> <Gold.PLP.ligand.torsion>
0.9278

> <Gold.PLP.Chemscore.Hbond>
2.9600

> <Gold.PLP.Chemscore.CHOScore>
0.0000

> <Gold.PLP.Chemscore.Metal>
0.0000

> <Gold.Chemscore.Hbonds>
donor molecule, donor type, donor heavy atom, donor atom, acceptor molecule, acceptor atom, score
      L1  H     8    49       P1  7948  2.00
      P1  H  6896  6909       L1     3  0.90

> <Gold.PLP.Chemscore.Internal.Correction>
0.1130

> <Gold.Rescore>
     Score         DG    S(hbond)    S(metal)    S(lipo)     H(rot)  DE(clash)    DE(int)     intcor
     21.31     -24.03       1.89        0.00     152.27       2.18       1.84       0.89       ----

> <Gold.Chemscore.Fitness>
21.3060

> <Gold.Chemscore.DG>
-24.0331

> <Gold.Chemscore.ZeroCoef>
-5.4800

> <Gold.Chemscore.Hbond>
1.8913

> <Gold.Chemscore.Metal>
0.0000

> <Gold.Chemscore.Lipo>
152.2677

> <Gold.Chemscore.Internal_Hbond>
0.0000

> <Gold.Chemscore.DEClash>
1.8398

> <Gold.Chemscore.DEInternal>
0.8872

> <Gold.Chemscore.Rot>
2.1793

> <Gold.Chemscore.Internal.Correction>
   9.000000E+99

> <Gold.Chemscore.Hbonds>
donor molecule, donor type, donor heavy atom, donor atom, acceptor molecule, acceptor atom, score
      L1  H     8    49       P1  7948  0.98
      P1  H  6896  6909       L1     3  0.72

> <Gold.Chemscore.Hbond.Weighted>
-6.3169

> <Gold.Chemscore.Metal.Weighted>
-0.0000

> <Gold.Chemscore.Lipo.Weighted>
-17.8153

> <Gold.Chemscore.Internal_Hbond.Weighted>
0.0000

> <Gold.Chemscore.DEClash.Weighted>
1.8398

> <Gold.Chemscore.DEInternal.Weighted>
0.8872

> <Gold.Chemscore.Rot.Weighted>
5.5791

> <Gold.Chemscore.Internal.Correction.Weighted>
   9.000000E+99

> <Gold.Protein.RotatedTorsions>
[ 6907 6896 6895 6894 ] final  120.84 input  -60.11 | X-H torsion
[ 7974 7965 7964 7962 ] final  161.78 input  175.53 | X-H torsion
[ 8008 7997 7996 7995 ] final  109.37 input   59.86 | X-H torsion
[ 10167 10162 10161 10158 ] final  -97.14 input  -65.29 | X-H torsion
[ 10718 10713 10712 10709 ] final   11.35 input   66.30 | X-H torsion
[ 10763 10752 10751 10750 ] final  -55.62 input  -60.55 | X-H torsion
[ 11005 11000 10999 10996 ] final   78.11 input  -57.11 | X-H torsion

> <Gold.Protein.ActiveResidues>
 VAL166  LYS551  ARG553  GLY616  TRP617  ASP618  TYR619  PRO620  LYS621  CYS622 
 ASP623  PHE694  ASN695  SER759  ASP760  ASP761  ALA762  ILE779  LEU786  VAL792 
 PHE793  MET794  SER795  GLU796  ALA797  LYS798  CYS799  TRP800  GLU811  SER814 

> <Gold.Protein.RotatedAtoms>
  152.4368  133.7375  159.6621 H   0  0  0  0  0  0  0  0  0  0  0  0  # atno 6907 bound_to 6896
  150.8252  133.8173  159.3127 H   0  0  0  0  0  0  0  0  0  0  0  0  # atno 6908 bound_to 6896
  151.5843  135.1059  160.0076 H   0  0  0  0  0  0  0  0  0  0  0  0  # atno 6909 bound_to 6896
  144.7668  139.7947  143.6312 H   0  0  0  0  0  0  0  0  0  0  0  0  # atno 7974 bound_to 7965
  156.1974  140.3059  155.9455 H   0  0  0  0  0  0  0  0  0  0  0  0  # atno 8008 bound_to 7997
  155.3034  140.0447  157.3048 H   0  0  0  0  0  0  0  0  0  0  0  0  # atno 8009 bound_to 7997
  154.5527  140.2296  155.8468 H   0  0  0  0  0  0  0  0  0  0  0  0  # atno 8010 bound_to 7997
  140.2865  143.3248  152.0389 H   0  0  0  0  0  0  0  0  0  0  0  0  # atno 10167 bound_to 10162
  156.9943  130.6054  149.5689 H   0  0  0  0  0  0  0  0  0  0  0  0  # atno 10718 bound_to 10713
  154.1937  135.6423  153.5067 H   0  0  0  0  0  0  0  0  0  0  0  0  # atno 10763 bound_to 10752
  153.0029  135.5435  154.6388 H   0  0  0  0  0  0  0  0  0  0  0  0  # atno 10764 bound_to 10752
  154.5784  135.2923  155.0731 H   0  0  0  0  0  0  0  0  0  0  0  0  # atno 10765 bound_to 10752
  139.9226  134.7737  156.1608 H   0  0  0  0  0  0  0  0  0  0  0  0  # atno 11005 bound_to 11000
  146.1783  139.4963  142.9883 LP  0  0  0  0  0  0  0  0  0  0  0  0  # atno 17320 bound_to 7965
  145.6444  141.0277  143.1794 LP  0  0  0  0  0  0  0  0  0  0  0  0  # atno 17321 bound_to 7965
  139.4949  144.6555  151.6581 LP  0  0  0  0  0  0  0  0  0  0  0  0  # atno 17342 bound_to 10162
  140.5768  144.0014  150.6246 LP  0  0  0  0  0  0  0  0  0  0  0  0  # atno 17343 bound_to 10162
  156.0195  130.5290  150.8234 LP  0  0  0  0  0  0  0  0  0  0  0  0  # atno 17370 bound_to 10713
  157.5436  131.0941  150.9793 LP  0  0  0  0  0  0  0  0  0  0  0  0  # atno 17371 bound_to 10713
  141.0759  133.6775  156.2236 LP  0  0  0  0  0  0  0  0  0  0  0  0  # atno 17394 bound_to 11000
  140.6429  134.5147  157.5571 LP  0  0  0  0  0  0  0  0  0  0  0  0  # atno 17395 bound_to 11000

$$$$
