AV-unprocessed.smi:2662|AV-procd|sdf|10318|dock2
  -GOLD-   2272014333D 1   1.00000     0.00000
 Structure written by MMmdl.
 36 38  0  0  0  0  0  0  0  0  1 V2000
  153.3026  139.4779  154.8413 O   0  0  0  0  0  0  0  0  0  0  0  0
  152.2164  138.8545  155.4913 C   0  0  0  0  0  0  0  0  0  0  0  0
  150.8851  139.3821  155.0481 C   0  0  0  0  0  0  0  0  0  0  0  0
  150.0681  138.6588  154.2807 N   0  0  0  0  0  0  0  0  0  0  0  0
  148.9725  139.4863  154.1358 C   0  0  0  0  0  0  0  0  0  0  0  0
  147.7603  139.2912  153.4358 C   0  0  0  0  0  0  0  0  0  0  0  0
  146.7654  140.2907  153.4381 C   0  0  0  0  0  0  0  0  0  0  0  0
  146.9678  141.4970  154.1396 C   0  0  0  0  0  0  0  0  0  0  0  0
  148.1693  141.7127  154.8412 C   0  0  0  0  0  0  0  0  0  0  0  0
  149.1605  140.7126  154.8336 C   0  0  0  0  0  0  0  0  0  0  0  0
  150.4259  140.6103  155.4040 N   0  0  0  0  0  0  0  0  0  0  0  0
  151.0749  141.6272  156.2230 C   0  0  0  0  0  0  0  0  0  0  0  0
  150.3892  141.8235  157.5910 C   0  0  2  0  0  0  0  0  0  0  0  0
  149.3493  142.7760  157.4808 O   0  0  0  0  0  0  0  0  0  0  0  0
  151.4043  142.1916  158.6643 C   0  0  0  0  0  0  0  0  0  0  0  0
  152.1703  141.1871  159.2973 C   0  0  0  0  0  0  0  0  0  0  0  0
  153.1004  141.5255  160.2991 C   0  0  0  0  0  0  0  0  0  0  0  0
  153.8304  140.5564  160.8999 F   0  0  0  0  0  0  0  0  0  0  0  0
  153.2701  142.8709  160.6767 C   0  0  0  0  0  0  0  0  0  0  0  0
  152.5064  143.8766  160.0543 C   0  0  0  0  0  0  0  0  0  0  0  0
  151.5741  143.5400  159.0534 C   0  0  0  0  0  0  0  0  0  0  0  0
  150.8409  144.5201  158.4721 F   0  0  0  0  0  0  0  0  0  0  0  0
  153.0485  139.6728  153.9526 H   0  0  0  0  0  0  0  0  0  0  0  0
  152.2643  137.7840  155.2885 H   0  0  0  0  0  0  0  0  0  0  0  0
  152.3178  138.9687  156.5705 H   0  0  0  0  0  0  0  0  0  0  0  0
  147.5946  138.3694  152.8982 H   0  0  0  0  0  0  0  0  0  0  0  0
  145.8421  140.1304  152.9012 H   0  0  0  0  0  0  0  0  0  0  0  0
  146.1999  142.2566  154.1384 H   0  0  0  0  0  0  0  0  0  0  0  0
  148.3259  142.6359  155.3790 H   0  0  0  0  0  0  0  0  0  0  0  0
  152.1112  141.3205  156.3700 H   0  0  0  0  0  0  0  0  0  0  0  0
  151.1136  142.5725  155.6830 H   0  0  0  0  0  0  0  0  0  0  0  0
  149.9056  140.8917  157.8838 H   0  0  0  0  0  0  0  0  0  0  0  0
  149.4297  143.2134  156.6471 H   0  0  0  0  0  0  0  0  0  0  0  0
  152.0445  140.1508  159.0192 H   0  0  0  0  0  0  0  0  0  0  0  0
  153.9831  143.1312  161.4450 H   0  0  0  0  0  0  0  0  0  0  0  0
  152.6343  144.9084  160.3469 H   0  0  0  0  0  0  0  0  0  0  0  0
  1  2  1  0  0  0  0
  1 23  1  0  0  0  0
  2  3  1  0  0  0  0
  2 24  1  0  0  0  0
  2 25  1  0  0  0  0
  3 11  1  0  0  0  0
  3  4  2  0  0  0  0
  4  5  1  0  0  0  0
  5 10  2  0  0  0  0
  5  6  1  0  0  0  0
  6  7  2  0  0  0  0
  6 26  1  0  0  0  0
  7  8  1  0  0  0  0
  7 27  1  0  0  0  0
  8  9  2  0  0  0  0
  8 28  1  0  0  0  0
  9 10  1  0  0  0  0
  9 29  1  0  0  0  0
 10 11  1  0  0  0  0
 11 12  1  0  0  0  0
 12 13  1  0  0  0  0
 12 30  1  0  0  0  0
 12 31  1  0  0  0  0
 13 14  1  0  0  0  0
 13 15  1  0  0  0  0
 13 32  1  0  0  0  0
 14 33  1  0  0  0  0
 15 21  1  0  0  0  0
 15 16  2  0  0  0  0
 16 17  1  0  0  0  0
 16 34  1  0  0  0  0
 17 18  1  0  0  0  0
 17 19  2  0  0  0  0
 19 20  1  0  0  0  0
 19 35  1  0  0  0  0
 20 21  2  0  0  0  0
 20 36  1  0  0  0  0
 21 22  1  0  0  0  0
M  END
> <s_m_source_file>
AV-unprocessed.smi

> <i_m_source_file_index>
2662

> <i_lp_mmshare_version>
43012

> <i_f3d_flags>
0

> <s_epik_input>
W2NIXTFbY0hdW2NIXVtjSF1jKGMxMiluKGMobjIpW0NIMl1bT0hdKVtDSDJdW0NASF0oW09IXSljM1tjSF1jKEYpW2NIXVtjSF1jM0Y=

> <s_epik_cmdline>
J2VwaWtfcHl0aG9uJywgJy1waCcsICc3LjAnLCAnLXRuJywgJzgnLCAnLW1hJywgJzIwMCcsICctbWV0YWxfYmluZGluZycsICctaW1hZScsICc8aW5maWxlLm1hZT4nLCAnLW9tYWUnLCAnPG91dGZpbGUubWFlPic=

> <r_epik_Ionization_Penalty>
0.0634732

> <r_epik_Ionization_Penalty_Charging>
0

> <r_epik_Ionization_Penalty_Neutral>
0.0634732

> <r_epik_State_Penalty>
0.0551572

> <r_epik_Charging_Adjusted_Penalty>
0.0551572

> <i_epik_Tot_Q>
0

> <i_epik_Tot_abs_Q>
0

> <r_epik_Metal_State_Penalty>
5.78034e-05

> <b_epik_Metal_Only>
0

> <s_lp_Force_Field>
OPLS_2005

> <r_lp_Energy>
12.627

> <b_lp_Chiralities_Consistent>
1

> <s_lp_Variant>
AV-unprocessed.smi:2662-1

> <Gold.Version>
5.8.1

> <Gold.Id.Protein>
6NUR|6NUR_protein|mol2

> <Gold.PLP.Fitness>
54.0844

> <Gold.PLP.PLP>
-50.6467

> <Gold.PLP.part.hbond>
-3.0000

> <Gold.PLP.part.metal>
0.0000

> <Gold.PLP.part.buried>
-0.2443

> <Gold.PLP.part.nonpolar>
-46.0195

> <Gold.PLP.part.repulsive>
0.2198

> <Gold.PLP.ligand.clash>
0.0068

> <Gold.PLP.ligand.torsion>
1.2418

> <Gold.PLP.Chemscore.Hbond>
1.9600

> <Gold.PLP.Chemscore.CHOScore>
0.0000

> <Gold.PLP.Chemscore.Metal>
0.0000

> <Gold.Chemscore.Hbonds>
donor molecule, donor type, donor heavy atom, donor atom, acceptor molecule, acceptor atom, score
      L1  H    14    33       P1  8028  0.86
      P1  H  7997  8009       L1     1  1.00

> <Gold.PLP.Chemscore.Internal.Correction>
0.0480

> <Gold.Rescore>
     Score         DG    S(hbond)    S(metal)    S(lipo)     H(rot)  DE(clash)    DE(int)     intcor
     15.50     -18.45       1.87        0.00     120.28       2.88       0.03       2.92       ----

> <Gold.Chemscore.Fitness>
15.4967

> <Gold.Chemscore.DG>
-18.4495

> <Gold.Chemscore.ZeroCoef>
-5.4800

> <Gold.Chemscore.Hbond>
1.8748

> <Gold.Chemscore.Metal>
0.0000

> <Gold.Chemscore.Lipo>
120.2758

> <Gold.Chemscore.Internal_Hbond>
0.0000

> <Gold.Chemscore.DEClash>
0.0318

> <Gold.Chemscore.DEInternal>
2.9210

> <Gold.Chemscore.Rot>
2.8767

> <Gold.Chemscore.Internal.Correction>
   9.000000E+99

> <Gold.Chemscore.Hbonds>
donor molecule, donor type, donor heavy atom, donor atom, acceptor molecule, acceptor atom, score
      L1  H    14    33       P1  8028  0.85
      P1  H  7997  8009       L1     1  0.73

> <Gold.Chemscore.Hbond.Weighted>
-6.2617

> <Gold.Chemscore.Metal.Weighted>
-0.0000

> <Gold.Chemscore.Lipo.Weighted>
-14.0723

> <Gold.Chemscore.Internal_Hbond.Weighted>
0.0000

> <Gold.Chemscore.DEClash.Weighted>
0.0318

> <Gold.Chemscore.DEInternal.Weighted>
2.9210

> <Gold.Chemscore.Rot.Weighted>
7.3644

> <Gold.Chemscore.Internal.Correction.Weighted>
   9.000000E+99

> <Gold.Protein.RotatedTorsions>
[ 6907 6896 6895 6894 ] final -131.57 input  -60.11 | X-H torsion
[ 7974 7965 7964 7962 ] final  135.52 input  175.53 | X-H torsion
[ 8008 7997 7996 7995 ] final -145.67 input   59.86 | X-H torsion
[ 10167 10162 10161 10158 ] final   41.50 input  -65.29 | X-H torsion
[ 10718 10713 10712 10709 ] final   51.96 input   66.30 | X-H torsion
[ 10763 10752 10751 10750 ] final  -42.56 input  -60.55 | X-H torsion
[ 11005 11000 10999 10996 ] final -165.46 input  -57.11 | X-H torsion

> <Gold.Protein.ActiveResidues>
 VAL166  LYS551  ARG553  GLY616  TRP617  ASP618  TYR619  PRO620  LYS621  CYS622 
 ASP623  PHE694  ASN695  SER759  ASP760  ASP761  ALA762  ILE779  LEU786  VAL792 
 PHE793  MET794  SER795  GLU796  ALA797  LYS798  CYS799  TRP800  GLU811  SER814 

> <Gold.Protein.RotatedAtoms>
  150.9524  133.6534  159.2769 H   0  0  0  0  0  0  0  0  0  0  0  0  # atno 6907 bound_to 6896
  151.3886  135.0951  159.9528 H   0  0  0  0  0  0  0  0  0  0  0  0  # atno 6908 bound_to 6896
  152.5115  133.9043  159.7511 H   0  0  0  0  0  0  0  0  0  0  0  0  # atno 6909 bound_to 6896
  144.9655  139.4662  143.5458 H   0  0  0  0  0  0  0  0  0  0  0  0  # atno 7974 bound_to 7965
  155.5469  140.0613  157.2858 H   0  0  0  0  0  0  0  0  0  0  0  0  # atno 8008 bound_to 7997
  154.4433  140.1909  156.0691 H   0  0  0  0  0  0  0  0  0  0  0  0  # atno 8009 bound_to 7997
  156.0544  140.3280  155.7392 H   0  0  0  0  0  0  0  0  0  0  0  0  # atno 8010 bound_to 7997
  140.3637  144.2195  150.6136 H   0  0  0  0  0  0  0  0  0  0  0  0  # atno 10167 bound_to 10162
  157.5030  130.8450  149.8339 H   0  0  0  0  0  0  0  0  0  0  0  0  # atno 10718 bound_to 10713
  153.9811  135.6717  153.4750 H   0  0  0  0  0  0  0  0  0  0  0  0  # atno 10763 bound_to 10752
  153.0748  135.4955  154.8377 H   0  0  0  0  0  0  0  0  0  0  0  0  # atno 10764 bound_to 10752
  154.7164  135.3108  154.9079 H   0  0  0  0  0  0  0  0  0  0  0  0  # atno 10765 bound_to 10752
  140.5754  134.5195  157.5169 H   0  0  0  0  0  0  0  0  0  0  0  0  # atno 11005 bound_to 11000
  146.3366  139.8834  142.8820 LP  0  0  0  0  0  0  0  0  0  0  0  0  # atno 17320 bound_to 7965
  145.2636  141.0085  143.3812 LP  0  0  0  0  0  0  0  0  0  0  0  0  # atno 17321 bound_to 7965
  140.5102  143.2293  151.8547 LP  0  0  0  0  0  0  0  0  0  0  0  0  # atno 17342 bound_to 10162
  139.4811  144.4958  151.9125 LP  0  0  0  0  0  0  0  0  0  0  0  0  # atno 17343 bound_to 10162
  156.0241  130.3785  150.1876 LP  0  0  0  0  0  0  0  0  0  0  0  0  # atno 17370 bound_to 10713
  157.0066  130.9938  151.3377 LP  0  0  0  0  0  0  0  0  0  0  0  0  # atno 17371 bound_to 10713
  139.9342  134.7907  156.0848 LP  0  0  0  0  0  0  0  0  0  0  0  0  # atno 17394 bound_to 11000
  141.1030  133.6670  156.2798 LP  0  0  0  0  0  0  0  0  0  0  0  0  # atno 17395 bound_to 11000

$$$$
