AV-unprocessed.smi:2143|AV-procd|sdf|8722|dock8
  -GOLD-   2272011493D 1   1.00000     0.00000
 Structure written by MMmdl.
 44 45  0  0  0  0  0  0  0  0  1 V2000
  145.7201  143.2967  153.7362 C   0  0  0  0  0  0  0  0  0  0  0  0
  146.8808  142.5597  154.4280 C   0  0  2  0  0  0  0  0  0  0  0  0
  147.4463  141.4771  153.4852 C   0  0  0  0  0  0  0  0  0  0  0  0
  148.6205  140.7159  154.1151 C   0  0  0  0  0  0  0  0  0  0  0  0
  148.2159  140.0959  155.4605 C   0  0  0  0  0  0  0  0  0  0  0  0
  147.6519  141.1491  156.4319 C   0  0  1  0  0  0  0  0  0  0  0  0
  148.7265  142.0400  156.8764 N   0  0  0  0  0  0  0  0  0  0  0  0
  149.6012  141.7990  157.8650 C   0  0  0  0  0  0  0  0  0  0  0  0
  149.5939  140.7710  158.5434 O   0  0  0  0  0  0  0  0  0  0  0  0
  150.6204  142.9136  158.1371 C   0  0  0  0  0  0  0  0  0  0  0  0
  151.6342  142.5421  159.1324 N   0  0  0  0  0  0  0  0  0  0  0  0
  152.5522  141.5509  158.8379 C   0  0  0  0  0  0  0  0  0  0  0  0
  153.5244  141.1591  159.6900 C   0  0  0  0  0  0  0  0  0  0  0  0
  153.6626  141.7753  161.0040 C   0  0  0  0  0  0  0  0  0  0  0  0
  154.5418  141.4542  161.8043 O   0  0  0  0  0  0  0  0  0  0  0  0
  152.7054  142.7808  161.2826 N   0  0  0  0  0  0  0  0  0  0  0  0
  152.7576  143.4688  162.5560 C   0  0  0  0  0  0  0  0  0  0  0  0
  151.6980  143.1934  160.3829 C   0  0  0  0  0  0  0  0  0  0  0  0
  150.9006  144.0909  160.6671 O   0  0  0  0  0  0  0  0  0  0  0  0
  146.4773  141.9394  155.7952 C   0  0  1  0  0  0  0  0  0  0  0  0
  145.8923  142.9723  156.7799 C   0  0  0  0  0  0  0  0  0  0  0  0
  144.8617  142.6396  153.5927 H   0  0  0  0  0  0  0  0  0  0  0  0
  146.0213  143.6663  152.7557 H   0  0  0  0  0  0  0  0  0  0  0  0
  145.3899  144.1616  154.3108 H   0  0  0  0  0  0  0  0  0  0  0  0
  147.6697  143.2924  154.6035 H   0  0  0  0  0  0  0  0  0  0  0  0
  146.6576  140.7702  153.2232 H   0  0  0  0  0  0  0  0  0  0  0  0
  147.7736  141.9309  152.5491 H   0  0  0  0  0  0  0  0  0  0  0  0
  148.9622  139.9343  153.4360 H   0  0  0  0  0  0  0  0  0  0  0  0
  149.4648  141.3921  154.2541 H   0  0  0  0  0  0  0  0  0  0  0  0
  147.4606  139.3282  155.2865 H   0  0  0  0  0  0  0  0  0  0  0  0
  149.0685  139.5849  155.9095 H   0  0  0  0  0  0  0  0  0  0  0  0
  147.2592  140.6044  157.2924 H   0  0  0  0  0  0  0  0  0  0  0  0
  148.8100  142.9178  156.3846 H   0  0  0  0  0  0  0  0  0  0  0  0
  151.1019  143.2065  157.2022 H   0  0  0  0  0  0  0  0  0  0  0  0
  150.0757  143.7959  158.4758 H   0  0  0  0  0  0  0  0  0  0  0  0
  152.4944  141.0660  157.8741 H   0  0  0  0  0  0  0  0  0  0  0  0
  154.2119  140.3804  159.3940 H   0  0  0  0  0  0  0  0  0  0  0  0
  151.7541  143.4513  162.9858 H   0  0  0  0  0  0  0  0  0  0  0  0
  153.0868  144.4891  162.3525 H   0  0  0  0  0  0  0  0  0  0  0  0
  153.4438  142.9747  163.2430 H   0  0  0  0  0  0  0  0  0  0  0  0
  145.6844  141.2154  155.5996 H   0  0  0  0  0  0  0  0  0  0  0  0
  146.5687  143.8141  156.9305 H   0  0  0  0  0  0  0  0  0  0  0  0
  145.7045  142.5192  157.7538 H   0  0  0  0  0  0  0  0  0  0  0  0
  144.9409  143.3697  156.4277 H   0  0  0  0  0  0  0  0  0  0  0  0
  1  2  1  0  0  0  0
  1 22  1  0  0  0  0
  1 23  1  0  0  0  0
  1 24  1  0  0  0  0
  2 20  1  0  0  0  0
  2  3  1  0  0  0  0
  2 25  1  0  0  0  0
  3  4  1  0  0  0  0
  3 26  1  0  0  0  0
  3 27  1  0  0  0  0
  4  5  1  0  0  0  0
  4 28  1  0  0  0  0
  4 29  1  0  0  0  0
  5  6  1  0  0  0  0
  5 30  1  0  0  0  0
  5 31  1  0  0  0  0
  6  7  1  0  0  0  0
  6 20  1  0  0  0  0
  6 32  1  0  0  0  0
  7  8  1  0  0  0  0
  7 33  1  0  0  0  0
  8  9  2  0  0  0  0
  8 10  1  0  0  0  0
 10 11  1  0  0  0  0
 10 34  1  0  0  0  0
 10 35  1  0  0  0  0
 11 18  1  0  0  0  0
 11 12  1  0  0  0  0
 12 13  2  0  0  0  0
 12 36  1  0  0  0  0
 13 14  1  0  0  0  0
 13 37  1  0  0  0  0
 14 15  2  0  0  0  0
 14 16  1  0  0  0  0
 16 17  1  0  0  0  0
 16 18  1  0  0  0  0
 17 38  1  0  0  0  0
 17 39  1  0  0  0  0
 17 40  1  0  0  0  0
 18 19  2  0  0  0  0
 20 21  1  0  0  0  0
 20 41  1  0  0  0  0
 21 42  1  0  0  0  0
 21 43  1  0  0  0  0
 21 44  1  0  0  0  0
M  END
> <s_m_source_file>
AV-unprocessed.smi

> <i_m_source_file_index>
2143

> <i_lp_mmshare_version>
43012

> <i_f3d_flags>
0

> <s_epik_input>
W0NIM11bQ0BASF0xW0NIMl1bQ0gyXVtDSDJdW0NASF0oW0NASF0xW0NIM10pW05IXUMoPU8pW0NIMl1uMltjSF1bY0hdYyg9TyluKFtDSDNdKWMyPU8=

> <s_epik_cmdline>
J2VwaWtfcHl0aG9uJywgJy1waCcsICc3LjAnLCAnLXRuJywgJzgnLCAnLW1hJywgJzIwMCcsICctbWV0YWxfYmluZGluZycsICctaW1hZScsICc8aW5maWxlLm1hZT4nLCAnLW9tYWUnLCAnPG91dGZpbGUubWFlPic=

> <r_lp_tautomer_probability>
1

> <r_epik_Ionization_Penalty>
3.18445e-08

> <r_epik_Ionization_Penalty_Charging>
1.27977e-08

> <r_epik_Ionization_Penalty_Neutral>
1.90469e-08

> <r_epik_State_Penalty>
-0

> <r_epik_Charging_Adjusted_Penalty>
1.27977e-08

> <i_epik_Tot_Q>
0

> <i_epik_Tot_abs_Q>
0

> <r_epik_Metal_State_Penalty>
-0

> <b_epik_Metal_Only>
0

> <s_lp_Force_Field>
OPLS_2005

> <r_lp_Energy>
19.1403

> <b_lp_Chiralities_Consistent>
1

> <s_lp_Variant>
AV-unprocessed.smi:2143-1

> <Gold.Version>
5.8.1

> <Gold.Id.Protein>
6NUR|6NUR_protein|mol2

> <Gold.PLP.Fitness>
44.4784

> <Gold.PLP.PLP>
-42.3209

> <Gold.PLP.part.hbond>
-2.1824

> <Gold.PLP.part.metal>
0.0000

> <Gold.PLP.part.buried>
-4.1744

> <Gold.PLP.part.nonpolar>
-35.4449

> <Gold.PLP.part.repulsive>
0.1434

> <Gold.PLP.ligand.clash>
0.0000

> <Gold.PLP.ligand.torsion>
0.4266

> <Gold.PLP.Chemscore.Hbond>
1.0000

> <Gold.PLP.Chemscore.CHOScore>
0.0000

> <Gold.PLP.Chemscore.Metal>
0.0000

> <Gold.Chemscore.Hbonds>
donor molecule, donor type, donor heavy atom, donor atom, acceptor molecule, acceptor atom, score
      L1  H     7    33       P1  8028  1.00

> <Gold.PLP.Chemscore.Internal.Correction>
0.0107

> <Gold.Rescore>
     Score         DG    S(hbond)    S(metal)    S(lipo)     H(rot)  DE(clash)    DE(int)     intcor
     12.59     -13.97       0.98        0.00      77.68       1.51       0.92       0.46       ----

> <Gold.Chemscore.Fitness>
12.5856

> <Gold.Chemscore.DG>
-13.9667

> <Gold.Chemscore.ZeroCoef>
-5.4800

> <Gold.Chemscore.Hbond>
0.9795

> <Gold.Chemscore.Metal>
0.0000

> <Gold.Chemscore.Lipo>
77.6814

> <Gold.Chemscore.Internal_Hbond>
0.0000

> <Gold.Chemscore.DEClash>
0.9161

> <Gold.Chemscore.DEInternal>
0.4649

> <Gold.Chemscore.Rot>
1.5131

> <Gold.Chemscore.Internal.Correction>
   9.000000E+99

> <Gold.Chemscore.Hbonds>
donor molecule, donor type, donor heavy atom, donor atom, acceptor molecule, acceptor atom, score
      L1  H     7    33       P1  8028  0.98

> <Gold.Chemscore.Hbond.Weighted>
-3.2714

> <Gold.Chemscore.Metal.Weighted>
-0.0000

> <Gold.Chemscore.Lipo.Weighted>
-9.0887

> <Gold.Chemscore.Internal_Hbond.Weighted>
0.0000

> <Gold.Chemscore.DEClash.Weighted>
0.9161

> <Gold.Chemscore.DEInternal.Weighted>
0.4649

> <Gold.Chemscore.Rot.Weighted>
3.8734

> <Gold.Chemscore.Internal.Correction.Weighted>
   9.000000E+99

> <Gold.Protein.RotatedTorsions>
[ 6907 6896 6895 6894 ] final  129.37 input  -60.11 | X-H torsion
[ 7974 7965 7964 7962 ] final  -81.85 input  175.53 | X-H torsion
[ 8008 7997 7996 7995 ] final  -47.75 input   59.86 | X-H torsion
[ 10167 10162 10161 10158 ] final  171.64 input  -65.29 | X-H torsion
[ 10718 10713 10712 10709 ] final  107.48 input   66.30 | X-H torsion
[ 10763 10752 10751 10750 ] final -107.72 input  -60.55 | X-H torsion
[ 11005 11000 10999 10996 ] final -178.97 input  -57.11 | X-H torsion

> <Gold.Protein.ActiveResidues>
 VAL166  LYS551  ARG553  GLY616  TRP617  ASP618  TYR619  PRO620  LYS621  CYS622 
 ASP623  PHE694  ASN695  SER759  ASP760  ASP761  ALA762  ILE779  LEU786  VAL792 
 PHE793  MET794  SER795  GLU796  ALA797  LYS798  CYS799  TRP800  GLU811  SER814 

> <Gold.Protein.RotatedAtoms>
  152.3630  133.6321  159.6029 H   0  0  0  0  0  0  0  0  0  0  0  0  # atno 6907 bound_to 6896
  150.7614  133.9392  159.3460 H   0  0  0  0  0  0  0  0  0  0  0  0  # atno 6908 bound_to 6896
  151.7227  135.0892  160.0338 H   0  0  0  0  0  0  0  0  0  0  0  0  # atno 6909 bound_to 6896
  145.5411  140.9509  143.1551 H   0  0  0  0  0  0  0  0  0  0  0  0  # atno 7974 bound_to 7965
  154.4020  140.1338  156.4226 H   0  0  0  0  0  0  0  0  0  0  0  0  # atno 8008 bound_to 7997
  155.7628  140.3485  155.5186 H   0  0  0  0  0  0  0  0  0  0  0  0  # atno 8009 bound_to 7997
  155.8843  140.0992  157.1454 H   0  0  0  0  0  0  0  0  0  0  0  0  # atno 8010 bound_to 7997
  139.5053  144.3463  151.9968 H   0  0  0  0  0  0  0  0  0  0  0  0  # atno 10167 bound_to 10162
  157.6626  131.0873  150.6163 H   0  0  0  0  0  0  0  0  0  0  0  0  # atno 10718 bound_to 10713
  154.8092  135.4664  154.0472 H   0  0  0  0  0  0  0  0  0  0  0  0  # atno 10763 bound_to 10752
  153.1916  135.6856  153.8351 H   0  0  0  0  0  0  0  0  0  0  0  0  # atno 10764 bound_to 10752
  153.7867  135.3249  155.3350 H   0  0  0  0  0  0  0  0  0  0  0  0  # atno 10765 bound_to 10752
  140.4239  134.6580  157.4678 H   0  0  0  0  0  0  0  0  0  0  0  0  # atno 11005 bound_to 11000
  144.7577  139.7034  143.7247 LP  0  0  0  0  0  0  0  0  0  0  0  0  # atno 17320 bound_to 7965
  146.1980  139.5258  142.9761 LP  0  0  0  0  0  0  0  0  0  0  0  0  # atno 17321 bound_to 7965
  140.2900  144.3764  150.6091 LP  0  0  0  0  0  0  0  0  0  0  0  0  # atno 17342 bound_to 10162
  140.5954  143.2167  151.7175 LP  0  0  0  0  0  0  0  0  0  0  0  0  # atno 17343 bound_to 10162
  156.6465  130.4473  149.5734 LP  0  0  0  0  0  0  0  0  0  0  0  0  # atno 17370 bound_to 10713
  156.2169  130.6713  151.1328 LP  0  0  0  0  0  0  0  0  0  0  0  0  # atno 17371 bound_to 10713
  140.0181  134.6589  155.9280 LP  0  0  0  0  0  0  0  0  0  0  0  0  # atno 17394 bound_to 11000
  141.1773  133.6542  156.4879 LP  0  0  0  0  0  0  0  0  0  0  0  0  # atno 17395 bound_to 11000

$$$$
