AV-unprocessed.smi:72|AV-procd|sdf|729|dock2
  -GOLD-   2262017 53D 1   1.00000     0.00000
 Structure written by MMmdl.
 28 29  0  0  0  0  0  0  0  0  2 V2000
  150.3648  134.1559  156.1925 N   0  0  0  0  0  0  0  0  0  0  0  0
  150.2432  135.3298  155.7488 C   0  0  0  0  0  0  0  0  0  0  0  0
  148.9526  135.9822  155.7726 N   0  0  0  0  0  0  0  0  0  0  0  0
  148.8688  137.1779  155.2754 C   0  0  0  0  0  0  0  0  0  0  0  0
  150.0223  137.8524  154.6883 N   0  0  0  0  0  0  0  0  0  0  0  0
  149.9423  139.2537  154.0994 C   0  0  2  0  0  0  0  0  0  0  0  0
  150.7949  140.1168  154.7977 O   0  0  0  0  0  0  0  0  0  0  0  0
  150.0524  140.8505  155.7674 C   0  0  1  0  0  0  0  0  0  0  0  0
  150.8317  142.0855  156.2523 C   0  0  0  0  0  0  0  0  0  0  0  0
  150.1016  142.7562  157.2576 O   0  0  0  0  0  0  0  0  0  0  0  0
  148.7506  141.1383  155.0137 C   0  0  1  0  0  0  0  0  0  0  0  0
  148.9109  142.2541  154.1518 O   0  0  0  0  0  0  0  0  0  0  0  0
  148.5183  139.8340  154.2512 C   0  0  1  0  0  0  0  0  0  0  0  0
  147.8585  140.0385  153.0155 O   0  0  0  0  0  0  0  0  0  0  0  0
  151.2865  137.2034  154.7254 C   0  0  0  0  0  0  0  0  0  0  0  0
  152.2614  137.8065  154.2761 O   0  0  0  0  0  0  0  0  0  0  0  0
  151.3679  135.9505  155.2536 N   0  5  0  0  0  0  0  0  0  0  0  0
  150.2873  139.1531  153.0688 H   0  0  0  0  0  0  0  0  0  0  0  0
  149.8169  140.2029  156.6142 H   0  0  0  0  0  0  0  0  0  0  0  0
  147.9277  141.3535  155.6959 H   0  0  0  0  0  0  0  0  0  0  0  0
  147.9182  139.1634  154.8684 H   0  0  0  0  0  0  0  0  0  0  0  0
  149.4945  133.7764  156.5353 H   0  0  0  0  0  0  0  0  0  0  0  0
  147.9348  137.7394  155.2712 H   0  0  0  0  0  0  0  0  0  0  0  0
  151.8204  141.8128  156.6225 H   0  0  0  0  0  0  0  0  0  0  0  0
  150.9730  142.7868  155.4294 H   0  0  0  0  0  0  0  0  0  0  0  0
  149.7211  143.5355  156.8825 H   0  0  0  0  0  0  0  0  0  0  0  0
  148.6053  143.0235  154.6081 H   0  0  0  0  0  0  0  0  0  0  0  0
  148.4770  139.8675  152.3205 H   0  0  0  0  0  0  0  0  0  0  0  0
  1  2  2  0  0  0  0
  1 22  1  0  0  0  0
  2 17  1  0  0  0  0
  2  3  1  0  0  0  0
  3  4  2  0  0  0  0
  4  5  1  0  0  0  0
  4 23  1  0  0  0  0
  5  6  1  0  0  0  0
  5 15  1  0  0  0  0
  6 18  1  0  0  0  0
  6 13  1  0  0  0  0
  6  7  1  0  0  0  0
  7  8  1  0  0  0  0
  8 19  1  0  0  0  0
  8  9  1  0  0  0  0
  8 11  1  0  0  0  0
  9 10  1  0  0  0  0
  9 24  1  0  0  0  0
  9 25  1  0  0  0  0
 10 26  1  0  0  0  0
 11 20  1  0  0  0  0
 11 12  1  0  0  0  0
 11 13  1  0  0  0  0
 12 27  1  0  0  0  0
 13 21  1  0  0  0  0
 13 14  1  0  0  0  0
 14 28  1  0  0  0  0
 15 16  2  0  0  0  0
 15 17  1  0  0  0  0
M  CHG  1  17  -1
M  END
> <s_m_source_file>
AV-unprocessed.smi

> <i_m_source_file_index>
72

> <i_lp_mmshare_version>
43012

> <i_f3d_flags>
0

> <s_epik_input>
W05IMl1jMW5bY0hdbihjKD1PKW4xKVtDQEBIXTJPW0NASF0oW0NIMl1bT0hdKVtDQEBIXShbT0hdKVtDQEhdMltPSF0=

> <s_epik_cmdline>
J2VwaWtfcHl0aG9uJywgJy1waCcsICc3LjAnLCAnLXRuJywgJzgnLCAnLW1hJywgJzIwMCcsICctbWV0YWxfYmluZGluZycsICctaW1hZScsICc8aW5maWxlLm1hZT4nLCAnLW9tYWUnLCAnPG91dGZpbGUubWFlPic=

> <r_lp_tautomer_probability>
7.17554e-07

> <r_epik_Ionization_Penalty>
12.8705

> <r_epik_Ionization_Penalty_Charging>
5.64144

> <r_epik_Ionization_Penalty_Neutral>
7.22905

> <r_epik_State_Penalty>
3.30104

> <r_epik_Charging_Adjusted_Penalty>
8.94249

> <i_epik_Tot_Q>
-1

> <i_epik_Tot_abs_Q>
1

> <r_epik_Metal_State_Penalty>
0.529074

> <b_epik_Metal_Only>
1

> <s_epik_Chemistry_Notes>
This compound contains an acetal/aminal-like group ( X-CH(R)-Y where X, Y are N, S, or O) that may be acid/base labile, releasing an aldehyde.

> <s_lp_Force_Field>
OPLS_2005

> <r_lp_Energy>
36.9813

> <b_lp_Chiralities_Consistent>
1

> <s_lp_Variant>
AV-unprocessed.smi:72-67

> <Gold.Version>
5.8.1

> <Gold.Id.Protein>
6NUR|6NUR_protein|mol2

> <Gold.PLP.Fitness>
46.0966

> <Gold.PLP.PLP>
-27.3179

> <Gold.PLP.part.hbond>
-6.9726

> <Gold.PLP.part.metal>
0.0000

> <Gold.PLP.part.buried>
-4.5405

> <Gold.PLP.part.nonpolar>
-16.7131

> <Gold.PLP.part.repulsive>
0.3669

> <Gold.PLP.ligand.clash>
0.0000

> <Gold.PLP.ligand.torsion>
0.0300

> <Gold.PLP.Chemscore.Hbond>
6.2720

> <Gold.PLP.Chemscore.CHOScore>
0.0000

> <Gold.PLP.Chemscore.Metal>
0.0000

> <Gold.Chemscore.Hbonds>
donor molecule, donor type, donor heavy atom, donor atom, acceptor molecule, acceptor atom, score
      L1  H    10    26       P1  8028  1.00
      L1  H    12    27       P1  8028  1.00
      L1  H    14    28       P1  7957  1.00
      P1  H  7989  7998       L1     7  1.00
      P1  H  8011  8017       L1    12  0.27
      P1  H 10752 10765       L1    17  2.00

> <Gold.PLP.Chemscore.Internal.Correction>
0.0226

> <Gold.Rescore>
     Score         DG    S(hbond)    S(metal)    S(lipo)     H(rot)  DE(clash)    DE(int)     intcor
     10.95     -13.67       4.60        0.00      27.20       4.04       1.17       1.55       ----

> <Gold.Chemscore.Fitness>
10.9541

> <Gold.Chemscore.DG>
-13.6716

> <Gold.Chemscore.ZeroCoef>
-5.4800

> <Gold.Chemscore.Hbond>
4.5965

> <Gold.Chemscore.Metal>
0.0000

> <Gold.Chemscore.Lipo>
27.2000

> <Gold.Chemscore.Internal_Hbond>
0.0000

> <Gold.Chemscore.DEClash>
1.1682

> <Gold.Chemscore.DEInternal>
1.5493

> <Gold.Chemscore.Rot>
4.0403

> <Gold.Chemscore.Internal.Correction>
   9.000000E+99

> <Gold.Chemscore.Hbonds>
donor molecule, donor type, donor heavy atom, donor atom, acceptor molecule, acceptor atom, score
      L1  H    10    26       P1  8028  0.99
      L1  H    12    27       P1  8028  0.94
      L1  H    14    28       P1  7957  0.99
      P1  H  7989  7998       L1     7  0.30
      P1  H  8011  8017       L1    12  0.24
      P1  H 10752 10765       L1    17  0.30

> <Gold.Chemscore.Hbond.Weighted>
-15.3523

> <Gold.Chemscore.Metal.Weighted>
-0.0000

> <Gold.Chemscore.Lipo.Weighted>
-3.1824

> <Gold.Chemscore.Internal_Hbond.Weighted>
0.0000

> <Gold.Chemscore.DEClash.Weighted>
1.1682

> <Gold.Chemscore.DEInternal.Weighted>
1.5493

> <Gold.Chemscore.Rot.Weighted>
10.3431

> <Gold.Chemscore.Internal.Correction.Weighted>
   9.000000E+99

> <Gold.Protein.RotatedTorsions>
[ 6907 6896 6895 6894 ] final -127.03 input  -60.11 | X-H torsion
[ 7974 7965 7964 7962 ] final -117.06 input  175.53 | X-H torsion
[ 8008 7997 7996 7995 ] final  -69.85 input   59.86 | X-H torsion
[ 10167 10162 10161 10158 ] final    6.95 input  -65.29 | X-H torsion
[ 10718 10713 10712 10709 ] final   54.61 input   66.30 | X-H torsion
[ 10763 10752 10751 10750 ] final -163.20 input  -60.55 | X-H torsion
[ 11005 11000 10999 10996 ] final   28.97 input  -57.11 | X-H torsion

> <Gold.Protein.ActiveResidues>
 VAL166  LYS551  ARG553  GLY616  TRP617  ASP618  TYR619  PRO620  LYS621  CYS622 
 ASP623  PHE694  ASN695  SER759  ASP760  ASP761  ALA762  ILE779  LEU786  VAL792 
 PHE793  MET794  SER795  GLU796  ALA797  LYS798  CYS799  TRP800  GLU811  SER814 

> <Gold.Protein.RotatedAtoms>
  150.9031  133.7093  159.2873 H   0  0  0  0  0  0  0  0  0  0  0  0  # atno 6907 bound_to 6896
  151.4605  135.1036  159.9733 H   0  0  0  0  0  0  0  0  0  0  0  0  # atno 6908 bound_to 6896
  152.4888  133.8395  159.7200 H   0  0  0  0  0  0  0  0  0  0  0  0  # atno 6909 bound_to 6896
  145.0895  140.8480  143.3991 H   0  0  0  0  0  0  0  0  0  0  0  0  # atno 7974 bound_to 7965
  154.4968  140.0845  156.7714 H   0  0  0  0  0  0  0  0  0  0  0  0  # atno 8008 bound_to 7997
  155.4097  140.3441  155.4244 H   0  0  0  0  0  0  0  0  0  0  0  0  # atno 8009 bound_to 7997
  156.1405  140.1528  156.8916 H   0  0  0  0  0  0  0  0  0  0  0  0  # atno 8010 bound_to 7997
  140.6399  143.7798  150.7413 H   0  0  0  0  0  0  0  0  0  0  0  0  # atno 10167 bound_to 10162
  157.5272  130.8606  149.8638 H   0  0  0  0  0  0  0  0  0  0  0  0  # atno 10718 bound_to 10713
  154.7144  135.3013  154.9146 H   0  0  0  0  0  0  0  0  0  0  0  0  # atno 10763 bound_to 10752
  154.0038  135.6703  153.4765 H   0  0  0  0  0  0  0  0  0  0  0  0  # atno 10764 bound_to 10752
  153.0781  135.5023  154.8362 H   0  0  0  0  0  0  0  0  0  0  0  0  # atno 10765 bound_to 10752
  140.3099  134.2661  155.7736 H   0  0  0  0  0  0  0  0  0  0  0  0  # atno 11005 bound_to 11000
  145.1082  139.2775  143.5651 LP  0  0  0  0  0  0  0  0  0  0  0  0  # atno 17320 bound_to 7965
  146.3531  140.0670  142.8625 LP  0  0  0  0  0  0  0  0  0  0  0  0  # atno 17321 bound_to 7965
  140.1428  143.4426  152.2183 LP  0  0  0  0  0  0  0  0  0  0  0  0  # atno 17342 bound_to 10162
  139.5608  144.7404  151.4159 LP  0  0  0  0  0  0  0  0  0  0  0  0  # atno 17343 bound_to 10162
  156.0396  130.3742  150.1470 LP  0  0  0  0  0  0  0  0  0  0  0  0  # atno 17370 bound_to 10713
  156.9656  130.9818  151.3470 LP  0  0  0  0  0  0  0  0  0  0  0  0  # atno 17371 bound_to 10713
  141.2110  133.7702  156.9893 LP  0  0  0  0  0  0  0  0  0  0  0  0  # atno 17394 bound_to 11000
  140.1033  134.9522  157.1957 LP  0  0  0  0  0  0  0  0  0  0  0  0  # atno 17395 bound_to 11000

$$$$
