AV-unprocessed.smi:2829|AV-procd|sdf|10898|dock4
  -GOLD-   2272015343D 1   1.00000     0.00000
 Structure written by MMmdl.
 50 53  0  0  0  0  0  0  0  0  1 V2000
  151.2113  142.0207  156.8086 C   0  0  0  0  0  0  0  0  0  0  0  0
  150.7256  140.7637  157.5653 C   0  0  0  0  0  0  0  0  0  0  0  0
  151.9492  140.1501  158.2776 C   0  0  0  0  0  0  0  0  0  0  0  0
  149.6863  141.2235  158.6090 C   0  0  0  0  0  0  0  0  0  0  0  0
  150.0932  139.7206  156.6263 C   0  0  0  0  0  0  0  0  0  0  0  0
  150.7718  139.1657  155.5177 C   0  0  0  0  0  0  0  0  0  0  0  0
  150.0851  138.2220  154.7355 C   0  0  0  0  0  0  0  0  0  0  0  0
  148.7661  137.8822  155.0967 C   0  0  0  0  0  0  0  0  0  0  0  0
  148.1350  136.9249  154.2610 N   0  0  0  0  0  0  0  0  0  0  0  0
  146.9704  136.2782  154.4650 C   0  0  0  0  0  0  0  0  0  0  0  0
  146.2595  136.4083  155.4597 O   0  0  0  0  0  0  0  0  0  0  0  0
  146.6234  135.4514  153.4633 N   0  0  0  0  0  0  0  0  0  0  0  0
  145.4224  134.6089  153.3796 C   0  0  2  0  0  0  0  0  0  0  0  0
  145.4650  133.5678  152.2526 C   0  0  2  0  0  0  0  0  0  0  0  0
  146.5360  132.8731  151.4926 C   0  0  0  0  0  0  0  0  0  0  0  0
  145.8435  132.9155  150.1063 C   0  0  0  0  0  0  0  0  0  0  0  0
  144.6821  133.7688  150.2698 O   0  0  0  0  0  0  0  0  0  0  0  0
  145.0461  134.6733  151.2969 C   0  0  1  0  0  0  0  0  0  0  0  0
  144.2765  135.2253  152.5091 C   0  0  0  0  0  0  0  0  0  0  0  0
  142.8003  134.8703  152.7515 C   0  0  0  0  0  0  0  0  0  0  0  0
  142.6185  136.2643  153.3600 C   0  0  0  0  0  0  0  0  0  0  0  0
  143.8838  136.7052  152.6170 C   0  0  0  0  0  0  0  0  0  0  0  0
  148.1749  138.4552  156.1750 N   0  0  0  0  0  0  0  0  0  0  0  0
  148.8225  139.3535  156.9229 N   0  0  0  0  0  0  0  0  0  0  0  0
  151.6567  142.7454  157.4912 H   0  0  0  0  0  0  0  0  0  0  0  0
  150.3905  142.5271  156.2990 H   0  0  0  0  0  0  0  0  0  0  0  0
  151.9708  141.7752  156.0654 H   0  0  0  0  0  0  0  0  0  0  0  0
  152.6972  139.8132  157.5587 H   0  0  0  0  0  0  0  0  0  0  0  0
  151.6736  139.2915  158.8907 H   0  0  0  0  0  0  0  0  0  0  0  0
  152.4301  140.8733  158.9372 H   0  0  0  0  0  0  0  0  0  0  0  0
  150.1007  141.9792  159.2772 H   0  0  0  0  0  0  0  0  0  0  0  0
  149.3447  140.3968  159.2331 H   0  0  0  0  0  0  0  0  0  0  0  0
  148.8083  141.6561  158.1279 H   0  0  0  0  0  0  0  0  0  0  0  0
  151.7824  139.4367  155.2541 H   0  0  0  0  0  0  0  0  0  0  0  0
  150.5638  137.7716  153.8780 H   0  0  0  0  0  0  0  0  0  0  0  0
  148.6156  136.7158  153.3984 H   0  0  0  0  0  0  0  0  0  0  0  0
  147.2522  135.4052  152.6743 H   0  0  0  0  0  0  0  0  0  0  0  0
  145.0754  134.2199  154.3381 H   0  0  0  0  0  0  0  0  0  0  0  0
  144.6490  132.8586  152.4350 H   0  0  0  0  0  0  0  0  0  0  0  0
  147.4749  133.4283  151.4961 H   0  0  0  0  0  0  0  0  0  0  0  0
  146.7161  131.8571  151.8442 H   0  0  0  0  0  0  0  0  0  0  0  0
  146.5136  133.3278  149.3509 H   0  0  0  0  0  0  0  0  0  0  0  0
  145.5284  131.9252  149.7765 H   0  0  0  0  0  0  0  0  0  0  0  0
  145.8649  135.3272  150.9822 H   0  0  0  0  0  0  0  0  0  0  0  0
  142.2413  134.7386  151.8238 H   0  0  0  0  0  0  0  0  0  0  0  0
  142.6316  134.0467  153.4459 H   0  0  0  0  0  0  0  0  0  0  0  0
  141.7073  136.7799  153.0554 H   0  0  0  0  0  0  0  0  0  0  0  0
  142.7442  136.2696  154.4436 H   0  0  0  0  0  0  0  0  0  0  0  0
  144.5601  137.3253  153.2059 H   0  0  0  0  0  0  0  0  0  0  0  0
  143.6666  137.1543  151.6466 H   0  0  0  0  0  0  0  0  0  0  0  0
  1  2  1  0  0  0  0
  1 25  1  0  0  0  0
  1 26  1  0  0  0  0
  1 27  1  0  0  0  0
  2  3  1  0  0  0  0
  2  4  1  0  0  0  0
  2  5  1  0  0  0  0
  3 28  1  0  0  0  0
  3 29  1  0  0  0  0
  3 30  1  0  0  0  0
  4 31  1  0  0  0  0
  4 32  1  0  0  0  0
  4 33  1  0  0  0  0
  5 24  1  0  0  0  0
  5  6  2  0  0  0  0
  6  7  1  0  0  0  0
  6 34  1  0  0  0  0
  7  8  2  0  0  0  0
  7 35  1  0  0  0  0
  8  9  1  0  0  0  0
  8 23  1  0  0  0  0
  9 10  1  0  0  0  0
  9 36  1  0  0  0  0
 10 11  2  0  0  0  0
 10 12  1  0  0  0  0
 12 13  1  0  0  0  0
 12 37  1  0  0  0  0
 13 19  1  0  0  0  0
 13 14  1  0  0  0  0
 13 38  1  0  0  0  0
 14 18  1  0  0  0  0
 14 15  1  0  0  0  0
 14 39  1  0  0  0  0
 15 16  1  0  0  0  0
 15 40  1  0  0  0  0
 15 41  1  0  0  0  0
 16 17  1  0  0  0  0
 16 42  1  0  0  0  0
 16 43  1  0  0  0  0
 17 18  1  0  0  0  0
 18 19  1  0  0  0  0
 18 44  1  0  0  0  0
 19 22  1  0  0  0  0
 19 20  1  0  0  0  0
 20 21  1  0  0  0  0
 20 45  1  0  0  0  0
 20 46  1  0  0  0  0
 21 22  1  0  0  0  0
 21 47  1  0  0  0  0
 21 48  1  0  0  0  0
 22 49  1  0  0  0  0
 22 50  1  0  0  0  0
 23 24  2  0  0  0  0
M  END
> <s_m_source_file>
AV-unprocessed.smi

> <i_m_source_file_index>
2829

> <i_lp_mmshare_version>
43012

> <i_f3d_flags>
0

> <s_epik_input>
W0NIM11DKFtDSDNdKShbQ0gzXSljMVtjSF1bY0hdYyhubjEpW05IXUMoPU8pW05IXVtDQEBIXTJbQ0BIXShbQ0gyXVtDSDJdTzMpW0NAQEhdM0MyNFtDSDJdW0NIMl1bQ0gyXTQ=

> <s_epik_cmdline>
J2VwaWtfcHl0aG9uJywgJy1waCcsICc3LjAnLCAnLXRuJywgJzgnLCAnLW1hJywgJzIwMCcsICctbWV0YWxfYmluZGluZycsICctaW1hZScsICc8aW5maWxlLm1hZT4nLCAnLW9tYWUnLCAnPG91dGZpbGUubWFlPic=

> <r_lp_tautomer_probability>
1

> <r_epik_Ionization_Penalty>
0.011915

> <r_epik_Ionization_Penalty_Charging>
0

> <r_epik_Ionization_Penalty_Neutral>
0.011915

> <r_epik_State_Penalty>
0.00486223

> <r_epik_Charging_Adjusted_Penalty>
0.00486223

> <i_epik_Tot_Q>
0

> <i_epik_Tot_abs_Q>
0

> <r_epik_Metal_State_Penalty>
-0

> <b_epik_Metal_Only>
0

> <s_lp_Force_Field>
OPLS_2005

> <r_lp_Energy>
85.5181

> <b_lp_Chiralities_Consistent>
1

> <s_lp_Variant>
AV-unprocessed.smi:2829-1

> <Gold.Version>
5.8.1

> <Gold.Id.Protein>
6NUR|6NUR_protein|mol2

> <Gold.PLP.Fitness>
37.7007

> <Gold.PLP.PLP>
-32.2278

> <Gold.PLP.part.hbond>
-2.0000

> <Gold.PLP.part.metal>
0.0000

> <Gold.PLP.part.buried>
-5.9185

> <Gold.PLP.part.nonpolar>
-25.2754

> <Gold.PLP.part.repulsive>
0.1786

> <Gold.PLP.ligand.clash>
0.0000

> <Gold.PLP.ligand.torsion>
0.2686

> <Gold.PLP.Chemscore.Hbond>
1.8960

> <Gold.PLP.Chemscore.CHOScore>
0.0000

> <Gold.PLP.Chemscore.Metal>
0.0000

> <Gold.Chemscore.Hbonds>
donor molecule, donor type, donor heavy atom, donor atom, acceptor molecule, acceptor atom, score
      L1  H     9    36       P1  7948  1.00
      L1  H    12    37       P1  7948  0.87

> <Gold.PLP.Chemscore.Internal.Correction>
0.3222

> <Gold.Rescore>
     Score         DG    S(hbond)    S(metal)    S(lipo)     H(rot)  DE(clash)    DE(int)     intcor
     16.85     -18.42       1.88        0.00      82.35       1.16       0.05       1.52       ----

> <Gold.Chemscore.Fitness>
16.8478

> <Gold.Chemscore.DG>
-18.4208

> <Gold.Chemscore.ZeroCoef>
-5.4800

> <Gold.Chemscore.Hbond>
1.8804

> <Gold.Chemscore.Metal>
0.0000

> <Gold.Chemscore.Lipo>
82.3452

> <Gold.Chemscore.Internal_Hbond>
0.0000

> <Gold.Chemscore.DEClash>
0.0542

> <Gold.Chemscore.DEInternal>
1.5188

> <Gold.Chemscore.Rot>
1.1618

> <Gold.Chemscore.Internal.Correction>
   9.000000E+99

> <Gold.Chemscore.Hbonds>
donor molecule, donor type, donor heavy atom, donor atom, acceptor molecule, acceptor atom, score
      L1  H     9    36       P1  7948  0.99
      L1  H    12    37       P1  7948  0.81

> <Gold.Chemscore.Hbond.Weighted>
-6.2805

> <Gold.Chemscore.Metal.Weighted>
-0.0000

> <Gold.Chemscore.Lipo.Weighted>
-9.6344

> <Gold.Chemscore.Internal_Hbond.Weighted>
0.0000

> <Gold.Chemscore.DEClash.Weighted>
0.0542

> <Gold.Chemscore.DEInternal.Weighted>
1.5188

> <Gold.Chemscore.Rot.Weighted>
2.9741

> <Gold.Chemscore.Internal.Correction.Weighted>
   9.000000E+99

> <Gold.Protein.RotatedTorsions>
[ 6907 6896 6895 6894 ] final  121.98 input  -60.11 | X-H torsion
[ 7974 7965 7964 7962 ] final  -11.98 input  175.53 | X-H torsion
[ 8008 7997 7996 7995 ] final  -35.77 input   59.86 | X-H torsion
[ 10167 10162 10161 10158 ] final  141.10 input  -65.29 | X-H torsion
[ 10718 10713 10712 10709 ] final -159.02 input   66.30 | X-H torsion
[ 10763 10752 10751 10750 ] final  -85.94 input  -60.55 | X-H torsion
[ 11005 11000 10999 10996 ] final  166.46 input  -57.11 | X-H torsion

> <Gold.Protein.ActiveResidues>
 VAL166  LYS551  ARG553  GLY616  TRP617  ASP618  TYR619  PRO620  LYS621  CYS622 
 ASP623  PHE694  ASN695  SER759  ASP760  ASP761  ALA762  ILE779  LEU786  VAL792 
 PHE793  MET794  SER795  GLU796  ALA797  LYS798  CYS799  TRP800  GLU811  SER814 

> <Gold.Protein.RotatedAtoms>
  152.4279  133.7226  159.6541 H   0  0  0  0  0  0  0  0  0  0  0  0  # atno 6907 bound_to 6896
  150.8156  133.8332  159.3168 H   0  0  0  0  0  0  0  0  0  0  0  0  # atno 6908 bound_to 6896
  151.6029  135.1048  160.0116 H   0  0  0  0  0  0  0  0  0  0  0  0  # atno 6909 bound_to 6896
  146.2168  140.2991  142.8374 H   0  0  0  0  0  0  0  0  0  0  0  0  # atno 7974 bound_to 7965
  154.4088  140.1648  156.2265 H   0  0  0  0  0  0  0  0  0  0  0  0  # atno 8008 bound_to 7997
  155.9319  140.3414  155.6233 H   0  0  0  0  0  0  0  0  0  0  0  0  # atno 8009 bound_to 7997
  155.7096  140.0755  157.2367 H   0  0  0  0  0  0  0  0  0  0  0  0  # atno 8010 bound_to 7997
  139.5030  144.6193  151.6090 H   0  0  0  0  0  0  0  0  0  0  0  0  # atno 10167 bound_to 10162
  156.5622  130.8652  151.2813 H   0  0  0  0  0  0  0  0  0  0  0  0  # atno 10718 bound_to 10713
  154.6168  135.5467  153.7532 H   0  0  0  0  0  0  0  0  0  0  0  0  # atno 10763 bound_to 10752
  153.0220  135.6403  154.1498 H   0  0  0  0  0  0  0  0  0  0  0  0  # atno 10764 bound_to 10752
  154.1434  135.2907  155.3134 H   0  0  0  0  0  0  0  0  0  0  0  0  # atno 10765 bound_to 10752
  140.2666  134.7860  157.3638 H   0  0  0  0  0  0  0  0  0  0  0  0  # atno 11005 bound_to 11000
  144.9071  140.7712  143.5831 LP  0  0  0  0  0  0  0  0  0  0  0  0  # atno 17320 bound_to 7965
  145.2919  139.1880  143.4735 LP  0  0  0  0  0  0  0  0  0  0  0  0  # atno 17321 bound_to 7965
  140.5890  143.9813  150.6313 LP  0  0  0  0  0  0  0  0  0  0  0  0  # atno 17342 bound_to 10162
  140.2987  143.3275  152.0992 LP  0  0  0  0  0  0  0  0  0  0  0  0  # atno 17343 bound_to 10162
  157.7366  130.9781  150.2146 LP  0  0  0  0  0  0  0  0  0  0  0  0  # atno 17370 bound_to 10713
  156.2789  130.3731  149.7956 LP  0  0  0  0  0  0  0  0  0  0  0  0  # atno 17371 bound_to 10713
  140.1413  134.4968  155.8029 LP  0  0  0  0  0  0  0  0  0  0  0  0  # atno 17394 bound_to 11000
  141.2183  133.6826  156.7215 LP  0  0  0  0  0  0  0  0  0  0  0  0  # atno 17395 bound_to 11000

$$$$
