AV-unprocessed.smi:3161|AV-procd|sdf|12058|dock9
  -GOLD-   2272017483D 1   1.00000     0.00000
 Structure written by MMmdl.
 41 42  0  0  0  0  0  0  0  0  2 V2000
  151.4034  136.0139  155.1196 C   0  0  0  0  0  0  0  0  0  0  0  0
  151.2802  137.5075  155.2155 C   0  0  0  0  0  0  0  0  0  0  0  0
  150.9172  138.4237  154.1875 C   0  0  0  0  0  0  0  0  0  0  0  0
  150.9040  139.6809  154.6002 N   0  0  0  0  0  0  0  0  0  0  0  0
  151.2506  139.6115  155.9028 N   0  0  0  0  0  0  0  0  0  0  0  0
  151.3475  140.8287  156.6879 C   0  0  0  0  0  0  0  0  0  0  0  0
  150.7899  142.0712  155.9539 C   0  0  1  0  0  0  0  0  0  0  0  0
  149.3673  141.8480  155.4125 C   0  0  0  0  0  0  0  0  0  0  0  0
  150.7947  143.2605  156.8348 N   0  3  0  0  0  0  0  0  0  0  0  0
  152.0531  144.0366  156.8510 C   0  0  0  0  0  0  0  0  0  0  0  0
  152.3987  144.4912  158.2762 C   0  0  1  0  0  0  0  0  0  0  0  0
  151.2876  145.3687  158.8847 C   0  0  0  0  0  0  0  0  0  0  0  0
  151.6216  145.7314  160.3363 C   0  0  0  0  0  0  0  0  0  0  0  0
  151.9178  144.4562  161.1322 C   0  0  0  0  0  0  0  0  0  0  0  0
  152.9842  143.6137  160.4146 C   0  0  0  0  0  0  0  0  0  0  0  0
  152.5634  143.3267  159.0837 O   0  0  0  0  0  0  0  0  0  0  0  0
  151.4904  138.3127  156.2989 C   0  0  0  0  0  0  0  0  0  0  0  0
  150.8426  135.6145  154.2743 H   0  0  0  0  0  0  0  0  0  0  0  0
  151.0269  135.5197  156.0155 H   0  0  0  0  0  0  0  0  0  0  0  0
  152.4408  135.7042  154.9925 H   0  0  0  0  0  0  0  0  0  0  0  0
  150.6657  138.2134  153.1583 H   0  0  0  0  0  0  0  0  0  0  0  0
  150.8099  140.6741  157.6244 H   0  0  0  0  0  0  0  0  0  0  0  0
  152.3963  140.9685  156.9498 H   0  0  0  0  0  0  0  0  0  0  0  0
  151.4295  142.2916  155.0976 H   0  0  0  0  0  0  0  0  0  0  0  0
  149.3383  141.0461  154.6743 H   0  0  0  0  0  0  0  0  0  0  0  0
  148.9890  142.7460  154.9230 H   0  0  0  0  0  0  0  0  0  0  0  0
  148.6744  141.5882  156.2134 H   0  0  0  0  0  0  0  0  0  0  0  0
  150.0707  143.8834  156.5051 H   0  0  0  0  0  0  0  0  0  0  0  0
  152.8615  143.4169  156.4631 H   0  0  0  0  0  0  0  0  0  0  0  0
  151.9653  144.9022  156.1928 H   0  0  0  0  0  0  0  0  0  0  0  0
  153.3335  145.0546  158.2542 H   0  0  0  0  0  0  0  0  0  0  0  0
  151.1560  146.2771  158.2958 H   0  0  0  0  0  0  0  0  0  0  0  0
  150.3366  144.8349  158.8530 H   0  0  0  0  0  0  0  0  0  0  0  0
  152.4910  146.3896  160.3600 H   0  0  0  0  0  0  0  0  0  0  0  0
  150.7981  146.2822  160.7916 H   0  0  0  0  0  0  0  0  0  0  0  0
  152.2498  144.7085  162.1398 H   0  0  0  0  0  0  0  0  0  0  0  0
  151.0037  143.8709  161.2410 H   0  0  0  0  0  0  0  0  0  0  0  0
  153.9447  144.1310  160.4004 H   0  0  0  0  0  0  0  0  0  0  0  0
  153.1377  142.6741  160.9458 H   0  0  0  0  0  0  0  0  0  0  0  0
  151.7856  138.0699  157.3093 H   0  0  0  0  0  0  0  0  0  0  0  0
  150.5649  142.9753  157.7760 H   0  0  0  0  0  0  0  0  0  0  0  0
  1  2  1  0  0  0  0
  1 18  1  0  0  0  0
  1 19  1  0  0  0  0
  1 20  1  0  0  0  0
  2 17  2  0  0  0  0
  2  3  1  0  0  0  0
  3  4  2  0  0  0  0
  3 21  1  0  0  0  0
  4  5  1  0  0  0  0
  5  6  1  0  0  0  0
  5 17  1  0  0  0  0
  6  7  1  0  0  0  0
  6 22  1  0  0  0  0
  6 23  1  0  0  0  0
  7  8  1  0  0  0  0
  7  9  1  0  0  0  0
  7 24  1  0  0  0  0
  8 25  1  0  0  0  0
  8 26  1  0  0  0  0
  8 27  1  0  0  0  0
  9 10  1  0  0  0  0
  9 28  1  0  0  0  0
  9 41  1  0  0  0  0
 10 11  1  0  0  0  0
 10 29  1  0  0  0  0
 10 30  1  0  0  0  0
 11 16  1  0  0  0  0
 11 12  1  0  0  0  0
 11 31  1  0  0  0  0
 12 13  1  0  0  0  0
 12 32  1  0  0  0  0
 12 33  1  0  0  0  0
 13 14  1  0  0  0  0
 13 34  1  0  0  0  0
 13 35  1  0  0  0  0
 14 15  1  0  0  0  0
 14 36  1  0  0  0  0
 14 37  1  0  0  0  0
 15 16  1  0  0  0  0
 15 38  1  0  0  0  0
 15 39  1  0  0  0  0
 17 40  1  0  0  0  0
M  CHG  1   9   1
M  END
> <s_m_source_file>
AV-unprocessed.smi

> <i_m_source_file_index>
3161

> <i_lp_mmshare_version>
43012

> <i_f3d_flags>
0

> <s_epik_input>
W0NIM11jMVtjSF1ubihbY0hdMSlbQ0gyXVtDQEhdKFtDSDNdKVtOSF1bQ0gyXVtDQEBIXTJbQ0gyXVtDSDJdW0NIMl1bQ0gyXU8y

> <s_epik_cmdline>
J2VwaWtfcHl0aG9uJywgJy1waCcsICc3LjAnLCAnLXRuJywgJzgnLCAnLW1hJywgJzIwMCcsICctbWV0YWxfYmluZGluZycsICctaW1hZScsICc8aW5maWxlLm1hZT4nLCAnLW9tYWUnLCAnPG91dGZpbGUubWFlPic=

> <r_lp_tautomer_probability>
1

> <r_epik_Ionization_Penalty>
0.00849661

> <r_epik_Ionization_Penalty_Charging>
0.00848754

> <r_epik_Ionization_Penalty_Neutral>
9.06711e-06

> <r_epik_State_Penalty>
0.00639836

> <r_epik_Charging_Adjusted_Penalty>
0.0148859

> <i_epik_Tot_Q>
1

> <i_epik_Tot_abs_Q>
1

> <r_epik_Metal_State_Penalty>
0.00639921

> <b_epik_Metal_Only>
0

> <s_lp_Force_Field>
OPLS_2005

> <r_lp_Energy>
12.4103

> <b_lp_Chiralities_Consistent>
1

> <s_lp_Variant>
AV-unprocessed.smi:3161-4

> <Gold.Version>
5.8.1

> <Gold.Id.Protein>
6NUR|6NUR_protein|mol2

> <Gold.PLP.Fitness>
51.7817

> <Gold.PLP.PLP>
-38.3051

> <Gold.PLP.part.hbond>
-2.0000

> <Gold.PLP.part.metal>
0.0000

> <Gold.PLP.part.buried>
-3.6801

> <Gold.PLP.part.nonpolar>
-32.6934

> <Gold.PLP.part.repulsive>
0.1594

> <Gold.PLP.ligand.clash>
0.0000

> <Gold.PLP.ligand.torsion>
0.7583

> <Gold.PLP.Chemscore.Hbond>
3.0000

> <Gold.PLP.Chemscore.CHOScore>
1.9869

> <Gold.PLP.Chemscore.Metal>
0.0000

> <Gold.Chemscore.Hbonds>
donor molecule, donor type, donor heavy atom, donor atom, acceptor molecule, acceptor atom, score
      L1  H     9    28       P1  8028  2.00
      P1  H  7989  7998       L1     4  1.00
      L1  C     3    21       P1  7948  0.11
      L1  C     3    21       P1  7949  0.21
      L1  C     3    21       P1  7957  0.11

> <Gold.PLP.Chemscore.Internal.Correction>
0.0325

> <Gold.Rescore>
     Score         DG    S(hbond)    S(metal)    S(lipo)     H(rot)  DE(clash)    DE(int)     intcor
     18.25     -22.24       1.95        0.00     122.03       1.57       1.80       2.18       ----

> <Gold.Chemscore.Fitness>
18.2514

> <Gold.Chemscore.DG>
-22.2358

> <Gold.Chemscore.ZeroCoef>
-5.4800

> <Gold.Chemscore.Hbond>
1.9465

> <Gold.Chemscore.Metal>
0.0000

> <Gold.Chemscore.Lipo>
122.0301

> <Gold.Chemscore.Internal_Hbond>
0.0000

> <Gold.Chemscore.DEClash>
1.8049

> <Gold.Chemscore.DEInternal>
2.1796

> <Gold.Chemscore.Rot>
1.5714

> <Gold.Chemscore.Internal.Correction>
   9.000000E+99

> <Gold.Chemscore.Hbonds>
donor molecule, donor type, donor heavy atom, donor atom, acceptor molecule, acceptor atom, score
      L1  H     9    28       P1  8028  1.00
      P1  H  7989  7998       L1     4  0.92

> <Gold.Chemscore.Hbond.Weighted>
-6.5012

> <Gold.Chemscore.Metal.Weighted>
-0.0000

> <Gold.Chemscore.Lipo.Weighted>
-14.2775

> <Gold.Chemscore.Internal_Hbond.Weighted>
0.0000

> <Gold.Chemscore.DEClash.Weighted>
1.8049

> <Gold.Chemscore.DEInternal.Weighted>
2.1796

> <Gold.Chemscore.Rot.Weighted>
4.0228

> <Gold.Chemscore.Internal.Correction.Weighted>
   9.000000E+99

> <Gold.Protein.RotatedTorsions>
[ 6907 6896 6895 6894 ] final   15.32 input  -60.11 | X-H torsion
[ 7974 7965 7964 7962 ] final   87.47 input  175.53 | X-H torsion
[ 8008 7997 7996 7995 ] final  -55.68 input   59.86 | X-H torsion
[ 10167 10162 10161 10158 ] final  -50.97 input  -65.29 | X-H torsion
[ 10718 10713 10712 10709 ] final   27.12 input   66.30 | X-H torsion
[ 10763 10752 10751 10750 ] final -158.98 input  -60.55 | X-H torsion
[ 11005 11000 10999 10996 ] final   69.89 input  -57.11 | X-H torsion

> <Gold.Protein.ActiveResidues>
 VAL166  LYS551  ARG553  GLY616  TRP617  ASP618  TYR619  PRO620  LYS621  CYS622 
 ASP623  PHE694  ASN695  SER759  ASP760  ASP761  ALA762  ILE779  LEU786  VAL792 
 PHE793  MET794  SER795  GLU796  ALA797  LYS798  CYS799  TRP800  GLU811  SER814 

> <Gold.Protein.RotatedAtoms>
  151.8162  135.0666  160.0418 H   0  0  0  0  0  0  0  0  0  0  0  0  # atno 6907 bound_to 6896
  152.2985  133.5627  159.5611 H   0  0  0  0  0  0  0  0  0  0  0  0  # atno 6908 bound_to 6896
  150.7262  134.0242  159.3754 H   0  0  0  0  0  0  0  0  0  0  0  0  # atno 6909 bound_to 6896
  145.5585  139.2302  143.2472 H   0  0  0  0  0  0  0  0  0  0  0  0  # atno 7974 bound_to 7965
  154.4203  140.1147  156.5515 H   0  0  0  0  0  0  0  0  0  0  0  0  # atno 8008 bound_to 7997
  155.6405  140.3496  155.4694 H   0  0  0  0  0  0  0  0  0  0  0  0  # atno 8009 bound_to 7997
  155.9875  140.1172  157.0659 H   0  0  0  0  0  0  0  0  0  0  0  0  # atno 8010 bound_to 7997
  140.6611  143.2637  151.4437 H   0  0  0  0  0  0  0  0  0  0  0  0  # atno 10167 bound_to 10162
  157.2159  130.6956  149.6249 H   0  0  0  0  0  0  0  0  0  0  0  0  # atno 10718 bound_to 10713
  154.7512  135.3093  154.8553 H   0  0  0  0  0  0  0  0  0  0  0  0  # atno 10763 bound_to 10752
  153.9340  135.6782  153.4749 H   0  0  0  0  0  0  0  0  0  0  0  0  # atno 10764 bound_to 10752
  153.1109  135.4867  154.8961 H   0  0  0  0  0  0  0  0  0  0  0  0  # atno 10765 bound_to 10752
  139.9628  134.7031  156.0609 H   0  0  0  0  0  0  0  0  0  0  0  0  # atno 11005 bound_to 11000
  146.1867  140.6410  142.9164 LP  0  0  0  0  0  0  0  0  0  0  0  0  # atno 17320 bound_to 7965
  144.7494  140.5153  143.6812 LP  0  0  0  0  0  0  0  0  0  0  0  0  # atno 17321 bound_to 7965
  139.5846  144.1634  152.2012 LP  0  0  0  0  0  0  0  0  0  0  0  0  # atno 17342 bound_to 10162
  140.0970  144.5572  150.7015 LP  0  0  0  0  0  0  0  0  0  0  0  0  # atno 17343 bound_to 10162
  155.9686  130.4536  150.5817 LP  0  0  0  0  0  0  0  0  0  0  0  0  # atno 17370 bound_to 10713
  157.3625  131.0752  151.1625 LP  0  0  0  0  0  0  0  0  0  0  0  0  # atno 17371 bound_to 10713
  141.1306  133.6587  156.3455 LP  0  0  0  0  0  0  0  0  0  0  0  0  # atno 17394 bound_to 11000
  140.5462  134.6072  157.5394 LP  0  0  0  0  0  0  0  0  0  0  0  0  # atno 17395 bound_to 11000

$$$$
