AV-unprocessed.smi:599|AV-procd|sdf|3029|dock1
  -GOLD-   2262023543D 1   1.00000     0.00000
 Structure written by MMmdl.
 36 37  0  0  0  0  0  0  0  0  1 V2000
  152.4046  140.7000  156.5322 N   0  0  0  0  0  0  0  0  0  0  0  0
  151.8377  141.6090  156.9695 C   0  0  0  0  0  0  0  0  0  0  0  0
  151.1137  142.7680  157.5274 C   0  0  0  0  0  0  0  0  0  0  0  0
  149.7295  142.8237  157.0577 N   0  0  0  0  0  0  0  0  0  0  0  0
  148.9116  141.7723  156.8925 C   0  0  0  0  0  0  0  0  0  0  0  0
  149.2459  140.6131  157.1383 O   0  0  0  0  0  0  0  0  0  0  0  0
  147.4968  142.0895  156.3891 C   0  0  0  0  0  0  0  0  0  0  0  0
  146.4566  141.8422  157.4015 N   0  0  0  0  0  0  0  0  0  0  0  0
  146.3711  142.7538  158.4723 C   0  0  0  0  0  0  0  0  0  0  0  0
  145.4580  142.6447  159.4565 C   0  0  0  0  0  0  0  0  0  0  0  0
  145.4301  143.6070  160.6337 C   0  0  0  0  0  0  0  0  0  0  0  0
  144.5038  143.2495  161.5233 F   0  0  0  0  0  0  0  0  0  0  0  0
  146.6111  143.6481  161.2519 F   0  0  0  0  0  0  0  0  0  0  0  0
  145.1425  144.8357  160.2068 F   0  0  0  0  0  0  0  0  0  0  0  0
  144.5636  141.5060  159.3833 C   0  0  0  0  0  0  0  0  0  0  0  0
  144.6414  140.6171  158.3739 C   0  0  0  0  0  0  0  0  0  0  0  0
  145.6302  140.7580  157.3028 C   0  0  0  0  0  0  0  0  0  0  0  0
  145.7113  139.9525  156.3750 O   0  0  0  0  0  0  0  0  0  0  0  0
  151.1308  142.7042  159.0605 C   0  0  0  0  0  0  0  0  0  0  0  0
  152.4981  143.2552  159.4625 C   0  0  0  0  0  0  0  0  0  0  0  0
  152.8250  144.3233  158.4152 C   0  0  0  0  0  0  0  0  0  0  0  0
  151.8702  144.0813  157.2362 C   0  0  0  0  0  0  0  0  0  0  0  0
  149.3661  143.7395  156.8370 H   0  0  0  0  0  0  0  0  0  0  0  0
  147.4778  143.1310  156.0657 H   0  0  0  0  0  0  0  0  0  0  0  0
  147.2882  141.5081  155.4887 H   0  0  0  0  0  0  0  0  0  0  0  0
  147.1069  143.5446  158.4484 H   0  0  0  0  0  0  0  0  0  0  0  0
  143.8155  141.3642  160.1494 H   0  0  0  0  0  0  0  0  0  0  0  0
  143.9577  139.7810  158.3513 H   0  0  0  0  0  0  0  0  0  0  0  0
  150.3539  143.3486  159.4760 H   0  0  0  0  0  0  0  0  0  0  0  0
  150.9589  141.6976  159.4438 H   0  0  0  0  0  0  0  0  0  0  0  0
  152.5063  143.6499  160.4789 H   0  0  0  0  0  0  0  0  0  0  0  0
  153.2405  142.4576  159.4134 H   0  0  0  0  0  0  0  0  0  0  0  0
  152.6718  145.3234  158.8224 H   0  0  0  0  0  0  0  0  0  0  0  0
  153.8683  144.2542  158.1054 H   0  0  0  0  0  0  0  0  0  0  0  0
  152.4007  144.0449  156.2837 H   0  0  0  0  0  0  0  0  0  0  0  0
  151.1723  144.9183  157.1768 H   0  0  0  0  0  0  0  0  0  0  0  0
  1  2  3  0  0  0  0
  2  3  1  0  0  0  0
  3 22  1  0  0  0  0
  3  4  1  0  0  0  0
  3 19  1  0  0  0  0
  4  5  1  0  0  0  0
  4 23  1  0  0  0  0
  5  6  2  0  0  0  0
  5  7  1  0  0  0  0
  7  8  1  0  0  0  0
  7 24  1  0  0  0  0
  7 25  1  0  0  0  0
  8 17  1  0  0  0  0
  8  9  1  0  0  0  0
  9 10  2  0  0  0  0
  9 26  1  0  0  0  0
 10 11  1  0  0  0  0
 10 15  1  0  0  0  0
 11 12  1  0  0  0  0
 11 13  1  0  0  0  0
 11 14  1  0  0  0  0
 15 16  2  0  0  0  0
 15 27  1  0  0  0  0
 16 17  1  0  0  0  0
 16 28  1  0  0  0  0
 17 18  2  0  0  0  0
 19 20  1  0  0  0  0
 19 29  1  0  0  0  0
 19 30  1  0  0  0  0
 20 21  1  0  0  0  0
 20 31  1  0  0  0  0
 20 32  1  0  0  0  0
 21 22  1  0  0  0  0
 21 33  1  0  0  0  0
 21 34  1  0  0  0  0
 22 35  1  0  0  0  0
 22 36  1  0  0  0  0
M  END
> <s_m_source_file>
AV-unprocessed.smi

> <i_m_source_file_index>
599

> <i_lp_mmshare_version>
43012

> <i_f3d_flags>
0

> <s_epik_input>
W0NIMl0xW0NIMl1bQ0gyXVtDSDJdQzEoQyNOKVtOSF1DKD1PKVtDSDJdbjJbY0hdYyhDKEYpKEYpRilbY0hdW2NIXWMyPU8=

> <s_epik_cmdline>
J2VwaWtfcHl0aG9uJywgJy1waCcsICc3LjAnLCAnLXRuJywgJzgnLCAnLW1hJywgJzIwMCcsICctbWV0YWxfYmluZGluZycsICctaW1hZScsICc8aW5maWxlLm1hZT4nLCAnLW9tYWUnLCAnPG91dGZpbGUubWFlPic=

> <r_lp_tautomer_probability>
1

> <r_epik_Ionization_Penalty>
4.74739e-07

> <r_epik_Ionization_Penalty_Charging>
1.48482e-08

> <r_epik_Ionization_Penalty_Neutral>
4.59891e-07

> <r_epik_State_Penalty>
-0

> <r_epik_Charging_Adjusted_Penalty>
1.48482e-08

> <i_epik_Tot_Q>
0

> <i_epik_Tot_abs_Q>
0

> <r_epik_Metal_State_Penalty>
-0

> <b_epik_Metal_Only>
0

> <s_lp_Force_Field>
OPLS_2005

> <r_lp_Energy>
29.4695

> <b_lp_Chiralities_Consistent>
1

> <s_lp_Variant>
AV-unprocessed.smi:599-1

> <Gold.Version>
5.8.1

> <Gold.Id.Protein>
6NUR|6NUR_protein|mol2

> <Gold.PLP.Fitness>
40.1956

> <Gold.PLP.PLP>
-34.6075

> <Gold.PLP.part.hbond>
-2.0000

> <Gold.PLP.part.metal>
0.0000

> <Gold.PLP.part.buried>
-3.1704

> <Gold.PLP.part.nonpolar>
-28.0488

> <Gold.PLP.part.repulsive>
0.0356

> <Gold.PLP.ligand.clash>
0.0000

> <Gold.PLP.ligand.torsion>
0.6544

> <Gold.PLP.Chemscore.Hbond>
1.6965

> <Gold.PLP.Chemscore.CHOScore>
0.5757

> <Gold.PLP.Chemscore.Metal>
0.0000

> <Gold.Chemscore.Hbonds>
donor molecule, donor type, donor heavy atom, donor atom, acceptor molecule, acceptor atom, score
      L1  H     4    23       P1  8028  0.93
      P1  H  7997  8008       L1     1  0.76
      L1  C     9    26       P1  8029  0.40

> <Gold.PLP.Chemscore.Internal.Correction>
0.0802

> <Gold.Rescore>
     Score         DG    S(hbond)    S(metal)    S(lipo)     H(rot)  DE(clash)    DE(int)     intcor
     13.61     -15.60       1.81        0.00      71.10       1.66       0.29       1.70       ----

> <Gold.Chemscore.Fitness>
13.6068

> <Gold.Chemscore.DG>
-15.5961

> <Gold.Chemscore.ZeroCoef>
-5.4800

> <Gold.Chemscore.Hbond>
1.8103

> <Gold.Chemscore.Metal>
0.0000

> <Gold.Chemscore.Lipo>
71.1030

> <Gold.Chemscore.Internal_Hbond>
0.0000

> <Gold.Chemscore.DEClash>
0.2925

> <Gold.Chemscore.DEInternal>
1.6968

> <Gold.Chemscore.Rot>
1.6599

> <Gold.Chemscore.Internal.Correction>
   9.000000E+99

> <Gold.Chemscore.Hbonds>
donor molecule, donor type, donor heavy atom, donor atom, acceptor molecule, acceptor atom, score
      L1  H     4    23       P1  8028  0.79
      P1  H  7997  8008       L1     1  0.70

> <Gold.Chemscore.Hbond.Weighted>
-6.0463

> <Gold.Chemscore.Metal.Weighted>
-0.0000

> <Gold.Chemscore.Lipo.Weighted>
-8.3190

> <Gold.Chemscore.Internal_Hbond.Weighted>
0.0000

> <Gold.Chemscore.DEClash.Weighted>
0.2925

> <Gold.Chemscore.DEInternal.Weighted>
1.6968

> <Gold.Chemscore.Rot.Weighted>
4.2492

> <Gold.Chemscore.Internal.Correction.Weighted>
   9.000000E+99

> <Gold.Protein.RotatedTorsions>
[ 6907 6896 6895 6894 ] final -161.80 input  -60.11 | X-H torsion
[ 7974 7965 7964 7962 ] final    4.67 input  175.53 | X-H torsion
[ 8008 7997 7996 7995 ] final  -56.60 input   59.86 | X-H torsion
[ 10167 10162 10161 10158 ] final  100.41 input  -65.29 | X-H torsion
[ 10718 10713 10712 10709 ] final -140.47 input   66.30 | X-H torsion
[ 10763 10752 10751 10750 ] final   28.31 input  -60.55 | X-H torsion
[ 11005 11000 10999 10996 ] final   66.34 input  -57.11 | X-H torsion

> <Gold.Protein.ActiveResidues>
 VAL166  LYS551  ARG553  GLY616  TRP617  ASP618  TYR619  PRO620  LYS621  CYS622 
 ASP623  PHE694  ASN695  SER759  ASP760  ASP761  ALA762  ILE779  LEU786  VAL792 
 PHE793  MET794  SER795  GLU796  ALA797  LYS798  CYS799  TRP800  GLU811  SER814 

> <Gold.Protein.RotatedAtoms>
  151.3704  133.3857  159.2698 H   0  0  0  0  0  0  0  0  0  0  0  0  # atno 6907 bound_to 6896
  150.9655  134.9038  159.7767 H   0  0  0  0  0  0  0  0  0  0  0  0  # atno 6908 bound_to 6896
  152.5165  134.3664  159.9355 H   0  0  0  0  0  0  0  0  0  0  0  0  # atno 6909 bound_to 6896
  146.2443  140.0500  142.8376 H   0  0  0  0  0  0  0  0  0  0  0  0  # atno 7974 bound_to 7965
  154.4236  140.1126  156.5663 H   0  0  0  0  0  0  0  0  0  0  0  0  # atno 8008 bound_to 7997
  155.6258  140.3495  155.4648 H   0  0  0  0  0  0  0  0  0  0  0  0  # atno 8009 bound_to 7997
  155.9987  140.1194  157.0558 H   0  0  0  0  0  0  0  0  0  0  0  0  # atno 8010 bound_to 7997
  139.7530  144.6978  151.0404 H   0  0  0  0  0  0  0  0  0  0  0  0  # atno 10167 bound_to 10162
  156.3227  130.7543  151.1644 H   0  0  0  0  0  0  0  0  0  0  0  0  # atno 10718 bound_to 10713
  153.0500  135.6516  154.0718 H   0  0  0  0  0  0  0  0  0  0  0  0  # atno 10763 bound_to 10752
  154.0408  135.2903  155.3357 H   0  0  0  0  0  0  0  0  0  0  0  0  # atno 10764 bound_to 10752
  154.6782  135.5330  153.8295 H   0  0  0  0  0  0  0  0  0  0  0  0  # atno 10765 bound_to 10752
  139.9838  134.6701  156.0213 H   0  0  0  0  0  0  0  0  0  0  0  0  # atno 11005 bound_to 11000
  145.0993  140.9335  143.4722 LP  0  0  0  0  0  0  0  0  0  0  0  0  # atno 17320 bound_to 7965
  145.0689  139.3047  143.5842 LP  0  0  0  0  0  0  0  0  0  0  0  0  # atno 17321 bound_to 7965
  140.7800  143.4787  151.0048 LP  0  0  0  0  0  0  0  0  0  0  0  0  # atno 17342 bound_to 10162
  139.8474  143.7483  152.3179 LP  0  0  0  0  0  0  0  0  0  0  0  0  # atno 17343 bound_to 10162
  157.7415  131.0503  150.5093 LP  0  0  0  0  0  0  0  0  0  0  0  0  # atno 17370 bound_to 10713
  156.5247  130.4170  149.6232 LP  0  0  0  0  0  0  0  0  0  0  0  0  # atno 17371 bound_to 10713
  141.1506  133.6549  156.4002 LP  0  0  0  0  0  0  0  0  0  0  0  0  # atno 17394 bound_to 11000
  140.5043  134.6456  157.5260 LP  0  0  0  0  0  0  0  0  0  0  0  0  # atno 17395 bound_to 11000

$$$$
