AV-unprocessed.smi:2837|AV-procd|sdf|10927|dock7
  -GOLD-   2272015373D 1   1.00000     0.00000
 Structure written by MMmdl.
 33 35  0  0  0  0  0  0  0  0  2 V2000
  151.7769  139.2985  155.8124 F   0  0  0  0  0  0  0  0  0  0  0  0
  150.9006  140.2751  156.1530 C   0  0  0  0  0  0  0  0  0  0  0  0
  151.5730  141.1841  156.8990 F   0  0  0  0  0  0  0  0  0  0  0  0
  150.4017  140.8749  155.0394 O   0  0  0  0  0  0  0  0  0  0  0  0
  149.3034  140.3315  154.4119 C   0  0  0  0  0  0  0  0  0  0  0  0
  148.1933  141.1664  154.1667 C   0  0  0  0  0  0  0  0  0  0  0  0
  147.0558  140.6511  153.5119 C   0  0  0  0  0  0  0  0  0  0  0  0
  147.0451  139.2975  153.0996 C   0  0  0  0  0  0  0  0  0  0  0  0
  145.9757  138.6767  152.4394 N   0  0  0  0  0  0  0  0  0  0  0  0
  146.0377  137.2750  152.0448 C   0  0  1  0  0  0  0  0  0  0  0  0
  146.0230  136.3098  153.2383 C   0  0  0  0  0  0  0  0  0  0  0  0
  144.8154  135.4217  152.9139 C   0  0  2  0  0  0  0  0  0  0  0  0
  145.0685  134.5148  151.7018 C   0  0  0  0  0  0  0  0  0  0  0  0
  145.0051  135.5129  150.5462 C   0  0  0  0  0  0  0  0  0  0  0  0
  144.7736  136.8380  151.2852 C   0  0  1  0  0  0  0  0  0  0  0  0
  143.9473  136.3855  152.3457 O   0  0  0  0  0  0  0  0  0  0  0  0
  148.1311  138.5321  153.3449 N   0  3  0  0  0  0  0  0  0  0  0  0
  149.2390  138.9881  153.9693 C   0  0  0  0  0  0  0  0  0  0  0  0
  150.1086  139.8553  156.7737 H   0  0  0  0  0  0  0  0  0  0  0  0
  148.2132  142.1993  154.4818 H   0  0  0  0  0  0  0  0  0  0  0  0
  146.2129  141.3019  153.3349 H   0  0  0  0  0  0  0  0  0  0  0  0
  145.0969  139.1645  152.3396 H   0  0  0  0  0  0  0  0  0  0  0  0
  146.9138  137.1220  151.4134 H   0  0  0  0  0  0  0  0  0  0  0  0
  146.9467  135.7374  153.3284 H   0  0  0  0  0  0  0  0  0  0  0  0
  145.8577  136.8347  154.1806 H   0  0  0  0  0  0  0  0  0  0  0  0
  144.4036  134.9013  153.7790 H   0  0  0  0  0  0  0  0  0  0  0  0
  146.0265  133.9977  151.7645 H   0  0  0  0  0  0  0  0  0  0  0  0
  144.2812  133.7665  151.6035 H   0  0  0  0  0  0  0  0  0  0  0  0
  145.9130  135.5225  149.9423 H   0  0  0  0  0  0  0  0  0  0  0  0
  144.1631  135.2844  149.8917 H   0  0  0  0  0  0  0  0  0  0  0  0
  144.3283  137.6130  150.6601 H   0  0  0  0  0  0  0  0  0  0  0  0
  150.0324  138.2640  154.0847 H   0  0  0  0  0  0  0  0  0  0  0  0
  148.1174  137.5586  153.0396 H   0  0  0  0  0  0  0  0  0  0  0  0
  1  2  1  0  0  0  0
  2  3  1  0  0  0  0
  2  4  1  0  0  0  0
  2 19  1  0  0  0  0
  4  5  1  0  0  0  0
  5 18  1  0  0  0  0
  5  6  2  0  0  0  0
  6  7  1  0  0  0  0
  6 20  1  0  0  0  0
  7  8  2  0  0  0  0
  7 21  1  0  0  0  0
  8  9  1  0  0  0  0
  8 17  1  0  0  0  0
  9 10  1  0  0  0  0
  9 22  1  0  0  0  0
 10 15  1  0  0  0  0
 10 11  1  0  0  0  0
 10 23  1  0  0  0  0
 11 12  1  0  0  0  0
 11 24  1  0  0  0  0
 11 25  1  0  0  0  0
 12 16  1  0  0  0  0
 12 13  1  0  0  0  0
 12 26  1  0  0  0  0
 13 14  1  0  0  0  0
 13 27  1  0  0  0  0
 13 28  1  0  0  0  0
 14 15  1  0  0  0  0
 14 29  1  0  0  0  0
 14 30  1  0  0  0  0
 15 16  1  0  0  0  0
 15 31  1  0  0  0  0
 17 18  2  0  0  0  0
 17 33  1  0  0  0  0
 18 32  1  0  0  0  0
M  CHG  1  17   1
M  END
> <s_m_source_file>
AV-unprocessed.smi

> <i_m_source_file_index>
2837

> <i_lp_mmshare_version>
43012

> <i_f3d_flags>
0

> <s_epik_input>
RltDSF0oRilPYzFbY0hdW2NIXWMobltjSF0xKVtOSF1bQ0BIXShbQ0gyXVtDQEBIXTIzKVtDQEBIXShPMylbQ0gyXVtDSDJdMg==

> <s_epik_cmdline>
J2VwaWtfcHl0aG9uJywgJy1waCcsICc3LjAnLCAnLXRuJywgJzgnLCAnLW1hJywgJzIwMCcsICctbWV0YWxfYmluZGluZycsICctaW1hZScsICc8aW5maWxlLm1hZT4nLCAnLW9tYWUnLCAnPG91dGZpbGUubWFlPic=

> <r_lp_tautomer_probability>
0.999429

> <r_epik_Ionization_Penalty>
2.29716

> <r_epik_Ionization_Penalty_Charging>
2.29716

> <r_epik_Ionization_Penalty_Neutral>
1.42285e-06

> <r_epik_State_Penalty>
2.44762

> <r_epik_Charging_Adjusted_Penalty>
4.74478

> <i_epik_Tot_Q>
1

> <i_epik_Tot_abs_Q>
1

> <r_epik_Metal_State_Penalty>
6.53078

> <b_epik_Metal_Only>
0

> <s_lp_Force_Field>
OPLS_2005

> <r_lp_Energy>
46.2914

> <b_lp_Chiralities_Consistent>
1

> <s_lp_Variant>
AV-unprocessed.smi:2837-8

> <Gold.Version>
5.8.1

> <Gold.Id.Protein>
6NUR|6NUR_protein|mol2

> <Gold.PLP.Fitness>
41.8666

> <Gold.PLP.PLP>
-29.0040

> <Gold.PLP.part.hbond>
-4.0000

> <Gold.PLP.part.metal>
0.0000

> <Gold.PLP.part.buried>
3.6947

> <Gold.PLP.part.nonpolar>
-28.6183

> <Gold.PLP.part.repulsive>
0.3135

> <Gold.PLP.ligand.clash>
0.0000

> <Gold.PLP.ligand.torsion>
0.3607

> <Gold.PLP.Chemscore.Hbond>
4.5200

> <Gold.PLP.Chemscore.CHOScore>
0.0000

> <Gold.PLP.Chemscore.Metal>
0.0000

> <Gold.Chemscore.Hbonds>
donor molecule, donor type, donor heavy atom, donor atom, acceptor molecule, acceptor atom, score
      L1  H     9    22       P1 10175  2.00
      L1  H    17    33       P1  7948  1.76
      P1  H  7989  7998       L1     4  0.71

> <Gold.PLP.Chemscore.Internal.Correction>
0.0240

> <Gold.Rescore>
     Score         DG    S(hbond)    S(metal)    S(lipo)     H(rot)  DE(clash)    DE(int)     intcor
     14.11     -16.61       2.10        0.00      64.56       1.34       2.18       0.32       ----

> <Gold.Chemscore.Fitness>
14.1149

> <Gold.Chemscore.DG>
-16.6102

> <Gold.Chemscore.ZeroCoef>
-5.4800

> <Gold.Chemscore.Hbond>
2.0957

> <Gold.Chemscore.Metal>
0.0000

> <Gold.Chemscore.Lipo>
64.5554

> <Gold.Chemscore.Internal_Hbond>
0.0000

> <Gold.Chemscore.DEClash>
2.1776

> <Gold.Chemscore.DEInternal>
0.3177

> <Gold.Chemscore.Rot>
1.3368

> <Gold.Chemscore.Internal.Correction>
   9.000000E+99

> <Gold.Chemscore.Hbonds>
donor molecule, donor type, donor heavy atom, donor atom, acceptor molecule, acceptor atom, score
      L1  H     9    22       P1 10175  0.99
      L1  H    17    33       P1  7948  0.86
      P1  H  7989  7998       L1     4  0.12

> <Gold.Chemscore.Hbond.Weighted>
-6.9996

> <Gold.Chemscore.Metal.Weighted>
-0.0000

> <Gold.Chemscore.Lipo.Weighted>
-7.5530

> <Gold.Chemscore.Internal_Hbond.Weighted>
0.0000

> <Gold.Chemscore.DEClash.Weighted>
2.1776

> <Gold.Chemscore.DEInternal.Weighted>
0.3177

> <Gold.Chemscore.Rot.Weighted>
3.4223

> <Gold.Chemscore.Internal.Correction.Weighted>
   9.000000E+99

> <Gold.Protein.RotatedTorsions>
[ 6907 6896 6895 6894 ] final    7.28 input  -60.11 | X-H torsion
[ 7974 7965 7964 7962 ] final  136.81 input  175.53 | X-H torsion
[ 8008 7997 7996 7995 ] final   89.10 input   59.86 | X-H torsion
[ 10167 10162 10161 10158 ] final  -13.56 input  -65.29 | X-H torsion
[ 10718 10713 10712 10709 ] final   23.44 input   66.30 | X-H torsion
[ 10763 10752 10751 10750 ] final  165.22 input  -60.55 | X-H torsion
[ 11005 11000 10999 10996 ] final -131.67 input  -57.11 | X-H torsion

> <Gold.Protein.ActiveResidues>
 VAL166  LYS551  ARG553  GLY616  TRP617  ASP618  TYR619  PRO620  LYS621  CYS622 
 ASP623  PHE694  ASN695  SER759  ASP760  ASP761  ALA762  ILE779  LEU786  VAL792 
 PHE793  MET794  SER795  GLU796  ALA797  LYS798  CYS799  TRP800  GLU811  SER814 

> <Gold.Protein.RotatedAtoms>
  151.6873  135.0952  160.0226 H   0  0  0  0  0  0  0  0  0  0  0  0  # atno 6907 bound_to 6896
  152.3800  133.6528  159.6162 H   0  0  0  0  0  0  0  0  0  0  0  0  # atno 6908 bound_to 6896
  150.7739  133.9046  159.3393 H   0  0  0  0  0  0  0  0  0  0  0  0  # atno 6909 bound_to 6896
  144.9529  139.4798  143.5517 H   0  0  0  0  0  0  0  0  0  0  0  0  # atno 7974 bound_to 7965
  155.9959  140.3364  155.6798 H   0  0  0  0  0  0  0  0  0  0  0  0  # atno 8008 bound_to 7997
  155.6357  140.0690  157.2652 H   0  0  0  0  0  0  0  0  0  0  0  0  # atno 8009 bound_to 7997
  154.4234  140.1751  156.1507 H   0  0  0  0  0  0  0  0  0  0  0  0  # atno 8010 bound_to 7997
  140.7184  143.5413  150.9406 H   0  0  0  0  0  0  0  0  0  0  0  0  # atno 10167 bound_to 10162
  157.1661  130.6738  149.6061 H   0  0  0  0  0  0  0  0  0  0  0  0  # atno 10718 bound_to 10713
  154.3207  135.2756  155.2521 H   0  0  0  0  0  0  0  0  0  0  0  0  # atno 10763 bound_to 10752
  154.4875  135.5842  153.6438 H   0  0  0  0  0  0  0  0  0  0  0  0  # atno 10764 bound_to 10752
  152.9877  135.6126  154.3392 H   0  0  0  0  0  0  0  0  0  0  0  0  # atno 10765 bound_to 10752
  140.9238  134.1409  157.4292 H   0  0  0  0  0  0  0  0  0  0  0  0  # atno 11005 bound_to 11000
  146.3327  139.8626  142.8853 LP  0  0  0  0  0  0  0  0  0  0  0  0  # atno 17320 bound_to 7965
  145.2817  141.0140  143.3713 LP  0  0  0  0  0  0  0  0  0  0  0  0  # atno 17321 bound_to 7965
  139.9136  143.6691  152.3110 LP  0  0  0  0  0  0  0  0  0  0  0  0  # atno 17342 bound_to 10162
  139.7083  144.7624  151.1156 LP  0  0  0  0  0  0  0  0  0  0  0  0  # atno 17343 bound_to 10162
  155.9746  130.4695  150.6397 LP  0  0  0  0  0  0  0  0  0  0  0  0  # atno 17370 bound_to 10713
  157.4087  131.0820  151.1241 LP  0  0  0  0  0  0  0  0  0  0  0  0  # atno 17371 bound_to 10713
  139.8781  134.9981  156.5882 LP  0  0  0  0  0  0  0  0  0  0  0  0  # atno 17394 bound_to 11000
  140.7952  133.8550  155.8680 LP  0  0  0  0  0  0  0  0  0  0  0  0  # atno 17395 bound_to 11000

$$$$
