AV-unprocessed.smi:3222|AV-procd|sdf|12304|dock8
  -GOLD-   2272018143D 1   1.00000     0.00000
 Structure written by MMmdl.
 41 42  0  0  0  0  0  0  0  0  2 V2000
  150.0941  139.4668  154.2988 C   0  0  0  0  0  0  0  0  0  0  0  0
  149.2405  140.6873  154.7055 C   0  0  1  0  0  0  0  0  0  0  0  0
  150.1107  141.8436  155.0238 N   0  3  0  0  0  0  0  0  0  0  0  0
  150.9808  141.6799  156.2068 C   0  0  0  0  0  0  0  0  0  0  0  0
  150.2558  142.1304  157.4845 C   0  0  0  0  0  0  0  0  0  0  0  0
  151.1843  142.7056  158.4538 N   0  0  0  0  0  0  0  0  0  0  0  0
  151.0881  144.1037  158.8388 C   0  0  0  0  0  0  0  0  0  0  0  0
  152.1042  144.2765  159.9775 C   0  0  0  0  0  0  0  0  0  0  0  0
  152.9633  143.0069  159.9710 C   0  0  0  0  0  0  0  0  0  0  0  0
  152.2084  142.0741  159.0397 C   0  0  0  0  0  0  0  0  0  0  0  0
  152.5253  140.8978  158.8696 O   0  0  0  0  0  0  0  0  0  0  0  0
  148.2120  141.0926  153.6146 C   0  0  2  0  0  0  0  0  0  0  0  0
  147.1669  142.1004  154.1318 C   0  0  0  0  0  0  0  0  0  0  0  0
  147.5402  139.9389  153.0286 N   0  0  0  0  0  0  0  0  0  0  0  0
  147.5858  139.4957  151.7225 C   0  0  0  0  0  0  0  0  0  0  0  0
  146.7962  138.3848  151.6400 C   0  0  0  0  0  0  0  0  0  0  0  0
  146.2980  138.2247  152.9627 C   0  0  0  0  0  0  0  0  0  0  0  0
  146.7417  139.1567  153.7904 N   0  0  0  0  0  0  0  0  0  0  0  0
  149.4797  138.5850  154.1174 H   0  0  0  0  0  0  0  0  0  0  0  0
  150.8036  139.1889  155.0774 H   0  0  0  0  0  0  0  0  0  0  0  0
  150.6608  139.6669  153.3889 H   0  0  0  0  0  0  0  0  0  0  0  0
  148.6842  140.4269  155.6075 H   0  0  0  0  0  0  0  0  0  0  0  0
  150.6791  142.0603  154.2177 H   0  0  0  0  0  0  0  0  0  0  0  0
  151.2724  140.6330  156.3003 H   0  0  0  0  0  0  0  0  0  0  0  0
  151.8941  142.2588  156.0722 H   0  0  0  0  0  0  0  0  0  0  0  0
  149.4878  142.8673  157.2435 H   0  0  0  0  0  0  0  0  0  0  0  0
  149.7383  141.2840  157.9385 H   0  0  0  0  0  0  0  0  0  0  0  0
  151.3452  144.7333  157.9859 H   0  0  0  0  0  0  0  0  0  0  0  0
  150.0765  144.3567  159.1591 H   0  0  0  0  0  0  0  0  0  0  0  0
  152.7078  145.1750  159.8442 H   0  0  0  0  0  0  0  0  0  0  0  0
  151.5861  144.3699  160.9328 H   0  0  0  0  0  0  0  0  0  0  0  0
  153.9576  143.1998  159.5670 H   0  0  0  0  0  0  0  0  0  0  0  0
  153.0668  142.5753  160.9672 H   0  0  0  0  0  0  0  0  0  0  0  0
  148.7595  141.5759  152.8036 H   0  0  0  0  0  0  0  0  0  0  0  0
  147.6319  143.0290  154.4627 H   0  0  0  0  0  0  0  0  0  0  0  0
  146.6018  141.6957  154.9721 H   0  0  0  0  0  0  0  0  0  0  0  0
  146.4539  142.3591  153.3482 H   0  0  0  0  0  0  0  0  0  0  0  0
  148.1706  140.0005  150.9677 H   0  0  0  0  0  0  0  0  0  0  0  0
  146.6024  137.7795  150.7670 H   0  0  0  0  0  0  0  0  0  0  0  0
  145.6311  137.4649  153.3429 H   0  0  0  0  0  0  0  0  0  0  0  0
  149.5059  142.6312  155.2087 H   0  0  0  0  0  0  0  0  0  0  0  0
  1  2  1  0  0  0  0
  1 19  1  0  0  0  0
  1 20  1  0  0  0  0
  1 21  1  0  0  0  0
  2  3  1  0  0  0  0
  2 12  1  0  0  0  0
  2 22  1  0  0  0  0
  3  4  1  0  0  0  0
  3 23  1  0  0  0  0
  3 41  1  0  0  0  0
  4  5  1  0  0  0  0
  4 24  1  0  0  0  0
  4 25  1  0  0  0  0
  5  6  1  0  0  0  0
  5 26  1  0  0  0  0
  5 27  1  0  0  0  0
  6 10  1  0  0  0  0
  6  7  1  0  0  0  0
  7  8  1  0  0  0  0
  7 28  1  0  0  0  0
  7 29  1  0  0  0  0
  8  9  1  0  0  0  0
  8 30  1  0  0  0  0
  8 31  1  0  0  0  0
  9 10  1  0  0  0  0
  9 32  1  0  0  0  0
  9 33  1  0  0  0  0
 10 11  2  0  0  0  0
 12 13  1  0  0  0  0
 12 14  1  0  0  0  0
 12 34  1  0  0  0  0
 13 35  1  0  0  0  0
 13 36  1  0  0  0  0
 13 37  1  0  0  0  0
 14 18  1  0  0  0  0
 14 15  1  0  0  0  0
 15 16  2  0  0  0  0
 15 38  1  0  0  0  0
 16 17  1  0  0  0  0
 16 39  1  0  0  0  0
 17 18  2  0  0  0  0
 17 40  1  0  0  0  0
M  CHG  1   3   1
M  END
> <s_m_source_file>
AV-unprocessed.smi

> <i_m_source_file_index>
3222

> <i_lp_mmshare_version>
43012

> <i_f3d_flags>
0

> <s_epik_input>
bjFbY0hdW2NIXVtjSF1uMVtDQEBIXShbQ0gzXSlbQ0BIXShbQ0gzXSlbTkhdW0NIMl1bQ0gyXU4yW0NIMl1bQ0gyXVtDSDJdQzI9Tw==

> <s_epik_cmdline>
J2VwaWtfcHl0aG9uJywgJy1waCcsICc3LjAnLCAnLXRuJywgJzgnLCAnLW1hJywgJzIwMCcsICctbWV0YWxfYmluZGluZycsICctaW1hZScsICc8aW5maWxlLm1hZT4nLCAnLW9tYWUnLCAnPG91dGZpbGUubWFlPic=

> <r_lp_tautomer_probability>
1

> <r_epik_Ionization_Penalty>
0.0064019

> <r_epik_Ionization_Penalty_Charging>
0.00639164

> <r_epik_Ionization_Penalty_Neutral>
1.02567e-05

> <r_epik_State_Penalty>
0.00472531

> <r_epik_Charging_Adjusted_Penalty>
0.011117

> <i_epik_Tot_Q>
1

> <i_epik_Tot_abs_Q>
1

> <r_epik_Metal_State_Penalty>
-0

> <b_epik_Metal_Only>
0

> <s_lp_Force_Field>
OPLS_2005

> <r_lp_Energy>
24.0012

> <b_lp_Chiralities_Consistent>
1

> <s_lp_Variant>
AV-unprocessed.smi:3222-2

> <Gold.Version>
5.8.1

> <Gold.Id.Protein>
6NUR|6NUR_protein|mol2

> <Gold.PLP.Fitness>
47.3803

> <Gold.PLP.PLP>
-39.6121

> <Gold.PLP.part.hbond>
-1.0000

> <Gold.PLP.part.metal>
0.0000

> <Gold.PLP.part.buried>
-0.7991

> <Gold.PLP.part.nonpolar>
-39.3165

> <Gold.PLP.part.repulsive>
0.3877

> <Gold.PLP.ligand.clash>
0.0000

> <Gold.PLP.ligand.torsion>
0.6270

> <Gold.PLP.Chemscore.Hbond>
2.0000

> <Gold.PLP.Chemscore.CHOScore>
0.9628

> <Gold.PLP.Chemscore.Metal>
0.0000

> <Gold.Chemscore.Hbonds>
donor molecule, donor type, donor heavy atom, donor atom, acceptor molecule, acceptor atom, score
      L1  H     3    41       P1  8028  1.07

> <Gold.PLP.Chemscore.Internal.Correction>
0.1339

> <Gold.Rescore>
     Score         DG    S(hbond)    S(metal)    S(lipo)     H(rot)  DE(clash)    DE(int)     intcor
     13.68     -14.92       1.00        0.00      95.79       1.99       0.52       0.72       ----

> <Gold.Chemscore.Fitness>
13.6791

> <Gold.Chemscore.DG>
-14.9166

> <Gold.Chemscore.ZeroCoef>
-5.4800

> <Gold.Chemscore.Hbond>
0.9968

> <Gold.Chemscore.Metal>
0.0000

> <Gold.Chemscore.Lipo>
95.7893

> <Gold.Chemscore.Internal_Hbond>
0.0000

> <Gold.Chemscore.DEClash>
0.5155

> <Gold.Chemscore.DEInternal>
0.7220

> <Gold.Chemscore.Rot>
1.9922

> <Gold.Chemscore.Internal.Correction>
   9.000000E+99

> <Gold.Chemscore.Hbonds>
donor molecule, donor type, donor heavy atom, donor atom, acceptor molecule, acceptor atom, score
      L1  H     3    41       P1  8028  0.52

> <Gold.Chemscore.Hbond.Weighted>
-3.3294

> <Gold.Chemscore.Metal.Weighted>
-0.0000

> <Gold.Chemscore.Lipo.Weighted>
-11.2073

> <Gold.Chemscore.Internal_Hbond.Weighted>
0.0000

> <Gold.Chemscore.DEClash.Weighted>
0.5155

> <Gold.Chemscore.DEInternal.Weighted>
0.7220

> <Gold.Chemscore.Rot.Weighted>
5.1002

> <Gold.Chemscore.Internal.Correction.Weighted>
   9.000000E+99

> <Gold.Protein.RotatedTorsions>
[ 6907 6896 6895 6894 ] final -165.93 input  -60.11 | X-H torsion
[ 7974 7965 7964 7962 ] final  -29.28 input  175.53 | X-H torsion
[ 8008 7997 7996 7995 ] final  172.06 input   59.86 | X-H torsion
[ 10167 10162 10161 10158 ] final  -58.28 input  -65.29 | X-H torsion
[ 10718 10713 10712 10709 ] final   16.69 input   66.30 | X-H torsion
[ 10763 10752 10751 10750 ] final  -23.78 input  -60.55 | X-H torsion
[ 11005 11000 10999 10996 ] final  -67.71 input  -57.11 | X-H torsion

> <Gold.Protein.ActiveResidues>
 VAL166  LYS551  ARG553  GLY616  TRP617  ASP618  TYR619  PRO620  LYS621  CYS622 
 ASP623  PHE694  ASN695  SER759  ASP760  ASP761  ALA762  ILE779  LEU786  VAL792 
 PHE793  MET794  SER795  GLU796  ALA797  LYS798  CYS799  TRP800  GLU811  SER814 

> <Gold.Protein.RotatedAtoms>
  151.4355  133.3658  159.2774 H   0  0  0  0  0  0  0  0  0  0  0  0  # atno 6907 bound_to 6896
  150.9195  134.8614  159.7490 H   0  0  0  0  0  0  0  0  0  0  0  0  # atno 6908 bound_to 6896
  152.4974  134.4291  159.9558 H   0  0  0  0  0  0  0  0  0  0  0  0  # atno 6909 bound_to 6896
  146.1228  140.5392  142.8728 H   0  0  0  0  0  0  0  0  0  0  0  0  # atno 7974 bound_to 7965
  156.1211  140.1495  156.9203 H   0  0  0  0  0  0  0  0  0  0  0  0  # atno 8008 bound_to 7997
  154.4836  140.0872  156.7477 H   0  0  0  0  0  0  0  0  0  0  0  0  # atno 8009 bound_to 7997
  155.4427  140.3431  155.4294 H   0  0  0  0  0  0  0  0  0  0  0  0  # atno 8010 bound_to 7997
  140.6207  143.2418  151.5488 H   0  0  0  0  0  0  0  0  0  0  0  0  # atno 10167 bound_to 10162
  157.0715  130.6350  149.5806 H   0  0  0  0  0  0  0  0  0  0  0  0  # atno 10718 bound_to 10713
  153.6733  135.6970  153.5140 H   0  0  0  0  0  0  0  0  0  0  0  0  # atno 10763 bound_to 10752
  153.2541  135.4265  155.0827 H   0  0  0  0  0  0  0  0  0  0  0  0  # atno 10764 bound_to 10752
  154.8420  135.3539  154.6277 H   0  0  0  0  0  0  0  0  0  0  0  0  # atno 10765 bound_to 10752
  141.1515  133.6725  156.6335 H   0  0  0  0  0  0  0  0  0  0  0  0  # atno 11005 bound_to 11000
  144.7613  140.5428  143.6733 LP  0  0  0  0  0  0  0  0  0  0  0  0  # atno 17320 bound_to 7965
  145.5430  139.1475  143.3436 LP  0  0  0  0  0  0  0  0  0  0  0  0  # atno 17321 bound_to 7965
  139.5436  144.2581  152.1399 LP  0  0  0  0  0  0  0  0  0  0  0  0  # atno 17342 bound_to 10162
  140.1800  144.4853  150.6533 LP  0  0  0  0  0  0  0  0  0  0  0  0  # atno 17343 bound_to 10162
  155.9949  130.5014  150.7438 LP  0  0  0  0  0  0  0  0  0  0  0  0  # atno 17370 bound_to 10713
  157.4874  131.0908  151.0466 LP  0  0  0  0  0  0  0  0  0  0  0  0  # atno 17371 bound_to 10713
  140.3448  134.7818  157.4424 LP  0  0  0  0  0  0  0  0  0  0  0  0  # atno 17394 bound_to 11000
  140.0908  134.5603  155.8446 LP  0  0  0  0  0  0  0  0  0  0  0  0  # atno 17395 bound_to 11000

$$$$
