AV-unprocessed.smi:1580|AV-procd|sdf|6359|dock10
  -GOLD-   22720 6583D 1   1.00000     0.00000
 Structure written by MMmdl.
 37 38  0  0  0  0  0  0  0  0  1 V2000
  151.7168  139.3338  159.2983 C   0  0  0  0  0  0  0  0  0  0  0  0
  152.7405  137.9037  158.7614 S   0  0  0  0  0  0  0  0  0  0  0  0
  154.0209  138.4280  158.2607 O   0  0  0  0  0  0  0  0  0  0  0  0
  152.7378  136.9030  159.8399 O   0  0  0  0  0  0  0  0  0  0  0  0
  151.8310  137.2250  157.3781 C   0  0  0  0  0  0  0  0  0  0  0  0
  151.7768  137.9166  156.1518 C   0  0  0  0  0  0  0  0  0  0  0  0
  151.0152  137.3589  155.1072 C   0  0  0  0  0  0  0  0  0  0  0  0
  150.3328  136.1368  155.3321 C   0  0  0  0  0  0  0  0  0  0  0  0
  149.5274  135.4635  154.3718 N   0  0  0  0  0  0  0  0  0  0  0  0
  148.8443  134.3110  154.4840 C   0  0  0  0  0  0  0  0  0  0  0  0
  148.7986  133.5977  155.4854 O   0  0  0  0  0  0  0  0  0  0  0  0
  148.1972  134.0230  153.3463 N   0  0  0  0  0  0  0  0  0  0  0  0
  147.3804  132.8347  153.1272 C   0  0  0  0  0  0  0  0  0  0  0  0
  146.8405  132.7800  151.6884 C   0  0  1  0  0  0  0  0  0  0  0  0
  145.9854  131.5474  151.4001 C   0  0  0  0  0  0  0  0  0  0  0  0
  145.1264  132.0347  150.2560 C   0  0  0  0  0  0  0  0  0  0  0  0
  144.8501  133.4769  150.6696 C   0  0  0  0  0  0  0  0  0  0  0  0
  145.9822  133.8900  151.4315 O   0  0  0  0  0  0  0  0  0  0  0  0
  150.4450  135.5479  156.6104 C   0  0  0  0  0  0  0  0  0  0  0  0
  151.1701  136.0734  157.6197 N   0  0  0  0  0  0  0  0  0  0  0  0
  152.1911  139.8200  160.1504 H   0  0  0  0  0  0  0  0  0  0  0  0
  150.7255  138.9839  159.5857 H   0  0  0  0  0  0  0  0  0  0  0  0
  151.6273  140.0451  158.4775 H   0  0  0  0  0  0  0  0  0  0  0  0
  152.3016  138.8494  156.0088 H   0  0  0  0  0  0  0  0  0  0  0  0
  150.9704  137.8879  154.1692 H   0  0  0  0  0  0  0  0  0  0  0  0
  149.4390  135.9365  153.4845 H   0  0  0  0  0  0  0  0  0  0  0  0
  148.2872  134.6616  152.5697 H   0  0  0  0  0  0  0  0  0  0  0  0
  147.9625  131.9381  153.3464 H   0  0  0  0  0  0  0  0  0  0  0  0
  146.5540  132.8474  153.8382 H   0  0  0  0  0  0  0  0  0  0  0  0
  147.6602  132.8142  150.9688 H   0  0  0  0  0  0  0  0  0  0  0  0
  146.5786  130.6686  151.1463 H   0  0  0  0  0  0  0  0  0  0  0  0
  145.3583  131.3017  152.2584 H   0  0  0  0  0  0  0  0  0  0  0  0
  145.6945  132.0117  149.3251 H   0  0  0  0  0  0  0  0  0  0  0  0
  144.2178  131.4479  150.1186 H   0  0  0  0  0  0  0  0  0  0  0  0
  144.6862  134.1299  149.8123 H   0  0  0  0  0  0  0  0  0  0  0  0
  143.9671  133.5279  151.3076 H   0  0  0  0  0  0  0  0  0  0  0  0
  149.9346  134.6222  156.8330 H   0  0  0  0  0  0  0  0  0  0  0  0
  1  2  1  0  0  0  0
  1 21  1  0  0  0  0
  1 22  1  0  0  0  0
  1 23  1  0  0  0  0
  2  3  2  0  0  0  0
  2  4  2  0  0  0  0
  2  5  1  0  0  0  0
  5 20  1  0  0  0  0
  5  6  2  0  0  0  0
  6  7  1  0  0  0  0
  6 24  1  0  0  0  0
  7  8  2  0  0  0  0
  7 25  1  0  0  0  0
  8  9  1  0  0  0  0
  8 19  1  0  0  0  0
  9 10  1  0  0  0  0
  9 26  1  0  0  0  0
 10 11  2  0  0  0  0
 10 12  1  0  0  0  0
 12 13  1  0  0  0  0
 12 27  1  0  0  0  0
 13 14  1  0  0  0  0
 13 28  1  0  0  0  0
 13 29  1  0  0  0  0
 14 18  1  0  0  0  0
 14 15  1  0  0  0  0
 14 30  1  0  0  0  0
 15 16  1  0  0  0  0
 15 31  1  0  0  0  0
 15 32  1  0  0  0  0
 16 17  1  0  0  0  0
 16 33  1  0  0  0  0
 16 34  1  0  0  0  0
 17 18  1  0  0  0  0
 17 35  1  0  0  0  0
 17 36  1  0  0  0  0
 19 20  2  0  0  0  0
 19 37  1  0  0  0  0
M  END
> <s_m_source_file>
AV-unprocessed.smi

> <i_m_source_file_index>
1580

> <i_lp_mmshare_version>
43012

> <i_f3d_flags>
0

> <s_epik_input>
W0NIM11TKD1PKSg9TyljMVtjSF1bY0hdYyhbY0hdbjEpW05IXUMoPU8pW05IXVtDSDJdW0NAQEhdMltDSDJdW0NIMl1bQ0gyXU8y

> <s_epik_cmdline>
J2VwaWtfcHl0aG9uJywgJy1waCcsICc3LjAnLCAnLXRuJywgJzgnLCAnLW1hJywgJzIwMCcsICctbWV0YWxfYmluZGluZycsICctaW1hZScsICc8aW5maWxlLm1hZT4nLCAnLW9tYWUnLCAnPG91dGZpbGUubWFlPic=

> <r_lp_tautomer_probability>
1

> <r_epik_Ionization_Penalty>
3.28405e-05

> <r_epik_Ionization_Penalty_Charging>
0

> <r_epik_Ionization_Penalty_Neutral>
3.28405e-05

> <r_epik_State_Penalty>
-0

> <r_epik_Charging_Adjusted_Penalty>
0

> <i_epik_Tot_Q>
0

> <i_epik_Tot_abs_Q>
0

> <r_epik_Metal_State_Penalty>
-0

> <b_epik_Metal_Only>
0

> <s_lp_Force_Field>
OPLS_2005

> <r_lp_Energy>
18.5383

> <b_lp_Chiralities_Consistent>
1

> <s_lp_Variant>
AV-unprocessed.smi:1580-2

> <Gold.Version>
5.8.1

> <Gold.Id.Protein>
6NUR|6NUR_protein|mol2

> <Gold.PLP.Fitness>
40.6241

> <Gold.PLP.PLP>
-29.0281

> <Gold.PLP.part.hbond>
-5.3961

> <Gold.PLP.part.metal>
0.0000

> <Gold.PLP.part.buried>
-3.5137

> <Gold.PLP.part.nonpolar>
-19.7408

> <Gold.PLP.part.repulsive>
0.2085

> <Gold.PLP.ligand.clash>
0.0000

> <Gold.PLP.ligand.torsion>
1.0348

> <Gold.PLP.Chemscore.Hbond>
3.8800

> <Gold.PLP.Chemscore.CHOScore>
0.0000

> <Gold.PLP.Chemscore.Metal>
0.0000

> <Gold.Chemscore.Hbonds>
donor molecule, donor type, donor heavy atom, donor atom, acceptor molecule, acceptor atom, score
      L1  H     9    26       P1  7948  1.00
      L1  H    12    27       P1  7948  1.00
      P1  H  6896  6907       L1     4  1.00
      P1  H  7997  8008       L1     3  0.94

> <Gold.PLP.Chemscore.Internal.Correction>
2.0256

> <Gold.Rescore>
     Score         DG    S(hbond)    S(metal)    S(lipo)     H(rot)  DE(clash)    DE(int)     intcor
     18.25     -20.80       3.42        0.00      61.07       1.27       0.00       2.55       ----

> <Gold.Chemscore.Fitness>
18.2517

> <Gold.Chemscore.DG>
-20.7987

> <Gold.Chemscore.ZeroCoef>
-5.4800

> <Gold.Chemscore.Hbond>
3.4225

> <Gold.Chemscore.Metal>
0.0000

> <Gold.Chemscore.Lipo>
61.0692

> <Gold.Chemscore.Internal_Hbond>
0.0000

> <Gold.Chemscore.DEClash>
0.0018

> <Gold.Chemscore.DEInternal>
2.5452

> <Gold.Chemscore.Rot>
1.2725

> <Gold.Chemscore.Internal.Correction>
   9.000000E+99

> <Gold.Chemscore.Hbonds>
donor molecule, donor type, donor heavy atom, donor atom, acceptor molecule, acceptor atom, score
      L1  H     9    26       P1  7948  0.44
      L1  H    12    27       P1  7948  0.33
      P1  H  6896  6907       L1     4  0.97
      P1  H  7997  8008       L1     3  0.89

> <Gold.Chemscore.Hbond.Weighted>
-11.4312

> <Gold.Chemscore.Metal.Weighted>
-0.0000

> <Gold.Chemscore.Lipo.Weighted>
-7.1451

> <Gold.Chemscore.Internal_Hbond.Weighted>
0.0000

> <Gold.Chemscore.DEClash.Weighted>
0.0018

> <Gold.Chemscore.DEInternal.Weighted>
2.5452

> <Gold.Chemscore.Rot.Weighted>
3.2576

> <Gold.Chemscore.Internal.Correction.Weighted>
   9.000000E+99

> <Gold.Protein.RotatedTorsions>
[ 6907 6896 6895 6894 ] final   27.20 input  -60.11 | X-H torsion
[ 7974 7965 7964 7962 ] final   85.07 input  175.53 | X-H torsion
[ 8008 7997 7996 7995 ] final -103.12 input   59.86 | X-H torsion
[ 10167 10162 10161 10158 ] final   50.67 input  -65.29 | X-H torsion
[ 10718 10713 10712 10709 ] final -147.97 input   66.30 | X-H torsion
[ 10763 10752 10751 10750 ] final -125.39 input  -60.55 | X-H torsion
[ 11005 11000 10999 10996 ] final   46.04 input  -57.11 | X-H torsion

> <Gold.Protein.ActiveResidues>
 VAL166  LYS551  ARG553  GLY616  TRP617  ASP618  TYR619  PRO620  LYS621  CYS622 
 ASP623  PHE694  ASN695  SER759  ASP760  ASP761  ALA762  ILE779  LEU786  VAL792 
 PHE793  MET794  SER795  GLU796  ALA797  LYS798  CYS799  TRP800  GLU811  SER814 

> <Gold.Protein.RotatedAtoms>
  151.9988  134.9939  160.0564 H   0  0  0  0  0  0  0  0  0  0  0  0  # atno 6907 bound_to 6896
  152.1539  133.4534  159.4835 H   0  0  0  0  0  0  0  0  0  0  0  0  # atno 6908 bound_to 6896
  150.6879  134.2073  159.4388 H   0  0  0  0  0  0  0  0  0  0  0  0  # atno 6909 bound_to 6896
  145.5904  139.2337  143.2302 H   0  0  0  0  0  0  0  0  0  0  0  0  # atno 7974 bound_to 7965
  154.8664  140.0424  157.1697 H   0  0  0  0  0  0  0  0  0  0  0  0  # atno 8008 bound_to 7997
  154.8785  140.2969  155.5418 H   0  0  0  0  0  0  0  0  0  0  0  0  # atno 8009 bound_to 7997
  156.2999  140.2416  156.3784 H   0  0  0  0  0  0  0  0  0  0  0  0  # atno 8010 bound_to 7997
  140.2700  144.3276  150.6293 H   0  0  0  0  0  0  0  0  0  0  0  0  # atno 10167 bound_to 10162
  156.4143  130.7997  151.2216 H   0  0  0  0  0  0  0  0  0  0  0  0  # atno 10718 bound_to 10713
  154.8735  135.4031  154.3260 H   0  0  0  0  0  0  0  0  0  0  0  0  # atno 10763 bound_to 10752
  153.4081  135.7020  153.6384 H   0  0  0  0  0  0  0  0  0  0  0  0  # atno 10764 bound_to 10752
  153.5098  135.3709  155.2552 H   0  0  0  0  0  0  0  0  0  0  0  0  # atno 10765 bound_to 10752
  140.1405  134.4590  155.8453 H   0  0  0  0  0  0  0  0  0  0  0  0  # atno 11005 bound_to 11000
  146.1651  140.6731  142.9259 LP  0  0  0  0  0  0  0  0  0  0  0  0  # atno 17320 bound_to 7965
  144.7354  140.4792  143.6908 LP  0  0  0  0  0  0  0  0  0  0  0  0  # atno 17321 bound_to 7965
  140.5897  143.2168  151.7276 LP  0  0  0  0  0  0  0  0  0  0  0  0  # atno 17342 bound_to 10162
  139.4991  144.3957  152.0233 LP  0  0  0  0  0  0  0  0  0  0  0  0  # atno 17343 bound_to 10162
  157.7507  131.0248  150.3891 LP  0  0  0  0  0  0  0  0  0  0  0  0  # atno 17370 bound_to 10713
  156.4195  130.3950  149.6834 LP  0  0  0  0  0  0  0  0  0  0  0  0  # atno 17371 bound_to 10713
  141.2185  133.6831  156.7237 LP  0  0  0  0  0  0  0  0  0  0  0  0  # atno 17394 bound_to 11000
  140.2728  134.8378  157.3863 LP  0  0  0  0  0  0  0  0  0  0  0  0  # atno 17395 bound_to 11000

$$$$
