AV-unprocessed.smi:2766|AV-procd|sdf|10645|dock9
  -GOLD-   2272015 93D 1   1.00000     0.00000
 Structure written by MMmdl.
 32 33  0  0  0  0  0  0  0  0  1 V2000
  146.9633  141.2682  154.5684 C   0  0  0  0  0  0  0  0  0  0  0  0
  148.0685  141.1486  155.4465 O   0  0  0  0  0  0  0  0  0  0  0  0
  149.3120  141.1738  154.7647 C   0  0  0  0  0  0  0  0  0  0  0  0
  150.4453  141.3708  155.7847 C   0  0  1  0  0  0  0  0  0  0  0  0
  150.2995  142.6496  156.3703 O   0  0  0  0  0  0  0  0  0  0  0  0
  150.4162  140.2923  156.8895 C   0  0  0  0  0  0  0  0  0  0  0  0
  151.5974  140.3133  157.7444 N   0  0  0  0  0  0  0  0  0  0  0  0
  152.6944  139.5126  157.6862 C   0  0  0  0  0  0  0  0  0  0  0  0
  152.8292  138.3986  156.6840 C   0  0  0  0  0  0  0  0  0  0  0  0
  151.8516  137.5031  156.8324 F   0  0  0  0  0  0  0  0  0  0  0  0
  152.7580  138.8788  155.4425 F   0  0  0  0  0  0  0  0  0  0  0  0
  153.9879  137.7574  156.8282 F   0  0  0  0  0  0  0  0  0  0  0  0
  153.6316  139.7541  158.6062 N   0  0  0  0  0  0  0  0  0  0  0  0
  153.0939  140.8005  159.3275 C   0  0  0  0  0  0  0  0  0  0  0  0
  153.6063  141.5070  160.4392 C   0  0  0  0  0  0  0  0  0  0  0  0
  152.8614  142.5500  161.0271 C   0  0  0  0  0  0  0  0  0  0  0  0
  151.5959  142.9001  160.5134 C   0  0  0  0  0  0  0  0  0  0  0  0
  151.0680  142.2090  159.4058 C   0  0  0  0  0  0  0  0  0  0  0  0
  151.8171  141.1704  158.8197 C   0  0  0  0  0  0  0  0  0  0  0  0
  151.4052  141.3352  155.2699 H   0  0  0  0  0  0  0  0  0  0  0  0
  146.0366  141.2474  155.1416 H   0  0  0  0  0  0  0  0  0  0  0  0
  146.9362  140.4433  153.8553 H   0  0  0  0  0  0  0  0  0  0  0  0
  146.9962  142.2084  154.0163 H   0  0  0  0  0  0  0  0  0  0  0  0
  149.4640  140.2668  154.1765 H   0  0  0  0  0  0  0  0  0  0  0  0
  149.2974  142.0119  154.0658 H   0  0  0  0  0  0  0  0  0  0  0  0
  149.4938  143.0329  156.0601 H   0  0  0  0  0  0  0  0  0  0  0  0
  149.5340  140.4215  157.5181 H   0  0  0  0  0  0  0  0  0  0  0  0
  150.3209  139.3021  156.4453 H   0  0  0  0  0  0  0  0  0  0  0  0
  154.5736  141.2442  160.8412 H   0  0  0  0  0  0  0  0  0  0  0  0
  153.2622  143.0830  161.8769 H   0  0  0  0  0  0  0  0  0  0  0  0
  151.0310  143.6998  160.9697 H   0  0  0  0  0  0  0  0  0  0  0  0
  150.0996  142.4764  159.0103 H   0  0  0  0  0  0  0  0  0  0  0  0
  1  2  1  0  0  0  0
  1 21  1  0  0  0  0
  1 22  1  0  0  0  0
  1 23  1  0  0  0  0
  2  3  1  0  0  0  0
  3  4  1  0  0  0  0
  3 24  1  0  0  0  0
  3 25  1  0  0  0  0
  4 20  1  0  0  0  0
  4  5  1  0  0  0  0
  4  6  1  0  0  0  0
  5 26  1  0  0  0  0
  6  7  1  0  0  0  0
  6 27  1  0  0  0  0
  6 28  1  0  0  0  0
  7 19  1  0  0  0  0
  7  8  1  0  0  0  0
  8  9  1  0  0  0  0
  8 13  2  0  0  0  0
  9 10  1  0  0  0  0
  9 11  1  0  0  0  0
  9 12  1  0  0  0  0
 13 14  1  0  0  0  0
 14 19  2  0  0  0  0
 14 15  1  0  0  0  0
 15 16  2  0  0  0  0
 15 29  1  0  0  0  0
 16 17  1  0  0  0  0
 16 30  1  0  0  0  0
 17 18  2  0  0  0  0
 17 31  1  0  0  0  0
 18 19  1  0  0  0  0
 18 32  1  0  0  0  0
M  END
> <s_m_source_file>
AV-unprocessed.smi

> <i_m_source_file_index>
2766

> <i_lp_mmshare_version>
43012

> <i_f3d_flags>
0

> <s_epik_input>
W0NIM11PW0NIMl1bQ0BASF0oW09IXSlbQ0gyXW4oYyhuMSlDKEYpKEYpRiljKGMxMilbY0hdW2NIXVtjSF1bY0hdMg==

> <s_epik_cmdline>
J2VwaWtfcHl0aG9uJywgJy1waCcsICc3LjAnLCAnLXRuJywgJzgnLCAnLW1hJywgJzIwMCcsICctbWV0YWxfYmluZGluZycsICctaW1hZScsICc8aW5maWxlLm1hZT4nLCAnLW9tYWUnLCAnPG91dGZpbGUubWFlPic=

> <r_epik_Ionization_Penalty>
0.00044827

> <r_epik_Ionization_Penalty_Charging>
0

> <r_epik_Ionization_Penalty_Neutral>
0.00044827

> <r_epik_State_Penalty>
0.000276591

> <r_epik_Charging_Adjusted_Penalty>
0.000276591

> <i_epik_Tot_Q>
0

> <i_epik_Tot_abs_Q>
0

> <r_epik_Metal_State_Penalty>
-0

> <b_epik_Metal_Only>
0

> <s_lp_Force_Field>
OPLS_2005

> <r_lp_Energy>
13.5685

> <b_lp_Chiralities_Consistent>
1

> <s_lp_Variant>
AV-unprocessed.smi:2766-1

> <Gold.Version>
5.8.1

> <Gold.Id.Protein>
6NUR|6NUR_protein|mol2

> <Gold.PLP.Fitness>
41.7101

> <Gold.PLP.PLP>
-36.5632

> <Gold.PLP.part.hbond>
-1.6979

> <Gold.PLP.part.metal>
0.0000

> <Gold.PLP.part.buried>
-4.5146

> <Gold.PLP.part.nonpolar>
-30.2140

> <Gold.PLP.part.repulsive>
0.1243

> <Gold.PLP.ligand.clash>
0.0000

> <Gold.PLP.ligand.torsion>
0.3999

> <Gold.PLP.Chemscore.Hbond>
1.9760

> <Gold.PLP.Chemscore.CHOScore>
0.0000

> <Gold.PLP.Chemscore.Metal>
0.0000

> <Gold.Chemscore.Hbonds>
donor molecule, donor type, donor heavy atom, donor atom, acceptor molecule, acceptor atom, score
      L1  H     5    26       P1  8028  0.74
      P1  H  7997  8009       L1    13  0.55

> <Gold.PLP.Chemscore.Internal.Correction>
0.0187

> <Gold.Rescore>
     Score         DG    S(hbond)    S(metal)    S(lipo)     H(rot)  DE(clash)    DE(int)     intcor
     13.32     -14.23       1.29        0.00      88.50       2.32       0.39       0.52       ----

> <Gold.Chemscore.Fitness>
13.3250

> <Gold.Chemscore.DG>
-14.2290

> <Gold.Chemscore.ZeroCoef>
-5.4800

> <Gold.Chemscore.Hbond>
1.2946

> <Gold.Chemscore.Metal>
0.0000

> <Gold.Chemscore.Lipo>
88.5039

> <Gold.Chemscore.Internal_Hbond>
0.0000

> <Gold.Chemscore.DEClash>
0.3871

> <Gold.Chemscore.DEInternal>
0.5170

> <Gold.Chemscore.Rot>
2.3164

> <Gold.Chemscore.Internal.Correction>
   9.000000E+99

> <Gold.Chemscore.Hbonds>
donor molecule, donor type, donor heavy atom, donor atom, acceptor molecule, acceptor atom, score
      L1  H     5    26       P1  8028  0.74
      P1  H  7997  8009       L1    13  0.03

> <Gold.Chemscore.Hbond.Weighted>
-4.3239

> <Gold.Chemscore.Metal.Weighted>
-0.0000

> <Gold.Chemscore.Lipo.Weighted>
-10.3550

> <Gold.Chemscore.Internal_Hbond.Weighted>
0.0000

> <Gold.Chemscore.DEClash.Weighted>
0.3871

> <Gold.Chemscore.DEInternal.Weighted>
0.5170

> <Gold.Chemscore.Rot.Weighted>
5.9299

> <Gold.Chemscore.Internal.Correction.Weighted>
   9.000000E+99

> <Gold.Protein.RotatedTorsions>
[ 6907 6896 6895 6894 ] final -104.42 input  -60.11 | X-H torsion
[ 7974 7965 7964 7962 ] final  136.32 input  175.53 | X-H torsion
[ 8008 7997 7996 7995 ] final  130.41 input   59.86 | X-H torsion
[ 10167 10162 10161 10158 ] final  -72.34 input  -65.29 | X-H torsion
[ 10718 10713 10712 10709 ] final   33.90 input   66.30 | X-H torsion
[ 10763 10752 10751 10750 ] final  -44.18 input  -60.55 | X-H torsion
[ 11005 11000 10999 10996 ] final -135.26 input  -57.11 | X-H torsion

> <Gold.Protein.ActiveResidues>
 VAL166  LYS551  ARG553  GLY616  TRP617  ASP618  TYR619  PRO620  LYS621  CYS622 
 ASP623  PHE694  ASN695  SER759  ASP760  ASP761  ALA762  ILE779  LEU786  VAL792 
 PHE793  MET794  SER795  GLU796  ALA797  LYS798  CYS799  TRP800  GLU811  SER814 

> <Gold.Protein.RotatedAtoms>
  150.7286  134.0281  159.3723 H   0  0  0  0  0  0  0  0  0  0  0  0  # atno 6907 bound_to 6896
  151.8249  135.0638  160.0439 H   0  0  0  0  0  0  0  0  0  0  0  0  # atno 6908 bound_to 6896
  152.2976  133.5587  159.5634 H   0  0  0  0  0  0  0  0  0  0  0  0  # atno 6909 bound_to 6896
  144.9576  139.4747  143.5495 H   0  0  0  0  0  0  0  0  0  0  0  0  # atno 7974 bound_to 7965
  156.2954  140.2596  156.2758 H   0  0  0  0  0  0  0  0  0  0  0  0  # atno 8008 bound_to 7997
  154.9650  140.0392  157.2226 H   0  0  0  0  0  0  0  0  0  0  0  0  # atno 8009 bound_to 7997
  154.7911  140.2812  155.5995 H   0  0  0  0  0  0  0  0  0  0  0  0  # atno 8010 bound_to 7997
  140.5200  143.2333  151.7447 H   0  0  0  0  0  0  0  0  0  0  0  0  # atno 10167 bound_to 10162
  157.3037  130.7364  149.6682 H   0  0  0  0  0  0  0  0  0  0  0  0  # atno 10718 bound_to 10713
  154.0078  135.6685  153.4763 H   0  0  0  0  0  0  0  0  0  0  0  0  # atno 10763 bound_to 10752
  153.0634  135.5015  154.8141 H   0  0  0  0  0  0  0  0  0  0  0  0  # atno 10764 bound_to 10752
  154.7014  135.3079  154.9299 H   0  0  0  0  0  0  0  0  0  0  0  0  # atno 10765 bound_to 10752
  140.8914  134.1806  157.4525 H   0  0  0  0  0  0  0  0  0  0  0  0  # atno 11005 bound_to 11000
  146.3342  139.8704  142.8841 LP  0  0  0  0  0  0  0  0  0  0  0  0  # atno 17320 bound_to 7965
  145.2749  141.0120  143.3751 LP  0  0  0  0  0  0  0  0  0  0  0  0  # atno 17321 bound_to 7965
  139.4920  144.4269  151.9916 LP  0  0  0  0  0  0  0  0  0  0  0  0  # atno 17342 bound_to 10162
  140.3365  144.3255  150.5976 LP  0  0  0  0  0  0  0  0  0  0  0  0  # atno 17343 bound_to 10162
  155.9673  130.4272  150.4734 LP  0  0  0  0  0  0  0  0  0  0  0  0  # atno 17370 bound_to 10713
  157.2719  131.0589  151.2254 LP  0  0  0  0  0  0  0  0  0  0  0  0  # atno 17371 bound_to 10713
  139.8730  134.9860  156.5306 LP  0  0  0  0  0  0  0  0  0  0  0  0  # atno 17394 bound_to 11000
  140.8342  133.8255  155.9012 LP  0  0  0  0  0  0  0  0  0  0  0  0  # atno 17395 bound_to 11000

$$$$
