AV-unprocessed.smi:1424|AV-procd|sdf|5799|dock2
  -GOLD-   22720 5453D 1   1.00000     0.00000
 Structure written by MMmdl.
 45 47  0  0  0  0  0  0  0  0  1 V2000
  154.5603  141.1286  160.7781 O   0  0  0  0  0  0  0  0  0  0  0  0
  153.8432  140.2478  160.3041 C   0  0  0  0  0  0  0  0  0  0  0  0
  153.9936  138.9437  160.5765 N   0  0  0  0  0  0  0  0  0  0  0  0
  155.0226  138.3701  161.4391 C   0  0  0  0  0  0  0  0  0  0  0  0
  154.5364  137.1029  162.1695 C   0  0  2  0  0  0  0  0  0  0  0  0
  154.3838  137.2762  163.6962 C   0  0  0  0  0  0  0  0  0  0  0  0
  154.1934  135.8949  164.3306 C   0  0  0  0  0  0  0  0  0  0  0  0
  155.2052  134.7480  163.3251 S   0  0  0  0  0  0  0  0  0  0  0  0
  156.4916  134.5113  163.9975 O   0  0  0  0  0  0  0  0  0  0  0  0
  154.3633  133.6258  162.8839 O   0  0  0  0  0  0  0  0  0  0  0  0
  155.4697  135.9049  161.9276 C   0  0  0  0  0  0  0  0  0  0  0  0
  152.8289  140.4480  159.4457 N   0  0  0  0  0  0  0  0  0  0  0  0
  152.3636  141.6735  158.8871 C   0  0  0  0  0  0  0  0  0  0  0  0
  152.7292  142.9392  159.4074 C   0  0  0  0  0  0  0  0  0  0  0  0
  152.2177  144.1035  158.8070 C   0  0  0  0  0  0  0  0  0  0  0  0
  151.3491  143.9626  157.7111 C   0  0  0  0  0  0  0  0  0  0  0  0
  150.9775  142.7657  157.2143 N   0  0  0  0  0  0  0  0  0  0  0  0
  151.4694  141.6379  157.7829 C   0  0  0  0  0  0  0  0  0  0  0  0
  151.0341  140.4014  157.2628 N   0  0  0  0  0  0  0  0  0  0  0  0
  149.9358  140.5273  156.3090 C   0  0  0  0  0  0  0  0  0  0  0  0
  150.1499  139.4354  155.2597 C   0  0  0  0  0  0  0  0  0  0  0  0
  151.6630  139.2583  155.2583 C   0  0  0  0  0  0  0  0  0  0  0  0
  152.0229  139.4652  156.7290 C   0  0  0  0  0  0  0  0  0  0  0  0
  153.3573  138.2936  160.1387 H   0  0  0  0  0  0  0  0  0  0  0  0
  155.8738  138.1187  160.8056 H   0  0  0  0  0  0  0  0  0  0  0  0
  155.3882  139.1082  162.1555 H   0  0  0  0  0  0  0  0  0  0  0  0
  153.5555  136.8320  161.7753 H   0  0  0  0  0  0  0  0  0  0  0  0
  155.2916  137.7278  164.0986 H   0  0  0  0  0  0  0  0  0  0  0  0
  153.5579  137.9402  163.9519 H   0  0  0  0  0  0  0  0  0  0  0  0
  154.5019  135.8555  165.3755 H   0  0  0  0  0  0  0  0  0  0  0  0
  153.1529  135.5772  164.2598 H   0  0  0  0  0  0  0  0  0  0  0  0
  155.2749  135.4004  160.9810 H   0  0  0  0  0  0  0  0  0  0  0  0
  156.5162  136.2111  161.9469 H   0  0  0  0  0  0  0  0  0  0  0  0
  152.3917  139.6164  159.0762 H   0  0  0  0  0  0  0  0  0  0  0  0
  153.3790  143.0401  160.2629 H   0  0  0  0  0  0  0  0  0  0  0  0
  152.4817  145.0812  159.1819 H   0  0  0  0  0  0  0  0  0  0  0  0
  150.9344  144.8332  157.2251 H   0  0  0  0  0  0  0  0  0  0  0  0
  148.9699  140.4201  156.8029 H   0  0  0  0  0  0  0  0  0  0  0  0
  149.9614  141.5099  155.8338 H   0  0  0  0  0  0  0  0  0  0  0  0
  149.6704  138.5100  155.5828 H   0  0  0  0  0  0  0  0  0  0  0  0
  149.7490  139.7018  154.2816 H   0  0  0  0  0  0  0  0  0  0  0  0
  151.9814  138.2887  154.8748 H   0  0  0  0  0  0  0  0  0  0  0  0
  152.1273  140.0351  154.6489 H   0  0  0  0  0  0  0  0  0  0  0  0
  153.0585  139.7834  156.8508 H   0  0  0  0  0  0  0  0  0  0  0  0
  151.9155  138.5257  157.2724 H   0  0  0  0  0  0  0  0  0  0  0  0
  1  2  2  0  0  0  0
  2  3  1  0  0  0  0
  2 12  1  0  0  0  0
  3  4  1  0  0  0  0
  3 24  1  0  0  0  0
  4  5  1  0  0  0  0
  4 25  1  0  0  0  0
  4 26  1  0  0  0  0
  5 11  1  0  0  0  0
  5  6  1  0  0  0  0
  5 27  1  0  0  0  0
  6  7  1  0  0  0  0
  6 28  1  0  0  0  0
  6 29  1  0  0  0  0
  7  8  1  0  0  0  0
  7 30  1  0  0  0  0
  7 31  1  0  0  0  0
  8  9  2  0  0  0  0
  8 10  2  0  0  0  0
  8 11  1  0  0  0  0
 11 32  1  0  0  0  0
 11 33  1  0  0  0  0
 12 13  1  0  0  0  0
 12 34  1  0  0  0  0
 13 18  1  0  0  0  0
 13 14  2  0  0  0  0
 14 15  1  0  0  0  0
 14 35  1  0  0  0  0
 15 16  2  0  0  0  0
 15 36  1  0  0  0  0
 16 17  1  0  0  0  0
 16 37  1  0  0  0  0
 17 18  2  0  0  0  0
 18 19  1  0  0  0  0
 19 23  1  0  0  0  0
 19 20  1  0  0  0  0
 20 21  1  0  0  0  0
 20 38  1  0  0  0  0
 20 39  1  0  0  0  0
 21 22  1  0  0  0  0
 21 40  1  0  0  0  0
 21 41  1  0  0  0  0
 22 23  1  0  0  0  0
 22 42  1  0  0  0  0
 22 43  1  0  0  0  0
 23 44  1  0  0  0  0
 23 45  1  0  0  0  0
M  END
> <s_m_source_file>
AV-unprocessed.smi

> <i_m_source_file_index>
1424

> <i_lp_mmshare_version>
43012

> <i_f3d_flags>
0

> <s_epik_input>
Tz1TMSg9TylbQ0gyXVtDSDJdW0NASF0oW0NIMl0xKVtDSDJdW05IXUMoPU8pW05IXWMyW2NIXVtjSF1bY0hdbmMyTjNbQ0gyXVtDSDJdW0NIMl1bQ0gyXTM=

> <s_epik_cmdline>
J2VwaWtfcHl0aG9uJywgJy1waCcsICc3LjAnLCAnLXRuJywgJzgnLCAnLW1hJywgJzIwMCcsICctbWV0YWxfYmluZGluZycsICctaW1hZScsICc8aW5maWxlLm1hZT4nLCAnLW9tYWUnLCAnPG91dGZpbGUubWFlPic=

> <r_lp_tautomer_probability>
1

> <r_epik_Ionization_Penalty>
0.0965651

> <r_epik_Ionization_Penalty_Charging>
0

> <r_epik_Ionization_Penalty_Neutral>
0.0965651

> <r_epik_State_Penalty>
0.0861592

> <r_epik_Charging_Adjusted_Penalty>
0.0861592

> <i_epik_Tot_Q>
0

> <i_epik_Tot_abs_Q>
0

> <r_epik_Metal_State_Penalty>
0.0740444

> <b_epik_Metal_Only>
0

> <s_lp_Force_Field>
OPLS_2005

> <r_lp_Energy>
33.9356

> <b_lp_Chiralities_Consistent>
1

> <s_lp_Variant>
AV-unprocessed.smi:1424-1

> <Gold.Version>
5.8.1

> <Gold.Id.Protein>
6NUR|6NUR_protein|mol2

> <Gold.PLP.Fitness>
42.6629

> <Gold.PLP.PLP>
-42.1116

> <Gold.PLP.part.hbond>
-0.2528

> <Gold.PLP.part.metal>
0.0000

> <Gold.PLP.part.buried>
-4.4012

> <Gold.PLP.part.nonpolar>
-38.3078

> <Gold.PLP.part.repulsive>
0.3051

> <Gold.PLP.ligand.clash>
0.0233

> <Gold.PLP.ligand.torsion>
1.0556

> <Gold.PLP.Chemscore.Hbond>
0.0000

> <Gold.PLP.Chemscore.CHOScore>
0.8564

> <Gold.PLP.Chemscore.Metal>
0.0000

> <Gold.Chemscore.Hbonds>
donor molecule, donor type, donor heavy atom, donor atom, acceptor molecule, acceptor atom, score
      L1  C    16    37       P1  8028  0.87

> <Gold.PLP.Chemscore.Internal.Correction>
0.1168

> <Gold.Rescore>
     Score         DG    S(hbond)    S(metal)    S(lipo)     H(rot)  DE(clash)    DE(int)     intcor
     10.34     -13.14       0.00        0.00      97.77       1.47       0.14       2.66       ----

> <Gold.Chemscore.Fitness>
10.3394

> <Gold.Chemscore.DG>
-13.1442

> <Gold.Chemscore.ZeroCoef>
-5.4800

> <Gold.Chemscore.Hbond>
0.0000

> <Gold.Chemscore.Metal>
0.0000

> <Gold.Chemscore.Lipo>
97.7661

> <Gold.Chemscore.Internal_Hbond>
0.0000

> <Gold.Chemscore.DEClash>
0.1440

> <Gold.Chemscore.DEInternal>
2.6608

> <Gold.Chemscore.Rot>
1.4744

> <Gold.Chemscore.Internal.Correction>
   9.000000E+99

> <Gold.Chemscore.Hbond.Weighted>
-0.0000

> <Gold.Chemscore.Metal.Weighted>
-0.0000

> <Gold.Chemscore.Lipo.Weighted>
-11.4386

> <Gold.Chemscore.Internal_Hbond.Weighted>
0.0000

> <Gold.Chemscore.DEClash.Weighted>
0.1440

> <Gold.Chemscore.DEInternal.Weighted>
2.6608

> <Gold.Chemscore.Rot.Weighted>
3.7744

> <Gold.Chemscore.Internal.Correction.Weighted>
   9.000000E+99

> <Gold.Protein.RotatedTorsions>
[ 6907 6896 6895 6894 ] final  171.92 input  -60.11 | X-H torsion
[ 7974 7965 7964 7962 ] final -125.88 input  175.53 | X-H torsion
[ 8008 7997 7996 7995 ] final  174.84 input   59.86 | X-H torsion
[ 10167 10162 10161 10158 ] final  121.34 input  -65.29 | X-H torsion
[ 10718 10713 10712 10709 ] final -138.92 input   66.30 | X-H torsion
[ 10763 10752 10751 10750 ] final -141.29 input  -60.55 | X-H torsion
[ 11005 11000 10999 10996 ] final  -68.01 input  -57.11 | X-H torsion

> <Gold.Protein.ActiveResidues>
 VAL166  LYS551  ARG553  GLY616  TRP617  ASP618  TYR619  PRO620  LYS621  CYS622 
 ASP623  PHE694  ASN695  SER759  ASP760  ASP761  ALA762  ILE779  LEU786  VAL792 
 PHE793  MET794  SER795  GLU796  ALA797  LYS798  CYS799  TRP800  GLU811  SER814 

> <Gold.Protein.RotatedAtoms>
  151.7926  133.3361  159.3503 H   0  0  0  0  0  0  0  0  0  0  0  0  # atno 6907 bound_to 6896
  150.7386  134.5828  159.5957 H   0  0  0  0  0  0  0  0  0  0  0  0  # atno 6908 bound_to 6896
  152.3199  134.7394  160.0367 H   0  0  0  0  0  0  0  0  0  0  0  0  # atno 6909 bound_to 6896
  144.9930  140.7750  143.4542 H   0  0  0  0  0  0  0  0  0  0  0  0  # atno 7974 bound_to 7965
  156.0932  140.1424  156.9564 H   0  0  0  0  0  0  0  0  0  0  0  0  # atno 8008 bound_to 7997
  154.4655  140.0928  156.7055 H   0  0  0  0  0  0  0  0  0  0  0  0  # atno 8009 bound_to 7997
  155.4884  140.3447  155.4353 H   0  0  0  0  0  0  0  0  0  0  0  0  # atno 8010 bound_to 7997
  139.5926  144.7030  151.3253 H   0  0  0  0  0  0  0  0  0  0  0  0  # atno 10167 bound_to 10162
  156.3048  130.7449  151.1510 H   0  0  0  0  0  0  0  0  0  0  0  0  # atno 10718 bound_to 10713
  154.8550  135.3528  154.5844 H   0  0  0  0  0  0  0  0  0  0  0  0  # atno 10763 bound_to 10752
  153.6455  135.6996  153.5231 H   0  0  0  0  0  0  0  0  0  0  0  0  # atno 10764 bound_to 10752
  153.2936  135.4227  155.1148 H   0  0  0  0  0  0  0  0  0  0  0  0  # atno 10765 bound_to 10752
  141.1522  133.6731  156.6381 H   0  0  0  0  0  0  0  0  0  0  0  0  # atno 11005 bound_to 11000
  145.2258  139.2137  143.5069 LP  0  0  0  0  0  0  0  0  0  0  0  0  # atno 17320 bound_to 7965
  146.3436  140.2126  142.8590 LP  0  0  0  0  0  0  0  0  0  0  0  0  # atno 17321 bound_to 7965
  140.7185  143.7199  150.7703 LP  0  0  0  0  0  0  0  0  0  0  0  0  # atno 17342 bound_to 10162
  140.0759  143.5016  152.2556 LP  0  0  0  0  0  0  0  0  0  0  0  0  # atno 17343 bound_to 10162
  157.7377  131.0549  150.5340 LP  0  0  0  0  0  0  0  0  0  0  0  0  # atno 17370 bound_to 10713
  156.5472  130.4222  149.6125 LP  0  0  0  0  0  0  0  0  0  0  0  0  # atno 17371 bound_to 10713
  140.3415  134.7845  157.4401 LP  0  0  0  0  0  0  0  0  0  0  0  0  # atno 17394 bound_to 11000
  140.0934  134.5570  155.8422 LP  0  0  0  0  0  0  0  0  0  0  0  0  # atno 17395 bound_to 11000

$$$$
