AV-unprocessed.smi:682|AV-procd|sdf|3328|dock5
  -GOLD-   22720 0293D 1   1.00000     0.00000
 Structure written by MMmdl.
 41 42  0  0  0  0  0  0  0  0  1 V2000
  138.9832  140.3660  156.8023 C   0  0  0  0  0  0  0  0  0  0  0  0
  139.1055  139.3018  155.8664 O   0  0  0  0  0  0  0  0  0  0  0  0
  139.5271  139.6383  154.5373 C   0  0  1  0  0  0  0  0  0  0  0  0
  138.5537  140.6390  153.9020 C   0  0  0  0  0  0  0  0  0  0  0  0
  141.0387  139.9371  154.5163 C   0  0  0  0  0  0  0  0  0  0  0  0
  141.2593  138.4287  154.4237 C   0  0  2  0  0  0  0  0  0  0  0  0
  142.3752  138.0740  153.5533 N   0  0  0  0  0  0  0  0  0  0  0  0
  142.8545  136.8313  153.4115 C   0  0  0  0  0  0  0  0  0  0  0  0
  142.4000  135.8552  154.0083 O   0  0  0  0  0  0  0  0  0  0  0  0
  143.8769  136.7987  152.5422 N   0  0  0  0  0  0  0  0  0  0  0  0
  144.6182  135.6621  152.1346 C   0  0  0  0  0  0  0  0  0  0  0  0
  146.0287  135.4894  152.0451 C   0  0  0  0  0  0  0  0  0  0  0  0
  146.3320  134.2716  151.6212 N   0  0  0  0  0  0  0  0  0  0  0  0
  145.1391  133.6562  151.4355 N   0  0  0  0  0  0  0  0  0  0  0  0
  145.1140  132.2871  150.9668 C   0  0  0  0  0  0  0  0  0  0  0  0
  144.0724  134.4773  151.7416 C   0  0  0  0  0  0  0  0  0  0  0  0
  139.8564  138.3139  153.7733 C   0  0  0  0  0  0  0  0  0  0  0  0
  139.0380  137.0771  154.1601 C   0  0  0  0  0  0  0  0  0  0  0  0
  139.7966  138.3897  152.2357 C   0  0  0  0  0  0  0  0  0  0  0  0
  138.8103  139.9486  157.7941 H   0  0  0  0  0  0  0  0  0  0  0  0
  138.1333  141.0082  156.5719 H   0  0  0  0  0  0  0  0  0  0  0  0
  139.8816  140.9797  156.8556 H   0  0  0  0  0  0  0  0  0  0  0  0
  138.7947  140.8323  152.8573 H   0  0  0  0  0  0  0  0  0  0  0  0
  138.5811  141.6069  154.4013 H   0  0  0  0  0  0  0  0  0  0  0  0
  137.5283  140.2709  153.9373 H   0  0  0  0  0  0  0  0  0  0  0  0
  141.3498  140.4808  153.6225 H   0  0  0  0  0  0  0  0  0  0  0  0
  141.4533  140.3940  155.4140 H   0  0  0  0  0  0  0  0  0  0  0  0
  141.3080  137.9682  155.4135 H   0  0  0  0  0  0  0  0  0  0  0  0
  142.8055  138.8206  153.0276 H   0  0  0  0  0  0  0  0  0  0  0  0
  144.1517  137.6771  152.1275 H   0  0  0  0  0  0  0  0  0  0  0  0
  146.8293  136.1796  152.2659 H   0  0  0  0  0  0  0  0  0  0  0  0
  144.0887  131.9836  150.7531 H   0  0  0  0  0  0  0  0  0  0  0  0
  145.5273  131.6290  151.7316 H   0  0  0  0  0  0  0  0  0  0  0  0
  145.7068  132.1964  150.0559 H   0  0  0  0  0  0  0  0  0  0  0  0
  143.0453  134.1543  151.6548 H   0  0  0  0  0  0  0  0  0  0  0  0
  139.3811  136.1871  153.6313 H   0  0  0  0  0  0  0  0  0  0  0  0
  137.9808  137.2114  153.9302 H   0  0  0  0  0  0  0  0  0  0  0  0
  139.1138  136.8543  155.2244 H   0  0  0  0  0  0  0  0  0  0  0  0
  140.2016  137.4898  151.7719 H   0  0  0  0  0  0  0  0  0  0  0  0
  140.3646  139.2327  151.8419 H   0  0  0  0  0  0  0  0  0  0  0  0
  138.7713  138.4996  151.8813 H   0  0  0  0  0  0  0  0  0  0  0  0
  1  2  1  0  0  0  0
  1 20  1  0  0  0  0
  1 21  1  0  0  0  0
  1 22  1  0  0  0  0
  2  3  1  0  0  0  0
  3 17  1  0  0  0  0
  3  4  1  0  0  0  0
  3  5  1  0  0  0  0
  4 23  1  0  0  0  0
  4 24  1  0  0  0  0
  4 25  1  0  0  0  0
  5  6  1  0  0  0  0
  5 26  1  0  0  0  0
  5 27  1  0  0  0  0
  6  7  1  0  0  0  0
  6 17  1  0  0  0  0
  6 28  1  0  0  0  0
  7  8  1  0  0  0  0
  7 29  1  0  0  0  0
  8  9  2  0  0  0  0
  8 10  1  0  0  0  0
 10 11  1  0  0  0  0
 10 30  1  0  0  0  0
 11 16  2  0  0  0  0
 11 12  1  0  0  0  0
 12 13  2  0  0  0  0
 12 31  1  0  0  0  0
 13 14  1  0  0  0  0
 14 15  1  0  0  0  0
 14 16  1  0  0  0  0
 15 32  1  0  0  0  0
 15 33  1  0  0  0  0
 15 34  1  0  0  0  0
 16 35  1  0  0  0  0
 17 18  1  0  0  0  0
 17 19  1  0  0  0  0
 18 36  1  0  0  0  0
 18 37  1  0  0  0  0
 18 38  1  0  0  0  0
 19 39  1  0  0  0  0
 19 40  1  0  0  0  0
 19 41  1  0  0  0  0
M  END
> <s_m_source_file>
AV-unprocessed.smi

> <i_m_source_file_index>
682

> <i_lp_mmshare_version>
43012

> <i_f3d_flags>
0

> <s_epik_input>
W0NIM11PW0NAQF0xKFtDSDNdKVtDSDJdW0NASF0oQzEoW0NIM10pW0NIM10pW05IXUMoPU8pW05IXWMyW2NIXW5uKFtDSDNdKVtjSF0y

> <s_epik_cmdline>
J2VwaWtfcHl0aG9uJywgJy1waCcsICc3LjAnLCAnLXRuJywgJzgnLCAnLW1hJywgJzIwMCcsICctbWV0YWxfYmluZGluZycsICctaW1hZScsICc8aW5maWxlLm1hZT4nLCAnLW9tYWUnLCAnPG91dGZpbGUubWFlPic=

> <r_lp_tautomer_probability>
1

> <r_epik_Ionization_Penalty>
0.000192302

> <r_epik_Ionization_Penalty_Charging>
0

> <r_epik_Ionization_Penalty_Neutral>
0.000192302

> <r_epik_State_Penalty>
-0

> <r_epik_Charging_Adjusted_Penalty>
0

> <i_epik_Tot_Q>
0

> <i_epik_Tot_abs_Q>
0

> <r_epik_Metal_State_Penalty>
-0

> <b_epik_Metal_Only>
0

> <s_lp_Force_Field>
OPLS_2005

> <r_lp_Energy>
24.1869

> <b_lp_Chiralities_Consistent>
1

> <s_lp_Variant>
AV-unprocessed.smi:682-3

> <Gold.Version>
5.8.1

> <Gold.Id.Protein>
6NUR|6NUR_protein|mol2

> <Gold.PLP.Fitness>
36.7403

> <Gold.PLP.PLP>
-26.3154

> <Gold.PLP.part.hbond>
-2.0000

> <Gold.PLP.part.metal>
0.0000

> <Gold.PLP.part.buried>
-1.3102

> <Gold.PLP.part.nonpolar>
-23.2668

> <Gold.PLP.part.repulsive>
0.3667

> <Gold.PLP.ligand.clash>
0.0000

> <Gold.PLP.ligand.torsion>
0.7036

> <Gold.PLP.Chemscore.Hbond>
1.8240

> <Gold.PLP.Chemscore.CHOScore>
1.9954

> <Gold.PLP.Chemscore.Metal>
0.0000

> <Gold.Chemscore.Hbonds>
donor molecule, donor type, donor heavy atom, donor atom, acceptor molecule, acceptor atom, score
      L1  H     7    29       P1 10175  1.00
      L1  C    12    31       P1  7948  1.00
      L1  C    16    35       P1 10186  0.01

> <Gold.PLP.Chemscore.Internal.Correction>
0.3738

> <Gold.Rescore>
     Score         DG    S(hbond)    S(metal)    S(lipo)     H(rot)  DE(clash)    DE(int)     intcor
     14.05     -16.07       1.79        0.00      66.27       1.23       1.32       0.69       ----

> <Gold.Chemscore.Fitness>
14.0482

> <Gold.Chemscore.DG>
-16.0669

> <Gold.Chemscore.ZeroCoef>
-5.4800

> <Gold.Chemscore.Hbond>
1.7938

> <Gold.Chemscore.Metal>
0.0000

> <Gold.Chemscore.Lipo>
66.2720

> <Gold.Chemscore.Internal_Hbond>
0.0000

> <Gold.Chemscore.DEClash>
1.3239

> <Gold.Chemscore.DEInternal>
0.6948

> <Gold.Chemscore.Rot>
1.2336

> <Gold.Chemscore.Internal.Correction>
   9.000000E+99

> <Gold.Chemscore.Hbonds>
donor molecule, donor type, donor heavy atom, donor atom, acceptor molecule, acceptor atom, score
      L1  H     7    29       P1 10175  1.00
      L1  H    10    30       P1 10171  0.01

> <Gold.Chemscore.Hbond.Weighted>
-5.9911

> <Gold.Chemscore.Metal.Weighted>
-0.0000

> <Gold.Chemscore.Lipo.Weighted>
-7.7538

> <Gold.Chemscore.Internal_Hbond.Weighted>
0.0000

> <Gold.Chemscore.DEClash.Weighted>
1.3239

> <Gold.Chemscore.DEInternal.Weighted>
0.6948

> <Gold.Chemscore.Rot.Weighted>
3.1581

> <Gold.Chemscore.Internal.Correction.Weighted>
   9.000000E+99

> <Gold.Protein.RotatedTorsions>
[ 6907 6896 6895 6894 ] final   33.29 input  -60.11 | X-H torsion
[ 7974 7965 7964 7962 ] final  -66.18 input  175.53 | X-H torsion
[ 8008 7997 7996 7995 ] final  -31.33 input   59.86 | X-H torsion
[ 10167 10162 10161 10158 ] final    4.94 input  -65.29 | X-H torsion
[ 10718 10713 10712 10709 ] final -122.83 input   66.30 | X-H torsion
[ 10763 10752 10751 10750 ] final  -38.09 input  -60.55 | X-H torsion
[ 11005 11000 10999 10996 ] final -127.97 input  -57.11 | X-H torsion

> <Gold.Protein.ActiveResidues>
 VAL166  LYS551  ARG553  GLY616  TRP617  ASP618  TYR619  PRO620  LYS621  CYS622 
 ASP623  PHE694  ASN695  SER759  ASP760  ASP761  ALA762  ILE779  LEU786  VAL792 
 PHE793  MET794  SER795  GLU796  ALA797  LYS798  CYS799  TRP800  GLU811  SER814 

> <Gold.Protein.RotatedAtoms>
  152.0864  134.9437  160.0572 H   0  0  0  0  0  0  0  0  0  0  0  0  # atno 6907 bound_to 6896
  152.0705  133.4099  159.4465 H   0  0  0  0  0  0  0  0  0  0  0  0  # atno 6908 bound_to 6896
  150.6836  134.3017  159.4752 H   0  0  0  0  0  0  0  0  0  0  0  0  # atno 6909 bound_to 6896
  145.7450  140.8935  143.0510 H   0  0  0  0  0  0  0  0  0  0  0  0  # atno 7974 bound_to 7965
  154.4217  140.1767  156.1550 H   0  0  0  0  0  0  0  0  0  0  0  0  # atno 8008 bound_to 7997
  155.9884  140.3371  155.6705 H   0  0  0  0  0  0  0  0  0  0  0  0  # atno 8009 bound_to 7997
  155.6405  140.0679  157.2610 H   0  0  0  0  0  0  0  0  0  0  0  0  # atno 8010 bound_to 7997
  140.6508  143.7549  150.7572 H   0  0  0  0  0  0  0  0  0  0  0  0  # atno 10167 bound_to 10162
  156.1451  130.6494  150.9831 H   0  0  0  0  0  0  0  0  0  0  0  0  # atno 10718 bound_to 10713
  153.9071  135.6796  153.4752 H   0  0  0  0  0  0  0  0  0  0  0  0  # atno 10763 bound_to 10752
  153.1098  135.4788  154.9013 H   0  0  0  0  0  0  0  0  0  0  0  0  # atno 10764 bound_to 10752
  154.7546  135.3194  154.8449 H   0  0  0  0  0  0  0  0  0  0  0  0  # atno 10765 bound_to 10752
  140.9555  134.1007  157.4020 H   0  0  0  0  0  0  0  0  0  0  0  0  # atno 11005 bound_to 11000
  144.6862  139.9513  143.7478 LP  0  0  0  0  0  0  0  0  0  0  0  0  # atno 17320 bound_to 7965
  146.0411  139.3423  143.0696 LP  0  0  0  0  0  0  0  0  0  0  0  0  # atno 17321 bound_to 7965
  140.1199  143.4621  152.2319 LP  0  0  0  0  0  0  0  0  0  0  0  0  # atno 17342 bound_to 10162
  139.5723  144.7469  151.3857 LP  0  0  0  0  0  0  0  0  0  0  0  0  # atno 17343 bound_to 10162
  157.6610  131.0881  150.7839 LP  0  0  0  0  0  0  0  0  0  0  0  0  # atno 17370 bound_to 10713
  156.7911  130.4890  149.5385 LP  0  0  0  0  0  0  0  0  0  0  0  0  # atno 17371 bound_to 10713
  139.8861  135.0078  156.6476 LP  0  0  0  0  0  0  0  0  0  0  0  0  # atno 17394 bound_to 11000
  140.7542  133.8872  155.8369 LP  0  0  0  0  0  0  0  0  0  0  0  0  # atno 17395 bound_to 11000

$$$$
