AV-unprocessed.smi:2202|AV-procd|sdf|8929|dock5
  -GOLD-   2272012143D 1   1.00000     0.00000
 Structure written by MMmdl.
 42 44  0  0  0  0  0  0  0  0  1 V2000
  152.8761  139.0247  156.4985 O   0  0  0  0  0  0  0  0  0  0  0  0
  151.8970  139.2868  157.1989 C   0  0  0  0  0  0  0  0  0  0  0  0
  150.5090  138.7204  156.8647 C   0  0  0  0  0  0  0  0  0  0  0  0
  149.6565  139.6630  156.1255 N   0  0  0  0  0  0  0  0  0  0  0  0
  148.5130  140.1725  156.6015 C   0  0  0  0  0  0  0  0  0  0  0  0
  148.0104  139.9162  157.6962 O   0  0  0  0  0  0  0  0  0  0  0  0
  147.8823  141.1549  155.6118 C   0  0  2  0  0  0  0  0  0  0  0  0
  146.4224  140.7601  155.2660 C   0  0  0  0  0  0  0  0  0  0  0  0
  146.3432  139.6961  154.1909 C   0  0  0  0  0  0  0  0  0  0  0  0
  147.2104  139.6768  153.1701 C   0  0  0  0  0  0  0  0  0  0  0  0
  148.3041  140.7179  153.0508 C   0  0  0  0  0  0  0  0  0  0  0  0
  148.8886  141.1335  154.4268 C   0  0  2  0  0  0  0  0  0  0  0  0
  149.9504  140.1431  154.9103 C   0  0  0  0  0  0  0  0  0  0  0  0
  150.9453  139.8565  154.2437 O   0  0  0  0  0  0  0  0  0  0  0  0
  151.9624  140.0763  158.2814 N   0  0  0  0  0  0  0  0  0  0  0  0
  153.1761  140.7217  158.7687 C   0  0  0  0  0  0  0  0  0  0  0  0
  152.9104  141.5316  160.0490 C   0  0  0  0  0  0  0  0  0  0  0  0
  151.9504  142.6814  159.8116 C   0  0  0  0  0  0  0  0  0  0  0  0
  152.2266  143.6634  158.8362 C   0  0  0  0  0  0  0  0  0  0  0  0
  151.2972  144.7057  158.6523 C   0  0  0  0  0  0  0  0  0  0  0  0
  150.1336  144.7250  159.4455 C   0  0  0  0  0  0  0  0  0  0  0  0
  149.9501  143.6964  160.3912 C   0  0  0  0  0  0  0  0  0  0  0  0
  150.8342  142.6924  160.5747 N   0  0  0  0  0  0  0  0  0  0  0  0
  150.6326  137.8004  156.2905 H   0  0  0  0  0  0  0  0  0  0  0  0
  150.0215  138.4231  157.7947 H   0  0  0  0  0  0  0  0  0  0  0  0
  147.8842  142.1380  156.0848 H   0  0  0  0  0  0  0  0  0  0  0  0
  145.8921  140.4067  156.1514 H   0  0  0  0  0  0  0  0  0  0  0  0
  145.8730  141.6341  154.9150 H   0  0  0  0  0  0  0  0  0  0  0  0
  145.5329  138.9836  154.2421 H   0  0  0  0  0  0  0  0  0  0  0  0
  147.1162  138.9484  152.3779 H   0  0  0  0  0  0  0  0  0  0  0  0
  149.0852  140.3342  152.3933 H   0  0  0  0  0  0  0  0  0  0  0  0
  147.8856  141.5886  152.5451 H   0  0  0  0  0  0  0  0  0  0  0  0
  149.3728  142.1062  154.3303 H   0  0  0  0  0  0  0  0  0  0  0  0
  151.1138  140.2419  158.8033 H   0  0  0  0  0  0  0  0  0  0  0  0
  153.9184  139.9479  158.9666 H   0  0  0  0  0  0  0  0  0  0  0  0
  153.5951  141.3614  157.9898 H   0  0  0  0  0  0  0  0  0  0  0  0
  152.4961  140.8873  160.8260 H   0  0  0  0  0  0  0  0  0  0  0  0
  153.8490  141.9221  160.4446 H   0  0  0  0  0  0  0  0  0  0  0  0
  153.1276  143.6203  158.2419 H   0  0  0  0  0  0  0  0  0  0  0  0
  151.4734  145.4763  157.9164 H   0  0  0  0  0  0  0  0  0  0  0  0
  149.3993  145.5087  159.3323 H   0  0  0  0  0  0  0  0  0  0  0  0
  149.0697  143.6790  161.0165 H   0  0  0  0  0  0  0  0  0  0  0  0
  1  2  2  0  0  0  0
  2  3  1  0  0  0  0
  2 15  1  0  0  0  0
  3  4  1  0  0  0  0
  3 24  1  0  0  0  0
  3 25  1  0  0  0  0
  4 13  1  0  0  0  0
  4  5  1  0  0  0  0
  5  6  2  0  0  0  0
  5  7  1  0  0  0  0
  7 12  1  0  0  0  0
  7  8  1  0  0  0  0
  7 26  1  0  0  0  0
  8  9  1  0  0  0  0
  8 27  1  0  0  0  0
  8 28  1  0  0  0  0
  9 10  2  0  0  0  0
  9 29  1  0  0  0  0
 10 11  1  0  0  0  0
 10 30  1  0  0  0  0
 11 12  1  0  0  0  0
 11 31  1  0  0  0  0
 11 32  1  0  0  0  0
 12 13  1  0  0  0  0
 12 33  1  0  0  0  0
 13 14  2  0  0  0  0
 15 16  1  0  0  0  0
 15 34  1  0  0  0  0
 16 17  1  0  0  0  0
 16 35  1  0  0  0  0
 16 36  1  0  0  0  0
 17 18  1  0  0  0  0
 17 37  1  0  0  0  0
 17 38  1  0  0  0  0
 18 23  1  0  0  0  0
 18 19  2  0  0  0  0
 19 20  1  0  0  0  0
 19 39  1  0  0  0  0
 20 21  2  0  0  0  0
 20 40  1  0  0  0  0
 21 22  1  0  0  0  0
 21 41  1  0  0  0  0
 22 23  2  0  0  0  0
 22 42  1  0  0  0  0
M  END
> <s_m_source_file>
AV-unprocessed.smi

> <i_m_source_file_index>
2202

> <i_lp_mmshare_version>
43012

> <i_f3d_flags>
0

> <s_epik_input>
W0NIMl0xW0NIXT1bQ0hdW0NIMl1bQ0BIXShbQ0BIXTEyKUMoPU8pTihDMj1PKVtDSDJdQyg9TylbTkhdW0NIMl1bQ0gyXWMzW2NIXVtjSF1bY0hdW2NIXW4z

> <s_epik_cmdline>
J2VwaWtfcHl0aG9uJywgJy1waCcsICc3LjAnLCAnLXRuJywgJzgnLCAnLW1hJywgJzIwMCcsICctbWV0YWxfYmluZGluZycsICctaW1hZScsICc8aW5maWxlLm1hZT4nLCAnLW9tYWUnLCAnPG91dGZpbGUubWFlPic=

> <r_lp_tautomer_probability>
1

> <r_epik_Ionization_Penalty>
0.0244696

> <r_epik_Ionization_Penalty_Charging>
0

> <r_epik_Ionization_Penalty_Neutral>
0.0244696

> <r_epik_State_Penalty>
0.0198648

> <r_epik_Charging_Adjusted_Penalty>
0.0198648

> <i_epik_Tot_Q>
0

> <i_epik_Tot_abs_Q>
0

> <r_epik_Metal_State_Penalty>
0.0190699

> <b_epik_Metal_Only>
0

> <s_lp_Force_Field>
OPLS_2005

> <r_lp_Energy>
13.8656

> <b_lp_Chiralities_Consistent>
1

> <s_lp_Variant>
AV-unprocessed.smi:2202-1

> <Gold.Version>
5.8.1

> <Gold.Id.Protein>
6NUR|6NUR_protein|mol2

> <Gold.PLP.Fitness>
49.4262

> <Gold.PLP.PLP>
-44.0555

> <Gold.PLP.part.hbond>
-3.9167

> <Gold.PLP.part.metal>
0.0000

> <Gold.PLP.part.buried>
-2.2460

> <Gold.PLP.part.nonpolar>
-38.9207

> <Gold.PLP.part.repulsive>
0.2961

> <Gold.PLP.ligand.clash>
0.0000

> <Gold.PLP.ligand.torsion>
0.3395

> <Gold.PLP.Chemscore.Hbond>
2.0000

> <Gold.PLP.Chemscore.CHOScore>
0.0000

> <Gold.PLP.Chemscore.Metal>
0.0000

> <Gold.Chemscore.Hbonds>
donor molecule, donor type, donor heavy atom, donor atom, acceptor molecule, acceptor atom, score
      P1  H  7989  7998       L1    14  0.75
      P1  H  7997  8010       L1     1  0.98

> <Gold.PLP.Chemscore.Internal.Correction>
0.0496

> <Gold.Rescore>
     Score         DG    S(hbond)    S(metal)    S(lipo)     H(rot)  DE(clash)    DE(int)     intcor
     18.92     -20.10       1.97        0.00     109.27       1.85       0.78       0.40       ----

> <Gold.Chemscore.Fitness>
18.9240

> <Gold.Chemscore.DG>
-20.0982

> <Gold.Chemscore.ZeroCoef>
-5.4800

> <Gold.Chemscore.Hbond>
1.9700

> <Gold.Chemscore.Metal>
0.0000

> <Gold.Chemscore.Lipo>
109.2708

> <Gold.Chemscore.Internal_Hbond>
0.0000

> <Gold.Chemscore.DEClash>
0.7776

> <Gold.Chemscore.DEInternal>
0.3966

> <Gold.Chemscore.Rot>
1.8540

> <Gold.Chemscore.Internal.Correction>
   9.000000E+99

> <Gold.Chemscore.Hbonds>
donor molecule, donor type, donor heavy atom, donor atom, acceptor molecule, acceptor atom, score
      P1  H  7989  7998       L1    14  0.74
      P1  H  7997  8010       L1     1  0.87

> <Gold.Chemscore.Hbond.Weighted>
-6.5797

> <Gold.Chemscore.Metal.Weighted>
-0.0000

> <Gold.Chemscore.Lipo.Weighted>
-12.7847

> <Gold.Chemscore.Internal_Hbond.Weighted>
0.0000

> <Gold.Chemscore.DEClash.Weighted>
0.7776

> <Gold.Chemscore.DEInternal.Weighted>
0.3966

> <Gold.Chemscore.Rot.Weighted>
4.7462

> <Gold.Chemscore.Internal.Correction.Weighted>
   9.000000E+99

> <Gold.Protein.RotatedTorsions>
[ 6907 6896 6895 6894 ] final  -38.54 input  -60.11 | X-H torsion
[ 7974 7965 7964 7962 ] final  129.41 input  175.53 | X-H torsion
[ 8008 7997 7996 7995 ] final   48.25 input   59.86 | X-H torsion
[ 10167 10162 10161 10158 ] final  -86.23 input  -65.29 | X-H torsion
[ 10718 10713 10712 10709 ] final  -31.60 input   66.30 | X-H torsion
[ 10763 10752 10751 10750 ] final   81.77 input  -60.55 | X-H torsion
[ 11005 11000 10999 10996 ] final  -36.71 input  -57.11 | X-H torsion

> <Gold.Protein.ActiveResidues>
 VAL166  LYS551  ARG553  GLY616  TRP617  ASP618  TYR619  PRO620  LYS621  CYS622 
 ASP623  PHE694  ASN695  SER759  ASP760  ASP761  ALA762  ILE779  LEU786  VAL792 
 PHE793  MET794  SER795  GLU796  ALA797  LYS798  CYS799  TRP800  GLU811  SER814 

> <Gold.Protein.RotatedAtoms>
  151.0012  134.9323  159.7954 H   0  0  0  0  0  0  0  0  0  0  0  0  # atno 6907 bound_to 6896
  152.5278  134.3152  159.9138 H   0  0  0  0  0  0  0  0  0  0  0  0  # atno 6908 bound_to 6896
  151.3158  133.4019  159.2685 H   0  0  0  0  0  0  0  0  0  0  0  0  # atno 6909 bound_to 6896
  145.0290  139.4063  143.5159 H   0  0  0  0  0  0  0  0  0  0  0  0  # atno 7974 bound_to 7965
  155.3825  140.3429  155.4247 H   0  0  0  0  0  0  0  0  0  0  0  0  # atno 8008 bound_to 7997
  156.1603  140.1598  156.8657 H   0  0  0  0  0  0  0  0  0  0  0  0  # atno 8009 bound_to 7997
  154.5133  140.0784  156.8014 H   0  0  0  0  0  0  0  0  0  0  0  0  # atno 8010 bound_to 7997
  140.3961  143.2683  151.9202 H   0  0  0  0  0  0  0  0  0  0  0  0  # atno 10167 bound_to 10162
  156.3852  130.4363  149.7437 H   0  0  0  0  0  0  0  0  0  0  0  0  # atno 10718 bound_to 10713
  153.1145  135.4753  154.9092 H   0  0  0  0  0  0  0  0  0  0  0  0  # atno 10763 bound_to 10752
  154.7514  135.3107  154.8552 H   0  0  0  0  0  0  0  0  0  0  0  0  # atno 10764 bound_to 10752
  153.9132  135.6863  153.4804 H   0  0  0  0  0  0  0  0  0  0  0  0  # atno 10765 bound_to 10752
  140.9896  133.7012  156.1826 H   0  0  0  0  0  0  0  0  0  0  0  0  # atno 11005 bound_to 11000
  146.3496  139.9829  142.8694 LP  0  0  0  0  0  0  0  0  0  0  0  0  # atno 17320 bound_to 7965
  145.1796  140.9760  143.4274 LP  0  0  0  0  0  0  0  0  0  0  0  0  # atno 17321 bound_to 7965
  139.4786  144.5680  151.8134 LP  0  0  0  0  0  0  0  0  0  0  0  0  # atno 17342 bound_to 10162
  140.4789  144.1479  150.5929 LP  0  0  0  0  0  0  0  0  0  0  0  0  # atno 17343 bound_to 10162
  156.4512  130.7907  151.2929 LP  0  0  0  0  0  0  0  0  0  0  0  0  # atno 17370 bound_to 10713
  157.7495  131.0095  150.3268 LP  0  0  0  0  0  0  0  0  0  0  0  0  # atno 17371 bound_to 10713
  140.7060  134.4512  157.5584 LP  0  0  0  0  0  0  0  0  0  0  0  0  # atno 17394 bound_to 11000
  139.8986  134.8610  156.1994 LP  0  0  0  0  0  0  0  0  0  0  0  0  # atno 17395 bound_to 11000

$$$$
