AV-unprocessed.smi:1406|AV-procd|sdf|5712|dock7
  -GOLD-   22720 5343D 1   1.00000     0.00000
 Structure written by MMmdl.
 41 43  0  0  0  0  0  0  0  0  2 V2000
  143.6664  136.1917  157.0730 C   0  0  0  0  0  0  0  0  0  0  0  0
  143.8082  134.9947  156.1106 C   0  0  1  0  0  0  0  0  0  0  0  0
  143.5370  135.3706  154.6401 C   0  0  0  0  0  0  0  0  0  0  0  0
  143.3766  136.5464  154.3107 O   0  0  0  0  0  0  0  0  0  0  0  0
  143.4625  134.3592  153.7588 N   0  0  0  0  0  0  0  0  0  0  0  0
  143.2204  134.5127  152.3275 C   0  0  1  0  0  0  0  0  0  0  0  0
  144.1093  135.5797  151.6754 C   0  0  0  0  0  0  0  0  0  0  0  0
  144.3349  135.0865  150.2352 C   0  0  0  0  0  0  0  0  0  0  0  0
  143.6331  133.7875  150.1285 N   0  3  1  0  0  0  0  0  0  0  0  0
  144.1435  132.8425  149.1024 C   0  0  0  0  0  0  0  0  0  0  0  0
  145.4101  132.0984  149.5576 C   0  0  0  0  0  0  0  0  0  0  0  0
  145.1805  131.4169  150.9105 C   0  0  0  0  0  0  0  0  0  0  0  0
  144.7636  132.4649  151.9473 C   0  0  0  0  0  0  0  0  0  0  0  0
  143.5016  133.2471  151.5003 C   0  0  1  0  0  0  0  0  0  0  0  0
  145.1035  134.3398  156.2662 N   0  0  0  0  0  0  0  0  0  0  0  0
  145.5971  133.2573  155.6607 C   0  0  0  0  0  0  0  0  0  0  0  0
  146.8389  132.9605  156.0168 N   0  0  0  0  0  0  0  0  0  0  0  0
  147.0686  133.9707  156.9076 C   0  0  0  0  0  0  0  0  0  0  0  0
  146.0652  134.8292  157.0881 N   0  0  0  0  0  0  0  0  0  0  0  0
  142.6639  136.6187  157.0312 H   0  0  0  0  0  0  0  0  0  0  0  0
  144.3755  136.9869  156.8387 H   0  0  0  0  0  0  0  0  0  0  0  0
  143.8430  135.8845  158.1042 H   0  0  0  0  0  0  0  0  0  0  0  0
  143.0465  134.2635  156.3850 H   0  0  0  0  0  0  0  0  0  0  0  0
  143.6025  133.4200  154.1023 H   0  0  0  0  0  0  0  0  0  0  0  0
  142.1801  134.8065  152.1711 H   0  0  0  0  0  0  0  0  0  0  0  0
  143.6424  136.5649  151.7058 H   0  0  0  0  0  0  0  0  0  0  0  0
  145.0685  135.6565  152.1900 H   0  0  0  0  0  0  0  0  0  0  0  0
  143.9388  135.7857  149.4981 H   0  0  0  0  0  0  0  0  0  0  0  0
  145.4023  134.9713  150.0444 H   0  0  0  0  0  0  0  0  0  0  0  0
  143.3567  132.1156  148.8975 H   0  0  0  0  0  0  0  0  0  0  0  0
  144.3238  133.3743  148.1676 H   0  0  0  0  0  0  0  0  0  0  0  0
  145.6920  131.3558  148.8105 H   0  0  0  0  0  0  0  0  0  0  0  0
  146.2485  132.7917  149.6313 H   0  0  0  0  0  0  0  0  0  0  0  0
  144.4074  130.6529  150.8195 H   0  0  0  0  0  0  0  0  0  0  0  0
  146.0890  130.9081  151.2345 H   0  0  0  0  0  0  0  0  0  0  0  0
  144.5828  131.9757  152.9049 H   0  0  0  0  0  0  0  0  0  0  0  0
  145.5961  133.1512  152.1080 H   0  0  0  0  0  0  0  0  0  0  0  0
  142.6430  132.5746  151.5321 H   0  0  0  0  0  0  0  0  0  0  0  0
  145.0395  132.6782  154.9392 H   0  0  0  0  0  0  0  0  0  0  0  0
  148.0058  134.0807  157.4334 H   0  0  0  0  0  0  0  0  0  0  0  0
  142.6933  134.0276  149.8460 H   0  0  0  0  0  0  0  0  0  0  0  0
  1  2  1  0  0  0  0
  1 20  1  0  0  0  0
  1 21  1  0  0  0  0
  1 22  1  0  0  0  0
  2  3  1  0  0  0  0
  2 15  1  0  0  0  0
  2 23  1  0  0  0  0
  3  4  2  0  0  0  0
  3  5  1  0  0  0  0
  5  6  1  0  0  0  0
  5 24  1  0  0  0  0
  6 14  1  0  0  0  0
  6  7  1  0  0  0  0
  6 25  1  0  0  0  0
  7  8  1  0  0  0  0
  7 26  1  0  0  0  0
  7 27  1  0  0  0  0
  8  9  1  0  0  0  0
  8 28  1  0  0  0  0
  8 29  1  0  0  0  0
  9 14  1  0  0  0  0
  9 10  1  0  0  0  0
  9 41  1  0  0  0  0
 10 11  1  0  0  0  0
 10 30  1  0  0  0  0
 10 31  1  0  0  0  0
 11 12  1  0  0  0  0
 11 32  1  0  0  0  0
 11 33  1  0  0  0  0
 12 13  1  0  0  0  0
 12 34  1  0  0  0  0
 12 35  1  0  0  0  0
 13 14  1  0  0  0  0
 13 36  1  0  0  0  0
 13 37  1  0  0  0  0
 14 38  1  0  0  0  0
 15 19  1  0  0  0  0
 15 16  1  0  0  0  0
 16 17  2  0  0  0  0
 16 39  1  0  0  0  0
 17 18  1  0  0  0  0
 18 19  2  0  0  0  0
 18 40  1  0  0  0  0
M  CHG  1   9   1
M  END
> <s_m_source_file>
AV-unprocessed.smi

> <i_m_source_file_index>
1406

> <i_lp_mmshare_version>
43012

> <i_f3d_flags>
0

> <s_epik_input>
bjFbY0hdbltjSF1uMVtDQEhdKFtDSDNdKUMoPU8pW05IXVtDQEhdKFtDSDJdW0NIMl0yKVtDQEBIXShOMjMpW0NIMl1bQ0gyXVtDSDJdW0NIMl0z

> <s_epik_cmdline>
J2VwaWtfcHl0aG9uJywgJy1waCcsICc3LjAnLCAnLXRuJywgJzgnLCAnLW1hJywgJzIwMCcsICctbWV0YWxfYmluZGluZycsICctaW1hZScsICc8aW5maWxlLm1hZT4nLCAnLW9tYWUnLCAnPG91dGZpbGUubWFlPic=

> <r_lp_tautomer_probability>
1

> <r_epik_Ionization_Penalty>
0.00197066

> <r_epik_Ionization_Penalty_Charging>
0.00196223

> <r_epik_Ionization_Penalty_Neutral>
8.43107e-06

> <r_epik_State_Penalty>
0.00133866

> <r_epik_Charging_Adjusted_Penalty>
0.00330089

> <i_epik_Tot_Q>
1

> <i_epik_Tot_abs_Q>
1

> <r_epik_Metal_State_Penalty>
-0

> <b_epik_Metal_Only>
0

> <s_lp_Force_Field>
OPLS_2005

> <r_lp_Energy>
42.4798

> <b_lp_Chiralities_Consistent>
1

> <s_lp_Variant>
AV-unprocessed.smi:1406-4

> <Gold.Version>
5.8.1

> <Gold.Id.Protein>
6NUR|6NUR_protein|mol2

> <Gold.PLP.Fitness>
38.2247

> <Gold.PLP.PLP>
-26.9111

> <Gold.PLP.part.hbond>
-2.0000

> <Gold.PLP.part.metal>
0.0000

> <Gold.PLP.part.buried>
-3.9210

> <Gold.PLP.part.nonpolar>
-20.4904

> <Gold.PLP.part.repulsive>
0.0894

> <Gold.PLP.ligand.clash>
0.0000

> <Gold.PLP.ligand.torsion>
0.2375

> <Gold.PLP.Chemscore.Hbond>
2.8960

> <Gold.PLP.Chemscore.CHOScore>
1.0000

> <Gold.PLP.Chemscore.Metal>
0.0000

> <Gold.Chemscore.Hbonds>
donor molecule, donor type, donor heavy atom, donor atom, acceptor molecule, acceptor atom, score
      L1  H     5    24       P1 10957  0.90
      L1  H     9    41       P1 10186  2.00
      L1  C    16    39       P1 10957  1.00

> <Gold.PLP.Chemscore.Internal.Correction>
0.1006

> <Gold.Rescore>
     Score         DG    S(hbond)    S(metal)    S(lipo)     H(rot)  DE(clash)    DE(int)     intcor
     13.65     -15.37       1.95        0.00      70.05       1.89       0.04       1.68       ----

> <Gold.Chemscore.Fitness>
13.6507

> <Gold.Chemscore.DG>
-15.3658

> <Gold.Chemscore.ZeroCoef>
-5.4800

> <Gold.Chemscore.Hbond>
1.9520

> <Gold.Chemscore.Metal>
0.0000

> <Gold.Chemscore.Lipo>
70.0490

> <Gold.Chemscore.Internal_Hbond>
0.0000

> <Gold.Chemscore.DEClash>
0.0367

> <Gold.Chemscore.DEInternal>
1.6784

> <Gold.Chemscore.Rot>
1.8865

> <Gold.Chemscore.Internal.Correction>
   9.000000E+99

> <Gold.Chemscore.Hbonds>
donor molecule, donor type, donor heavy atom, donor atom, acceptor molecule, acceptor atom, score
      L1  H     5    24       P1 10957  0.82
      L1  H     9    41       P1 10186  1.00

> <Gold.Chemscore.Hbond.Weighted>
-6.5196

> <Gold.Chemscore.Metal.Weighted>
-0.0000

> <Gold.Chemscore.Lipo.Weighted>
-8.1957

> <Gold.Chemscore.Internal_Hbond.Weighted>
0.0000

> <Gold.Chemscore.DEClash.Weighted>
0.0367

> <Gold.Chemscore.DEInternal.Weighted>
1.6784

> <Gold.Chemscore.Rot.Weighted>
4.8295

> <Gold.Chemscore.Internal.Correction.Weighted>
   9.000000E+99

> <Gold.Protein.RotatedTorsions>
[ 6907 6896 6895 6894 ] final   45.39 input  -60.11 | X-H torsion
[ 7974 7965 7964 7962 ] final  -23.63 input  175.53 | X-H torsion
[ 8008 7997 7996 7995 ] final   69.93 input   59.86 | X-H torsion
[ 10167 10162 10161 10158 ] final  -50.24 input  -65.29 | X-H torsion
[ 10718 10713 10712 10709 ] final   77.70 input   66.30 | X-H torsion
[ 10763 10752 10751 10750 ] final -176.49 input  -60.55 | X-H torsion
[ 11005 11000 10999 10996 ] final  -50.99 input  -57.11 | X-H torsion

> <Gold.Protein.ActiveResidues>
 VAL166  LYS551  ARG553  GLY616  TRP617  ASP618  TYR619  PRO620  LYS621  CYS622 
 ASP623  PHE694  ASN695  SER759  ASP760  ASP761  ALA762  ILE779  LEU786  VAL792 
 PHE793  MET794  SER795  GLU796  ALA797  LYS798  CYS799  TRP800  GLU811  SER814 

> <Gold.Protein.RotatedAtoms>
  152.2440  134.8200  160.0455 H   0  0  0  0  0  0  0  0  0  0  0  0  # atno 6907 bound_to 6896
  151.8904  133.3509  159.3804 H   0  0  0  0  0  0  0  0  0  0  0  0  # atno 6908 bound_to 6896
  150.7062  134.4856  159.5535 H   0  0  0  0  0  0  0  0  0  0  0  0  # atno 6909 bound_to 6896
  146.1604  140.4642  142.8574 H   0  0  0  0  0  0  0  0  0  0  0  0  # atno 7974 bound_to 7965
  155.7311  140.3492  155.5060 H   0  0  0  0  0  0  0  0  0  0  0  0  # atno 8008 bound_to 7997
  155.9182  140.1062  157.1249 H   0  0  0  0  0  0  0  0  0  0  0  0  # atno 8009 bound_to 7997
  154.4066  140.1254  156.4632 H   0  0  0  0  0  0  0  0  0  0  0  0  # atno 8010 bound_to 7997
  140.6647  143.2665  151.4331 H   0  0  0  0  0  0  0  0  0  0  0  0  # atno 10167 bound_to 10162
  157.6719  130.9834  150.1679 H   0  0  0  0  0  0  0  0  0  0  0  0  # atno 10718 bound_to 10713
  154.5717  135.2828  155.0820 H   0  0  0  0  0  0  0  0  0  0  0  0  # atno 10763 bound_to 10752
  154.2190  135.6394  153.5142 H   0  0  0  0  0  0  0  0  0  0  0  0  # atno 10764 bound_to 10752
  153.0060  135.5510  154.6343 H   0  0  0  0  0  0  0  0  0  0  0  0  # atno 10765 bound_to 10752
  141.0846  133.6645  156.3812 H   0  0  0  0  0  0  0  0  0  0  0  0  # atno 11005 bound_to 11000
  144.8019  140.6230  143.6472 LP  0  0  0  0  0  0  0  0  0  0  0  0  # atno 17320 bound_to 7965
  145.4602  139.1513  143.3870 LP  0  0  0  0  0  0  0  0  0  0  0  0  # atno 17321 bound_to 7965
  139.5891  144.1538  152.2066 LP  0  0  0  0  0  0  0  0  0  0  0  0  # atno 17342 bound_to 10162
  140.0887  144.5639  150.7070 LP  0  0  0  0  0  0  0  0  0  0  0  0  # atno 17343 bound_to 10162
  156.2440  130.3694  149.8305 LP  0  0  0  0  0  0  0  0  0  0  0  0  # atno 17370 bound_to 10713
  156.6097  130.8581  151.3451 LP  0  0  0  0  0  0  0  0  0  0  0  0  # atno 17371 bound_to 10713
  140.5391  134.6138  157.5374 LP  0  0  0  0  0  0  0  0  0  0  0  0  # atno 17394 bound_to 11000
  139.9663  134.7367  156.0131 LP  0  0  0  0  0  0  0  0  0  0  0  0  # atno 17395 bound_to 11000

$$$$
