AV-unprocessed.smi:658|AV-procd|sdf|3232|dock1
  -GOLD-   22720 0173D 1   1.00000     0.00000
 Structure written by MMmdl.
 38 38  0  0  0  0  0  0  0  0  2 V2000
  144.9772  136.1778  151.8100 C   0  0  0  0  0  0  0  0  0  0  0  0
  145.7860  135.4396  152.8977 C   0  0  2  0  0  0  0  0  0  0  0  0
  146.7712  136.3581  153.5144 N   0  3  0  0  0  0  0  0  0  0  0  0
  147.2086  135.9971  154.8794 C   0  0  0  0  0  0  0  0  0  0  0  0
  147.5164  137.2529  155.7039 C   0  0  0  0  0  0  0  0  0  0  0  0
  148.9903  137.6707  155.6101 C   0  0  0  0  0  0  0  0  0  0  0  0
  149.1920  139.2395  154.6610 S   0  0  0  0  0  0  0  0  0  0  0  0
  148.5691  138.8102  153.1169 N   0  0  0  0  0  0  0  0  0  0  0  0
  148.3009  140.2648  155.2248 O   0  0  0  0  0  0  0  0  0  0  0  0
  150.6289  139.4999  154.4907 O   0  0  0  0  0  0  0  0  0  0  0  0
  146.5129  134.1791  152.3558 C   0  0  1  0  0  0  0  0  0  0  0  0
  147.1367  133.3275  153.4788 C   0  0  0  0  0  0  0  0  0  0  0  0
  145.6434  133.3504  151.5295 N   0  0  0  0  0  0  0  0  0  0  0  0
  146.0006  132.3465  150.6525 C   0  0  0  0  0  0  0  0  0  0  0  0
  144.8508  131.8514  150.1076 C   0  0  0  0  0  0  0  0  0  0  0  0
  143.8253  132.6217  150.7232 C   0  0  0  0  0  0  0  0  0  0  0  0
  144.3017  133.5162  151.5741 N   0  0  0  0  0  0  0  0  0  0  0  0
  144.2019  135.5439  151.3801 H   0  0  0  0  0  0  0  0  0  0  0  0
  145.6221  136.5092  150.9956 H   0  0  0  0  0  0  0  0  0  0  0  0
  144.4692  137.0557  152.2076 H   0  0  0  0  0  0  0  0  0  0  0  0
  145.0927  135.1158  153.6759 H   0  0  0  0  0  0  0  0  0  0  0  0
  147.5949  136.3539  152.9298 H   0  0  0  0  0  0  0  0  0  0  0  0
  146.4343  135.4135  155.3774 H   0  0  0  0  0  0  0  0  0  0  0  0
  148.0980  135.3686  154.8173 H   0  0  0  0  0  0  0  0  0  0  0  0
  146.8862  138.0756  155.3633 H   0  0  0  0  0  0  0  0  0  0  0  0
  147.2553  137.0730  156.7475 H   0  0  0  0  0  0  0  0  0  0  0  0
  149.3916  137.8384  156.6101 H   0  0  0  0  0  0  0  0  0  0  0  0
  149.6022  136.9020  155.1374 H   0  0  0  0  0  0  0  0  0  0  0  0
  148.7671  137.8434  152.8594 H   0  0  0  0  0  0  0  0  0  0  0  0
  148.7745  139.5003  152.3945 H   0  0  0  0  0  0  0  0  0  0  0  0
  147.3253  134.5150  151.7090 H   0  0  0  0  0  0  0  0  0  0  0  0
  147.8925  133.8833  154.0338 H   0  0  0  0  0  0  0  0  0  0  0  0
  147.6240  132.4411  153.0714 H   0  0  0  0  0  0  0  0  0  0  0  0
  146.3832  132.9914  154.1922 H   0  0  0  0  0  0  0  0  0  0  0  0
  147.0321  132.0708  150.4887 H   0  0  0  0  0  0  0  0  0  0  0  0
  144.7558  131.0583  149.3809 H   0  0  0  0  0  0  0  0  0  0  0  0
  142.7568  132.5576  150.5786 H   0  0  0  0  0  0  0  0  0  0  0  0
  146.3889  137.2929  153.5204 H   0  0  0  0  0  0  0  0  0  0  0  0
  1  2  1  0  0  0  0
  1 18  1  0  0  0  0
  1 19  1  0  0  0  0
  1 20  1  0  0  0  0
  2  3  1  0  0  0  0
  2 11  1  0  0  0  0
  2 21  1  0  0  0  0
  3  4  1  0  0  0  0
  3 22  1  0  0  0  0
  3 38  1  0  0  0  0
  4  5  1  0  0  0  0
  4 23  1  0  0  0  0
  4 24  1  0  0  0  0
  5  6  1  0  0  0  0
  5 25  1  0  0  0  0
  5 26  1  0  0  0  0
  6  7  1  0  0  0  0
  6 27  1  0  0  0  0
  6 28  1  0  0  0  0
  7  8  1  0  0  0  0
  7  9  2  0  0  0  0
  7 10  2  0  0  0  0
  8 29  1  0  0  0  0
  8 30  1  0  0  0  0
 11 12  1  0  0  0  0
 11 13  1  0  0  0  0
 11 31  1  0  0  0  0
 12 32  1  0  0  0  0
 12 33  1  0  0  0  0
 12 34  1  0  0  0  0
 13 17  1  0  0  0  0
 13 14  1  0  0  0  0
 14 15  2  0  0  0  0
 14 35  1  0  0  0  0
 15 16  1  0  0  0  0
 15 36  1  0  0  0  0
 16 17  2  0  0  0  0
 16 37  1  0  0  0  0
M  CHG  1   3   1
M  END
> <s_m_source_file>
AV-unprocessed.smi

> <i_m_source_file_index>
658

> <i_lp_mmshare_version>
43012

> <i_f3d_flags>
0

> <s_epik_input>
bjFbY0hdW2NIXVtjSF1uMVtDQEBIXShbQ0gzXSlbQ0BIXShbQ0gzXSlbTkhdW0NIMl1bQ0gyXVtDSDJdUyg9TykoPU8pW05IMl0=

> <s_epik_cmdline>
J2VwaWtfcHl0aG9uJywgJy1waCcsICc3LjAnLCAnLXRuJywgJzgnLCAnLW1hJywgJzIwMCcsICctbWV0YWxfYmluZGluZycsICctaW1hZScsICc8aW5maWxlLm1hZT4nLCAnLW9tYWUnLCAnPG91dGZpbGUubWFlPic=

> <r_lp_tautomer_probability>
1

> <r_epik_Ionization_Penalty>
0.00535781

> <r_epik_Ionization_Penalty_Charging>
0.00511015

> <r_epik_Ionization_Penalty_Neutral>
0.000247661

> <r_epik_State_Penalty>
-0

> <r_epik_Charging_Adjusted_Penalty>
0.00511015

> <i_epik_Tot_Q>
1

> <i_epik_Tot_abs_Q>
1

> <r_epik_Metal_State_Penalty>
0.149106

> <b_epik_Metal_Only>
0

> <s_lp_Force_Field>
OPLS_2005

> <r_lp_Energy>
7.04511

> <b_lp_Chiralities_Consistent>
1

> <s_lp_Variant>
AV-unprocessed.smi:658-3

> <Gold.Version>
5.8.1

> <Gold.Id.Protein>
6NUR|6NUR_protein|mol2

> <Gold.PLP.Fitness>
44.4751

> <Gold.PLP.PLP>
-25.9022

> <Gold.PLP.part.hbond>
-3.9161

> <Gold.PLP.part.metal>
0.0000

> <Gold.PLP.part.buried>
-4.5713

> <Gold.PLP.part.nonpolar>
-18.2907

> <Gold.PLP.part.repulsive>
0.3252

> <Gold.PLP.ligand.clash>
0.0000

> <Gold.PLP.ligand.torsion>
1.4387

> <Gold.PLP.Chemscore.Hbond>
5.0000

> <Gold.PLP.Chemscore.CHOScore>
2.0000

> <Gold.PLP.Chemscore.Metal>
0.0000

> <Gold.Chemscore.Hbonds>
donor molecule, donor type, donor heavy atom, donor atom, acceptor molecule, acceptor atom, score
      L1  H     3    22       P1  7948  2.00
      L1  H     8    29       P1  7948  1.00
      L1  H     8    30       P1  7957  1.00
      P1  H  7989  7998       L1    10  1.00
      L1  C    14    35       P1 10747  1.00
      L1  C    16    37       P1 10186  0.45

> <Gold.PLP.Chemscore.Internal.Correction>
0.4502

> <Gold.Rescore>
     Score         DG    S(hbond)    S(metal)    S(lipo)     H(rot)  DE(clash)    DE(int)     intcor
     13.48     -16.48       3.92        0.00      50.71       3.13       0.01       3.00       ----

> <Gold.Chemscore.Fitness>
13.4780

> <Gold.Chemscore.DG>
-16.4830

> <Gold.Chemscore.ZeroCoef>
-5.4800

> <Gold.Chemscore.Hbond>
3.9181

> <Gold.Chemscore.Metal>
0.0000

> <Gold.Chemscore.Lipo>
50.7055

> <Gold.Chemscore.Internal_Hbond>
0.0000

> <Gold.Chemscore.DEClash>
0.0073

> <Gold.Chemscore.DEInternal>
2.9977

> <Gold.Chemscore.Rot>
3.1312

> <Gold.Chemscore.Internal.Correction>
   9.000000E+99

> <Gold.Chemscore.Hbonds>
donor molecule, donor type, donor heavy atom, donor atom, acceptor molecule, acceptor atom, score
      L1  H     3    22       P1  7948  1.00
      L1  H     8    29       P1  7948  1.00
      L1  H     8    30       P1  7957  0.94
      P1  H  7989  7998       L1    10  0.98

> <Gold.Chemscore.Hbond.Weighted>
-13.0864

> <Gold.Chemscore.Metal.Weighted>
-0.0000

> <Gold.Chemscore.Lipo.Weighted>
-5.9325

> <Gold.Chemscore.Internal_Hbond.Weighted>
0.0000

> <Gold.Chemscore.DEClash.Weighted>
0.0073

> <Gold.Chemscore.DEInternal.Weighted>
2.9977

> <Gold.Chemscore.Rot.Weighted>
8.0160

> <Gold.Chemscore.Internal.Correction.Weighted>
   9.000000E+99

> <Gold.Protein.RotatedTorsions>
[ 6907 6896 6895 6894 ] final   88.43 input  -60.11 | X-H torsion
[ 7974 7965 7964 7962 ] final   70.66 input  175.53 | X-H torsion
[ 8008 7997 7996 7995 ] final -164.65 input   59.86 | X-H torsion
[ 10167 10162 10161 10158 ] final -120.50 input  -65.29 | X-H torsion
[ 10718 10713 10712 10709 ] final  -66.73 input   66.30 | X-H torsion
[ 10763 10752 10751 10750 ] final  131.41 input  -60.55 | X-H torsion
[ 11005 11000 10999 10996 ] final   70.99 input  -57.11 | X-H torsion

> <Gold.Protein.ActiveResidues>
 VAL166  LYS551  ARG553  GLY616  TRP617  ASP618  TYR619  PRO620  LYS621  CYS622 
 ASP623  PHE694  ASN695  SER759  ASP760  ASP761  ALA762  ILE779  LEU786  VAL792 
 PHE793  MET794  SER795  GLU796  ALA797  LYS798  CYS799  TRP800  GLU811  SER814 

> <Gold.Protein.RotatedAtoms>
  152.5425  134.2123  159.8754 H   0  0  0  0  0  0  0  0  0  0  0  0  # atno 6907 bound_to 6896
  151.2105  133.4552  159.2605 H   0  0  0  0  0  0  0  0  0  0  0  0  # atno 6908 bound_to 6896
  151.0902  134.9924  159.8454 H   0  0  0  0  0  0  0  0  0  0  0  0  # atno 6909 bound_to 6896
  145.7754  139.2862  143.1296 H   0  0  0  0  0  0  0  0  0  0  0  0  # atno 7974 bound_to 7965
  155.8386  140.0945  157.1748 H   0  0  0  0  0  0  0  0  0  0  0  0  # atno 8008 bound_to 7997
  154.3981  140.1405  156.3762 H   0  0  0  0  0  0  0  0  0  0  0  0  # atno 8009 bound_to 7997
  155.8089  140.3450  155.5448 H   0  0  0  0  0  0  0  0  0  0  0  0  # atno 8010 bound_to 7997
  140.0352  143.5208  152.2157 H   0  0  0  0  0  0  0  0  0  0  0  0  # atno 10167 bound_to 10162
  156.0596  130.4266  150.1751 H   0  0  0  0  0  0  0  0  0  0  0  0  # atno 10718 bound_to 10713
  153.7739  135.3178  155.3356 H   0  0  0  0  0  0  0  0  0  0  0  0  # atno 10763 bound_to 10752
  154.8186  135.4619  154.0717 H   0  0  0  0  0  0  0  0  0  0  0  0  # atno 10764 bound_to 10752
  153.1985  135.6919  153.8346 H   0  0  0  0  0  0  0  0  0  0  0  0  # atno 10765 bound_to 10752
  139.9567  134.7131  156.0736 H   0  0  0  0  0  0  0  0  0  0  0  0  # atno 11005 bound_to 11000
  146.0128  140.8420  142.9962 LP  0  0  0  0  0  0  0  0  0  0  0  0  # atno 17320 bound_to 7965
  144.6805  140.2514  143.7331 LP  0  0  0  0  0  0  0  0  0  0  0  0  # atno 17321 bound_to 7965
  139.6050  144.7593  151.3083 LP  0  0  0  0  0  0  0  0  0  0  0  0  # atno 17342 bound_to 10162
  140.7285  143.6935  150.7903 LP  0  0  0  0  0  0  0  0  0  0  0  0  # atno 17343 bound_to 10162
  156.9822  130.9867  151.3435 LP  0  0  0  0  0  0  0  0  0  0  0  0  # atno 17370 bound_to 10713
  157.5594  130.8236  149.8246 LP  0  0  0  0  0  0  0  0  0  0  0  0  # atno 17371 bound_to 10713
  141.1240  133.6604  156.3288 LP  0  0  0  0  0  0  0  0  0  0  0  0  # atno 17394 bound_to 11000
  140.5592  134.5951  157.5429 LP  0  0  0  0  0  0  0  0  0  0  0  0  # atno 17395 bound_to 11000

$$$$
