AV-unprocessed.smi:1047|AV-procd|sdf|4584|dock8
  -GOLD-   22720 3 53D 1   1.00000     0.00000
 Structure written by MMmdl.
 58 60  0  0  0  0  0  0  0  0  4 V2000
  145.9659  134.9916  151.2026 C   0  0  0  0  0  0  0  0  0  0  0  0
  145.6179  134.0761  152.3849 C   0  0  0  0  0  0  0  0  0  0  0  0
  146.8030  133.7411  153.2141 N   0  3  1  0  0  0  0  0  0  0  0  0
  147.8236  132.9807  152.4546 C   0  0  0  0  0  0  0  0  0  0  0  0
  149.0042  132.6027  153.3645 C   0  0  0  0  0  0  0  0  0  0  0  0
  149.5651  133.7786  153.9359 O   0  0  0  0  0  0  0  0  0  0  0  0
  148.6263  134.4903  154.7351 C   0  0  1  0  0  0  0  0  0  0  0  0
  149.3455  135.6691  155.4136 C   0  0  0  0  0  0  0  0  0  0  0  0
  149.9906  136.5664  154.4325 N   0  3  0  0  0  0  0  0  0  0  0  0
  150.1976  137.9456  154.9181 C   0  0  0  0  0  0  0  0  0  0  0  0
  151.2574  137.9935  156.0316 C   0  0  1  0  0  0  0  0  0  0  0  0
  152.0649  136.8360  155.9355 O   0  0  0  0  0  0  0  0  0  0  0  0
  152.1398  139.2535  155.9280 C   0  0  0  0  0  0  0  0  0  0  0  0
  151.4170  140.4914  156.2562 N   0  0  0  0  0  0  0  0  0  0  0  0
  150.4401  141.1364  155.5614 C   0  0  0  0  0  0  0  0  0  0  0  0
  150.0962  142.2473  156.2697 N   0  3  0  0  0  0  0  0  0  0  0  0
  150.8652  142.3151  157.4332 C   0  0  0  0  0  0  0  0  0  0  0  0
  150.8789  143.2506  158.4607 C   0  0  0  0  0  0  0  0  0  0  0  0
  151.7872  143.0312  159.5207 C   0  0  0  0  0  0  0  0  0  0  0  0
  151.8256  144.0332  160.6620 C   0  0  0  0  0  0  0  0  0  0  0  0
  152.6456  141.9014  159.5242 C   0  0  0  0  0  0  0  0  0  0  0  0
  153.6147  141.6732  160.6717 C   0  0  0  0  0  0  0  0  0  0  0  0
  152.6193  140.9635  158.4674 C   0  0  0  0  0  0  0  0  0  0  0  0
  151.7167  141.1928  157.4311 C   0  0  0  0  0  0  0  0  0  0  0  0
  147.4204  134.9198  153.8720 C   0  0  0  0  0  0  0  0  0  0  0  0
  145.0616  135.2896  150.6711 H   0  0  0  0  0  0  0  0  0  0  0  0
  146.6155  134.4990  150.4797 H   0  0  0  0  0  0  0  0  0  0  0  0
  146.4634  135.9011  151.5405 H   0  0  0  0  0  0  0  0  0  0  0  0
  144.8858  134.5962  153.0044 H   0  0  0  0  0  0  0  0  0  0  0  0
  145.1332  133.1635  152.0347 H   0  0  0  0  0  0  0  0  0  0  0  0
  147.3787  132.0752  152.0400 H   0  0  0  0  0  0  0  0  0  0  0  0
  148.1764  133.5789  151.6129 H   0  0  0  0  0  0  0  0  0  0  0  0
  148.6864  131.9162  154.1509 H   0  0  0  0  0  0  0  0  0  0  0  0
  149.7738  132.0900  152.7876 H   0  0  0  0  0  0  0  0  0  0  0  0
  148.2714  133.8243  155.5240 H   0  0  0  0  0  0  0  0  0  0  0  0
  148.6346  136.2401  156.0123 H   0  0  0  0  0  0  0  0  0  0  0  0
  150.1052  135.2903  156.0985 H   0  0  0  0  0  0  0  0  0  0  0  0
  150.8871  136.1762  154.1788 H   0  0  0  0  0  0  0  0  0  0  0  0
  150.4899  138.5895  154.0871 H   0  0  0  0  0  0  0  0  0  0  0  0
  149.2473  138.3247  155.2968 H   0  0  0  0  0  0  0  0  0  0  0  0
  150.7633  137.9853  157.0044 H   0  0  0  0  0  0  0  0  0  0  0  0
  152.1983  136.4892  156.8051 H   0  0  0  0  0  0  0  0  0  0  0  0
  153.0236  139.1742  156.5617 H   0  0  0  0  0  0  0  0  0  0  0  0
  152.5081  139.3633  154.9071 H   0  0  0  0  0  0  0  0  0  0  0  0
  150.0162  140.8267  154.6169 H   0  0  0  0  0  0  0  0  0  0  0  0
  150.2221  144.1085  158.4515 H   0  0  0  0  0  0  0  0  0  0  0  0
  152.8201  144.4705  160.7550 H   0  0  0  0  0  0  0  0  0  0  0  0
  151.5700  143.5494  161.6053 H   0  0  0  0  0  0  0  0  0  0  0  0
  151.1175  144.8472  160.5024 H   0  0  0  0  0  0  0  0  0  0  0  0
  154.1957  140.7614  160.5294 H   0  0  0  0  0  0  0  0  0  0  0  0
  153.0755  141.5799  161.6148 H   0  0  0  0  0  0  0  0  0  0  0  0
  154.3150  142.5046  160.7535 H   0  0  0  0  0  0  0  0  0  0  0  0
  153.2721  140.1033  158.4745 H   0  0  0  0  0  0  0  0  0  0  0  0
  147.7311  135.6336  153.1077 H   0  0  0  0  0  0  0  0  0  0  0  0
  146.6899  135.4252  154.5030 H   0  0  0  0  0  0  0  0  0  0  0  0
  149.4134  136.6122  153.6047 H   0  0  0  0  0  0  0  0  0  0  0  0
  146.4776  133.1255  153.9463 H   0  0  0  0  0  0  0  0  0  0  0  0
  149.3903  142.9111  155.9767 H   0  0  0  0  0  0  0  0  0  0  0  0
  1  2  1  0  0  0  0
  1 26  1  0  0  0  0
  1 27  1  0  0  0  0
  1 28  1  0  0  0  0
  2  3  1  0  0  0  0
  2 29  1  0  0  0  0
  2 30  1  0  0  0  0
  3 25  1  0  0  0  0
  3  4  1  0  0  0  0
  3 57  1  0  0  0  0
  4  5  1  0  0  0  0
  4 31  1  0  0  0  0
  4 32  1  0  0  0  0
  5  6  1  0  0  0  0
  5 33  1  0  0  0  0
  5 34  1  0  0  0  0
  6  7  1  0  0  0  0
  7  8  1  0  0  0  0
  7 25  1  0  0  0  0
  7 35  1  0  0  0  0
  8  9  1  0  0  0  0
  8 36  1  0  0  0  0
  8 37  1  0  0  0  0
  9 10  1  0  0  0  0
  9 38  1  0  0  0  0
  9 56  1  0  0  0  0
 10 11  1  0  0  0  0
 10 39  1  0  0  0  0
 10 40  1  0  0  0  0
 11 12  1  0  0  0  0
 11 13  1  0  0  0  0
 11 41  1  0  0  0  0
 12 42  1  0  0  0  0
 13 14  1  0  0  0  0
 13 43  1  0  0  0  0
 13 44  1  0  0  0  0
 14 24  1  0  0  0  0
 14 15  1  0  0  0  0
 15 16  2  0  0  0  0
 15 45  1  0  0  0  0
 16 17  1  0  0  0  0
 16 58  1  0  0  0  0
 17 24  2  0  0  0  0
 17 18  1  0  0  0  0
 18 19  2  0  0  0  0
 18 46  1  0  0  0  0
 19 20  1  0  0  0  0
 19 21  1  0  0  0  0
 20 47  1  0  0  0  0
 20 48  1  0  0  0  0
 20 49  1  0  0  0  0
 21 22  1  0  0  0  0
 21 23  2  0  0  0  0
 22 50  1  0  0  0  0
 22 51  1  0  0  0  0
 22 52  1  0  0  0  0
 23 24  1  0  0  0  0
 23 53  1  0  0  0  0
 25 54  1  0  0  0  0
 25 55  1  0  0  0  0
M  CHG  1   3   1
M  CHG  1   9   1
M  CHG  1  16   1
M  END
> <s_m_source_file>
AV-unprocessed.smi

> <i_m_source_file_index>
1047

> <i_lp_mmshare_version>
43012

> <i_f3d_flags>
0

> <s_epik_input>
W0NIM11bQ0gyXU4xW0NIMl1bQ0gyXU9bQ0BIXShbQ0gyXTEpW0NIMl1bTkhdW0NIMl1bQ0BIXShbT0hdKVtDSDJdbihbY0hdbjIpYyhjMjMpW2NIXWMoW0NIM10pYyhbY0hdMylbQ0gzXQ==

> <s_epik_cmdline>
J2VwaWtfcHl0aG9uJywgJy1waCcsICc3LjAnLCAnLXRuJywgJzgnLCAnLW1hJywgJzIwMCcsICctbWV0YWxfYmluZGluZycsICctaW1hZScsICc8aW5maWxlLm1hZT4nLCAnLW9tYWUnLCAnPG91dGZpbGUubWFlPic=

> <r_epik_Ionization_Penalty>
1.6114

> <r_epik_Ionization_Penalty_Charging>
1.61139

> <r_epik_Ionization_Penalty_Neutral>
5.04732e-06

> <r_epik_State_Penalty>
1.63724

> <r_epik_Charging_Adjusted_Penalty>
3.24864

> <i_epik_Tot_Q>
3

> <i_epik_Tot_abs_Q>
3

> <r_epik_Metal_State_Penalty>
5.64594

> <b_epik_Metal_Only>
0

> <s_lp_Force_Field>
OPLS_2005

> <r_lp_Energy>
40.2566

> <b_lp_Chiralities_Consistent>
1

> <s_lp_Variant>
AV-unprocessed.smi:1047-25

> <Gold.Version>
5.8.1

> <Gold.Id.Protein>
6NUR|6NUR_protein|mol2

> <Gold.PLP.Fitness>
59.6942

> <Gold.PLP.PLP>
-46.2435

> <Gold.PLP.part.hbond>
-3.1326

> <Gold.PLP.part.metal>
0.0000

> <Gold.PLP.part.buried>
-4.7343

> <Gold.PLP.part.nonpolar>
-38.3231

> <Gold.PLP.part.repulsive>
0.2982

> <Gold.PLP.ligand.clash>
0.0000

> <Gold.PLP.ligand.torsion>
0.8362

> <Gold.PLP.Chemscore.Hbond>
4.9840

> <Gold.PLP.Chemscore.CHOScore>
0.0000

> <Gold.PLP.Chemscore.Metal>
0.0000

> <Gold.Chemscore.Hbonds>
donor molecule, donor type, donor heavy atom, donor atom, acceptor molecule, acceptor atom, score
      L1  H     9    56       P1  7948  2.00
      L1  H    16    58       P1  8028  1.95
      P1  H 10752 10763       L1    12  1.00

> <Gold.PLP.Chemscore.Internal.Correction>
0.1712

> <Gold.Rescore>
     Score         DG    S(hbond)    S(metal)    S(lipo)     H(rot)  DE(clash)    DE(int)     intcor
     19.38     -21.40       2.57        0.00     123.56       2.78       0.23       1.79       ----

> <Gold.Chemscore.Fitness>
19.3765

> <Gold.Chemscore.DG>
-21.3964

> <Gold.Chemscore.ZeroCoef>
-5.4800

> <Gold.Chemscore.Hbond>
2.5715

> <Gold.Chemscore.Metal>
0.0000

> <Gold.Chemscore.Lipo>
123.5625

> <Gold.Chemscore.Internal_Hbond>
0.0000

> <Gold.Chemscore.DEClash>
0.2341

> <Gold.Chemscore.DEInternal>
1.7858

> <Gold.Chemscore.Rot>
2.7848

> <Gold.Chemscore.Internal.Correction>
   9.000000E+99

> <Gold.Chemscore.Hbonds>
donor molecule, donor type, donor heavy atom, donor atom, acceptor molecule, acceptor atom, score
      L1  H     9    56       P1  7948  0.86
      L1  H    16    58       P1  8028  0.93
      P1  H 10752 10763       L1    12  0.33

> <Gold.Chemscore.Hbond.Weighted>
-8.5887

> <Gold.Chemscore.Metal.Weighted>
-0.0000

> <Gold.Chemscore.Lipo.Weighted>
-14.4568

> <Gold.Chemscore.Internal_Hbond.Weighted>
0.0000

> <Gold.Chemscore.DEClash.Weighted>
0.2341

> <Gold.Chemscore.DEInternal.Weighted>
1.7858

> <Gold.Chemscore.Rot.Weighted>
7.1291

> <Gold.Chemscore.Internal.Correction.Weighted>
   9.000000E+99

> <Gold.Protein.RotatedTorsions>
[ 6907 6896 6895 6894 ] final    2.17 input  -60.11 | X-H torsion
[ 7974 7965 7964 7962 ] final   -4.02 input  175.53 | X-H torsion
[ 8008 7997 7996 7995 ] final -171.65 input   59.86 | X-H torsion
[ 10167 10162 10161 10158 ] final   74.17 input  -65.29 | X-H torsion
[ 10718 10713 10712 10709 ] final   53.66 input   66.30 | X-H torsion
[ 10763 10752 10751 10750 ] final   74.60 input  -60.55 | X-H torsion
[ 11005 11000 10999 10996 ] final  -53.26 input  -57.11 | X-H torsion

> <Gold.Protein.ActiveResidues>
 VAL166  LYS551  ARG553  GLY616  TRP617  ASP618  TYR619  PRO620  LYS621  CYS622 
 ASP623  PHE694  ASN695  SER759  ASP760  ASP761  ALA762  ILE779  LEU786  VAL792 
 PHE793  MET794  SER795  GLU796  ALA797  LYS798  CYS799  TRP800  GLU811  SER814 

> <Gold.Protein.RotatedAtoms>
  151.6045  135.1045  160.0067 H   0  0  0  0  0  0  0  0  0  0  0  0  # atno 6907 bound_to 6896
  152.4240  133.7160  159.6517 H   0  0  0  0  0  0  0  0  0  0  0  0  # atno 6908 bound_to 6896
  150.8129  133.8317  159.3196 H   0  0  0  0  0  0  0  0  0  0  0  0  # atno 6909 bound_to 6896
  146.2380  140.1809  142.8332 H   0  0  0  0  0  0  0  0  0  0  0  0  # atno 7974 bound_to 7965
  155.9344  140.1097  157.1107 H   0  0  0  0  0  0  0  0  0  0  0  0  # atno 8008 bound_to 7997
  154.4077  140.1231  156.4910 H   0  0  0  0  0  0  0  0  0  0  0  0  # atno 8009 bound_to 7997
  155.7040  140.3471  155.4947 H   0  0  0  0  0  0  0  0  0  0  0  0  # atno 8010 bound_to 7997
  140.0165  144.5573  150.7616 H   0  0  0  0  0  0  0  0  0  0  0  0  # atno 10167 bound_to 10162
  157.5187  130.8550  149.8529 H   0  0  0  0  0  0  0  0  0  0  0  0  # atno 10718 bound_to 10713
  153.0597  135.5020  154.8066 H   0  0  0  0  0  0  0  0  0  0  0  0  # atno 10763 bound_to 10752
  154.6864  135.2977  154.9544 H   0  0  0  0  0  0  0  0  0  0  0  0  # atno 10764 bound_to 10752
  154.0313  135.6729  153.4834 H   0  0  0  0  0  0  0  0  0  0  0  0  # atno 10765 bound_to 10752
  141.0967  133.6623  156.4146 H   0  0  0  0  0  0  0  0  0  0  0  0  # atno 11005 bound_to 11000
  144.9935  140.8569  143.5325 LP  0  0  0  0  0  0  0  0  0  0  0  0  # atno 17320 bound_to 7965
  145.1818  139.2348  143.5288 LP  0  0  0  0  0  0  0  0  0  0  0  0  # atno 17321 bound_to 7965
  140.7360  143.2747  151.3777 LP  0  0  0  0  0  0  0  0  0  0  0  0  # atno 17342 bound_to 10162
  139.6169  144.0986  152.2354 LP  0  0  0  0  0  0  0  0  0  0  0  0  # atno 17343 bound_to 10162
  156.0338  130.3757  150.1615 LP  0  0  0  0  0  0  0  0  0  0  0  0  # atno 17370 bound_to 10713
  156.9804  130.9862  151.3439 LP  0  0  0  0  0  0  0  0  0  0  0  0  # atno 17371 bound_to 10713
  140.5123  134.6383  157.5289 LP  0  0  0  0  0  0  0  0  0  0  0  0  # atno 17394 bound_to 11000
  139.9806  134.7144  155.9867 LP  0  0  0  0  0  0  0  0  0  0  0  0  # atno 17395 bound_to 11000

$$$$
