AV-unprocessed.smi:869|AV-procd|sdf|4005|dock1
  -GOLD-   22720 1493D 1   1.00000     0.00000
 Structure written by MMmdl.
 47 49  0  0  0  0  0  0  0  0  2 V2000
  154.4400  137.6383  161.9420 C   0  0  0  0  0  0  0  0  0  0  0  0
  153.8909  137.8101  160.6472 O   0  0  0  0  0  0  0  0  0  0  0  0
  154.5188  138.8576  159.9261 C   0  0  0  0  0  0  0  0  0  0  0  0
  154.0064  140.2000  160.3331 C   0  0  0  0  0  0  0  0  0  0  0  0
  154.1743  140.7899  161.5505 N   0  3  0  0  0  0  0  0  0  0  0  0
  153.5566  142.0406  161.5593 C   0  0  0  0  0  0  0  0  0  0  0  0
  153.4604  143.0014  162.5613 C   0  0  0  0  0  0  0  0  0  0  0  0
  152.7574  144.1814  162.2410 C   0  0  0  0  0  0  0  0  0  0  0  0
  152.1844  144.3714  160.9668 C   0  0  0  0  0  0  0  0  0  0  0  0
  152.2877  143.3894  159.9596 C   0  0  0  0  0  0  0  0  0  0  0  0
  152.9829  142.2244  160.2844 C   0  0  0  0  0  0  0  0  0  0  0  0
  153.2849  141.0630  159.5624 N   0  0  0  0  0  0  0  0  0  0  0  0
  152.8257  140.9270  158.1707 C   0  0  0  0  0  0  0  0  0  0  0  0
  152.2632  139.5252  157.8592 C   0  0  2  0  0  0  0  0  0  0  0  0
  152.8114  139.0371  156.6509 O   0  0  0  0  0  0  0  0  0  0  0  0
  150.7330  139.5236  157.7317 C   0  0  0  0  0  0  0  0  0  0  0  0
  150.3837  139.5705  156.3548 O   0  0  0  0  0  0  0  0  0  0  0  0
  149.3021  140.3395  155.9820 C   0  0  0  0  0  0  0  0  0  0  0  0
  149.0419  140.4511  154.6006 C   0  0  0  0  0  0  0  0  0  0  0  0
  147.9593  141.2183  154.1295 C   0  0  0  0  0  0  0  0  0  0  0  0
  147.1194  141.8890  155.0399 C   0  0  0  0  0  0  0  0  0  0  0  0
  145.9535  142.7136  154.5351 C   0  0  0  0  0  0  0  0  0  0  0  0
  147.3681  141.7832  156.4225 C   0  0  0  0  0  0  0  0  0  0  0  0
  148.4511  141.0149  156.8930 C   0  0  0  0  0  0  0  0  0  0  0  0
  153.9324  136.8180  162.4495 H   0  0  0  0  0  0  0  0  0  0  0  0
  154.3131  138.5377  162.5460 H   0  0  0  0  0  0  0  0  0  0  0  0
  155.5026  137.3968  161.8919 H   0  0  0  0  0  0  0  0  0  0  0  0
  155.5969  138.8288  160.0910 H   0  0  0  0  0  0  0  0  0  0  0  0
  154.3458  138.7284  158.8568 H   0  0  0  0  0  0  0  0  0  0  0  0
  153.9006  142.8585  163.5372 H   0  0  0  0  0  0  0  0  0  0  0  0
  152.6576  144.9569  162.9865 H   0  0  0  0  0  0  0  0  0  0  0  0
  151.6563  145.2900  160.7563 H   0  0  0  0  0  0  0  0  0  0  0  0
  151.8506  143.5495  158.9852 H   0  0  0  0  0  0  0  0  0  0  0  0
  152.0535  141.6807  158.0126 H   0  0  0  0  0  0  0  0  0  0  0  0
  153.6401  141.1866  157.4945 H   0  0  0  0  0  0  0  0  0  0  0  0
  152.5535  138.8327  158.6499 H   0  0  0  0  0  0  0  0  0  0  0  0
  152.9580  138.1077  156.7430 H   0  0  0  0  0  0  0  0  0  0  0  0
  150.3186  138.6321  158.2058 H   0  0  0  0  0  0  0  0  0  0  0  0
  150.3225  140.3990  158.2383 H   0  0  0  0  0  0  0  0  0  0  0  0
  149.6797  139.9421  153.8931 H   0  0  0  0  0  0  0  0  0  0  0  0
  147.7769  141.2906  153.0672 H   0  0  0  0  0  0  0  0  0  0  0  0
  145.7138  143.5175  155.2319 H   0  0  0  0  0  0  0  0  0  0  0  0
  145.0709  142.0844  154.4187 H   0  0  0  0  0  0  0  0  0  0  0  0
  146.1861  143.1630  153.5692 H   0  0  0  0  0  0  0  0  0  0  0  0
  146.7286  142.2918  157.1290 H   0  0  0  0  0  0  0  0  0  0  0  0
  148.6076  140.9619  157.9594 H   0  0  0  0  0  0  0  0  0  0  0  0
  154.6786  140.3620  162.3163 H   0  0  0  0  0  0  0  0  0  0  0  0
  1  2  1  0  0  0  0
  1 25  1  0  0  0  0
  1 26  1  0  0  0  0
  1 27  1  0  0  0  0
  2  3  1  0  0  0  0
  3  4  1  0  0  0  0
  3 28  1  0  0  0  0
  3 29  1  0  0  0  0
  4 12  1  0  0  0  0
  4  5  2  0  0  0  0
  5  6  1  0  0  0  0
  5 47  1  0  0  0  0
  6 11  2  0  0  0  0
  6  7  1  0  0  0  0
  7  8  2  0  0  0  0
  7 30  1  0  0  0  0
  8  9  1  0  0  0  0
  8 31  1  0  0  0  0
  9 10  2  0  0  0  0
  9 32  1  0  0  0  0
 10 11  1  0  0  0  0
 10 33  1  0  0  0  0
 11 12  1  0  0  0  0
 12 13  1  0  0  0  0
 13 14  1  0  0  0  0
 13 34  1  0  0  0  0
 13 35  1  0  0  0  0
 14 15  1  0  0  0  0
 14 16  1  0  0  0  0
 14 36  1  0  0  0  0
 15 37  1  0  0  0  0
 16 17  1  0  0  0  0
 16 38  1  0  0  0  0
 16 39  1  0  0  0  0
 17 18  1  0  0  0  0
 18 24  1  0  0  0  0
 18 19  2  0  0  0  0
 19 20  1  0  0  0  0
 19 40  1  0  0  0  0
 20 21  2  0  0  0  0
 20 41  1  0  0  0  0
 21 22  1  0  0  0  0
 21 23  1  0  0  0  0
 22 42  1  0  0  0  0
 22 43  1  0  0  0  0
 22 44  1  0  0  0  0
 23 24  2  0  0  0  0
 23 45  1  0  0  0  0
 24 46  1  0  0  0  0
M  CHG  1   5   1
M  END
> <s_m_source_file>
AV-unprocessed.smi

> <i_m_source_file_index>
869

> <i_lp_mmshare_version>
43012

> <i_f3d_flags>
0

> <s_epik_input>
W2NIXTFbY0hdW2NIXVtjSF1jKGMxMiluKGMobjIpW0NIMl1PW0NIM10pW0NIMl1bQ0BIXShbT0hdKVtDSDJdT2MzW2NIXVtjSF1jKFtDSDNdKVtjSF1bY0hdMw==

> <s_epik_cmdline>
J2VwaWtfcHl0aG9uJywgJy1waCcsICc3LjAnLCAnLXRuJywgJzgnLCAnLW1hJywgJzIwMCcsICctbWV0YWxfYmluZGluZycsICctaW1hZScsICc8aW5maWxlLm1hZT4nLCAnLW9tYWUnLCAnPG91dGZpbGUubWFlPic=

> <r_lp_tautomer_probability>
1

> <r_epik_Ionization_Penalty>
1.5538

> <r_epik_Ionization_Penalty_Charging>
1.5538

> <r_epik_Ionization_Penalty_Neutral>
2.3993e-06

> <r_epik_State_Penalty>
1.64824

> <r_epik_Charging_Adjusted_Penalty>
3.20204

> <i_epik_Tot_Q>
1

> <i_epik_Tot_abs_Q>
1

> <r_epik_Metal_State_Penalty>
5.70315

> <b_epik_Metal_Only>
0

> <s_lp_Force_Field>
OPLS_2005

> <r_lp_Energy>
18.5065

> <b_lp_Chiralities_Consistent>
1

> <s_lp_Variant>
AV-unprocessed.smi:869-3

> <Gold.Version>
5.8.1

> <Gold.Id.Protein>
6NUR|6NUR_protein|mol2

> <Gold.PLP.Fitness>
49.1613

> <Gold.PLP.PLP>
-49.5452

> <Gold.PLP.part.hbond>
-1.0000

> <Gold.PLP.part.metal>
0.0000

> <Gold.PLP.part.buried>
-2.9788

> <Gold.PLP.part.nonpolar>
-43.7082

> <Gold.PLP.part.repulsive>
0.0250

> <Gold.PLP.ligand.clash>
0.0000

> <Gold.PLP.ligand.torsion>
1.8389

> <Gold.PLP.Chemscore.Hbond>
1.0000

> <Gold.PLP.Chemscore.CHOScore>
0.0000

> <Gold.PLP.Chemscore.Metal>
0.0000

> <Gold.Chemscore.Hbonds>
donor molecule, donor type, donor heavy atom, donor atom, acceptor molecule, acceptor atom, score
      P1  H  7997  8009       L1    15  0.85

> <Gold.PLP.Chemscore.Internal.Correction>
0.2938

> <Gold.Rescore>
     Score         DG    S(hbond)    S(metal)    S(lipo)     H(rot)  DE(clash)    DE(int)     intcor
     15.64     -18.22       0.74        0.00     141.39       2.45       0.55       2.03       ----

> <Gold.Chemscore.Fitness>
15.6354

> <Gold.Chemscore.DG>
-18.2193

> <Gold.Chemscore.ZeroCoef>
-5.4800

> <Gold.Chemscore.Hbond>
0.7388

> <Gold.Chemscore.Metal>
0.0000

> <Gold.Chemscore.Lipo>
141.3874

> <Gold.Chemscore.Internal_Hbond>
0.0000

> <Gold.Chemscore.DEClash>
0.5524

> <Gold.Chemscore.DEInternal>
2.0315

> <Gold.Chemscore.Rot>
2.4494

> <Gold.Chemscore.Internal.Correction>
   9.000000E+99

> <Gold.Chemscore.Hbonds>
donor molecule, donor type, donor heavy atom, donor atom, acceptor molecule, acceptor atom, score
      P1  H  7997  8009       L1    15  0.12

> <Gold.Chemscore.Hbond.Weighted>
-2.4675

> <Gold.Chemscore.Metal.Weighted>
-0.0000

> <Gold.Chemscore.Lipo.Weighted>
-16.5423

> <Gold.Chemscore.Internal_Hbond.Weighted>
0.0000

> <Gold.Chemscore.DEClash.Weighted>
0.5524

> <Gold.Chemscore.DEInternal.Weighted>
2.0315

> <Gold.Chemscore.Rot.Weighted>
6.2704

> <Gold.Chemscore.Internal.Correction.Weighted>
   9.000000E+99

> <Gold.Protein.RotatedTorsions>
[ 6907 6896 6895 6894 ] final  135.28 input  -60.11 | X-H torsion
[ 7974 7965 7964 7962 ] final   50.18 input  175.53 | X-H torsion
[ 8008 7997 7996 7995 ] final  174.67 input   59.86 | X-H torsion
[ 10167 10162 10161 10158 ] final   68.49 input  -65.29 | X-H torsion
[ 10718 10713 10712 10709 ] final  -16.63 input   66.30 | X-H torsion
[ 10763 10752 10751 10750 ] final  -79.14 input  -60.55 | X-H torsion
[ 11005 11000 10999 10996 ] final -107.46 input  -57.11 | X-H torsion

> <Gold.Protein.ActiveResidues>
 VAL166  LYS551  ARG553  GLY616  TRP617  ASP618  TYR619  PRO620  LYS621  CYS622 
 ASP623  PHE694  ASN695  SER759  ASP760  ASP761  ALA762  ILE779  LEU786  VAL792 
 PHE793  MET794  SER795  GLU796  ALA797  LYS798  CYS799  TRP800  GLU811  SER814 

> <Gold.Protein.RotatedAtoms>
  152.3021  133.5666  159.5624 H   0  0  0  0  0  0  0  0  0  0  0  0  # atno 6907 bound_to 6896
  150.7282  134.0276  159.3731 H   0  0  0  0  0  0  0  0  0  0  0  0  # atno 6908 bound_to 6896
  151.8175  135.0662  160.0472 H   0  0  0  0  0  0  0  0  0  0  0  0  # atno 6909 bound_to 6896
  146.0037  139.4466  142.9999 H   0  0  0  0  0  0  0  0  0  0  0  0  # atno 7974 bound_to 7965
  156.0950  140.1428  156.9543 H   0  0  0  0  0  0  0  0  0  0  0  0  # atno 8008 bound_to 7997
  154.4665  140.0924  156.7081 H   0  0  0  0  0  0  0  0  0  0  0  0  # atno 8009 bound_to 7997
  155.4856  140.3446  155.4349 H   0  0  0  0  0  0  0  0  0  0  0  0  # atno 8010 bound_to 7997
  140.0781  144.5094  150.7181 H   0  0  0  0  0  0  0  0  0  0  0  0  # atno 10167 bound_to 10162
  156.5848  130.4783  149.6304 H   0  0  0  0  0  0  0  0  0  0  0  0  # atno 10718 bound_to 10713
  154.5349  135.5706  153.6790 H   0  0  0  0  0  0  0  0  0  0  0  0  # atno 10763 bound_to 10752
  152.9948  135.6213  154.2580 H   0  0  0  0  0  0  0  0  0  0  0  0  # atno 10764 bound_to 10752
  154.2508  135.2859  155.2797 H   0  0  0  0  0  0  0  0  0  0  0  0  # atno 10765 bound_to 10752
  141.0953  133.8983  157.1979 H   0  0  0  0  0  0  0  0  0  0  0  0  # atno 11005 bound_to 11000
  145.7449  140.9994  143.1281 LP  0  0  0  0  0  0  0  0  0  0  0  0  # atno 17320 bound_to 7965
  144.6928  139.9144  143.7465 LP  0  0  0  0  0  0  0  0  0  0  0  0  # atno 17321 bound_to 7965
  140.7092  143.2491  151.4635 LP  0  0  0  0  0  0  0  0  0  0  0  0  # atno 17342 bound_to 10162
  139.5796  144.1741  152.1950 LP  0  0  0  0  0  0  0  0  0  0  0  0  # atno 17343 bound_to 10162
  156.2600  130.6957  151.1722 LP  0  0  0  0  0  0  0  0  0  0  0  0  # atno 17370 bound_to 10713
  157.7318  131.0605  150.5661 LP  0  0  0  0  0  0  0  0  0  0  0  0  # atno 17371 bound_to 10713
  139.9788  135.0105  156.9697 LP  0  0  0  0  0  0  0  0  0  0  0  0  # atno 17394 bound_to 11000
  140.5156  134.0959  155.7280 LP  0  0  0  0  0  0  0  0  0  0  0  0  # atno 17395 bound_to 11000

$$$$
