AV-unprocessed.smi:2772|AV-procd|sdf|10671|dock2
  -GOLD-   2272015113D 1   1.00000     0.00000
 Structure written by MMmdl.
 54 56  0  0  0  0  0  0  0  0  2 V2000
  152.7657  143.3966  162.2353 C   0  0  0  0  0  0  0  0  0  0  0  0
  152.4872  142.7321  160.9034 C   0  0  0  0  0  0  0  0  0  0  0  0
  153.3907  141.7975  160.3575 C   0  0  0  0  0  0  0  0  0  0  0  0
  153.0798  141.2049  159.1186 C   0  0  0  0  0  0  0  0  0  0  0  0
  151.8727  141.5646  158.4719 C   0  0  0  0  0  0  0  0  0  0  0  0
  151.4601  141.0550  157.2111 N   0  0  0  0  0  0  0  0  0  0  0  0
  150.2171  140.9903  156.7035 C   0  0  0  0  0  0  0  0  0  0  0  0
  149.2025  141.4190  157.2522 O   0  0  0  0  0  0  0  0  0  0  0  0
  150.2187  140.4103  155.4945 N   0  0  0  0  0  0  0  0  0  0  0  0
  149.0449  140.1850  154.6545 C   0  0  2  0  0  0  0  0  0  0  0  0
  148.5766  141.5177  154.0418 C   0  0  0  0  0  0  0  0  0  0  0  0
  147.2421  141.3456  153.2914 C   0  0  0  0  0  0  0  0  0  0  0  0
  146.1780  140.7904  154.1759 N   0  3  2  0  0  0  0  0  0  0  0  0
  145.6564  141.7319  155.2245 C   0  0  0  0  0  0  0  0  0  0  0  0
  144.4088  141.1671  155.9455 C   0  0  0  0  0  0  0  0  0  0  0  0
  143.7949  142.1776  156.9288 C   0  0  0  0  0  0  0  0  0  0  0  0
  143.4217  143.4005  156.2243 N   0  0  0  0  0  0  0  0  0  0  0  0
  142.7778  144.3155  157.1564 C   0  0  0  0  0  0  0  0  0  0  0  0
  144.6204  144.0315  155.6801 C   0  0  0  0  0  0  0  0  0  0  0  0
  145.2744  143.1114  154.6356 C   0  0  0  0  0  0  0  0  0  0  0  0
  146.6094  139.4543  154.6781 C   0  0  0  0  0  0  0  0  0  0  0  0
  147.9194  139.5402  155.4852 C   0  0  0  0  0  0  0  0  0  0  0  0
  151.0501  142.5228  159.1012 C   0  0  0  0  0  0  0  0  0  0  0  0
  151.3395  143.0935  160.2901 N   0  0  0  0  0  0  0  0  0  0  0  0
  153.7039  143.0437  162.6646 H   0  0  0  0  0  0  0  0  0  0  0  0
  151.9651  143.1778  162.9427 H   0  0  0  0  0  0  0  0  0  0  0  0
  152.8329  144.4780  162.1138 H   0  0  0  0  0  0  0  0  0  0  0  0
  154.3050  141.5397  160.8716 H   0  0  0  0  0  0  0  0  0  0  0  0
  153.7761  140.5029  158.6868 H   0  0  0  0  0  0  0  0  0  0  0  0
  152.2063  140.7461  156.6054 H   0  0  0  0  0  0  0  0  0  0  0  0
  151.1051  140.0974  155.1261 H   0  0  0  0  0  0  0  0  0  0  0  0
  149.2858  139.5078  153.8328 H   0  0  0  0  0  0  0  0  0  0  0  0
  148.4711  142.2757  154.8186 H   0  0  0  0  0  0  0  0  0  0  0  0
  149.3361  141.8930  153.3547 H   0  0  0  0  0  0  0  0  0  0  0  0
  146.9381  142.2755  152.8156 H   0  0  0  0  0  0  0  0  0  0  0  0
  147.3908  140.6506  152.4636 H   0  0  0  0  0  0  0  0  0  0  0  0
  146.4309  141.8938  155.9742 H   0  0  0  0  0  0  0  0  0  0  0  0
  143.6574  140.8681  155.2130 H   0  0  0  0  0  0  0  0  0  0  0  0
  144.6604  140.2769  156.5199 H   0  0  0  0  0  0  0  0  0  0  0  0
  142.9090  141.7400  157.3913 H   0  0  0  0  0  0  0  0  0  0  0  0
  144.4982  142.4017  157.7327 H   0  0  0  0  0  0  0  0  0  0  0  0
  142.4844  145.2350  156.6489 H   0  0  0  0  0  0  0  0  0  0  0  0
  143.4414  144.5773  157.9821 H   0  0  0  0  0  0  0  0  0  0  0  0
  141.8755  143.8659  157.5724 H   0  0  0  0  0  0  0  0  0  0  0  0
  144.3513  144.9785  155.2103 H   0  0  0  0  0  0  0  0  0  0  0  0
  145.3262  144.2602  156.4805 H   0  0  0  0  0  0  0  0  0  0  0  0
  146.1545  143.6317  154.2606 H   0  0  0  0  0  0  0  0  0  0  0  0
  144.5984  142.9825  153.7889 H   0  0  0  0  0  0  0  0  0  0  0  0
  145.8294  138.9592  155.2525 H   0  0  0  0  0  0  0  0  0  0  0  0
  146.7693  138.8047  153.8162 H   0  0  0  0  0  0  0  0  0  0  0  0
  148.2210  138.5401  155.7988 H   0  0  0  0  0  0  0  0  0  0  0  0
  147.7540  140.1063  156.4025 H   0  0  0  0  0  0  0  0  0  0  0  0
  150.1264  142.8400  158.6394 H   0  0  0  0  0  0  0  0  0  0  0  0
  145.3875  140.6132  153.5723 H   0  0  0  0  0  0  0  0  0  0  0  0
  1  2  1  0  0  0  0
  1 25  1  0  0  0  0
  1 26  1  0  0  0  0
  1 27  1  0  0  0  0
  2 24  1  0  0  0  0
  2  3  2  0  0  0  0
  3  4  1  0  0  0  0
  3 28  1  0  0  0  0
  4  5  2  0  0  0  0
  4 29  1  0  0  0  0
  5  6  1  0  0  0  0
  5 23  1  0  0  0  0
  6  7  1  0  0  0  0
  6 30  1  0  0  0  0
  7  8  2  0  0  0  0
  7  9  1  0  0  0  0
  9 10  1  0  0  0  0
  9 31  1  0  0  0  0
 10 22  1  0  0  0  0
 10 11  1  0  0  0  0
 10 32  1  0  0  0  0
 11 12  1  0  0  0  0
 11 33  1  0  0  0  0
 11 34  1  0  0  0  0
 12 13  1  0  0  0  0
 12 35  1  0  0  0  0
 12 36  1  0  0  0  0
 13 14  1  0  0  0  0
 13 21  1  0  0  0  0
 13 54  1  0  0  0  0
 14 20  1  0  0  0  0
 14 15  1  0  0  0  0
 14 37  1  0  0  0  0
 15 16  1  0  0  0  0
 15 38  1  0  0  0  0
 15 39  1  0  0  0  0
 16 17  1  0  0  0  0
 16 40  1  0  0  0  0
 16 41  1  0  0  0  0
 17 18  1  0  0  0  0
 17 19  1  0  0  0  0
 18 42  1  0  0  0  0
 18 43  1  0  0  0  0
 18 44  1  0  0  0  0
 19 20  1  0  0  0  0
 19 45  1  0  0  0  0
 19 46  1  0  0  0  0
 20 47  1  0  0  0  0
 20 48  1  0  0  0  0
 21 22  1  0  0  0  0
 21 49  1  0  0  0  0
 21 50  1  0  0  0  0
 22 51  1  0  0  0  0
 22 52  1  0  0  0  0
 23 24  2  0  0  0  0
 23 53  1  0  0  0  0
M  CHG  1  13   1
M  END
> <s_m_source_file>
AV-unprocessed.smi

> <i_m_source_file_index>
2772

> <i_lp_mmshare_version>
43012

> <i_f3d_flags>
0

> <s_epik_input>
W0NIM11jMVtjSF1bY0hdYyhbY0hdbjEpW05IXUMoPU8pW05IXVtDSF0yW0NIMl1bQ0gyXU4oW0NIMl1bQ0gyXTIpW0NIXTNbQ0gyXVtDSDJdTihbQ0gzXSlbQ0gyXVtDSDJdMw==

> <s_epik_cmdline>
J2VwaWtfcHl0aG9uJywgJy1waCcsICc3LjAnLCAnLXRuJywgJzgnLCAnLW1hJywgJzIwMCcsICctbWV0YWxfYmluZGluZycsICctaW1hZScsICc8aW5maWxlLm1hZT4nLCAnLW9tYWUnLCAnPG91dGZpbGUubWFlPic=

> <r_epik_Ionization_Penalty>
1.38854

> <r_epik_Ionization_Penalty_Charging>
0.00081195

> <r_epik_Ionization_Penalty_Neutral>
1.38772

> <r_epik_State_Penalty>
1.56122

> <r_epik_Charging_Adjusted_Penalty>
1.56203

> <i_epik_Tot_Q>
1

> <i_epik_Tot_abs_Q>
1

> <r_epik_Metal_State_Penalty>
1.5614

> <b_epik_Metal_Only>
0

> <s_lp_Force_Field>
OPLS_2005

> <r_lp_Energy>
35.2305

> <b_lp_Chiralities_Consistent>
1

> <s_lp_Variant>
AV-unprocessed.smi:2772-8

> <Gold.Version>
5.8.1

> <Gold.Id.Protein>
6NUR|6NUR_protein|mol2

> <Gold.PLP.Fitness>
42.7238

> <Gold.PLP.PLP>
-37.3010

> <Gold.PLP.part.hbond>
-1.6829

> <Gold.PLP.part.metal>
0.0000

> <Gold.PLP.part.buried>
-6.5932

> <Gold.PLP.part.nonpolar>
-29.2731

> <Gold.PLP.part.repulsive>
0.3708

> <Gold.PLP.ligand.clash>
0.0000

> <Gold.PLP.ligand.torsion>
0.3101

> <Gold.PLP.Chemscore.Hbond>
2.0000

> <Gold.PLP.Chemscore.CHOScore>
0.0000

> <Gold.PLP.Chemscore.Metal>
0.0000

> <Gold.Chemscore.Hbonds>
donor molecule, donor type, donor heavy atom, donor atom, acceptor molecule, acceptor atom, score
      L1  H    13    54       P1 10175  2.00

> <Gold.PLP.Chemscore.Internal.Correction>
0.0430

> <Gold.Rescore>
     Score         DG    S(hbond)    S(metal)    S(lipo)     H(rot)  DE(clash)    DE(int)     intcor
     14.74     -17.98       0.97        0.00     105.17       1.19       0.05       3.19       ----

> <Gold.Chemscore.Fitness>
14.7410

> <Gold.Chemscore.DG>
-17.9790

> <Gold.Chemscore.ZeroCoef>
-5.4800

> <Gold.Chemscore.Hbond>
0.9708

> <Gold.Chemscore.Metal>
0.0000

> <Gold.Chemscore.Lipo>
105.1736

> <Gold.Chemscore.Internal_Hbond>
0.0000

> <Gold.Chemscore.DEClash>
0.0527

> <Gold.Chemscore.DEInternal>
3.1854

> <Gold.Chemscore.Rot>
1.1910

> <Gold.Chemscore.Internal.Correction>
   9.000000E+99

> <Gold.Chemscore.Hbonds>
donor molecule, donor type, donor heavy atom, donor atom, acceptor molecule, acceptor atom, score
      L1  H    13    54       P1 10175  0.90

> <Gold.Chemscore.Hbond.Weighted>
-3.2426

> <Gold.Chemscore.Metal.Weighted>
-0.0000

> <Gold.Chemscore.Lipo.Weighted>
-12.3053

> <Gold.Chemscore.Internal_Hbond.Weighted>
0.0000

> <Gold.Chemscore.DEClash.Weighted>
0.0527

> <Gold.Chemscore.DEInternal.Weighted>
3.1854

> <Gold.Chemscore.Rot.Weighted>
3.0489

> <Gold.Chemscore.Internal.Correction.Weighted>
   9.000000E+99

> <Gold.Protein.RotatedTorsions>
[ 6907 6896 6895 6894 ] final -103.21 input  -60.11 | X-H torsion
[ 7974 7965 7964 7962 ] final  -81.22 input  175.53 | X-H torsion
[ 8008 7997 7996 7995 ] final   95.80 input   59.86 | X-H torsion
[ 10167 10162 10161 10158 ] final -174.59 input  -65.29 | X-H torsion
[ 10718 10713 10712 10709 ] final  139.05 input   66.30 | X-H torsion
[ 10763 10752 10751 10750 ] final -179.59 input  -60.55 | X-H torsion
[ 11005 11000 10999 10996 ] final  -88.57 input  -57.11 | X-H torsion

> <Gold.Protein.ActiveResidues>
 VAL166  LYS551  ARG553  GLY616  TRP617  ASP618  TYR619  PRO620  LYS621  CYS622 
 ASP623  PHE694  ASN695  SER759  ASP760  ASP761  ALA762  ILE779  LEU786  VAL792 
 PHE793  MET794  SER795  GLU796  ALA797  LYS798  CYS799  TRP800  GLU811  SER814 

> <Gold.Protein.RotatedAtoms>
  150.7230  134.0464  159.3782 H   0  0  0  0  0  0  0  0  0  0  0  0  # atno 6907 bound_to 6896
  151.8439  135.0578  160.0460 H   0  0  0  0  0  0  0  0  0  0  0  0  # atno 6908 bound_to 6896
  152.2842  133.5463  159.5553 H   0  0  0  0  0  0  0  0  0  0  0  0  # atno 6909 bound_to 6896
  145.5495  140.9498  143.1507 H   0  0  0  0  0  0  0  0  0  0  0  0  # atno 7974 bound_to 7965
  156.0728  140.3281  155.7596 H   0  0  0  0  0  0  0  0  0  0  0  0  # atno 8008 bound_to 7997
  155.5279  140.0590  157.2912 H   0  0  0  0  0  0  0  0  0  0  0  0  # atno 8009 bound_to 7997
  154.4539  140.1932  156.0454 H   0  0  0  0  0  0  0  0  0  0  0  0  # atno 8010 bound_to 7997
  139.5625  144.1834  152.1262 H   0  0  0  0  0  0  0  0  0  0  0  0  # atno 10167 bound_to 10162
  157.4186  131.1036  151.0378 H   0  0  0  0  0  0  0  0  0  0  0  0  # atno 10718 bound_to 10713
  154.5331  135.2801  155.1162 H   0  0  0  0  0  0  0  0  0  0  0  0  # atno 10763 bound_to 10752
  154.2675  135.6310  153.5301 H   0  0  0  0  0  0  0  0  0  0  0  0  # atno 10764 bound_to 10752
  152.9961  135.5620  154.5850 H   0  0  0  0  0  0  0  0  0  0  0  0  # atno 10765 bound_to 10752
  141.1599  133.7578  156.9471 H   0  0  0  0  0  0  0  0  0  0  0  0  # atno 11005 bound_to 11000
  144.7536  139.7130  143.7263 LP  0  0  0  0  0  0  0  0  0  0  0  0  # atno 17320 bound_to 7965
  146.1926  139.5175  142.9795 LP  0  0  0  0  0  0  0  0  0  0  0  0  # atno 17321 bound_to 7965
  140.1350  144.5254  150.6779 LP  0  0  0  0  0  0  0  0  0  0  0  0  # atno 17342 bound_to 10162
  140.6907  143.2374  151.5140 LP  0  0  0  0  0  0  0  0  0  0  0  0  # atno 17343 bound_to 10162
  157.1317  130.6105  149.5531 LP  0  0  0  0  0  0  0  0  0  0  0  0  # atno 17370 bound_to 10713
  155.9873  130.4912  150.7119 LP  0  0  0  0  0  0  0  0  0  0  0  0  # atno 17371 bound_to 10713
  140.1282  134.9373  157.2300 LP  0  0  0  0  0  0  0  0  0  0  0  0  # atno 17394 bound_to 11000
  140.2986  134.3158  155.7296 LP  0  0  0  0  0  0  0  0  0  0  0  0  # atno 17395 bound_to 11000

$$$$
