AV-unprocessed.smi:21|AV-procd|sdf|168|dock6
  -GOLD-   2262015413D 1   1.00000     0.00000
 Structure written by MMmdl.
 61 64  0  0  0  0  0  0  0  0  1 V2000
  151.3346  145.3058  160.5379 C   0  0  0  0  0  0  0  0  0  0  0  0
  151.7929  143.9873  160.7947 O   0  0  0  0  0  0  0  0  0  0  0  0
  152.5663  143.4484  159.7317 C   0  0  2  0  0  0  0  0  0  0  0  0
  151.7126  143.1463  158.4916 C   0  0  0  0  0  0  0  0  0  0  0  0
  152.1790  141.7527  158.0510 C   0  0  2  0  0  0  0  0  0  0  0  0
  151.1655  141.0014  157.1549 C   0  0  0  0  0  0  0  0  0  0  0  0
  151.6814  139.7481  156.5995 N   0  0  0  0  0  0  0  0  0  0  0  0
  152.1904  139.7754  155.2314 C   0  0  0  0  0  0  0  0  0  0  0  0
  151.1392  138.5879  157.0581 C   0  0  0  0  0  0  0  0  0  0  0  0
  151.0485  138.3831  158.4001 N   0  0  0  0  0  0  0  0  0  0  0  0
  150.5961  137.2220  158.8805 C   0  0  0  0  0  0  0  0  0  0  0  0
  150.1925  136.1434  158.2090 N   0  0  0  0  0  0  0  0  0  0  0  0
  150.2523  136.3482  156.8626 C   0  0  0  0  0  0  0  0  0  0  0  0
  150.6869  137.5363  156.2083 C   0  0  0  0  0  0  0  0  0  0  0  0
  150.5618  137.3834  154.8319 N   0  0  0  0  0  0  0  0  0  0  0  0
  150.1070  136.1707  154.6814 C   0  0  0  0  0  0  0  0  0  0  0  0
  149.9376  135.4607  155.8480 N   0  0  0  0  0  0  0  0  0  0  0  0
  149.4815  134.0866  155.9698 C   0  0  0  0  0  0  0  0  0  0  0  0
  150.2935  133.0643  155.1247 C   0  0  1  0  0  0  0  0  0  0  0  0
  151.3801  132.4133  156.0129 C   0  0  0  0  0  0  0  0  0  0  0  0
  152.1776  133.3912  156.6483 O   0  0  0  0  0  0  0  0  0  0  0  0
  149.4170  131.9693  154.4480 C   0  0  1  0  0  0  0  0  0  0  0  0
  148.4565  132.4319  153.3631 C   0  0  0  0  0  0  0  0  0  0  0  0
  148.1649  131.1390  152.6171 C   0  0  0  0  0  0  0  0  0  0  0  0
  149.4073  130.4554  152.5958 O   0  0  0  0  0  0  0  0  0  0  0  0
  150.2217  130.9121  153.6718 C   0  0  0  0  0  0  0  0  0  0  0  0
  152.4729  141.0808  159.3072 N   0  0  0  0  0  0  0  0  0  0  0  0
  153.2630  139.8653  159.1612 C   0  0  0  0  0  0  0  0  0  0  0  0
  153.1487  142.0817  160.1164 C   0  0  0  0  0  0  0  0  0  0  0  0
  153.3903  144.1198  159.4833 H   0  0  0  0  0  0  0  0  0  0  0  0
  153.1126  141.8736  157.4986 H   0  0  0  0  0  0  0  0  0  0  0  0
  150.7687  145.6716  161.3941 H   0  0  0  0  0  0  0  0  0  0  0  0
  150.6808  145.3418  159.6661 H   0  0  0  0  0  0  0  0  0  0  0  0
  152.1697  145.9881  160.3755 H   0  0  0  0  0  0  0  0  0  0  0  0
  150.6555  143.1154  158.7617 H   0  0  0  0  0  0  0  0  0  0  0  0
  151.8410  143.9017  157.7164 H   0  0  0  0  0  0  0  0  0  0  0  0
  150.2829  140.7453  157.7404 H   0  0  0  0  0  0  0  0  0  0  0  0
  150.8036  141.6690  156.3766 H   0  0  0  0  0  0  0  0  0  0  0  0
  152.8482  138.9258  155.0449 H   0  0  0  0  0  0  0  0  0  0  0  0
  152.7647  140.6851  155.0556 H   0  0  0  0  0  0  0  0  0  0  0  0
  151.3723  139.7467  154.5109 H   0  0  0  0  0  0  0  0  0  0  0  0
  150.5667  137.1408  159.9568 H   0  0  0  0  0  0  0  0  0  0  0  0
  149.9126  135.7477  153.7065 H   0  0  0  0  0  0  0  0  0  0  0  0
  149.5340  133.8377  157.0297 H   0  0  0  0  0  0  0  0  0  0  0  0
  148.4259  134.0396  155.6995 H   0  0  0  0  0  0  0  0  0  0  0  0
  150.8122  133.6025  154.3308 H   0  0  0  0  0  0  0  0  0  0  0  0
  150.9284  131.7689  156.7678 H   0  0  0  0  0  0  0  0  0  0  0  0
  152.0553  131.7910  155.4270 H   0  0  0  0  0  0  0  0  0  0  0  0
  151.9589  134.2379  156.2896 H   0  0  0  0  0  0  0  0  0  0  0  0
  148.8325  131.4586  155.2152 H   0  0  0  0  0  0  0  0  0  0  0  0
  147.5402  132.8705  153.7530 H   0  0  0  0  0  0  0  0  0  0  0  0
  148.9366  133.1529  152.7000 H   0  0  0  0  0  0  0  0  0  0  0  0
  147.4404  130.5372  153.1671 H   0  0  0  0  0  0  0  0  0  0  0  0
  147.7747  131.3076  151.6137 H   0  0  0  0  0  0  0  0  0  0  0  0
  151.1276  131.3431  153.2438 H   0  0  0  0  0  0  0  0  0  0  0  0
  150.5165  130.0776  154.3083 H   0  0  0  0  0  0  0  0  0  0  0  0
  153.4947  139.4401  160.1382 H   0  0  0  0  0  0  0  0  0  0  0  0
  154.2038  140.0642  158.6463 H   0  0  0  0  0  0  0  0  0  0  0  0
  152.7186  139.1089  158.5965 H   0  0  0  0  0  0  0  0  0  0  0  0
  154.2169  142.0832  159.8929 H   0  0  0  0  0  0  0  0  0  0  0  0
  153.0404  141.8660  161.1798 H   0  0  0  0  0  0  0  0  0  0  0  0
  1  2  1  0  0  0  0
  1 32  1  0  0  0  0
  1 33  1  0  0  0  0
  1 34  1  0  0  0  0
  2  3  1  0  0  0  0
  3 30  1  0  0  0  0
  3 29  1  0  0  0  0
  3  4  1  0  0  0  0
  4  5  1  0  0  0  0
  4 35  1  0  0  0  0
  4 36  1  0  0  0  0
  5 31  1  0  0  0  0
  5  6  1  0  0  0  0
  5 27  1  0  0  0  0
  6  7  1  0  0  0  0
  6 37  1  0  0  0  0
  6 38  1  0  0  0  0
  7  8  1  0  0  0  0
  7  9  1  0  0  0  0
  8 39  1  0  0  0  0
  8 40  1  0  0  0  0
  8 41  1  0  0  0  0
  9 14  1  0  0  0  0
  9 10  2  0  0  0  0
 10 11  1  0  0  0  0
 11 12  2  0  0  0  0
 11 42  1  0  0  0  0
 12 13  1  0  0  0  0
 13 17  1  0  0  0  0
 13 14  2  0  0  0  0
 14 15  1  0  0  0  0
 15 16  2  0  0  0  0
 16 17  1  0  0  0  0
 16 43  1  0  0  0  0
 17 18  1  0  0  0  0
 18 19  1  0  0  0  0
 18 44  1  0  0  0  0
 18 45  1  0  0  0  0
 19 20  1  0  0  0  0
 19 22  1  0  0  0  0
 19 46  1  0  0  0  0
 20 21  1  0  0  0  0
 20 47  1  0  0  0  0
 20 48  1  0  0  0  0
 21 49  1  0  0  0  0
 22 26  1  0  0  0  0
 22 23  1  0  0  0  0
 22 50  1  0  0  0  0
 23 24  1  0  0  0  0
 23 51  1  0  0  0  0
 23 52  1  0  0  0  0
 24 25  1  0  0  0  0
 24 53  1  0  0  0  0
 24 54  1  0  0  0  0
 25 26  1  0  0  0  0
 26 55  1  0  0  0  0
 26 56  1  0  0  0  0
 27 28  1  0  0  0  0
 27 29  1  0  0  0  0
 28 57  1  0  0  0  0
 28 58  1  0  0  0  0
 28 59  1  0  0  0  0
 29 60  1  0  0  0  0
 29 61  1  0  0  0  0
M  END
> <s_m_source_file>
AV-unprocessed.smi

> <i_m_source_file_index>
21

> <i_lp_mmshare_version>
43012

> <i_f3d_flags>
0

> <s_epik_input>
W0NIM11PW0NASF0xW0NIMl1bQ0BIXShOKFtDSDNdKVtDSDJdMSlbQ0gyXU4oW0NIM10pYyhuW2NIXW4yKWMoYzIzKW5bY0hdbjNbQ0gyXVtDQEhdKFtDSDJdW09IXSlbQ0BASF00W0NIMl1bQ0gyXU9bQ0gyXTQ=

> <s_epik_cmdline>
J2VwaWtfcHl0aG9uJywgJy1waCcsICc3LjAnLCAnLXRuJywgJzgnLCAnLW1hJywgJzIwMCcsICctbWV0YWxfYmluZGluZycsICctaW1hZScsICc8aW5maWxlLm1hZT4nLCAnLW9tYWUnLCAnPG91dGZpbGUubWFlPic=

> <r_lp_tautomer_probability>
1

> <r_epik_Ionization_Penalty>
2.17574

> <r_epik_Ionization_Penalty_Charging>
0

> <r_epik_Ionization_Penalty_Neutral>
2.17574

> <r_epik_State_Penalty>
2.31336

> <r_epik_Charging_Adjusted_Penalty>
2.31336

> <i_epik_Tot_Q>
0

> <i_epik_Tot_abs_Q>
0

> <r_epik_Metal_State_Penalty>
2.31025

> <b_epik_Metal_Only>
0

> <s_lp_Force_Field>
OPLS_2005

> <r_lp_Energy>
69.8341

> <b_lp_Chiralities_Consistent>
1

> <s_lp_Variant>
AV-unprocessed.smi:21-48

> <Gold.Version>
5.8.1

> <Gold.Id.Protein>
6NUR|6NUR_protein|mol2

> <Gold.PLP.Fitness>
49.6189

> <Gold.PLP.PLP>
-44.4071

> <Gold.PLP.part.hbond>
-2.0000

> <Gold.PLP.part.metal>
0.0000

> <Gold.PLP.part.buried>
-5.8149

> <Gold.PLP.part.nonpolar>
-36.4061

> <Gold.PLP.part.repulsive>
0.3581

> <Gold.PLP.ligand.clash>
0.0000

> <Gold.PLP.ligand.torsion>
1.4134

> <Gold.PLP.Chemscore.Hbond>
1.6080

> <Gold.PLP.Chemscore.CHOScore>
0.8378

> <Gold.PLP.Chemscore.Metal>
0.0000

> <Gold.Chemscore.Hbonds>
donor molecule, donor type, donor heavy atom, donor atom, acceptor molecule, acceptor atom, score
      P1  H  6896  6908       L1    12  0.66
      L1  C    16    43       P1  7948  0.64

> <Gold.PLP.Chemscore.Internal.Correction>
0.7010

> <Gold.Rescore>
     Score         DG    S(hbond)    S(metal)    S(lipo)     H(rot)  DE(clash)    DE(int)     intcor
      9.49     -14.64       1.29        0.00     107.22       3.00       0.03       5.13       ----

> <Gold.Chemscore.Fitness>
9.4859

> <Gold.Chemscore.DG>
-14.6439

> <Gold.Chemscore.ZeroCoef>
-5.4800

> <Gold.Chemscore.Hbond>
1.2896

> <Gold.Chemscore.Metal>
0.0000

> <Gold.Chemscore.Lipo>
107.2177

> <Gold.Chemscore.Internal_Hbond>
0.0000

> <Gold.Chemscore.DEClash>
0.0284

> <Gold.Chemscore.DEInternal>
5.1296

> <Gold.Chemscore.Rot>
3.0031

> <Gold.Chemscore.Internal.Correction>
   9.000000E+99

> <Gold.Chemscore.Hbonds>
donor molecule, donor type, donor heavy atom, donor atom, acceptor molecule, acceptor atom, score
      P1  H  6896  6908       L1    12  0.08

> <Gold.Chemscore.Hbond.Weighted>
-4.3074

> <Gold.Chemscore.Metal.Weighted>
-0.0000

> <Gold.Chemscore.Lipo.Weighted>
-12.5445

> <Gold.Chemscore.Internal_Hbond.Weighted>
0.0000

> <Gold.Chemscore.DEClash.Weighted>
0.0284

> <Gold.Chemscore.DEInternal.Weighted>
5.1296

> <Gold.Chemscore.Rot.Weighted>
7.6880

> <Gold.Chemscore.Internal.Correction.Weighted>
   9.000000E+99

> <Gold.Protein.RotatedTorsions>
[ 6907 6896 6895 6894 ] final -174.01 input  -60.11 | X-H torsion
[ 7974 7965 7964 7962 ] final  178.93 input  175.53 | X-H torsion
[ 8008 7997 7996 7995 ] final  147.80 input   59.86 | X-H torsion
[ 10167 10162 10161 10158 ] final -174.17 input  -65.29 | X-H torsion
[ 10718 10713 10712 10709 ] final  165.92 input   66.30 | X-H torsion
[ 10763 10752 10751 10750 ] final  176.67 input  -60.55 | X-H torsion
[ 11005 11000 10999 10996 ] final  -67.16 input  -57.11 | X-H torsion

> <Gold.Protein.ActiveResidues>
 VAL166  LYS551  ARG553  GLY616  TRP617  ASP618  TYR619  PRO620  LYS621  CYS622 
 ASP623  PHE694  ASN695  SER759  ASP760  ASP761  ALA762  ILE779  LEU786  VAL792 
 PHE793  MET794  SER795  GLU796  ALA797  LYS798  CYS799  TRP800  GLU811  SER814 

> <Gold.Protein.RotatedAtoms>
  151.5654  133.3397  159.2978 H   0  0  0  0  0  0  0  0  0  0  0  0  # atno 6907 bound_to 6896
  150.8398  134.7689  159.6934 H   0  0  0  0  0  0  0  0  0  0  0  0  # atno 6908 bound_to 6896
  152.4468  134.5485  159.9911 H   0  0  0  0  0  0  0  0  0  0  0  0  # atno 6909 bound_to 6896
  144.7151  140.0472  143.6436 H   0  0  0  0  0  0  0  0  0  0  0  0  # atno 7974 bound_to 7965
  156.2813  140.2146  156.5596 H   0  0  0  0  0  0  0  0  0  0  0  0  # atno 8008 bound_to 7997
  154.7224  140.0502  157.0674 H   0  0  0  0  0  0  0  0  0  0  0  0  # atno 8009 bound_to 7997
  155.0461  140.3151  155.4711 H   0  0  0  0  0  0  0  0  0  0  0  0  # atno 8010 bound_to 7997
  139.5648  144.1782  152.1296 H   0  0  0  0  0  0  0  0  0  0  0  0  # atno 10167 bound_to 10162
  157.0733  131.0372  151.2603 H   0  0  0  0  0  0  0  0  0  0  0  0  # atno 10718 bound_to 10713
  154.4843  135.2776  155.1546 H   0  0  0  0  0  0  0  0  0  0  0  0  # atno 10763 bound_to 10752
  154.3244  135.6203  153.5526 H   0  0  0  0  0  0  0  0  0  0  0  0  # atno 10764 bound_to 10752
  152.9879  135.5750  154.5250 H   0  0  0  0  0  0  0  0  0  0  0  0  # atno 10765 bound_to 10752
  141.1501  133.6713  156.6250 H   0  0  0  0  0  0  0  0  0  0  0  0  # atno 11005 bound_to 11000
  145.9974  139.3064  143.0948 LP  0  0  0  0  0  0  0  0  0  0  0  0  # atno 17320 bound_to 7965
  145.8832  140.9349  143.0590 LP  0  0  0  0  0  0  0  0  0  0  0  0  # atno 17321 bound_to 7965
  140.1302  144.5295  150.6807 LP  0  0  0  0  0  0  0  0  0  0  0  0  # atno 17342 bound_to 10162
  140.6931  143.2387  151.5076 LP  0  0  0  0  0  0  0  0  0  0  0  0  # atno 17343 bound_to 10162
  157.4860  130.7793  149.7461 LP  0  0  0  0  0  0  0  0  0  0  0  0  # atno 17370 bound_to 10713
  155.9944  130.3918  150.2860 LP  0  0  0  0  0  0  0  0  0  0  0  0  # atno 17371 bound_to 10713
  140.3511  134.7768  157.4467 LP  0  0  0  0  0  0  0  0  0  0  0  0  # atno 17394 bound_to 11000
  140.0860  134.5666  155.8492 LP  0  0  0  0  0  0  0  0  0  0  0  0  # atno 17395 bound_to 11000

$$$$
