AV-unprocessed.smi:1006|AV-procd|sdf|4395|dock10
  -GOLD-   22720 2323D 1   1.00000     0.00000
 Structure written by MMmdl.
 46 48  0  0  0  0  0  0  0  0  2 V2000
  150.9785  131.0455  157.2749 C   0  0  0  0  0  0  0  0  0  0  0  0
  150.3365  132.2867  156.6932 C   0  0  0  0  0  0  0  0  0  0  0  0
  149.8632  132.3188  155.3638 C   0  0  0  0  0  0  0  0  0  0  0  0
  149.2873  133.5334  154.9368 C   0  0  0  0  0  0  0  0  0  0  0  0
  148.7878  133.6694  153.6441 N   0  0  0  0  0  0  0  0  0  0  0  0
  149.1950  134.6038  155.7544 N   0  0  0  0  0  0  0  0  0  0  0  0
  149.6738  134.4539  156.9914 C   0  0  0  0  0  0  0  0  0  0  0  0
  149.5318  135.8917  158.0387 S   0  0  0  0  0  0  0  0  0  0  0  0
  150.8874  136.9503  157.4443 C   0  0  0  0  0  0  0  0  0  0  0  0
  150.5905  138.4430  157.6573 C   0  0  1  0  0  0  0  0  0  0  0  0
  150.5140  138.7086  159.0452 O   0  0  0  0  0  0  0  0  0  0  0  0
  151.6633  139.3397  157.0095 C   0  0  0  0  0  0  0  0  0  0  0  0
  151.2522  140.7487  156.9277 N   0  0  0  0  0  0  0  0  0  0  0  0
  150.4476  141.3645  156.0197 C   0  0  0  0  0  0  0  0  0  0  0  0
  150.3622  142.6777  156.3696 N   0  3  0  0  0  0  0  0  0  0  0  0
  151.1222  142.9041  157.5189 C   0  0  0  0  0  0  0  0  0  0  0  0
  151.3430  144.0661  158.2488 C   0  0  0  0  0  0  0  0  0  0  0  0
  152.1734  143.9646  159.3877 C   0  0  0  0  0  0  0  0  0  0  0  0
  152.4335  145.2158  160.2095 C   0  0  0  0  0  0  0  0  0  0  0  0
  152.7515  142.7237  159.7612 C   0  0  0  0  0  0  0  0  0  0  0  0
  153.6395  142.6252  160.9900 C   0  0  0  0  0  0  0  0  0  0  0  0
  152.5165  141.5538  159.0040 C   0  0  0  0  0  0  0  0  0  0  0  0
  151.6964  141.6705  157.8838 C   0  0  0  0  0  0  0  0  0  0  0  0
  150.2417  133.3600  157.5091 N   0  0  0  0  0  0  0  0  0  0  0  0
  150.8472  130.1888  156.6132 H   0  0  0  0  0  0  0  0  0  0  0  0
  150.5322  130.8008  158.2392 H   0  0  0  0  0  0  0  0  0  0  0  0
  152.0470  131.2058  157.4201 H   0  0  0  0  0  0  0  0  0  0  0  0
  149.9382  131.4615  154.7106 H   0  0  0  0  0  0  0  0  0  0  0  0
  148.8229  132.9094  152.9805 H   0  0  0  0  0  0  0  0  0  0  0  0
  148.3663  134.5327  153.3332 H   0  0  0  0  0  0  0  0  0  0  0  0
  151.8115  136.6749  157.9543 H   0  0  0  0  0  0  0  0  0  0  0  0
  151.0346  136.7533  156.3819 H   0  0  0  0  0  0  0  0  0  0  0  0
  149.6209  138.6807  157.2175 H   0  0  0  0  0  0  0  0  0  0  0  0
  149.6253  138.9493  159.2573 H   0  0  0  0  0  0  0  0  0  0  0  0
  152.6137  139.2688  157.5387 H   0  0  0  0  0  0  0  0  0  0  0  0
  151.8580  139.0050  155.9898 H   0  0  0  0  0  0  0  0  0  0  0  0
  149.9625  140.8957  155.1757 H   0  0  0  0  0  0  0  0  0  0  0  0
  150.8976  145.0069  157.9597 H   0  0  0  0  0  0  0  0  0  0  0  0
  153.5018  145.4274  160.2599 H   0  0  0  0  0  0  0  0  0  0  0  0
  152.0559  145.0912  161.2248 H   0  0  0  0  0  0  0  0  0  0  0  0
  151.9422  146.0872  159.7756 H   0  0  0  0  0  0  0  0  0  0  0  0
  153.9779  141.6022  161.1573 H   0  0  0  0  0  0  0  0  0  0  0  0
  153.0995  142.9457  161.8809 H   0  0  0  0  0  0  0  0  0  0  0  0
  154.5228  143.2534  160.8744 H   0  0  0  0  0  0  0  0  0  0  0  0
  152.9545  140.6102  159.2927 H   0  0  0  0  0  0  0  0  0  0  0  0
  149.8217  143.3660  155.8613 H   0  0  0  0  0  0  0  0  0  0  0  0
  1  2  1  0  0  0  0
  1 25  1  0  0  0  0
  1 26  1  0  0  0  0
  1 27  1  0  0  0  0
  2 24  1  0  0  0  0
  2  3  2  0  0  0  0
  3  4  1  0  0  0  0
  3 28  1  0  0  0  0
  4  5  1  0  0  0  0
  4  6  2  0  0  0  0
  5 29  1  0  0  0  0
  5 30  1  0  0  0  0
  6  7  1  0  0  0  0
  7  8  1  0  0  0  0
  7 24  2  0  0  0  0
  8  9  1  0  0  0  0
  9 10  1  0  0  0  0
  9 31  1  0  0  0  0
  9 32  1  0  0  0  0
 10 11  1  0  0  0  0
 10 12  1  0  0  0  0
 10 33  1  0  0  0  0
 11 34  1  0  0  0  0
 12 13  1  0  0  0  0
 12 35  1  0  0  0  0
 12 36  1  0  0  0  0
 13 23  1  0  0  0  0
 13 14  1  0  0  0  0
 14 15  2  0  0  0  0
 14 37  1  0  0  0  0
 15 16  1  0  0  0  0
 15 46  1  0  0  0  0
 16 23  2  0  0  0  0
 16 17  1  0  0  0  0
 17 18  2  0  0  0  0
 17 38  1  0  0  0  0
 18 19  1  0  0  0  0
 18 20  1  0  0  0  0
 19 39  1  0  0  0  0
 19 40  1  0  0  0  0
 19 41  1  0  0  0  0
 20 21  1  0  0  0  0
 20 22  2  0  0  0  0
 21 42  1  0  0  0  0
 21 43  1  0  0  0  0
 21 44  1  0  0  0  0
 22 23  1  0  0  0  0
 22 45  1  0  0  0  0
M  CHG  1  15   1
M  END
> <s_m_source_file>
AV-unprocessed.smi

> <i_m_source_file_index>
1006

> <i_lp_mmshare_version>
43012

> <i_f3d_flags>
0

> <s_epik_input>
W0NIM11jMVtjSF1jKFtOSDJdKW5jKG4xKVNbQ0gyXVtDQEhdKFtPSF0pW0NIMl1uKFtjSF1uMiljKGMyMylbY0hdYyhbQ0gzXSljKFtjSF0zKVtDSDNd

> <s_epik_cmdline>
J2VwaWtfcHl0aG9uJywgJy1waCcsICc3LjAnLCAnLXRuJywgJzgnLCAnLW1hJywgJzIwMCcsICctbWV0YWxfYmluZGluZycsICctaW1hZScsICc8aW5maWxlLm1hZT4nLCAnLW9tYWUnLCAnPG91dGZpbGUubWFlPic=

> <r_epik_Ionization_Penalty>
1.4378

> <r_epik_Ionization_Penalty_Charging>
1.06724

> <r_epik_Ionization_Penalty_Neutral>
0.370564

> <r_epik_State_Penalty>
1.48666

> <r_epik_Charging_Adjusted_Penalty>
2.5539

> <i_epik_Tot_Q>
1

> <i_epik_Tot_abs_Q>
1

> <r_epik_Metal_State_Penalty>
1.38026

> <b_epik_Metal_Only>
0

> <s_lp_Force_Field>
OPLS_2005

> <r_lp_Energy>
7.15152

> <b_lp_Chiralities_Consistent>
1

> <s_lp_Variant>
AV-unprocessed.smi:1006-6

> <Gold.Version>
5.8.1

> <Gold.Id.Protein>
6NUR|6NUR_protein|mol2

> <Gold.PLP.Fitness>
54.2792

> <Gold.PLP.PLP>
-44.6340

> <Gold.PLP.part.hbond>
-3.4544

> <Gold.PLP.part.metal>
0.0000

> <Gold.PLP.part.buried>
-5.8674

> <Gold.PLP.part.nonpolar>
-36.3308

> <Gold.PLP.part.repulsive>
0.1719

> <Gold.PLP.ligand.clash>
0.0000

> <Gold.PLP.ligand.torsion>
0.7961

> <Gold.PLP.Chemscore.Hbond>
3.7406

> <Gold.PLP.Chemscore.CHOScore>
0.0000

> <Gold.PLP.Chemscore.Metal>
0.0000

> <Gold.Chemscore.Hbonds>
donor molecule, donor type, donor heavy atom, donor atom, acceptor molecule, acceptor atom, score
      L1  H     5    30       P1  7948  0.25
      L1  H    15    46       P1  8028  2.00
      P1  H  6896  6907       L1    24  0.99

> <Gold.PLP.Chemscore.Internal.Correction>
0.0155

> <Gold.Rescore>
     Score         DG    S(hbond)    S(metal)    S(lipo)     H(rot)  DE(clash)    DE(int)     intcor
     17.14     -18.05       2.17        0.00     108.89       2.89       0.10       0.80       ----

> <Gold.Chemscore.Fitness>
17.1432

> <Gold.Chemscore.DG>
-18.0517

> <Gold.Chemscore.ZeroCoef>
-5.4800

> <Gold.Chemscore.Hbond>
2.1656

> <Gold.Chemscore.Metal>
0.0000

> <Gold.Chemscore.Lipo>
108.8854

> <Gold.Chemscore.Internal_Hbond>
0.0000

> <Gold.Chemscore.DEClash>
0.1036

> <Gold.Chemscore.DEInternal>
0.8050

> <Gold.Chemscore.Rot>
2.8910

> <Gold.Chemscore.Internal.Correction>
   9.000000E+99

> <Gold.Chemscore.Hbonds>
donor molecule, donor type, donor heavy atom, donor atom, acceptor molecule, acceptor atom, score
      L1  H     5    30       P1  7948  0.13
      L1  H    15    46       P1  8028  0.99
      P1  H  6896  6907       L1    24  0.90

> <Gold.Chemscore.Hbond.Weighted>
-7.2331

> <Gold.Chemscore.Metal.Weighted>
-0.0000

> <Gold.Chemscore.Lipo.Weighted>
-12.7396

> <Gold.Chemscore.Internal_Hbond.Weighted>
0.0000

> <Gold.Chemscore.DEClash.Weighted>
0.1036

> <Gold.Chemscore.DEInternal.Weighted>
0.8050

> <Gold.Chemscore.Rot.Weighted>
7.4009

> <Gold.Chemscore.Internal.Correction.Weighted>
   9.000000E+99

> <Gold.Protein.RotatedTorsions>
[ 6907 6896 6895 6894 ] final -143.65 input  -60.11 | X-H torsion
[ 7974 7965 7964 7962 ] final   33.30 input  175.53 | X-H torsion
[ 8008 7997 7996 7995 ] final -108.48 input   59.86 | X-H torsion
[ 10167 10162 10161 10158 ] final    2.44 input  -65.29 | X-H torsion
[ 10718 10713 10712 10709 ] final -110.61 input   66.30 | X-H torsion
[ 10763 10752 10751 10750 ] final -131.11 input  -60.55 | X-H torsion
[ 11005 11000 10999 10996 ] final   82.13 input  -57.11 | X-H torsion

> <Gold.Protein.ActiveResidues>
 VAL166  LYS551  ARG553  GLY616  TRP617  ASP618  TYR619  PRO620  LYS621  CYS622 
 ASP623  PHE694  ASN695  SER759  ASP760  ASP761  ALA762  ILE779  LEU786  VAL792 
 PHE793  MET794  SER795  GLU796  ALA797  LYS798  CYS799  TRP800  GLU811  SER814 

> <Gold.Protein.RotatedAtoms>
  151.1033  133.5227  159.2608 H   0  0  0  0  0  0  0  0  0  0  0  0  # atno 6907 bound_to 6896
  151.2049  135.0457  159.8897 H   0  0  0  0  0  0  0  0  0  0  0  0  # atno 6908 bound_to 6896
  152.5444  134.0856  159.8308 H   0  0  0  0  0  0  0  0  0  0  0  0  # atno 6909 bound_to 6896
  146.1430  139.6415  142.9150 H   0  0  0  0  0  0  0  0  0  0  0  0  # atno 7974 bound_to 7965
  154.9449  140.0402  157.2115 H   0  0  0  0  0  0  0  0  0  0  0  0  # atno 8008 bound_to 7997
  154.8033  140.2855  155.5883 H   0  0  0  0  0  0  0  0  0  0  0  0  # atno 8009 bound_to 7997
  156.2964  140.2551  156.2906 H   0  0  0  0  0  0  0  0  0  0  0  0  # atno 8010 bound_to 7997
  140.6635  143.7242  150.7782 H   0  0  0  0  0  0  0  0  0  0  0  0  # atno 10167 bound_to 10162
  156.0601  130.5824  150.8261 H   0  0  0  0  0  0  0  0  0  0  0  0  # atno 10718 bound_to 10713
  154.8752  135.3841  154.4193 H   0  0  0  0  0  0  0  0  0  0  0  0  # atno 10763 bound_to 10752
  153.4898  135.7030  153.5896 H   0  0  0  0  0  0  0  0  0  0  0  0  # atno 10764 bound_to 10752
  153.4274  135.3887  155.2116 H   0  0  0  0  0  0  0  0  0  0  0  0  # atno 10765 bound_to 10752
  139.9074  134.8049  156.2134 H   0  0  0  0  0  0  0  0  0  0  0  0  # atno 11005 bound_to 11000
  145.5003  141.0437  143.2544 LP  0  0  0  0  0  0  0  0  0  0  0  0  # atno 17320 bound_to 7965
  144.7813  139.6519  143.7153 LP  0  0  0  0  0  0  0  0  0  0  0  0  # atno 17321 bound_to 7965
  140.0915  143.4873  152.2476 LP  0  0  0  0  0  0  0  0  0  0  0  0  # atno 17342 bound_to 10162
  139.5876  144.7537  151.3482 LP  0  0  0  0  0  0  0  0  0  0  0  0  # atno 17343 bound_to 10162
  157.5602  131.0945  150.9570 LP  0  0  0  0  0  0  0  0  0  0  0  0  # atno 17370 bound_to 10713
  156.9809  130.5526  149.5296 LP  0  0  0  0  0  0  0  0  0  0  0  0  # atno 17371 bound_to 10713
  141.0451  133.6917  156.1668 LP  0  0  0  0  0  0  0  0  0  0  0  0  # atno 17394 bound_to 11000
  140.6896  134.4680  157.5589 LP  0  0  0  0  0  0  0  0  0  0  0  0  # atno 17395 bound_to 11000

$$$$
