AV-unprocessed.smi:3031|AV-procd|sdf|11550|dock7
  -GOLD-   2272016513D 1   1.00000     0.00000
 Structure written by MMmdl.
 48 49  0  0  0  0  0  0  0  0  3 V2000
  152.1313  142.9929  158.3194 C   0  0  0  0  0  0  0  0  0  0  0  0
  151.3076  141.9464  157.6258 C   0  0  0  0  0  0  0  0  0  0  0  0
  151.0217  140.6232  158.0677 C   0  0  0  0  0  0  0  0  0  0  0  0
  150.2600  139.9514  157.2197 N   0  0  0  0  0  0  0  0  0  0  0  0
  150.0351  140.8177  156.2093 N   0  0  0  0  0  0  0  0  0  0  0  0
  149.2178  140.4141  155.0792 C   0  0  0  0  0  0  0  0  0  0  0  0
  149.6307  139.0445  154.4901 C   0  0  1  0  0  0  0  0  0  0  0  0
  149.3852  137.8774  155.4618 C   0  0  0  0  0  0  0  0  0  0  0  0
  148.9160  138.7761  153.2219 N   0  3  0  0  0  0  0  0  0  0  0  0
  147.4442  138.9229  153.2742 C   0  0  0  0  0  0  0  0  0  0  0  0
  146.7926  138.4902  151.9486 C   0  0  2  0  0  0  0  0  0  0  0  0
  146.2174  139.6292  151.3374 O   0  0  0  0  0  0  0  0  0  0  0  0
  145.6818  137.4411  152.1660 C   0  0  0  0  0  0  0  0  0  0  0  0
  146.1828  136.0455  152.0681 N   0  3  0  0  0  0  0  0  0  0  0  0
  146.0063  135.2617  153.3166 C   0  0  0  0  0  0  0  0  0  0  0  0
  146.5797  133.8440  153.1489 C   0  0  0  0  0  0  0  0  0  0  0  0
  145.9528  133.2037  152.0452 O   0  0  0  0  0  0  0  0  0  0  0  0
  146.1890  133.8950  150.8253 C   0  0  0  0  0  0  0  0  0  0  0  0
  145.6039  135.3149  150.9150 C   0  0  0  0  0  0  0  0  0  0  0  0
  150.6535  142.0302  156.4294 C   0  0  0  0  0  0  0  0  0  0  0  0
  152.6450  142.5917  159.1934 H   0  0  0  0  0  0  0  0  0  0  0  0
  151.5167  143.8252  158.6629 H   0  0  0  0  0  0  0  0  0  0  0  0
  152.8951  143.4061  157.6606 H   0  0  0  0  0  0  0  0  0  0  0  0
  151.3429  140.1342  158.9756 H   0  0  0  0  0  0  0  0  0  0  0  0
  148.1733  140.3885  155.3951 H   0  0  0  0  0  0  0  0  0  0  0  0
  149.2928  141.1986  154.3264 H   0  0  0  0  0  0  0  0  0  0  0  0
  150.7004  139.0633  154.2752 H   0  0  0  0  0  0  0  0  0  0  0  0
  149.9843  137.9747  156.3673 H   0  0  0  0  0  0  0  0  0  0  0  0
  149.6508  136.9235  155.0049 H   0  0  0  0  0  0  0  0  0  0  0  0
  148.3376  137.8232  155.7600 H   0  0  0  0  0  0  0  0  0  0  0  0
  149.2552  139.4357  152.5357 H   0  0  0  0  0  0  0  0  0  0  0  0
  147.0564  138.3011  154.0807 H   0  0  0  0  0  0  0  0  0  0  0  0
  147.1802  139.9546  153.5127 H   0  0  0  0  0  0  0  0  0  0  0  0
  147.5661  138.0925  151.2919 H   0  0  0  0  0  0  0  0  0  0  0  0
  145.3948  139.3825  150.9413 H   0  0  0  0  0  0  0  0  0  0  0  0
  145.2081  137.5792  153.1395 H   0  0  0  0  0  0  0  0  0  0  0  0
  144.8976  137.6060  151.4247 H   0  0  0  0  0  0  0  0  0  0  0  0
  146.5026  135.7526  154.1527 H   0  0  0  0  0  0  0  0  0  0  0  0
  144.9454  135.2028  153.5658 H   0  0  0  0  0  0  0  0  0  0  0  0
  147.6609  133.8747  153.0035 H   0  0  0  0  0  0  0  0  0  0  0  0
  146.3960  133.2562  154.0484 H   0  0  0  0  0  0  0  0  0  0  0  0
  147.2587  133.9261  150.6115 H   0  0  0  0  0  0  0  0  0  0  0  0
  145.7174  133.3451  150.0108 H   0  0  0  0  0  0  0  0  0  0  0  0
  144.5188  135.2662  151.0198 H   0  0  0  0  0  0  0  0  0  0  0  0
  145.8137  135.8546  149.9907 H   0  0  0  0  0  0  0  0  0  0  0  0
  150.5791  142.8447  155.7241 H   0  0  0  0  0  0  0  0  0  0  0  0
  149.1499  137.8452  152.9077 H   0  0  0  0  0  0  0  0  0  0  0  0
  147.1760  136.1063  151.8920 H   0  0  0  0  0  0  0  0  0  0  0  0
  1  2  1  0  0  0  0
  1 21  1  0  0  0  0
  1 22  1  0  0  0  0
  1 23  1  0  0  0  0
  2 20  2  0  0  0  0
  2  3  1  0  0  0  0
  3  4  2  0  0  0  0
  3 24  1  0  0  0  0
  4  5  1  0  0  0  0
  5  6  1  0  0  0  0
  5 20  1  0  0  0  0
  6  7  1  0  0  0  0
  6 25  1  0  0  0  0
  6 26  1  0  0  0  0
  7  8  1  0  0  0  0
  7  9  1  0  0  0  0
  7 27  1  0  0  0  0
  8 28  1  0  0  0  0
  8 29  1  0  0  0  0
  8 30  1  0  0  0  0
  9 10  1  0  0  0  0
  9 31  1  0  0  0  0
  9 47  1  0  0  0  0
 10 11  1  0  0  0  0
 10 32  1  0  0  0  0
 10 33  1  0  0  0  0
 11 12  1  0  0  0  0
 11 13  1  0  0  0  0
 11 34  1  0  0  0  0
 12 35  1  0  0  0  0
 13 14  1  0  0  0  0
 13 36  1  0  0  0  0
 13 37  1  0  0  0  0
 14 19  1  0  0  0  0
 14 15  1  0  0  0  0
 14 48  1  0  0  0  0
 15 16  1  0  0  0  0
 15 38  1  0  0  0  0
 15 39  1  0  0  0  0
 16 17  1  0  0  0  0
 16 40  1  0  0  0  0
 16 41  1  0  0  0  0
 17 18  1  0  0  0  0
 18 19  1  0  0  0  0
 18 42  1  0  0  0  0
 18 43  1  0  0  0  0
 19 44  1  0  0  0  0
 19 45  1  0  0  0  0
 20 46  1  0  0  0  0
M  CHG  1   9   1
M  CHG  1  14   1
M  END
> <s_m_source_file>
AV-unprocessed.smi

> <i_m_source_file_index>
3031

> <i_lp_mmshare_version>
43012

> <i_f3d_flags>
0

> <s_epik_input>
W0NIM11jMVtjSF1ubihbY0hdMSlbQ0gyXVtDQEhdKFtDSDNdKVtOSF1bQ0gyXVtDQEhdKFtPSF0pW0NIMl1OMltDSDJdW0NIMl1PW0NIMl1bQ0gyXTI=

> <s_epik_cmdline>
J2VwaWtfcHl0aG9uJywgJy1waCcsICc3LjAnLCAnLXRuJywgJzgnLCAnLW1hJywgJzIwMCcsICctbWV0YWxfYmluZGluZycsICctaW1hZScsICc8aW5maWxlLm1hZT4nLCAnLW9tYWUnLCAnPG91dGZpbGUubWFlPic=

> <r_lp_tautomer_probability>
1

> <r_epik_Ionization_Penalty>
1.76542

> <r_epik_Ionization_Penalty_Charging>
1.76348

> <r_epik_Ionization_Penalty_Neutral>
0.00194017

> <r_epik_State_Penalty>
1.49348

> <r_epik_Charging_Adjusted_Penalty>
3.25696

> <i_epik_Tot_Q>
2

> <i_epik_Tot_abs_Q>
2

> <r_epik_Metal_State_Penalty>
1.49349

> <b_epik_Metal_Only>
0

> <s_lp_Force_Field>
OPLS_2005

> <r_lp_Energy>
28.4524

> <b_lp_Chiralities_Consistent>
1

> <s_lp_Variant>
AV-unprocessed.smi:3031-10

> <Gold.Version>
5.8.1

> <Gold.Id.Protein>
6NUR|6NUR_protein|mol2

> <Gold.PLP.Fitness>
51.9353

> <Gold.PLP.PLP>
-34.9508

> <Gold.PLP.part.hbond>
-4.8734

> <Gold.PLP.part.metal>
0.0000

> <Gold.PLP.part.buried>
-2.6607

> <Gold.PLP.part.nonpolar>
-28.5377

> <Gold.PLP.part.repulsive>
0.2407

> <Gold.PLP.ligand.clash>
0.0000

> <Gold.PLP.ligand.torsion>
2.0998

> <Gold.PLP.Chemscore.Hbond>
5.9913

> <Gold.PLP.Chemscore.CHOScore>
0.9753

> <Gold.PLP.Chemscore.Metal>
0.0000

> <Gold.Chemscore.Hbonds>
donor molecule, donor type, donor heavy atom, donor atom, acceptor molecule, acceptor atom, score
      L1  H     9    31       P1  7957  1.00
      L1  H     9    47       P1  7948  2.00
      L1  H    12    35       P1 10171  1.00
      L1  H    14    48       P1  7948  2.00
      L1  C    20    46       P1  8028  0.98

> <Gold.PLP.Chemscore.Internal.Correction>
0.2843

> <Gold.Rescore>
     Score         DG    S(hbond)    S(metal)    S(lipo)     H(rot)  DE(clash)    DE(int)     intcor
     18.21     -21.59       3.85        0.00      87.86       2.74       0.13       3.25       ----

> <Gold.Chemscore.Fitness>
18.2146

> <Gold.Chemscore.DG>
-21.5948

> <Gold.Chemscore.ZeroCoef>
-5.4800

> <Gold.Chemscore.Hbond>
3.8497

> <Gold.Chemscore.Metal>
0.0000

> <Gold.Chemscore.Lipo>
87.8627

> <Gold.Chemscore.Internal_Hbond>
0.0000

> <Gold.Chemscore.DEClash>
0.1258

> <Gold.Chemscore.DEInternal>
3.2545

> <Gold.Chemscore.Rot>
2.7434

> <Gold.Chemscore.Internal.Correction>
   9.000000E+99

> <Gold.Chemscore.Hbonds>
donor molecule, donor type, donor heavy atom, donor atom, acceptor molecule, acceptor atom, score
      L1  H     9    31       P1  7957  0.94
      L1  H     9    47       P1  7948  0.98
      L1  H    12    35       P1 10171  0.93
      L1  H    14    48       P1  7948  1.00

> <Gold.Chemscore.Hbond.Weighted>
-12.8580

> <Gold.Chemscore.Metal.Weighted>
-0.0000

> <Gold.Chemscore.Lipo.Weighted>
-10.2799

> <Gold.Chemscore.Internal_Hbond.Weighted>
0.0000

> <Gold.Chemscore.DEClash.Weighted>
0.1258

> <Gold.Chemscore.DEInternal.Weighted>
3.2545

> <Gold.Chemscore.Rot.Weighted>
7.0231

> <Gold.Chemscore.Internal.Correction.Weighted>
   9.000000E+99

> <Gold.Protein.RotatedTorsions>
[ 6907 6896 6895 6894 ] final -165.89 input  -60.11 | X-H torsion
[ 7974 7965 7964 7962 ] final  177.18 input  175.53 | X-H torsion
[ 8008 7997 7996 7995 ] final  -74.85 input   59.86 | X-H torsion
[ 10167 10162 10161 10158 ] final -123.53 input  -65.29 | X-H torsion
[ 10718 10713 10712 10709 ] final -168.29 input   66.30 | X-H torsion
[ 10763 10752 10751 10750 ] final  100.60 input  -60.55 | X-H torsion
[ 11005 11000 10999 10996 ] final  -67.29 input  -57.11 | X-H torsion

> <Gold.Protein.ActiveResidues>
 VAL166  LYS551  ARG553  GLY616  TRP617  ASP618  TYR619  PRO620  LYS621  CYS622 
 ASP623  PHE694  ASN695  SER759  ASP760  ASP761  ALA762  ILE779  LEU786  VAL792 
 PHE793  MET794  SER795  GLU796  ALA797  LYS798  CYS799  TRP800  GLU811  SER814 

> <Gold.Protein.RotatedAtoms>
  151.4348  133.3660  159.2773 H   0  0  0  0  0  0  0  0  0  0  0  0  # atno 6907 bound_to 6896
  150.9199  134.8618  159.7493 H   0  0  0  0  0  0  0  0  0  0  0  0  # atno 6908 bound_to 6896
  152.4976  134.4285  159.9556 H   0  0  0  0  0  0  0  0  0  0  0  0  # atno 6909 bound_to 6896
  144.7173  140.0208  143.6440 H   0  0  0  0  0  0  0  0  0  0  0  0  # atno 7974 bound_to 7965
  154.5366  140.0754  156.8437 H   0  0  0  0  0  0  0  0  0  0  0  0  # atno 8008 bound_to 7997
  155.3266  140.3399  155.4222 H   0  0  0  0  0  0  0  0  0  0  0  0  # atno 8009 bound_to 7997
  156.1834  140.1660  156.8218 H   0  0  0  0  0  0  0  0  0  0  0  0  # atno 8010 bound_to 7997
  140.0025  143.5526  152.2297 H   0  0  0  0  0  0  0  0  0  0  0  0  # atno 10167 bound_to 10162
  156.6948  130.9173  151.3073 H   0  0  0  0  0  0  0  0  0  0  0  0  # atno 10718 bound_to 10713
  153.3160  135.4073  155.1376 H   0  0  0  0  0  0  0  0  0  0  0  0  # atno 10763 bound_to 10752
  154.8588  135.3576  154.5660 H   0  0  0  0  0  0  0  0  0  0  0  0  # atno 10764 bound_to 10752
  153.6091  135.7068  153.5413 H   0  0  0  0  0  0  0  0  0  0  0  0  # atno 10765 bound_to 10752
  141.1504  133.6716  156.6270 H   0  0  0  0  0  0  0  0  0  0  0  0  # atno 11005 bound_to 11000
  146.0182  139.3228  143.0829 LP  0  0  0  0  0  0  0  0  0  0  0  0  # atno 17320 bound_to 7965
  145.8600  140.9481  143.0705 LP  0  0  0  0  0  0  0  0  0  0  0  0  # atno 17321 bound_to 7965
  139.6262  144.7637  151.2634 LP  0  0  0  0  0  0  0  0  0  0  0  0  # atno 17342 bound_to 10162
  140.7413  143.6560  150.8206 LP  0  0  0  0  0  0  0  0  0  0  0  0  # atno 17343 bound_to 10162
  157.6995  130.9318  150.0743 LP  0  0  0  0  0  0  0  0  0  0  0  0  # atno 17370 bound_to 10713
  156.1771  130.3648  149.9085 LP  0  0  0  0  0  0  0  0  0  0  0  0  # atno 17371 bound_to 10713
  140.3496  134.7780  157.4457 LP  0  0  0  0  0  0  0  0  0  0  0  0  # atno 17394 bound_to 11000
  140.0871  134.5651  155.8481 LP  0  0  0  0  0  0  0  0  0  0  0  0  # atno 17395 bound_to 11000

$$$$
