AV-unprocessed.smi:3171|AV-procd|sdf|12112|dock7
  -GOLD-   2272017553D 1   1.00000     0.00000
 Structure written by MMmdl.
 33 34  0  0  0  0  0  0  0  0  1 V2000
  147.4603  138.8506  153.2658 C   0  0  0  0  0  0  0  0  0  0  0  0
  148.3719  139.7361  154.0967 C   0  0  0  0  0  0  0  0  0  0  0  0
  147.8631  140.9492  154.4042 N   0  0  0  0  0  0  0  0  0  0  0  0
  148.5704  141.8137  155.1329 N   0  0  0  0  0  0  0  0  0  0  0  0
  149.8113  141.5003  155.5782 C   0  0  0  0  0  0  0  0  0  0  0  0
  150.4946  142.4648  156.3430 N   0  0  0  0  0  0  0  0  0  0  0  0
  151.0396  142.1498  157.6583 C   0  0  0  0  0  0  0  0  0  0  0  0
  151.8588  143.3111  158.2446 C   0  0  1  0  0  0  0  0  0  0  0  0
  151.0807  144.6204  158.3335 C   0  0  0  0  0  0  0  0  0  0  0  0
  151.8666  145.3665  159.3880 C   0  0  0  0  0  0  0  0  0  0  0  0
  152.2691  144.2469  160.3470 C   0  0  0  0  0  0  0  0  0  0  0  0
  152.2209  143.0364  159.5942 O   0  0  0  0  0  0  0  0  0  0  0  0
  150.4060  140.2431  155.2946 C   0  0  0  0  0  0  0  0  0  0  0  0
  151.7428  139.9071  155.7806 C   0  0  0  0  0  0  0  0  0  0  0  0
  152.8011  139.6408  156.1656 N   0  0  0  0  0  0  0  0  0  0  0  0
  149.6581  139.3211  154.5197 C   0  0  0  0  0  0  0  0  0  0  0  0
  150.2173  137.9455  154.1655 C   0  0  0  0  0  0  0  0  0  0  0  0
  147.2511  137.9184  153.7908 H   0  0  0  0  0  0  0  0  0  0  0  0
  147.9256  138.6165  152.3081 H   0  0  0  0  0  0  0  0  0  0  0  0
  146.5062  139.3384  153.0613 H   0  0  0  0  0  0  0  0  0  0  0  0
  150.3726  143.4396  156.1090 H   0  0  0  0  0  0  0  0  0  0  0  0
  150.2296  141.8769  158.3356 H   0  0  0  0  0  0  0  0  0  0  0  0
  151.6682  141.2635  157.5672 H   0  0  0  0  0  0  0  0  0  0  0  0
  152.7703  143.4799  157.6687 H   0  0  0  0  0  0  0  0  0  0  0  0
  151.0303  145.1509  157.3823 H   0  0  0  0  0  0  0  0  0  0  0  0
  150.0627  144.4408  158.6823 H   0  0  0  0  0  0  0  0  0  0  0  0
  152.7553  145.8141  158.9407 H   0  0  0  0  0  0  0  0  0  0  0  0
  151.2931  146.1577  159.8716 H   0  0  0  0  0  0  0  0  0  0  0  0
  153.2615  144.4094  160.7681 H   0  0  0  0  0  0  0  0  0  0  0  0
  151.5600  144.1702  161.1718 H   0  0  0  0  0  0  0  0  0  0  0  0
  151.1845  138.0441  153.6717 H   0  0  0  0  0  0  0  0  0  0  0  0
  149.5740  137.3766  153.4966 H   0  0  0  0  0  0  0  0  0  0  0  0
  150.3555  137.3536  155.0707 H   0  0  0  0  0  0  0  0  0  0  0  0
  1  2  1  0  0  0  0
  1 18  1  0  0  0  0
  1 19  1  0  0  0  0
  1 20  1  0  0  0  0
  2 16  1  0  0  0  0
  2  3  2  0  0  0  0
  3  4  1  0  0  0  0
  4  5  2  0  0  0  0
  5  6  1  0  0  0  0
  5 13  1  0  0  0  0
  6  7  1  0  0  0  0
  6 21  1  0  0  0  0
  7  8  1  0  0  0  0
  7 22  1  0  0  0  0
  7 23  1  0  0  0  0
  8 12  1  0  0  0  0
  8  9  1  0  0  0  0
  8 24  1  0  0  0  0
  9 10  1  0  0  0  0
  9 25  1  0  0  0  0
  9 26  1  0  0  0  0
 10 11  1  0  0  0  0
 10 27  1  0  0  0  0
 10 28  1  0  0  0  0
 11 12  1  0  0  0  0
 11 29  1  0  0  0  0
 11 30  1  0  0  0  0
 13 14  1  0  0  0  0
 13 16  2  0  0  0  0
 14 15  3  0  0  0  0
 16 17  1  0  0  0  0
 17 31  1  0  0  0  0
 17 32  1  0  0  0  0
 17 33  1  0  0  0  0
M  END
> <s_m_source_file>
AV-unprocessed.smi

> <i_m_source_file_index>
3171

> <i_lp_mmshare_version>
43012

> <i_f3d_flags>
0

> <s_epik_input>
W0NIM11jMW5uYyhjKEMjTiljMVtDSDNdKVtOSF1bQ0gyXVtDQEBIXTJbQ0gyXVtDSDJdW0NIMl1PMg==

> <s_epik_cmdline>
J2VwaWtfcHl0aG9uJywgJy1waCcsICc3LjAnLCAnLXRuJywgJzgnLCAnLW1hJywgJzIwMCcsICctbWV0YWxfYmluZGluZycsICctaW1hZScsICc8aW5maWxlLm1hZT4nLCAnLW9tYWUnLCAnPG91dGZpbGUubWFlPic=

> <r_lp_tautomer_probability>
1

> <r_epik_Ionization_Penalty>
0.00108228

> <r_epik_Ionization_Penalty_Charging>
0

> <r_epik_Ionization_Penalty_Neutral>
0.00108228

> <r_epik_State_Penalty>
-0

> <r_epik_Charging_Adjusted_Penalty>
0

> <i_epik_Tot_Q>
0

> <i_epik_Tot_abs_Q>
0

> <r_epik_Metal_State_Penalty>
-0

> <b_epik_Metal_Only>
0

> <s_lp_Force_Field>
OPLS_2005

> <r_lp_Energy>
28.3967

> <b_lp_Chiralities_Consistent>
1

> <s_lp_Variant>
AV-unprocessed.smi:3171-2

> <Gold.Version>
5.8.1

> <Gold.Id.Protein>
6NUR|6NUR_protein|mol2

> <Gold.PLP.Fitness>
39.6952

> <Gold.PLP.PLP>
-35.3817

> <Gold.PLP.part.hbond>
-2.0000

> <Gold.PLP.part.metal>
0.0000

> <Gold.PLP.part.buried>
-3.8668

> <Gold.PLP.part.nonpolar>
-32.3022

> <Gold.PLP.part.repulsive>
1.4987

> <Gold.PLP.ligand.clash>
0.0000

> <Gold.PLP.ligand.torsion>
0.5228

> <Gold.PLP.Chemscore.Hbond>
1.7840

> <Gold.PLP.Chemscore.CHOScore>
0.0000

> <Gold.PLP.Chemscore.Metal>
0.0000

> <Gold.Chemscore.Hbonds>
donor molecule, donor type, donor heavy atom, donor atom, acceptor molecule, acceptor atom, score
      L1  H     6    21       P1  8028  0.80
      P1  H  7997  8008       L1    15  1.00

> <Gold.PLP.Chemscore.Internal.Correction>
0.0070

> <Gold.Rescore>
     Score         DG    S(hbond)    S(metal)    S(lipo)     H(rot)  DE(clash)    DE(int)     intcor
     17.52     -19.29       1.96        0.00      88.73       1.22       0.07       1.71       ----

> <Gold.Chemscore.Fitness>
17.5154

> <Gold.Chemscore.DG>
-19.2882

> <Gold.Chemscore.ZeroCoef>
-5.4800

> <Gold.Chemscore.Hbond>
1.9595

> <Gold.Chemscore.Metal>
0.0000

> <Gold.Chemscore.Lipo>
88.7331

> <Gold.Chemscore.Internal_Hbond>
0.0000

> <Gold.Chemscore.DEClash>
0.0656

> <Gold.Chemscore.DEInternal>
1.7072

> <Gold.Chemscore.Rot>
1.2181

> <Gold.Chemscore.Internal.Correction>
   9.000000E+99

> <Gold.Chemscore.Hbonds>
donor molecule, donor type, donor heavy atom, donor atom, acceptor molecule, acceptor atom, score
      L1  H     6    21       P1  8028  0.76
      P1  H  7997  8008       L1    15  1.00

> <Gold.Chemscore.Hbond.Weighted>
-6.5447

> <Gold.Chemscore.Metal.Weighted>
-0.0000

> <Gold.Chemscore.Lipo.Weighted>
-10.3818

> <Gold.Chemscore.Internal_Hbond.Weighted>
0.0000

> <Gold.Chemscore.DEClash.Weighted>
0.0656

> <Gold.Chemscore.DEInternal.Weighted>
1.7072

> <Gold.Chemscore.Rot.Weighted>
3.1182

> <Gold.Chemscore.Internal.Correction.Weighted>
   9.000000E+99

> <Gold.Protein.RotatedTorsions>
[ 6907 6896 6895 6894 ] final  -96.54 input  -60.11 | X-H torsion
[ 7974 7965 7964 7962 ] final  -27.87 input  175.53 | X-H torsion
[ 8008 7997 7996 7995 ] final  -30.06 input   59.86 | X-H torsion
[ 10167 10162 10161 10158 ] final   73.83 input  -65.29 | X-H torsion
[ 10718 10713 10712 10709 ] final -111.94 input   66.30 | X-H torsion
[ 10763 10752 10751 10750 ] final   82.56 input  -60.55 | X-H torsion
[ 11005 11000 10999 10996 ] final  104.06 input  -57.11 | X-H torsion

> <Gold.Protein.ActiveResidues>
 VAL166  LYS551  ARG553  GLY616  TRP617  ASP618  TYR619  PRO620  LYS621  CYS622 
 ASP623  PHE694  ASN695  SER759  ASP760  ASP761  ALA762  ILE779  LEU786  VAL792 
 PHE793  MET794  SER795  GLU796  ALA797  LYS798  CYS799  TRP800  GLU811  SER814 

> <Gold.Protein.RotatedAtoms>
  150.6991  134.1488  159.4132 H   0  0  0  0  0  0  0  0  0  0  0  0  # atno 6907 bound_to 6896
  151.9471  135.0184  160.0549 H   0  0  0  0  0  0  0  0  0  0  0  0  # atno 6908 bound_to 6896
  152.2043  133.4829  159.5112 H   0  0  0  0  0  0  0  0  0  0  0  0  # atno 6909 bound_to 6896
  146.1328  140.5208  142.8686 H   0  0  0  0  0  0  0  0  0  0  0  0  # atno 7974 bound_to 7965
  154.4265  140.1801  156.1346 H   0  0  0  0  0  0  0  0  0  0  0  0  # atno 8008 bound_to 7997
  156.0040  140.3357  155.6849 H   0  0  0  0  0  0  0  0  0  0  0  0  # atno 8009 bound_to 7997
  155.6203  140.0659  157.2670 H   0  0  0  0  0  0  0  0  0  0  0  0  # atno 8010 bound_to 7997
  140.0202  144.5546  150.7588 H   0  0  0  0  0  0  0  0  0  0  0  0  # atno 10167 bound_to 10162
  156.0676  130.5894  150.8441 H   0  0  0  0  0  0  0  0  0  0  0  0  # atno 10718 bound_to 10713
  153.1213  135.4724  154.9200 H   0  0  0  0  0  0  0  0  0  0  0  0  # atno 10763 bound_to 10752
  154.7578  135.3123  154.8439 H   0  0  0  0  0  0  0  0  0  0  0  0  # atno 10764 bound_to 10752
  153.9003  135.6876  153.4809 H   0  0  0  0  0  0  0  0  0  0  0  0  # atno 10765 bound_to 10752
  139.8788  134.9286  156.5304 H   0  0  0  0  0  0  0  0  0  0  0  0  # atno 11005 bound_to 11000
  144.7708  140.5633  143.6671 LP  0  0  0  0  0  0  0  0  0  0  0  0  # atno 17320 bound_to 7965
  145.5223  139.1476  143.3545 LP  0  0  0  0  0  0  0  0  0  0  0  0  # atno 17321 bound_to 7965
  140.7345  143.2730  151.3829 LP  0  0  0  0  0  0  0  0  0  0  0  0  # atno 17342 bound_to 10162
  139.6145  144.1031  152.2332 LP  0  0  0  0  0  0  0  0  0  0  0  0  # atno 17343 bound_to 10162
  157.5728  131.0946  150.9392 LP  0  0  0  0  0  0  0  0  0  0  0  0  # atno 17370 bound_to 10713
  156.9605  130.5453  149.5286 LP  0  0  0  0  0  0  0  0  0  0  0  0  # atno 17371 bound_to 10713
  140.8385  133.8224  155.9052 LP  0  0  0  0  0  0  0  0  0  0  0  0  # atno 17394 bound_to 11000
  140.9261  134.2081  157.4895 LP  0  0  0  0  0  0  0  0  0  0  0  0  # atno 17395 bound_to 11000

$$$$
