AV-unprocessed.smi:1432|AV-procd|sdf|5833|dock2
  -GOLD-   22720 5493D 1   1.00000     0.00000
 Structure written by MMmdl.
 47 48  0  0  0  0  0  0  0  0  2 V2000
  144.2872  136.8476  153.2995 C   0  0  0  0  0  0  0  0  0  0  0  0
  145.5970  136.4104  152.6079 C   0  0  2  0  0  0  0  0  0  0  0  0
  145.3405  135.6809  151.2724 C   0  0  0  0  0  0  0  0  0  0  0  0
  144.7892  134.2633  151.4851 C   0  0  0  0  0  0  0  0  0  0  0  0
  145.7181  133.4719  152.4136 C   0  0  0  0  0  0  0  0  0  0  0  0
  145.9570  134.2222  153.7343 C   0  0  0  0  0  0  0  0  0  0  0  0
  146.4870  135.5908  153.4847 N   0  3  2  0  0  0  0  0  0  0  0  0
  146.9240  136.2963  154.7171 C   0  0  0  0  0  0  0  0  0  0  0  0
  147.6847  135.3674  155.6823 C   0  0  0  0  0  0  0  0  0  0  0  0
  147.7877  135.9467  157.0164 N   0  0  0  0  0  0  0  0  0  0  0  0
  148.5210  135.4391  158.0187 C   0  0  0  0  0  0  0  0  0  0  0  0
  149.2140  134.4279  157.8978 O   0  0  0  0  0  0  0  0  0  0  0  0
  148.4738  136.2081  159.3467 C   0  0  0  0  0  0  0  0  0  0  0  0
  147.9445  135.4068  160.4634 N   0  0  0  0  0  0  0  0  0  0  0  0
  147.8822  134.0112  160.2804 C   0  0  0  0  0  0  0  0  0  0  0  0
  147.4017  133.1702  161.2161 C   0  0  0  0  0  0  0  0  0  0  0  0
  147.3920  131.6636  161.0085 C   0  0  0  0  0  0  0  0  0  0  0  0
  147.7387  131.3485  159.7602 F   0  0  0  0  0  0  0  0  0  0  0  0
  148.2597  131.0865  161.8387 F   0  0  0  0  0  0  0  0  0  0  0  0
  146.1842  131.1524  161.2497 F   0  0  0  0  0  0  0  0  0  0  0  0
  146.9738  133.7705  162.4646 C   0  0  0  0  0  0  0  0  0  0  0  0
  147.0322  135.1025  162.6581 C   0  0  0  0  0  0  0  0  0  0  0  0
  147.5314  136.0068  161.6199 C   0  0  0  0  0  0  0  0  0  0  0  0
  147.5755  137.2270  161.7787 O   0  0  0  0  0  0  0  0  0  0  0  0
  143.6841  137.4583  152.6275 H   0  0  0  0  0  0  0  0  0  0  0  0
  144.4797  137.4511  154.1866 H   0  0  0  0  0  0  0  0  0  0  0  0
  143.6735  135.9998  153.6024 H   0  0  0  0  0  0  0  0  0  0  0  0
  146.1442  137.3221  152.3626 H   0  0  0  0  0  0  0  0  0  0  0  0
  144.6568  136.2586  150.6493 H   0  0  0  0  0  0  0  0  0  0  0  0
  146.2758  135.6175  150.7140 H   0  0  0  0  0  0  0  0  0  0  0  0
  143.7871  134.3090  151.9128 H   0  0  0  0  0  0  0  0  0  0  0  0
  144.6920  133.7514  150.5272 H   0  0  0  0  0  0  0  0  0  0  0  0
  145.2933  132.4879  152.6153 H   0  0  0  0  0  0  0  0  0  0  0  0
  146.6726  133.2995  151.9146 H   0  0  0  0  0  0  0  0  0  0  0  0
  145.0346  134.2752  154.3135 H   0  0  0  0  0  0  0  0  0  0  0  0
  146.6621  133.6484  154.3342 H   0  0  0  0  0  0  0  0  0  0  0  0
  147.5853  137.1179  154.4378 H   0  0  0  0  0  0  0  0  0  0  0  0
  146.0635  136.7468  155.2141 H   0  0  0  0  0  0  0  0  0  0  0  0
  147.1734  134.4112  155.7852 H   0  0  0  0  0  0  0  0  0  0  0  0
  148.6807  135.1459  155.2951 H   0  0  0  0  0  0  0  0  0  0  0  0
  147.2488  136.7817  157.1975 H   0  0  0  0  0  0  0  0  0  0  0  0
  149.4814  136.5604  159.5710 H   0  0  0  0  0  0  0  0  0  0  0  0
  147.8776  137.1140  159.2212 H   0  0  0  0  0  0  0  0  0  0  0  0
  148.2463  133.6662  159.3235 H   0  0  0  0  0  0  0  0  0  0  0  0
  146.5949  133.1423  163.2572 H   0  0  0  0  0  0  0  0  0  0  0  0
  146.7020  135.5156  163.6001 H   0  0  0  0  0  0  0  0  0  0  0  0
  147.3297  135.4619  152.9427 H   0  0  0  0  0  0  0  0  0  0  0  0
  1  2  1  0  0  0  0
  1 25  1  0  0  0  0
  1 26  1  0  0  0  0
  1 27  1  0  0  0  0
  2  7  1  0  0  0  0
  2  3  1  0  0  0  0
  2 28  1  0  0  0  0
  3  4  1  0  0  0  0
  3 29  1  0  0  0  0
  3 30  1  0  0  0  0
  4  5  1  0  0  0  0
  4 31  1  0  0  0  0
  4 32  1  0  0  0  0
  5  6  1  0  0  0  0
  5 33  1  0  0  0  0
  5 34  1  0  0  0  0
  6  7  1  0  0  0  0
  6 35  1  0  0  0  0
  6 36  1  0  0  0  0
  7  8  1  0  0  0  0
  7 47  1  0  0  0  0
  8  9  1  0  0  0  0
  8 37  1  0  0  0  0
  8 38  1  0  0  0  0
  9 10  1  0  0  0  0
  9 39  1  0  0  0  0
  9 40  1  0  0  0  0
 10 11  1  0  0  0  0
 10 41  1  0  0  0  0
 11 12  2  0  0  0  0
 11 13  1  0  0  0  0
 13 14  1  0  0  0  0
 13 42  1  0  0  0  0
 13 43  1  0  0  0  0
 14 23  1  0  0  0  0
 14 15  1  0  0  0  0
 15 16  2  0  0  0  0
 15 44  1  0  0  0  0
 16 17  1  0  0  0  0
 16 21  1  0  0  0  0
 17 18  1  0  0  0  0
 17 19  1  0  0  0  0
 17 20  1  0  0  0  0
 21 22  2  0  0  0  0
 21 45  1  0  0  0  0
 22 23  1  0  0  0  0
 22 46  1  0  0  0  0
 23 24  2  0  0  0  0
M  CHG  1   7   1
M  END
> <s_m_source_file>
AV-unprocessed.smi

> <i_m_source_file_index>
1432

> <i_lp_mmshare_version>
43012

> <i_f3d_flags>
0

> <s_epik_input>
W0NIM11bQ0BASF0xW0NIMl1bQ0gyXVtDSDJdW0NIMl1OMVtDSDJdW0NIMl1bTkhdQyg9TylbQ0gyXW4yW2NIXWMoQyhGKShGKUYpW2NIXVtjSF1jMj1P

> <s_epik_cmdline>
J2VwaWtfcHl0aG9uJywgJy1waCcsICc3LjAnLCAnLXRuJywgJzgnLCAnLW1hJywgJzIwMCcsICctbWV0YWxfYmluZGluZycsICctaW1hZScsICc8aW5maWxlLm1hZT4nLCAnLW9tYWUnLCAnPG91dGZpbGUubWFlPic=

> <r_lp_tautomer_probability>
1

> <r_epik_Ionization_Penalty>
0.00237222

> <r_epik_Ionization_Penalty_Charging>
0.00237213

> <r_epik_Ionization_Penalty_Neutral>
8.2065e-08

> <r_epik_State_Penalty>
0.00163922

> <r_epik_Charging_Adjusted_Penalty>
0.00401135

> <i_epik_Tot_Q>
1

> <i_epik_Tot_abs_Q>
1

> <r_epik_Metal_State_Penalty>
-0

> <b_epik_Metal_Only>
0

> <s_lp_Force_Field>
OPLS_2005

> <r_lp_Energy>
31.3892

> <b_lp_Chiralities_Consistent>
1

> <s_lp_Variant>
AV-unprocessed.smi:1432-3

> <Gold.Version>
5.8.1

> <Gold.Id.Protein>
6NUR|6NUR_protein|mol2

> <Gold.PLP.Fitness>
50.6482

> <Gold.PLP.PLP>
-38.6933

> <Gold.PLP.part.hbond>
-4.0000

> <Gold.PLP.part.metal>
0.0000

> <Gold.PLP.part.buried>
-4.9481

> <Gold.PLP.part.nonpolar>
-30.6815

> <Gold.PLP.part.repulsive>
0.0000

> <Gold.PLP.ligand.clash>
1.2013

> <Gold.PLP.ligand.torsion>
0.5279

> <Gold.PLP.Chemscore.Hbond>
4.6960

> <Gold.PLP.Chemscore.CHOScore>
0.0000

> <Gold.PLP.Chemscore.Metal>
0.0000

> <Gold.Chemscore.Hbonds>
donor molecule, donor type, donor heavy atom, donor atom, acceptor molecule, acceptor atom, score
      L1  H     7    47       P1  7948  1.76
      P1  H  6896  6908       L1    12  0.89
      P1  H  6931  6943       L1    24  0.96
      P1  H  6934  6947       L1    24  0.72

> <Gold.PLP.Chemscore.Internal.Correction>
0.1240

> <Gold.Rescore>
     Score         DG    S(hbond)    S(metal)    S(lipo)     H(rot)  DE(clash)    DE(int)     intcor
     17.97     -19.80       3.58        0.00      65.72       2.08       0.00       1.82       ----

> <Gold.Chemscore.Fitness>
17.9747

> <Gold.Chemscore.DG>
-19.8016

> <Gold.Chemscore.ZeroCoef>
-5.4800

> <Gold.Chemscore.Hbond>
3.5770

> <Gold.Chemscore.Metal>
0.0000

> <Gold.Chemscore.Lipo>
65.7221

> <Gold.Chemscore.Internal_Hbond>
0.0000

> <Gold.Chemscore.DEClash>
0.0048

> <Gold.Chemscore.DEInternal>
1.8221

> <Gold.Chemscore.Rot>
2.0762

> <Gold.Chemscore.Internal.Correction>
   9.000000E+99

> <Gold.Chemscore.Hbonds>
donor molecule, donor type, donor heavy atom, donor atom, acceptor molecule, acceptor atom, score
      L1  H     7    47       P1  7948  0.81
      P1  H  6896  6908       L1    12  0.81
      P1  H  6931  6943       L1    24  0.92
      P1  H  6934  6947       L1    24  0.68

> <Gold.Chemscore.Hbond.Weighted>
-11.9471

> <Gold.Chemscore.Metal.Weighted>
-0.0000

> <Gold.Chemscore.Lipo.Weighted>
-7.6895

> <Gold.Chemscore.Internal_Hbond.Weighted>
0.0000

> <Gold.Chemscore.DEClash.Weighted>
0.0048

> <Gold.Chemscore.DEInternal.Weighted>
1.8221

> <Gold.Chemscore.Rot.Weighted>
5.3150

> <Gold.Chemscore.Internal.Correction.Weighted>
   9.000000E+99

> <Gold.Protein.RotatedTorsions>
[ 6907 6896 6895 6894 ] final  141.91 input  -60.11 | X-H torsion
[ 7974 7965 7964 7962 ] final -179.85 input  175.53 | X-H torsion
[ 8008 7997 7996 7995 ] final -156.66 input   59.86 | X-H torsion
[ 10167 10162 10161 10158 ] final    8.68 input  -65.29 | X-H torsion
[ 10718 10713 10712 10709 ] final  128.17 input   66.30 | X-H torsion
[ 10763 10752 10751 10750 ] final  119.75 input  -60.55 | X-H torsion
[ 11005 11000 10999 10996 ] final   -1.31 input  -57.11 | X-H torsion

> <Gold.Protein.ActiveResidues>
 VAL166  LYS551  ARG553  GLY616  TRP617  ASP618  TYR619  PRO620  LYS621  CYS622 
 ASP623  PHE694  ASN695  SER759  ASP760  ASP761  ALA762  ILE779  LEU786  VAL792 
 PHE793  MET794  SER795  GLU796  ALA797  LYS798  CYS799  TRP800  GLU811  SER814 

> <Gold.Protein.RotatedAtoms>
  152.2252  133.5014  159.5184 H   0  0  0  0  0  0  0  0  0  0  0  0  # atno 6907 bound_to 6896
  150.7023  134.1290  159.4072 H   0  0  0  0  0  0  0  0  0  0  0  0  # atno 6908 bound_to 6896
  151.9211  135.0297  160.0573 H   0  0  0  0  0  0  0  0  0  0  0  0  # atno 6909 bound_to 6896
  144.7139  140.0656  143.6431 H   0  0  0  0  0  0  0  0  0  0  0  0  # atno 7974 bound_to 7965
  155.7207  140.0789  157.2332 H   0  0  0  0  0  0  0  0  0  0  0  0  # atno 8008 bound_to 7997
  154.4045  140.1613  156.2453 H   0  0  0  0  0  0  0  0  0  0  0  0  # atno 8009 bound_to 7997
  155.9199  140.3398  155.6168 H   0  0  0  0  0  0  0  0  0  0  0  0  # atno 8010 bound_to 7997
  140.6300  143.8015  150.7283 H   0  0  0  0  0  0  0  0  0  0  0  0  # atno 10167 bound_to 10162
  157.5268  131.1098  150.9071 H   0  0  0  0  0  0  0  0  0  0  0  0  # atno 10718 bound_to 10713
  153.5878  135.3471  155.2899 H   0  0  0  0  0  0  0  0  0  0  0  0  # atno 10763 bound_to 10752
  154.8657  135.4197  154.2550 H   0  0  0  0  0  0  0  0  0  0  0  0  # atno 10764 bound_to 10752
  153.3350  135.7046  153.6986 H   0  0  0  0  0  0  0  0  0  0  0  0  # atno 10765 bound_to 10752
  140.6459  133.9447  155.8352 H   0  0  0  0  0  0  0  0  0  0  0  0  # atno 11005 bound_to 11000
  145.9827  139.2954  143.1032 LP  0  0  0  0  0  0  0  0  0  0  0  0  # atno 17320 bound_to 7965
  145.8992  140.9254  143.0512 LP  0  0  0  0  0  0  0  0  0  0  0  0  # atno 17321 bound_to 7965
  140.1624  143.4264  152.2057 LP  0  0  0  0  0  0  0  0  0  0  0  0  # atno 17342 bound_to 10162
  139.5515  144.7341  151.4420 LP  0  0  0  0  0  0  0  0  0  0  0  0  # atno 17343 bound_to 10162
  156.9664  130.5474  149.5288 LP  0  0  0  0  0  0  0  0  0  0  0  0  # atno 17370 bound_to 10713
  156.0393  130.5477  150.8731 LP  0  0  0  0  0  0  0  0  0  0  0  0  # atno 17371 bound_to 10713
  141.0572  134.0399  157.3706 LP  0  0  0  0  0  0  0  0  0  0  0  0  # atno 17394 bound_to 11000
  139.9063  135.0180  156.7499 LP  0  0  0  0  0  0  0  0  0  0  0  0  # atno 17395 bound_to 11000

$$$$
