AV-unprocessed.smi:2021|AV-procd|sdf|8186|dock1
  -GOLD-   2272010443D 1   1.00000     0.00000
 Structure written by MMmdl.
 40 41  0  0  0  0  0  0  0  0  2 V2000
  154.4337  141.4552  160.9043 C   0  0  0  0  0  0  0  0  0  0  0  0
  153.4542  141.7061  159.7451 C   0  0  0  0  0  0  0  0  0  0  0  0
  152.9055  143.1392  159.8253 C   0  0  0  0  0  0  0  0  0  0  0  0
  152.3037  140.6724  159.7303 C   0  0  0  0  0  0  0  0  0  0  0  0
  151.6116  140.5163  158.4504 N   0  0  0  0  0  0  0  0  0  0  0  0
  150.8637  141.7224  158.1136 C   0  0  0  0  0  0  0  0  0  0  0  0
  150.1263  141.5860  156.7718 C   0  0  0  0  0  0  0  0  0  0  0  0
  149.2665  140.4533  156.8201 O   0  0  0  0  0  0  0  0  0  0  0  0
  149.9624  139.2374  157.0861 C   0  0  2  0  0  0  0  0  0  0  0  0
  148.9488  138.0846  157.1058 C   0  0  0  0  0  0  0  0  0  0  0  0
  148.3295  137.9617  158.4190 N   0  0  0  0  0  0  0  0  0  0  0  0
  148.7271  137.1203  159.3821 C   0  0  0  0  0  0  0  0  0  0  0  0
  149.6902  136.3753  159.1862 O   0  0  0  0  0  0  0  0  0  0  0  0
  147.9865  137.1937  160.5117 N   0  5  0  0  0  0  0  0  0  0  0  0
  147.5755  136.0687  161.1198 C   0  0  0  0  0  0  0  0  0  0  0  0
  147.1892  134.9808  160.4338 N   0  0  0  0  0  0  0  0  0  0  0  0
  146.7976  133.9295  161.2519 N   0  0  0  0  0  0  0  0  0  0  0  0
  146.8909  134.2566  162.5405 C   0  0  0  0  0  0  0  0  0  0  0  0
  147.4618  135.8785  162.8718 S   0  0  0  0  0  0  0  0  0  0  0  0
  150.7018  139.3732  158.4326 C   0  0  0  0  0  0  0  0  0  0  0  0
  153.9388  141.5641  161.8699 H   0  0  0  0  0  0  0  0  0  0  0  0
  155.2623  142.1633  160.8766 H   0  0  0  0  0  0  0  0  0  0  0  0
  154.8610  140.4541  160.8667 H   0  0  0  0  0  0  0  0  0  0  0  0
  154.0068  141.6339  158.8072 H   0  0  0  0  0  0  0  0  0  0  0  0
  152.3288  143.2932  160.7378 H   0  0  0  0  0  0  0  0  0  0  0  0
  152.2553  143.3584  158.9779 H   0  0  0  0  0  0  0  0  0  0  0  0
  153.7131  143.8714  159.8141 H   0  0  0  0  0  0  0  0  0  0  0  0
  152.6644  139.7044  160.0817 H   0  0  0  0  0  0  0  0  0  0  0  0
  151.5642  140.9835  160.4696 H   0  0  0  0  0  0  0  0  0  0  0  0
  150.1397  141.9405  158.9002 H   0  0  0  0  0  0  0  0  0  0  0  0
  151.5394  142.5771  158.0665 H   0  0  0  0  0  0  0  0  0  0  0  0
  149.5311  142.4774  156.5733 H   0  0  0  0  0  0  0  0  0  0  0  0
  150.8345  141.4816  155.9483 H   0  0  0  0  0  0  0  0  0  0  0  0
  150.6908  139.0601  156.2923 H   0  0  0  0  0  0  0  0  0  0  0  0
  148.1683  138.2649  156.3649 H   0  0  0  0  0  0  0  0  0  0  0  0
  149.4371  137.1461  156.8386 H   0  0  0  0  0  0  0  0  0  0  0  0
  147.5405  138.5607  158.6137 H   0  0  0  0  0  0  0  0  0  0  0  0
  146.6183  133.5398  163.3005 H   0  0  0  0  0  0  0  0  0  0  0  0
  151.2566  138.4532  158.6131 H   0  0  0  0  0  0  0  0  0  0  0  0
  149.9748  139.4670  159.2408 H   0  0  0  0  0  0  0  0  0  0  0  0
  1  2  1  0  0  0  0
  1 21  1  0  0  0  0
  1 22  1  0  0  0  0
  1 23  1  0  0  0  0
  2  3  1  0  0  0  0
  2  4  1  0  0  0  0
  2 24  1  0  0  0  0
  3 25  1  0  0  0  0
  3 26  1  0  0  0  0
  3 27  1  0  0  0  0
  4  5  1  0  0  0  0
  4 28  1  0  0  0  0
  4 29  1  0  0  0  0
  5 20  1  0  0  0  0
  5  6  1  0  0  0  0
  6  7  1  0  0  0  0
  6 30  1  0  0  0  0
  6 31  1  0  0  0  0
  7  8  1  0  0  0  0
  7 32  1  0  0  0  0
  7 33  1  0  0  0  0
  8  9  1  0  0  0  0
  9 10  1  0  0  0  0
  9 20  1  0  0  0  0
  9 34  1  0  0  0  0
 10 11  1  0  0  0  0
 10 35  1  0  0  0  0
 10 36  1  0  0  0  0
 11 12  1  0  0  0  0
 11 37  1  0  0  0  0
 12 13  2  0  0  0  0
 12 14  1  0  0  0  0
 14 15  1  0  0  0  0
 15 19  1  0  0  0  0
 15 16  2  0  0  0  0
 16 17  1  0  0  0  0
 17 18  2  0  0  0  0
 18 19  1  0  0  0  0
 18 38  1  0  0  0  0
 20 39  1  0  0  0  0
 20 40  1  0  0  0  0
M  CHG  1  14  -1
M  END
> <s_m_source_file>
AV-unprocessed.smi

> <i_m_source_file_index>
2021

> <i_lp_mmshare_version>
43012

> <i_f3d_flags>
0

> <s_epik_input>
W0NIM11bQ0hdKFtDSDNdKVtDSDJdTjFbQ0gyXVtDSDJdT1tDQEhdKFtDSDJdMSlbQ0gyXVtOSF1DKD1PKVtOSF1jMm5uW2NIXXMy

> <s_epik_cmdline>
J2VwaWtfcHl0aG9uJywgJy1waCcsICc3LjAnLCAnLXRuJywgJzgnLCAnLW1hJywgJzIwMCcsICctbWV0YWxfYmluZGluZycsICctaW1hZScsICc8aW5maWxlLm1hZT4nLCAnLW9tYWUnLCAnPG91dGZpbGUubWFlPic=

> <r_lp_tautomer_probability>
1

> <r_epik_Ionization_Penalty>
4.44864

> <r_epik_Ionization_Penalty_Charging>
3.27383

> <r_epik_Ionization_Penalty_Neutral>
1.17482

> <r_epik_State_Penalty>
4.44168

> <r_epik_Charging_Adjusted_Penalty>
7.7155

> <i_epik_Tot_Q>
-1

> <i_epik_Tot_abs_Q>
1

> <r_epik_Metal_State_Penalty>
1.66628

> <b_epik_Metal_Only>
1

> <s_lp_Force_Field>
OPLS_2005

> <r_lp_Energy>
22.4741

> <b_lp_Chiralities_Consistent>
1

> <s_lp_Variant>
AV-unprocessed.smi:2021-12

> <Gold.Version>
5.8.1

> <Gold.Id.Protein>
6NUR|6NUR_protein|mol2

> <Gold.PLP.Fitness>
44.6988

> <Gold.PLP.PLP>
-34.9405

> <Gold.PLP.part.hbond>
-3.0000

> <Gold.PLP.part.metal>
0.0000

> <Gold.PLP.part.buried>
-4.3191

> <Gold.PLP.part.nonpolar>
-28.4063

> <Gold.PLP.part.repulsive>
0.1733

> <Gold.PLP.ligand.clash>
0.0000

> <Gold.PLP.ligand.torsion>
1.3063

> <Gold.PLP.Chemscore.Hbond>
4.1040

> <Gold.PLP.Chemscore.CHOScore>
0.0000

> <Gold.PLP.Chemscore.Metal>
0.0000

> <Gold.Chemscore.Hbonds>
donor molecule, donor type, donor heavy atom, donor atom, acceptor molecule, acceptor atom, score
      P1  H  6896  6907       L1    13  1.00
      P1  H  6931  6943       L1    14  1.52
      P1  H  6934  6947       L1    14  1.52

> <Gold.PLP.Chemscore.Internal.Correction>
0.0589

> <Gold.Rescore>
     Score         DG    S(hbond)    S(metal)    S(lipo)     H(rot)  DE(clash)    DE(int)     intcor
     14.89     -16.50       1.88        0.00      80.10       1.81       0.11       1.49       ----

> <Gold.Chemscore.Fitness>
14.8934

> <Gold.Chemscore.DG>
-16.4971

> <Gold.Chemscore.ZeroCoef>
-5.4800

> <Gold.Chemscore.Hbond>
1.8767

> <Gold.Chemscore.Metal>
0.0000

> <Gold.Chemscore.Lipo>
80.0957

> <Gold.Chemscore.Internal_Hbond>
0.0000

> <Gold.Chemscore.DEClash>
0.1103

> <Gold.Chemscore.DEInternal>
1.4934

> <Gold.Chemscore.Rot>
1.8056

> <Gold.Chemscore.Internal.Correction>
   9.000000E+99

> <Gold.Chemscore.Hbonds>
donor molecule, donor type, donor heavy atom, donor atom, acceptor molecule, acceptor atom, score
      P1  H  6896  6907       L1    13  0.97
      P1  H  6931  6943       L1    14  0.28
      P1  H  6934  6947       L1    14  0.63

> <Gold.Chemscore.Hbond.Weighted>
-6.2683

> <Gold.Chemscore.Metal.Weighted>
-0.0000

> <Gold.Chemscore.Lipo.Weighted>
-9.3712

> <Gold.Chemscore.Internal_Hbond.Weighted>
0.0000

> <Gold.Chemscore.DEClash.Weighted>
0.1103

> <Gold.Chemscore.DEInternal.Weighted>
1.4934

> <Gold.Chemscore.Rot.Weighted>
4.6224

> <Gold.Chemscore.Internal.Correction.Weighted>
   9.000000E+99

> <Gold.Protein.RotatedTorsions>
[ 6907 6896 6895 6894 ] final  -58.81 input  -60.11 | X-H torsion
[ 7974 7965 7964 7962 ] final  -20.65 input  175.53 | X-H torsion
[ 8008 7997 7996 7995 ] final  -15.45 input   59.86 | X-H torsion
[ 10167 10162 10161 10158 ] final -130.20 input  -65.29 | X-H torsion
[ 10718 10713 10712 10709 ] final  -93.81 input   66.30 | X-H torsion
[ 10763 10752 10751 10750 ] final  100.50 input  -60.55 | X-H torsion
[ 11005 11000 10999 10996 ] final  171.63 input  -57.11 | X-H torsion

> <Gold.Protein.ActiveResidues>
 VAL166  LYS551  ARG553  GLY616  TRP617  ASP618  TYR619  PRO620  LYS621  CYS622 
 ASP623  PHE694  ASN695  SER759  ASP760  ASP761  ALA762  ILE779  LEU786  VAL792 
 PHE793  MET794  SER795  GLU796  ALA797  LYS798  CYS799  TRP800  GLU811  SER814 

> <Gold.Protein.RotatedAtoms>
  150.7978  134.7050  159.6571 H   0  0  0  0  0  0  0  0  0  0  0  0  # atno 6907 bound_to 6896
  152.4092  134.6150  160.0045 H   0  0  0  0  0  0  0  0  0  0  0  0  # atno 6908 bound_to 6896
  151.6398  133.3290  159.3164 H   0  0  0  0  0  0  0  0  0  0  0  0  # atno 6909 bound_to 6896
  146.1776  140.4232  142.8507 H   0  0  0  0  0  0  0  0  0  0  0  0  # atno 7974 bound_to 7965
  154.5129  140.2196  155.9121 H   0  0  0  0  0  0  0  0  0  0  0  0  # atno 8008 bound_to 7997
  156.1574  140.3149  155.8714 H   0  0  0  0  0  0  0  0  0  0  0  0  # atno 8009 bound_to 7997
  155.3820  140.0473  157.3034 H   0  0  0  0  0  0  0  0  0  0  0  0  # atno 8010 bound_to 7997
  139.9318  143.6264  152.2527 H   0  0  0  0  0  0  0  0  0  0  0  0  # atno 10167 bound_to 10162
  156.0018  130.5042  150.5832 H   0  0  0  0  0  0  0  0  0  0  0  0  # atno 10718 bound_to 10713
  153.3147  135.4077  155.1366 H   0  0  0  0  0  0  0  0  0  0  0  0  # atno 10763 bound_to 10752
  154.8585  135.3573  154.5676 H   0  0  0  0  0  0  0  0  0  0  0  0  # atno 10764 bound_to 10752
  153.6106  135.7068  153.5407 H   0  0  0  0  0  0  0  0  0  0  0  0  # atno 10765 bound_to 10752
  140.3211  134.7436  157.4065 H   0  0  0  0  0  0  0  0  0  0  0  0  # atno 11005 bound_to 11000
  144.8262  140.6632  143.6321 LP  0  0  0  0  0  0  0  0  0  0  0  0  # atno 17320 bound_to 7965
  145.4167  139.1571  143.4096 LP  0  0  0  0  0  0  0  0  0  0  0  0  # atno 17321 bound_to 7965
  139.6776  144.7657  151.1667 LP  0  0  0  0  0  0  0  0  0  0  0  0  # atno 17342 bound_to 10162
  140.7635  143.5772  150.8933 LP  0  0  0  0  0  0  0  0  0  0  0  0  # atno 17343 bound_to 10162
  157.3709  131.0765  151.1558 LP  0  0  0  0  0  0  0  0  0  0  0  0  # atno 17370 bound_to 10713
  157.2312  130.6526  149.5850 LP  0  0  0  0  0  0  0  0  0  0  0  0  # atno 17371 bound_to 10713
  140.0941  134.5561  155.8415 LP  0  0  0  0  0  0  0  0  0  0  0  0  # atno 17394 bound_to 11000
  141.2086  133.6675  156.6384 LP  0  0  0  0  0  0  0  0  0  0  0  0  # atno 17395 bound_to 11000

$$$$
