AV-unprocessed.smi:2470|AV-procd|sdf|9736|dock8
  -GOLD-   2272013373D 1   1.00000     0.00000
 Structure written by MMmdl.
 33 34  0  0  0  0  0  0  0  0  1 V2000
  151.8140  136.6510  156.6469 C   0  0  0  0  0  0  0  0  0  0  0  0
  151.9863  135.2894  157.0231 O   0  0  0  0  0  0  0  0  0  0  0  0
  151.1511  134.3473  156.4596 C   0  0  0  0  0  0  0  0  0  0  0  0
  150.3170  134.7186  155.3854 C   0  0  0  0  0  0  0  0  0  0  0  0
  149.4786  133.7233  154.8353 C   0  0  0  0  0  0  0  0  0  0  0  0
  148.6602  134.1371  153.7511 N   0  0  0  0  0  0  0  0  0  0  0  0
  147.4987  133.6009  153.3372 C   0  0  0  0  0  0  0  0  0  0  0  0
  146.9247  132.6499  153.8683 O   0  0  0  0  0  0  0  0  0  0  0  0
  147.0281  134.2416  152.2566 N   0  0  0  0  0  0  0  0  0  0  0  0
  145.7951  133.9160  151.5461 C   0  0  1  0  0  0  0  0  0  0  0  0
  145.1023  135.2101  151.0910 C   0  0  0  0  0  0  0  0  0  0  0  0
  146.0327  132.9869  150.3709 C   0  0  0  0  0  0  0  0  0  0  0  0
  144.8783  132.4172  149.5819 C   0  0  0  0  0  0  0  0  0  0  0  0
  145.7123  131.5144  150.4633 C   0  0  0  0  0  0  0  0  0  0  0  0
  149.4962  132.4666  155.3447 N   0  0  0  0  0  0  0  0  0  0  0  0
  150.3210  132.2163  156.3631 C   0  0  0  0  0  0  0  0  0  0  0  0
  151.1483  133.0833  156.9477 N   0  0  0  0  0  0  0  0  0  0  0  0
  152.5490  137.2646  157.1674 H   0  0  0  0  0  0  0  0  0  0  0  0
  150.8234  137.0171  156.9204 H   0  0  0  0  0  0  0  0  0  0  0  0
  151.9647  136.7922  155.5756 H   0  0  0  0  0  0  0  0  0  0  0  0
  150.3259  135.7284  155.0016 H   0  0  0  0  0  0  0  0  0  0  0  0
  149.0034  134.9263  153.2241 H   0  0  0  0  0  0  0  0  0  0  0  0
  147.5681  135.0120  151.8909 H   0  0  0  0  0  0  0  0  0  0  0  0
  145.1223  133.3991  152.2336 H   0  0  0  0  0  0  0  0  0  0  0  0
  144.1651  134.9935  150.5773 H   0  0  0  0  0  0  0  0  0  0  0  0
  145.7325  135.7783  150.4062 H   0  0  0  0  0  0  0  0  0  0  0  0
  144.8670  135.8534  151.9394 H   0  0  0  0  0  0  0  0  0  0  0  0
  146.9150  133.2432  149.7868 H   0  0  0  0  0  0  0  0  0  0  0  0
  143.8695  132.6519  149.9160 H   0  0  0  0  0  0  0  0  0  0  0  0
  145.0037  132.3251  148.5049 H   0  0  0  0  0  0  0  0  0  0  0  0
  146.3930  130.8210  149.9738 H   0  0  0  0  0  0  0  0  0  0  0  0
  145.2569  131.1502  151.3823 H   0  0  0  0  0  0  0  0  0  0  0  0
  150.3190  131.2093  156.7535 H   0  0  0  0  0  0  0  0  0  0  0  0
  1  2  1  0  0  0  0
  1 18  1  0  0  0  0
  1 19  1  0  0  0  0
  1 20  1  0  0  0  0
  2  3  1  0  0  0  0
  3 17  1  0  0  0  0
  3  4  2  0  0  0  0
  4  5  1  0  0  0  0
  4 21  1  0  0  0  0
  5  6  1  0  0  0  0
  5 15  2  0  0  0  0
  6  7  1  0  0  0  0
  6 22  1  0  0  0  0
  7  8  2  0  0  0  0
  7  9  1  0  0  0  0
  9 10  1  0  0  0  0
  9 23  1  0  0  0  0
 10 11  1  0  0  0  0
 10 12  1  0  0  0  0
 10 24  1  0  0  0  0
 11 25  1  0  0  0  0
 11 26  1  0  0  0  0
 11 27  1  0  0  0  0
 12 14  1  0  0  0  0
 12 13  1  0  0  0  0
 12 28  1  0  0  0  0
 13 14  1  0  0  0  0
 13 29  1  0  0  0  0
 13 30  1  0  0  0  0
 14 31  1  0  0  0  0
 14 32  1  0  0  0  0
 15 16  1  0  0  0  0
 16 17  2  0  0  0  0
 16 33  1  0  0  0  0
M  END
> <s_m_source_file>
AV-unprocessed.smi

> <i_m_source_file_index>
2470

> <i_lp_mmshare_version>
43012

> <i_f3d_flags>
0

> <s_epik_input>
W0NIM11PYzFbY0hdYyhuW2NIXW4xKVtOSF1DKD1PKVtOSF1bQ0BIXShbQ0gzXSlbQ0hdMltDSDJdW0NIMl0y

> <s_epik_cmdline>
J2VwaWtfcHl0aG9uJywgJy1waCcsICc3LjAnLCAnLXRuJywgJzgnLCAnLW1hJywgJzIwMCcsICctbWV0YWxfYmluZGluZycsICctaW1hZScsICc8aW5maWxlLm1hZT4nLCAnLW9tYWUnLCAnPG91dGZpbGUubWFlPic=

> <r_lp_tautomer_probability>
1

> <r_epik_Ionization_Penalty>
2.81207e-05

> <r_epik_Ionization_Penalty_Charging>
0

> <r_epik_Ionization_Penalty_Neutral>
2.81207e-05

> <r_epik_State_Penalty>
-0

> <r_epik_Charging_Adjusted_Penalty>
0

> <i_epik_Tot_Q>
0

> <i_epik_Tot_abs_Q>
0

> <r_epik_Metal_State_Penalty>
-0

> <b_epik_Metal_Only>
0

> <s_lp_Force_Field>
OPLS_2005

> <r_lp_Energy>
11.1381

> <b_lp_Chiralities_Consistent>
1

> <s_lp_Variant>
AV-unprocessed.smi:2470-2

> <Gold.Version>
5.8.1

> <Gold.Id.Protein>
6NUR|6NUR_protein|mol2

> <Gold.PLP.Fitness>
34.7757

> <Gold.PLP.PLP>
-28.2621

> <Gold.PLP.part.hbond>
-3.7268

> <Gold.PLP.part.metal>
0.0000

> <Gold.PLP.part.buried>
-5.3796

> <Gold.PLP.part.nonpolar>
-20.4362

> <Gold.PLP.part.repulsive>
0.0977

> <Gold.PLP.ligand.clash>
0.0000

> <Gold.PLP.ligand.torsion>
1.1982

> <Gold.PLP.Chemscore.Hbond>
2.6127

> <Gold.PLP.Chemscore.CHOScore>
0.0000

> <Gold.PLP.Chemscore.Metal>
0.0000

> <Gold.Chemscore.Hbonds>
donor molecule, donor type, donor heavy atom, donor atom, acceptor molecule, acceptor atom, score
      L1  H     6    22       P1  7948  0.90
      L1  H     9    23       P1  7948  1.00
      P1  H  6896  6908       L1    17  0.33

> <Gold.PLP.Chemscore.Internal.Correction>
1.0721

> <Gold.Rescore>
     Score         DG    S(hbond)    S(metal)    S(lipo)     H(rot)  DE(clash)    DE(int)     intcor
     13.03     -15.32       2.49        0.00      48.35       1.61       0.00       2.28       ----

> <Gold.Chemscore.Fitness>
13.0316

> <Gold.Chemscore.DG>
-15.3163

> <Gold.Chemscore.ZeroCoef>
-5.4800

> <Gold.Chemscore.Hbond>
2.4861

> <Gold.Chemscore.Metal>
0.0000

> <Gold.Chemscore.Lipo>
48.3475

> <Gold.Chemscore.Internal_Hbond>
0.0000

> <Gold.Chemscore.DEClash>
0.0000

> <Gold.Chemscore.DEInternal>
2.2848

> <Gold.Chemscore.Rot>
1.6109

> <Gold.Chemscore.Internal.Correction>
   9.000000E+99

> <Gold.Chemscore.Hbonds>
donor molecule, donor type, donor heavy atom, donor atom, acceptor molecule, acceptor atom, score
      L1  H     6    22       P1  7948  0.18
      L1  H     9    23       P1  7948  0.81
      P1  H  6896  6908       L1    17  0.10

> <Gold.Chemscore.Hbond.Weighted>
-8.3036

> <Gold.Chemscore.Metal.Weighted>
-0.0000

> <Gold.Chemscore.Lipo.Weighted>
-5.6567

> <Gold.Chemscore.Internal_Hbond.Weighted>
0.0000

> <Gold.Chemscore.DEClash.Weighted>
0.0000

> <Gold.Chemscore.DEInternal.Weighted>
2.2848

> <Gold.Chemscore.Rot.Weighted>
4.1240

> <Gold.Chemscore.Internal.Correction.Weighted>
   9.000000E+99

> <Gold.Protein.RotatedTorsions>
[ 6907 6896 6895 6894 ] final   91.34 input  -60.11 | X-H torsion
[ 7974 7965 7964 7962 ] final -179.71 input  175.53 | X-H torsion
[ 8008 7997 7996 7995 ] final   80.17 input   59.86 | X-H torsion
[ 10167 10162 10161 10158 ] final  -97.23 input  -65.29 | X-H torsion
[ 10718 10713 10712 10709 ] final  -93.46 input   66.30 | X-H torsion
[ 10763 10752 10751 10750 ] final  106.89 input  -60.55 | X-H torsion
[ 11005 11000 10999 10996 ] final  121.06 input  -57.11 | X-H torsion

> <Gold.Protein.ActiveResidues>
 VAL166  LYS551  ARG553  GLY616  TRP617  ASP618  TYR619  PRO620  LYS621  CYS622 
 ASP623  PHE694  ASN695  SER759  ASP760  ASP761  ALA762  ILE779  LEU786  VAL792 
 PHE793  MET794  SER795  GLU796  ALA797  LYS798  CYS799  TRP800  GLU811  SER814 

> <Gold.Protein.RotatedAtoms>
  152.5449  134.1672  159.8581 H   0  0  0  0  0  0  0  0  0  0  0  0  # atno 6907 bound_to 6896
  151.1685  133.4792  159.2601 H   0  0  0  0  0  0  0  0  0  0  0  0  # atno 6908 bound_to 6896
  151.1299  135.0136  159.8632 H   0  0  0  0  0  0  0  0  0  0  0  0  # atno 6909 bound_to 6896
  144.7138  140.0676  143.6430 H   0  0  0  0  0  0  0  0  0  0  0  0  # atno 7974 bound_to 7965
  155.8798  140.3444  155.5880 H   0  0  0  0  0  0  0  0  0  0  0  0  # atno 8008 bound_to 7997
  155.7733  140.0848  157.2116 H   0  0  0  0  0  0  0  0  0  0  0  0  # atno 8009 bound_to 7997
  154.4023  140.1514  156.2954 H   0  0  0  0  0  0  0  0  0  0  0  0  # atno 8010 bound_to 7997
  140.2855  143.3254  152.0398 H   0  0  0  0  0  0  0  0  0  0  0  0  # atno 10167 bound_to 10162
  156.0014  130.5028  150.5780 H   0  0  0  0  0  0  0  0  0  0  0  0  # atno 10718 bound_to 10713
  153.3992  135.3862  155.1976 H   0  0  0  0  0  0  0  0  0  0  0  0  # atno 10763 bound_to 10752
  154.8727  135.3767  154.4640 H   0  0  0  0  0  0  0  0  0  0  0  0  # atno 10764 bound_to 10752
  153.5135  135.7087  153.5830 H   0  0  0  0  0  0  0  0  0  0  0  0  # atno 10765 bound_to 10752
  139.9210  134.9637  156.7901 H   0  0  0  0  0  0  0  0  0  0  0  0  # atno 11005 bound_to 11000
  145.9811  139.2942  143.1041 LP  0  0  0  0  0  0  0  0  0  0  0  0  # atno 17320 bound_to 7965
  145.9010  140.9243  143.0503 LP  0  0  0  0  0  0  0  0  0  0  0  0  # atno 17321 bound_to 7965
  139.4951  144.6562  151.6568 LP  0  0  0  0  0  0  0  0  0  0  0  0  # atno 17342 bound_to 10162
  140.5776  144.0002  150.6250 LP  0  0  0  0  0  0  0  0  0  0  0  0  # atno 17343 bound_to 10162
  157.3664  131.0758  151.1594 LP  0  0  0  0  0  0  0  0  0  0  0  0  # atno 17370 bound_to 10713
  157.2361  130.6548  149.5870 LP  0  0  0  0  0  0  0  0  0  0  0  0  # atno 17371 bound_to 10713
  140.6474  133.9763  155.7737 LP  0  0  0  0  0  0  0  0  0  0  0  0  # atno 17394 bound_to 11000
  141.0731  134.0175  157.3497 LP  0  0  0  0  0  0  0  0  0  0  0  0  # atno 17395 bound_to 11000

$$$$
