AV-unprocessed.smi:1978|AV-procd|sdf|8003|dock8
  -GOLD-   2272010193D 1   1.00000     0.00000
 Structure written by MMmdl.
 44 45  0  0  0  0  0  0  0  0  3 V2000
  153.1203  141.5915  159.9860 C   0  0  0  0  0  0  0  0  0  0  0  0
  152.3418  141.3003  158.7487 C   0  0  0  0  0  0  0  0  0  0  0  0
  151.3103  141.9466  158.1286 C   0  0  0  0  0  0  0  0  0  0  0  0
  151.0434  141.1244  156.9997 C   0  0  0  0  0  0  0  0  0  0  0  0
  150.1114  141.3478  156.0602 N   0  5  0  0  0  0  0  0  0  0  0  0
  149.9419  140.4696  155.0457 C   0  0  0  0  0  0  0  0  0  0  0  0
  150.8289  139.8330  154.4724 O   0  0  0  0  0  0  0  0  0  0  0  0
  148.6630  140.3243  154.6726 N   0  0  0  0  0  0  0  0  0  0  0  0
  148.1739  139.4800  153.5869 C   0  0  0  0  0  0  0  0  0  0  0  0
  147.1569  138.4385  154.1062 C   0  0  1  0  0  0  0  0  0  0  0  0
  145.9158  139.0939  154.7514 C   0  0  0  0  0  0  0  0  0  0  0  0
  146.7995  137.4381  153.0473 N   0  3  2  0  0  0  0  0  0  0  0  0
  146.2388  138.0476  151.8043 C   0  0  0  0  0  0  0  0  0  0  0  0
  146.1470  137.0223  150.6652 C   0  0  0  0  0  0  0  0  0  0  0  0
  145.2917  135.8259  151.0863 C   0  0  0  0  0  0  0  0  0  0  0  0
  145.8528  135.2228  152.3778 C   0  0  0  0  0  0  0  0  0  0  0  0
  145.9670  136.2739  153.5042 C   0  0  1  0  0  0  0  0  0  0  0  0
  146.5028  135.5845  154.7758 C   0  0  0  0  0  0  0  0  0  0  0  0
  151.8514  140.0798  156.9328 N   0  0  0  0  0  0  0  0  0  0  0  0
  152.6839  140.1822  158.0539 O   0  0  0  0  0  0  0  0  0  0  0  0
  153.7201  142.4929  159.8596 H   0  0  0  0  0  0  0  0  0  0  0  0
  153.7933  140.7693  160.2308 H   0  0  0  0  0  0  0  0  0  0  0  0
  152.4529  141.7446  160.8340 H   0  0  0  0  0  0  0  0  0  0  0  0
  150.8214  142.8592  158.4346 H   0  0  0  0  0  0  0  0  0  0  0  0
  147.9750  140.8632  155.1781 H   0  0  0  0  0  0  0  0  0  0  0  0
  147.7238  140.1066  152.8179 H   0  0  0  0  0  0  0  0  0  0  0  0
  149.0288  138.9799  153.1304 H   0  0  0  0  0  0  0  0  0  0  0  0
  147.6949  137.9205  154.8966 H   0  0  0  0  0  0  0  0  0  0  0  0
  146.1956  139.7107  155.6057 H   0  0  0  0  0  0  0  0  0  0  0  0
  145.2102  138.3504  155.1208 H   0  0  0  0  0  0  0  0  0  0  0  0
  145.3883  139.7405  154.0500 H   0  0  0  0  0  0  0  0  0  0  0  0
  145.2478  138.4563  152.0053 H   0  0  0  0  0  0  0  0  0  0  0  0
  146.8523  138.8756  151.4563 H   0  0  0  0  0  0  0  0  0  0  0  0
  145.7204  137.4890  149.7767 H   0  0  0  0  0  0  0  0  0  0  0  0
  147.1473  136.6855  150.3894 H   0  0  0  0  0  0  0  0  0  0  0  0
  144.2594  136.1426  151.2417 H   0  0  0  0  0  0  0  0  0  0  0  0
  145.2745  135.0759  150.2950 H   0  0  0  0  0  0  0  0  0  0  0  0
  145.2114  134.3996  152.6953 H   0  0  0  0  0  0  0  0  0  0  0  0
  146.8334  134.7881  152.1786 H   0  0  0  0  0  0  0  0  0  0  0  0
  144.9622  136.6380  153.7224 H   0  0  0  0  0  0  0  0  0  0  0  0
  145.9635  134.6576  154.9725 H   0  0  0  0  0  0  0  0  0  0  0  0
  146.3724  136.2024  155.6640 H   0  0  0  0  0  0  0  0  0  0  0  0
  147.5600  135.3345  154.6798 H   0  0  0  0  0  0  0  0  0  0  0  0
  147.6840  137.0336  152.7748 H   0  0  0  0  0  0  0  0  0  0  0  0
  1  2  1  0  0  0  0
  1 21  1  0  0  0  0
  1 22  1  0  0  0  0
  1 23  1  0  0  0  0
  2 20  1  0  0  0  0
  2  3  2  0  0  0  0
  3  4  1  0  0  0  0
  3 24  1  0  0  0  0
  4  5  1  0  0  0  0
  4 19  2  0  0  0  0
  5  6  1  0  0  0  0
  6  7  2  0  0  0  0
  6  8  1  0  0  0  0
  8  9  1  0  0  0  0
  8 25  1  0  0  0  0
  9 10  1  0  0  0  0
  9 26  1  0  0  0  0
  9 27  1  0  0  0  0
 10 11  1  0  0  0  0
 10 12  1  0  0  0  0
 10 28  1  0  0  0  0
 11 29  1  0  0  0  0
 11 30  1  0  0  0  0
 11 31  1  0  0  0  0
 12 17  1  0  0  0  0
 12 13  1  0  0  0  0
 12 44  1  0  0  0  0
 13 14  1  0  0  0  0
 13 32  1  0  0  0  0
 13 33  1  0  0  0  0
 14 15  1  0  0  0  0
 14 34  1  0  0  0  0
 14 35  1  0  0  0  0
 15 16  1  0  0  0  0
 15 36  1  0  0  0  0
 15 37  1  0  0  0  0
 16 17  1  0  0  0  0
 16 38  1  0  0  0  0
 16 39  1  0  0  0  0
 17 18  1  0  0  0  0
 17 40  1  0  0  0  0
 18 41  1  0  0  0  0
 18 42  1  0  0  0  0
 18 43  1  0  0  0  0
 19 20  1  0  0  0  0
M  CHG  1   5  -1
M  CHG  1  12   1
M  END
> <s_m_source_file>
AV-unprocessed.smi

> <i_m_source_file_index>
1978

> <i_lp_mmshare_version>
43012

> <i_f3d_flags>
0

> <s_epik_input>
W0NIM11jMVtjSF1jKG5vMSlbTkhdQyg9TylbTkhdW0NIMl1bQ0BIXShbQ0gzXSlOMltDSDJdW0NIMl1bQ0gyXVtDSDJdW0NASF0yW0NIM10=

> <s_epik_cmdline>
J2VwaWtfcHl0aG9uJywgJy1waCcsICc3LjAnLCAnLXRuJywgJzgnLCAnLW1hJywgJzIwMCcsICctbWV0YWxfYmluZGluZycsICctaW1hZScsICc8aW5maWxlLm1hZT4nLCAnLW9tYWUnLCAnPG91dGZpbGUubWFlPic=

> <r_epik_Ionization_Penalty>
6.22372

> <r_epik_Ionization_Penalty_Charging>
6.22362

> <r_epik_Ionization_Penalty_Neutral>
9.65074e-05

> <r_epik_State_Penalty>
6.22363

> <r_epik_Charging_Adjusted_Penalty>
12.4472

> <i_epik_Tot_Q>
0

> <i_epik_Tot_abs_Q>
2

> <r_epik_Metal_State_Penalty>
2.16675

> <b_epik_Metal_Only>
1

> <s_lp_Force_Field>
OPLS_2005

> <r_lp_Energy>
13.2836

> <b_lp_Chiralities_Consistent>
1

> <s_lp_Variant>
AV-unprocessed.smi:1978-12

> <Gold.Version>
5.8.1

> <Gold.Id.Protein>
6NUR|6NUR_protein|mol2

> <Gold.PLP.Fitness>
38.8496

> <Gold.PLP.PLP>
-27.4363

> <Gold.PLP.part.hbond>
-3.0000

> <Gold.PLP.part.metal>
0.0000

> <Gold.PLP.part.buried>
3.4848

> <Gold.PLP.part.nonpolar>
-27.4788

> <Gold.PLP.part.repulsive>
0.3022

> <Gold.PLP.ligand.clash>
0.0000

> <Gold.PLP.ligand.torsion>
0.3296

> <Gold.PLP.Chemscore.Hbond>
3.9760

> <Gold.PLP.Chemscore.CHOScore>
0.0000

> <Gold.PLP.Chemscore.Metal>
0.0000

> <Gold.Chemscore.Hbonds>
donor molecule, donor type, donor heavy atom, donor atom, acceptor molecule, acceptor atom, score
      L1  H    12    44       P1  7948  2.00
      P1  H  7989  7998       L1     7  1.00
      P1  H  7997  8008       L1    20  0.56

> <Gold.PLP.Chemscore.Internal.Correction>
0.1446

> <Gold.Rescore>
     Score         DG    S(hbond)    S(metal)    S(lipo)     H(rot)  DE(clash)    DE(int)     intcor
     14.57     -17.83       2.55        0.00      65.90       1.52       1.33       1.93       ----

> <Gold.Chemscore.Fitness>
14.5681

> <Gold.Chemscore.DG>
-17.8267

> <Gold.Chemscore.ZeroCoef>
-5.4800

> <Gold.Chemscore.Hbond>
2.5524

> <Gold.Chemscore.Metal>
0.0000

> <Gold.Chemscore.Lipo>
65.9014

> <Gold.Chemscore.Internal_Hbond>
0.0000

> <Gold.Chemscore.DEClash>
1.3313

> <Gold.Chemscore.DEInternal>
1.9274

> <Gold.Chemscore.Rot>
1.5190

> <Gold.Chemscore.Internal.Correction>
   9.000000E+99

> <Gold.Chemscore.Hbonds>
donor molecule, donor type, donor heavy atom, donor atom, acceptor molecule, acceptor atom, score
      L1  H    12    44       P1  7948  1.00
      P1  H  7989  7998       L1     7  0.65
      P1  H  7997  8008       L1    20  0.09

> <Gold.Chemscore.Hbond.Weighted>
-8.5249

> <Gold.Chemscore.Metal.Weighted>
-0.0000

> <Gold.Chemscore.Lipo.Weighted>
-7.7105

> <Gold.Chemscore.Internal_Hbond.Weighted>
0.0000

> <Gold.Chemscore.DEClash.Weighted>
1.3313

> <Gold.Chemscore.DEInternal.Weighted>
1.9274

> <Gold.Chemscore.Rot.Weighted>
3.8886

> <Gold.Chemscore.Internal.Correction.Weighted>
   9.000000E+99

> <Gold.Protein.RotatedTorsions>
[ 6907 6896 6895 6894 ] final   54.25 input  -60.11 | X-H torsion
[ 7974 7965 7964 7962 ] final   92.21 input  175.53 | X-H torsion
[ 8008 7997 7996 7995 ] final  -84.18 input   59.86 | X-H torsion
[ 10167 10162 10161 10158 ] final -160.63 input  -65.29 | X-H torsion
[ 10718 10713 10712 10709 ] final  122.92 input   66.30 | X-H torsion
[ 10763 10752 10751 10750 ] final -148.83 input  -60.55 | X-H torsion
[ 11005 11000 10999 10996 ] final   52.79 input  -57.11 | X-H torsion

> <Gold.Protein.ActiveResidues>
 VAL166  LYS551  ARG553  GLY616  TRP617  ASP618  TYR619  PRO620  LYS621  CYS622 
 ASP623  PHE694  ASN695  SER759  ASP760  ASP761  ALA762  ILE779  LEU786  VAL792 
 PHE793  MET794  SER795  GLU796  ALA797  LYS798  CYS799  TRP800  GLU811  SER814 

> <Gold.Protein.RotatedAtoms>
  152.3420  134.7122  160.0260 H   0  0  0  0  0  0  0  0  0  0  0  0  # atno 6907 bound_to 6896
  151.7504  133.3321  159.3398 H   0  0  0  0  0  0  0  0  0  0  0  0  # atno 6908 bound_to 6896
  150.7485  134.6130  159.6141 H   0  0  0  0  0  0  0  0  0  0  0  0  # atno 6909 bound_to 6896
  145.4953  139.2276  143.2807 H   0  0  0  0  0  0  0  0  0  0  0  0  # atno 7974 bound_to 7965
  154.6270  140.0608  156.9685 H   0  0  0  0  0  0  0  0  0  0  0  0  # atno 8008 bound_to 7997
  155.1726  140.3292  155.4371 H   0  0  0  0  0  0  0  0  0  0  0  0  # atno 8009 bound_to 7997
  156.2462  140.1911  156.6827 H   0  0  0  0  0  0  0  0  0  0  0  0  # atno 8010 bound_to 7997
  139.6525  144.0058  152.2171 H   0  0  0  0  0  0  0  0  0  0  0  0  # atno 10167 bound_to 10162
  157.5705  131.1083  150.8376 H   0  0  0  0  0  0  0  0  0  0  0  0  # atno 10718 bound_to 10713
  154.8211  135.3324  154.7034 H   0  0  0  0  0  0  0  0  0  0  0  0  # atno 10763 bound_to 10752
  153.7667  135.6928  153.4919 H   0  0  0  0  0  0  0  0  0  0  0  0  # atno 10764 bound_to 10752
  153.2073  135.4495  155.0287 H   0  0  0  0  0  0  0  0  0  0  0  0  # atno 10765 bound_to 10752
  140.0820  134.5326  155.8937 H   0  0  0  0  0  0  0  0  0  0  0  0  # atno 11005 bound_to 11000
  146.2259  140.5750  142.8996 LP  0  0  0  0  0  0  0  0  0  0  0  0  # atno 17320 bound_to 7965
  144.7810  140.5841  143.6605 LP  0  0  0  0  0  0  0  0  0  0  0  0  # atno 17321 bound_to 7965
  139.9776  144.6451  150.7931 LP  0  0  0  0  0  0  0  0  0  0  0  0  # atno 17342 bound_to 10162
  140.7544  143.3027  151.3041 LP  0  0  0  0  0  0  0  0  0  0  0  0  # atno 17343 bound_to 10162
  156.8849  130.5192  149.5289 LP  0  0  0  0  0  0  0  0  0  0  0  0  # atno 17370 bound_to 10713
  156.0751  130.5775  150.9457 LP  0  0  0  0  0  0  0  0  0  0  0  0  # atno 17371 bound_to 10713
  141.2050  133.6643  156.6153 LP  0  0  0  0  0  0  0  0  0  0  0  0  # atno 17394 bound_to 11000
  140.3474  134.7797  157.4442 LP  0  0  0  0  0  0  0  0  0  0  0  0  # atno 17395 bound_to 11000

$$$$
