AV-unprocessed.smi:148|AV-procd|sdf|1223|dock4
  -GOLD-   2262018413D 1   1.00000     0.00000
 Structure written by MMmdl.
 63 67  0  0  0  0  0  0  0  0  1 V2000
  144.9729  132.9791  160.3603 O   0  0  0  0  0  0  0  0  0  0  0  0
  146.3267  132.7041  160.0661 C   0  0  0  0  0  0  0  0  0  0  0  0
  147.0681  133.9738  159.5767 C   0  0  1  0  0  0  0  0  0  0  0  0
  146.5755  134.4502  158.1828 C   0  0  0  0  0  0  0  0  0  0  0  0
  146.5435  133.3864  157.1952 N   0  0  0  0  0  0  0  0  0  0  0  0
  145.6776  132.3168  157.1622 C   0  0  0  0  0  0  0  0  0  0  0  0
  145.8745  131.4729  156.1864 N   0  0  0  0  0  0  0  0  0  0  0  0
  146.9522  132.0080  155.4907 C   0  0  0  0  0  0  0  0  0  0  0  0
  147.7083  131.5968  154.3571 C   0  0  0  0  0  0  0  0  0  0  0  0
  147.4971  130.4570  153.6648 N   0  0  0  0  0  0  0  0  0  0  0  0
  148.6070  129.5363  153.9200 C   0  0  0  0  0  0  0  0  0  0  0  0
  148.3028  128.1303  153.3949 C   0  0  0  0  0  0  0  0  0  0  0  0
  147.9560  128.1977  151.9074 C   0  0  0  0  0  0  0  0  0  0  0  0
  146.7894  129.1687  151.6892 C   0  0  0  0  0  0  0  0  0  0  0  0
  147.0721  130.5884  152.2536 C   0  0  1  0  0  0  0  0  0  0  0  0
  145.8168  131.5084  152.0438 C   0  0  1  0  0  0  0  0  0  0  0  0
  145.9770  133.0135  152.3545 C   0  0  0  0  0  0  0  0  0  0  0  0
  144.9029  133.7595  151.5501 C   0  0  0  0  0  0  0  0  0  0  0  0
  144.2747  132.7240  150.6138 C   0  0  0  0  0  0  0  0  0  0  0  0
  145.2443  131.5411  150.6100 C   0  0  1  0  0  0  0  0  0  0  0  0
  146.2590  131.7951  149.6545 O   0  0  0  0  0  0  0  0  0  0  0  0
  148.7112  132.4040  153.9316 N   0  0  0  0  0  0  0  0  0  0  0  0
  148.9832  133.5335  154.5925 C   0  0  0  0  0  0  0  0  0  0  0  0
  148.3887  134.0286  155.6806 N   0  0  0  0  0  0  0  0  0  0  0  0
  147.3691  133.2245  156.0979 C   0  0  0  0  0  0  0  0  0  0  0  0
  147.0571  135.0939  160.6546 C   0  0  1  0  0  0  0  0  0  0  0  0
  147.3375  134.6677  162.0843 C   0  0  0  0  0  0  0  0  0  0  0  0
  147.5991  136.0151  162.7459 C   0  0  0  0  0  0  0  0  0  0  0  0
  148.3058  136.7704  161.7684 O   0  0  0  0  0  0  0  0  0  0  0  0
  148.0522  136.2466  160.4661 C   0  0  0  0  0  0  0  0  0  0  0  0
  144.7334  132.5082  161.1438 H   0  0  0  0  0  0  0  0  0  0  0  0
  146.7692  132.3119  160.9815 H   0  0  0  0  0  0  0  0  0  0  0  0
  146.3809  131.9096  159.3214 H   0  0  0  0  0  0  0  0  0  0  0  0
  148.1125  133.6868  159.4451 H   0  0  0  0  0  0  0  0  0  0  0  0
  145.5750  134.8761  158.2476 H   0  0  0  0  0  0  0  0  0  0  0  0
  147.2227  135.2335  157.7900 H   0  0  0  0  0  0  0  0  0  0  0  0
  144.9019  132.1714  157.9000 H   0  0  0  0  0  0  0  0  0  0  0  0
  149.5124  129.9146  153.4426 H   0  0  0  0  0  0  0  0  0  0  0  0
  148.8122  129.4833  154.9906 H   0  0  0  0  0  0  0  0  0  0  0  0
  149.1610  127.4767  153.5528 H   0  0  0  0  0  0  0  0  0  0  0  0
  147.4711  127.6976  153.9526 H   0  0  0  0  0  0  0  0  0  0  0  0
  148.8245  128.5296  151.3374 H   0  0  0  0  0  0  0  0  0  0  0  0
  147.6958  127.2061  151.5363 H   0  0  0  0  0  0  0  0  0  0  0  0
  146.5856  129.2045  150.6201 H   0  0  0  0  0  0  0  0  0  0  0  0
  145.8929  128.7619  152.1596 H   0  0  0  0  0  0  0  0  0  0  0  0
  147.9069  131.0061  151.6897 H   0  0  0  0  0  0  0  0  0  0  0  0
  145.0212  131.1276  152.6870 H   0  0  0  0  0  0  0  0  0  0  0  0
  145.8742  133.2362  153.4156 H   0  0  0  0  0  0  0  0  0  0  0  0
  146.9614  133.3594  152.0379 H   0  0  0  0  0  0  0  0  0  0  0  0
  144.1468  134.1989  152.2018 H   0  0  0  0  0  0  0  0  0  0  0  0
  145.3562  134.5733  150.9826 H   0  0  0  0  0  0  0  0  0  0  0  0
  143.3191  132.4013  151.0294 H   0  0  0  0  0  0  0  0  0  0  0  0
  144.0753  133.1202  149.6173 H   0  0  0  0  0  0  0  0  0  0  0  0
  144.7291  130.6168  150.3470 H   0  0  0  0  0  0  0  0  0  0  0  0
  147.0761  131.4590  149.9898 H   0  0  0  0  0  0  0  0  0  0  0  0
  149.7996  134.1204  154.1981 H   0  0  0  0  0  0  0  0  0  0  0  0
  146.0593  135.5354  160.6666 H   0  0  0  0  0  0  0  0  0  0  0  0
  146.5096  134.1240  162.5401 H   0  0  0  0  0  0  0  0  0  0  0  0
  148.2350  134.0552  162.1587 H   0  0  0  0  0  0  0  0  0  0  0  0
  146.6583  136.5201  162.9691 H   0  0  0  0  0  0  0  0  0  0  0  0
  148.1669  135.9269  163.6725 H   0  0  0  0  0  0  0  0  0  0  0  0
  149.0003  135.9103  160.0492 H   0  0  0  0  0  0  0  0  0  0  0  0
  147.6558  137.0193  159.8067 H   0  0  0  0  0  0  0  0  0  0  0  0
  1  2  1  0  0  0  0
  1 31  1  0  0  0  0
  2  3  1  0  0  0  0
  2 32  1  0  0  0  0
  2 33  1  0  0  0  0
  3  4  1  0  0  0  0
  3 26  1  0  0  0  0
  3 34  1  0  0  0  0
  4  5  1  0  0  0  0
  4 35  1  0  0  0  0
  4 36  1  0  0  0  0
  5 25  1  0  0  0  0
  5  6  1  0  0  0  0
  6  7  2  0  0  0  0
  6 37  1  0  0  0  0
  7  8  1  0  0  0  0
  8 25  2  0  0  0  0
  8  9  1  0  0  0  0
  9 10  1  0  0  0  0
  9 22  2  0  0  0  0
 10 15  1  0  0  0  0
 10 11  1  0  0  0  0
 11 12  1  0  0  0  0
 11 38  1  0  0  0  0
 11 39  1  0  0  0  0
 12 13  1  0  0  0  0
 12 40  1  0  0  0  0
 12 41  1  0  0  0  0
 13 14  1  0  0  0  0
 13 42  1  0  0  0  0
 13 43  1  0  0  0  0
 14 15  1  0  0  0  0
 14 44  1  0  0  0  0
 14 45  1  0  0  0  0
 15 16  1  0  0  0  0
 15 46  1  0  0  0  0
 16 20  1  0  0  0  0
 16 17  1  0  0  0  0
 16 47  1  0  0  0  0
 17 18  1  0  0  0  0
 17 48  1  0  0  0  0
 17 49  1  0  0  0  0
 18 19  1  0  0  0  0
 18 50  1  0  0  0  0
 18 51  1  0  0  0  0
 19 20  1  0  0  0  0
 19 52  1  0  0  0  0
 19 53  1  0  0  0  0
 20 21  1  0  0  0  0
 20 54  1  0  0  0  0
 21 55  1  0  0  0  0
 22 23  1  0  0  0  0
 23 24  2  0  0  0  0
 23 56  1  0  0  0  0
 24 25  1  0  0  0  0
 26 30  1  0  0  0  0
 26 27  1  0  0  0  0
 26 57  1  0  0  0  0
 27 28  1  0  0  0  0
 27 58  1  0  0  0  0
 27 59  1  0  0  0  0
 28 29  1  0  0  0  0
 28 60  1  0  0  0  0
 28 61  1  0  0  0  0
 29 30  1  0  0  0  0
 30 62  1  0  0  0  0
 30 63  1  0  0  0  0
M  END
> <s_m_source_file>
AV-unprocessed.smi

> <i_m_source_file_index>
148

> <i_lp_mmshare_version>
43012

> <i_f3d_flags>
0

> <s_epik_input>
W0NIMl0xT1tDSDJdW0NIMl1bQ0BIXTFbQ0BIXShbQ0gyXVtPSF0pW0NIMl1uKFtjSF1uMiljKGMyMyluW2NIXW5jM040W0NIMl1bQ0gyXVtDSDJdW0NIMl1bQ0BIXTRbQ0BASF01W0NIMl1bQ0gyXVtDSDJdW0NASF01W09IXQ==

> <s_epik_cmdline>
J2VwaWtfcHl0aG9uJywgJy1waCcsICc3LjAnLCAnLXRuJywgJzgnLCAnLW1hJywgJzIwMCcsICctbWV0YWxfYmluZGluZycsICctaW1hZScsICc8aW5maWxlLm1hZT4nLCAnLW9tYWUnLCAnPG91dGZpbGUubWFlPic=

> <r_lp_tautomer_probability>
1

> <r_epik_Ionization_Penalty>
0.00556303

> <r_epik_Ionization_Penalty_Charging>
0

> <r_epik_Ionization_Penalty_Neutral>
0.00556303

> <r_epik_State_Penalty>
0.00401767

> <r_epik_Charging_Adjusted_Penalty>
0.00401767

> <i_epik_Tot_Q>
0

> <i_epik_Tot_abs_Q>
0

> <r_epik_Metal_State_Penalty>
-0

> <b_epik_Metal_Only>
0

> <s_lp_Force_Field>
OPLS_2005

> <r_lp_Energy>
70.5845

> <b_lp_Chiralities_Consistent>
1

> <s_lp_Variant>
AV-unprocessed.smi:148-22

> <Gold.Version>
5.8.1

> <Gold.Id.Protein>
6NUR|6NUR_protein|mol2

> <Gold.PLP.Fitness>
47.6011

> <Gold.PLP.PLP>
-41.9914

> <Gold.PLP.part.hbond>
-2.0355

> <Gold.PLP.part.metal>
0.0000

> <Gold.PLP.part.buried>
-4.8734

> <Gold.PLP.part.nonpolar>
-35.0494

> <Gold.PLP.part.repulsive>
0.3783

> <Gold.PLP.ligand.clash>
0.0000

> <Gold.PLP.ligand.torsion>
0.4769

> <Gold.PLP.Chemscore.Hbond>
1.9913

> <Gold.PLP.Chemscore.CHOScore>
0.0000

> <Gold.PLP.Chemscore.Metal>
0.0000

> <Gold.Chemscore.Hbonds>
donor molecule, donor type, donor heavy atom, donor atom, acceptor molecule, acceptor atom, score
      L1  H    21    55       P1 10747  1.00
      P1  H  6931  6943       L1    29  1.00

> <Gold.PLP.Chemscore.Internal.Correction>
0.5898

> <Gold.Rescore>
     Score         DG    S(hbond)    S(metal)    S(lipo)     H(rot)  DE(clash)    DE(int)     intcor
     12.65     -16.60       1.98        0.00     111.24       3.32       1.41       2.54       ----

> <Gold.Chemscore.Fitness>
12.6476

> <Gold.Chemscore.DG>
-16.5954

> <Gold.Chemscore.ZeroCoef>
-5.4800

> <Gold.Chemscore.Hbond>
1.9762

> <Gold.Chemscore.Metal>
0.0000

> <Gold.Chemscore.Lipo>
111.2393

> <Gold.Chemscore.Internal_Hbond>
0.0000

> <Gold.Chemscore.DEClash>
1.4050

> <Gold.Chemscore.DEInternal>
2.5429

> <Gold.Chemscore.Rot>
3.3203

> <Gold.Chemscore.Internal.Correction>
   9.000000E+99

> <Gold.Chemscore.Hbonds>
donor molecule, donor type, donor heavy atom, donor atom, acceptor molecule, acceptor atom, score
      L1  H    21    55       P1 10747  0.96
      P1  H  6931  6943       L1    29  0.97

> <Gold.Chemscore.Hbond.Weighted>
-6.6004

> <Gold.Chemscore.Metal.Weighted>
-0.0000

> <Gold.Chemscore.Lipo.Weighted>
-13.0150

> <Gold.Chemscore.Internal_Hbond.Weighted>
0.0000

> <Gold.Chemscore.DEClash.Weighted>
1.4050

> <Gold.Chemscore.DEInternal.Weighted>
2.5429

> <Gold.Chemscore.Rot.Weighted>
8.5000

> <Gold.Chemscore.Internal.Correction.Weighted>
   9.000000E+99

> <Gold.Protein.RotatedTorsions>
[ 6907 6896 6895 6894 ] final  -83.54 input  -60.11 | X-H torsion
[ 7974 7965 7964 7962 ] final  140.43 input  175.53 | X-H torsion
[ 8008 7997 7996 7995 ] final  -45.64 input   59.86 | X-H torsion
[ 10167 10162 10161 10158 ] final -126.81 input  -65.29 | X-H torsion
[ 10718 10713 10712 10709 ] final  156.07 input   66.30 | X-H torsion
[ 10763 10752 10751 10750 ] final  -35.43 input  -60.55 | X-H torsion
[ 11005 11000 10999 10996 ] final   90.10 input  -57.11 | X-H torsion

> <Gold.Protein.ActiveResidues>
 VAL166  LYS551  ARG553  GLY616  TRP617  ASP618  TYR619  PRO620  LYS621  CYS622 
 ASP623  PHE694  ASN695  SER759  ASP760  ASP761  ALA762  ILE779  LEU786  VAL792 
 PHE793  MET794  SER795  GLU796  ALA797  LYS798  CYS799  TRP800  GLU811  SER814 

> <Gold.Protein.RotatedAtoms>
  150.6884  134.3496  159.4902 H   0  0  0  0  0  0  0  0  0  0  0  0  # atno 6907 bound_to 6896
  152.1339  134.9111  160.0566 H   0  0  0  0  0  0  0  0  0  0  0  0  # atno 6908 bound_to 6896
  152.0271  133.3887  159.4319 H   0  0  0  0  0  0  0  0  0  0  0  0  # atno 6909 bound_to 6896
  144.9188  139.5195  143.5673 H   0  0  0  0  0  0  0  0  0  0  0  0  # atno 7974 bound_to 7965
  154.4002  140.1392  156.3880 H   0  0  0  0  0  0  0  0  0  0  0  0  # atno 8008 bound_to 7997
  155.7941  140.3478  155.5345 H   0  0  0  0  0  0  0  0  0  0  0  0  # atno 8009 bound_to 7997
  155.8549  140.0947  157.1641 H   0  0  0  0  0  0  0  0  0  0  0  0  # atno 8010 bound_to 7997
  139.9675  143.5882  152.2424 H   0  0  0  0  0  0  0  0  0  0  0  0  # atno 10167 bound_to 10162
  157.2099  131.0695  151.1975 H   0  0  0  0  0  0  0  0  0  0  0  0  # atno 10718 bound_to 10713
  153.8631  135.6838  153.4781 H   0  0  0  0  0  0  0  0  0  0  0  0  # atno 10763 bound_to 10752
  153.1330  135.4690  154.9377 H   0  0  0  0  0  0  0  0  0  0  0  0  # atno 10764 bound_to 10752
  154.7749  135.3250  154.8062 H   0  0  0  0  0  0  0  0  0  0  0  0  # atno 10765 bound_to 10752
  139.8862  134.8593  156.3237 H   0  0  0  0  0  0  0  0  0  0  0  0  # atno 11005 bound_to 11000
  146.3194  139.8051  142.8957 LP  0  0  0  0  0  0  0  0  0  0  0  0  # atno 17320 bound_to 7965
  145.3331  141.0271  143.3435 LP  0  0  0  0  0  0  0  0  0  0  0  0  # atno 17321 bound_to 7965
  139.6506  144.7660  151.2155 LP  0  0  0  0  0  0  0  0  0  0  0  0  # atno 17342 bound_to 10162
  140.7533  143.6166  150.8553 LP  0  0  0  0  0  0  0  0  0  0  0  0  # atno 17343 bound_to 10162
  157.3682  130.7167  149.6547 LP  0  0  0  0  0  0  0  0  0  0  0  0  # atno 17370 bound_to 10713
  155.9691  130.4206  150.4430 LP  0  0  0  0  0  0  0  0  0  0  0  0  # atno 17371 bound_to 10713
  140.9769  133.7291  156.0616 LP  0  0  0  0  0  0  0  0  0  0  0  0  # atno 17394 bound_to 11000
  140.7799  134.3737  157.5489 LP  0  0  0  0  0  0  0  0  0  0  0  0  # atno 17395 bound_to 11000

$$$$
