AV-unprocessed.smi:939|AV-procd|sdf|4218|dock1
  -GOLD-   22720 2123D 1   1.00000     0.00000
 Structure written by MMmdl.
 36 37  0  0  0  0  0  0  0  0  1 V2000
  152.7495  142.8437  161.5688 C   0  0  0  0  0  0  0  0  0  0  0  0
  153.4838  142.1656  160.4069 C   0  0  0  0  0  0  0  0  0  0  0  0
  152.6428  142.0958  159.1667 C   0  0  0  0  0  0  0  0  0  0  0  0
  152.3129  140.8466  158.6340 N   0  0  0  0  0  0  0  0  0  0  0  0
  151.5637  140.9345  157.5325 C   0  0  0  0  0  0  0  0  0  0  0  0
  151.0162  139.7459  156.8077 C   0  0  0  0  0  0  0  0  0  0  0  0
  151.2408  139.7965  155.2837 C   0  0  0  0  0  0  0  0  0  0  0  0
  150.2259  139.0450  154.5533 N   0  0  0  0  0  0  0  0  0  0  0  0
  149.0312  139.5259  154.1721 C   0  0  0  0  0  0  0  0  0  0  0  0
  148.6087  140.6312  154.5064 O   0  0  0  0  0  0  0  0  0  0  0  0
  148.3373  138.7185  153.3506 N   0  0  0  0  0  0  0  0  0  0  0  0
  147.0448  138.9520  152.7798 C   0  0  0  0  0  0  0  0  0  0  0  0
  146.4033  137.8315  151.9917 C   0  0  0  0  0  0  0  0  0  0  0  0
  146.9572  139.0316  151.2717 C   0  0  0  0  0  0  0  0  0  0  0  0
  151.2075  142.5928  157.0730 S   0  0  0  0  0  0  0  0  0  0  0  0
  152.1344  143.1495  158.4433 C   0  0  0  0  0  0  0  0  0  0  0  0
  152.2961  144.6082  158.7148 C   0  0  0  0  0  0  0  0  0  0  0  0
  153.3783  142.8784  162.4585 H   0  0  0  0  0  0  0  0  0  0  0  0
  151.8378  142.3031  161.8255 H   0  0  0  0  0  0  0  0  0  0  0  0
  152.4727  143.8676  161.3162 H   0  0  0  0  0  0  0  0  0  0  0  0
  154.4063  142.7096  160.2005 H   0  0  0  0  0  0  0  0  0  0  0  0
  153.7934  141.1660  160.7120 H   0  0  0  0  0  0  0  0  0  0  0  0
  151.4717  138.8450  157.2193 H   0  0  0  0  0  0  0  0  0  0  0  0
  149.9487  139.6735  157.0205 H   0  0  0  0  0  0  0  0  0  0  0  0
  151.1847  140.8312  154.9448 H   0  0  0  0  0  0  0  0  0  0  0  0
  152.2414  139.4428  155.0309 H   0  0  0  0  0  0  0  0  0  0  0  0
  150.4869  138.1243  154.2317 H   0  0  0  0  0  0  0  0  0  0  0  0
  148.7835  137.8512  153.0888 H   0  0  0  0  0  0  0  0  0  0  0  0
  146.3716  139.6225  153.3117 H   0  0  0  0  0  0  0  0  0  0  0  0
  146.9503  136.8945  151.9047 H   0  0  0  0  0  0  0  0  0  0  0  0
  145.3213  137.7338  152.0534 H   0  0  0  0  0  0  0  0  0  0  0  0
  146.2443  139.7356  150.8470 H   0  0  0  0  0  0  0  0  0  0  0  0
  147.8732  138.8944  150.6997 H   0  0  0  0  0  0  0  0  0  0  0  0
  153.3513  144.8791  158.7528 H   0  0  0  0  0  0  0  0  0  0  0  0
  151.8433  144.8762  159.6696 H   0  0  0  0  0  0  0  0  0  0  0  0
  151.8234  145.2103  157.9385 H   0  0  0  0  0  0  0  0  0  0  0  0
  1  2  1  0  0  0  0
  1 18  1  0  0  0  0
  1 19  1  0  0  0  0
  1 20  1  0  0  0  0
  2  3  1  0  0  0  0
  2 21  1  0  0  0  0
  2 22  1  0  0  0  0
  3 16  2  0  0  0  0
  3  4  1  0  0  0  0
  4  5  2  0  0  0  0
  5  6  1  0  0  0  0
  5 15  1  0  0  0  0
  6  7  1  0  0  0  0
  6 23  1  0  0  0  0
  6 24  1  0  0  0  0
  7  8  1  0  0  0  0
  7 25  1  0  0  0  0
  7 26  1  0  0  0  0
  8  9  1  0  0  0  0
  8 27  1  0  0  0  0
  9 10  2  0  0  0  0
  9 11  1  0  0  0  0
 11 12  1  0  0  0  0
 11 28  1  0  0  0  0
 12 14  1  0  0  0  0
 12 13  1  0  0  0  0
 12 29  1  0  0  0  0
 13 14  1  0  0  0  0
 13 30  1  0  0  0  0
 13 31  1  0  0  0  0
 14 32  1  0  0  0  0
 14 33  1  0  0  0  0
 15 16  1  0  0  0  0
 16 17  1  0  0  0  0
 17 34  1  0  0  0  0
 17 35  1  0  0  0  0
 17 36  1  0  0  0  0
M  END
> <s_m_source_file>
AV-unprocessed.smi

> <i_m_source_file_index>
939

> <i_lp_mmshare_version>
43012

> <i_f3d_flags>
0

> <s_epik_input>
W0NIM11bQ0gyXWMxbmMoc2MxW0NIM10pW0NIMl1bQ0gyXVtOSF1DKD1PKVtOSF1bQ0hdMltDSDJdW0NIMl0y

> <s_epik_cmdline>
J2VwaWtfcHl0aG9uJywgJy1waCcsICc3LjAnLCAnLXRuJywgJzgnLCAnLW1hJywgJzIwMCcsICctbWV0YWxfYmluZGluZycsICctaW1hZScsICc8aW5maWxlLm1hZT4nLCAnLW9tYWUnLCAnPG91dGZpbGUubWFlPic=

> <r_epik_Ionization_Penalty>
0.00437198

> <r_epik_Ionization_Penalty_Charging>
0

> <r_epik_Ionization_Penalty_Neutral>
0.00437198

> <r_epik_State_Penalty>
0.00310304

> <r_epik_Charging_Adjusted_Penalty>
0.00310304

> <i_epik_Tot_Q>
0

> <i_epik_Tot_abs_Q>
0

> <r_epik_Metal_State_Penalty>
-0

> <b_epik_Metal_Only>
0

> <s_lp_Force_Field>
OPLS_2005

> <r_lp_Energy>
13.9428

> <b_lp_Chiralities_Consistent>
1

> <s_lp_Variant>
AV-unprocessed.smi:939-1

> <Gold.Version>
5.8.1

> <Gold.Id.Protein>
6NUR|6NUR_protein|mol2

> <Gold.PLP.Fitness>
42.7433

> <Gold.PLP.PLP>
-40.9039

> <Gold.PLP.part.hbond>
-2.0000

> <Gold.PLP.part.metal>
0.0000

> <Gold.PLP.part.buried>
0.2885

> <Gold.PLP.part.nonpolar>
-39.2560

> <Gold.PLP.part.repulsive>
0.2234

> <Gold.PLP.ligand.clash>
0.0000

> <Gold.PLP.ligand.torsion>
0.4650

> <Gold.PLP.Chemscore.Hbond>
0.8938

> <Gold.PLP.Chemscore.CHOScore>
0.0000

> <Gold.PLP.Chemscore.Metal>
0.0000

> <Gold.Chemscore.Hbonds>
donor molecule, donor type, donor heavy atom, donor atom, acceptor molecule, acceptor atom, score
      L1  H    11    28       P1  7948  1.00

> <Gold.PLP.Chemscore.Internal.Correction>
0.0881

> <Gold.Rescore>
     Score         DG    S(hbond)    S(metal)    S(lipo)     H(rot)  DE(clash)    DE(int)     intcor
     16.51     -17.06       0.87        0.00     111.29       1.69       0.08       0.46       ----

> <Gold.Chemscore.Fitness>
16.5135

> <Gold.Chemscore.DG>
-17.0560

> <Gold.Chemscore.ZeroCoef>
-5.4800

> <Gold.Chemscore.Hbond>
0.8653

> <Gold.Chemscore.Metal>
0.0000

> <Gold.Chemscore.Lipo>
111.2896

> <Gold.Chemscore.Internal_Hbond>
0.0000

> <Gold.Chemscore.DEClash>
0.0791

> <Gold.Chemscore.DEInternal>
0.4633

> <Gold.Chemscore.Rot>
1.6934

> <Gold.Chemscore.Internal.Correction>
   9.000000E+99

> <Gold.Chemscore.Hbonds>
donor molecule, donor type, donor heavy atom, donor atom, acceptor molecule, acceptor atom, score
      L1  H    11    28       P1  7948  0.90

> <Gold.Chemscore.Hbond.Weighted>
-2.8902

> <Gold.Chemscore.Metal.Weighted>
-0.0000

> <Gold.Chemscore.Lipo.Weighted>
-13.0209

> <Gold.Chemscore.Internal_Hbond.Weighted>
0.0000

> <Gold.Chemscore.DEClash.Weighted>
0.0791

> <Gold.Chemscore.DEInternal.Weighted>
0.4633

> <Gold.Chemscore.Rot.Weighted>
4.3351

> <Gold.Chemscore.Internal.Correction.Weighted>
   9.000000E+99

> <Gold.Protein.RotatedTorsions>
[ 6907 6896 6895 6894 ] final -136.99 input  -60.11 | X-H torsion
[ 7974 7965 7964 7962 ] final  -84.68 input  175.53 | X-H torsion
[ 8008 7997 7996 7995 ] final -179.75 input   59.86 | X-H torsion
[ 10167 10162 10161 10158 ] final  109.58 input  -65.29 | X-H torsion
[ 10718 10713 10712 10709 ] final -148.11 input   66.30 | X-H torsion
[ 10763 10752 10751 10750 ] final  -88.91 input  -60.55 | X-H torsion
[ 11005 11000 10999 10996 ] final -153.98 input  -57.11 | X-H torsion

> <Gold.Protein.ActiveResidues>
 VAL166  LYS551  ARG553  GLY616  TRP617  ASP618  TYR619  PRO620  LYS621  CYS622 
 ASP623  PHE694  ASN695  SER759  ASP760  ASP761  ALA762  ILE779  LEU786  VAL792 
 PHE793  MET794  SER795  GLU796  ALA797  LYS798  CYS799  TRP800  GLU811  SER814 

> <Gold.Protein.RotatedAtoms>
  151.0168  133.5913  159.2675 H   0  0  0  0  0  0  0  0  0  0  0  0  # atno 6907 bound_to 6896
  151.3044  135.0776  159.9260 H   0  0  0  0  0  0  0  0  0  0  0  0  # atno 6908 bound_to 6896
  152.5313  133.9844  159.7876 H   0  0  0  0  0  0  0  0  0  0  0  0  # atno 6909 bound_to 6896
  145.5034  140.9545  143.1747 H   0  0  0  0  0  0  0  0  0  0  0  0  # atno 7974 bound_to 7965
  156.0342  140.1289  157.0226 H   0  0  0  0  0  0  0  0  0  0  0  0  # atno 8008 bound_to 7997
  154.4362  140.1043  156.6213 H   0  0  0  0  0  0  0  0  0  0  0  0  # atno 8009 bound_to 7997
  155.5763  140.3467  155.4530 H   0  0  0  0  0  0  0  0  0  0  0  0  # atno 8010 bound_to 7997
  139.6755  144.7122  151.1609 H   0  0  0  0  0  0  0  0  0  0  0  0  # atno 10167 bound_to 10162
  156.4161  130.8006  151.2226 H   0  0  0  0  0  0  0  0  0  0  0  0  # atno 10718 bound_to 10713
  154.6496  135.5360  153.7886 H   0  0  0  0  0  0  0  0  0  0  0  0  # atno 10763 bound_to 10752
  153.0378  135.6479  154.1037 H   0  0  0  0  0  0  0  0  0  0  0  0  # atno 10764 bound_to 10752
  154.0955  135.2937  155.3242 H   0  0  0  0  0  0  0  0  0  0  0  0  # atno 10765 bound_to 10752
  140.7023  134.3923  157.5208 H   0  0  0  0  0  0  0  0  0  0  0  0  # atno 11005 bound_to 11000
  144.7767  139.6614  143.7172 LP  0  0  0  0  0  0  0  0  0  0  0  0  # atno 17320 bound_to 7965
  146.2211  139.5638  142.9617 LP  0  0  0  0  0  0  0  0  0  0  0  0  # atno 17321 bound_to 7965
  140.7634  143.5778  150.8927 LP  0  0  0  0  0  0  0  0  0  0  0  0  # atno 17342 bound_to 10162
  139.9446  143.6342  152.3045 LP  0  0  0  0  0  0  0  0  0  0  0  0  # atno 17343 bound_to 10162
  157.7508  131.0242  150.3868 LP  0  0  0  0  0  0  0  0  0  0  0  0  # atno 17370 bound_to 10713
  156.4176  130.3946  149.6847 LP  0  0  0  0  0  0  0  0  0  0  0  0  # atno 17371 bound_to 10713
  139.8893  134.8833  156.2426 LP  0  0  0  0  0  0  0  0  0  0  0  0  # atno 17394 bound_to 11000
  141.0153  133.7072  156.1179 LP  0  0  0  0  0  0  0  0  0  0  0  0  # atno 17395 bound_to 11000

$$$$
