AV-unprocessed.smi:1190|AV-procd|sdf|4981|dock7
  -GOLD-   22720 3573D 1   1.00000     0.00000
 Structure written by MMmdl.
 43 44  0  0  0  0  0  0  0  0  1 V2000
  152.8469  139.5620  158.4569 C   0  0  0  0  0  0  0  0  0  0  0  0
  153.0945  139.3510  157.0712 O   0  0  0  0  0  0  0  0  0  0  0  0
  152.2708  138.4837  156.3833 C   0  0  0  0  0  0  0  0  0  0  0  0
  151.4593  137.5980  157.1195 C   0  0  0  0  0  0  0  0  0  0  0  0
  150.6202  136.7089  156.4222 C   0  0  0  0  0  0  0  0  0  0  0  0
  150.6213  136.7230  155.0130 C   0  0  0  0  0  0  0  0  0  0  0  0
  149.7522  135.8230  154.3386 N   0  0  0  0  0  0  0  0  0  0  0  0
  149.1462  134.7234  154.8184 C   0  0  0  0  0  0  0  0  0  0  0  0
  149.2300  134.3117  155.9750 O   0  0  0  0  0  0  0  0  0  0  0  0
  148.4142  134.1244  153.8681 N   0  0  0  0  0  0  0  0  0  0  0  0
  147.6202  132.9099  154.0422 C   0  0  0  0  0  0  0  0  0  0  0  0
  147.1926  132.2658  152.6928 C   0  0  1  0  0  0  0  0  0  0  0  0
  147.1181  130.7271  152.8662 C   0  0  0  0  0  0  0  0  0  0  0  0
  145.9414  132.8395  152.1427 N   0  0  0  0  0  0  0  0  0  0  0  0
  146.1197  134.1980  151.6159 C   0  0  0  0  0  0  0  0  0  0  0  0
  144.8283  134.7823  151.0177 C   0  0  0  0  0  0  0  0  0  0  0  0
  144.3423  133.9237  149.9956 O   0  0  0  0  0  0  0  0  0  0  0  0
  144.0781  132.6151  150.4816 C   0  0  0  0  0  0  0  0  0  0  0  0
  145.3635  132.0136  151.0756 C   0  0  0  0  0  0  0  0  0  0  0  0
  151.4624  137.6602  154.3646 C   0  0  0  0  0  0  0  0  0  0  0  0
  152.2682  138.5167  155.0279 N   0  0  0  0  0  0  0  0  0  0  0  0
  153.5728  140.2745  158.8482 H   0  0  0  0  0  0  0  0  0  0  0  0
  152.9511  138.6371  159.0261 H   0  0  0  0  0  0  0  0  0  0  0  0
  151.8522  139.9769  158.6264 H   0  0  0  0  0  0  0  0  0  0  0  0
  151.4805  137.6008  158.1993 H   0  0  0  0  0  0  0  0  0  0  0  0
  149.9879  136.0225  156.9663 H   0  0  0  0  0  0  0  0  0  0  0  0
  149.5249  136.0742  153.3877 H   0  0  0  0  0  0  0  0  0  0  0  0
  148.4050  134.5395  152.9480 H   0  0  0  0  0  0  0  0  0  0  0  0
  148.1398  132.1743  154.6588 H   0  0  0  0  0  0  0  0  0  0  0  0
  146.7542  133.2328  154.6167 H   0  0  0  0  0  0  0  0  0  0  0  0
  147.9938  132.4647  151.9793 H   0  0  0  0  0  0  0  0  0  0  0  0
  148.0302  130.3121  153.2926 H   0  0  0  0  0  0  0  0  0  0  0  0
  146.9922  130.2065  151.9183 H   0  0  0  0  0  0  0  0  0  0  0  0
  146.2926  130.4443  153.5201 H   0  0  0  0  0  0  0  0  0  0  0  0
  146.4357  134.8787  152.4036 H   0  0  0  0  0  0  0  0  0  0  0  0
  146.9039  134.2011  150.8572 H   0  0  0  0  0  0  0  0  0  0  0  0
  144.0680  134.9101  151.7898 H   0  0  0  0  0  0  0  0  0  0  0  0
  145.0205  135.7675  150.5926 H   0  0  0  0  0  0  0  0  0  0  0  0
  143.2849  132.6485  151.2302 H   0  0  0  0  0  0  0  0  0  0  0  0
  143.7166  131.9972  149.6597 H   0  0  0  0  0  0  0  0  0  0  0  0
  146.0966  131.8708  150.2804 H   0  0  0  0  0  0  0  0  0  0  0  0
  145.1058  131.0251  151.4506 H   0  0  0  0  0  0  0  0  0  0  0  0
  151.4919  137.7583  153.2910 H   0  0  0  0  0  0  0  0  0  0  0  0
  1  2  1  0  0  0  0
  1 22  1  0  0  0  0
  1 23  1  0  0  0  0
  1 24  1  0  0  0  0
  2  3  1  0  0  0  0
  3 21  1  0  0  0  0
  3  4  2  0  0  0  0
  4  5  1  0  0  0  0
  4 25  1  0  0  0  0
  5  6  2  0  0  0  0
  5 26  1  0  0  0  0
  6  7  1  0  0  0  0
  6 20  1  0  0  0  0
  7  8  1  0  0  0  0
  7 27  1  0  0  0  0
  8  9  2  0  0  0  0
  8 10  1  0  0  0  0
 10 11  1  0  0  0  0
 10 28  1  0  0  0  0
 11 12  1  0  0  0  0
 11 29  1  0  0  0  0
 11 30  1  0  0  0  0
 12 13  1  0  0  0  0
 12 14  1  0  0  0  0
 12 31  1  0  0  0  0
 13 32  1  0  0  0  0
 13 33  1  0  0  0  0
 13 34  1  0  0  0  0
 14 19  1  0  0  0  0
 14 15  1  0  0  0  0
 15 16  1  0  0  0  0
 15 35  1  0  0  0  0
 15 36  1  0  0  0  0
 16 17  1  0  0  0  0
 16 37  1  0  0  0  0
 16 38  1  0  0  0  0
 17 18  1  0  0  0  0
 18 19  1  0  0  0  0
 18 39  1  0  0  0  0
 18 40  1  0  0  0  0
 19 41  1  0  0  0  0
 19 42  1  0  0  0  0
 20 21  2  0  0  0  0
 20 43  1  0  0  0  0
M  END
> <s_m_source_file>
AV-unprocessed.smi

> <i_m_source_file_index>
1190

> <i_lp_mmshare_version>
43012

> <i_f3d_flags>
0

> <s_epik_input>
W0NIM11PYzFbY0hdW2NIXWMoW2NIXW4xKVtOSF1DKD1PKVtOSF1bQ0gyXVtDQEhdKFtDSDNdKU4yW0NIMl1bQ0gyXU9bQ0gyXVtDSDJdMg==

> <s_epik_cmdline>
J2VwaWtfcHl0aG9uJywgJy1waCcsICc3LjAnLCAnLXRuJywgJzgnLCAnLW1hJywgJzIwMCcsICctbWV0YWxfYmluZGluZycsICctaW1hZScsICc8aW5maWxlLm1hZT4nLCAnLW9tYWUnLCAnPG91dGZpbGUubWFlPic=

> <r_lp_tautomer_probability>
1

> <r_epik_Ionization_Penalty>
0.266084

> <r_epik_Ionization_Penalty_Charging>
0

> <r_epik_Ionization_Penalty_Neutral>
0.266084

> <r_epik_State_Penalty>
0.257924

> <r_epik_Charging_Adjusted_Penalty>
0.257924

> <i_epik_Tot_Q>
0

> <i_epik_Tot_abs_Q>
0

> <r_epik_Metal_State_Penalty>
0.257922

> <b_epik_Metal_Only>
0

> <s_lp_Force_Field>
OPLS_2005

> <r_lp_Energy>
31.4194

> <b_lp_Chiralities_Consistent>
1

> <s_lp_Variant>
AV-unprocessed.smi:1190-2

> <Gold.Version>
5.8.1

> <Gold.Id.Protein>
6NUR|6NUR_protein|mol2

> <Gold.PLP.Fitness>
39.0063

> <Gold.PLP.PLP>
-29.2343

> <Gold.PLP.part.hbond>
-3.5842

> <Gold.PLP.part.metal>
0.0000

> <Gold.PLP.part.buried>
-4.5694

> <Gold.PLP.part.nonpolar>
-22.5352

> <Gold.PLP.part.repulsive>
1.2308

> <Gold.PLP.ligand.clash>
0.0000

> <Gold.PLP.ligand.torsion>
0.9648

> <Gold.PLP.Chemscore.Hbond>
2.8800

> <Gold.PLP.Chemscore.CHOScore>
1.0000

> <Gold.PLP.Chemscore.Metal>
0.0000

> <Gold.Chemscore.Hbonds>
donor molecule, donor type, donor heavy atom, donor atom, acceptor molecule, acceptor atom, score
      L1  H     7    27       P1  7948  1.00
      L1  H    10    28       P1  7948  0.87
      P1  H  7997  8010       L1     2  1.00
      L1  C    20    43       P1  7949  0.97

> <Gold.PLP.Chemscore.Internal.Correction>
0.0617

> <Gold.Rescore>
     Score         DG    S(hbond)    S(metal)    S(lipo)     H(rot)  DE(clash)    DE(int)     intcor
     15.44     -17.69       2.66        0.00      66.41       1.73       0.04       2.22       ----

> <Gold.Chemscore.Fitness>
15.4360

> <Gold.Chemscore.DG>
-17.6948

> <Gold.Chemscore.ZeroCoef>
-5.4800

> <Gold.Chemscore.Hbond>
2.6561

> <Gold.Chemscore.Metal>
0.0000

> <Gold.Chemscore.Lipo>
66.4123

> <Gold.Chemscore.Internal_Hbond>
0.0000

> <Gold.Chemscore.DEClash>
0.0373

> <Gold.Chemscore.DEInternal>
2.2216

> <Gold.Chemscore.Rot>
1.7292

> <Gold.Chemscore.Internal.Correction>
   9.000000E+99

> <Gold.Chemscore.Hbonds>
donor molecule, donor type, donor heavy atom, donor atom, acceptor molecule, acceptor atom, score
      L1  H     7    27       P1  7948  0.34
      L1  H    10    28       P1  7948  0.28
      P1  H  7997  8010       L1     2  0.91

> <Gold.Chemscore.Hbond.Weighted>
-8.8714

> <Gold.Chemscore.Metal.Weighted>
-0.0000

> <Gold.Chemscore.Lipo.Weighted>
-7.7702

> <Gold.Chemscore.Internal_Hbond.Weighted>
0.0000

> <Gold.Chemscore.DEClash.Weighted>
0.0373

> <Gold.Chemscore.DEInternal.Weighted>
2.2216

> <Gold.Chemscore.Rot.Weighted>
4.4268

> <Gold.Chemscore.Internal.Correction.Weighted>
   9.000000E+99

> <Gold.Protein.RotatedTorsions>
[ 6907 6896 6895 6894 ] final  161.90 input  -60.11 | X-H torsion
[ 7974 7965 7964 7962 ] final -125.95 input  175.53 | X-H torsion
[ 8008 7997 7996 7995 ] final   72.87 input   59.86 | X-H torsion
[ 10167 10162 10161 10158 ] final   21.07 input  -65.29 | X-H torsion
[ 10718 10713 10712 10709 ] final -176.42 input   66.30 | X-H torsion
[ 10763 10752 10751 10750 ] final -162.12 input  -60.55 | X-H torsion
[ 11005 11000 10999 10996 ] final   23.18 input  -57.11 | X-H torsion

> <Gold.Protein.ActiveResidues>
 VAL166  LYS551  ARG553  GLY616  TRP617  ASP618  TYR619  PRO620  LYS621  CYS622 
 ASP623  PHE694  ASN695  SER759  ASP760  ASP761  ALA762  ILE779  LEU786  VAL792 
 PHE793  MET794  SER795  GLU796  ALA797  LYS798  CYS799  TRP800  GLU811  SER814 

> <Gold.Protein.RotatedAtoms>
  151.9485  133.3659  159.3991 H   0  0  0  0  0  0  0  0  0  0  0  0  # atno 6907 bound_to 6896
  150.6985  134.4365  159.5281 H   0  0  0  0  0  0  0  0  0  0  0  0  # atno 6908 bound_to 6896
  152.2034  134.8567  160.0556 H   0  0  0  0  0  0  0  0  0  0  0  0  # atno 6909 bound_to 6896
  144.9922  140.7743  143.4547 H   0  0  0  0  0  0  0  0  0  0  0  0  # atno 7974 bound_to 7965
  155.7753  140.3483  155.5268 H   0  0  0  0  0  0  0  0  0  0  0  0  # atno 8008 bound_to 7997
  155.8782  140.0997  157.1524 H   0  0  0  0  0  0  0  0  0  0  0  0  # atno 8009 bound_to 7997
  154.4022  140.1327  156.4150 H   0  0  0  0  0  0  0  0  0  0  0  0  # atno 8010 bound_to 7997
  140.5455  143.9602  150.6545 H   0  0  0  0  0  0  0  0  0  0  0  0  # atno 10167 bound_to 10162
  156.8144  130.9597  151.3114 H   0  0  0  0  0  0  0  0  0  0  0  0  # atno 10718 bound_to 10713
  154.7242  135.3032  154.8997 H   0  0  0  0  0  0  0  0  0  0  0  0  # atno 10763 bound_to 10752
  153.9860  135.6724  153.4756 H   0  0  0  0  0  0  0  0  0  0  0  0  # atno 10764 bound_to 10752
  153.0861  135.4983  154.8517 H   0  0  0  0  0  0  0  0  0  0  0  0  # atno 10765 bound_to 10752
  140.3724  134.2008  155.7666 H   0  0  0  0  0  0  0  0  0  0  0  0  # atno 11005 bound_to 11000
  145.2269  139.2133  143.5063 LP  0  0  0  0  0  0  0  0  0  0  0  0  # atno 17320 bound_to 7965
  146.3434  140.2138  142.8590 LP  0  0  0  0  0  0  0  0  0  0  0  0  # atno 17321 bound_to 7965
  140.3014  143.3258  152.0968 LP  0  0  0  0  0  0  0  0  0  0  0  0  # atno 17342 bound_to 10162
  139.5005  144.6694  151.6279 LP  0  0  0  0  0  0  0  0  0  0  0  0  # atno 17343 bound_to 10162
  157.6489  130.8868  149.9593 LP  0  0  0  0  0  0  0  0  0  0  0  0  # atno 17370 bound_to 10713
  156.1025  130.3655  150.0192 LP  0  0  0  0  0  0  0  0  0  0  0  0  # atno 17371 bound_to 10713
  141.1950  133.8115  157.0733 LP  0  0  0  0  0  0  0  0  0  0  0  0  # atno 17394 bound_to 11000
  140.0541  134.9790  157.1189 LP  0  0  0  0  0  0  0  0  0  0  0  0  # atno 17395 bound_to 11000

$$$$
