AV-unprocessed.smi:3029|AV-procd|sdf|11530|dock6
  -GOLD-   2272016473D 1   1.00000     0.00000
 Structure written by MMmdl.
 41 42  0  0  0  0  0  0  0  0  3 V2000
  150.5356  144.1703  160.0325 O   0  0  0  0  0  0  0  0  0  0  0  0
  151.5012  143.4143  160.1404 C   0  0  0  0  0  0  0  0  0  0  0  0
  152.3238  143.3778  161.3539 C   0  0  0  0  0  0  0  0  0  0  0  0
  153.3877  142.5584  161.4644 C   0  0  0  0  0  0  0  0  0  0  0  0
  153.7538  141.6777  160.3725 C   0  0  0  0  0  0  0  0  0  0  0  0
  154.9035  140.8060  160.4739 N   0  3  0  0  0  0  0  0  0  0  0  0
  155.5340  140.7720  161.5265 O   0  0  0  0  0  0  0  0  0  0  0  0
  155.2133  140.1254  159.5015 O   0  5  0  0  0  0  0  0  0  0  0  0
  152.9923  141.7077  159.2613 C   0  0  0  0  0  0  0  0  0  0  0  0
  151.8791  142.5618  159.1393 N   0  0  0  0  0  0  0  0  0  0  0  0
  151.1548  142.5201  157.8595 C   0  0  0  0  0  0  0  0  0  0  0  0
  149.6802  142.1202  158.0482 C   0  0  0  0  0  0  0  0  0  0  0  0
  149.0187  141.9953  156.7574 N   0  0  0  0  0  0  0  0  0  0  0  0
  147.8085  141.1828  156.8283 C   0  0  1  0  0  0  0  0  0  0  0  0
  146.9044  141.7545  157.9412 C   0  0  0  0  0  0  0  0  0  0  0  0
  146.2398  143.0849  157.5446 C   0  0  0  0  0  0  0  0  0  0  0  0
  145.4886  142.9643  156.2123 C   0  0  0  0  0  0  0  0  0  0  0  0
  146.4158  142.4585  155.0974 C   0  0  0  0  0  0  0  0  0  0  0  0
  147.0611  141.1052  155.4663 C   0  0  1  0  0  0  0  0  0  0  0  0
  147.8791  140.5005  154.3021 C   0  0  0  0  0  0  0  0  0  0  0  0
  148.2428  139.2430  154.5532 F   0  0  0  0  0  0  0  0  0  0  0  0
  147.1678  140.5344  153.1754 F   0  0  0  0  0  0  0  0  0  0  0  0
  148.9823  141.2241  154.1116 F   0  0  0  0  0  0  0  0  0  0  0  0
  152.0691  144.0265  162.1791 H   0  0  0  0  0  0  0  0  0  0  0  0
  153.9636  142.5688  162.3782 H   0  0  0  0  0  0  0  0  0  0  0  0
  153.1833  141.0981  158.3897 H   0  0  0  0  0  0  0  0  0  0  0  0
  151.1963  143.5108  157.4048 H   0  0  0  0  0  0  0  0  0  0  0  0
  151.6362  141.8631  157.1331 H   0  0  0  0  0  0  0  0  0  0  0  0
  149.6107  141.1890  158.6097 H   0  0  0  0  0  0  0  0  0  0  0  0
  149.1652  142.8846  158.6311 H   0  0  0  0  0  0  0  0  0  0  0  0
  148.7922  142.9160  156.4092 H   0  0  0  0  0  0  0  0  0  0  0  0
  148.0819  140.1704  157.1302 H   0  0  0  0  0  0  0  0  0  0  0  0
  146.1222  141.0278  158.1640 H   0  0  0  0  0  0  0  0  0  0  0  0
  147.4684  141.8784  158.8668 H   0  0  0  0  0  0  0  0  0  0  0  0
  145.5535  143.4042  158.3293 H   0  0  0  0  0  0  0  0  0  0  0  0
  146.9972  143.8659  157.4650 H   0  0  0  0  0  0  0  0  0  0  0  0
  144.6461  142.2811  156.3270 H   0  0  0  0  0  0  0  0  0  0  0  0
  145.0669  143.9307  155.9350 H   0  0  0  0  0  0  0  0  0  0  0  0
  145.8449  142.3626  154.1737 H   0  0  0  0  0  0  0  0  0  0  0  0
  147.1925  143.1989  154.9011 H   0  0  0  0  0  0  0  0  0  0  0  0
  146.2346  140.4110  155.6280 H   0  0  0  0  0  0  0  0  0  0  0  0
  1  2  2  0  0  0  0
  2 10  1  0  0  0  0
  2  3  1  0  0  0  0
  3  4  2  0  0  0  0
  3 24  1  0  0  0  0
  4  5  1  0  0  0  0
  4 25  1  0  0  0  0
  5  6  1  0  0  0  0
  5  9  2  0  0  0  0
  6  7  2  0  0  0  0
  6  8  1  0  0  0  0
  9 10  1  0  0  0  0
  9 26  1  0  0  0  0
 10 11  1  0  0  0  0
 11 12  1  0  0  0  0
 11 27  1  0  0  0  0
 11 28  1  0  0  0  0
 12 13  1  0  0  0  0
 12 29  1  0  0  0  0
 12 30  1  0  0  0  0
 13 14  1  0  0  0  0
 13 31  1  0  0  0  0
 14 19  1  0  0  0  0
 14 15  1  0  0  0  0
 14 32  1  0  0  0  0
 15 16  1  0  0  0  0
 15 33  1  0  0  0  0
 15 34  1  0  0  0  0
 16 17  1  0  0  0  0
 16 35  1  0  0  0  0
 16 36  1  0  0  0  0
 17 18  1  0  0  0  0
 17 37  1  0  0  0  0
 17 38  1  0  0  0  0
 18 19  1  0  0  0  0
 18 39  1  0  0  0  0
 18 40  1  0  0  0  0
 19 20  1  0  0  0  0
 19 41  1  0  0  0  0
 20 21  1  0  0  0  0
 20 22  1  0  0  0  0
 20 23  1  0  0  0  0
M  CHG  1   6   1
M  CHG  1   8  -1
M  END
> <s_m_source_file>
AV-unprocessed.smi

> <i_m_source_file_index>
3029

> <i_lp_mmshare_version>
43012

> <i_f3d_flags>
0

> <s_epik_input>
Tz1jMVtjSF1bY0hdYyhbTitdKD1PKVtPLV0pW2NIXW4xW0NIMl1bQ0gyXVtOSF1bQ0BASF0yW0NIMl1bQ0gyXVtDSDJdW0NIMl1bQ0BIXTJDKEYpKEYpRg==

> <s_epik_cmdline>
J2VwaWtfcHl0aG9uJywgJy1waCcsICc3LjAnLCAnLXRuJywgJzgnLCAnLW1hJywgJzIwMCcsICctbWV0YWxfYmluZGluZycsICctaW1hZScsICc8aW5maWxlLm1hZT4nLCAnLW9tYWUnLCAnPG91dGZpbGUubWFlPic=

> <r_lp_tautomer_probability>
1

> <r_epik_Ionization_Penalty>
1.65565

> <r_epik_Ionization_Penalty_Charging>
3.32684e-10

> <r_epik_Ionization_Penalty_Neutral>
1.65565

> <r_epik_State_Penalty>
1.75811

> <r_epik_Charging_Adjusted_Penalty>
1.75811

> <i_epik_Tot_Q>
0

> <i_epik_Tot_abs_Q>
2

> <r_epik_Metal_State_Penalty>
1.75811

> <b_epik_Metal_Only>
0

> <s_lp_Force_Field>
OPLS_2005

> <r_lp_Energy>
39.0204

> <b_lp_Chiralities_Consistent>
1

> <s_lp_Variant>
AV-unprocessed.smi:3029-6

> <Gold.Version>
5.8.1

> <Gold.Id.Protein>
6NUR|6NUR_protein|mol2

> <Gold.PLP.Fitness>
49.3470

> <Gold.PLP.PLP>
-43.6280

> <Gold.PLP.part.hbond>
-3.0000

> <Gold.PLP.part.metal>
0.0000

> <Gold.PLP.part.buried>
-4.1633

> <Gold.PLP.part.nonpolar>
-36.1050

> <Gold.PLP.part.repulsive>
0.1211

> <Gold.PLP.ligand.clash>
0.0000

> <Gold.PLP.ligand.torsion>
0.2125

> <Gold.PLP.Chemscore.Hbond>
2.0000

> <Gold.PLP.Chemscore.CHOScore>
0.0000

> <Gold.PLP.Chemscore.Metal>
0.0000

> <Gold.Chemscore.Hbonds>
donor molecule, donor type, donor heavy atom, donor atom, acceptor molecule, acceptor atom, score
      L1  H    13    31       P1  8028  1.00
      P1  H  7997  8010       L1     8  0.62

> <Gold.PLP.Chemscore.Internal.Correction>
0.1440

> <Gold.Rescore>
     Score         DG    S(hbond)    S(metal)    S(lipo)     H(rot)  DE(clash)    DE(int)     intcor
     13.21     -16.26       1.93        0.00      77.59       1.86       0.41       2.64       ----

> <Gold.Chemscore.Fitness>
13.2073

> <Gold.Chemscore.DG>
-16.2612

> <Gold.Chemscore.ZeroCoef>
-5.4800

> <Gold.Chemscore.Hbond>
1.9342

> <Gold.Chemscore.Metal>
0.0000

> <Gold.Chemscore.Lipo>
77.5940

> <Gold.Chemscore.Internal_Hbond>
0.0000

> <Gold.Chemscore.DEClash>
0.4113

> <Gold.Chemscore.DEInternal>
2.6425

> <Gold.Chemscore.Rot>
1.8584

> <Gold.Chemscore.Internal.Correction>
   9.000000E+99

> <Gold.Chemscore.Hbonds>
donor molecule, donor type, donor heavy atom, donor atom, acceptor molecule, acceptor atom, score
      L1  H    13    31       P1  8028  0.97
      P1  H  7997  8010       L1     8  0.62

> <Gold.Chemscore.Hbond.Weighted>
-6.4602

> <Gold.Chemscore.Metal.Weighted>
-0.0000

> <Gold.Chemscore.Lipo.Weighted>
-9.0785

> <Gold.Chemscore.Internal_Hbond.Weighted>
0.0000

> <Gold.Chemscore.DEClash.Weighted>
0.4113

> <Gold.Chemscore.DEInternal.Weighted>
2.6425

> <Gold.Chemscore.Rot.Weighted>
4.7576

> <Gold.Chemscore.Internal.Correction.Weighted>
   9.000000E+99

> <Gold.Protein.RotatedTorsions>
[ 6907 6896 6895 6894 ] final -115.32 input  -60.11 | X-H torsion
[ 7974 7965 7964 7962 ] final    0.27 input  175.53 | X-H torsion
[ 8008 7997 7996 7995 ] final  -22.11 input   59.86 | X-H torsion
[ 10167 10162 10161 10158 ] final  121.41 input  -65.29 | X-H torsion
[ 10718 10713 10712 10709 ] final  -17.64 input   66.30 | X-H torsion
[ 10763 10752 10751 10750 ] final  -14.29 input  -60.55 | X-H torsion
[ 11005 11000 10999 10996 ] final  111.57 input  -57.11 | X-H torsion

> <Gold.Protein.ActiveResidues>
 VAL166  LYS551  ARG553  GLY616  TRP617  ASP618  TYR619  PRO620  LYS621  CYS622 
 ASP623  PHE694  ASN695  SER759  ASP760  ASP761  ALA762  ILE779  LEU786  VAL792 
 PHE793  MET794  SER795  GLU796  ALA797  LYS798  CYS799  TRP800  GLU811  SER814 

> <Gold.Protein.RotatedAtoms>
  150.7969  133.8675  159.3248 H   0  0  0  0  0  0  0  0  0  0  0  0  # atno 6907 bound_to 6896
  151.6498  135.1001  160.0168 H   0  0  0  0  0  0  0  0  0  0  0  0  # atno 6908 bound_to 6896
  152.4052  133.6838  159.6385 H   0  0  0  0  0  0  0  0  0  0  0  0  # atno 6909 bound_to 6896
  146.2433  140.1163  142.8342 H   0  0  0  0  0  0  0  0  0  0  0  0  # atno 7974 bound_to 7965
  154.4664  140.2017  156.0107 H   0  0  0  0  0  0  0  0  0  0  0  0  # atno 8008 bound_to 7997
  156.0934  140.3254  155.7817 H   0  0  0  0  0  0  0  0  0  0  0  0  # atno 8009 bound_to 7997
  155.4918  140.0547  157.2943 H   0  0  0  0  0  0  0  0  0  0  0  0  # atno 8010 bound_to 7997
  139.5921  144.7029  151.3264 H   0  0  0  0  0  0  0  0  0  0  0  0  # atno 10167 bound_to 10162
  156.5708  130.4749  149.6364 H   0  0  0  0  0  0  0  0  0  0  0  0  # atno 10718 bound_to 10713
  153.5261  135.7015  153.5707 H   0  0  0  0  0  0  0  0  0  0  0  0  # atno 10763 bound_to 10752
  153.3734  135.3939  155.1805 H   0  0  0  0  0  0  0  0  0  0  0  0  # atno 10764 bound_to 10752
  154.8689  135.3817  154.4754 H   0  0  0  0  0  0  0  0  0  0  0  0  # atno 10765 bound_to 10752
  139.8907  134.9511  156.6453 H   0  0  0  0  0  0  0  0  0  0  0  0  # atno 11005 bound_to 11000
  145.0445  140.8970  143.5033 LP  0  0  0  0  0  0  0  0  0  0  0  0  # atno 17320 bound_to 7965
  145.1249  139.2669  143.5569 LP  0  0  0  0  0  0  0  0  0  0  0  0  # atno 17321 bound_to 7965
  140.7182  143.7209  150.7697 LP  0  0  0  0  0  0  0  0  0  0  0  0  # atno 17342 bound_to 10162
  140.0767  143.5008  152.2552 LP  0  0  0  0  0  0  0  0  0  0  0  0  # atno 17343 bound_to 10162
  156.2716  130.7020  151.1819 LP  0  0  0  0  0  0  0  0  0  0  0  0  # atno 17370 bound_to 10713
  157.7348  131.0578  150.5502 LP  0  0  0  0  0  0  0  0  0  0  0  0  # atno 17371 bound_to 10713
  140.7562  133.8856  155.8384 LP  0  0  0  0  0  0  0  0  0  0  0  0  # atno 17394 bound_to 11000
  140.9960  134.1215  157.4363 LP  0  0  0  0  0  0  0  0  0  0  0  0  # atno 17395 bound_to 11000

$$$$
