AV-unprocessed.smi:3031|AV-procd|sdf|11542|dock8
  -GOLD-   2272016493D 1   1.00000     0.00000
 Structure written by MMmdl.
 47 48  0  0  0  0  0  0  0  0  2 V2000
  151.3689  143.3941  157.7098 C   0  0  0  0  0  0  0  0  0  0  0  0
  151.0722  142.0043  157.2255 C   0  0  0  0  0  0  0  0  0  0  0  0
  151.2843  140.7738  157.9104 C   0  0  0  0  0  0  0  0  0  0  0  0
  150.9064  139.7207  157.2036 N   0  0  0  0  0  0  0  0  0  0  0  0
  150.4426  140.2401  156.0468 N   0  0  0  0  0  0  0  0  0  0  0  0
  149.9111  139.3602  155.0217 C   0  0  0  0  0  0  0  0  0  0  0  0
  151.0112  138.7362  154.1346 C   0  0  1  0  0  0  0  0  0  0  0  0
  152.3759  138.8128  154.8322 C   0  0  0  0  0  0  0  0  0  0  0  0
  150.7051  137.3237  153.8104 N   0  3  0  0  0  0  0  0  0  0  0  0
  150.8122  136.3801  154.9445 C   0  0  0  0  0  0  0  0  0  0  0  0
  149.9163  135.1484  154.7309 C   0  0  2  0  0  0  0  0  0  0  0  0
  148.5822  135.6077  154.6370 O   0  0  0  0  0  0  0  0  0  0  0  0
  149.9496  134.0997  155.8652 C   0  0  0  0  0  0  0  0  0  0  0  0
  150.6591  132.8540  155.5567 N   0  0  0  0  0  0  0  0  0  0  0  0
  151.2676  132.2422  156.7395 C   0  0  0  0  0  0  0  0  0  0  0  0
  151.9998  130.9334  156.3968 C   0  0  0  0  0  0  0  0  0  0  0  0
  151.0902  130.0252  155.7864 O   0  0  0  0  0  0  0  0  0  0  0  0
  150.4906  130.5583  154.6107 C   0  0  0  0  0  0  0  0  0  0  0  0
  149.7630  131.8703  154.9531 C   0  0  0  0  0  0  0  0  0  0  0  0
  150.5360  141.6153  156.0308 C   0  0  0  0  0  0  0  0  0  0  0  0
  151.8925  143.3880  158.6659 H   0  0  0  0  0  0  0  0  0  0  0  0
  150.4564  143.9741  157.8473 H   0  0  0  0  0  0  0  0  0  0  0  0
  151.9950  143.9408  157.0048 H   0  0  0  0  0  0  0  0  0  0  0  0
  151.6950  140.6168  158.8971 H   0  0  0  0  0  0  0  0  0  0  0  0
  149.3466  138.5733  155.5235 H   0  0  0  0  0  0  0  0  0  0  0  0
  149.1938  139.9133  154.4127 H   0  0  0  0  0  0  0  0  0  0  0  0
  151.0906  139.3069  153.2077 H   0  0  0  0  0  0  0  0  0  0  0  0
  152.6454  139.8455  155.0554 H   0  0  0  0  0  0  0  0  0  0  0  0
  153.1634  138.3986  154.2015 H   0  0  0  0  0  0  0  0  0  0  0  0
  152.3751  138.2592  155.7718 H   0  0  0  0  0  0  0  0  0  0  0  0
  149.7553  137.2726  153.4704 H   0  0  0  0  0  0  0  0  0  0  0  0
  151.8486  136.0692  155.0132 H   0  0  0  0  0  0  0  0  0  0  0  0
  150.5655  136.8884  155.8777 H   0  0  0  0  0  0  0  0  0  0  0  0
  150.1732  134.6624  153.7885 H   0  0  0  0  0  0  0  0  0  0  0  0
  148.3857  135.7771  153.7277 H   0  0  0  0  0  0  0  0  0  0  0  0
  150.3294  134.5395  156.7887 H   0  0  0  0  0  0  0  0  0  0  0  0
  148.9074  133.8549  156.0787 H   0  0  0  0  0  0  0  0  0  0  0  0
  151.9721  132.9164  157.2169 H   0  0  0  0  0  0  0  0  0  0  0  0
  150.4970  132.0326  157.4834 H   0  0  0  0  0  0  0  0  0  0  0  0
  152.8397  131.1234  155.7270 H   0  0  0  0  0  0  0  0  0  0  0  0
  152.4058  130.4777  157.2999 H   0  0  0  0  0  0  0  0  0  0  0  0
  151.2535  130.7268  153.8490 H   0  0  0  0  0  0  0  0  0  0  0  0
  149.7885  129.8290  154.2062 H   0  0  0  0  0  0  0  0  0  0  0  0
  148.9339  131.6580  155.6303 H   0  0  0  0  0  0  0  0  0  0  0  0
  149.3243  132.2784  154.0418 H   0  0  0  0  0  0  0  0  0  0  0  0
  150.2082  142.1984  155.1827 H   0  0  0  0  0  0  0  0  0  0  0  0
  151.3248  137.0236  153.0714 H   0  0  0  0  0  0  0  0  0  0  0  0
  1  2  1  0  0  0  0
  1 21  1  0  0  0  0
  1 22  1  0  0  0  0
  1 23  1  0  0  0  0
  2 20  2  0  0  0  0
  2  3  1  0  0  0  0
  3  4  2  0  0  0  0
  3 24  1  0  0  0  0
  4  5  1  0  0  0  0
  5  6  1  0  0  0  0
  5 20  1  0  0  0  0
  6  7  1  0  0  0  0
  6 25  1  0  0  0  0
  6 26  1  0  0  0  0
  7  8  1  0  0  0  0
  7  9  1  0  0  0  0
  7 27  1  0  0  0  0
  8 28  1  0  0  0  0
  8 29  1  0  0  0  0
  8 30  1  0  0  0  0
  9 10  1  0  0  0  0
  9 31  1  0  0  0  0
  9 47  1  0  0  0  0
 10 11  1  0  0  0  0
 10 32  1  0  0  0  0
 10 33  1  0  0  0  0
 11 12  1  0  0  0  0
 11 13  1  0  0  0  0
 11 34  1  0  0  0  0
 12 35  1  0  0  0  0
 13 14  1  0  0  0  0
 13 36  1  0  0  0  0
 13 37  1  0  0  0  0
 14 19  1  0  0  0  0
 14 15  1  0  0  0  0
 15 16  1  0  0  0  0
 15 38  1  0  0  0  0
 15 39  1  0  0  0  0
 16 17  1  0  0  0  0
 16 40  1  0  0  0  0
 16 41  1  0  0  0  0
 17 18  1  0  0  0  0
 18 19  1  0  0  0  0
 18 42  1  0  0  0  0
 18 43  1  0  0  0  0
 19 44  1  0  0  0  0
 19 45  1  0  0  0  0
 20 46  1  0  0  0  0
M  CHG  1   9   1
M  END
> <s_m_source_file>
AV-unprocessed.smi

> <i_m_source_file_index>
3031

> <i_lp_mmshare_version>
43012

> <i_f3d_flags>
0

> <s_epik_input>
W0NIM11jMVtjSF1ubihbY0hdMSlbQ0gyXVtDQEhdKFtDSDNdKVtOSF1bQ0gyXVtDQEhdKFtPSF0pW0NIMl1OMltDSDJdW0NIMl1PW0NIMl1bQ0gyXTI=

> <s_epik_cmdline>
J2VwaWtfcHl0aG9uJywgJy1waCcsICc3LjAnLCAnLXRuJywgJzgnLCAnLW1hJywgJzIwMCcsICctbWV0YWxfYmluZGluZycsICctaW1hZScsICc8aW5maWxlLm1hZT4nLCAnLW9tYWUnLCAnPG91dGZpbGUubWFlPic=

> <r_lp_tautomer_probability>
1

> <r_epik_Ionization_Penalty>
0.108564

> <r_epik_Ionization_Penalty_Charging>
0.01811

> <r_epik_Ionization_Penalty_Neutral>
0.0904541

> <r_epik_State_Penalty>
0.141043

> <r_epik_Charging_Adjusted_Penalty>
0.159153

> <i_epik_Tot_Q>
1

> <i_epik_Tot_abs_Q>
1

> <r_epik_Metal_State_Penalty>
0.141052

> <b_epik_Metal_Only>
0

> <s_lp_Force_Field>
OPLS_2005

> <r_lp_Energy>
29.6303

> <b_lp_Chiralities_Consistent>
1

> <s_lp_Variant>
AV-unprocessed.smi:3031-2

> <Gold.Version>
5.8.1

> <Gold.Id.Protein>
6NUR|6NUR_protein|mol2

> <Gold.PLP.Fitness>
42.4758

> <Gold.PLP.PLP>
-35.1354

> <Gold.PLP.part.hbond>
-3.0000

> <Gold.PLP.part.metal>
0.0000

> <Gold.PLP.part.buried>
-3.2096

> <Gold.PLP.part.nonpolar>
-29.0046

> <Gold.PLP.part.repulsive>
0.0900

> <Gold.PLP.ligand.clash>
0.0000

> <Gold.PLP.ligand.torsion>
2.0926

> <Gold.PLP.Chemscore.Hbond>
3.6560

> <Gold.PLP.Chemscore.CHOScore>
0.1556

> <Gold.PLP.Chemscore.Metal>
0.0000

> <Gold.Chemscore.Hbonds>
donor molecule, donor type, donor heavy atom, donor atom, acceptor molecule, acceptor atom, score
      L1  H     9    31       P1  7948  1.12
      L1  H     9    47       P1  7949  1.47
      L1  H    12    35       P1  7948  1.00
      L1  C    20    46       P1  8028  0.10

> <Gold.PLP.Chemscore.Internal.Correction>
0.0907

> <Gold.Rescore>
     Score         DG    S(hbond)    S(metal)    S(lipo)     H(rot)  DE(clash)    DE(int)     intcor
     13.28     -15.73       1.86        0.00      91.92       2.63       0.20       2.26       ----

> <Gold.Chemscore.Fitness>
13.2785

> <Gold.Chemscore.DG>
-15.7347

> <Gold.Chemscore.ZeroCoef>
-5.4800

> <Gold.Chemscore.Hbond>
1.8640

> <Gold.Chemscore.Metal>
0.0000

> <Gold.Chemscore.Lipo>
91.9155

> <Gold.Chemscore.Internal_Hbond>
0.0000

> <Gold.Chemscore.DEClash>
0.1982

> <Gold.Chemscore.DEInternal>
2.2581

> <Gold.Chemscore.Rot>
2.6270

> <Gold.Chemscore.Internal.Correction>
   9.000000E+99

> <Gold.Chemscore.Hbonds>
donor molecule, donor type, donor heavy atom, donor atom, acceptor molecule, acceptor atom, score
      L1  H     9    31       P1  7948  0.35
      L1  H     9    47       P1  7949  0.53
      L1  H    12    35       P1  7948  0.92

> <Gold.Chemscore.Hbond.Weighted>
-6.2258

> <Gold.Chemscore.Metal.Weighted>
-0.0000

> <Gold.Chemscore.Lipo.Weighted>
-10.7541

> <Gold.Chemscore.Internal_Hbond.Weighted>
0.0000

> <Gold.Chemscore.DEClash.Weighted>
0.1982

> <Gold.Chemscore.DEInternal.Weighted>
2.2581

> <Gold.Chemscore.Rot.Weighted>
6.7251

> <Gold.Chemscore.Internal.Correction.Weighted>
   9.000000E+99

> <Gold.Protein.RotatedTorsions>
[ 6907 6896 6895 6894 ] final -166.43 input  -60.11 | X-H torsion
[ 7974 7965 7964 7962 ] final -139.27 input  175.53 | X-H torsion
[ 8008 7997 7996 7995 ] final  -73.27 input   59.86 | X-H torsion
[ 10167 10162 10161 10158 ] final  -57.73 input  -65.29 | X-H torsion
[ 10718 10713 10712 10709 ] final -171.47 input   66.30 | X-H torsion
[ 10763 10752 10751 10750 ] final -157.90 input  -60.55 | X-H torsion
[ 11005 11000 10999 10996 ] final   -7.98 input  -57.11 | X-H torsion

> <Gold.Protein.ActiveResidues>
 VAL166  LYS551  ARG553  GLY616  TRP617  ASP618  TYR619  PRO620  LYS621  CYS622 
 ASP623  PHE694  ASN695  SER759  ASP760  ASP761  ALA762  ILE779  LEU786  VAL792 
 PHE793  MET794  SER795  GLU796  ALA797  LYS798  CYS799  TRP800  GLU811  SER814 

> <Gold.Protein.RotatedAtoms>
  151.4435  133.3637  159.2784 H   0  0  0  0  0  0  0  0  0  0  0  0  # atno 6907 bound_to 6896
  150.9141  134.8560  159.7456 H   0  0  0  0  0  0  0  0  0  0  0  0  # atno 6908 bound_to 6896
  152.4948  134.4367  159.9582 H   0  0  0  0  0  0  0  0  0  0  0  0  # atno 6909 bound_to 6896
  144.8691  140.6338  143.5279 H   0  0  0  0  0  0  0  0  0  0  0  0  # atno 7974 bound_to 7965
  154.5233  140.0782  156.8213 H   0  0  0  0  0  0  0  0  0  0  0  0  # atno 8008 bound_to 7997
  155.3528  140.3413  155.4221 H   0  0  0  0  0  0  0  0  0  0  0  0  # atno 8009 bound_to 7997
  156.1705  140.1618  156.8443 H   0  0  0  0  0  0  0  0  0  0  0  0  # atno 8010 bound_to 7997
  140.6240  143.2431  151.5409 H   0  0  0  0  0  0  0  0  0  0  0  0  # atno 10167 bound_to 10162
  156.7414  130.9343  151.3110 H   0  0  0  0  0  0  0  0  0  0  0  0  # atno 10718 bound_to 10713
  154.7600  135.3115  154.8397 H   0  0  0  0  0  0  0  0  0  0  0  0  # atno 10763 bound_to 10752
  153.9160  135.6800  153.4753 H   0  0  0  0  0  0  0  0  0  0  0  0  # atno 10764 bound_to 10752
  153.1200  135.4827  154.9110 H   0  0  0  0  0  0  0  0  0  0  0  0  # atno 10765 bound_to 10752
  140.7186  133.8848  155.8803 H   0  0  0  0  0  0  0  0  0  0  0  0  # atno 11005 bound_to 11000
  145.4165  139.1571  143.4097 LP  0  0  0  0  0  0  0  0  0  0  0  0  # atno 17320 bound_to 7965
  146.2917  140.4273  142.8737 LP  0  0  0  0  0  0  0  0  0  0  0  0  # atno 17321 bound_to 7965
  139.5464  144.2511  152.1449 LP  0  0  0  0  0  0  0  0  0  0  0  0  # atno 17342 bound_to 10162
  140.1738  144.4910  150.6565 LP  0  0  0  0  0  0  0  0  0  0  0  0  # atno 17343 bound_to 10162
  157.6817  130.9146  150.0283 LP  0  0  0  0  0  0  0  0  0  0  0  0  # atno 17370 bound_to 10713
  156.1462  130.3642  149.9507 LP  0  0  0  0  0  0  0  0  0  0  0  0  # atno 17371 bound_to 10713
  141.0023  134.1133  157.4305 LP  0  0  0  0  0  0  0  0  0  0  0  0  # atno 17394 bound_to 11000
  139.8854  135.0072  156.6430 LP  0  0  0  0  0  0  0  0  0  0  0  0  # atno 17395 bound_to 11000

$$$$
