AV-unprocessed.smi:3136|AV-procd|sdf|11951|dock3
  -GOLD-   2272017343D 1   1.00000     0.00000
 Structure written by MMmdl.
 40 40  0  0  0  0  0  0  0  0  2 V2000
  151.2473  141.1463  158.1385 C   0  0  0  0  0  0  0  0  0  0  0  0
  150.8625  141.7105  156.7642 C   0  0  0  0  0  0  0  0  0  0  0  0
  150.4515  140.6549  155.8455 N   0  0  0  0  0  0  0  0  0  0  0  0
  151.2360  139.6505  155.4245 C   0  0  0  0  0  0  0  0  0  0  0  0
  152.4110  139.5222  155.7681 O   0  0  0  0  0  0  0  0  0  0  0  0
  150.5961  138.6391  154.4689 C   0  0  0  0  0  0  0  0  0  0  0  0
  149.0613  138.7383  154.4455 C   0  0  0  0  0  0  0  0  0  0  0  0
  148.5473  138.6999  153.0613 N   0  3  0  0  0  0  0  0  0  0  0  0
  147.0895  138.9250  152.9342 C   0  0  1  0  0  0  0  0  0  0  0  0
  146.7136  138.9120  151.4413 C   0  0  0  0  0  0  0  0  0  0  0  0
  146.3063  137.8795  153.7730 C   0  0  1  0  0  0  0  0  0  0  0  0
  145.2830  138.5277  154.7251 C   0  0  0  0  0  0  0  0  0  0  0  0
  145.6473  136.8846  152.9358 N   0  0  0  0  0  0  0  0  0  0  0  0
  144.4997  137.0263  152.1826 C   0  0  0  0  0  0  0  0  0  0  0  0
  144.2658  135.8311  151.5654 C   0  0  0  0  0  0  0  0  0  0  0  0
  145.3396  135.0078  152.0040 C   0  0  0  0  0  0  0  0  0  0  0  0
  146.1649  135.6402  152.8222 N   0  0  0  0  0  0  0  0  0  0  0  0
  151.5137  141.9498  158.8251 H   0  0  0  0  0  0  0  0  0  0  0  0
  152.1037  140.4749  158.0681 H   0  0  0  0  0  0  0  0  0  0  0  0
  150.4206  140.5910  158.5827 H   0  0  0  0  0  0  0  0  0  0  0  0
  150.0315  142.4076  156.8735 H   0  0  0  0  0  0  0  0  0  0  0  0
  151.6915  142.2799  156.3411 H   0  0  0  0  0  0  0  0  0  0  0  0
  149.4999  140.6913  155.5092 H   0  0  0  0  0  0  0  0  0  0  0  0
  150.9896  138.7915  153.4624 H   0  0  0  0  0  0  0  0  0  0  0  0
  150.9010  137.6384  154.7777 H   0  0  0  0  0  0  0  0  0  0  0  0
  148.6180  137.9155  155.0086 H   0  0  0  0  0  0  0  0  0  0  0  0
  148.7379  139.6667  154.9190 H   0  0  0  0  0  0  0  0  0  0  0  0
  149.0246  139.4111  152.5262 H   0  0  0  0  0  0  0  0  0  0  0  0
  146.8474  139.9191  153.3148 H   0  0  0  0  0  0  0  0  0  0  0  0
  145.6700  139.1844  151.2825 H   0  0  0  0  0  0  0  0  0  0  0  0
  146.8713  137.9265  151.0012 H   0  0  0  0  0  0  0  0  0  0  0  0
  147.3167  139.6268  150.8805 H   0  0  0  0  0  0  0  0  0  0  0  0
  147.0268  137.3371  154.3876 H   0  0  0  0  0  0  0  0  0  0  0  0
  145.7687  139.1720  155.4578 H   0  0  0  0  0  0  0  0  0  0  0  0
  144.7305  137.7687  155.2801 H   0  0  0  0  0  0  0  0  0  0  0  0
  144.5574  139.1338  154.1811 H   0  0  0  0  0  0  0  0  0  0  0  0
  143.9494  137.9551  152.1488 H   0  0  0  0  0  0  0  0  0  0  0  0
  143.4519  135.5826  150.9004 H   0  0  0  0  0  0  0  0  0  0  0  0
  145.5425  133.9767  151.7541 H   0  0  0  0  0  0  0  0  0  0  0  0
  148.7657  137.7981  152.6622 H   0  0  0  0  0  0  0  0  0  0  0  0
  1  2  1  0  0  0  0
  1 18  1  0  0  0  0
  1 19  1  0  0  0  0
  1 20  1  0  0  0  0
  2  3  1  0  0  0  0
  2 21  1  0  0  0  0
  2 22  1  0  0  0  0
  3  4  1  0  0  0  0
  3 23  1  0  0  0  0
  4  5  2  0  0  0  0
  4  6  1  0  0  0  0
  6  7  1  0  0  0  0
  6 24  1  0  0  0  0
  6 25  1  0  0  0  0
  7  8  1  0  0  0  0
  7 26  1  0  0  0  0
  7 27  1  0  0  0  0
  8  9  1  0  0  0  0
  8 28  1  0  0  0  0
  8 40  1  0  0  0  0
  9 10  1  0  0  0  0
  9 11  1  0  0  0  0
  9 29  1  0  0  0  0
 10 30  1  0  0  0  0
 10 31  1  0  0  0  0
 10 32  1  0  0  0  0
 11 12  1  0  0  0  0
 11 13  1  0  0  0  0
 11 33  1  0  0  0  0
 12 34  1  0  0  0  0
 12 35  1  0  0  0  0
 12 36  1  0  0  0  0
 13 17  1  0  0  0  0
 13 14  1  0  0  0  0
 14 15  2  0  0  0  0
 14 37  1  0  0  0  0
 15 16  1  0  0  0  0
 15 38  1  0  0  0  0
 16 17  2  0  0  0  0
 16 39  1  0  0  0  0
M  CHG  1   8   1
M  END
> <s_m_source_file>
AV-unprocessed.smi

> <i_m_source_file_index>
3136

> <i_lp_mmshare_version>
43012

> <i_f3d_flags>
0

> <s_epik_input>
W0NIM11bQ0gyXVtOSF1DKD1PKVtDSDJdW0NIMl1bTkhdW0NASF0oW0NIM10pW0NASF0oW0NIM10pbjFbY0hdW2NIXVtjSF1uMQ==

> <s_epik_cmdline>
J2VwaWtfcHl0aG9uJywgJy1waCcsICc3LjAnLCAnLXRuJywgJzgnLCAnLW1hJywgJzIwMCcsICctbWV0YWxfYmluZGluZycsICctaW1hZScsICc8aW5maWxlLm1hZT4nLCAnLW9tYWUnLCAnPG91dGZpbGUubWFlPic=

> <r_lp_tautomer_probability>
1

> <r_epik_Ionization_Penalty>
0.00463447

> <r_epik_Ionization_Penalty_Charging>
0.00462393

> <r_epik_Ionization_Penalty_Neutral>
1.05394e-05

> <r_epik_State_Penalty>
-0

> <r_epik_Charging_Adjusted_Penalty>
0.00462393

> <i_epik_Tot_Q>
1

> <i_epik_Tot_abs_Q>
1

> <r_epik_Metal_State_Penalty>
-0

> <b_epik_Metal_Only>
0

> <s_lp_Force_Field>
OPLS_2005

> <r_lp_Energy>
12.3637

> <b_lp_Chiralities_Consistent>
1

> <s_lp_Variant>
AV-unprocessed.smi:3136-4

> <Gold.Version>
5.8.1

> <Gold.Id.Protein>
6NUR|6NUR_protein|mol2

> <Gold.PLP.Fitness>
41.8872

> <Gold.PLP.PLP>
-29.5214

> <Gold.PLP.part.hbond>
-2.9243

> <Gold.PLP.part.metal>
0.0000

> <Gold.PLP.part.buried>
-1.1593

> <Gold.PLP.part.nonpolar>
-25.6780

> <Gold.PLP.part.repulsive>
1.1372

> <Gold.PLP.ligand.clash>
0.0000

> <Gold.PLP.ligand.torsion>
2.1883

> <Gold.PLP.Chemscore.Hbond>
4.0000

> <Gold.PLP.Chemscore.CHOScore>
1.5337

> <Gold.PLP.Chemscore.Metal>
0.0000

> <Gold.Chemscore.Hbonds>
donor molecule, donor type, donor heavy atom, donor atom, acceptor molecule, acceptor atom, score
      L1  H     8    28       P1  7957  1.00
      L1  H     8    40       P1  7948  2.00
      P1  H  7997  8010       L1     5  0.78
      L1  C    14    37       P1 10171  0.53
      L1  C    14    37       P1 10175  1.00

> <Gold.PLP.Chemscore.Internal.Correction>
0.1415

> <Gold.Rescore>
     Score         DG    S(hbond)    S(metal)    S(lipo)     H(rot)  DE(clash)    DE(int)     intcor
     13.24     -16.48       2.97        0.00      59.89       2.32       0.12       3.12       ----

> <Gold.Chemscore.Fitness>
13.2398

> <Gold.Chemscore.DG>
-16.4836

> <Gold.Chemscore.ZeroCoef>
-5.4800

> <Gold.Chemscore.Hbond>
2.9715

> <Gold.Chemscore.Metal>
0.0000

> <Gold.Chemscore.Lipo>
59.8916

> <Gold.Chemscore.Internal_Hbond>
0.0000

> <Gold.Chemscore.DEClash>
0.1209

> <Gold.Chemscore.DEInternal>
3.1229

> <Gold.Chemscore.Rot>
2.3159

> <Gold.Chemscore.Internal.Correction>
   9.000000E+99

> <Gold.Chemscore.Hbonds>
donor molecule, donor type, donor heavy atom, donor atom, acceptor molecule, acceptor atom, score
      L1  H     8    28       P1  7957  0.95
      L1  H     8    40       P1  7948  1.00
      P1  H  7997  8010       L1     5  0.78

> <Gold.Chemscore.Hbond.Weighted>
-9.9249

> <Gold.Chemscore.Metal.Weighted>
-0.0000

> <Gold.Chemscore.Lipo.Weighted>
-7.0073

> <Gold.Chemscore.Internal_Hbond.Weighted>
0.0000

> <Gold.Chemscore.DEClash.Weighted>
0.1209

> <Gold.Chemscore.DEInternal.Weighted>
3.1229

> <Gold.Chemscore.Rot.Weighted>
5.9286

> <Gold.Chemscore.Internal.Correction.Weighted>
   9.000000E+99

> <Gold.Protein.RotatedTorsions>
[ 6907 6896 6895 6894 ] final -137.31 input  -60.11 | X-H torsion
[ 7974 7965 7964 7962 ] final -154.24 input  175.53 | X-H torsion
[ 8008 7997 7996 7995 ] final   99.48 input   59.86 | X-H torsion
[ 10167 10162 10161 10158 ] final   11.07 input  -65.29 | X-H torsion
[ 10718 10713 10712 10709 ] final   18.22 input   66.30 | X-H torsion
[ 10763 10752 10751 10750 ] final  -18.85 input  -60.55 | X-H torsion
[ 11005 11000 10999 10996 ] final   25.54 input  -57.11 | X-H torsion

> <Gold.Protein.ActiveResidues>
 VAL166  LYS551  ARG553  GLY616  TRP617  ASP618  TYR619  PRO620  LYS621  CYS622 
 ASP623  PHE694  ASN695  SER759  ASP760  ASP761  ALA762  ILE779  LEU786  VAL792 
 PHE793  MET794  SER795  GLU796  ALA797  LYS798  CYS799  TRP800  GLU811  SER814 

> <Gold.Protein.RotatedAtoms>
  151.0208  133.5878  159.2671 H   0  0  0  0  0  0  0  0  0  0  0  0  # atno 6907 bound_to 6896
  151.2995  135.0764  159.9243 H   0  0  0  0  0  0  0  0  0  0  0  0  # atno 6908 bound_to 6896
  152.5322  133.9892  159.7897 H   0  0  0  0  0  0  0  0  0  0  0  0  # atno 6909 bound_to 6896
  144.7699  140.4416  143.5914 H   0  0  0  0  0  0  0  0  0  0  0  0  # atno 7974 bound_to 7965
  156.1109  140.3228  155.8072 H   0  0  0  0  0  0  0  0  0  0  0  0  # atno 8008 bound_to 7997
  155.4674  140.0544  157.3001 H   0  0  0  0  0  0  0  0  0  0  0  0  # atno 8009 bound_to 7997
  154.4759  140.2032  155.9893 H   0  0  0  0  0  0  0  0  0  0  0  0  # atno 8010 bound_to 7997
  140.6155  143.8317  150.7113 H   0  0  0  0  0  0  0  0  0  0  0  0  # atno 10167 bound_to 10162
  157.0932  130.6436  149.5854 H   0  0  0  0  0  0  0  0  0  0  0  0  # atno 10718 bound_to 10713
  153.5957  135.7001  153.5405 H   0  0  0  0  0  0  0  0  0  0  0  0  # atno 10763 bound_to 10752
  153.3140  135.4093  155.1360 H   0  0  0  0  0  0  0  0  0  0  0  0  # atno 10764 bound_to 10752
  154.8592  135.3679  154.5490 H   0  0  0  0  0  0  0  0  0  0  0  0  # atno 10765 bound_to 10752
  140.3468  134.2273  155.7684 H   0  0  0  0  0  0  0  0  0  0  0  0  # atno 11005 bound_to 11000
  145.6354  139.1542  143.2945 LP  0  0  0  0  0  0  0  0  0  0  0  0  # atno 17320 bound_to 7965
  146.1838  140.6455  142.9177 LP  0  0  0  0  0  0  0  0  0  0  0  0  # atno 17321 bound_to 7965
  140.1895  143.4048  152.1873 LP  0  0  0  0  0  0  0  0  0  0  0  0  # atno 17342 bound_to 10162
  139.5395  144.7243  151.4781 LP  0  0  0  0  0  0  0  0  0  0  0  0  # atno 17343 bound_to 10162
  155.9892  130.4939  150.7206 LP  0  0  0  0  0  0  0  0  0  0  0  0  # atno 17370 bound_to 10713
  157.4703  131.0892  151.0649 LP  0  0  0  0  0  0  0  0  0  0  0  0  # atno 17371 bound_to 10713
  141.2023  133.7940  157.0396 LP  0  0  0  0  0  0  0  0  0  0  0  0  # atno 17394 bound_to 11000
  140.0736  134.9688  157.1508 LP  0  0  0  0  0  0  0  0  0  0  0  0  # atno 17395 bound_to 11000

$$$$
