AV-unprocessed.smi:1768|AV-procd|sdf|7148|dock1
  -GOLD-   22720 8383D 1   1.00000     0.00000
 Structure written by MMmdl.
 32 33  0  0  0  0  0  0  0  0  2 V2000
  146.9745  133.8675  162.3825 C   0  0  0  0  0  0  0  0  0  0  0  0
  147.4181  135.0543  161.5981 C   0  0  0  0  0  0  0  0  0  0  0  0
  147.3693  136.2981  162.0813 N   0  0  0  0  0  0  0  0  0  0  0  0
  147.8334  137.2324  161.1666 N   0  0  0  0  0  0  0  0  0  0  0  0
  148.2138  136.6856  160.0032 C   0  0  0  0  0  0  0  0  0  0  0  0
  148.6953  137.4194  158.9862 N   0  5  0  0  0  0  0  0  0  0  0  0
  150.0082  137.7427  158.9475 C   0  0  0  0  0  0  0  0  0  0  0  0
  150.9389  137.0708  159.3979 O   0  0  0  0  0  0  0  0  0  0  0  0
  150.2571  138.9162  158.3481 N   0  0  0  0  0  0  0  0  0  0  0  0
  151.5700  139.5300  158.1607 C   0  0  1  0  0  0  0  0  0  0  0  0
  151.9399  139.5162  156.6666 C   0  0  0  0  0  0  0  0  0  0  0  0
  151.5453  140.9574  158.7402 C   0  0  2  0  0  0  0  0  0  0  0  0
  150.9860  142.0243  157.7969 C   0  0  0  0  0  0  0  0  0  0  0  0
  151.6510  143.3098  158.2659 C   0  0  0  0  0  0  0  0  0  0  0  0
  152.7799  142.8336  159.1832 C   0  0  0  0  0  0  0  0  0  0  0  0
  152.8640  141.4331  158.9650 O   0  0  0  0  0  0  0  0  0  0  0  0
  148.0429  134.9308  159.9623 S   0  0  0  0  0  0  0  0  0  0  0  0
  145.8862  133.8071  162.3817 H   0  0  0  0  0  0  0  0  0  0  0  0
  147.3226  133.9437  163.4130 H   0  0  0  0  0  0  0  0  0  0  0  0
  147.3765  132.9529  161.9464 H   0  0  0  0  0  0  0  0  0  0  0  0
  149.4628  139.4324  158.0000 H   0  0  0  0  0  0  0  0  0  0  0  0
  152.3146  138.9519  158.7111 H   0  0  0  0  0  0  0  0  0  0  0  0
  152.9334  139.9318  156.4993 H   0  0  0  0  0  0  0  0  0  0  0  0
  151.2308  140.0989  156.0778 H   0  0  0  0  0  0  0  0  0  0  0  0
  151.9451  138.5008  156.2695 H   0  0  0  0  0  0  0  0  0  0  0  0
  150.9986  140.9762  159.6854 H   0  0  0  0  0  0  0  0  0  0  0  0
  151.2861  141.8139  156.7695 H   0  0  0  0  0  0  0  0  0  0  0  0
  149.8974  142.0785  157.8241 H   0  0  0  0  0  0  0  0  0  0  0  0
  152.0349  143.8781  157.4182 H   0  0  0  0  0  0  0  0  0  0  0  0
  150.9546  143.9480  158.8106 H   0  0  0  0  0  0  0  0  0  0  0  0
  153.7301  143.3231  158.9685 H   0  0  0  0  0  0  0  0  0  0  0  0
  152.5294  143.0189  160.2284 H   0  0  0  0  0  0  0  0  0  0  0  0
  1  2  1  0  0  0  0
  1 18  1  0  0  0  0
  1 19  1  0  0  0  0
  1 20  1  0  0  0  0
  2 17  1  0  0  0  0
  2  3  2  0  0  0  0
  3  4  1  0  0  0  0
  4  5  2  0  0  0  0
  5  6  1  0  0  0  0
  5 17  1  0  0  0  0
  6  7  1  0  0  0  0
  7  8  2  0  0  0  0
  7  9  1  0  0  0  0
  9 10  1  0  0  0  0
  9 21  1  0  0  0  0
 10 11  1  0  0  0  0
 10 12  1  0  0  0  0
 10 22  1  0  0  0  0
 11 23  1  0  0  0  0
 11 24  1  0  0  0  0
 11 25  1  0  0  0  0
 12 16  1  0  0  0  0
 12 13  1  0  0  0  0
 12 26  1  0  0  0  0
 13 14  1  0  0  0  0
 13 27  1  0  0  0  0
 13 28  1  0  0  0  0
 14 15  1  0  0  0  0
 14 29  1  0  0  0  0
 14 30  1  0  0  0  0
 15 16  1  0  0  0  0
 15 31  1  0  0  0  0
 15 32  1  0  0  0  0
M  CHG  1   6  -1
M  END
> <s_m_source_file>
AV-unprocessed.smi

> <i_m_source_file_index>
1768

> <i_lp_mmshare_version>
43012

> <i_f3d_flags>
0

> <s_epik_input>
W0NIM11jMW5uYyhzMSlbTkhdQyg9TylbTkhdW0NASF0oW0NIM10pW0NAQEhdMltDSDJdW0NIMl1bQ0gyXU8y

> <s_epik_cmdline>
J2VwaWtfcHl0aG9uJywgJy1waCcsICc3LjAnLCAnLXRuJywgJzgnLCAnLW1hJywgJzIwMCcsICctbWV0YWxfYmluZGluZycsICctaW1hZScsICc8aW5maWxlLm1hZT4nLCAnLW9tYWUnLCAnPG91dGZpbGUubWFlPic=

> <r_lp_tautomer_probability>
1

> <r_epik_Ionization_Penalty>
4.3376

> <r_epik_Ionization_Penalty_Charging>
4.19392

> <r_epik_Ionization_Penalty_Neutral>
0.143681

> <r_epik_State_Penalty>
4.19342

> <r_epik_Charging_Adjusted_Penalty>
8.38735

> <i_epik_Tot_Q>
-1

> <i_epik_Tot_abs_Q>
1

> <r_epik_Metal_State_Penalty>
0.686065

> <b_epik_Metal_Only>
1

> <s_lp_Force_Field>
OPLS_2005

> <r_lp_Energy>
16.4206

> <b_lp_Chiralities_Consistent>
1

> <s_lp_Variant>
AV-unprocessed.smi:1768-6

> <Gold.Version>
5.8.1

> <Gold.Id.Protein>
6NUR|6NUR_protein|mol2

> <Gold.PLP.Fitness>
35.7222

> <Gold.PLP.PLP>
-30.1269

> <Gold.PLP.part.hbond>
-3.0000

> <Gold.PLP.part.metal>
0.0000

> <Gold.PLP.part.buried>
-4.5569

> <Gold.PLP.part.nonpolar>
-22.9162

> <Gold.PLP.part.repulsive>
0.1482

> <Gold.PLP.ligand.clash>
0.0000

> <Gold.PLP.ligand.torsion>
1.3830

> <Gold.PLP.Chemscore.Hbond>
2.7600

> <Gold.PLP.Chemscore.CHOScore>
0.0000

> <Gold.PLP.Chemscore.Metal>
0.0000

> <Gold.Chemscore.Hbonds>
donor molecule, donor type, donor heavy atom, donor atom, acceptor molecule, acceptor atom, score
      P1  H  6896  6907       L1     8  0.98
      P1  H  6931  6943       L1     4  0.94
      P1  H  6934  6947       L1     4  0.78

> <Gold.PLP.Chemscore.Internal.Correction>
0.0814

> <Gold.Rescore>
     Score         DG    S(hbond)    S(metal)    S(lipo)     H(rot)  DE(clash)    DE(int)     intcor
     16.87     -18.16       2.44        0.00      66.53       1.28       0.01       1.27       ----

> <Gold.Chemscore.Fitness>
16.8746

> <Gold.Chemscore.DG>
-18.1561

> <Gold.Chemscore.ZeroCoef>
-5.4800

> <Gold.Chemscore.Hbond>
2.4440

> <Gold.Chemscore.Metal>
0.0000

> <Gold.Chemscore.Lipo>
66.5267

> <Gold.Chemscore.Internal_Hbond>
0.0000

> <Gold.Chemscore.DEClash>
0.0073

> <Gold.Chemscore.DEInternal>
1.2741

> <Gold.Chemscore.Rot>
1.2776

> <Gold.Chemscore.Internal.Correction>
   9.000000E+99

> <Gold.Chemscore.Hbonds>
donor molecule, donor type, donor heavy atom, donor atom, acceptor molecule, acceptor atom, score
      P1  H  6896  6907       L1     8  0.92
      P1  H  6931  6943       L1     4  0.61
      P1  H  6934  6947       L1     4  0.64

> <Gold.Chemscore.Hbond.Weighted>
-8.1631

> <Gold.Chemscore.Metal.Weighted>
-0.0000

> <Gold.Chemscore.Lipo.Weighted>
-7.7836

> <Gold.Chemscore.Internal_Hbond.Weighted>
0.0000

> <Gold.Chemscore.DEClash.Weighted>
0.0073

> <Gold.Chemscore.DEInternal.Weighted>
1.2741

> <Gold.Chemscore.Rot.Weighted>
3.2706

> <Gold.Chemscore.Internal.Correction.Weighted>
   9.000000E+99

> <Gold.Protein.RotatedTorsions>
[ 6907 6896 6895 6894 ] final  -25.98 input  -60.11 | X-H torsion
[ 7974 7965 7964 7962 ] final   67.46 input  175.53 | X-H torsion
[ 8008 7997 7996 7995 ] final -100.17 input   59.86 | X-H torsion
[ 10167 10162 10161 10158 ] final  -46.58 input  -65.29 | X-H torsion
[ 10718 10713 10712 10709 ] final   95.16 input   66.30 | X-H torsion
[ 10763 10752 10751 10750 ] final  -89.61 input  -60.55 | X-H torsion
[ 11005 11000 10999 10996 ] final  103.41 input  -57.11 | X-H torsion

> <Gold.Protein.ActiveResidues>
 VAL166  LYS551  ARG553  GLY616  TRP617  ASP618  TYR619  PRO620  LYS621  CYS622 
 ASP623  PHE694  ASN695  SER759  ASP760  ASP761  ALA762  ILE779  LEU786  VAL792 
 PHE793  MET794  SER795  GLU796  ALA797  LYS798  CYS799  TRP800  GLU811  SER814 

> <Gold.Protein.RotatedAtoms>
  151.1674  135.0302  159.8736 H   0  0  0  0  0  0  0  0  0  0  0  0  # atno 6907 bound_to 6896
  152.5450  134.1209  159.8409 H   0  0  0  0  0  0  0  0  0  0  0  0  # atno 6908 bound_to 6896
  151.1311  133.4990  159.2631 H   0  0  0  0  0  0  0  0  0  0  0  0  # atno 6909 bound_to 6896
  145.8144  139.3050  143.1080 H   0  0  0  0  0  0  0  0  0  0  0  0  # atno 7974 bound_to 7965
  154.8249  140.0443  157.1436 H   0  0  0  0  0  0  0  0  0  0  0  0  # atno 8008 bound_to 7997
  154.9218  140.3028  155.5192 H   0  0  0  0  0  0  0  0  0  0  0  0  # atno 8009 bound_to 7997
  156.2983  140.2339  156.4268 H   0  0  0  0  0  0  0  0  0  0  0  0  # atno 8010 bound_to 7997
  140.6811  143.2824  151.3804 H   0  0  0  0  0  0  0  0  0  0  0  0  # atno 10167 bound_to 10162
  157.6941  131.0536  150.4296 H   0  0  0  0  0  0  0  0  0  0  0  0  # atno 10718 bound_to 10713
  154.6571  135.5334  153.7972 H   0  0  0  0  0  0  0  0  0  0  0  0  # atno 10763 bound_to 10752
  153.0420  135.6496  154.0929 H   0  0  0  0  0  0  0  0  0  0  0  0  # atno 10764 bound_to 10752
  154.0841  135.2945  155.3264 H   0  0  0  0  0  0  0  0  0  0  0  0  # atno 10765 bound_to 10752
  139.8783  134.9262  156.5205 H   0  0  0  0  0  0  0  0  0  0  0  0  # atno 11005 bound_to 11000
  145.9742  140.8735  143.0147 LP  0  0  0  0  0  0  0  0  0  0  0  0  # atno 17320 bound_to 7965
  144.6754  140.1989  143.7389 LP  0  0  0  0  0  0  0  0  0  0  0  0  # atno 17321 bound_to 7965
  139.6135  144.1051  152.2322 LP  0  0  0  0  0  0  0  0  0  0  0  0  # atno 17342 bound_to 10162
  140.0472  144.5961  150.7364 LP  0  0  0  0  0  0  0  0  0  0  0  0  # atno 17343 bound_to 10162
  156.4664  130.4043  149.6545 LP  0  0  0  0  0  0  0  0  0  0  0  0  # atno 17370 bound_to 10713
  156.3641  130.7497  151.2472 LP  0  0  0  0  0  0  0  0  0  0  0  0  # atno 17371 bound_to 10713
  140.8454  133.8173  155.9115 LP  0  0  0  0  0  0  0  0  0  0  0  0  # atno 17394 bound_to 11000
  140.9197  134.2157  157.4934 LP  0  0  0  0  0  0  0  0  0  0  0  0  # atno 17395 bound_to 11000

$$$$
