AV-unprocessed.smi:2072|AV-procd|sdf|8447|dock1
  -GOLD-   2272011143D 1   1.00000     0.00000
 Structure written by MMmdl.
 40 42  0  0  0  0  0  0  0  0  2 V2000
  145.3212  137.5471  154.2236 O   0  0  0  0  0  0  0  0  0  0  0  0
  146.3255  137.0923  153.6777 C   0  0  0  0  0  0  0  0  0  0  0  0
  147.4760  137.7565  153.4706 N   0  0  0  0  0  0  0  0  0  0  0  0
  147.8216  139.0961  153.8047 C   0  0  0  0  0  0  0  0  0  0  0  0
  149.0964  139.5196  154.2564 C   0  0  0  0  0  0  0  0  0  0  0  0
  149.2944  140.8811  154.5568 C   0  0  0  0  0  0  0  0  0  0  0  0
  148.2143  141.7702  154.3990 C   0  0  0  0  0  0  0  0  0  0  0  0
  146.9940  141.3822  153.9741 N   0  0  0  0  0  0  0  0  0  0  0  0
  146.8116  140.0755  153.6878 C   0  0  0  0  0  0  0  0  0  0  0  0
  146.4034  135.8362  153.2156 N   0  0  0  0  0  0  0  0  0  0  0  0
  145.3283  134.8497  153.2798 C   0  0  1  0  0  0  0  0  0  0  0  0
  144.0313  135.3313  152.6056 C   0  0  0  0  0  0  0  0  0  0  0  0
  143.4303  134.0799  151.9353 C   0  0  0  0  0  0  0  0  0  0  0  0
  144.3277  132.9684  152.3047 N   0  3  1  0  0  0  0  0  0  0  0  0
  144.3554  131.7965  151.4029 C   0  0  0  0  0  0  0  0  0  0  0  0
  145.2758  130.7153  152.0035 C   0  0  0  0  0  0  0  0  0  0  0  0
  146.6755  131.2744  152.3294 C   0  0  0  0  0  0  0  0  0  0  0  0
  146.5800  132.5477  153.1921 C   0  0  0  0  0  0  0  0  0  0  0  0
  145.6555  133.5687  152.5069 C   0  0  2  0  0  0  0  0  0  0  0  0
  148.2127  137.2276  153.0271 H   0  0  0  0  0  0  0  0  0  0  0  0
  149.9245  138.8423  154.3863 H   0  0  0  0  0  0  0  0  0  0  0  0
  150.2540  141.2357  154.9026 H   0  0  0  0  0  0  0  0  0  0  0  0
  148.3338  142.8202  154.6217 H   0  0  0  0  0  0  0  0  0  0  0  0
  145.8215  139.8032  153.3520 H   0  0  0  0  0  0  0  0  0  0  0  0
  147.2666  135.5436  152.7813 H   0  0  0  0  0  0  0  0  0  0  0  0
  145.1010  134.5993  154.3184 H   0  0  0  0  0  0  0  0  0  0  0  0
  143.3485  135.7716  153.3333 H   0  0  0  0  0  0  0  0  0  0  0  0
  144.2346  136.0899  151.8480 H   0  0  0  0  0  0  0  0  0  0  0  0
  142.4115  133.8786  152.2674 H   0  0  0  0  0  0  0  0  0  0  0  0
  143.4149  134.2070  150.8517 H   0  0  0  0  0  0  0  0  0  0  0  0
  143.3452  131.4048  151.2797 H   0  0  0  0  0  0  0  0  0  0  0  0
  144.7096  132.0949  150.4150 H   0  0  0  0  0  0  0  0  0  0  0  0
  144.8244  130.3236  152.9162 H   0  0  0  0  0  0  0  0  0  0  0  0
  145.3603  129.8725  151.3168 H   0  0  0  0  0  0  0  0  0  0  0  0
  147.2729  130.5184  152.8399 H   0  0  0  0  0  0  0  0  0  0  0  0
  147.1981  131.5050  151.4001 H   0  0  0  0  0  0  0  0  0  0  0  0
  146.1980  132.2994  154.1832 H   0  0  0  0  0  0  0  0  0  0  0  0
  147.5745  132.9705  153.3357 H   0  0  0  0  0  0  0  0  0  0  0  0
  146.0694  133.8349  151.5313 H   0  0  0  0  0  0  0  0  0  0  0  0
  144.0224  132.6430  153.2110 H   0  0  0  0  0  0  0  0  0  0  0  0
  1  2  2  0  0  0  0
  2  3  1  0  0  0  0
  2 10  1  0  0  0  0
  3  4  1  0  0  0  0
  3 20  1  0  0  0  0
  4  9  1  0  0  0  0
  4  5  2  0  0  0  0
  5  6  1  0  0  0  0
  5 21  1  0  0  0  0
  6  7  2  0  0  0  0
  6 22  1  0  0  0  0
  7  8  1  0  0  0  0
  7 23  1  0  0  0  0
  8  9  2  0  0  0  0
  9 24  1  0  0  0  0
 10 11  1  0  0  0  0
 10 25  1  0  0  0  0
 11 19  1  0  0  0  0
 11 12  1  0  0  0  0
 11 26  1  0  0  0  0
 12 13  1  0  0  0  0
 12 27  1  0  0  0  0
 12 28  1  0  0  0  0
 13 14  1  0  0  0  0
 13 29  1  0  0  0  0
 13 30  1  0  0  0  0
 14 19  1  0  0  0  0
 14 15  1  0  0  0  0
 14 40  1  0  0  0  0
 15 16  1  0  0  0  0
 15 31  1  0  0  0  0
 15 32  1  0  0  0  0
 16 17  1  0  0  0  0
 16 33  1  0  0  0  0
 16 34  1  0  0  0  0
 17 18  1  0  0  0  0
 17 35  1  0  0  0  0
 17 36  1  0  0  0  0
 18 19  1  0  0  0  0
 18 37  1  0  0  0  0
 18 38  1  0  0  0  0
 19 39  1  0  0  0  0
M  CHG  1  14   1
M  END
> <s_m_source_file>
AV-unprocessed.smi

> <i_m_source_file_index>
2072

> <i_lp_mmshare_version>
43012

> <i_f3d_flags>
0

> <s_epik_input>
W0NIMl0xW0NIMl1bQ0gyXVtDSDJdW0NASF0oTjEyKVtDQEBIXShbQ0gyXVtDSDJdMilbTkhdQyg9TylbTkhdYzNbY0hdW2NIXVtjSF1uW2NIXTM=

> <s_epik_cmdline>
J2VwaWtfcHl0aG9uJywgJy1waCcsICc3LjAnLCAnLXRuJywgJzgnLCAnLW1hJywgJzIwMCcsICctbWV0YWxfYmluZGluZycsICctaW1hZScsICc8aW5maWxlLm1hZT4nLCAnLW9tYWUnLCAnPG91dGZpbGUubWFlPic=

> <r_lp_tautomer_probability>
1

> <r_epik_Ionization_Penalty>
0.00482425

> <r_epik_Ionization_Penalty_Charging>
0.000974069

> <r_epik_Ionization_Penalty_Neutral>
0.00385018

> <r_epik_State_Penalty>
-0

> <r_epik_Charging_Adjusted_Penalty>
0.000974069

> <i_epik_Tot_Q>
1

> <i_epik_Tot_abs_Q>
1

> <r_epik_Metal_State_Penalty>
-0

> <b_epik_Metal_Only>
0

> <s_lp_Force_Field>
OPLS_2005

> <r_lp_Energy>
37.8914

> <b_lp_Chiralities_Consistent>
1

> <s_lp_Variant>
AV-unprocessed.smi:2072-6

> <Gold.Version>
5.8.1

> <Gold.Id.Protein>
6NUR|6NUR_protein|mol2

> <Gold.PLP.Fitness>
41.2083

> <Gold.PLP.PLP>
-27.1943

> <Gold.PLP.part.hbond>
-2.4387

> <Gold.PLP.part.metal>
0.0000

> <Gold.PLP.part.buried>
-3.4105

> <Gold.PLP.part.nonpolar>
-22.7991

> <Gold.PLP.part.repulsive>
0.2794

> <Gold.PLP.ligand.clash>
0.0000

> <Gold.PLP.ligand.torsion>
0.3040

> <Gold.PLP.Chemscore.Hbond>
2.8710

> <Gold.PLP.Chemscore.CHOScore>
2.0000

> <Gold.PLP.Chemscore.Metal>
0.0000

> <Gold.Chemscore.Hbonds>
donor molecule, donor type, donor heavy atom, donor atom, acceptor molecule, acceptor atom, score
      L1  H     3    20       P1  7948  1.00
      L1  H    10    25       P1  7948  0.88
      L1  H    14    40       P1 10957  0.94
      L1  C     7    23       P1  8028  1.00
      L1  C     9    24       P1 10175  1.00

> <Gold.PLP.Chemscore.Internal.Correction>
0.0091

> <Gold.Rescore>
     Score         DG    S(hbond)    S(metal)    S(lipo)     H(rot)  DE(clash)    DE(int)     intcor
     17.23     -18.83       2.13        0.00      75.22       1.00       0.24       1.36       ----

> <Gold.Chemscore.Fitness>
17.2326

> <Gold.Chemscore.DG>
-18.8340

> <Gold.Chemscore.ZeroCoef>
-5.4800

> <Gold.Chemscore.Hbond>
2.1296

> <Gold.Chemscore.Metal>
0.0000

> <Gold.Chemscore.Lipo>
75.2244

> <Gold.Chemscore.Internal_Hbond>
0.0000

> <Gold.Chemscore.DEClash>
0.2407

> <Gold.Chemscore.DEInternal>
1.3608

> <Gold.Chemscore.Rot>
1.0000

> <Gold.Chemscore.Internal.Correction>
   9.000000E+99

> <Gold.Chemscore.Hbonds>
donor molecule, donor type, donor heavy atom, donor atom, acceptor molecule, acceptor atom, score
      L1  H     3    20       P1  7948  0.99
      L1  H    10    25       P1  7948  0.81
      L1  H    14    40       P1 10957  0.12

> <Gold.Chemscore.Hbond.Weighted>
-7.1128

> <Gold.Chemscore.Metal.Weighted>
-0.0000

> <Gold.Chemscore.Lipo.Weighted>
-8.8013

> <Gold.Chemscore.Internal_Hbond.Weighted>
0.0000

> <Gold.Chemscore.DEClash.Weighted>
0.2407

> <Gold.Chemscore.DEInternal.Weighted>
1.3608

> <Gold.Chemscore.Rot.Weighted>
2.5600

> <Gold.Chemscore.Internal.Correction.Weighted>
   9.000000E+99

> <Gold.Protein.RotatedTorsions>
[ 6907 6896 6895 6894 ] final  -37.72 input  -60.11 | X-H torsion
[ 7974 7965 7964 7962 ] final  -11.84 input  175.53 | X-H torsion
[ 8008 7997 7996 7995 ] final  -38.62 input   59.86 | X-H torsion
[ 10167 10162 10161 10158 ] final  -70.47 input  -65.29 | X-H torsion
[ 10718 10713 10712 10709 ] final -114.36 input   66.30 | X-H torsion
[ 10763 10752 10751 10750 ] final -149.26 input  -60.55 | X-H torsion
[ 11005 11000 10999 10996 ] final   20.90 input  -57.11 | X-H torsion

> <Gold.Protein.ActiveResidues>
 VAL166  LYS551  ARG553  GLY616  TRP617  ASP618  TYR619  PRO620  LYS621  CYS622 
 ASP623  PHE694  ASN695  SER759  ASP760  ASP761  ALA762  ILE779  LEU786  VAL792 
 PHE793  MET794  SER795  GLU796  ALA797  LYS798  CYS799  TRP800  GLU811  SER814 

> <Gold.Protein.RotatedAtoms>
  151.0113  134.9399  159.8008 H   0  0  0  0  0  0  0  0  0  0  0  0  # atno 6907 bound_to 6896
  152.5303  134.3025  159.9093 H   0  0  0  0  0  0  0  0  0  0  0  0  # atno 6908 bound_to 6896
  151.3031  133.4072  159.2675 H   0  0  0  0  0  0  0  0  0  0  0  0  # atno 6909 bound_to 6896
  146.2173  140.2970  142.8372 H   0  0  0  0  0  0  0  0  0  0  0  0  # atno 7974 bound_to 7965
  154.4034  140.1573  156.2730 H   0  0  0  0  0  0  0  0  0  0  0  0  # atno 8008 bound_to 7997
  155.8936  140.3437  155.5952 H   0  0  0  0  0  0  0  0  0  0  0  0  # atno 8009 bound_to 7997
  155.7529  140.0807  157.2183 H   0  0  0  0  0  0  0  0  0  0  0  0  # atno 8010 bound_to 7997
  140.5350  143.2318  151.7193 H   0  0  0  0  0  0  0  0  0  0  0  0  # atno 10167 bound_to 10162
  156.0825  130.6023  150.8765 H   0  0  0  0  0  0  0  0  0  0  0  0  # atno 10718 bound_to 10713
  154.8187  135.3314  154.7101 H   0  0  0  0  0  0  0  0  0  0  0  0  # atno 10763 bound_to 10752
  153.7737  135.6923  153.4906 H   0  0  0  0  0  0  0  0  0  0  0  0  # atno 10764 bound_to 10752
  153.2027  135.4510  155.0234 H   0  0  0  0  0  0  0  0  0  0  0  0  # atno 10765 bound_to 10752
  140.3975  134.1754  155.7663 H   0  0  0  0  0  0  0  0  0  0  0  0  # atno 11005 bound_to 11000
  144.9085  140.7728  143.5822 LP  0  0  0  0  0  0  0  0  0  0  0  0  # atno 17320 bound_to 7965
  145.2900  139.1887  143.4745 LP  0  0  0  0  0  0  0  0  0  0  0  0  # atno 17321 bound_to 7965
  139.4968  144.4056  152.0135 LP  0  0  0  0  0  0  0  0  0  0  0  0  # atno 17342 bound_to 10162
  140.3161  144.3482  150.6021 LP  0  0  0  0  0  0  0  0  0  0  0  0  # atno 17343 bound_to 10162
  157.5947  131.0943  150.9060 LP  0  0  0  0  0  0  0  0  0  0  0  0  # atno 17370 bound_to 10713
  156.9229  130.5321  149.5279 LP  0  0  0  0  0  0  0  0  0  0  0  0  # atno 17371 bound_to 10713
  141.1869  133.8293  157.1052 LP  0  0  0  0  0  0  0  0  0  0  0  0  # atno 17394 bound_to 11000
  140.0361  134.9877  157.0873 LP  0  0  0  0  0  0  0  0  0  0  0  0  # atno 17395 bound_to 11000

$$$$
