AV-unprocessed.smi:3030|AV-procd|sdf|11535|dock5
  -GOLD-   2272016483D 1   1.00000     0.00000
 Structure written by MMmdl.
 52 53  0  0  0  0  0  0  0  0  1 V2000
  148.1005  141.2707  154.0836 C   0  0  0  0  0  0  0  0  0  0  0  0
  149.2724  141.4869  155.0476 C   0  0  0  0  0  0  0  0  0  0  0  0
  150.0277  140.2612  155.2609 N   0  0  0  0  0  0  0  0  0  0  0  0
  151.1591  140.2406  156.0704 C   0  0  0  0  0  0  0  0  0  0  0  0
  151.8789  139.1328  156.3338 C   0  0  0  0  0  0  0  0  0  0  0  0
  151.4639  137.8432  155.7449 C   0  0  0  0  0  0  0  0  0  0  0  0
  152.1053  136.8134  155.9533 O   0  0  0  0  0  0  0  0  0  0  0  0
  150.2426  137.8619  154.8976 C   0  0  0  0  0  0  0  0  0  0  0  0
  149.8541  136.6377  154.3314 N   0  0  0  0  0  0  0  0  0  0  0  0
  149.7336  135.4352  154.9220 C   0  0  0  0  0  0  0  0  0  0  0  0
  150.0120  135.1794  156.0933 O   0  0  0  0  0  0  0  0  0  0  0  0
  149.2709  134.5244  154.0532 N   0  0  0  0  0  0  0  0  0  0  0  0
  149.0372  133.1065  154.3277 C   0  0  2  0  0  0  0  0  0  0  0  0
  150.3753  132.4838  154.7751 C   0  0  0  0  0  0  0  0  0  0  0  0
  150.2633  130.9707  155.0280 C   0  0  2  0  0  0  0  0  0  0  0  0
  151.6062  130.3731  155.4714 C   0  0  0  0  0  0  0  0  0  0  0  0
  149.7235  130.2675  153.7728 C   0  0  0  0  0  0  0  0  0  0  0  0
  148.3725  130.8565  153.3433 C   0  0  0  0  0  0  0  0  0  0  0  0
  148.4589  132.3792  153.0798 C   0  0  1  0  0  0  0  0  0  0  0  0
  147.1215  132.9824  152.5538 C   0  0  0  0  0  0  0  0  0  0  0  0
  146.0759  133.2483  153.6531 C   0  0  0  0  0  0  0  0  0  0  0  0
  146.5097  132.1485  151.4151 C   0  0  0  0  0  0  0  0  0  0  0  0
  149.6152  139.0503  154.7085 C   0  0  0  0  0  0  0  0  0  0  0  0
  147.5441  142.1964  153.9365 H   0  0  0  0  0  0  0  0  0  0  0  0
  147.4070  140.5221  154.4682 H   0  0  0  0  0  0  0  0  0  0  0  0
  148.4505  140.9340  153.1073 H   0  0  0  0  0  0  0  0  0  0  0  0
  149.9352  142.2596  154.6565 H   0  0  0  0  0  0  0  0  0  0  0  0
  148.9021  141.8575  156.0042 H   0  0  0  0  0  0  0  0  0  0  0  0
  151.4316  141.2028  156.4793 H   0  0  0  0  0  0  0  0  0  0  0  0
  152.7536  139.1656  156.9665 H   0  0  0  0  0  0  0  0  0  0  0  0
  149.6628  136.6753  153.3408 H   0  0  0  0  0  0  0  0  0  0  0  0
  149.0703  134.8355  153.1139 H   0  0  0  0  0  0  0  0  0  0  0  0
  148.3368  132.9938  155.1564 H   0  0  0  0  0  0  0  0  0  0  0  0
  151.1366  132.6669  154.0149 H   0  0  0  0  0  0  0  0  0  0  0  0
  150.7233  132.9802  155.6822 H   0  0  0  0  0  0  0  0  0  0  0  0
  149.5494  130.8141  155.8381 H   0  0  0  0  0  0  0  0  0  0  0  0
  152.3708  130.5039  154.7050 H   0  0  0  0  0  0  0  0  0  0  0  0
  151.5145  129.3049  155.6709 H   0  0  0  0  0  0  0  0  0  0  0  0
  151.9653  130.8481  156.3845 H   0  0  0  0  0  0  0  0  0  0  0  0
  150.4405  130.3611  152.9560 H   0  0  0  0  0  0  0  0  0  0  0  0
  149.6109  129.1997  153.9634 H   0  0  0  0  0  0  0  0  0  0  0  0
  148.0326  130.3310  152.4517 H   0  0  0  0  0  0  0  0  0  0  0  0
  147.6378  130.6502  154.1219 H   0  0  0  0  0  0  0  0  0  0  0  0
  149.1908  132.5152  152.2815 H   0  0  0  0  0  0  0  0  0  0  0  0
  147.3498  133.9475  152.1026 H   0  0  0  0  0  0  0  0  0  0  0  0
  145.7315  132.3247  154.1177 H   0  0  0  0  0  0  0  0  0  0  0  0
  145.1994  133.7476  153.2395 H   0  0  0  0  0  0  0  0  0  0  0  0
  146.4676  133.8924  154.4391 H   0  0  0  0  0  0  0  0  0  0  0  0
  146.1531  131.1798  151.7648 H   0  0  0  0  0  0  0  0  0  0  0  0
  147.2347  131.9733  150.6198 H   0  0  0  0  0  0  0  0  0  0  0  0
  145.6586  132.6651  150.9705 H   0  0  0  0  0  0  0  0  0  0  0  0
  148.7433  139.1572  154.0821 H   0  0  0  0  0  0  0  0  0  0  0  0
  1  2  1  0  0  0  0
  1 24  1  0  0  0  0
  1 25  1  0  0  0  0
  1 26  1  0  0  0  0
  2  3  1  0  0  0  0
  2 27  1  0  0  0  0
  2 28  1  0  0  0  0
  3 23  1  0  0  0  0
  3  4  1  0  0  0  0
  4  5  2  0  0  0  0
  4 29  1  0  0  0  0
  5  6  1  0  0  0  0
  5 30  1  0  0  0  0
  6  7  2  0  0  0  0
  6  8  1  0  0  0  0
  8  9  1  0  0  0  0
  8 23  2  0  0  0  0
  9 10  1  0  0  0  0
  9 31  1  0  0  0  0
 10 11  2  0  0  0  0
 10 12  1  0  0  0  0
 12 13  1  0  0  0  0
 12 32  1  0  0  0  0
 13 19  1  0  0  0  0
 13 14  1  0  0  0  0
 13 33  1  0  0  0  0
 14 15  1  0  0  0  0
 14 34  1  0  0  0  0
 14 35  1  0  0  0  0
 15 16  1  0  0  0  0
 15 17  1  0  0  0  0
 15 36  1  0  0  0  0
 16 37  1  0  0  0  0
 16 38  1  0  0  0  0
 16 39  1  0  0  0  0
 17 18  1  0  0  0  0
 17 40  1  0  0  0  0
 17 41  1  0  0  0  0
 18 19  1  0  0  0  0
 18 42  1  0  0  0  0
 18 43  1  0  0  0  0
 19 20  1  0  0  0  0
 19 44  1  0  0  0  0
 20 21  1  0  0  0  0
 20 22  1  0  0  0  0
 20 45  1  0  0  0  0
 21 46  1  0  0  0  0
 21 47  1  0  0  0  0
 21 48  1  0  0  0  0
 22 49  1  0  0  0  0
 22 50  1  0  0  0  0
 22 51  1  0  0  0  0
 23 52  1  0  0  0  0
M  END
> <s_m_source_file>
AV-unprocessed.smi

> <i_m_source_file_index>
3030

> <i_lp_mmshare_version>
43012

> <i_f3d_flags>
0

> <s_epik_input>
W0NIM11bQ0gyXW4xW2NIXVtjSF1jKD1PKWMoW2NIXTEpW05IXUMoPU8pW05IXVtDQEBIXTJbQ0gyXVtDQEBIXShbQ0gzXSlbQ0gyXVtDSDJdW0NASF0yW0NIXShbQ0gzXSlbQ0gzXQ==

> <s_epik_cmdline>
J2VwaWtfcHl0aG9uJywgJy1waCcsICc3LjAnLCAnLXRuJywgJzgnLCAnLW1hJywgJzIwMCcsICctbWV0YWxfYmluZGluZycsICctaW1hZScsICc8aW5maWxlLm1hZT4nLCAnLW9tYWUnLCAnPG91dGZpbGUubWFlPic=

> <r_lp_tautomer_probability>
1

> <r_epik_Ionization_Penalty>
0.00147933

> <r_epik_Ionization_Penalty_Charging>
0.00145753

> <r_epik_Ionization_Penalty_Neutral>
2.17987e-05

> <r_epik_State_Penalty>
0.00097457

> <r_epik_Charging_Adjusted_Penalty>
0.0024321

> <i_epik_Tot_Q>
0

> <i_epik_Tot_abs_Q>
0

> <r_epik_Metal_State_Penalty>
-0

> <b_epik_Metal_Only>
0

> <s_lp_Force_Field>
OPLS_2005

> <r_lp_Energy>
10.2365

> <b_lp_Chiralities_Consistent>
1

> <s_lp_Variant>
AV-unprocessed.smi:3030-3

> <Gold.Version>
5.8.1

> <Gold.Id.Protein>
6NUR|6NUR_protein|mol2

> <Gold.PLP.Fitness>
50.4884

> <Gold.PLP.PLP>
-43.2714

> <Gold.PLP.part.hbond>
-3.5597

> <Gold.PLP.part.metal>
0.0000

> <Gold.PLP.part.buried>
-2.7289

> <Gold.PLP.part.nonpolar>
-36.9894

> <Gold.PLP.part.repulsive>
0.1161

> <Gold.PLP.ligand.clash>
0.0000

> <Gold.PLP.ligand.torsion>
0.5991

> <Gold.PLP.Chemscore.Hbond>
2.7760

> <Gold.PLP.Chemscore.CHOScore>
0.0000

> <Gold.PLP.Chemscore.Metal>
0.0000

> <Gold.Chemscore.Hbonds>
donor molecule, donor type, donor heavy atom, donor atom, acceptor molecule, acceptor atom, score
      L1  H     9    31       P1  7948  1.00
      L1  H    12    32       P1  7948  0.70
      P1  H 10752 10764       L1     7  0.80

> <Gold.PLP.Chemscore.Internal.Correction>
0.0872

> <Gold.Rescore>
     Score         DG    S(hbond)    S(metal)    S(lipo)     H(rot)  DE(clash)    DE(int)     intcor
     17.72     -20.70       2.68        0.00      81.39       1.27       0.05       2.93       ----

> <Gold.Chemscore.Fitness>
17.7212

> <Gold.Chemscore.DG>
-20.6961

> <Gold.Chemscore.ZeroCoef>
-5.4800

> <Gold.Chemscore.Hbond>
2.6769

> <Gold.Chemscore.Metal>
0.0000

> <Gold.Chemscore.Lipo>
81.3914

> <Gold.Chemscore.Internal_Hbond>
0.0000

> <Gold.Chemscore.DEClash>
0.0463

> <Gold.Chemscore.DEInternal>
2.9286

> <Gold.Chemscore.Rot>
1.2685

> <Gold.Chemscore.Internal.Correction>
   9.000000E+99

> <Gold.Chemscore.Hbonds>
donor molecule, donor type, donor heavy atom, donor atom, acceptor molecule, acceptor atom, score
      L1  H     9    31       P1  7948  0.50
      L1  H    12    32       P1  7948  0.07
      P1  H 10752 10764       L1     7  0.76

> <Gold.Chemscore.Hbond.Weighted>
-8.9408

> <Gold.Chemscore.Metal.Weighted>
-0.0000

> <Gold.Chemscore.Lipo.Weighted>
-9.5228

> <Gold.Chemscore.Internal_Hbond.Weighted>
0.0000

> <Gold.Chemscore.DEClash.Weighted>
0.0463

> <Gold.Chemscore.DEInternal.Weighted>
2.9286

> <Gold.Chemscore.Rot.Weighted>
3.2474

> <Gold.Chemscore.Internal.Correction.Weighted>
   9.000000E+99

> <Gold.Protein.RotatedTorsions>
[ 6907 6896 6895 6894 ] final  172.46 input  -60.11 | X-H torsion
[ 7974 7965 7964 7962 ] final    5.92 input  175.53 | X-H torsion
[ 8008 7997 7996 7995 ] final   69.40 input   59.86 | X-H torsion
[ 10167 10162 10161 10158 ] final  152.38 input  -65.29 | X-H torsion
[ 10718 10713 10712 10709 ] final  135.80 input   66.30 | X-H torsion
[ 10763 10752 10751 10750 ] final  -60.45 input  -60.55 | X-H torsion
[ 11005 11000 10999 10996 ] final  176.42 input  -57.11 | X-H torsion

> <Gold.Protein.ActiveResidues>
 VAL166  LYS551  ARG553  GLY616  TRP617  ASP618  TYR619  PRO620  LYS621  CYS622 
 ASP623  PHE694  ASN695  SER759  ASP760  ASP761  ALA762  ILE779  LEU786  VAL792 
 PHE793  MET794  SER795  GLU796  ALA797  LYS798  CYS799  TRP800  GLU811  SER814 

> <Gold.Protein.RotatedAtoms>
  151.7839  133.3352  159.3479 H   0  0  0  0  0  0  0  0  0  0  0  0  # atno 6907 bound_to 6896
  150.7416  134.5905  159.5994 H   0  0  0  0  0  0  0  0  0  0  0  0  # atno 6908 bound_to 6896
  152.3257  134.7325  160.0354 H   0  0  0  0  0  0  0  0  0  0  0  0  # atno 6909 bound_to 6896
  146.2438  140.0311  142.8389 H   0  0  0  0  0  0  0  0  0  0  0  0  # atno 7974 bound_to 7965
  155.7230  140.3493  155.5024 H   0  0  0  0  0  0  0  0  0  0  0  0  # atno 8008 bound_to 7997
  155.9253  140.1074  157.1197 H   0  0  0  0  0  0  0  0  0  0  0  0  # atno 8009 bound_to 7997
  154.4076  140.1242  156.4718 H   0  0  0  0  0  0  0  0  0  0  0  0  # atno 8010 bound_to 7997
  139.4833  144.5362  151.7640 H   0  0  0  0  0  0  0  0  0  0  0  0  # atno 10167 bound_to 10162
  157.4533  131.1068  151.0007 H   0  0  0  0  0  0  0  0  0  0  0  0  # atno 10718 bound_to 10713
  154.2693  135.6293  153.5304 H   0  0  0  0  0  0  0  0  0  0  0  0  # atno 10763 bound_to 10752
  152.9882  135.5606  154.5617 H   0  0  0  0  0  0  0  0  0  0  0  0  # atno 10764 bound_to 10752
  154.5184  135.2881  155.1259 H   0  0  0  0  0  0  0  0  0  0  0  0  # atno 10765 bound_to 10752
  140.3730  134.7013  157.4404 H   0  0  0  0  0  0  0  0  0  0  0  0  # atno 11005 bound_to 11000
  145.1154  140.9430  143.4632 LP  0  0  0  0  0  0  0  0  0  0  0  0  # atno 17320 bound_to 7965
  145.0534  139.3163  143.5917 LP  0  0  0  0  0  0  0  0  0  0  0  0  # atno 17321 bound_to 7965
  140.4895  144.1331  150.5947 LP  0  0  0  0  0  0  0  0  0  0  0  0  # atno 17342 bound_to 10162
  140.4187  143.2622  151.9743 LP  0  0  0  0  0  0  0  0  0  0  0  0  # atno 17343 bound_to 10162
  157.0830  130.5910  149.5424 LP  0  0  0  0  0  0  0  0  0  0  0  0  # atno 17370 bound_to 10713
  155.9996  130.5073  150.7614 LP  0  0  0  0  0  0  0  0  0  0  0  0  # atno 17371 bound_to 10713
  140.0537  134.6094  155.8831 LP  0  0  0  0  0  0  0  0  0  0  0  0  # atno 17394 bound_to 11000
  141.1948  133.6584  156.5614 LP  0  0  0  0  0  0  0  0  0  0  0  0  # atno 17395 bound_to 11000

$$$$
