AV-unprocessed.smi:2989|AV-procd|sdf|11392|dock2
  -GOLD-   2272016313D 1   1.00000     0.00000
 Structure written by MMmdl.
 31 33  0  0  0  0  0  0  0  0  1 V2000
  151.7648  140.0907  155.0236 O   0  0  0  0  0  0  0  0  0  0  0  0
  150.5741  140.4838  155.6795 C   0  0  1  0  0  0  0  0  0  0  0  0
  150.7281  141.9144  156.2326 C   0  0  0  0  0  0  0  0  0  0  0  0
  151.2356  141.9375  157.5933 N   0  0  0  0  0  0  0  0  0  0  0  0
  151.6016  140.7676  158.1895 N   0  0  0  0  0  0  0  0  0  0  0  0
  152.0230  141.0267  159.3913 N   0  0  0  0  0  0  0  0  0  0  0  0
  151.9343  142.3945  159.5911 C   0  0  0  0  0  0  0  0  0  0  0  0
  152.2565  143.2077  160.7013 C   0  0  0  0  0  0  0  0  0  0  0  0
  152.0662  144.6049  160.6359 C   0  0  0  0  0  0  0  0  0  0  0  0
  151.5539  145.2048  159.4651 C   0  0  0  0  0  0  0  0  0  0  0  0
  151.2273  144.4092  158.3496 C   0  0  0  0  0  0  0  0  0  0  0  0
  151.4219  143.0193  158.4322 C   0  0  0  0  0  0  0  0  0  0  0  0
  149.3574  140.3693  154.7743 C   0  0  0  0  0  0  0  0  0  0  0  0
  148.9446  139.1040  154.3044 C   0  0  0  0  0  0  0  0  0  0  0  0
  147.8143  138.9897  153.4717 C   0  0  0  0  0  0  0  0  0  0  0  0
  147.0891  140.1398  153.1054 C   0  0  0  0  0  0  0  0  0  0  0  0
  147.4941  141.4045  153.5735 C   0  0  0  0  0  0  0  0  0  0  0  0
  148.6240  141.5192  154.4064 C   0  0  0  0  0  0  0  0  0  0  0  0
  152.5009  140.3907  155.5348 H   0  0  0  0  0  0  0  0  0  0  0  0
  150.4406  139.7974  156.5167 H   0  0  0  0  0  0  0  0  0  0  0  0
  151.4004  142.4979  155.6022 H   0  0  0  0  0  0  0  0  0  0  0  0
  149.7658  142.4289  156.2173 H   0  0  0  0  0  0  0  0  0  0  0  0
  152.6499  142.7590  161.6014 H   0  0  0  0  0  0  0  0  0  0  0  0
  152.3161  145.2196  161.4880 H   0  0  0  0  0  0  0  0  0  0  0  0
  151.4131  146.2748  159.4240 H   0  0  0  0  0  0  0  0  0  0  0  0
  150.8378  144.8583  157.4480 H   0  0  0  0  0  0  0  0  0  0  0  0
  149.4924  138.2152  154.5813 H   0  0  0  0  0  0  0  0  0  0  0  0
  147.5033  138.0191  153.1144 H   0  0  0  0  0  0  0  0  0  0  0  0
  146.2221  140.0518  152.4674 H   0  0  0  0  0  0  0  0  0  0  0  0
  146.9375  142.2870  153.2944 H   0  0  0  0  0  0  0  0  0  0  0  0
  148.9248  142.4933  154.7640 H   0  0  0  0  0  0  0  0  0  0  0  0
  1  2  1  0  0  0  0
  1 19  1  0  0  0  0
  2  3  1  0  0  0  0
  2 13  1  0  0  0  0
  2 20  1  0  0  0  0
  3  4  1  0  0  0  0
  3 21  1  0  0  0  0
  3 22  1  0  0  0  0
  4 12  1  0  0  0  0
  4  5  1  0  0  0  0
  5  6  2  0  0  0  0
  6  7  1  0  0  0  0
  7 12  2  0  0  0  0
  7  8  1  0  0  0  0
  8  9  2  0  0  0  0
  8 23  1  0  0  0  0
  9 10  1  0  0  0  0
  9 24  1  0  0  0  0
 10 11  2  0  0  0  0
 10 25  1  0  0  0  0
 11 12  1  0  0  0  0
 11 26  1  0  0  0  0
 13 18  1  0  0  0  0
 13 14  2  0  0  0  0
 14 15  1  0  0  0  0
 14 27  1  0  0  0  0
 15 16  2  0  0  0  0
 15 28  1  0  0  0  0
 16 17  1  0  0  0  0
 16 29  1  0  0  0  0
 17 18  2  0  0  0  0
 17 30  1  0  0  0  0
 18 31  1  0  0  0  0
M  END
> <s_m_source_file>
AV-unprocessed.smi

> <i_m_source_file_index>
2989

> <i_lp_mmshare_version>
43012

> <i_f3d_flags>
0

> <s_epik_input>
W2NIXTFbY0hdW2NIXVtjSF1bY0hdYzFbQ0BIXShbT0hdKVtDSDJdbihubjIpYyhjMjMpW2NIXVtjSF1bY0hdW2NIXTM=

> <s_epik_cmdline>
J2VwaWtfcHl0aG9uJywgJy1waCcsICc3LjAnLCAnLXRuJywgJzgnLCAnLW1hJywgJzIwMCcsICctbWV0YWxfYmluZGluZycsICctaW1hZScsICc8aW5maWxlLm1hZT4nLCAnLW9tYWUnLCAnPG91dGZpbGUubWFlPic=

> <r_lp_tautomer_probability>
1

> <r_epik_Ionization_Penalty>
4.09993e-05

> <r_epik_Ionization_Penalty_Charging>
0

> <r_epik_Ionization_Penalty_Neutral>
4.09993e-05

> <r_epik_State_Penalty>
-0

> <r_epik_Charging_Adjusted_Penalty>
0

> <i_epik_Tot_Q>
0

> <i_epik_Tot_abs_Q>
0

> <r_epik_Metal_State_Penalty>
-0

> <b_epik_Metal_Only>
0

> <s_lp_Force_Field>
OPLS_2005

> <r_lp_Energy>
11.6495

> <b_lp_Chiralities_Consistent>
1

> <s_lp_Variant>
AV-unprocessed.smi:2989-2

> <Gold.Version>
5.8.1

> <Gold.Id.Protein>
6NUR|6NUR_protein|mol2

> <Gold.PLP.Fitness>
47.1519

> <Gold.PLP.PLP>
-45.3664

> <Gold.PLP.part.hbond>
-1.0000

> <Gold.PLP.part.metal>
0.0000

> <Gold.PLP.part.buried>
-5.2702

> <Gold.PLP.part.nonpolar>
-38.7270

> <Gold.PLP.part.repulsive>
0.0000

> <Gold.PLP.ligand.clash>
0.0000

> <Gold.PLP.ligand.torsion>
0.5333

> <Gold.PLP.Chemscore.Hbond>
0.9440

> <Gold.PLP.Chemscore.CHOScore>
0.0000

> <Gold.PLP.Chemscore.Metal>
0.0000

> <Gold.Chemscore.Hbonds>
donor molecule, donor type, donor heavy atom, donor atom, acceptor molecule, acceptor atom, score
      P1  H  7989  7998       L1     1  0.94

> <Gold.PLP.Chemscore.Internal.Correction>
0.0201

> <Gold.Rescore>
     Score         DG    S(hbond)    S(metal)    S(lipo)     H(rot)  DE(clash)    DE(int)     intcor
     16.64     -17.17       0.51        0.00     123.89       1.76       0.01       0.52       ----

> <Gold.Chemscore.Fitness>
16.6385

> <Gold.Chemscore.DG>
-17.1691

> <Gold.Chemscore.ZeroCoef>
-5.4800

> <Gold.Chemscore.Hbond>
0.5059

> <Gold.Chemscore.Metal>
0.0000

> <Gold.Chemscore.Lipo>
123.8899

> <Gold.Chemscore.Internal_Hbond>
0.0000

> <Gold.Chemscore.DEClash>
0.0137

> <Gold.Chemscore.DEInternal>
0.5169

> <Gold.Chemscore.Rot>
1.7561

> <Gold.Chemscore.Internal.Correction>
   9.000000E+99

> <Gold.Chemscore.Hbonds>
donor molecule, donor type, donor heavy atom, donor atom, acceptor molecule, acceptor atom, score
      P1  H  7989  7998       L1     1  0.33

> <Gold.Chemscore.Hbond.Weighted>
-1.6895

> <Gold.Chemscore.Metal.Weighted>
-0.0000

> <Gold.Chemscore.Lipo.Weighted>
-14.4951

> <Gold.Chemscore.Internal_Hbond.Weighted>
0.0000

> <Gold.Chemscore.DEClash.Weighted>
0.0137

> <Gold.Chemscore.DEInternal.Weighted>
0.5169

> <Gold.Chemscore.Rot.Weighted>
4.4955

> <Gold.Chemscore.Internal.Correction.Weighted>
   9.000000E+99

> <Gold.Protein.RotatedTorsions>
[ 6907 6896 6895 6894 ] final   22.58 input  -60.11 | X-H torsion
[ 7974 7965 7964 7962 ] final -127.71 input  175.53 | X-H torsion
[ 8008 7997 7996 7995 ] final  -69.19 input   59.86 | X-H torsion
[ 10167 10162 10161 10158 ] final  -49.93 input  -65.29 | X-H torsion
[ 10718 10713 10712 10709 ] final    2.73 input   66.30 | X-H torsion
[ 10763 10752 10751 10750 ] final   26.87 input  -60.55 | X-H torsion
[ 11005 11000 10999 10996 ] final   13.13 input  -57.11 | X-H torsion

> <Gold.Protein.ActiveResidues>
 VAL166  LYS551  ARG553  GLY616  TRP617  ASP618  TYR619  PRO620  LYS621  CYS622 
 ASP623  PHE694  ASN695  SER759  ASP760  ASP761  ALA762  ILE779  LEU786  VAL792 
 PHE793  MET794  SER795  GLU796  ALA797  LYS798  CYS799  TRP800  GLU811  SER814 

> <Gold.Protein.RotatedAtoms>
  151.9293  135.0263  160.0527 H   0  0  0  0  0  0  0  0  0  0  0  0  # atno 6907 bound_to 6896
  152.2132  133.4922  159.5130 H   0  0  0  0  0  0  0  0  0  0  0  0  # atno 6908 bound_to 6896
  150.6981  134.1357  159.4129 H   0  0  0  0  0  0  0  0  0  0  0  0  # atno 6909 bound_to 6896
  144.9743  140.7577  143.4651 H   0  0  0  0  0  0  0  0  0  0  0  0  # atno 7974 bound_to 7965
  154.4921  140.0858  156.7617 H   0  0  0  0  0  0  0  0  0  0  0  0  # atno 8008 bound_to 7997
  155.4206  140.3445  155.4253 H   0  0  0  0  0  0  0  0  0  0  0  0  # atno 8009 bound_to 7997
  156.1344  140.1510  156.9005 H   0  0  0  0  0  0  0  0  0  0  0  0  # atno 8010 bound_to 7997
  140.6662  143.2678  151.4286 H   0  0  0  0  0  0  0  0  0  0  0  0  # atno 10167 bound_to 10162
  156.8674  130.5608  149.5659 H   0  0  0  0  0  0  0  0  0  0  0  0  # atno 10718 bound_to 10713
  153.0594  135.6550  154.0500 H   0  0  0  0  0  0  0  0  0  0  0  0  # atno 10763 bound_to 10752
  154.0171  135.2923  155.3387 H   0  0  0  0  0  0  0  0  0  0  0  0  # atno 10764 bound_to 10752
  154.6924  135.5277  153.8479 H   0  0  0  0  0  0  0  0  0  0  0  0  # atno 10765 bound_to 10752
  140.4841  134.0905  155.7757 H   0  0  0  0  0  0  0  0  0  0  0  0  # atno 11005 bound_to 11000
  145.2513  139.2030  143.4941 LP  0  0  0  0  0  0  0  0  0  0  0  0  # atno 17320 bound_to 7965
  146.3391  140.2426  142.8596 LP  0  0  0  0  0  0  0  0  0  0  0  0  # atno 17321 bound_to 7965
  139.5911  144.1496  152.2089 LP  0  0  0  0  0  0  0  0  0  0  0  0  # atno 17342 bound_to 10162
  140.0851  144.5668  150.7094 LP  0  0  0  0  0  0  0  0  0  0  0  0  # atno 17343 bound_to 10162
  156.0744  130.5770  150.9446 LP  0  0  0  0  0  0  0  0  0  0  0  0  # atno 17370 bound_to 10713
  157.6215  131.0929  150.8613 LP  0  0  0  0  0  0  0  0  0  0  0  0  # atno 17371 bound_to 10713
  141.1516  133.8958  157.2082 LP  0  0  0  0  0  0  0  0  0  0  0  0  # atno 17394 bound_to 11000
  139.9808  135.0099  156.9745 LP  0  0  0  0  0  0  0  0  0  0  0  0  # atno 17395 bound_to 11000

$$$$
