AV-unprocessed.smi:699|AV-procd|sdf|3400|dock6
  -GOLD-   22720 0383D 1   1.00000     0.00000
 Structure written by MMmdl.
 34 35  0  0  0  0  0  0  0  0  1 V2000
  149.4035  138.4481  153.6766 N   0  0  0  0  0  0  0  0  0  0  0  0
  148.4726  138.1029  154.5694 C   0  0  0  0  0  0  0  0  0  0  0  0
  148.7044  137.2998  155.4716 O   0  0  0  0  0  0  0  0  0  0  0  0
  147.0858  138.7668  154.4255 C   0  0  1  0  0  0  0  0  0  0  0  0
  147.1976  140.2969  154.4995 C   0  0  0  0  0  0  0  0  0  0  0  0
  147.4500  140.7708  153.0647 C   0  0  0  0  0  0  0  0  0  0  0  0
  146.8375  139.7019  152.1497 C   0  0  0  0  0  0  0  0  0  0  0  0
  146.3888  138.5420  153.0579 C   0  0  1  0  0  0  0  0  0  0  0  0
  146.6612  137.2447  152.4363 N   0  0  0  0  0  0  0  0  0  0  0  0
  145.7296  136.4271  151.9249 C   0  0  0  0  0  0  0  0  0  0  0  0
  144.5279  136.6931  151.9206 O   0  0  0  0  0  0  0  0  0  0  0  0
  146.2875  135.3097  151.4272 N   0  0  0  0  0  0  0  0  0  0  0  0
  145.6651  134.1979  150.7952 C   0  0  0  0  0  0  0  0  0  0  0  0
  146.4793  133.0912  150.4768 C   0  0  0  0  0  0  0  0  0  0  0  0
  145.8921  131.9687  149.8597 C   0  0  0  0  0  0  0  0  0  0  0  0
  144.5790  131.8902  149.5592 N   0  0  0  0  0  0  0  0  0  0  0  0
  143.7980  132.9448  149.8747 C   0  0  0  0  0  0  0  0  0  0  0  0
  144.2840  134.1143  150.4931 C   0  0  0  0  0  0  0  0  0  0  0  0
  150.3258  138.0412  153.7323 H   0  0  0  0  0  0  0  0  0  0  0  0
  149.1840  139.1150  152.9509 H   0  0  0  0  0  0  0  0  0  0  0  0
  146.4457  138.4011  155.2304 H   0  0  0  0  0  0  0  0  0  0  0  0
  146.2525  140.7076  154.8575 H   0  0  0  0  0  0  0  0  0  0  0  0
  147.9734  140.6413  155.1851 H   0  0  0  0  0  0  0  0  0  0  0  0
  147.0245  141.7584  152.8849 H   0  0  0  0  0  0  0  0  0  0  0  0
  148.5223  140.8423  152.8795 H   0  0  0  0  0  0  0  0  0  0  0  0
  145.9922  140.0984  151.5866 H   0  0  0  0  0  0  0  0  0  0  0  0
  147.5829  139.3768  151.4225 H   0  0  0  0  0  0  0  0  0  0  0  0
  145.3117  138.6386  153.2090 H   0  0  0  0  0  0  0  0  0  0  0  0
  147.6262  136.9499  152.4041 H   0  0  0  0  0  0  0  0  0  0  0  0
  147.2954  135.2700  151.4649 H   0  0  0  0  0  0  0  0  0  0  0  0
  147.5372  133.0987  150.6958 H   0  0  0  0  0  0  0  0  0  0  0  0
  146.4941  131.1099  149.6020 H   0  0  0  0  0  0  0  0  0  0  0  0
  142.7499  132.8521  149.6319 H   0  0  0  0  0  0  0  0  0  0  0  0
  143.5893  134.9056  150.7266 H   0  0  0  0  0  0  0  0  0  0  0  0
  1  2  1  0  0  0  0
  1 19  1  0  0  0  0
  1 20  1  0  0  0  0
  2  3  2  0  0  0  0
  2  4  1  0  0  0  0
  4  8  1  0  0  0  0
  4  5  1  0  0  0  0
  4 21  1  0  0  0  0
  5  6  1  0  0  0  0
  5 22  1  0  0  0  0
  5 23  1  0  0  0  0
  6  7  1  0  0  0  0
  6 24  1  0  0  0  0
  6 25  1  0  0  0  0
  7  8  1  0  0  0  0
  7 26  1  0  0  0  0
  7 27  1  0  0  0  0
  8  9  1  0  0  0  0
  8 28  1  0  0  0  0
  9 10  1  0  0  0  0
  9 29  1  0  0  0  0
 10 11  2  0  0  0  0
 10 12  1  0  0  0  0
 12 13  1  0  0  0  0
 12 30  1  0  0  0  0
 13 18  1  0  0  0  0
 13 14  2  0  0  0  0
 14 15  1  0  0  0  0
 14 31  1  0  0  0  0
 15 16  2  0  0  0  0
 15 32  1  0  0  0  0
 16 17  1  0  0  0  0
 17 18  2  0  0  0  0
 17 33  1  0  0  0  0
 18 34  1  0  0  0  0
M  END
> <s_m_source_file>
AV-unprocessed.smi

> <i_m_source_file_index>
699

> <i_lp_mmshare_version>
43012

> <i_f3d_flags>
0

> <s_epik_input>
W05IMl1DKD1PKVtDQEBIXTFbQ0gyXVtDSDJdW0NIMl1bQ0BIXTFbTkhdQyg9TylbTkhdYzJbY0hdW2NIXW5bY0hdW2NIXTI=

> <s_epik_cmdline>
J2VwaWtfcHl0aG9uJywgJy1waCcsICc3LjAnLCAnLXRuJywgJzgnLCAnLW1hJywgJzIwMCcsICctbWV0YWxfYmluZGluZycsICctaW1hZScsICc8aW5maWxlLm1hZT4nLCAnLW9tYWUnLCAnPG91dGZpbGUubWFlPic=

> <r_epik_Ionization_Penalty>
0.113907

> <r_epik_Ionization_Penalty_Charging>
0

> <r_epik_Ionization_Penalty_Neutral>
0.113907

> <r_epik_State_Penalty>
0.103543

> <r_epik_Charging_Adjusted_Penalty>
0.103543

> <i_epik_Tot_Q>
0

> <i_epik_Tot_abs_Q>
0

> <r_epik_Metal_State_Penalty>
0.0867106

> <b_epik_Metal_Only>
0

> <s_lp_Force_Field>
OPLS_2005

> <r_lp_Energy>
19.4222

> <b_lp_Chiralities_Consistent>
1

> <s_lp_Variant>
AV-unprocessed.smi:699-2

> <Gold.Version>
5.8.1

> <Gold.Id.Protein>
6NUR|6NUR_protein|mol2

> <Gold.PLP.Fitness>
42.6896

> <Gold.PLP.PLP>
-28.5327

> <Gold.PLP.part.hbond>
-4.8134

> <Gold.PLP.part.metal>
0.0000

> <Gold.PLP.part.buried>
-0.7561

> <Gold.PLP.part.nonpolar>
-23.9042

> <Gold.PLP.part.repulsive>
0.6229

> <Gold.PLP.ligand.clash>
0.0000

> <Gold.PLP.ligand.torsion>
0.1469

> <Gold.PLP.Chemscore.Hbond>
2.9462

> <Gold.PLP.Chemscore.CHOScore>
1.8648

> <Gold.PLP.Chemscore.Metal>
0.0000

> <Gold.Chemscore.Hbonds>
donor molecule, donor type, donor heavy atom, donor atom, acceptor molecule, acceptor atom, score
      L1  H     1    20       P1  7957  0.94
      L1  H     9    29       P1  7948  1.00
      L1  H    12    30       P1  7948  0.96
      P1  H 10785 10796       L1    16  0.09
      L1  C    15    32       P1 10747  0.82
      L1  C    17    33       P1 10186  1.00

> <Gold.PLP.Chemscore.Internal.Correction>
0.0176

> <Gold.Rescore>
     Score         DG    S(hbond)    S(metal)    S(lipo)     H(rot)  DE(clash)    DE(int)     intcor
     17.30     -19.15       2.75        0.00      70.89       1.49       0.45       1.40       ----

> <Gold.Chemscore.Fitness>
17.3015

> <Gold.Chemscore.DG>
-19.1531

> <Gold.Chemscore.ZeroCoef>
-5.4800

> <Gold.Chemscore.Hbond>
2.7518

> <Gold.Chemscore.Metal>
0.0000

> <Gold.Chemscore.Lipo>
70.8932

> <Gold.Chemscore.Internal_Hbond>
0.0000

> <Gold.Chemscore.DEClash>
0.4542

> <Gold.Chemscore.DEInternal>
1.3975

> <Gold.Chemscore.Rot>
1.4892

> <Gold.Chemscore.Internal.Correction>
   9.000000E+99

> <Gold.Chemscore.Hbonds>
donor molecule, donor type, donor heavy atom, donor atom, acceptor molecule, acceptor atom, score
      L1  H     1    20       P1  7957  0.86
      L1  H     9    29       P1  7948  0.97
      L1  H    12    30       P1  7948  0.81
      P1  H 10785 10796       L1    16  0.07

> <Gold.Chemscore.Hbond.Weighted>
-9.1909

> <Gold.Chemscore.Metal.Weighted>
-0.0000

> <Gold.Chemscore.Lipo.Weighted>
-8.2945

> <Gold.Chemscore.Internal_Hbond.Weighted>
0.0000

> <Gold.Chemscore.DEClash.Weighted>
0.4542

> <Gold.Chemscore.DEInternal.Weighted>
1.3975

> <Gold.Chemscore.Rot.Weighted>
3.8123

> <Gold.Chemscore.Internal.Correction.Weighted>
   9.000000E+99

> <Gold.Protein.RotatedTorsions>
[ 6907 6896 6895 6894 ] final -170.76 input  -60.11 | X-H torsion
[ 7974 7965 7964 7962 ] final  124.98 input  175.53 | X-H torsion
[ 8008 7997 7996 7995 ] final  118.02 input   59.86 | X-H torsion
[ 10167 10162 10161 10158 ] final  -62.36 input  -65.29 | X-H torsion
[ 10718 10713 10712 10709 ] final  112.68 input   66.30 | X-H torsion
[ 10763 10752 10751 10750 ] final  163.80 input  -60.55 | X-H torsion
[ 11005 11000 10999 10996 ] final  157.75 input  -57.11 | X-H torsion

> <Gold.Protein.ActiveResidues>
 VAL166  LYS551  ARG553  GLY616  TRP617  ASP618  TYR619  PRO620  LYS621  CYS622 
 ASP623  PHE694  ASN695  SER759  ASP760  ASP761  ALA762  ILE779  LEU786  VAL792 
 PHE793  MET794  SER795  GLU796  ALA797  LYS798  CYS799  TRP800  GLU811  SER814 

> <Gold.Protein.RotatedAtoms>
  151.5129  133.3481  159.2887 H   0  0  0  0  0  0  0  0  0  0  0  0  # atno 6907 bound_to 6896
  150.8701  134.8075  159.7159 H   0  0  0  0  0  0  0  0  0  0  0  0  # atno 6908 bound_to 6896
  152.4692  134.5012  159.9777 H   0  0  0  0  0  0  0  0  0  0  0  0  # atno 6909 bound_to 6896
  145.0783  139.3677  143.4922 H   0  0  0  0  0  0  0  0  0  0  0  0  # atno 7974 bound_to 7965
  156.2525  140.2883  156.0770 H   0  0  0  0  0  0  0  0  0  0  0  0  # atno 8008 bound_to 7997
  155.1608  140.0399  157.2859 H   0  0  0  0  0  0  0  0  0  0  0  0  # atno 8009 bound_to 7997
  154.6394  140.2518  155.7346 H   0  0  0  0  0  0  0  0  0  0  0  0  # atno 8010 bound_to 7997
  140.5944  143.2348  151.6069 H   0  0  0  0  0  0  0  0  0  0  0  0  # atno 10167 bound_to 10162
  157.6379  131.0971  150.6931 H   0  0  0  0  0  0  0  0  0  0  0  0  # atno 10718 bound_to 10713
  154.2992  135.2759  155.2619 H   0  0  0  0  0  0  0  0  0  0  0  0  # atno 10763 bound_to 10752
  154.5063  135.5794  153.6574 H   0  0  0  0  0  0  0  0  0  0  0  0  # atno 10764 bound_to 10752
  152.9903  135.6170  154.3161 H   0  0  0  0  0  0  0  0  0  0  0  0  # atno 10765 bound_to 10752
  140.1799  134.8483  157.2791 H   0  0  0  0  0  0  0  0  0  0  0  0  # atno 11005 bound_to 11000
  146.3530  140.0560  142.8632 LP  0  0  0  0  0  0  0  0  0  0  0  0  # atno 17320 bound_to 7965
  145.1209  140.9462  143.4601 LP  0  0  0  0  0  0  0  0  0  0  0  0  # atno 17321 bound_to 7965
  139.5248  144.3092  152.1007 LP  0  0  0  0  0  0  0  0  0  0  0  0  # atno 17342 bound_to 10162
  140.2262  144.4415  150.6320 LP  0  0  0  0  0  0  0  0  0  0  0  0  # atno 17343 bound_to 10162
  156.7259  130.4695  149.5511 LP  0  0  0  0  0  0  0  0  0  0  0  0  # atno 17370 bound_to 10713
  156.1634  130.6389  151.0748 LP  0  0  0  0  0  0  0  0  0  0  0  0  # atno 17371 bound_to 10713
  140.2279  134.3945  155.7535 LP  0  0  0  0  0  0  0  0  0  0  0  0  # atno 17394 bound_to 11000
  141.2222  133.7199  156.8594 LP  0  0  0  0  0  0  0  0  0  0  0  0  # atno 17395 bound_to 11000

$$$$
