AV-unprocessed.smi:362|AV-procd|sdf|2421|dock9
  -GOLD-   2262022363D 1   1.00000     0.00000
 Structure written by MMmdl.
 36 38  0  0  0  0  0  0  0  0  1 V2000
  145.7433  138.0169  154.7893 O   0  0  0  0  0  0  0  0  0  0  0  0
  146.4831  137.6595  153.8718 C   0  0  0  0  0  0  0  0  0  0  0  0
  145.9928  136.6606  152.8141 C   0  0  0  0  0  0  0  0  0  0  0  0
  144.6266  136.1798  153.0675 N   0  0  0  0  0  0  0  0  0  0  0  0
  143.5326  136.9508  152.7007 C   0  0  0  0  0  0  0  0  0  0  0  0
  142.2497  136.5734  152.9133 C   0  0  0  0  0  0  0  0  0  0  0  0
  141.9518  135.2993  153.5586 C   0  0  0  0  0  0  0  0  0  0  0  0
  140.8247  134.8694  153.7932 O   0  0  0  0  0  0  0  0  0  0  0  0
  143.0786  134.5537  153.9147 N   0  0  0  0  0  0  0  0  0  0  0  0
  144.4032  134.9373  153.6997 C   0  0  0  0  0  0  0  0  0  0  0  0
  145.3249  134.2046  154.0571 O   0  0  0  0  0  0  0  0  0  0  0  0
  147.7350  138.1159  153.7135 N   0  0  0  0  0  0  0  0  0  0  0  0
  148.4133  139.0680  154.5865 C   0  0  0  0  0  0  0  0  0  0  0  0
  148.6725  140.4008  153.9034 C   0  0  0  0  0  0  0  0  0  0  0  0
  148.7647  141.6846  154.6944 C   0  0  0  0  0  0  0  0  0  0  0  0
  147.5885  141.4453  153.7759 C   0  0  0  0  0  0  0  0  0  0  0  0
  149.7077  138.4937  155.1330 C   0  0  0  0  0  0  0  0  0  0  0  0
  150.7957  138.0074  154.2057 C   0  0  0  0  0  0  0  0  0  0  0  0
  150.0177  137.0180  155.0440 C   0  0  0  0  0  0  0  0  0  0  0  0
  142.9218  133.6649  154.3673 H   0  0  0  0  0  0  0  0  0  0  0  0
  146.0488  137.1469  151.8392 H   0  0  0  0  0  0  0  0  0  0  0  0
  146.6812  135.8150  152.7538 H   0  0  0  0  0  0  0  0  0  0  0  0
  143.7055  137.9051  152.2236 H   0  0  0  0  0  0  0  0  0  0  0  0
  141.4394  137.2184  152.6055 H   0  0  0  0  0  0  0  0  0  0  0  0
  148.2643  137.7701  152.9262 H   0  0  0  0  0  0  0  0  0  0  0  0
  147.7681  139.2608  155.4463 H   0  0  0  0  0  0  0  0  0  0  0  0
  149.3540  140.3256  153.0578 H   0  0  0  0  0  0  0  0  0  0  0  0
  148.5749  141.6419  155.7649 H   0  0  0  0  0  0  0  0  0  0  0  0
  149.5089  142.4140  154.3815 H   0  0  0  0  0  0  0  0  0  0  0  0
  147.5476  142.0144  152.8496 H   0  0  0  0  0  0  0  0  0  0  0  0
  146.6260  141.2410  154.2406 H   0  0  0  0  0  0  0  0  0  0  0  0
  150.0511  138.9897  156.0392 H   0  0  0  0  0  0  0  0  0  0  0  0
  150.5958  138.0254  153.1360 H   0  0  0  0  0  0  0  0  0  0  0  0
  151.8259  138.2097  154.4912 H   0  0  0  0  0  0  0  0  0  0  0  0
  150.5297  136.5613  155.8885 H   0  0  0  0  0  0  0  0  0  0  0  0
  149.3085  136.3758  154.5259 H   0  0  0  0  0  0  0  0  0  0  0  0
  1  2  2  0  0  0  0
  2  3  1  0  0  0  0
  2 12  1  0  0  0  0
  3  4  1  0  0  0  0
  3 21  1  0  0  0  0
  3 22  1  0  0  0  0
  4 10  1  0  0  0  0
  4  5  1  0  0  0  0
  5  6  2  0  0  0  0
  5 23  1  0  0  0  0
  6  7  1  0  0  0  0
  6 24  1  0  0  0  0
  7  8  2  0  0  0  0
  7  9  1  0  0  0  0
  9 20  1  0  0  0  0
  9 10  1  0  0  0  0
 10 11  2  0  0  0  0
 12 13  1  0  0  0  0
 12 25  1  0  0  0  0
 13 14  1  0  0  0  0
 13 17  1  0  0  0  0
 13 26  1  0  0  0  0
 14 16  1  0  0  0  0
 14 15  1  0  0  0  0
 14 27  1  0  0  0  0
 15 16  1  0  0  0  0
 15 28  1  0  0  0  0
 15 29  1  0  0  0  0
 16 30  1  0  0  0  0
 16 31  1  0  0  0  0
 17 19  1  0  0  0  0
 17 18  1  0  0  0  0
 17 32  1  0  0  0  0
 18 19  1  0  0  0  0
 18 33  1  0  0  0  0
 18 34  1  0  0  0  0
 19 35  1  0  0  0  0
 19 36  1  0  0  0  0
M  END
> <s_m_source_file>
AV-unprocessed.smi

> <i_m_source_file_index>
362

> <i_lp_mmshare_version>
43012

> <i_f3d_flags>
0

> <s_epik_input>
W0NIMl0xW0NIMl1bQ0hdMVtDSF0oW0NIXTJbQ0gyXVtDSDJdMilbTkhdQyg9TylbQ0gyXW4zW2NIXVtjSF1jKD1PKVtuSF1jMz1P

> <s_epik_cmdline>
J2VwaWtfcHl0aG9uJywgJy1waCcsICc3LjAnLCAnLXRuJywgJzgnLCAnLW1hJywgJzIwMCcsICctbWV0YWxfYmluZGluZycsICctaW1hZScsICc8aW5maWxlLm1hZT4nLCAnLW9tYWUnLCAnPG91dGZpbGUubWFlPic=

> <r_lp_tautomer_probability>
0.999537

> <r_epik_Ionization_Penalty>
0.00315598

> <r_epik_Ionization_Penalty_Charging>
0.00315596

> <r_epik_Ionization_Penalty_Neutral>
2.04126e-08

> <r_epik_State_Penalty>
0.00222351

> <r_epik_Charging_Adjusted_Penalty>
0.00537947

> <i_epik_Tot_Q>
0

> <i_epik_Tot_abs_Q>
0

> <r_epik_Metal_State_Penalty>
0.363464

> <b_epik_Metal_Only>
0

> <s_lp_Force_Field>
OPLS_2005

> <r_lp_Energy>
23.1626

> <b_lp_Chiralities_Consistent>
1

> <s_lp_Variant>
AV-unprocessed.smi:362-1

> <Gold.Version>
5.8.1

> <Gold.Id.Protein>
6NUR|6NUR_protein|mol2

> <Gold.PLP.Fitness>
41.6042

> <Gold.PLP.PLP>
-27.4852

> <Gold.PLP.part.hbond>
-3.6999

> <Gold.PLP.part.metal>
0.0000

> <Gold.PLP.part.buried>
-2.5928

> <Gold.PLP.part.nonpolar>
-21.5789

> <Gold.PLP.part.repulsive>
0.3597

> <Gold.PLP.ligand.clash>
0.0000

> <Gold.PLP.ligand.torsion>
1.4846

> <Gold.PLP.Chemscore.Hbond>
2.9920

> <Gold.PLP.Chemscore.CHOScore>
1.9988

> <Gold.PLP.Chemscore.Metal>
0.0000

> <Gold.Chemscore.Hbonds>
donor molecule, donor type, donor heavy atom, donor atom, acceptor molecule, acceptor atom, score
      L1  H     9    20       P1 10957  1.00
      L1  H    12    25       P1  7948  1.00
      P1  H 11000 11005       L1     8  0.88
      L1  C     5    23       P1 10171  1.00
      L1  C     5    23       P1 10175  0.98

> <Gold.PLP.Chemscore.Internal.Correction>
2.1160

> <Gold.Rescore>
     Score         DG    S(hbond)    S(metal)    S(lipo)     H(rot)  DE(clash)    DE(int)     intcor
     14.58     -16.18       2.95        0.00      54.31       2.15       0.03       1.58       ----

> <Gold.Chemscore.Fitness>
14.5841

> <Gold.Chemscore.DG>
-16.1848

> <Gold.Chemscore.ZeroCoef>
-5.4800

> <Gold.Chemscore.Hbond>
2.9506

> <Gold.Chemscore.Metal>
0.0000

> <Gold.Chemscore.Lipo>
54.3074

> <Gold.Chemscore.Internal_Hbond>
0.0000

> <Gold.Chemscore.DEClash>
0.0255

> <Gold.Chemscore.DEInternal>
1.5752

> <Gold.Chemscore.Rot>
2.1500

> <Gold.Chemscore.Internal.Correction>
   9.000000E+99

> <Gold.Chemscore.Hbonds>
donor molecule, donor type, donor heavy atom, donor atom, acceptor molecule, acceptor atom, score
      L1  H     9    20       P1 10957  0.99
      L1  H    12    25       P1  7948  0.93
      P1  H 11000 11005       L1     8  0.84

> <Gold.Chemscore.Hbond.Weighted>
-9.8549

> <Gold.Chemscore.Metal.Weighted>
-0.0000

> <Gold.Chemscore.Lipo.Weighted>
-6.3540

> <Gold.Chemscore.Internal_Hbond.Weighted>
0.0000

> <Gold.Chemscore.DEClash.Weighted>
0.0255

> <Gold.Chemscore.DEInternal.Weighted>
1.5752

> <Gold.Chemscore.Rot.Weighted>
5.5040

> <Gold.Chemscore.Internal.Correction.Weighted>
   9.000000E+99

> <Gold.Protein.RotatedTorsions>
[ 6907 6896 6895 6894 ] final -147.16 input  -60.11 | X-H torsion
[ 7974 7965 7964 7962 ] final  -47.64 input  175.53 | X-H torsion
[ 8008 7997 7996 7995 ] final -178.87 input   59.86 | X-H torsion
[ 10167 10162 10161 10158 ] final -144.00 input  -65.29 | X-H torsion
[ 10718 10713 10712 10709 ] final  144.80 input   66.30 | X-H torsion
[ 10763 10752 10751 10750 ] final -129.56 input  -60.55 | X-H torsion
[ 11005 11000 10999 10996 ] final   35.76 input  -57.11 | X-H torsion

> <Gold.Protein.ActiveResidues>
 VAL166  LYS551  ARG553  GLY616  TRP617  ASP618  TYR619  PRO620  LYS621  CYS622 
 ASP623  PHE694  ASN695  SER759  ASP760  ASP761  ALA762  ILE779  LEU786  VAL792 
 PHE793  MET794  SER795  GLU796  ALA797  LYS798  CYS799  TRP800  GLU811  SER814 

> <Gold.Protein.RotatedAtoms>
  151.1518  133.4902  159.2594 H   0  0  0  0  0  0  0  0  0  0  0  0  # atno 6907 bound_to 6896
  151.1546  135.0243  159.8693 H   0  0  0  0  0  0  0  0  0  0  0  0  # atno 6908 bound_to 6896
  152.5463  134.1398  159.8527 H   0  0  0  0  0  0  0  0  0  0  0  0  # atno 6909 bound_to 6896
  145.9595  140.7493  142.9464 H   0  0  0  0  0  0  0  0  0  0  0  0  # atno 7974 bound_to 7965
  156.0239  140.1267  157.0329 H   0  0  0  0  0  0  0  0  0  0  0  0  # atno 8008 bound_to 7997
  154.4322  140.1063  156.6073 H   0  0  0  0  0  0  0  0  0  0  0  0  # atno 8009 bound_to 7997
  155.5905  140.3469  155.4567 H   0  0  0  0  0  0  0  0  0  0  0  0  # atno 8010 bound_to 7997
  139.7940  143.7926  152.2652 H   0  0  0  0  0  0  0  0  0  0  0  0  # atno 10167 bound_to 10162
  157.3529  131.0953  151.0984 H   0  0  0  0  0  0  0  0  0  0  0  0  # atno 10718 bound_to 10713
  154.8757  135.3891  154.3940 H   0  0  0  0  0  0  0  0  0  0  0  0  # atno 10763 bound_to 10752
  153.4672  135.7029  153.6020 H   0  0  0  0  0  0  0  0  0  0  0  0  # atno 10764 bound_to 10752
  153.4493  135.3837  155.2242 H   0  0  0  0  0  0  0  0  0  0  0  0  # atno 10765 bound_to 10752
  140.2394  134.3433  155.7931 H   0  0  0  0  0  0  0  0  0  0  0  0  # atno 11005 bound_to 11000
  144.6812  140.2567  143.7324 LP  0  0  0  0  0  0  0  0  0  0  0  0  # atno 17320 bound_to 7965
  145.8060  139.1983  143.2020 LP  0  0  0  0  0  0  0  0  0  0  0  0  # atno 17321 bound_to 7965
  139.8026  144.7368  150.9805 LP  0  0  0  0  0  0  0  0  0  0  0  0  # atno 17342 bound_to 10162
  140.7820  143.4330  151.0666 LP  0  0  0  0  0  0  0  0  0  0  0  0  # atno 17343 bound_to 10162
  157.2153  130.6456  149.5790 LP  0  0  0  0  0  0  0  0  0  0  0  0  # atno 17370 bound_to 10713
  155.9724  130.4647  150.6226 LP  0  0  0  0  0  0  0  0  0  0  0  0  # atno 17371 bound_to 10713
  141.2212  133.7290  156.8861 LP  0  0  0  0  0  0  0  0  0  0  0  0  # atno 17394 bound_to 11000
  140.1669  134.9127  157.2784 LP  0  0  0  0  0  0  0  0  0  0  0  0  # atno 17395 bound_to 11000

$$$$
