AV-unprocessed.smi:587|AV-procd|sdf|3002|dock4
  -GOLD-   2262023503D 1   1.00000     0.00000
 Structure written by MMmdl.
 46 48  0  0  0  0  0  0  0  0  1 V2000
  148.7575  140.2161  153.7020 C   0  0  0  0  0  0  0  0  0  0  0  0
  149.7782  140.2788  154.7272 N   0  0  0  0  0  0  0  0  0  0  0  0
  149.8936  141.3023  155.6654 C   0  0  0  0  0  0  0  0  0  0  0  0
  149.0055  142.3627  155.5936 N   0  0  0  0  0  0  0  0  0  0  0  0
  150.8726  141.2985  156.6121 C   0  0  0  0  0  0  0  0  0  0  0  0
  151.0244  142.3041  157.5679 N   0  0  0  0  0  0  0  0  0  0  0  0
  151.1206  143.7239  157.2314 C   0  0  0  0  0  0  0  0  0  0  0  0
  152.4289  144.3422  157.7596 C   0  0  0  0  0  0  0  0  0  0  0  0
  152.5977  144.0749  159.2633 C   0  0  0  0  0  0  0  0  0  0  0  0
  152.4678  142.5722  159.5551 C   0  0  0  0  0  0  0  0  0  0  0  0
  151.1444  142.0227  158.9976 C   0  0  0  0  0  0  0  0  0  0  0  0
  151.8437  140.1982  156.6764 C   0  0  0  0  0  0  0  0  0  0  0  0
  152.7398  140.1298  157.5216 O   0  0  0  0  0  0  0  0  0  0  0  0
  151.7135  139.1886  155.6965 N   0  0  0  0  0  0  0  0  0  0  0  0
  152.6977  138.0822  155.6797 C   0  0  0  0  0  0  0  0  0  0  0  0
  152.5878  137.1453  156.8932 C   0  0  0  0  0  0  0  0  0  0  0  0
  152.2604  135.9652  156.7574 O   0  0  0  0  0  0  0  0  0  0  0  0
  152.8709  137.6975  158.0817 N   0  0  0  0  0  0  0  0  0  0  0  0
  152.8497  137.0182  159.3367 C   0  0  0  0  0  0  0  0  0  0  0  0
  153.0643  137.8403  160.5889 C   0  0  0  0  0  0  0  0  0  0  0  0
  154.1519  136.9229  160.1019 C   0  0  0  0  0  0  0  0  0  0  0  0
  150.7085  139.2151  154.7084 C   0  0  0  0  0  0  0  0  0  0  0  0
  150.6503  138.3295  153.8498 O   0  0  0  0  0  0  0  0  0  0  0  0
  147.9904  140.9654  153.8865 H   0  0  0  0  0  0  0  0  0  0  0  0
  148.2975  139.2269  153.7417 H   0  0  0  0  0  0  0  0  0  0  0  0
  149.2500  140.3970  152.7452 H   0  0  0  0  0  0  0  0  0  0  0  0
  148.2899  142.3993  154.8818 H   0  0  0  0  0  0  0  0  0  0  0  0
  148.9524  143.0626  156.3194 H   0  0  0  0  0  0  0  0  0  0  0  0
  151.0513  143.8613  156.1516 H   0  0  0  0  0  0  0  0  0  0  0  0
  150.2623  144.2410  157.6623 H   0  0  0  0  0  0  0  0  0  0  0  0
  153.2812  143.9280  157.2212 H   0  0  0  0  0  0  0  0  0  0  0  0
  152.4379  145.4153  157.5675 H   0  0  0  0  0  0  0  0  0  0  0  0
  153.5645  144.4444  159.6066 H   0  0  0  0  0  0  0  0  0  0  0  0
  151.8370  144.6230  159.8207 H   0  0  0  0  0  0  0  0  0  0  0  0
  153.3041  142.0364  159.1042 H   0  0  0  0  0  0  0  0  0  0  0  0
  152.5249  142.3926  160.6289 H   0  0  0  0  0  0  0  0  0  0  0  0
  150.2969  142.4687  159.5201 H   0  0  0  0  0  0  0  0  0  0  0  0
  151.0924  140.9481  159.1783 H   0  0  0  0  0  0  0  0  0  0  0  0
  152.6002  137.4839  154.7726 H   0  0  0  0  0  0  0  0  0  0  0  0
  153.7180  138.4656  155.6286 H   0  0  0  0  0  0  0  0  0  0  0  0
  153.1296  138.6735  158.0989 H   0  0  0  0  0  0  0  0  0  0  0  0
  152.1809  136.1637  159.4317 H   0  0  0  0  0  0  0  0  0  0  0  0
  153.2212  138.9114  160.4745 H   0  0  0  0  0  0  0  0  0  0  0  0
  152.5178  137.5431  161.4818 H   0  0  0  0  0  0  0  0  0  0  0  0
  154.3343  136.0136  160.6715 H   0  0  0  0  0  0  0  0  0  0  0  0
  155.0360  137.3827  159.6641 H   0  0  0  0  0  0  0  0  0  0  0  0
  1  2  1  0  0  0  0
  1 24  1  0  0  0  0
  1 25  1  0  0  0  0
  1 26  1  0  0  0  0
  2 22  1  0  0  0  0
  2  3  1  0  0  0  0
  3  4  1  0  0  0  0
  3  5  2  0  0  0  0
  4 27  1  0  0  0  0
  4 28  1  0  0  0  0
  5  6  1  0  0  0  0
  5 12  1  0  0  0  0
  6 11  1  0  0  0  0
  6  7  1  0  0  0  0
  7  8  1  0  0  0  0
  7 29  1  0  0  0  0
  7 30  1  0  0  0  0
  8  9  1  0  0  0  0
  8 31  1  0  0  0  0
  8 32  1  0  0  0  0
  9 10  1  0  0  0  0
  9 33  1  0  0  0  0
  9 34  1  0  0  0  0
 10 11  1  0  0  0  0
 10 35  1  0  0  0  0
 10 36  1  0  0  0  0
 11 37  1  0  0  0  0
 11 38  1  0  0  0  0
 12 13  2  0  0  0  0
 12 14  1  0  0  0  0
 14 15  1  0  0  0  0
 14 22  1  0  0  0  0
 15 16  1  0  0  0  0
 15 39  1  0  0  0  0
 15 40  1  0  0  0  0
 16 17  2  0  0  0  0
 16 18  1  0  0  0  0
 18 19  1  0  0  0  0
 18 41  1  0  0  0  0
 19 21  1  0  0  0  0
 19 20  1  0  0  0  0
 19 42  1  0  0  0  0
 20 21  1  0  0  0  0
 20 43  1  0  0  0  0
 20 44  1  0  0  0  0
 21 45  1  0  0  0  0
 21 46  1  0  0  0  0
 22 23  2  0  0  0  0
M  END
> <s_m_source_file>
AV-unprocessed.smi

> <i_m_source_file_index>
587

> <i_lp_mmshare_version>
43012

> <i_f3d_flags>
0

> <s_epik_input>
W0NIMl0xW0NIMl1bQ0gyXVtDSDJdW0NIMl1OMWMoYyhbTkgyXSluMltDSDNdKWMoPU8pbihjMj1PKVtDSDJdQyg9TylbTkhdW0NIXTNbQ0gyXVtDSDJdMw==

> <s_epik_cmdline>
J2VwaWtfcHl0aG9uJywgJy1waCcsICc3LjAnLCAnLXRuJywgJzgnLCAnLW1hJywgJzIwMCcsICctbWV0YWxfYmluZGluZycsICctaW1hZScsICc8aW5maWxlLm1hZT4nLCAnLW9tYWUnLCAnPG91dGZpbGUubWFlPic=

> <r_lp_tautomer_probability>
0.999881

> <r_epik_Ionization_Penalty>
0.00852669

> <r_epik_Ionization_Penalty_Charging>
2.6249e-08

> <r_epik_Ionization_Penalty_Neutral>
0.00852666

> <r_epik_State_Penalty>
0.00667057

> <r_epik_Charging_Adjusted_Penalty>
0.00667059

> <i_epik_Tot_Q>
0

> <i_epik_Tot_abs_Q>
0

> <r_epik_Metal_State_Penalty>
0.00667057

> <b_epik_Metal_Only>
0

> <s_lp_Force_Field>
OPLS_2005

> <r_lp_Energy>
38.4775

> <b_lp_Chiralities_Consistent>
1

> <s_lp_Variant>
AV-unprocessed.smi:587-1

> <Gold.Version>
5.8.1

> <Gold.Id.Protein>
6NUR|6NUR_protein|mol2

> <Gold.PLP.Fitness>
48.2920

> <Gold.PLP.PLP>
-41.8358

> <Gold.PLP.part.hbond>
-2.6875

> <Gold.PLP.part.metal>
0.0000

> <Gold.PLP.part.buried>
3.5658

> <Gold.PLP.part.nonpolar>
-42.6601

> <Gold.PLP.part.repulsive>
0.5145

> <Gold.PLP.ligand.clash>
0.0223

> <Gold.PLP.ligand.torsion>
1.0279

> <Gold.PLP.Chemscore.Hbond>
2.2000

> <Gold.PLP.Chemscore.CHOScore>
0.0000

> <Gold.PLP.Chemscore.Metal>
0.0000

> <Gold.Chemscore.Hbonds>
donor molecule, donor type, donor heavy atom, donor atom, acceptor molecule, acceptor atom, score
      L1  H     4    28       P1  8028  0.26
      P1  H  7997  8008       L1    13  1.00
      P1  H 10752 10763       L1    17  1.00

> <Gold.PLP.Chemscore.Internal.Correction>
1.9342

> <Gold.Rescore>
     Score         DG    S(hbond)    S(metal)    S(lipo)     H(rot)  DE(clash)    DE(int)     intcor
     15.53     -18.25       1.73        0.00      93.88       1.56       0.35       2.37       ----

> <Gold.Chemscore.Fitness>
15.5320

> <Gold.Chemscore.DG>
-18.2544

> <Gold.Chemscore.ZeroCoef>
-5.4800

> <Gold.Chemscore.Hbond>
1.7299

> <Gold.Chemscore.Metal>
0.0000

> <Gold.Chemscore.Lipo>
93.8826

> <Gold.Chemscore.Internal_Hbond>
0.0000

> <Gold.Chemscore.DEClash>
0.3490

> <Gold.Chemscore.DEInternal>
2.3734

> <Gold.Chemscore.Rot>
1.5577

> <Gold.Chemscore.Internal.Correction>
   9.000000E+99

> <Gold.Chemscore.Hbonds>
donor molecule, donor type, donor heavy atom, donor atom, acceptor molecule, acceptor atom, score
      L1  H     4    28       P1  8028  0.26
      P1  H  7997  8008       L1    13  0.87
      P1  H 10752 10763       L1    17  0.34

> <Gold.Chemscore.Hbond.Weighted>
-5.7778

> <Gold.Chemscore.Metal.Weighted>
-0.0000

> <Gold.Chemscore.Lipo.Weighted>
-10.9843

> <Gold.Chemscore.Internal_Hbond.Weighted>
0.0000

> <Gold.Chemscore.DEClash.Weighted>
0.3490

> <Gold.Chemscore.DEInternal.Weighted>
2.3734

> <Gold.Chemscore.Rot.Weighted>
3.9877

> <Gold.Chemscore.Internal.Correction.Weighted>
   9.000000E+99

> <Gold.Protein.RotatedTorsions>
[ 6907 6896 6895 6894 ] final  171.86 input  -60.11 | X-H torsion
[ 7974 7965 7964 7962 ] final -175.92 input  175.53 | X-H torsion
[ 8008 7997 7996 7995 ] final  -72.25 input   59.86 | X-H torsion
[ 10167 10162 10161 10158 ] final -157.93 input  -65.29 | X-H torsion
[ 10718 10713 10712 10709 ] final  148.58 input   66.30 | X-H torsion
[ 10763 10752 10751 10750 ] final  101.91 input  -60.55 | X-H torsion
[ 11005 11000 10999 10996 ] final -160.98 input  -57.11 | X-H torsion

> <Gold.Protein.ActiveResidues>
 VAL166  LYS551  ARG553  GLY616  TRP617  ASP618  TYR619  PRO620  LYS621  CYS622 
 ASP623  PHE694  ASN695  SER759  ASP760  ASP761  ALA762  ILE779  LEU786  VAL792 
 PHE793  MET794  SER795  GLU796  ALA797  LYS798  CYS799  TRP800  GLU811  SER814 

> <Gold.Protein.RotatedAtoms>
  151.7935  133.3362  159.3505 H   0  0  0  0  0  0  0  0  0  0  0  0  # atno 6907 bound_to 6896
  150.7383  134.5820  159.5953 H   0  0  0  0  0  0  0  0  0  0  0  0  # atno 6908 bound_to 6896
  152.3193  134.7401  160.0369 H   0  0  0  0  0  0  0  0  0  0  0  0  # atno 6909 bound_to 6896
  144.7127  140.1249  143.6402 H   0  0  0  0  0  0  0  0  0  0  0  0  # atno 7974 bound_to 7965
  154.5151  140.0800  156.8066 H   0  0  0  0  0  0  0  0  0  0  0  0  # atno 8008 bound_to 7997
  155.3698  140.3422  155.4225 H   0  0  0  0  0  0  0  0  0  0  0  0  # atno 8009 bound_to 7997
  156.1619  140.1591  156.8585 H   0  0  0  0  0  0  0  0  0  0  0  0  # atno 8010 bound_to 7997
  139.6732  143.9709  152.2295 H   0  0  0  0  0  0  0  0  0  0  0  0  # atno 10167 bound_to 10162
  157.3068  131.0881  151.1347 H   0  0  0  0  0  0  0  0  0  0  0  0  # atno 10718 bound_to 10713
  153.3327  135.4028  155.1508 H   0  0  0  0  0  0  0  0  0  0  0  0  # atno 10763 bound_to 10752
  154.8626  135.3614  154.5449 H   0  0  0  0  0  0  0  0  0  0  0  0  # atno 10764 bound_to 10752
  153.5889  135.7074  153.5491 H   0  0  0  0  0  0  0  0  0  0  0  0  # atno 10765 bound_to 10752
  140.6254  134.4706  157.5226 H   0  0  0  0  0  0  0  0  0  0  0  0  # atno 11005 bound_to 11000
  145.9338  139.2624  143.1309 LP  0  0  0  0  0  0  0  0  0  0  0  0  # atno 17320 bound_to 7965
  145.9495  140.8919  143.0266 LP  0  0  0  0  0  0  0  0  0  0  0  0  # atno 17321 bound_to 7965
  139.9479  144.6639  150.8201 LP  0  0  0  0  0  0  0  0  0  0  0  0  # atno 17342 bound_to 10162
  140.7626  143.3201  151.2641 LP  0  0  0  0  0  0  0  0  0  0  0  0  # atno 17343 bound_to 10162
  157.2684  130.6692  149.6008 LP  0  0  0  0  0  0  0  0  0  0  0  0  # atno 17370 bound_to 10713
  155.9675  130.4486  150.5628 LP  0  0  0  0  0  0  0  0  0  0  0  0  # atno 17371 bound_to 10713
  139.9137  134.8292  156.1440 LP  0  0  0  0  0  0  0  0  0  0  0  0  # atno 17394 bound_to 11000
  141.0713  133.6796  156.2146 LP  0  0  0  0  0  0  0  0  0  0  0  0  # atno 17395 bound_to 11000

$$$$
