AV-unprocessed.smi:283|AV-procd|sdf|2128|dock9
  -GOLD-   2262021443D 1   1.00000     0.00000
 Structure written by MMmdl.
 48 51  0  0  0  0  0  0  0  0  1 V2000
  154.1837  139.7394  159.7634 C   0  0  0  0  0  0  0  0  0  0  0  0
  153.2033  140.7963  159.2376 C   0  0  1  0  0  0  0  0  0  0  0  0
  152.0018  140.1404  158.7263 N   0  0  0  0  0  0  0  0  0  0  0  0
  152.0771  139.0872  157.8825 C   0  0  0  0  0  0  0  0  0  0  0  0
  153.0272  139.1802  156.9231 N   0  0  0  0  0  0  0  0  0  0  0  0
  153.1955  138.1851  156.0501 C   0  0  0  0  0  0  0  0  0  0  0  0
  152.5318  137.0325  155.9649 N   0  0  0  0  0  0  0  0  0  0  0  0
  151.5654  136.9249  156.9226 C   0  0  0  0  0  0  0  0  0  0  0  0
  151.2674  137.9126  157.9075 C   0  0  0  0  0  0  0  0  0  0  0  0
  150.2039  137.4774  158.6871 N   0  0  0  0  0  0  0  0  0  0  0  0
  149.9116  136.3018  158.2075 C   0  0  0  0  0  0  0  0  0  0  0  0
  150.6907  135.8762  157.1552 N   0  0  0  0  0  0  0  0  0  0  0  0
  150.5648  134.5597  156.4340 C   0  0  1  0  0  0  0  0  0  0  0  0
  149.7635  133.6858  157.1720 O   0  0  0  0  0  0  0  0  0  0  0  0
  148.4753  133.5366  156.5684 C   0  0  2  0  0  0  0  0  0  0  0  0
  148.2345  132.0423  156.2804 C   0  0  0  0  0  0  0  0  0  0  0  0
  148.2139  131.2636  157.4596 O   0  0  0  0  0  0  0  0  0  0  0  0
  148.4315  134.4632  155.3410 C   0  0  1  0  0  0  0  0  0  0  0  0
  147.7350  135.6533  155.6661 O   0  0  0  0  0  0  0  0  0  0  0  0
  149.9066  134.7123  155.0512 C   0  0  1  0  0  0  0  0  0  0  0  0
  150.1508  135.9385  154.3822 O   0  0  0  0  0  0  0  0  0  0  0  0
  152.9502  141.8652  160.3053 C   0  0  0  0  0  0  0  0  0  0  0  0
  153.4445  141.6852  161.6186 C   0  0  0  0  0  0  0  0  0  0  0  0
  153.2150  142.6553  162.6122 C   0  0  0  0  0  0  0  0  0  0  0  0
  152.4948  143.8223  162.3013 C   0  0  0  0  0  0  0  0  0  0  0  0
  152.0115  144.0199  160.9949 C   0  0  0  0  0  0  0  0  0  0  0  0
  152.2387  143.0521  159.9961 C   0  0  0  0  0  0  0  0  0  0  0  0
  151.6330  143.3558  158.4050 Cl  0  0  0  0  0  0  0  0  0  0  0  0
  151.5912  134.1944  156.3852 H   0  0  0  0  0  0  0  0  0  0  0  0
  147.7250  133.8396  157.2999 H   0  0  0  0  0  0  0  0  0  0  0  0
  147.9255  134.0080  154.4889 H   0  0  0  0  0  0  0  0  0  0  0  0
  150.2857  133.9016  154.4282 H   0  0  0  0  0  0  0  0  0  0  0  0
  155.1265  140.1952  160.0676 H   0  0  0  0  0  0  0  0  0  0  0  0
  154.4107  138.9979  158.9968 H   0  0  0  0  0  0  0  0  0  0  0  0
  153.7750  139.2129  160.6266 H   0  0  0  0  0  0  0  0  0  0  0  0
  153.6774  141.2630  158.3758 H   0  0  0  0  0  0  0  0  0  0  0  0
  151.1528  140.6766  158.8306 H   0  0  0  0  0  0  0  0  0  0  0  0
  153.9760  138.3300  155.3180 H   0  0  0  0  0  0  0  0  0  0  0  0
  149.1155  135.6998  158.6206 H   0  0  0  0  0  0  0  0  0  0  0  0
  147.3012  131.9027  155.7341 H   0  0  0  0  0  0  0  0  0  0  0  0
  149.0339  131.6594  155.6454 H   0  0  0  0  0  0  0  0  0  0  0  0
  148.8350  130.5577  157.3630 H   0  0  0  0  0  0  0  0  0  0  0  0
  147.1948  135.4831  156.4228 H   0  0  0  0  0  0  0  0  0  0  0  0
  149.7751  135.8883  153.5170 H   0  0  0  0  0  0  0  0  0  0  0  0
  154.0016  140.7962  161.8753 H   0  0  0  0  0  0  0  0  0  0  0  0
  153.5926  142.5037  163.6126 H   0  0  0  0  0  0  0  0  0  0  0  0
  152.3173  144.5679  163.0624 H   0  0  0  0  0  0  0  0  0  0  0  0
  151.4647  144.9207  160.7580 H   0  0  0  0  0  0  0  0  0  0  0  0
  1  2  1  0  0  0  0
  1 33  1  0  0  0  0
  1 34  1  0  0  0  0
  1 35  1  0  0  0  0
  2  3  1  0  0  0  0
  2 22  1  0  0  0  0
  2 36  1  0  0  0  0
  3  4  1  0  0  0  0
  3 37  1  0  0  0  0
  4  9  1  0  0  0  0
  4  5  2  0  0  0  0
  5  6  1  0  0  0  0
  6  7  2  0  0  0  0
  6 38  1  0  0  0  0
  7  8  1  0  0  0  0
  8 12  1  0  0  0  0
  8  9  2  0  0  0  0
  9 10  1  0  0  0  0
 10 11  2  0  0  0  0
 11 12  1  0  0  0  0
 11 39  1  0  0  0  0
 12 13  1  0  0  0  0
 13 29  1  0  0  0  0
 13 20  1  0  0  0  0
 13 14  1  0  0  0  0
 14 15  1  0  0  0  0
 15 30  1  0  0  0  0
 15 16  1  0  0  0  0
 15 18  1  0  0  0  0
 16 17  1  0  0  0  0
 16 40  1  0  0  0  0
 16 41  1  0  0  0  0
 17 42  1  0  0  0  0
 18 31  1  0  0  0  0
 18 19  1  0  0  0  0
 18 20  1  0  0  0  0
 19 43  1  0  0  0  0
 20 32  1  0  0  0  0
 20 21  1  0  0  0  0
 21 44  1  0  0  0  0
 22 27  1  0  0  0  0
 22 23  2  0  0  0  0
 23 24  1  0  0  0  0
 23 45  1  0  0  0  0
 24 25  2  0  0  0  0
 24 46  1  0  0  0  0
 25 26  1  0  0  0  0
 25 47  1  0  0  0  0
 26 27  2  0  0  0  0
 26 48  1  0  0  0  0
 27 28  1  0  0  0  0
M  END
> <s_m_source_file>
AV-unprocessed.smi

> <i_m_source_file_index>
283

> <i_lp_mmshare_version>
43012

> <i_f3d_flags>
0

> <s_epik_input>
Q2xjMVtjSF1bY0hdW2NIXVtjSF1jMVtDQEhdKFtDSDNdKVtOSF1jKG5bY0hdbjIpYyhjMjMpbltjSF1uM1tDQEBIXTRPW0NASF0oW0NIMl1bT0hdKVtDQEBIXShbT0hdKVtDQEhdNFtPSF0=

> <s_epik_cmdline>
J2VwaWtfcHl0aG9uJywgJy1waCcsICc3LjAnLCAnLXRuJywgJzgnLCAnLW1hJywgJzIwMCcsICctbWV0YWxfYmluZGluZycsICctaW1hZScsICc8aW5maWxlLm1hZT4nLCAnLW9tYWUnLCAnPG91dGZpbGUubWFlPic=

> <r_lp_tautomer_probability>
1

> <r_epik_Ionization_Penalty>
0.000266407

> <r_epik_Ionization_Penalty_Charging>
0

> <r_epik_Ionization_Penalty_Neutral>
0.000266407

> <r_epik_State_Penalty>
-0

> <r_epik_Charging_Adjusted_Penalty>
0

> <i_epik_Tot_Q>
0

> <i_epik_Tot_abs_Q>
0

> <r_epik_Metal_State_Penalty>
-0

> <b_epik_Metal_Only>
0

> <s_epik_Chemistry_Notes>
This compound contains an acetal/aminal-like group ( X-CH(R)-Y where X, Y are N, S, or O) that may be acid/base labile, releasing an aldehyde.

> <s_lp_Force_Field>
OPLS_2005

> <r_lp_Energy>
53.7739

> <b_lp_Chiralities_Consistent>
1

> <s_lp_Variant>
AV-unprocessed.smi:283-4

> <Gold.Version>
5.8.1

> <Gold.Id.Protein>
6NUR|6NUR_protein|mol2

> <Gold.PLP.Fitness>
50.5154

> <Gold.PLP.PLP>
-43.0910

> <Gold.PLP.part.hbond>
-3.6115

> <Gold.PLP.part.metal>
0.0000

> <Gold.PLP.part.buried>
-5.3865

> <Gold.PLP.part.nonpolar>
-33.8425

> <Gold.PLP.part.repulsive>
0.1285

> <Gold.PLP.ligand.clash>
0.0000

> <Gold.PLP.ligand.torsion>
0.8484

> <Gold.PLP.Chemscore.Hbond>
2.9120

> <Gold.PLP.Chemscore.CHOScore>
0.0000

> <Gold.PLP.Chemscore.Metal>
0.0000

> <Gold.Chemscore.Hbonds>
donor molecule, donor type, donor heavy atom, donor atom, acceptor molecule, acceptor atom, score
      L1  H    21    44       P1  7948  0.75
      P1  H  7997  8010       L1     5  1.00
      P1  H 10752 10765       L1     7  0.80

> <Gold.PLP.Chemscore.Internal.Correction>
0.3851

> <Gold.Rescore>
     Score         DG    S(hbond)    S(metal)    S(lipo)     H(rot)  DE(clash)    DE(int)     intcor
     14.16     -15.75       2.36        0.00     110.02       4.10       0.56       1.03       ----

> <Gold.Chemscore.Fitness>
14.1580

> <Gold.Chemscore.DG>
-15.7451

> <Gold.Chemscore.ZeroCoef>
-5.4800

> <Gold.Chemscore.Hbond>
2.3596

> <Gold.Chemscore.Metal>
0.0000

> <Gold.Chemscore.Lipo>
110.0171

> <Gold.Chemscore.Internal_Hbond>
0.0000

> <Gold.Chemscore.DEClash>
0.5561

> <Gold.Chemscore.DEInternal>
1.0310

> <Gold.Chemscore.Rot>
4.0968

> <Gold.Chemscore.Internal.Correction>
   9.000000E+99

> <Gold.Chemscore.Hbonds>
donor molecule, donor type, donor heavy atom, donor atom, acceptor molecule, acceptor atom, score
      L1  H    21    44       P1  7948  0.09
      P1  H  7997  8010       L1     5  0.44
      P1  H 10752 10765       L1     7  0.78

> <Gold.Chemscore.Hbond.Weighted>
-7.8810

> <Gold.Chemscore.Metal.Weighted>
-0.0000

> <Gold.Chemscore.Lipo.Weighted>
-12.8720

> <Gold.Chemscore.Internal_Hbond.Weighted>
0.0000

> <Gold.Chemscore.DEClash.Weighted>
0.5561

> <Gold.Chemscore.DEInternal.Weighted>
1.0310

> <Gold.Chemscore.Rot.Weighted>
10.4879

> <Gold.Chemscore.Internal.Correction.Weighted>
   9.000000E+99

> <Gold.Protein.RotatedTorsions>
[ 6907 6896 6895 6894 ] final   68.49 input  -60.11 | X-H torsion
[ 7974 7965 7964 7962 ] final   27.19 input  175.53 | X-H torsion
[ 8008 7997 7996 7995 ] final   44.96 input   59.86 | X-H torsion
[ 10167 10162 10161 10158 ] final   51.78 input  -65.29 | X-H torsion
[ 10718 10713 10712 10709 ] final   53.40 input   66.30 | X-H torsion
[ 10763 10752 10751 10750 ] final -161.26 input  -60.55 | X-H torsion
[ 11005 11000 10999 10996 ] final  167.01 input  -57.11 | X-H torsion

> <Gold.Protein.ActiveResidues>
 VAL166  LYS551  ARG553  GLY616  TRP617  ASP618  TYR619  PRO620  LYS621  CYS622 
 ASP623  PHE694  ASN695  SER759  ASP760  ASP761  ALA762  ILE779  LEU786  VAL792 
 PHE793  MET794  SER795  GLU796  ALA797  LYS798  CYS799  TRP800  GLU811  SER814 

> <Gold.Protein.RotatedAtoms>
  152.4624  134.5154  159.9766 H   0  0  0  0  0  0  0  0  0  0  0  0  # atno 6907 bound_to 6896
  151.5200  133.3462  159.2907 H   0  0  0  0  0  0  0  0  0  0  0  0  # atno 6908 bound_to 6896
  150.8592  134.7969  159.7132 H   0  0  0  0  0  0  0  0  0  0  0  0  # atno 6909 bound_to 6896
  146.1798  139.7225  142.8909 H   0  0  0  0  0  0  0  0  0  0  0  0  # atno 7974 bound_to 7965
  155.3279  140.3401  155.4240 H   0  0  0  0  0  0  0  0  0  0  0  0  # atno 8008 bound_to 7997
  156.1876  140.1686  156.8191 H   0  0  0  0  0  0  0  0  0  0  0  0  # atno 8009 bound_to 7997
  154.5404  140.0726  156.8484 H   0  0  0  0  0  0  0  0  0  0  0  0  # atno 8010 bound_to 7997
  140.2583  144.3402  150.6326 H   0  0  0  0  0  0  0  0  0  0  0  0  # atno 10167 bound_to 10162
  157.5164  130.8535  149.8501 H   0  0  0  0  0  0  0  0  0  0  0  0  # atno 10718 bound_to 10713
  154.7319  135.3048  154.8877 H   0  0  0  0  0  0  0  0  0  0  0  0  # atno 10763 bound_to 10752
  153.9717  135.6741  153.4751 H   0  0  0  0  0  0  0  0  0  0  0  0  # atno 10764 bound_to 10752
  153.0926  135.4952  154.8640 H   0  0  0  0  0  0  0  0  0  0  0  0  # atno 10765 bound_to 10752
  140.2723  134.7816  157.3686 H   0  0  0  0  0  0  0  0  0  0  0  0  # atno 11005 bound_to 11000
  145.4110  141.0396  143.3017 LP  0  0  0  0  0  0  0  0  0  0  0  0  # atno 17320 bound_to 7965
  144.8295  139.5652  143.6950 LP  0  0  0  0  0  0  0  0  0  0  0  0  # atno 17321 bound_to 7965
  140.5986  143.2167  151.7115 LP  0  0  0  0  0  0  0  0  0  0  0  0  # atno 17342 bound_to 10162
  139.5025  144.3828  152.0359 LP  0  0  0  0  0  0  0  0  0  0  0  0  # atno 17343 bound_to 10162
  156.0323  130.3761  150.1654 LP  0  0  0  0  0  0  0  0  0  0  0  0  # atno 17370 bound_to 10713
  156.9843  130.9874  151.3430 LP  0  0  0  0  0  0  0  0  0  0  0  0  # atno 17371 bound_to 10713
  140.1361  134.5032  155.8067 LP  0  0  0  0  0  0  0  0  0  0  0  0  # atno 17394 bound_to 11000
  141.2175  133.6808  156.7127 LP  0  0  0  0  0  0  0  0  0  0  0  0  # atno 17395 bound_to 11000

$$$$
