AV-unprocessed.smi:2335|AV-procd|sdf|9325|dock1
  -GOLD-   2272012543D 1   1.00000     0.00000
 Structure written by MMmdl.
 41 42  0  0  0  0  0  0  0  0  2 V2000
  145.3365  134.0268  161.9287 C   0  0  0  0  0  0  0  0  0  0  0  0
  145.6413  135.5248  161.8213 C   0  0  0  0  0  0  0  0  0  0  0  0
  146.7533  135.8155  160.8696 C   0  0  0  0  0  0  0  0  0  0  0  0
  147.1352  137.0570  160.5585 N   0  0  0  0  0  0  0  0  0  0  0  0
  148.1639  137.0698  159.6277 N   0  0  0  0  0  0  0  0  0  0  0  0
  148.5398  135.8417  159.2433 C   0  0  0  0  0  0  0  0  0  0  0  0
  149.5117  135.6336  158.3400 N   0  5  0  0  0  0  0  0  0  0  0  0
  150.3468  136.6418  158.0014 C   0  0  0  0  0  0  0  0  0  0  0  0
  151.5680  136.6665  158.1698 O   0  0  0  0  0  0  0  0  0  0  0  0
  149.7272  137.6811  157.4257 N   0  0  0  0  0  0  0  0  0  0  0  0
  150.3669  138.8973  156.9275 C   0  0  2  0  0  0  0  0  0  0  0  0
  149.3402  139.9470  156.5518 C   0  0  0  0  0  0  0  0  0  0  0  0
  150.0937  140.8274  155.5484 C   0  0  0  0  0  0  0  0  0  0  0  0
  149.1754  141.3631  154.4395 C   0  0  0  0  0  0  0  0  0  0  0  0
  150.8480  141.9748  156.2421 C   0  0  0  0  0  0  0  0  0  0  0  0
  151.0703  139.9740  154.9541 O   0  0  0  0  0  0  0  0  0  0  0  0
  151.1430  138.7054  155.6049 C   0  0  0  0  0  0  0  0  0  0  0  0
  152.6282  138.3846  155.8365 C   0  0  0  0  0  0  0  0  0  0  0  0
  150.5096  137.6824  154.6389 C   0  0  0  0  0  0  0  0  0  0  0  0
  147.6169  134.5507  160.0115 S   0  0  0  0  0  0  0  0  0  0  0  0
  144.5233  133.8450  162.6314 H   0  0  0  0  0  0  0  0  0  0  0  0
  146.2085  133.4724  162.2765 H   0  0  0  0  0  0  0  0  0  0  0  0
  145.0411  133.6162  160.9625 H   0  0  0  0  0  0  0  0  0  0  0  0
  144.7503  136.0647  161.4993 H   0  0  0  0  0  0  0  0  0  0  0  0
  145.9086  135.9206  162.8015 H   0  0  0  0  0  0  0  0  0  0  0  0
  148.7265  137.6145  157.3113 H   0  0  0  0  0  0  0  0  0  0  0  0
  151.0201  139.3225  157.6918 H   0  0  0  0  0  0  0  0  0  0  0  0
  148.4834  139.4730  156.0697 H   0  0  0  0  0  0  0  0  0  0  0  0
  148.9648  140.5007  157.4131 H   0  0  0  0  0  0  0  0  0  0  0  0
  148.3947  142.0045  154.8495 H   0  0  0  0  0  0  0  0  0  0  0  0
  148.6892  140.5487  153.9014 H   0  0  0  0  0  0  0  0  0  0  0  0
  149.7381  141.9464  153.7103 H   0  0  0  0  0  0  0  0  0  0  0  0
  150.1578  142.6561  156.7407 H   0  0  0  0  0  0  0  0  0  0  0  0
  151.4264  142.5558  155.5233 H   0  0  0  0  0  0  0  0  0  0  0  0
  151.5439  141.6002  156.9933 H   0  0  0  0  0  0  0  0  0  0  0  0
  152.7544  137.4125  156.3131 H   0  0  0  0  0  0  0  0  0  0  0  0
  153.1001  139.1325  156.4744 H   0  0  0  0  0  0  0  0  0  0  0  0
  153.1770  138.3631  154.8948 H   0  0  0  0  0  0  0  0  0  0  0  0
  150.5638  136.6683  155.0362 H   0  0  0  0  0  0  0  0  0  0  0  0
  151.0255  137.6819  153.6786 H   0  0  0  0  0  0  0  0  0  0  0  0
  149.4609  137.9082  154.4449 H   0  0  0  0  0  0  0  0  0  0  0  0
  1  2  1  0  0  0  0
  1 21  1  0  0  0  0
  1 22  1  0  0  0  0
  1 23  1  0  0  0  0
  2  3  1  0  0  0  0
  2 24  1  0  0  0  0
  2 25  1  0  0  0  0
  3 20  1  0  0  0  0
  3  4  2  0  0  0  0
  4  5  1  0  0  0  0
  5  6  2  0  0  0  0
  6  7  1  0  0  0  0
  6 20  1  0  0  0  0
  7  8  1  0  0  0  0
  8  9  2  0  0  0  0
  8 10  1  0  0  0  0
 10 11  1  0  0  0  0
 10 26  1  0  0  0  0
 11 17  1  0  0  0  0
 11 12  1  0  0  0  0
 11 27  1  0  0  0  0
 12 13  1  0  0  0  0
 12 28  1  0  0  0  0
 12 29  1  0  0  0  0
 13 14  1  0  0  0  0
 13 15  1  0  0  0  0
 13 16  1  0  0  0  0
 14 30  1  0  0  0  0
 14 31  1  0  0  0  0
 14 32  1  0  0  0  0
 15 33  1  0  0  0  0
 15 34  1  0  0  0  0
 15 35  1  0  0  0  0
 16 17  1  0  0  0  0
 17 18  1  0  0  0  0
 17 19  1  0  0  0  0
 18 36  1  0  0  0  0
 18 37  1  0  0  0  0
 18 38  1  0  0  0  0
 19 39  1  0  0  0  0
 19 40  1  0  0  0  0
 19 41  1  0  0  0  0
M  CHG  1   7  -1
M  END
> <s_m_source_file>
AV-unprocessed.smi

> <i_m_source_file_index>
2335

> <i_lp_mmshare_version>
43012

> <i_f3d_flags>
0

> <s_epik_input>
W0NIM11bQ0gyXWMxbm5jKHMxKVtOSF1DKD1PKVtOSF1bQ0BASF0oQyhPMikoW0NIM10pW0NIM10pW0NIMl1DMihbQ0gzXSlbQ0gzXQ==

> <s_epik_cmdline>
J2VwaWtfcHl0aG9uJywgJy1waCcsICc3LjAnLCAnLXRuJywgJzgnLCAnLW1hJywgJzIwMCcsICctbWV0YWxfYmluZGluZycsICctaW1hZScsICc8aW5maWxlLm1hZT4nLCAnLW9tYWUnLCAnPG91dGZpbGUubWFlPic=

> <r_lp_tautomer_probability>
1

> <r_epik_Ionization_Penalty>
4.33319

> <r_epik_Ionization_Penalty_Charging>
4.17028

> <r_epik_Ionization_Penalty_Neutral>
0.162913

> <r_epik_State_Penalty>
4.16976

> <r_epik_Charging_Adjusted_Penalty>
8.34004

> <i_epik_Tot_Q>
-1

> <i_epik_Tot_abs_Q>
1

> <r_epik_Metal_State_Penalty>
0.677358

> <b_epik_Metal_Only>
1

> <s_lp_Force_Field>
OPLS_2005

> <r_lp_Energy>
10.6883

> <b_lp_Chiralities_Consistent>
1

> <s_lp_Variant>
AV-unprocessed.smi:2335-3

> <Gold.Version>
5.8.1

> <Gold.Id.Protein>
6NUR|6NUR_protein|mol2

> <Gold.PLP.Fitness>
42.8973

> <Gold.PLP.PLP>
-32.6965

> <Gold.PLP.part.hbond>
-6.5464

> <Gold.PLP.part.metal>
0.0000

> <Gold.PLP.part.buried>
-4.7086

> <Gold.PLP.part.nonpolar>
-23.0732

> <Gold.PLP.part.repulsive>
0.1009

> <Gold.PLP.ligand.clash>
0.0000

> <Gold.PLP.ligand.torsion>
0.7701

> <Gold.PLP.Chemscore.Hbond>
3.9000

> <Gold.PLP.Chemscore.CHOScore>
0.0000

> <Gold.PLP.Chemscore.Metal>
0.0000

> <Gold.Chemscore.Hbonds>
donor molecule, donor type, donor heavy atom, donor atom, acceptor molecule, acceptor atom, score
      P1  H  6896  6908       L1     7  1.60
      P1  H  6934  6947       L1     4  0.80
      P1  H  7989  7998       L1    16  1.00

> <Gold.PLP.Chemscore.Internal.Correction>
0.0411

> <Gold.Rescore>
     Score         DG    S(hbond)    S(metal)    S(lipo)     H(rot)  DE(clash)    DE(int)     intcor
     15.05     -16.86       1.41        0.00      83.04       1.19       0.40       1.40       ----

> <Gold.Chemscore.Fitness>
15.0530

> <Gold.Chemscore.DG>
-16.8609

> <Gold.Chemscore.ZeroCoef>
-5.4800

> <Gold.Chemscore.Hbond>
1.4140

> <Gold.Chemscore.Metal>
0.0000

> <Gold.Chemscore.Lipo>
83.0368

> <Gold.Chemscore.Internal_Hbond>
0.0000

> <Gold.Chemscore.DEClash>
0.4044

> <Gold.Chemscore.DEInternal>
1.4035

> <Gold.Chemscore.Rot>
1.1942

> <Gold.Chemscore.Internal.Correction>
   9.000000E+99

> <Gold.Chemscore.Hbonds>
donor molecule, donor type, donor heavy atom, donor atom, acceptor molecule, acceptor atom, score
      P1  H  6896  6908       L1     7  0.03
      P1  H  6934  6947       L1     4  0.11
      P1  H  7989  7998       L1    16  0.50

> <Gold.Chemscore.Hbond.Weighted>
-4.7228

> <Gold.Chemscore.Metal.Weighted>
-0.0000

> <Gold.Chemscore.Lipo.Weighted>
-9.7153

> <Gold.Chemscore.Internal_Hbond.Weighted>
0.0000

> <Gold.Chemscore.DEClash.Weighted>
0.4044

> <Gold.Chemscore.DEInternal.Weighted>
1.4035

> <Gold.Chemscore.Rot.Weighted>
3.0573

> <Gold.Chemscore.Internal.Correction.Weighted>
   9.000000E+99

> <Gold.Protein.RotatedTorsions>
[ 6907 6896 6895 6894 ] final  170.50 input  -60.11 | X-H torsion
[ 7974 7965 7964 7962 ] final   71.08 input  175.53 | X-H torsion
[ 8008 7997 7996 7995 ] final -150.54 input   59.86 | X-H torsion
[ 10167 10162 10161 10158 ] final  137.09 input  -65.29 | X-H torsion
[ 10718 10713 10712 10709 ] final -178.25 input   66.30 | X-H torsion
[ 10763 10752 10751 10750 ] final  167.66 input  -60.55 | X-H torsion
[ 11005 11000 10999 10996 ] final -104.72 input  -57.11 | X-H torsion

> <Gold.Protein.ActiveResidues>
 VAL166  LYS551  ARG553  GLY616  TRP617  ASP618  TYR619  PRO620  LYS621  CYS622 
 ASP623  PHE694  ASN695  SER759  ASP760  ASP761  ALA762  ILE779  LEU786  VAL792 
 PHE793  MET794  SER795  GLU796  ALA797  LYS798  CYS799  TRP800  GLU811  SER814 

> <Gold.Protein.RotatedAtoms>
  151.8151  133.3387  159.3566 H   0  0  0  0  0  0  0  0  0  0  0  0  # atno 6907 bound_to 6896
  150.7313  134.5627  159.5860 H   0  0  0  0  0  0  0  0  0  0  0  0  # atno 6908 bound_to 6896
  152.3047  134.7571  160.0401 H   0  0  0  0  0  0  0  0  0  0  0  0  # atno 6909 bound_to 6896
  145.7702  139.2840  143.1325 H   0  0  0  0  0  0  0  0  0  0  0  0  # atno 7974 bound_to 7965
  155.6252  140.0685  157.2666 H   0  0  0  0  0  0  0  0  0  0  0  0  # atno 8008 bound_to 7997
  154.4219  140.1777  156.1463 H   0  0  0  0  0  0  0  0  0  0  0  0  # atno 8009 bound_to 7997
  155.9977  140.3339  155.6818 H   0  0  0  0  0  0  0  0  0  0  0  0  # atno 8010 bound_to 7997
  139.5156  144.6429  151.5520 H   0  0  0  0  0  0  0  0  0  0  0  0  # atno 10167 bound_to 10162
  156.8414  130.9688  151.3099 H   0  0  0  0  0  0  0  0  0  0  0  0  # atno 10718 bound_to 10713
  154.3571  135.2753  155.2340 H   0  0  0  0  0  0  0  0  0  0  0  0  # atno 10763 bound_to 10752
  154.4544  135.5923  153.6217 H   0  0  0  0  0  0  0  0  0  0  0  0  # atno 10764 bound_to 10752
  152.9846  135.6050  154.3788 H   0  0  0  0  0  0  0  0  0  0  0  0  # atno 10765 bound_to 10752
  141.1087  133.8747  157.1646 H   0  0  0  0  0  0  0  0  0  0  0  0  # atno 11005 bound_to 11000
  146.0177  140.8377  142.9939 LP  0  0  0  0  0  0  0  0  0  0  0  0  # atno 17320 bound_to 7965
  144.6814  140.2583  143.7322 LP  0  0  0  0  0  0  0  0  0  0  0  0  # atno 17321 bound_to 7965
  140.6202  143.9272  150.6520 LP  0  0  0  0  0  0  0  0  0  0  0  0  # atno 17342 bound_to 10162
  140.2543  143.3570  152.1378 LP  0  0  0  0  0  0  0  0  0  0  0  0  # atno 17343 bound_to 10162
  157.6353  130.8762  149.9348 LP  0  0  0  0  0  0  0  0  0  0  0  0  # atno 17370 bound_to 10713
  156.0878  130.3666  150.0453 LP  0  0  0  0  0  0  0  0  0  0  0  0  # atno 17371 bound_to 10713
  139.9970  135.0043  157.0105 LP  0  0  0  0  0  0  0  0  0  0  0  0  # atno 17394 bound_to 11000
  140.4833  134.1267  155.7220 LP  0  0  0  0  0  0  0  0  0  0  0  0  # atno 17395 bound_to 11000

$$$$
