AV-unprocessed.smi:2605|AV-procd|sdf|10196|dock2
  -GOLD-   2272014203D 1   1.00000     0.00000
 Structure written by MMmdl.
 26 27  0  0  0  0  0  0  0  0  2 V2000
  152.2934  142.6111  159.8052 C   0  0  0  0  0  0  0  0  0  0  0  0
  151.8948  141.9613  158.6198 C   0  0  0  0  0  0  0  0  0  0  0  0
  151.4952  142.7481  157.5188 C   0  0  0  0  0  0  0  0  0  0  0  0
  151.0699  142.0891  156.2160 C   0  0  1  0  0  0  0  0  0  0  0  0
  151.3484  140.5681  156.1891 C   0  0  0  0  0  0  0  0  0  0  0  0
  150.9427  140.0087  154.9028 N   0  0  0  0  0  0  0  0  0  0  0  0
  149.5062  140.2050  154.7342 C   0  0  0  0  0  0  0  0  0  0  0  0
  149.1843  141.7111  154.7132 C   0  0  0  0  0  0  0  0  0  0  0  0
  149.6351  142.3444  155.9689 N   0  3  0  0  0  0  0  0  0  0  0  0
  151.5224  144.1535  157.6558 C   0  0  0  0  0  0  0  0  0  0  0  0
  151.9380  144.7033  158.8853 C   0  0  0  0  0  0  0  0  0  0  0  0
  152.3175  143.9539  159.9418 N   0  0  0  0  0  0  0  0  0  0  0  0
  152.6028  142.0363  160.6655 H   0  0  0  0  0  0  0  0  0  0  0  0
  151.8964  140.8824  158.5650 H   0  0  0  0  0  0  0  0  0  0  0  0
  151.6322  142.5559  155.4048 H   0  0  0  0  0  0  0  0  0  0  0  0
  152.4133  140.3805  156.3304 H   0  0  0  0  0  0  0  0  0  0  0  0
  150.8228  140.0498  156.9918 H   0  0  0  0  0  0  0  0  0  0  0  0
  151.1535  139.0202  154.8826 H   0  0  0  0  0  0  0  0  0  0  0  0
  149.1942  139.7432  153.7971 H   0  0  0  0  0  0  0  0  0  0  0  0
  148.9634  139.7014  155.5354 H   0  0  0  0  0  0  0  0  0  0  0  0
  149.6702  142.1959  153.8651 H   0  0  0  0  0  0  0  0  0  0  0  0
  148.1117  141.8689  154.6003 H   0  0  0  0  0  0  0  0  0  0  0  0
  149.1043  141.9594  156.7370 H   0  0  0  0  0  0  0  0  0  0  0  0
  151.2363  144.8035  156.8424 H   0  0  0  0  0  0  0  0  0  0  0  0
  151.9696  145.7742  159.0217 H   0  0  0  0  0  0  0  0  0  0  0  0
  149.4752  143.3404  155.9219 H   0  0  0  0  0  0  0  0  0  0  0  0
  1 12  1  0  0  0  0
  1  2  2  0  0  0  0
  1 13  1  0  0  0  0
  2  3  1  0  0  0  0
  2 14  1  0  0  0  0
  3  4  1  0  0  0  0
  3 10  2  0  0  0  0
  4  9  1  0  0  0  0
  4  5  1  0  0  0  0
  4 15  1  0  0  0  0
  5  6  1  0  0  0  0
  5 16  1  0  0  0  0
  5 17  1  0  0  0  0
  6  7  1  0  0  0  0
  6 18  1  0  0  0  0
  7  8  1  0  0  0  0
  7 19  1  0  0  0  0
  7 20  1  0  0  0  0
  8  9  1  0  0  0  0
  8 21  1  0  0  0  0
  8 22  1  0  0  0  0
  9 23  1  0  0  0  0
  9 26  1  0  0  0  0
 10 11  1  0  0  0  0
 10 24  1  0  0  0  0
 11 12  2  0  0  0  0
 11 25  1  0  0  0  0
M  CHG  1   9   1
M  END
> <s_m_source_file>
AV-unprocessed.smi

> <i_m_source_file_index>
2605

> <i_lp_mmshare_version>
43012

> <i_f3d_flags>
0

> <s_epik_input>
W2NIXTFbY0hdbltjSF1bY0hdYzFbQ0BASF0yW0NIMl1bTkhdW0NIMl1bQ0gyXVtOSF0y

> <s_epik_cmdline>
J2VwaWtfcHl0aG9uJywgJy1waCcsICc3LjAnLCAnLXRuJywgJzgnLCAnLW1hJywgJzIwMCcsICctbWV0YWxfYmluZGluZycsICctaW1hZScsICc8aW5maWxlLm1hZT4nLCAnLW9tYWUnLCAnPG91dGZpbGUubWFlPic=

> <r_epik_Ionization_Penalty>
0.0246915

> <r_epik_Ionization_Penalty_Charging>
0.015072

> <r_epik_Ionization_Penalty_Neutral>
0.00961942

> <r_epik_State_Penalty>
0.518662

> <r_epik_Charging_Adjusted_Penalty>
0.533734

> <i_epik_Tot_Q>
1

> <i_epik_Tot_abs_Q>
1

> <r_epik_Metal_State_Penalty>
0.520249

> <b_epik_Metal_Only>
0

> <s_lp_Force_Field>
OPLS_2005

> <r_lp_Energy>
7.08803

> <b_lp_Chiralities_Consistent>
1

> <s_lp_Variant>
AV-unprocessed.smi:2605-4

> <Gold.Version>
5.8.1

> <Gold.Id.Protein>
6NUR|6NUR_protein|mol2

> <Gold.PLP.Fitness>
38.9324

> <Gold.PLP.PLP>
-30.1791

> <Gold.PLP.part.hbond>
-1.9676

> <Gold.PLP.part.metal>
0.0000

> <Gold.PLP.part.buried>
-3.9890

> <Gold.PLP.part.nonpolar>
-23.6387

> <Gold.PLP.part.repulsive>
0.1433

> <Gold.PLP.ligand.clash>
0.0000

> <Gold.PLP.ligand.torsion>
0.1293

> <Gold.PLP.Chemscore.Hbond>
3.0000

> <Gold.PLP.Chemscore.CHOScore>
0.0000

> <Gold.PLP.Chemscore.Metal>
0.0000

> <Gold.Chemscore.Hbonds>
donor molecule, donor type, donor heavy atom, donor atom, acceptor molecule, acceptor atom, score
      L1  H     9    26       P1  8028  1.95
      P1  H  7989  7998       L1     6  1.00

> <Gold.PLP.Chemscore.Internal.Correction>
0.0119

> <Gold.Rescore>
     Score         DG    S(hbond)    S(metal)    S(lipo)     H(rot)  DE(clash)    DE(int)     intcor
     17.30     -17.45       1.38        0.00      84.81       1.00       0.03       0.12       ----

> <Gold.Chemscore.Fitness>
17.3021

> <Gold.Chemscore.DG>
-17.4476

> <Gold.Chemscore.ZeroCoef>
-5.4800

> <Gold.Chemscore.Hbond>
1.3786

> <Gold.Chemscore.Metal>
0.0000

> <Gold.Chemscore.Lipo>
84.8114

> <Gold.Chemscore.Internal_Hbond>
0.0000

> <Gold.Chemscore.DEClash>
0.0303

> <Gold.Chemscore.DEInternal>
0.1153

> <Gold.Chemscore.Rot>
1.0000

> <Gold.Chemscore.Internal.Correction>
   9.000000E+99

> <Gold.Chemscore.Hbonds>
donor molecule, donor type, donor heavy atom, donor atom, acceptor molecule, acceptor atom, score
      L1  H     9    26       P1  8028  0.92
      P1  H  7989  7998       L1     6  0.28

> <Gold.Chemscore.Hbond.Weighted>
-4.6047

> <Gold.Chemscore.Metal.Weighted>
-0.0000

> <Gold.Chemscore.Lipo.Weighted>
-9.9229

> <Gold.Chemscore.Internal_Hbond.Weighted>
0.0000

> <Gold.Chemscore.DEClash.Weighted>
0.0303

> <Gold.Chemscore.DEInternal.Weighted>
0.1153

> <Gold.Chemscore.Rot.Weighted>
2.5600

> <Gold.Chemscore.Internal.Correction.Weighted>
   9.000000E+99

> <Gold.Protein.RotatedTorsions>
[ 6907 6896 6895 6894 ] final  178.28 input  -60.11 | X-H torsion
[ 7974 7965 7964 7962 ] final  116.62 input  175.53 | X-H torsion
[ 8008 7997 7996 7995 ] final  -94.72 input   59.86 | X-H torsion
[ 10167 10162 10161 10158 ] final   95.02 input  -65.29 | X-H torsion
[ 10718 10713 10712 10709 ] final    9.74 input   66.30 | X-H torsion
[ 10763 10752 10751 10750 ] final  115.93 input  -60.55 | X-H torsion
[ 11005 11000 10999 10996 ] final  -29.92 input  -57.11 | X-H torsion

> <Gold.Protein.ActiveResidues>
 VAL166  LYS551  ARG553  GLY616  TRP617  ASP618  TYR619  PRO620  LYS621  CYS622 
 ASP623  PHE694  ASN695  SER759  ASP760  ASP761  ALA762  ILE779  LEU786  VAL792 
 PHE793  MET794  SER795  GLU796  ALA797  LYS798  CYS799  TRP800  GLU811  SER814 

> <Gold.Protein.RotatedAtoms>
  151.6905  133.3311  159.3241 H   0  0  0  0  0  0  0  0  0  0  0  0  # atno 6907 bound_to 6896
  150.7781  134.6703  159.6397 H   0  0  0  0  0  0  0  0  0  0  0  0  # atno 6908 bound_to 6896
  152.3830  134.6564  160.0188 H   0  0  0  0  0  0  0  0  0  0  0  0  # atno 6909 bound_to 6896
  145.1774  139.3068  143.4436 H   0  0  0  0  0  0  0  0  0  0  0  0  # atno 7974 bound_to 7965
  154.7521  140.0486  157.0902 H   0  0  0  0  0  0  0  0  0  0  0  0  # atno 8008 bound_to 7997
  155.0044  140.3128  155.4835 H   0  0  0  0  0  0  0  0  0  0  0  0  # atno 8009 bound_to 7997
  156.2887  140.2195  156.5155 H   0  0  0  0  0  0  0  0  0  0  0  0  # atno 8010 bound_to 7997
  139.8028  144.6806  150.9742 H   0  0  0  0  0  0  0  0  0  0  0  0  # atno 10167 bound_to 10162
  156.9707  130.5968  149.5668 H   0  0  0  0  0  0  0  0  0  0  0  0  # atno 10718 bound_to 10713
  153.5296  135.3581  155.2669 H   0  0  0  0  0  0  0  0  0  0  0  0  # atno 10763 bound_to 10752
  154.8728  135.4065  154.3167 H   0  0  0  0  0  0  0  0  0  0  0  0  # atno 10764 bound_to 10752
  153.3853  135.7070  153.6602 H   0  0  0  0  0  0  0  0  0  0  0  0  # atno 10765 bound_to 10752
  140.9338  133.7321  156.0975 H   0  0  0  0  0  0  0  0  0  0  0  0  # atno 11005 bound_to 11000
  146.3459  140.1941  142.8589 LP  0  0  0  0  0  0  0  0  0  0  0  0  # atno 17320 bound_to 7965
  145.0171  140.8763  143.5189 LP  0  0  0  0  0  0  0  0  0  0  0  0  # atno 17321 bound_to 7965
  140.7820  143.4264  151.0762 LP  0  0  0  0  0  0  0  0  0  0  0  0  # atno 17342 bound_to 10162
  139.7934  143.8185  152.3154 LP  0  0  0  0  0  0  0  0  0  0  0  0  # atno 17343 bound_to 10162
  156.0284  130.5376  150.8468 LP  0  0  0  0  0  0  0  0  0  0  0  0  # atno 17370 bound_to 10713
  157.5594  131.0945  150.9581 LP  0  0  0  0  0  0  0  0  0  0  0  0  # atno 17371 bound_to 10713
  140.7827  134.3707  157.5483 LP  0  0  0  0  0  0  0  0  0  0  0  0  # atno 17394 bound_to 11000
  139.8803  134.9091  156.2984 LP  0  0  0  0  0  0  0  0  0  0  0  0  # atno 17395 bound_to 11000

$$$$
