AV-unprocessed.smi:2363|AV-procd|sdf|9416|dock2
  -GOLD-   2272013 53D 1   1.00000     0.00000
 Structure written by MMmdl.
 44 45  0  0  0  0  0  0  0  0  1 V2000
  152.2865  139.1657  156.1564 C   0  0  0  0  0  0  0  0  0  0  0  0
  152.2827  138.6378  154.7145 C   0  0  0  0  0  0  0  0  0  0  0  0
  150.8934  138.2166  154.2036 C   0  0  0  0  0  0  0  0  0  0  0  0
  149.9195  139.2948  154.2678 N   0  0  0  0  0  0  0  0  0  0  0  0
  150.3025  140.5151  154.7040 N   0  0  0  0  0  0  0  0  0  0  0  0
  149.2082  141.2626  154.6418 C   0  0  0  0  0  0  0  0  0  0  0  0
  148.0730  140.5508  154.1602 C   0  0  0  0  0  0  0  0  0  0  0  0
  148.5813  139.3009  153.9328 C   0  0  0  0  0  0  0  0  0  0  0  0
  147.9463  138.1958  153.4593 N   0  0  0  0  0  0  0  0  0  0  0  0
  146.6493  137.8606  153.5667 C   0  0  0  0  0  0  0  0  0  0  0  0
  145.7871  138.5252  154.1412 O   0  0  0  0  0  0  0  0  0  0  0  0
  146.4041  136.6887  152.9611 N   0  0  0  0  0  0  0  0  0  0  0  0
  145.1044  136.0214  152.8736 C   0  0  1  0  0  0  0  0  0  0  0  0
  144.0460  137.0881  152.5449 C   0  0  0  0  0  0  0  0  0  0  0  0
  145.1507  134.8632  151.8408 C   0  0  0  0  0  0  0  0  0  0  0  0
  143.7748  134.1946  151.6434 C   0  0  0  0  0  0  0  0  0  0  0  0
  143.8630  133.0013  150.6783 C   0  0  0  0  0  0  0  0  0  0  0  0
  144.8148  132.0578  151.1537 O   0  0  0  0  0  0  0  0  0  0  0  0
  146.1289  132.5957  151.2240 C   0  0  0  0  0  0  0  0  0  0  0  0
  146.1662  133.7641  152.2219 C   0  0  0  0  0  0  0  0  0  0  0  0
  153.2832  139.5023  156.4419 H   0  0  0  0  0  0  0  0  0  0  0  0
  151.9859  138.3951  156.8666 H   0  0  0  0  0  0  0  0  0  0  0  0
  151.6057  140.0099  156.2675 H   0  0  0  0  0  0  0  0  0  0  0  0
  152.6831  139.4069  154.0535 H   0  0  0  0  0  0  0  0  0  0  0  0
  152.9673  137.7918  154.6420 H   0  0  0  0  0  0  0  0  0  0  0  0
  150.9626  137.8628  153.1744 H   0  0  0  0  0  0  0  0  0  0  0  0
  150.5199  137.3766  154.7911 H   0  0  0  0  0  0  0  0  0  0  0  0
  149.2696  142.2963  154.9480 H   0  0  0  0  0  0  0  0  0  0  0  0
  147.0673  140.9149  154.0139 H   0  0  0  0  0  0  0  0  0  0  0  0
  148.5293  137.5546  152.9421 H   0  0  0  0  0  0  0  0  0  0  0  0
  147.1796  136.2174  152.5193 H   0  0  0  0  0  0  0  0  0  0  0  0
  144.8436  135.5973  153.8448 H   0  0  0  0  0  0  0  0  0  0  0  0
  143.0348  136.6871  152.6056 H   0  0  0  0  0  0  0  0  0  0  0  0
  144.1870  137.4937  151.5425 H   0  0  0  0  0  0  0  0  0  0  0  0
  144.0979  137.9194  153.2492 H   0  0  0  0  0  0  0  0  0  0  0  0
  145.4602  135.2797  150.8806 H   0  0  0  0  0  0  0  0  0  0  0  0
  143.3886  133.8530  152.6047 H   0  0  0  0  0  0  0  0  0  0  0  0
  143.0507  134.9078  151.2508 H   0  0  0  0  0  0  0  0  0  0  0  0
  142.8922  132.5113  150.6008 H   0  0  0  0  0  0  0  0  0  0  0  0
  144.1325  133.3314  149.6737 H   0  0  0  0  0  0  0  0  0  0  0  0
  146.8135  131.8096  151.5433 H   0  0  0  0  0  0  0  0  0  0  0  0
  146.4559  132.9188  150.2345 H   0  0  0  0  0  0  0  0  0  0  0  0
  147.1792  134.1656  152.2536 H   0  0  0  0  0  0  0  0  0  0  0  0
  145.9483  133.3917  153.2238 H   0  0  0  0  0  0  0  0  0  0  0  0
  1  2  1  0  0  0  0
  1 21  1  0  0  0  0
  1 22  1  0  0  0  0
  1 23  1  0  0  0  0
  2  3  1  0  0  0  0
  2 24  1  0  0  0  0
  2 25  1  0  0  0  0
  3  4  1  0  0  0  0
  3 26  1  0  0  0  0
  3 27  1  0  0  0  0
  4  8  1  0  0  0  0
  4  5  1  0  0  0  0
  5  6  2  0  0  0  0
  6  7  1  0  0  0  0
  6 28  1  0  0  0  0
  7  8  2  0  0  0  0
  7 29  1  0  0  0  0
  8  9  1  0  0  0  0
  9 10  1  0  0  0  0
  9 30  1  0  0  0  0
 10 11  2  0  0  0  0
 10 12  1  0  0  0  0
 12 13  1  0  0  0  0
 12 31  1  0  0  0  0
 13 14  1  0  0  0  0
 13 15  1  0  0  0  0
 13 32  1  0  0  0  0
 14 33  1  0  0  0  0
 14 34  1  0  0  0  0
 14 35  1  0  0  0  0
 15 20  1  0  0  0  0
 15 16  1  0  0  0  0
 15 36  1  0  0  0  0
 16 17  1  0  0  0  0
 16 37  1  0  0  0  0
 16 38  1  0  0  0  0
 17 18  1  0  0  0  0
 17 39  1  0  0  0  0
 17 40  1  0  0  0  0
 18 19  1  0  0  0  0
 19 20  1  0  0  0  0
 19 41  1  0  0  0  0
 19 42  1  0  0  0  0
 20 43  1  0  0  0  0
 20 44  1  0  0  0  0
M  END
> <s_m_source_file>
AV-unprocessed.smi

> <i_m_source_file_index>
2363

> <i_lp_mmshare_version>
43012

> <i_f3d_flags>
0

> <s_epik_input>
W0NIM11bQ0gyXVtDSDJdbjFuW2NIXVtjSF1jMVtOSF1DKD1PKVtOSF1bQ0BIXShbQ0gzXSlbQ0hdMltDSDJdW0NIMl1PW0NIMl1bQ0gyXTI=

> <s_epik_cmdline>
J2VwaWtfcHl0aG9uJywgJy1waCcsICc3LjAnLCAnLXRuJywgJzgnLCAnLW1hJywgJzIwMCcsICctbWV0YWxfYmluZGluZycsICctaW1hZScsICc8aW5maWxlLm1hZT4nLCAnLW9tYWUnLCAnPG91dGZpbGUubWFlPic=

> <r_lp_tautomer_probability>
1

> <r_epik_Ionization_Penalty>
3.26671e-05

> <r_epik_Ionization_Penalty_Charging>
0

> <r_epik_Ionization_Penalty_Neutral>
3.26671e-05

> <r_epik_State_Penalty>
-0

> <r_epik_Charging_Adjusted_Penalty>
0

> <i_epik_Tot_Q>
0

> <i_epik_Tot_abs_Q>
0

> <r_epik_Metal_State_Penalty>
-0

> <b_epik_Metal_Only>
0

> <s_lp_Force_Field>
OPLS_2005

> <r_lp_Energy>
15.2221

> <b_lp_Chiralities_Consistent>
1

> <s_lp_Variant>
AV-unprocessed.smi:2363-2

> <Gold.Version>
5.8.1

> <Gold.Id.Protein>
6NUR|6NUR_protein|mol2

> <Gold.PLP.Fitness>
47.8124

> <Gold.PLP.PLP>
-36.6045

> <Gold.PLP.part.hbond>
-3.0000

> <Gold.PLP.part.metal>
0.0000

> <Gold.PLP.part.buried>
-3.7900

> <Gold.PLP.part.nonpolar>
-30.3601

> <Gold.PLP.part.repulsive>
0.3803

> <Gold.PLP.ligand.clash>
0.0000

> <Gold.PLP.ligand.torsion>
0.3697

> <Gold.PLP.Chemscore.Hbond>
2.9600

> <Gold.PLP.Chemscore.CHOScore>
0.9847

> <Gold.PLP.Chemscore.Metal>
0.0000

> <Gold.Chemscore.Hbonds>
donor molecule, donor type, donor heavy atom, donor atom, acceptor molecule, acceptor atom, score
      L1  H     9    30       P1  7948  1.00
      L1  H    12    31       P1  7948  1.00
      P1  H  7989  7998       L1     5  0.96
      L1  C     6    28       P1  8028  0.96

> <Gold.PLP.Chemscore.Internal.Correction>
0.1131

> <Gold.Rescore>
     Score         DG    S(hbond)    S(metal)    S(lipo)     H(rot)  DE(clash)    DE(int)     intcor
     15.65     -17.64       2.32        0.00      70.86       1.52       0.12       1.86       ----

> <Gold.Chemscore.Fitness>
15.6533

> <Gold.Chemscore.DG>
-17.6414

> <Gold.Chemscore.ZeroCoef>
-5.4800

> <Gold.Chemscore.Hbond>
2.3221

> <Gold.Chemscore.Metal>
0.0000

> <Gold.Chemscore.Lipo>
70.8597

> <Gold.Chemscore.Internal_Hbond>
0.0000

> <Gold.Chemscore.DEClash>
0.1237

> <Gold.Chemscore.DEInternal>
1.8644

> <Gold.Chemscore.Rot>
1.5176

> <Gold.Chemscore.Internal.Correction>
   9.000000E+99

> <Gold.Chemscore.Hbonds>
donor molecule, donor type, donor heavy atom, donor atom, acceptor molecule, acceptor atom, score
      L1  H     9    30       P1  7948  1.00
      L1  H    12    31       P1  7948  0.95
      P1  H  7989  7998       L1     5  0.22

> <Gold.Chemscore.Hbond.Weighted>
-7.7560

> <Gold.Chemscore.Metal.Weighted>
-0.0000

> <Gold.Chemscore.Lipo.Weighted>
-8.2906

> <Gold.Chemscore.Internal_Hbond.Weighted>
0.0000

> <Gold.Chemscore.DEClash.Weighted>
0.1237

> <Gold.Chemscore.DEInternal.Weighted>
1.8644

> <Gold.Chemscore.Rot.Weighted>
3.8851

> <Gold.Chemscore.Internal.Correction.Weighted>
   9.000000E+99

> <Gold.Protein.RotatedTorsions>
[ 6907 6896 6895 6894 ] final -110.70 input  -60.11 | X-H torsion
[ 7974 7965 7964 7962 ] final  -64.00 input  175.53 | X-H torsion
[ 8008 7997 7996 7995 ] final  173.00 input   59.86 | X-H torsion
[ 10167 10162 10161 10158 ] final  -81.54 input  -65.29 | X-H torsion
[ 10718 10713 10712 10709 ] final  -56.18 input   66.30 | X-H torsion
[ 10763 10752 10751 10750 ] final -140.03 input  -60.55 | X-H torsion
[ 11005 11000 10999 10996 ] final  142.29 input  -57.11 | X-H torsion

> <Gold.Protein.ActiveResidues>
 VAL166  LYS551  ARG553  GLY616  TRP617  ASP618  TYR619  PRO620  LYS621  CYS622 
 ASP623  PHE694  ASN695  SER759  ASP760  ASP761  ALA762  ILE779  LEU786  VAL792 
 PHE793  MET794  SER795  GLU796  ALA797  LYS798  CYS799  TRP800  GLU811  SER814 

> <Gold.Protein.RotatedAtoms>
  150.7642  133.9343  159.3436 H   0  0  0  0  0  0  0  0  0  0  0  0  # atno 6907 bound_to 6896
  151.7244  135.0886  160.0299 H   0  0  0  0  0  0  0  0  0  0  0  0  # atno 6908 bound_to 6896
  152.3629  133.6282  159.6064 H   0  0  0  0  0  0  0  0  0  0  0  0  # atno 6909 bound_to 6896
  145.7722  140.8807  143.0374 H   0  0  0  0  0  0  0  0  0  0  0  0  # atno 7974 bound_to 7965
  156.1119  140.1471  156.9326 H   0  0  0  0  0  0  0  0  0  0  0  0  # atno 8008 bound_to 7997
  154.4773  140.0890  156.7336 H   0  0  0  0  0  0  0  0  0  0  0  0  # atno 8009 bound_to 7997
  155.4581  140.3437  155.4311 H   0  0  0  0  0  0  0  0  0  0  0  0  # atno 8010 bound_to 7997
  140.4402  143.2517  151.8636 H   0  0  0  0  0  0  0  0  0  0  0  0  # atno 10167 bound_to 10162
  156.1309  130.4159  150.0270 H   0  0  0  0  0  0  0  0  0  0  0  0  # atno 10718 bound_to 10713
  154.8591  135.3565  154.5642 H   0  0  0  0  0  0  0  0  0  0  0  0  # atno 10763 bound_to 10752
  153.6256  135.7004  153.5299 H   0  0  0  0  0  0  0  0  0  0  0  0  # atno 10764 bound_to 10752
  153.3092  135.4183  155.1280 H   0  0  0  0  0  0  0  0  0  0  0  0  # atno 10765 bound_to 10752
  140.0466  134.9277  157.0941 H   0  0  0  0  0  0  0  0  0  0  0  0  # atno 11005 bound_to 11000
  144.6811  139.9871  143.7484 LP  0  0  0  0  0  0  0  0  0  0  0  0  # atno 17320 bound_to 7965
  146.0159  139.3209  143.0842 LP  0  0  0  0  0  0  0  0  0  0  0  0  # atno 17321 bound_to 7965
  139.4789  144.5237  151.8765 LP  0  0  0  0  0  0  0  0  0  0  0  0  # atno 17342 bound_to 10162
  140.4327  144.2094  150.5888 LP  0  0  0  0  0  0  0  0  0  0  0  0  # atno 17343 bound_to 10162
  156.8182  130.9349  151.3642 LP  0  0  0  0  0  0  0  0  0  0  0  0  # atno 17370 bound_to 10713
  157.6487  130.8866  149.9590 LP  0  0  0  0  0  0  0  0  0  0  0  0  # atno 17371 bound_to 10713
  140.3984  134.2109  155.7164 LP  0  0  0  0  0  0  0  0  0  0  0  0  # atno 17394 bound_to 11000
  141.1910  133.8205  157.0897 LP  0  0  0  0  0  0  0  0  0  0  0  0  # atno 17395 bound_to 11000

$$$$
