AV-unprocessed.smi:2061|AV-procd|sdf|8366|dock8
  -GOLD-   2272011 43D 1   1.00000     0.00000
 Structure written by MMmdl.
 46 47  0  0  0  0  0  0  0  0  2 V2000
  151.8642  140.6764  158.0883 C   0  0  0  0  0  0  0  0  0  0  0  0
  151.4326  140.1124  156.7782 C   0  0  0  0  0  0  0  0  0  0  0  0
  150.2213  139.7067  156.2939 C   0  0  0  0  0  0  0  0  0  0  0  0
  150.5347  139.2741  154.9723 C   0  0  0  0  0  0  0  0  0  0  0  0
  149.6236  138.7390  154.0255 N   0  0  0  0  0  0  0  0  0  0  0  0
  148.3890  139.1724  153.7209 C   0  0  0  0  0  0  0  0  0  0  0  0
  147.8404  140.1636  154.2029 O   0  0  0  0  0  0  0  0  0  0  0  0
  147.8058  138.3825  152.8077 N   0  0  0  0  0  0  0  0  0  0  0  0
  146.4606  138.5820  152.2764 C   0  0  0  0  0  0  0  0  0  0  0  0
  145.5308  137.3592  152.4994 C   0  0  2  0  0  0  0  0  0  0  0  0
  144.6916  137.5593  153.7850 C   0  0  0  0  0  0  0  0  0  0  0  0
  146.3315  136.0914  152.4963 N   0  3  1  0  0  0  0  0  0  0  0  0
  146.4832  135.4198  153.8162 C   0  0  0  0  0  0  0  0  0  0  0  0
  147.3632  134.1603  153.6986 C   0  0  1  0  0  0  0  0  0  0  0  0
  147.4738  133.4061  155.0284 C   0  0  0  0  0  0  0  0  0  0  0  0
  146.7993  133.2795  152.7360 O   0  0  0  0  0  0  0  0  0  0  0  0
  146.7387  133.8640  151.4419 C   0  0  1  0  0  0  0  0  0  0  0  0
  146.2087  132.8074  150.4663 C   0  0  0  0  0  0  0  0  0  0  0  0
  145.8318  135.1066  151.4988 C   0  0  0  0  0  0  0  0  0  0  0  0
  151.8169  139.4024  154.6853 N   0  0  0  0  0  0  0  0  0  0  0  0
  152.4005  139.9426  155.8374 O   0  0  0  0  0  0  0  0  0  0  0  0
  151.0251  140.7378  158.7816 H   0  0  0  0  0  0  0  0  0  0  0  0
  152.2729  141.6791  157.9619 H   0  0  0  0  0  0  0  0  0  0  0  0
  152.6329  140.0514  158.5431 H   0  0  0  0  0  0  0  0  0  0  0  0
  149.2766  139.7212  156.8162 H   0  0  0  0  0  0  0  0  0  0  0  0
  149.9512  137.9249  153.5265 H   0  0  0  0  0  0  0  0  0  0  0  0
  148.3247  137.5899  152.4577 H   0  0  0  0  0  0  0  0  0  0  0  0
  146.0580  139.4916  152.7202 H   0  0  0  0  0  0  0  0  0  0  0  0
  146.5499  138.7849  151.2088 H   0  0  0  0  0  0  0  0  0  0  0  0
  144.8219  137.2960  151.6722 H   0  0  0  0  0  0  0  0  0  0  0  0
  144.1473  138.5034  153.7689 H   0  0  0  0  0  0  0  0  0  0  0  0
  145.3206  137.5616  154.6758 H   0  0  0  0  0  0  0  0  0  0  0  0
  143.9325  136.7857  153.9027 H   0  0  0  0  0  0  0  0  0  0  0  0
  146.9596  136.0849  154.5359 H   0  0  0  0  0  0  0  0  0  0  0  0
  145.4983  135.1607  154.2089 H   0  0  0  0  0  0  0  0  0  0  0  0
  148.3677  134.4445  153.3798 H   0  0  0  0  0  0  0  0  0  0  0  0
  147.9056  134.0390  155.8043 H   0  0  0  0  0  0  0  0  0  0  0  0
  148.1105  132.5272  154.9255 H   0  0  0  0  0  0  0  0  0  0  0  0
  146.4963  133.0701  155.3756 H   0  0  0  0  0  0  0  0  0  0  0  0
  147.7428  134.1536  151.1270 H   0  0  0  0  0  0  0  0  0  0  0  0
  146.1514  133.2026  149.4516 H   0  0  0  0  0  0  0  0  0  0  0  0
  145.2113  132.4714  150.7513 H   0  0  0  0  0  0  0  0  0  0  0  0
  146.8611  131.9341  150.4452 H   0  0  0  0  0  0  0  0  0  0  0  0
  144.8141  134.8117  151.7610 H   0  0  0  0  0  0  0  0  0  0  0  0
  145.7821  135.5458  150.5043 H   0  0  0  0  0  0  0  0  0  0  0  0
  147.2658  136.3502  152.2130 H   0  0  0  0  0  0  0  0  0  0  0  0
  1  2  1  0  0  0  0
  1 22  1  0  0  0  0
  1 23  1  0  0  0  0
  1 24  1  0  0  0  0
  2 21  1  0  0  0  0
  2  3  2  0  0  0  0
  3  4  1  0  0  0  0
  3 25  1  0  0  0  0
  4  5  1  0  0  0  0
  4 20  2  0  0  0  0
  5  6  1  0  0  0  0
  5 26  1  0  0  0  0
  6  7  2  0  0  0  0
  6  8  1  0  0  0  0
  8  9  1  0  0  0  0
  8 27  1  0  0  0  0
  9 10  1  0  0  0  0
  9 28  1  0  0  0  0
  9 29  1  0  0  0  0
 10 11  1  0  0  0  0
 10 12  1  0  0  0  0
 10 30  1  0  0  0  0
 11 31  1  0  0  0  0
 11 32  1  0  0  0  0
 11 33  1  0  0  0  0
 12 19  1  0  0  0  0
 12 13  1  0  0  0  0
 12 46  1  0  0  0  0
 13 14  1  0  0  0  0
 13 34  1  0  0  0  0
 13 35  1  0  0  0  0
 14 15  1  0  0  0  0
 14 16  1  0  0  0  0
 14 36  1  0  0  0  0
 15 37  1  0  0  0  0
 15 38  1  0  0  0  0
 15 39  1  0  0  0  0
 16 17  1  0  0  0  0
 17 18  1  0  0  0  0
 17 19  1  0  0  0  0
 17 40  1  0  0  0  0
 18 41  1  0  0  0  0
 18 42  1  0  0  0  0
 18 43  1  0  0  0  0
 19 44  1  0  0  0  0
 19 45  1  0  0  0  0
 20 21  1  0  0  0  0
M  CHG  1  12   1
M  END
> <s_m_source_file>
AV-unprocessed.smi

> <i_m_source_file_index>
2061

> <i_lp_mmshare_version>
43012

> <i_f3d_flags>
0

> <s_epik_input>
W0NIM11jMVtjSF1jKG5vMSlbTkhdQyg9TylbTkhdW0NIMl1bQ0BIXShbQ0gzXSlOMltDSDJdW0NAQEhdKFtDSDNdKU9bQ0BASF0oW0NIM10pW0NIMl0y

> <s_epik_cmdline>
J2VwaWtfcHl0aG9uJywgJy1waCcsICc3LjAnLCAnLXRuJywgJzgnLCAnLW1hJywgJzIwMCcsICctbWV0YWxfYmluZGluZycsICctaW1hZScsICc8aW5maWxlLm1hZT4nLCAnLW9tYWUnLCAnPG91dGZpbGUubWFlPic=

> <r_epik_Ionization_Penalty>
0.707076

> <r_epik_Ionization_Penalty_Charging>
0.707039

> <r_epik_Ionization_Penalty_Neutral>
3.6548e-05

> <r_epik_State_Penalty>
0.730276

> <r_epik_Charging_Adjusted_Penalty>
1.43732

> <i_epik_Tot_Q>
1

> <i_epik_Tot_abs_Q>
1

> <r_epik_Metal_State_Penalty>
0.743132

> <b_epik_Metal_Only>
0

> <s_lp_Force_Field>
OPLS_2005

> <r_lp_Energy>
18.102

> <b_lp_Chiralities_Consistent>
1

> <s_lp_Variant>
AV-unprocessed.smi:2061-7

> <Gold.Version>
5.8.1

> <Gold.Id.Protein>
6NUR|6NUR_protein|mol2

> <Gold.PLP.Fitness>
39.4260

> <Gold.PLP.PLP>
-29.0000

> <Gold.PLP.part.hbond>
-5.6546

> <Gold.PLP.part.metal>
0.0000

> <Gold.PLP.part.buried>
-1.5368

> <Gold.PLP.part.nonpolar>
-21.9528

> <Gold.PLP.part.repulsive>
0.4460

> <Gold.PLP.ligand.clash>
0.0000

> <Gold.PLP.ligand.torsion>
2.1634

> <Gold.PLP.Chemscore.Hbond>
4.9000

> <Gold.PLP.Chemscore.CHOScore>
0.0000

> <Gold.PLP.Chemscore.Metal>
0.0000

> <Gold.Chemscore.Hbonds>
donor molecule, donor type, donor heavy atom, donor atom, acceptor molecule, acceptor atom, score
      L1  H     8    27       P1  7948  1.00
      L1  H    12    46       P1  7948  2.00
      P1  H  7989  7998       L1    20  0.90
      P1  H  7997  8010       L1    21  1.00

> <Gold.PLP.Chemscore.Internal.Correction>
0.0529

> <Gold.Rescore>
     Score         DG    S(hbond)    S(metal)    S(lipo)     H(rot)  DE(clash)    DE(int)     intcor
     18.26     -20.76       3.81        0.00      56.41       1.58       0.08       2.41       ----

> <Gold.Chemscore.Fitness>
18.2609

> <Gold.Chemscore.DG>
-20.7563

> <Gold.Chemscore.ZeroCoef>
-5.4800

> <Gold.Chemscore.Hbond>
3.8113

> <Gold.Chemscore.Metal>
0.0000

> <Gold.Chemscore.Lipo>
56.4107

> <Gold.Chemscore.Internal_Hbond>
0.0000

> <Gold.Chemscore.DEClash>
0.0812

> <Gold.Chemscore.DEInternal>
2.4142

> <Gold.Chemscore.Rot>
1.5834

> <Gold.Chemscore.Internal.Correction>
   9.000000E+99

> <Gold.Chemscore.Hbonds>
donor molecule, donor type, donor heavy atom, donor atom, acceptor molecule, acceptor atom, score
      L1  H     8    27       P1  7948  0.98
      L1  H    12    46       P1  7948  1.00
      P1  H  7989  7998       L1    20  0.09
      P1  H  7997  8010       L1    21  0.96

> <Gold.Chemscore.Hbond.Weighted>
-12.7297

> <Gold.Chemscore.Metal.Weighted>
-0.0000

> <Gold.Chemscore.Lipo.Weighted>
-6.6001

> <Gold.Chemscore.Internal_Hbond.Weighted>
0.0000

> <Gold.Chemscore.DEClash.Weighted>
0.0812

> <Gold.Chemscore.DEInternal.Weighted>
2.4142

> <Gold.Chemscore.Rot.Weighted>
4.0535

> <Gold.Chemscore.Internal.Correction.Weighted>
   9.000000E+99

> <Gold.Protein.RotatedTorsions>
[ 6907 6896 6895 6894 ] final   30.40 input  -60.11 | X-H torsion
[ 7974 7965 7964 7962 ] final   48.10 input  175.53 | X-H torsion
[ 8008 7997 7996 7995 ] final   81.01 input   59.86 | X-H torsion
[ 10167 10162 10161 10158 ] final  -19.05 input  -65.29 | X-H torsion
[ 10718 10713 10712 10709 ] final  -45.64 input   66.30 | X-H torsion
[ 10763 10752 10751 10750 ] final -151.39 input  -60.55 | X-H torsion
[ 11005 11000 10999 10996 ] final  141.69 input  -57.11 | X-H torsion

> <Gold.Protein.ActiveResidues>
 VAL166  LYS551  ARG553  GLY616  TRP617  ASP618  TYR619  PRO620  LYS621  CYS622 
 ASP623  PHE694  ASN695  SER759  ASP760  ASP761  ALA762  ILE779  LEU786  VAL792 
 PHE793  MET794  SER795  GLU796  ALA797  LYS798  CYS799  TRP800  GLU811  SER814 

> <Gold.Protein.RotatedAtoms>
  152.0454  134.9686  160.0574 H   0  0  0  0  0  0  0  0  0  0  0  0  # atno 6907 bound_to 6896
  152.1108  133.4295  159.4638 H   0  0  0  0  0  0  0  0  0  0  0  0  # atno 6908 bound_to 6896
  150.6843  134.2569  159.4576 H   0  0  0  0  0  0  0  0  0  0  0  0  # atno 6909 bound_to 6896
  146.0236  139.4680  142.9882 H   0  0  0  0  0  0  0  0  0  0  0  0  # atno 7974 bound_to 7965
  155.8913  140.3438  155.5958 H   0  0  0  0  0  0  0  0  0  0  0  0  # atno 8008 bound_to 7997
  155.7608  140.0832  157.2175 H   0  0  0  0  0  0  0  0  0  0  0  0  # atno 8009 bound_to 7997
  154.4033  140.1536  156.2817 H   0  0  0  0  0  0  0  0  0  0  0  0  # atno 8010 bound_to 7997
  140.7265  143.4857  151.0058 H   0  0  0  0  0  0  0  0  0  0  0  0  # atno 10167 bound_to 10162
  156.2263  130.4169  149.8930 H   0  0  0  0  0  0  0  0  0  0  0  0  # atno 10718 bound_to 10713
  154.8061  135.3261  154.7428 H   0  0  0  0  0  0  0  0  0  0  0  0  # atno 10763 bound_to 10752
  153.8086  135.6897  153.4849 H   0  0  0  0  0  0  0  0  0  0  0  0  # atno 10764 bound_to 10752
  153.1807  135.4588  154.9969 H   0  0  0  0  0  0  0  0  0  0  0  0  # atno 10765 bound_to 10752
  140.0420  134.9300  157.0861 H   0  0  0  0  0  0  0  0  0  0  0  0  # atno 11005 bound_to 11000
  145.7154  141.0093  143.1431 LP  0  0  0  0  0  0  0  0  0  0  0  0  # atno 17320 bound_to 7965
  144.7000  139.8806  143.7447 LP  0  0  0  0  0  0  0  0  0  0  0  0  # atno 17321 bound_to 7965
  139.8558  143.7379  152.3176 LP  0  0  0  0  0  0  0  0  0  0  0  0  # atno 17342 bound_to 10162
  139.7577  144.7516  151.0411 LP  0  0  0  0  0  0  0  0  0  0  0  0  # atno 17343 bound_to 10162
  156.6559  130.8762  151.3539 LP  0  0  0  0  0  0  0  0  0  0  0  0  # atno 17370 bound_to 10713
  157.7112  130.9442  150.1096 LP  0  0  0  0  0  0  0  0  0  0  0  0  # atno 17371 bound_to 10713
  140.4053  134.2039  155.7163 LP  0  0  0  0  0  0  0  0  0  0  0  0  # atno 17394 bound_to 11000
  141.1888  133.8252  157.0981 LP  0  0  0  0  0  0  0  0  0  0  0  0  # atno 17395 bound_to 11000

$$$$
