AV-unprocessed.smi:1102|AV-procd|sdf|4769|dock5
  -GOLD-   22720 3303D 1   1.00000     0.00000
 Structure written by MMmdl.
 39 40  0  0  0  0  0  0  0  0  1 V2000
  144.9801  131.5558  151.1253 C   0  0  0  0  0  0  0  0  0  0  0  0
  144.4216  132.7467  150.4979 N   0  0  0  0  0  0  0  0  0  0  0  0
  143.7909  132.6499  149.1854 C   0  0  0  0  0  0  0  0  0  0  0  0
  144.5345  134.0055  151.1317 C   0  0  0  0  0  0  0  0  0  0  0  0
  144.5732  134.1228  152.5434 C   0  0  0  0  0  0  0  0  0  0  0  0
  144.6862  135.4003  153.1241 C   0  0  0  0  0  0  0  0  0  0  0  0
  144.7492  136.5344  152.2924 C   0  0  0  0  0  0  0  0  0  0  0  0
  144.8849  137.8088  152.9065 N   0  0  0  0  0  0  0  0  0  0  0  0
  145.6293  138.1482  153.9729 C   0  0  0  0  0  0  0  0  0  0  0  0
  146.3920  137.3945  154.5770 O   0  0  0  0  0  0  0  0  0  0  0  0
  145.4541  139.4376  154.2946 N   0  0  0  0  0  0  0  0  0  0  0  0
  146.0982  140.1181  155.4127 C   0  0  0  0  0  0  0  0  0  0  0  0
  146.6532  141.4900  154.9946 C   0  0  2  0  0  0  0  0  0  0  0  0
  145.5735  142.4780  154.5549 C   0  0  0  0  0  0  0  0  0  0  0  0
  146.3559  143.4084  153.6572 C   0  0  0  0  0  0  0  0  0  0  0  0
  147.2904  142.4349  152.9468 C   0  0  0  0  0  0  0  0  0  0  0  0
  147.5218  141.3736  153.8689 O   0  0  0  0  0  0  0  0  0  0  0  0
  144.7153  136.3221  150.8943 C   0  0  0  0  0  0  0  0  0  0  0  0
  144.6085  135.0989  150.3340 N   0  0  0  0  0  0  0  0  0  0  0  0
  146.0545  131.6691  151.2738 H   0  0  0  0  0  0  0  0  0  0  0  0
  144.8213  130.6710  150.5089 H   0  0  0  0  0  0  0  0  0  0  0  0
  144.5099  131.3745  152.0921 H   0  0  0  0  0  0  0  0  0  0  0  0
  144.3336  133.2506  148.4547 H   0  0  0  0  0  0  0  0  0  0  0  0
  142.7603  133.0036  149.2285 H   0  0  0  0  0  0  0  0  0  0  0  0
  143.7747  131.6211  148.8255 H   0  0  0  0  0  0  0  0  0  0  0  0
  144.5199  133.2613  153.1914 H   0  0  0  0  0  0  0  0  0  0  0  0
  144.7208  135.5043  154.1989 H   0  0  0  0  0  0  0  0  0  0  0  0
  144.3792  138.5599  152.4603 H   0  0  0  0  0  0  0  0  0  0  0  0
  144.8140  139.9845  153.7378 H   0  0  0  0  0  0  0  0  0  0  0  0
  145.4123  140.2189  156.2557 H   0  0  0  0  0  0  0  0  0  0  0  0
  146.9157  139.4838  155.7560 H   0  0  0  0  0  0  0  0  0  0  0  0
  147.2245  141.9317  155.8129 H   0  0  0  0  0  0  0  0  0  0  0  0
  144.7979  141.9716  153.9781 H   0  0  0  0  0  0  0  0  0  0  0  0
  145.0982  142.9896  155.3923 H   0  0  0  0  0  0  0  0  0  0  0  0
  145.7271  143.9754  152.9703 H   0  0  0  0  0  0  0  0  0  0  0  0
  146.9313  144.1136  154.2585 H   0  0  0  0  0  0  0  0  0  0  0  0
  146.8089  142.0220  152.0597 H   0  0  0  0  0  0  0  0  0  0  0  0
  148.2240  142.9050  152.6373 H   0  0  0  0  0  0  0  0  0  0  0  0
  144.7969  137.1338  150.1886 H   0  0  0  0  0  0  0  0  0  0  0  0
  1  2  1  0  0  0  0
  1 20  1  0  0  0  0
  1 21  1  0  0  0  0
  1 22  1  0  0  0  0
  2  3  1  0  0  0  0
  2  4  1  0  0  0  0
  3 23  1  0  0  0  0
  3 24  1  0  0  0  0
  3 25  1  0  0  0  0
  4 19  1  0  0  0  0
  4  5  2  0  0  0  0
  5  6  1  0  0  0  0
  5 26  1  0  0  0  0
  6  7  2  0  0  0  0
  6 27  1  0  0  0  0
  7  8  1  0  0  0  0
  7 18  1  0  0  0  0
  8  9  1  0  0  0  0
  8 28  1  0  0  0  0
  9 10  2  0  0  0  0
  9 11  1  0  0  0  0
 11 12  1  0  0  0  0
 11 29  1  0  0  0  0
 12 13  1  0  0  0  0
 12 30  1  0  0  0  0
 12 31  1  0  0  0  0
 13 17  1  0  0  0  0
 13 14  1  0  0  0  0
 13 32  1  0  0  0  0
 14 15  1  0  0  0  0
 14 33  1  0  0  0  0
 14 34  1  0  0  0  0
 15 16  1  0  0  0  0
 15 35  1  0  0  0  0
 15 36  1  0  0  0  0
 16 17  1  0  0  0  0
 16 37  1  0  0  0  0
 16 38  1  0  0  0  0
 18 19  2  0  0  0  0
 18 39  1  0  0  0  0
M  END
> <s_m_source_file>
AV-unprocessed.smi

> <i_m_source_file_index>
1102

> <i_lp_mmshare_version>
43012

> <i_f3d_flags>
0

> <s_epik_input>
W0NIM11OKFtDSDNdKWMxW2NIXVtjSF1jKFtjSF1uMSlbTkhdQyg9TylbTkhdW0NIMl1bQ0BASF0yW0NIMl1bQ0gyXVtDSDJdTzI=

> <s_epik_cmdline>
J2VwaWtfcHl0aG9uJywgJy1waCcsICc3LjAnLCAnLXRuJywgJzgnLCAnLW1hJywgJzIwMCcsICctbWV0YWxfYmluZGluZycsICctaW1hZScsICc8aW5maWxlLm1hZT4nLCAnLW9tYWUnLCAnPG91dGZpbGUubWFlPic=

> <r_lp_tautomer_probability>
1

> <r_epik_Ionization_Penalty>
0.605145

> <r_epik_Ionization_Penalty_Charging>
0

> <r_epik_Ionization_Penalty_Neutral>
0.605145

> <r_epik_State_Penalty>
0.618734

> <r_epik_Charging_Adjusted_Penalty>
0.618734

> <i_epik_Tot_Q>
0

> <i_epik_Tot_abs_Q>
0

> <r_epik_Metal_State_Penalty>
0.302184

> <b_epik_Metal_Only>
0

> <s_lp_Force_Field>
OPLS_2005

> <r_lp_Energy>
22.0104

> <b_lp_Chiralities_Consistent>
1

> <s_lp_Variant>
AV-unprocessed.smi:1102-3

> <Gold.Version>
5.8.1

> <Gold.Id.Protein>
6NUR|6NUR_protein|mol2

> <Gold.PLP.Fitness>
36.5337

> <Gold.PLP.PLP>
-29.4646

> <Gold.PLP.part.hbond>
-2.0000

> <Gold.PLP.part.metal>
0.0000

> <Gold.PLP.part.buried>
-3.5784

> <Gold.PLP.part.nonpolar>
-23.9785

> <Gold.PLP.part.repulsive>
0.3852

> <Gold.PLP.ligand.clash>
0.0000

> <Gold.PLP.ligand.torsion>
0.7745

> <Gold.PLP.Chemscore.Hbond>
2.0000

> <Gold.PLP.Chemscore.CHOScore>
0.8697

> <Gold.PLP.Chemscore.Metal>
0.0000

> <Gold.Chemscore.Hbonds>
donor molecule, donor type, donor heavy atom, donor atom, acceptor molecule, acceptor atom, score
      L1  H     8    28       P1 10175  1.00
      L1  H    11    29       P1 10175  1.00
      L1  C    18    39       P1 10171  0.31

> <Gold.PLP.Chemscore.Internal.Correction>
0.0089

> <Gold.Rescore>
     Score         DG    S(hbond)    S(metal)    S(lipo)     H(rot)  DE(clash)    DE(int)     intcor
     12.10     -15.92       1.94        0.00      60.56       1.21       1.52       2.30       ----

> <Gold.Chemscore.Fitness>
12.0984

> <Gold.Chemscore.DG>
-15.9210

> <Gold.Chemscore.ZeroCoef>
-5.4800

> <Gold.Chemscore.Hbond>
1.9358

> <Gold.Chemscore.Metal>
0.0000

> <Gold.Chemscore.Lipo>
60.5551

> <Gold.Chemscore.Internal_Hbond>
0.0000

> <Gold.Chemscore.DEClash>
1.5194

> <Gold.Chemscore.DEInternal>
2.3032

> <Gold.Chemscore.Rot>
1.2146

> <Gold.Chemscore.Internal.Correction>
   9.000000E+99

> <Gold.Chemscore.Hbonds>
donor molecule, donor type, donor heavy atom, donor atom, acceptor molecule, acceptor atom, score
      L1  H     8    28       P1 10175  0.92
      L1  H    11    29       P1 10175  1.00

> <Gold.Chemscore.Hbond.Weighted>
-6.4654

> <Gold.Chemscore.Metal.Weighted>
-0.0000

> <Gold.Chemscore.Lipo.Weighted>
-7.0849

> <Gold.Chemscore.Internal_Hbond.Weighted>
0.0000

> <Gold.Chemscore.DEClash.Weighted>
1.5194

> <Gold.Chemscore.DEInternal.Weighted>
2.3032

> <Gold.Chemscore.Rot.Weighted>
3.1093

> <Gold.Chemscore.Internal.Correction.Weighted>
   9.000000E+99

> <Gold.Protein.RotatedTorsions>
[ 6907 6896 6895 6894 ] final  147.99 input  -60.11 | X-H torsion
[ 7974 7965 7964 7962 ] final  174.14 input  175.53 | X-H torsion
[ 8008 7997 7996 7995 ] final -177.28 input   59.86 | X-H torsion
[ 10167 10162 10161 10158 ] final  154.88 input  -65.29 | X-H torsion
[ 10718 10713 10712 10709 ] final  -26.07 input   66.30 | X-H torsion
[ 10763 10752 10751 10750 ] final  -21.05 input  -60.55 | X-H torsion
[ 11005 11000 10999 10996 ] final  -67.34 input  -57.11 | X-H torsion

> <Gold.Protein.ActiveResidues>
 VAL166  LYS551  ARG553  GLY616  TRP617  ASP618  TYR619  PRO620  LYS621  CYS622 
 ASP623  PHE694  ASN695  SER759  ASP760  ASP761  ALA762  ILE779  LEU786  VAL792 
 PHE793  MET794  SER795  GLU796  ALA797  LYS798  CYS799  TRP800  GLU811  SER814 

> <Gold.Protein.RotatedAtoms>
  152.1475  133.4501  159.4796 H   0  0  0  0  0  0  0  0  0  0  0  0  # atno 6907 bound_to 6896
  150.6892  134.2230  159.4413 H   0  0  0  0  0  0  0  0  0  0  0  0  # atno 6908 bound_to 6896
  152.0125  134.9868  160.0619 H   0  0  0  0  0  0  0  0  0  0  0  0  # atno 6909 bound_to 6896
  144.7228  139.9752  143.6438 H   0  0  0  0  0  0  0  0  0  0  0  0  # atno 7974 bound_to 7965
  156.0050  140.1228  157.0510 H   0  0  0  0  0  0  0  0  0  0  0  0  # atno 8008 bound_to 7997
  154.4255  140.1099  156.5819 H   0  0  0  0  0  0  0  0  0  0  0  0  # atno 8009 bound_to 7997
  155.6159  140.3472  155.4639 H   0  0  0  0  0  0  0  0  0  0  0  0  # atno 8010 bound_to 7997
  139.4822  144.5148  151.7969 H   0  0  0  0  0  0  0  0  0  0  0  0  # atno 10167 bound_to 10162
  156.4561  130.4494  149.6958 H   0  0  0  0  0  0  0  0  0  0  0  0  # atno 10718 bound_to 10713
  153.6301  135.6989  153.5279 H   0  0  0  0  0  0  0  0  0  0  0  0  # atno 10763 bound_to 10752
  153.2867  135.4169  155.1128 H   0  0  0  0  0  0  0  0  0  0  0  0  # atno 10764 bound_to 10752
  154.8524  135.3615  154.5843 H   0  0  0  0  0  0  0  0  0  0  0  0  # atno 10765 bound_to 10752
  141.1505  133.6717  156.6278 H   0  0  0  0  0  0  0  0  0  0  0  0  # atno 11005 bound_to 11000
  146.0531  139.3531  143.0627 LP  0  0  0  0  0  0  0  0  0  0  0  0  # atno 17320 bound_to 7965
  145.8189  140.9689  143.0909 LP  0  0  0  0  0  0  0  0  0  0  0  0  # atno 17321 bound_to 7965
  140.4655  144.1661  150.5911 LP  0  0  0  0  0  0  0  0  0  0  0  0  # atno 17342 bound_to 10162
  140.4439  143.2515  151.9437 LP  0  0  0  0  0  0  0  0  0  0  0  0  # atno 17343 bound_to 10162
  156.3765  130.7557  151.2546 LP  0  0  0  0  0  0  0  0  0  0  0  0  # atno 17370 bound_to 10713
  157.7500  131.0308  150.4152 LP  0  0  0  0  0  0  0  0  0  0  0  0  # atno 17371 bound_to 10713
  140.3490  134.7785  157.4453 LP  0  0  0  0  0  0  0  0  0  0  0  0  # atno 17394 bound_to 11000
  140.0876  134.5645  155.8476 LP  0  0  0  0  0  0  0  0  0  0  0  0  # atno 17395 bound_to 11000

$$$$
