AV-unprocessed.smi:974|AV-procd|sdf|4300|dock1
  -GOLD-   22720 2203D 1   1.00000     0.00000
 Structure written by MMmdl.
 31 32  0  0  0  0  0  0  0  0  1 V2000
  148.3808  137.2608  154.3011 N   0  0  0  0  0  0  0  0  0  0  0  0
  149.1181  138.4438  154.4957 C   0  0  0  0  0  0  0  0  0  0  0  0
  150.4590  138.7457  154.1261 C   0  0  0  0  0  0  0  0  0  0  0  0
  150.8203  139.9705  154.4741 N   0  0  0  0  0  0  0  0  0  0  0  0
  149.7261  140.4888  155.0747 N   0  0  0  0  0  0  0  0  0  0  0  0
  149.7573  141.8458  155.5894 C   0  0  0  0  0  0  0  0  0  0  0  0
  150.8881  142.0224  156.6029 C   0  0  0  0  0  0  0  0  0  0  0  0
  151.5905  141.0611  156.9152 O   0  0  0  0  0  0  0  0  0  0  0  0
  151.0519  143.2552  157.1070 N   0  0  0  0  0  0  0  0  0  0  0  0
  152.0593  143.6341  158.0938 C   0  0  0  0  0  0  0  0  0  0  0  0
  151.8946  142.8122  159.3870 C   0  0  0  0  0  0  0  0  0  0  0  0
  151.9355  143.8192  160.5381 C   0  0  0  0  0  0  0  0  0  0  0  0
  151.3761  145.1035  159.9350 C   0  0  0  0  0  0  0  0  0  0  0  0
  151.9225  145.1136  158.5074 C   0  0  0  0  0  0  0  0  0  0  0  0
  148.6819  139.5874  155.1011 C   0  0  0  0  0  0  0  0  0  0  0  0
  147.4245  137.1709  154.6132 H   0  0  0  0  0  0  0  0  0  0  0  0
  148.7738  136.4571  153.8324 H   0  0  0  0  0  0  0  0  0  0  0  0
  151.1760  138.1167  153.6194 H   0  0  0  0  0  0  0  0  0  0  0  0
  149.8956  142.5336  154.7542 H   0  0  0  0  0  0  0  0  0  0  0  0
  148.7969  142.0874  156.0481 H   0  0  0  0  0  0  0  0  0  0  0  0
  150.4242  143.9815  156.7937 H   0  0  0  0  0  0  0  0  0  0  0  0
  153.0549  143.4629  157.6799 H   0  0  0  0  0  0  0  0  0  0  0  0
  150.9301  142.3015  159.3986 H   0  0  0  0  0  0  0  0  0  0  0  0
  152.6638  142.0458  159.4888 H   0  0  0  0  0  0  0  0  0  0  0  0
  151.3731  143.4838  161.4100 H   0  0  0  0  0  0  0  0  0  0  0  0
  152.9685  143.9807  160.8495 H   0  0  0  0  0  0  0  0  0  0  0  0
  150.2866  145.0541  159.9114 H   0  0  0  0  0  0  0  0  0  0  0  0
  151.6585  145.9924  160.4997 H   0  0  0  0  0  0  0  0  0  0  0  0
  152.9100  145.5772  158.5045 H   0  0  0  0  0  0  0  0  0  0  0  0
  151.2942  145.6994  157.8351 H   0  0  0  0  0  0  0  0  0  0  0  0
  147.7276  139.8350  155.5427 H   0  0  0  0  0  0  0  0  0  0  0  0
  1  2  1  0  0  0  0
  1 16  1  0  0  0  0
  1 17  1  0  0  0  0
  2 15  2  0  0  0  0
  2  3  1  0  0  0  0
  3  4  2  0  0  0  0
  3 18  1  0  0  0  0
  4  5  1  0  0  0  0
  5  6  1  0  0  0  0
  5 15  1  0  0  0  0
  6  7  1  0  0  0  0
  6 19  1  0  0  0  0
  6 20  1  0  0  0  0
  7  8  2  0  0  0  0
  7  9  1  0  0  0  0
  9 10  1  0  0  0  0
  9 21  1  0  0  0  0
 10 14  1  0  0  0  0
 10 11  1  0  0  0  0
 10 22  1  0  0  0  0
 11 12  1  0  0  0  0
 11 23  1  0  0  0  0
 11 24  1  0  0  0  0
 12 13  1  0  0  0  0
 12 25  1  0  0  0  0
 12 26  1  0  0  0  0
 13 14  1  0  0  0  0
 13 27  1  0  0  0  0
 13 28  1  0  0  0  0
 14 29  1  0  0  0  0
 14 30  1  0  0  0  0
 15 31  1  0  0  0  0
M  END
> <s_m_source_file>
AV-unprocessed.smi

> <i_m_source_file_index>
974

> <i_lp_mmshare_version>
43012

> <i_f3d_flags>
0

> <s_epik_input>
W05IMl1jMVtjSF1ubihbY0hdMSlbQ0gyXUMoPU8pW05IXVtDSF0yW0NIMl1bQ0gyXVtDSDJdW0NIMl0y

> <s_epik_cmdline>
J2VwaWtfcHl0aG9uJywgJy1waCcsICc3LjAnLCAnLXRuJywgJzgnLCAnLW1hJywgJzIwMCcsICctbWV0YWxfYmluZGluZycsICctaW1hZScsICc8aW5maWxlLm1hZT4nLCAnLW9tYWUnLCAnPG91dGZpbGUubWFlPic=

> <r_lp_tautomer_probability>
1

> <r_epik_Ionization_Penalty>
0.000104856

> <r_epik_Ionization_Penalty_Charging>
0

> <r_epik_Ionization_Penalty_Neutral>
0.000104856

> <r_epik_State_Penalty>
-0

> <r_epik_Charging_Adjusted_Penalty>
0

> <i_epik_Tot_Q>
0

> <i_epik_Tot_abs_Q>
0

> <r_epik_Metal_State_Penalty>
-0

> <b_epik_Metal_Only>
0

> <s_lp_Force_Field>
OPLS_2005

> <r_lp_Energy>
19.843

> <b_lp_Chiralities_Consistent>
1

> <s_lp_Variant>
AV-unprocessed.smi:974-1

> <Gold.Version>
5.8.1

> <Gold.Id.Protein>
6NUR|6NUR_protein|mol2

> <Gold.PLP.Fitness>
41.7348

> <Gold.PLP.PLP>
-34.1683

> <Gold.PLP.part.hbond>
-3.0000

> <Gold.PLP.part.metal>
0.0000

> <Gold.PLP.part.buried>
-3.6987

> <Gold.PLP.part.nonpolar>
-27.6786

> <Gold.PLP.part.repulsive>
0.1272

> <Gold.PLP.ligand.clash>
0.0000

> <Gold.PLP.ligand.torsion>
0.0215

> <Gold.PLP.Chemscore.Hbond>
2.5353

> <Gold.PLP.Chemscore.CHOScore>
0.0000

> <Gold.PLP.Chemscore.Metal>
0.0000

> <Gold.Chemscore.Hbonds>
donor molecule, donor type, donor heavy atom, donor atom, acceptor molecule, acceptor atom, score
      L1  H     1    17       P1  7948  0.53
      L1  H     9    21       P1  8028  1.00
      P1  H  7989  7998       L1     4  1.00

> <Gold.PLP.Chemscore.Internal.Correction>
0.0037

> <Gold.Rescore>
     Score         DG    S(hbond)    S(metal)    S(lipo)     H(rot)  DE(clash)    DE(int)     intcor
     18.00     -19.43       2.46        0.00      84.18       1.61       0.07       1.35       ----

> <Gold.Chemscore.Fitness>
18.0029

> <Gold.Chemscore.DG>
-19.4282

> <Gold.Chemscore.ZeroCoef>
-5.4800

> <Gold.Chemscore.Hbond>
2.4603

> <Gold.Chemscore.Metal>
0.0000

> <Gold.Chemscore.Lipo>
84.1846

> <Gold.Chemscore.Internal_Hbond>
0.0000

> <Gold.Chemscore.DEClash>
0.0726

> <Gold.Chemscore.DEInternal>
1.3527

> <Gold.Chemscore.Rot>
1.6089

> <Gold.Chemscore.Internal.Correction>
   9.000000E+99

> <Gold.Chemscore.Hbonds>
donor molecule, donor type, donor heavy atom, donor atom, acceptor molecule, acceptor atom, score
      L1  H     1    17       P1  7948  0.51
      L1  H     9    21       P1  8028  0.91
      P1  H  7989  7998       L1     4  0.90

> <Gold.Chemscore.Hbond.Weighted>
-8.2174

> <Gold.Chemscore.Metal.Weighted>
-0.0000

> <Gold.Chemscore.Lipo.Weighted>
-9.8496

> <Gold.Chemscore.Internal_Hbond.Weighted>
0.0000

> <Gold.Chemscore.DEClash.Weighted>
0.0726

> <Gold.Chemscore.DEInternal.Weighted>
1.3527

> <Gold.Chemscore.Rot.Weighted>
4.1188

> <Gold.Chemscore.Internal.Correction.Weighted>
   9.000000E+99

> <Gold.Protein.RotatedTorsions>
[ 6907 6896 6895 6894 ] final  -49.16 input  -60.11 | X-H torsion
[ 7974 7965 7964 7962 ] final -156.77 input  175.53 | X-H torsion
[ 8008 7997 7996 7995 ] final    6.02 input   59.86 | X-H torsion
[ 10167 10162 10161 10158 ] final   70.45 input  -65.29 | X-H torsion
[ 10718 10713 10712 10709 ] final   33.81 input   66.30 | X-H torsion
[ 10763 10752 10751 10750 ] final  -56.04 input  -60.55 | X-H torsion
[ 11005 11000 10999 10996 ] final   83.82 input  -57.11 | X-H torsion

> <Gold.Protein.ActiveResidues>
 VAL166  LYS551  ARG553  GLY616  TRP617  ASP618  TYR619  PRO620  LYS621  CYS622 
 ASP623  PHE694  ASN695  SER759  ASP760  ASP761  ALA762  ILE779  LEU786  VAL792 
 PHE793  MET794  SER795  GLU796  ALA797  LYS798  CYS799  TRP800  GLU811  SER814 

> <Gold.Protein.RotatedAtoms>
  150.8833  134.8227  159.7240 H   0  0  0  0  0  0  0  0  0  0  0  0  # atno 6907 bound_to 6896
  152.4791  134.4762  159.9661 H   0  0  0  0  0  0  0  0  0  0  0  0  # atno 6908 bound_to 6896
  151.4834  133.3502  159.2877 H   0  0  0  0  0  0  0  0  0  0  0  0  # atno 6909 bound_to 6896
  144.7578  140.4063  143.5999 H   0  0  0  0  0  0  0  0  0  0  0  0  # atno 7974 bound_to 7965
  154.7357  140.2739  155.6416 H   0  0  0  0  0  0  0  0  0  0  0  0  # atno 8008 bound_to 7997
  156.2861  140.2707  156.1996 H   0  0  0  0  0  0  0  0  0  0  0  0  # atno 8009 bound_to 7997
  155.0323  140.0371  157.2468 H   0  0  0  0  0  0  0  0  0  0  0  0  # atno 8010 bound_to 7997
  140.0568  144.5266  150.7323 H   0  0  0  0  0  0  0  0  0  0  0  0  # atno 10167 bound_to 10162
  157.3026  130.7358  149.6676 H   0  0  0  0  0  0  0  0  0  0  0  0  # atno 10718 bound_to 10713
  154.2004  135.6412  153.5085 H   0  0  0  0  0  0  0  0  0  0  0  0  # atno 10763 bound_to 10752
  153.0013  135.5450  154.6322 H   0  0  0  0  0  0  0  0  0  0  0  0  # atno 10764 bound_to 10752
  154.5733  135.2918  155.0779 H   0  0  0  0  0  0  0  0  0  0  0  0  # atno 10765 bound_to 10752
  139.9019  134.8172  156.2362 H   0  0  0  0  0  0  0  0  0  0  0  0  # atno 11005 bound_to 11000
  145.6721  139.1601  143.2749 LP  0  0  0  0  0  0  0  0  0  0  0  0  # atno 17320 bound_to 7965
  146.1608  140.6791  142.9278 LP  0  0  0  0  0  0  0  0  0  0  0  0  # atno 17321 bound_to 7965
  140.7191  143.2571  151.4339 LP  0  0  0  0  0  0  0  0  0  0  0  0  # atno 17342 bound_to 10162
  139.5918  144.1482  152.2097 LP  0  0  0  0  0  0  0  0  0  0  0  0  # atno 17343 bound_to 10162
  155.9672  130.4275  150.4748 LP  0  0  0  0  0  0  0  0  0  0  0  0  # atno 17370 bound_to 10713
  157.2732  131.0591  151.2246 LP  0  0  0  0  0  0  0  0  0  0  0  0  # atno 17371 bound_to 10713
  141.0314  133.6986  156.1437 LP  0  0  0  0  0  0  0  0  0  0  0  0  # atno 17394 bound_to 11000
  140.7091  134.4481  157.5582 LP  0  0  0  0  0  0  0  0  0  0  0  0  # atno 17395 bound_to 11000

$$$$
