AV-unprocessed.smi:256|AV-procd|sdf|1957|dock3
  -GOLD-   2262021103D 1   1.00000     0.00000
 Structure written by MMmdl.
 62 65  0  0  0  0  0  0  0  0  2 V2000
  145.5296  138.2431  154.3681 C   0  0  0  0  0  0  0  0  0  0  0  0
  146.0195  136.8490  153.9471 C   0  0  0  0  0  0  0  0  0  0  0  0
  147.3046  136.3627  154.6703 C   0  0  2  0  0  0  0  0  0  0  0  0
  148.4297  137.4196  154.5419 C   0  0  0  0  0  0  0  0  0  0  0  0
  149.6765  136.9758  155.1579 N   0  0  0  0  0  0  0  0  0  0  0  0
  150.5864  137.9410  155.4593 C   0  0  0  0  0  0  0  0  0  0  0  0
  151.8811  137.5531  155.6005 N   0  0  0  0  0  0  0  0  0  0  0  0
  152.8338  138.4461  155.8810 C   0  0  0  0  0  0  0  0  0  0  0  0
  152.7155  139.7617  156.0597 N   0  0  0  0  0  0  0  0  0  0  0  0
  151.4198  140.1640  155.9268 C   0  0  0  0  0  0  0  0  0  0  0  0
  150.3017  139.3313  155.6279 C   0  0  0  0  0  0  0  0  0  0  0  0
  149.1481  140.1085  155.5784 N   0  0  0  0  0  0  0  0  0  0  0  0
  149.5608  141.3222  155.8184 C   0  0  0  0  0  0  0  0  0  0  0  0
  150.9110  141.4452  156.0495 N   0  0  0  0  0  0  0  0  0  0  0  0
  151.6359  142.6720  156.3438 C   0  0  0  0  0  0  0  0  0  0  0  0
  151.3965  143.2230  157.7719 C   0  0  0  0  0  0  0  0  0  0  0  0
  150.0078  143.4629  157.9176 O   0  0  0  0  0  0  0  0  0  0  0  0
  151.8248  142.1792  158.8234 C   0  0  0  0  0  0  0  0  0  0  0  0
  151.7734  142.7389  160.2559 C   0  0  0  0  0  0  0  0  0  0  0  0
  152.5643  143.9176  160.3451 O   0  0  0  0  0  0  0  0  0  0  0  0
  152.0817  144.9667  159.5148 C   0  0  0  0  0  0  0  0  0  0  0  0
  152.1477  144.5466  158.0353 C   0  0  0  0  0  0  0  0  0  0  0  0
  150.1455  135.6722  154.7175 C   0  0  0  0  0  0  0  0  0  0  0  0
  149.0439  134.6181  154.8699 C   0  0  0  0  0  0  0  0  0  0  0  0
  147.7810  135.0215  154.1892 N   0  3  1  0  0  0  0  0  0  0  0  0
  146.7370  133.9533  154.2421 C   0  0  0  0  0  0  0  0  0  0  0  0
  146.6775  133.0456  152.9986 C   0  0  0  0  0  0  0  0  0  0  0  0
  146.4938  133.8333  151.8331 O   0  0  0  0  0  0  0  0  0  0  0  0
  146.3956  133.0505  150.6563 C   0  0  0  0  0  0  0  0  0  0  0  0
  144.5586  138.4582  153.9216 H   0  0  0  0  0  0  0  0  0  0  0  0
  146.2102  139.0304  154.0449 H   0  0  0  0  0  0  0  0  0  0  0  0
  145.4165  138.3120  155.4505 H   0  0  0  0  0  0  0  0  0  0  0  0
  145.1918  136.1741  154.1585 H   0  0  0  0  0  0  0  0  0  0  0  0
  146.1692  136.8305  152.8670 H   0  0  0  0  0  0  0  0  0  0  0  0
  147.0686  136.2571  155.7309 H   0  0  0  0  0  0  0  0  0  0  0  0
  148.6231  137.6337  153.4898 H   0  0  0  0  0  0  0  0  0  0  0  0
  148.1004  138.3537  154.9947 H   0  0  0  0  0  0  0  0  0  0  0  0
  153.8345  138.0506  155.9745 H   0  0  0  0  0  0  0  0  0  0  0  0
  148.8862  142.1657  155.8420 H   0  0  0  0  0  0  0  0  0  0  0  0
  152.6995  142.4901  156.1813 H   0  0  0  0  0  0  0  0  0  0  0  0
  151.3421  143.4174  155.6036 H   0  0  0  0  0  0  0  0  0  0  0  0
  149.6435  143.6519  157.0664 H   0  0  0  0  0  0  0  0  0  0  0  0
  151.2062  141.2839  158.7489 H   0  0  0  0  0  0  0  0  0  0  0  0
  152.8472  141.8600  158.6173 H   0  0  0  0  0  0  0  0  0  0  0  0
  150.7475  142.9497  160.5613 H   0  0  0  0  0  0  0  0  0  0  0  0
  152.1654  142.0017  160.9564 H   0  0  0  0  0  0  0  0  0  0  0  0
  151.0640  145.2345  159.8024 H   0  0  0  0  0  0  0  0  0  0  0  0
  152.6970  145.8518  159.6774 H   0  0  0  0  0  0  0  0  0  0  0  0
  153.1950  144.4271  157.7552 H   0  0  0  0  0  0  0  0  0  0  0  0
  151.7526  145.3496  157.4124 H   0  0  0  0  0  0  0  0  0  0  0  0
  150.4571  135.7359  153.6740 H   0  0  0  0  0  0  0  0  0  0  0  0
  151.0129  135.3649  155.3028 H   0  0  0  0  0  0  0  0  0  0  0  0
  149.4328  133.6898  154.4554 H   0  0  0  0  0  0  0  0  0  0  0  0
  148.8421  134.4376  155.9271 H   0  0  0  0  0  0  0  0  0  0  0  0
  146.8437  133.3555  155.1485 H   0  0  0  0  0  0  0  0  0  0  0  0
  145.7594  134.4282  154.2910 H   0  0  0  0  0  0  0  0  0  0  0  0
  147.6241  132.5112  152.9022 H   0  0  0  0  0  0  0  0  0  0  0  0
  145.8943  132.2922  153.1014 H   0  0  0  0  0  0  0  0  0  0  0  0
  146.2544  133.7018  149.7938 H   0  0  0  0  0  0  0  0  0  0  0  0
  145.5452  132.3694  150.7065 H   0  0  0  0  0  0  0  0  0  0  0  0
  147.3030  132.4679  150.4929 H   0  0  0  0  0  0  0  0  0  0  0  0
  148.0155  135.1397  153.2140 H   0  0  0  0  0  0  0  0  0  0  0  0
  1  2  1  0  0  0  0
  1 30  1  0  0  0  0
  1 31  1  0  0  0  0
  1 32  1  0  0  0  0
  2  3  1  0  0  0  0
  2 33  1  0  0  0  0
  2 34  1  0  0  0  0
  3 25  1  0  0  0  0
  3  4  1  0  0  0  0
  3 35  1  0  0  0  0
  4  5  1  0  0  0  0
  4 36  1  0  0  0  0
  4 37  1  0  0  0  0
  5  6  1  0  0  0  0
  5 23  1  0  0  0  0
  6 11  1  0  0  0  0
  6  7  2  0  0  0  0
  7  8  1  0  0  0  0
  8  9  2  0  0  0  0
  8 38  1  0  0  0  0
  9 10  1  0  0  0  0
 10 14  1  0  0  0  0
 10 11  2  0  0  0  0
 11 12  1  0  0  0  0
 12 13  2  0  0  0  0
 13 14  1  0  0  0  0
 13 39  1  0  0  0  0
 14 15  1  0  0  0  0
 15 16  1  0  0  0  0
 15 40  1  0  0  0  0
 15 41  1  0  0  0  0
 16 22  1  0  0  0  0
 16 17  1  0  0  0  0
 16 18  1  0  0  0  0
 17 42  1  0  0  0  0
 18 19  1  0  0  0  0
 18 43  1  0  0  0  0
 18 44  1  0  0  0  0
 19 20  1  0  0  0  0
 19 45  1  0  0  0  0
 19 46  1  0  0  0  0
 20 21  1  0  0  0  0
 21 22  1  0  0  0  0
 21 47  1  0  0  0  0
 21 48  1  0  0  0  0
 22 49  1  0  0  0  0
 22 50  1  0  0  0  0
 23 24  1  0  0  0  0
 23 51  1  0  0  0  0
 23 52  1  0  0  0  0
 24 25  1  0  0  0  0
 24 53  1  0  0  0  0
 24 54  1  0  0  0  0
 25 26  1  0  0  0  0
 25 62  1  0  0  0  0
 26 27  1  0  0  0  0
 26 55  1  0  0  0  0
 26 56  1  0  0  0  0
 27 28  1  0  0  0  0
 27 57  1  0  0  0  0
 27 58  1  0  0  0  0
 28 29  1  0  0  0  0
 29 59  1  0  0  0  0
 29 60  1  0  0  0  0
 29 61  1  0  0  0  0
M  CHG  1  25   1
M  END
> <s_m_source_file>
AV-unprocessed.smi

> <i_m_source_file_index>
256

> <i_lp_mmshare_version>
43012

> <i_f3d_flags>
0

> <s_epik_input>
W0NIM11PW0NIMl1bQ0gyXU4xW0NIMl1bQ0gyXU4oW0NIMl1bQ0BIXTFbQ0gyXVtDSDNdKWMobltjSF1uMiljKGMyMyluW2NIXW4zW0NIMl1DNChbT0hdKVtDSDJdW0NIMl1PW0NIMl1bQ0gyXTQ=

> <s_epik_cmdline>
J2VwaWtfcHl0aG9uJywgJy1waCcsICc3LjAnLCAnLXRuJywgJzgnLCAnLW1hJywgJzIwMCcsICctbWV0YWxfYmluZGluZycsICctaW1hZScsICc8aW5maWxlLm1hZT4nLCAnLW9tYWUnLCAnPG91dGZpbGUubWFlPic=

> <r_lp_tautomer_probability>
1

> <r_epik_Ionization_Penalty>
0.233023

> <r_epik_Ionization_Penalty_Charging>
0.23295

> <r_epik_Ionization_Penalty_Neutral>
7.2493e-05

> <r_epik_State_Penalty>
0.223667

> <r_epik_Charging_Adjusted_Penalty>
0.456618

> <i_epik_Tot_Q>
1

> <i_epik_Tot_abs_Q>
1

> <r_epik_Metal_State_Penalty>
0.226879

> <b_epik_Metal_Only>
0

> <s_lp_Force_Field>
OPLS_2005

> <r_lp_Energy>
46.9599

> <b_lp_Chiralities_Consistent>
1

> <s_lp_Variant>
AV-unprocessed.smi:256-1

> <Gold.Version>
5.8.1

> <Gold.Id.Protein>
6NUR|6NUR_protein|mol2

> <Gold.PLP.Fitness>
52.2587

> <Gold.PLP.PLP>
-38.8600

> <Gold.PLP.part.hbond>
-3.4625

> <Gold.PLP.part.metal>
0.0000

> <Gold.PLP.part.buried>
-2.1508

> <Gold.PLP.part.nonpolar>
-32.8841

> <Gold.PLP.part.repulsive>
0.2644

> <Gold.PLP.ligand.clash>
0.0000

> <Gold.PLP.ligand.torsion>
0.8587

> <Gold.PLP.Chemscore.Hbond>
4.1446

> <Gold.PLP.Chemscore.CHOScore>
0.7384

> <Gold.PLP.Chemscore.Metal>
0.0000

> <Gold.Chemscore.Hbonds>
donor molecule, donor type, donor heavy atom, donor atom, acceptor molecule, acceptor atom, score
      L1  H    17    42       P1  8028  1.00
      L1  H    25    62       P1  7948  1.92
      P1  H  7997  8009       L1     9  0.95
      P1  H 10752 10765       L1     7  0.03
      L1  C    13    39       P1  8028  0.94

> <Gold.PLP.Chemscore.Internal.Correction>
0.4669

> <Gold.Rescore>
     Score         DG    S(hbond)    S(metal)    S(lipo)     H(rot)  DE(clash)    DE(int)     intcor
     14.20     -19.48       2.59        0.00     103.62       2.65       2.34       2.94       ----

> <Gold.Chemscore.Fitness>
14.2002

> <Gold.Chemscore.DG>
-19.4785

> <Gold.Chemscore.ZeroCoef>
-5.4800

> <Gold.Chemscore.Hbond>
2.5894

> <Gold.Chemscore.Metal>
0.0000

> <Gold.Chemscore.Lipo>
103.6236

> <Gold.Chemscore.Internal_Hbond>
0.0000

> <Gold.Chemscore.DEClash>
2.3356

> <Gold.Chemscore.DEInternal>
2.9427

> <Gold.Chemscore.Rot>
2.6462

> <Gold.Chemscore.Internal.Correction>
   9.000000E+99

> <Gold.Chemscore.Hbonds>
donor molecule, donor type, donor heavy atom, donor atom, acceptor molecule, acceptor atom, score
      L1  H    17    42       P1  8028  0.91
      L1  H    25    62       P1  7948  0.91
      P1  H  7997  8009       L1     9  0.22
      P1  H 10752 10765       L1     7  0.05

> <Gold.Chemscore.Hbond.Weighted>
-8.6488

> <Gold.Chemscore.Metal.Weighted>
-0.0000

> <Gold.Chemscore.Lipo.Weighted>
-12.1240

> <Gold.Chemscore.Internal_Hbond.Weighted>
0.0000

> <Gold.Chemscore.DEClash.Weighted>
2.3356

> <Gold.Chemscore.DEInternal.Weighted>
2.9427

> <Gold.Chemscore.Rot.Weighted>
6.7742

> <Gold.Chemscore.Internal.Correction.Weighted>
   9.000000E+99

> <Gold.Protein.RotatedTorsions>
[ 6907 6896 6895 6894 ] final -107.23 input  -60.11 | X-H torsion
[ 7974 7965 7964 7962 ] final  -11.63 input  175.53 | X-H torsion
[ 8008 7997 7996 7995 ] final -162.99 input   59.86 | X-H torsion
[ 10167 10162 10161 10158 ] final  -26.93 input  -65.29 | X-H torsion
[ 10718 10713 10712 10709 ] final   83.62 input   66.30 | X-H torsion
[ 10763 10752 10751 10750 ] final -174.59 input  -60.55 | X-H torsion
[ 11005 11000 10999 10996 ] final  172.13 input  -57.11 | X-H torsion

> <Gold.Protein.ActiveResidues>
 VAL166  LYS551  ARG553  GLY616  TRP617  ASP618  TYR619  PRO620  LYS621  CYS622 
 ASP623  PHE694  ASN695  SER759  ASP760  ASP761  ALA762  ILE779  LEU786  VAL792 
 PHE793  MET794  SER795  GLU796  ALA797  LYS798  CYS799  TRP800  GLU811  SER814 

> <Gold.Protein.RotatedAtoms>
  150.7432  133.9858  159.3590 H   0  0  0  0  0  0  0  0  0  0  0  0  # atno 6907 bound_to 6896
  151.7802  135.0761  160.0382 H   0  0  0  0  0  0  0  0  0  0  0  0  # atno 6908 bound_to 6896
  152.3279  133.5888  159.5825 H   0  0  0  0  0  0  0  0  0  0  0  0  # atno 6909 bound_to 6896
  146.2181  140.2939  142.8370 H   0  0  0  0  0  0  0  0  0  0  0  0  # atno 7974 bound_to 7965
  155.8148  140.0911  157.1883 H   0  0  0  0  0  0  0  0  0  0  0  0  # atno 8008 bound_to 7997
  154.3979  140.1448  156.3489 H   0  0  0  0  0  0  0  0  0  0  0  0  # atno 8009 bound_to 7997
  155.8327  140.3442  155.5585 H   0  0  0  0  0  0  0  0  0  0  0  0  # atno 8010 bound_to 7997
  140.7280  143.4136  151.1065 H   0  0  0  0  0  0  0  0  0  0  0  0  # atno 10167 bound_to 10162
  157.6882  131.0098  150.2550 H   0  0  0  0  0  0  0  0  0  0  0  0  # atno 10718 bound_to 10713
  154.5945  135.2848  155.0601 H   0  0  0  0  0  0  0  0  0  0  0  0  # atno 10763 bound_to 10752
  154.1889  135.6444  153.5058 H   0  0  0  0  0  0  0  0  0  0  0  0  # atno 10764 bound_to 10752
  153.0133  135.5441  154.6642 H   0  0  0  0  0  0  0  0  0  0  0  0  # atno 10765 bound_to 10752
  140.3264  134.7394  157.4102 H   0  0  0  0  0  0  0  0  0  0  0  0  # atno 11005 bound_to 11000
  144.9107  140.7753  143.5809 LP  0  0  0  0  0  0  0  0  0  0  0  0  # atno 17320 bound_to 7965
  145.2869  139.1897  143.4761 LP  0  0  0  0  0  0  0  0  0  0  0  0  # atno 17321 bound_to 7965
  139.7773  143.8407  152.3131 LP  0  0  0  0  0  0  0  0  0  0  0  0  # atno 17342 bound_to 10162
  139.8346  144.7238  150.9407 LP  0  0  0  0  0  0  0  0  0  0  0  0  # atno 17343 bound_to 10162
  156.3140  130.3776  149.7635 LP  0  0  0  0  0  0  0  0  0  0  0  0  # atno 17370 bound_to 10713
  156.5227  130.8222  151.3209 LP  0  0  0  0  0  0  0  0  0  0  0  0  # atno 17371 bound_to 10713
  140.0898  134.5617  155.8456 LP  0  0  0  0  0  0  0  0  0  0  0  0  # atno 17394 bound_to 11000
  141.2074  133.6664  156.6304 LP  0  0  0  0  0  0  0  0  0  0  0  0  # atno 17395 bound_to 11000

$$$$
