AV-unprocessed.smi:555|AV-procd|sdf|2910|dock2
  -GOLD-   2262023403D 1   1.00000     0.00000
 Structure written by MMmdl.
 50 51  0  0  0  0  0  0  0  0  2 V2000
  153.9603  136.6049  163.3943 C   0  0  0  0  0  0  0  0  0  0  0  0
  154.6324  137.3401  162.3871 O   0  0  0  0  0  0  0  0  0  0  0  0
  154.2770  136.9220  161.0785 C   0  0  0  0  0  0  0  0  0  0  0  0
  152.9187  137.5333  160.6969 C   0  0  0  0  0  0  0  0  0  0  0  0
  152.7137  137.5382  159.2442 N   0  0  0  0  0  0  0  0  0  0  0  0
  151.7216  136.6731  158.8135 N   0  0  0  0  0  0  0  0  0  0  0  0
  151.4159  136.6073  157.5581 C   0  0  0  0  0  0  0  0  0  0  0  0
  150.3455  135.7005  157.0581 C   0  0  0  0  0  0  0  0  0  0  0  0
  150.2336  134.5413  157.4606 O   0  0  0  0  0  0  0  0  0  0  0  0
  149.5207  136.2352  156.1395 N   0  0  0  0  0  0  0  0  0  0  0  0
  148.4071  135.5433  155.4986 C   0  0  2  0  0  0  0  0  0  0  0  0
  148.9224  134.4200  154.5804 C   0  0  0  0  0  0  0  0  0  0  0  0
  147.7712  133.7572  153.8052 C   0  0  0  0  0  0  0  0  0  0  0  0
  146.9992  134.7653  153.0316 N   0  3  1  0  0  0  0  0  0  0  0  0
  146.0245  134.1622  152.0762 C   0  0  0  0  0  0  0  0  0  0  0  0
  146.6732  133.0369  151.2529 C   0  0  0  0  0  0  0  0  0  0  0  0
  145.3259  135.1976  151.1732 C   0  0  0  0  0  0  0  0  0  0  0  0
  146.4481  135.8287  153.9154 C   0  0  0  0  0  0  0  0  0  0  0  0
  147.5762  136.5425  154.6776 C   0  0  0  0  0  0  0  0  0  0  0  0
  152.1107  137.4260  156.5792 C   0  0  0  0  0  0  0  0  0  0  0  0
  153.0814  138.2597  157.0133 C   0  0  0  0  0  0  0  0  0  0  0  0
  153.4413  138.3595  158.4287 C   0  0  0  0  0  0  0  0  0  0  0  0
  154.3145  139.1177  158.8497 O   0  0  0  0  0  0  0  0  0  0  0  0
  154.2672  136.9649  164.3763 H   0  0  0  0  0  0  0  0  0  0  0  0
  154.2020  135.5430  163.3350 H   0  0  0  0  0  0  0  0  0  0  0  0
  152.8789  136.7234  163.3146 H   0  0  0  0  0  0  0  0  0  0  0  0
  155.0458  137.2144  160.3615 H   0  0  0  0  0  0  0  0  0  0  0  0
  154.2072  135.8336  161.0508 H   0  0  0  0  0  0  0  0  0  0  0  0
  152.1157  136.9789  161.1856 H   0  0  0  0  0  0  0  0  0  0  0  0
  152.8504  138.5478  161.0935 H   0  0  0  0  0  0  0  0  0  0  0  0
  149.6834  137.1939  155.8656 H   0  0  0  0  0  0  0  0  0  0  0  0
  147.7604  135.1107  156.2647 H   0  0  0  0  0  0  0  0  0  0  0  0
  149.6486  134.8242  153.8735 H   0  0  0  0  0  0  0  0  0  0  0  0
  149.4501  133.6668  155.1669 H   0  0  0  0  0  0  0  0  0  0  0  0
  148.1838  133.0059  153.1310 H   0  0  0  0  0  0  0  0  0  0  0  0
  147.1109  133.2340  154.4977 H   0  0  0  0  0  0  0  0  0  0  0  0
  145.2504  133.6812  152.6757 H   0  0  0  0  0  0  0  0  0  0  0  0
  145.9233  132.5046  150.6669 H   0  0  0  0  0  0  0  0  0  0  0  0
  147.1612  132.3064  151.8989 H   0  0  0  0  0  0  0  0  0  0  0  0
  147.4178  133.4161  150.5531 H   0  0  0  0  0  0  0  0  0  0  0  0
  144.5569  134.7195  150.5658 H   0  0  0  0  0  0  0  0  0  0  0  0
  146.0232  135.6784  150.4866 H   0  0  0  0  0  0  0  0  0  0  0  0
  144.8349  135.9770  151.7555 H   0  0  0  0  0  0  0  0  0  0  0  0
  145.8961  136.5640  153.3313 H   0  0  0  0  0  0  0  0  0  0  0  0
  145.7450  135.3956  154.6281 H   0  0  0  0  0  0  0  0  0  0  0  0
  147.1520  137.3038  155.3337 H   0  0  0  0  0  0  0  0  0  0  0  0
  148.2176  137.0672  153.9673 H   0  0  0  0  0  0  0  0  0  0  0  0
  151.8654  137.3734  155.5284 H   0  0  0  0  0  0  0  0  0  0  0  0
  153.6072  138.8731  156.2964 H   0  0  0  0  0  0  0  0  0  0  0  0
  147.6829  135.2237  152.4460 H   0  0  0  0  0  0  0  0  0  0  0  0
  1  2  1  0  0  0  0
  1 24  1  0  0  0  0
  1 25  1  0  0  0  0
  1 26  1  0  0  0  0
  2  3  1  0  0  0  0
  3  4  1  0  0  0  0
  3 27  1  0  0  0  0
  3 28  1  0  0  0  0
  4  5  1  0  0  0  0
  4 29  1  0  0  0  0
  4 30  1  0  0  0  0
  5 22  1  0  0  0  0
  5  6  1  0  0  0  0
  6  7  2  0  0  0  0
  7  8  1  0  0  0  0
  7 20  1  0  0  0  0
  8  9  2  0  0  0  0
  8 10  1  0  0  0  0
 10 11  1  0  0  0  0
 10 31  1  0  0  0  0
 11 19  1  0  0  0  0
 11 12  1  0  0  0  0
 11 32  1  0  0  0  0
 12 13  1  0  0  0  0
 12 33  1  0  0  0  0
 12 34  1  0  0  0  0
 13 14  1  0  0  0  0
 13 35  1  0  0  0  0
 13 36  1  0  0  0  0
 14 15  1  0  0  0  0
 14 18  1  0  0  0  0
 14 50  1  0  0  0  0
 15 16  1  0  0  0  0
 15 17  1  0  0  0  0
 15 37  1  0  0  0  0
 16 38  1  0  0  0  0
 16 39  1  0  0  0  0
 16 40  1  0  0  0  0
 17 41  1  0  0  0  0
 17 42  1  0  0  0  0
 17 43  1  0  0  0  0
 18 19  1  0  0  0  0
 18 44  1  0  0  0  0
 18 45  1  0  0  0  0
 19 46  1  0  0  0  0
 19 47  1  0  0  0  0
 20 21  2  0  0  0  0
 20 48  1  0  0  0  0
 21 22  1  0  0  0  0
 21 49  1  0  0  0  0
 22 23  2  0  0  0  0
M  CHG  1  14   1
M  END
> <s_m_source_file>
AV-unprocessed.smi

> <i_m_source_file_index>
555

> <i_lp_mmshare_version>
43012

> <i_f3d_flags>
0

> <s_epik_input>
W0NIM11PW0NIMl1bQ0gyXW4xbmMoW2NIXVtjSF1jMT1PKUMoPU8pW05IXVtDSF0yW0NIMl1bQ0gyXU4oW0NIXShbQ0gzXSlbQ0gzXSlbQ0gyXVtDSDJdMg==

> <s_epik_cmdline>
J2VwaWtfcHl0aG9uJywgJy1waCcsICc3LjAnLCAnLXRuJywgJzgnLCAnLW1hJywgJzIwMCcsICctbWV0YWxfYmluZGluZycsICctaW1hZScsICc8aW5maWxlLm1hZT4nLCAnLW9tYWUnLCAnPG91dGZpbGUubWFlPic=

> <r_lp_tautomer_probability>
1

> <r_epik_Ionization_Penalty>
0.00560205

> <r_epik_Ionization_Penalty_Charging>
0.00559911

> <r_epik_Ionization_Penalty_Neutral>
2.94673e-06

> <r_epik_State_Penalty>
0.00410202

> <r_epik_Charging_Adjusted_Penalty>
0.00970113

> <i_epik_Tot_Q>
1

> <i_epik_Tot_abs_Q>
1

> <r_epik_Metal_State_Penalty>
-0

> <b_epik_Metal_Only>
0

> <s_lp_Force_Field>
OPLS_2005

> <r_lp_Energy>
40.4253

> <b_lp_Chiralities_Consistent>
1

> <s_lp_Variant>
AV-unprocessed.smi:555-1

> <Gold.Version>
5.8.1

> <Gold.Id.Protein>
6NUR|6NUR_protein|mol2

> <Gold.PLP.Fitness>
39.2784

> <Gold.PLP.PLP>
-27.8769

> <Gold.PLP.part.hbond>
-4.0000

> <Gold.PLP.part.metal>
0.0000

> <Gold.PLP.part.buried>
-2.0247

> <Gold.PLP.part.nonpolar>
-21.7292

> <Gold.PLP.part.repulsive>
0.0186

> <Gold.PLP.ligand.clash>
0.0000

> <Gold.PLP.ligand.torsion>
1.0745

> <Gold.PLP.Chemscore.Hbond>
4.4720

> <Gold.PLP.Chemscore.CHOScore>
0.0000

> <Gold.PLP.Chemscore.Metal>
0.0000

> <Gold.Chemscore.Hbonds>
donor molecule, donor type, donor heavy atom, donor atom, acceptor molecule, acceptor atom, score
      L1  H    14    50       P1  7948  2.00
      P1  H  6896  6907       L1     6  0.82
      P1  H  6896  6909       L1     9  0.66
      P1  H  7997  8008       L1    23  1.00

> <Gold.PLP.Chemscore.Internal.Correction>
0.1345

> <Gold.Rescore>
     Score         DG    S(hbond)    S(metal)    S(lipo)     H(rot)  DE(clash)    DE(int)     intcor
     17.84     -19.04       3.22        0.00      62.15       1.74       0.00       1.20       ----

> <Gold.Chemscore.Fitness>
17.8376

> <Gold.Chemscore.DG>
-19.0418

> <Gold.Chemscore.ZeroCoef>
-5.4800

> <Gold.Chemscore.Hbond>
3.2200

> <Gold.Chemscore.Metal>
0.0000

> <Gold.Chemscore.Lipo>
62.1469

> <Gold.Chemscore.Internal_Hbond>
0.0000

> <Gold.Chemscore.DEClash>
0.0000

> <Gold.Chemscore.DEInternal>
1.2041

> <Gold.Chemscore.Rot>
1.7438

> <Gold.Chemscore.Internal.Correction>
   9.000000E+99

> <Gold.Chemscore.Hbonds>
donor molecule, donor type, donor heavy atom, donor atom, acceptor molecule, acceptor atom, score
      L1  H    14    50       P1  7948  0.99
      P1  H  6896  6907       L1     6  0.63
      P1  H  6896  6909       L1     9  0.63
      P1  H  7997  8008       L1    23  0.74

> <Gold.Chemscore.Hbond.Weighted>
-10.7548

> <Gold.Chemscore.Metal.Weighted>
-0.0000

> <Gold.Chemscore.Lipo.Weighted>
-7.2712

> <Gold.Chemscore.Internal_Hbond.Weighted>
0.0000

> <Gold.Chemscore.DEClash.Weighted>
0.0000

> <Gold.Chemscore.DEInternal.Weighted>
1.2041

> <Gold.Chemscore.Rot.Weighted>
4.4642

> <Gold.Chemscore.Internal.Correction.Weighted>
   9.000000E+99

> <Gold.Protein.RotatedTorsions>
[ 6907 6896 6895 6894 ] final    0.64 input  -60.11 | X-H torsion
[ 7974 7965 7964 7962 ] final  -90.24 input  175.53 | X-H torsion
[ 8008 7997 7996 7995 ] final -131.01 input   59.86 | X-H torsion
[ 10167 10162 10161 10158 ] final  141.45 input  -65.29 | X-H torsion
[ 10718 10713 10712 10709 ] final -178.59 input   66.30 | X-H torsion
[ 10763 10752 10751 10750 ] final  -16.79 input  -60.55 | X-H torsion
[ 11005 11000 10999 10996 ] final  -19.89 input  -57.11 | X-H torsion

> <Gold.Protein.ActiveResidues>
 VAL166  LYS551  ARG553  GLY616  TRP617  ASP618  TYR619  PRO620  LYS621  CYS622 
 ASP623  PHE694  ASN695  SER759  ASP760  ASP761  ALA762  ILE779  LEU786  VAL792 
 PHE793  MET794  SER795  GLU796  ALA797  LYS798  CYS799  TRP800  GLU811  SER814 

> <Gold.Protein.RotatedAtoms>
  151.5797  135.1059  160.0014 H   0  0  0  0  0  0  0  0  0  0  0  0  # atno 6907 bound_to 6896
  152.4360  133.7358  159.6624 H   0  0  0  0  0  0  0  0  0  0  0  0  # atno 6908 bound_to 6896
  150.8258  133.8104  159.3142 H   0  0  0  0  0  0  0  0  0  0  0  0  # atno 6909 bound_to 6896
  145.4291  140.9555  143.2138 H   0  0  0  0  0  0  0  0  0  0  0  0  # atno 7974 bound_to 7965
  155.3053  140.0454  157.3032 H   0  0  0  0  0  0  0  0  0  0  0  0  # atno 8008 bound_to 7997
  154.5464  140.2304  155.8524 H   0  0  0  0  0  0  0  0  0  0  0  0  # atno 8009 bound_to 7997
  156.1927  140.3046  155.9372 H   0  0  0  0  0  0  0  0  0  0  0  0  # atno 8010 bound_to 7997
  139.5020  144.6171  151.6139 H   0  0  0  0  0  0  0  0  0  0  0  0  # atno 10167 bound_to 10162
  156.8466  130.9704  151.3096 H   0  0  0  0  0  0  0  0  0  0  0  0  # atno 10718 bound_to 10713
  153.5640  135.7009  153.5534 H   0  0  0  0  0  0  0  0  0  0  0  0  # atno 10763 bound_to 10752
  153.3404  135.4022  155.1567 H   0  0  0  0  0  0  0  0  0  0  0  0  # atno 10764 bound_to 10752
  154.8643  135.3740  154.5159 H   0  0  0  0  0  0  0  0  0  0  0  0  # atno 10765 bound_to 10752
  140.8411  133.7926  155.9861 H   0  0  0  0  0  0  0  0  0  0  0  0  # atno 11005 bound_to 11000
  144.8194  139.5818  143.6993 LP  0  0  0  0  0  0  0  0  0  0  0  0  # atno 17320 bound_to 7965
  146.2616  139.6424  142.9358 LP  0  0  0  0  0  0  0  0  0  0  0  0  # atno 17321 bound_to 7965
  140.5862  143.9860  150.6297 LP  0  0  0  0  0  0  0  0  0  0  0  0  # atno 17342 bound_to 10162
  140.3026  143.3251  152.0957 LP  0  0  0  0  0  0  0  0  0  0  0  0  # atno 17343 bound_to 10162
  157.6327  130.8742  149.9302 LP  0  0  0  0  0  0  0  0  0  0  0  0  # atno 17370 bound_to 10713
  156.0851  130.3669  150.0503 LP  0  0  0  0  0  0  0  0  0  0  0  0  # atno 17371 bound_to 10713
  140.8894  134.2513  157.5102 LP  0  0  0  0  0  0  0  0  0  0  0  0  # atno 17394 bound_to 11000
  139.8703  134.9654  156.4528 LP  0  0  0  0  0  0  0  0  0  0  0  0  # atno 17395 bound_to 11000

$$$$
