AV-unprocessed.smi:3238|AV-procd|sdf|12375|dock1
  -GOLD-   2272018233D 1   1.00000     0.00000
 Structure written by MMmdl.
 37 39  0  0  0  0  0  0  0  0  1 V2000
  146.7265  139.1428  152.5379 C   0  0  0  0  0  0  0  0  0  0  0  0
  147.8861  138.5215  153.1583 N   0  0  0  0  0  0  0  0  0  0  0  0
  148.6922  139.1345  154.0382 C   0  0  0  0  0  0  0  0  0  0  0  0
  148.5180  140.2909  154.4224 O   0  0  0  0  0  0  0  0  0  0  0  0
  149.8718  138.3194  154.5728 C   0  0  0  0  0  0  0  0  0  0  0  0
  150.7044  139.1413  155.5043 C   0  0  0  0  0  0  0  0  0  0  0  0
  151.9270  139.5393  155.1712 N   0  0  0  0  0  0  0  0  0  0  0  0
  152.3553  140.2511  156.3008 O   0  0  0  0  0  0  0  0  0  0  0  0
  151.3219  140.2130  157.1755 C   0  0  0  0  0  0  0  0  0  0  0  0
  151.4918  140.8342  158.5218 C   0  0  0  0  0  0  0  0  0  0  0  0
  152.2876  142.1527  158.4679 C   0  0  2  0  0  0  0  0  0  0  0  0
  152.7340  142.7089  159.8380 C   0  0  0  0  0  0  0  0  0  0  0  0
  152.2687  144.1762  159.7793 C   0  0  2  0  0  0  0  0  0  0  0  0
  150.7384  144.2246  159.9403 C   0  0  0  0  0  0  0  0  0  0  0  0
  150.2398  143.6813  158.5886 C   0  0  0  0  0  0  0  0  0  0  0  0
  151.5511  143.3598  157.8420 C   0  0  1  0  0  0  0  0  0  0  0  0
  152.4395  144.5120  158.3012 C   0  0  0  0  0  0  0  0  0  0  0  0
  150.2694  139.5281  156.7360 N   0  0  0  0  0  0  0  0  0  0  0  0
  146.2231  138.4256  151.8896 H   0  0  0  0  0  0  0  0  0  0  0  0
  147.0244  139.9997  151.9322 H   0  0  0  0  0  0  0  0  0  0  0  0
  146.0139  139.4796  153.2919 H   0  0  0  0  0  0  0  0  0  0  0  0
  148.0989  137.5704  152.8934 H   0  0  0  0  0  0  0  0  0  0  0  0
  149.5039  137.4325  155.0912 H   0  0  0  0  0  0  0  0  0  0  0  0
  150.4862  137.9687  153.7425 H   0  0  0  0  0  0  0  0  0  0  0  0
  150.5017  141.0168  158.9406 H   0  0  0  0  0  0  0  0  0  0  0  0
  151.9787  140.1087  159.1733 H   0  0  0  0  0  0  0  0  0  0  0  0
  153.1789  141.9746  157.8631 H   0  0  0  0  0  0  0  0  0  0  0  0
  152.2911  142.1766  160.6806 H   0  0  0  0  0  0  0  0  0  0  0  0
  153.8180  142.6442  159.9402 H   0  0  0  0  0  0  0  0  0  0  0  0
  152.8014  144.8325  160.4679 H   0  0  0  0  0  0  0  0  0  0  0  0
  150.3913  143.6259  160.7832 H   0  0  0  0  0  0  0  0  0  0  0  0
  150.3939  145.2484  160.0923 H   0  0  0  0  0  0  0  0  0  0  0  0
  149.5785  142.8224  158.6954 H   0  0  0  0  0  0  0  0  0  0  0  0
  149.6812  144.4527  158.0571 H   0  0  0  0  0  0  0  0  0  0  0  0
  151.4300  143.2824  156.7612 H   0  0  0  0  0  0  0  0  0  0  0  0
  152.0483  145.4949  158.0322 H   0  0  0  0  0  0  0  0  0  0  0  0
  153.4716  144.4317  157.9550 H   0  0  0  0  0  0  0  0  0  0  0  0
  1  2  1  0  0  0  0
  1 19  1  0  0  0  0
  1 20  1  0  0  0  0
  1 21  1  0  0  0  0
  2  3  1  0  0  0  0
  2 22  1  0  0  0  0
  3  4  2  0  0  0  0
  3  5  1  0  0  0  0
  5  6  1  0  0  0  0
  5 23  1  0  0  0  0
  5 24  1  0  0  0  0
  6 18  1  0  0  0  0
  6  7  2  0  0  0  0
  7  8  1  0  0  0  0
  8  9  1  0  0  0  0
  9 10  1  0  0  0  0
  9 18  2  0  0  0  0
 10 11  1  0  0  0  0
 10 25  1  0  0  0  0
 10 26  1  0  0  0  0
 11 16  1  0  0  0  0
 11 12  1  0  0  0  0
 11 27  1  0  0  0  0
 12 13  1  0  0  0  0
 12 28  1  0  0  0  0
 12 29  1  0  0  0  0
 13 17  1  0  0  0  0
 13 14  1  0  0  0  0
 13 30  1  0  0  0  0
 14 15  1  0  0  0  0
 14 31  1  0  0  0  0
 14 32  1  0  0  0  0
 15 16  1  0  0  0  0
 15 33  1  0  0  0  0
 15 34  1  0  0  0  0
 16 17  1  0  0  0  0
 16 35  1  0  0  0  0
 17 36  1  0  0  0  0
 17 37  1  0  0  0  0
M  END
> <s_m_source_file>
AV-unprocessed.smi

> <i_m_source_file_index>
3238

> <i_lp_mmshare_version>
43012

> <i_f3d_flags>
0

> <s_epik_input>
W0NIM11bTkhdQyg9TylbQ0gyXWMxbm9jKG4xKVtDSDJdW0NASF0oW0NIMl1bQ0BIXTIzKVtDQEhdKFtDSDJdMylbQ0gyXVtDSDJdMg==

> <s_epik_cmdline>
J2VwaWtfcHl0aG9uJywgJy1waCcsICc3LjAnLCAnLXRuJywgJzgnLCAnLW1hJywgJzIwMCcsICctbWV0YWxfYmluZGluZycsICctaW1hZScsICc8aW5maWxlLm1hZT4nLCAnLW9tYWUnLCAnPG91dGZpbGUubWFlPic=

> <r_lp_tautomer_probability>
1

> <r_epik_Ionization_Penalty>
1.02915e-07

> <r_epik_Ionization_Penalty_Charging>
0

> <r_epik_Ionization_Penalty_Neutral>
1.02915e-07

> <r_epik_State_Penalty>
-0

> <r_epik_Charging_Adjusted_Penalty>
0

> <i_epik_Tot_Q>
0

> <i_epik_Tot_abs_Q>
0

> <r_epik_Metal_State_Penalty>
-0

> <b_epik_Metal_Only>
0

> <s_lp_Force_Field>
OPLS_2005

> <r_lp_Energy>
47.7222

> <b_lp_Chiralities_Consistent>
1

> <s_lp_Variant>
AV-unprocessed.smi:3238-1

> <Gold.Version>
5.8.1

> <Gold.Id.Protein>
6NUR|6NUR_protein|mol2

> <Gold.PLP.Fitness>
45.1729

> <Gold.PLP.PLP>
-37.3751

> <Gold.PLP.part.hbond>
-4.0000

> <Gold.PLP.part.metal>
0.0000

> <Gold.PLP.part.buried>
-1.5388

> <Gold.PLP.part.nonpolar>
-32.1228

> <Gold.PLP.part.repulsive>
0.1853

> <Gold.PLP.ligand.clash>
0.0000

> <Gold.PLP.ligand.torsion>
0.4818

> <Gold.PLP.Chemscore.Hbond>
2.9120

> <Gold.PLP.Chemscore.CHOScore>
0.0000

> <Gold.PLP.Chemscore.Metal>
0.0000

> <Gold.Chemscore.Hbonds>
donor molecule, donor type, donor heavy atom, donor atom, acceptor molecule, acceptor atom, score
      L1  H     2    22       P1  7948  1.00
      P1  H  7989  7998       L1     7  0.69
      P1  H  7997  8010       L1     8  1.00

> <Gold.PLP.Chemscore.Internal.Correction>
0.0255

> <Gold.Rescore>
     Score         DG    S(hbond)    S(metal)    S(lipo)     H(rot)  DE(clash)    DE(int)     intcor
     17.36     -19.65       2.15        0.00     100.05       1.85       1.08       1.20       ----

> <Gold.Chemscore.Fitness>
17.3633

> <Gold.Chemscore.DG>
-19.6460

> <Gold.Chemscore.ZeroCoef>
-5.4800

> <Gold.Chemscore.Hbond>
2.1540

> <Gold.Chemscore.Metal>
0.0000

> <Gold.Chemscore.Lipo>
100.0486

> <Gold.Chemscore.Internal_Hbond>
0.0000

> <Gold.Chemscore.DEClash>
1.0834

> <Gold.Chemscore.DEInternal>
1.1993

> <Gold.Chemscore.Rot>
1.8492

> <Gold.Chemscore.Internal.Correction>
   9.000000E+99

> <Gold.Chemscore.Hbonds>
donor molecule, donor type, donor heavy atom, donor atom, acceptor molecule, acceptor atom, score
      L1  H     2    22       P1  7948  0.97
      P1  H  7989  7998       L1     7  0.28
      P1  H  7997  8010       L1     8  0.47

> <Gold.Chemscore.Hbond.Weighted>
-7.1942

> <Gold.Chemscore.Metal.Weighted>
-0.0000

> <Gold.Chemscore.Lipo.Weighted>
-11.7057

> <Gold.Chemscore.Internal_Hbond.Weighted>
0.0000

> <Gold.Chemscore.DEClash.Weighted>
1.0834

> <Gold.Chemscore.DEInternal.Weighted>
1.1993

> <Gold.Chemscore.Rot.Weighted>
4.7340

> <Gold.Chemscore.Internal.Correction.Weighted>
   9.000000E+99

> <Gold.Protein.RotatedTorsions>
[ 6907 6896 6895 6894 ] final  -34.82 input  -60.11 | X-H torsion
[ 7974 7965 7964 7962 ] final  -71.74 input  175.53 | X-H torsion
[ 8008 7997 7996 7995 ] final   85.01 input   59.86 | X-H torsion
[ 10167 10162 10161 10158 ] final -101.32 input  -65.29 | X-H torsion
[ 10718 10713 10712 10709 ] final  174.73 input   66.30 | X-H torsion
[ 10763 10752 10751 10750 ] final    5.78 input  -60.55 | X-H torsion
[ 11005 11000 10999 10996 ] final  -23.77 input  -57.11 | X-H torsion

> <Gold.Protein.ActiveResidues>
 VAL166  LYS551  ARG553  GLY616  TRP617  ASP618  TYR619  PRO620  LYS621  CYS622 
 ASP623  PHE694  ASN695  SER759  ASP760  ASP761  ALA762  ILE779  LEU786  VAL792 
 PHE793  MET794  SER795  GLU796  ALA797  LYS798  CYS799  TRP800  GLU811  SER814 

> <Gold.Protein.RotatedAtoms>
  151.0477  134.9651  159.8194 H   0  0  0  0  0  0  0  0  0  0  0  0  # atno 6907 bound_to 6896
  152.5375  134.2577  159.8933 H   0  0  0  0  0  0  0  0  0  0  0  0  # atno 6908 bound_to 6896
  151.2591  133.4268  159.2649 H   0  0  0  0  0  0  0  0  0  0  0  0  # atno 6909 bound_to 6896
  145.6742  140.9210  143.0867 H   0  0  0  0  0  0  0  0  0  0  0  0  # atno 7974 bound_to 7965
  155.9445  140.3405  155.6355 H   0  0  0  0  0  0  0  0  0  0  0  0  # atno 8008 bound_to 7997
  155.6998  140.0759  157.2433 H   0  0  0  0  0  0  0  0  0  0  0  0  # atno 8009 bound_to 7997
  154.4109  140.1642  156.2166 H   0  0  0  0  0  0  0  0  0  0  0  0  # atno 8010 bound_to 7997
  140.2426  143.3528  152.0788 H   0  0  0  0  0  0  0  0  0  0  0  0  # atno 10167 bound_to 10162
  156.9452  131.0014  151.2960 H   0  0  0  0  0  0  0  0  0  0  0  0  # atno 10718 bound_to 10713
  153.2554  135.6918  153.7635 H   0  0  0  0  0  0  0  0  0  0  0  0  # atno 10763 bound_to 10752
  153.6714  135.3343  155.3155 H   0  0  0  0  0  0  0  0  0  0  0  0  # atno 10764 bound_to 10752
  154.8410  135.4500  154.1525 H   0  0  0  0  0  0  0  0  0  0  0  0  # atno 10765 bound_to 10752
  140.8783  133.7672  156.0270 H   0  0  0  0  0  0  0  0  0  0  0  0  # atno 11005 bound_to 11000
  144.7047  139.8612  143.7433 LP  0  0  0  0  0  0  0  0  0  0  0  0  # atno 17320 bound_to 7965
  146.1020  139.4016  143.0341 LP  0  0  0  0  0  0  0  0  0  0  0  0  # atno 17321 bound_to 7965
  139.5072  144.6828  151.5964 LP  0  0  0  0  0  0  0  0  0  0  0  0  # atno 17342 bound_to 10162
  140.6102  143.9450  150.6448 LP  0  0  0  0  0  0  0  0  0  0  0  0  # atno 17343 bound_to 10162
  157.5758  130.8342  149.8454 LP  0  0  0  0  0  0  0  0  0  0  0  0  # atno 17370 bound_to 10713
  156.0387  130.3744  150.1493 LP  0  0  0  0  0  0  0  0  0  0  0  0  # atno 17371 bound_to 10713
  140.8492  134.2975  157.5282 LP  0  0  0  0  0  0  0  0  0  0  0  0  # atno 17394 bound_to 11000
  139.8717  134.9458  156.3921 LP  0  0  0  0  0  0  0  0  0  0  0  0  # atno 17395 bound_to 11000

$$$$
