AV-unprocessed.smi:1740|AV-procd|sdf|7014|dock2
  -GOLD-   22720 8233D 1   1.00000     0.00000
 Structure written by MMmdl.
 52 54  0  0  0  0  0  0  0  0  4 V2000
  155.7011  134.4706  165.3266 N   0  5  0  0  0  0  0  0  0  0  0  0
  154.9886  134.0396  164.2661 C   0  0  0  0  0  0  0  0  0  0  0  0
  153.9154  133.4415  164.2697 O   0  0  0  0  0  0  0  0  0  0  0  0
  155.6653  134.3760  162.9327 C   0  0  0  0  0  0  0  0  0  0  0  0
  154.8576  135.3555  162.1619 N   0  3  2  0  0  0  0  0  0  0  0  0
  155.3733  135.5893  160.7859 C   0  0  0  0  0  0  0  0  0  0  0  0
  154.4345  136.5095  159.9873 C   0  0  0  0  0  0  0  0  0  0  0  0
  154.2123  137.8452  160.7196 C   0  0  1  0  0  0  0  0  0  0  0  0
  153.2518  138.6810  160.0048 N   0  0  0  0  0  0  0  0  0  0  0  0
  153.3575  140.0068  159.8359 C   0  0  0  0  0  0  0  0  0  0  0  0
  154.3044  140.6736  160.2528 O   0  0  0  0  0  0  0  0  0  0  0  0
  152.3140  140.4952  159.1446 N   0  0  0  0  0  0  0  0  0  0  0  0
  152.0798  141.8417  158.7446 C   0  0  0  0  0  0  0  0  0  0  0  0
  152.5889  142.9314  159.4978 C   0  0  0  0  0  0  0  0  0  0  0  0
  152.2804  144.2519  159.1213 C   0  0  0  0  0  0  0  0  0  0  0  0
  151.4528  144.4653  158.0059 C   0  0  0  0  0  0  0  0  0  0  0  0
  150.9740  143.4090  157.3173 N   0  3  0  0  0  0  0  0  0  0  0  0
  151.2472  142.1151  157.6202 C   0  0  0  0  0  0  0  0  0  0  0  0
  150.6825  141.1122  156.7994 N   0  0  0  0  0  0  0  0  0  0  0  0
  149.6611  141.4507  155.8148 C   0  0  0  0  0  0  0  0  0  0  0  0
  149.5687  140.2289  154.9046 C   0  0  0  0  0  0  0  0  0  0  0  0
  151.0136  139.7409  154.8633 C   0  0  0  0  0  0  0  0  0  0  0  0
  151.5452  140.0638  156.2636 C   0  0  0  0  0  0  0  0  0  0  0  0
  153.7060  137.5685  162.1440 C   0  0  0  0  0  0  0  0  0  0  0  0
  154.6606  136.6289  162.8994 C   0  0  0  0  0  0  0  0  0  0  0  0
  156.2347  135.3440  165.2384 H   0  0  0  0  0  0  0  0  0  0  0  0
  156.6520  134.7869  163.1541 H   0  0  0  0  0  0  0  0  0  0  0  0
  155.8303  133.4720  162.3444 H   0  0  0  0  0  0  0  0  0  0  0  0
  156.3703  136.0292  160.8402 H   0  0  0  0  0  0  0  0  0  0  0  0
  155.4766  134.6416  160.2565 H   0  0  0  0  0  0  0  0  0  0  0  0
  154.8539  136.6867  158.9962 H   0  0  0  0  0  0  0  0  0  0  0  0
  153.4790  136.0057  159.8336 H   0  0  0  0  0  0  0  0  0  0  0  0
  155.1642  138.3755  160.7921 H   0  0  0  0  0  0  0  0  0  0  0  0
  152.4426  138.2148  159.6212 H   0  0  0  0  0  0  0  0  0  0  0  0
  151.6620  139.8145  158.7831 H   0  0  0  0  0  0  0  0  0  0  0  0
  153.1947  142.7755  160.3776 H   0  0  0  0  0  0  0  0  0  0  0  0
  152.6624  145.0878  159.6891 H   0  0  0  0  0  0  0  0  0  0  0  0
  151.1564  145.4409  157.6484 H   0  0  0  0  0  0  0  0  0  0  0  0
  148.7058  141.6739  156.2912 H   0  0  0  0  0  0  0  0  0  0  0  0
  149.9663  142.3196  155.2302 H   0  0  0  0  0  0  0  0  0  0  0  0
  148.9324  139.4692  155.3610 H   0  0  0  0  0  0  0  0  0  0  0  0
  149.1668  140.4618  153.9182 H   0  0  0  0  0  0  0  0  0  0  0  0
  151.1002  138.6840  154.6100 H   0  0  0  0  0  0  0  0  0  0  0  0
  151.5704  140.3111  154.1184 H   0  0  0  0  0  0  0  0  0  0  0  0
  152.5926  140.3669  156.2302 H   0  0  0  0  0  0  0  0  0  0  0  0
  151.4654  139.1847  156.9032 H   0  0  0  0  0  0  0  0  0  0  0  0
  153.6007  138.5048  162.6933 H   0  0  0  0  0  0  0  0  0  0  0  0
  152.7125  137.1185  162.1057 H   0  0  0  0  0  0  0  0  0  0  0  0
  154.2479  136.4207  163.8874 H   0  0  0  0  0  0  0  0  0  0  0  0
  155.6257  137.1141  163.0532 H   0  0  0  0  0  0  0  0  0  0  0  0
  153.9445  134.9318  162.0696 H   0  0  0  0  0  0  0  0  0  0  0  0
  150.3746  143.5968  156.5136 H   0  0  0  0  0  0  0  0  0  0  0  0
  1  2  1  0  0  0  0
  1 26  1  0  0  0  0
  2  3  2  0  0  0  0
  2  4  1  0  0  0  0
  4  5  1  0  0  0  0
  4 27  1  0  0  0  0
  4 28  1  0  0  0  0
  5 25  1  0  0  0  0
  5  6  1  0  0  0  0
  5 51  1  0  0  0  0
  6  7  1  0  0  0  0
  6 29  1  0  0  0  0
  6 30  1  0  0  0  0
  7  8  1  0  0  0  0
  7 31  1  0  0  0  0
  7 32  1  0  0  0  0
  8  9  1  0  0  0  0
  8 24  1  0  0  0  0
  8 33  1  0  0  0  0
  9 10  1  0  0  0  0
  9 34  1  0  0  0  0
 10 11  2  0  0  0  0
 10 12  1  0  0  0  0
 12 13  1  0  0  0  0
 12 35  1  0  0  0  0
 13 18  1  0  0  0  0
 13 14  2  0  0  0  0
 14 15  1  0  0  0  0
 14 36  1  0  0  0  0
 15 16  2  0  0  0  0
 15 37  1  0  0  0  0
 16 17  1  0  0  0  0
 16 38  1  0  0  0  0
 17 18  2  0  0  0  0
 17 52  1  0  0  0  0
 18 19  1  0  0  0  0
 19 23  1  0  0  0  0
 19 20  1  0  0  0  0
 20 21  1  0  0  0  0
 20 39  1  0  0  0  0
 20 40  1  0  0  0  0
 21 22  1  0  0  0  0
 21 41  1  0  0  0  0
 21 42  1  0  0  0  0
 22 23  1  0  0  0  0
 22 43  1  0  0  0  0
 22 44  1  0  0  0  0
 23 45  1  0  0  0  0
 23 46  1  0  0  0  0
 24 25  1  0  0  0  0
 24 47  1  0  0  0  0
 24 48  1  0  0  0  0
 25 49  1  0  0  0  0
 25 50  1  0  0  0  0
M  CHG  1   1  -1
M  CHG  1   5   1
M  CHG  1  17   1
M  END
> <s_m_source_file>
AV-unprocessed.smi

> <i_m_source_file_index>
1740

> <i_lp_mmshare_version>
43012

> <i_f3d_flags>
0

> <s_epik_input>
W05IMl1DKD1PKVtDSDJdTjFbQ0gyXVtDSDJdW0NIXShbQ0gyXVtDSDJdMSlbTkhdQyg9TylbTkhdYzJbY0hdW2NIXVtjSF1uYzJOM1tDSDJdW0NIMl1bQ0gyXVtDSDJdMw==

> <s_epik_cmdline>
J2VwaWtfcHl0aG9uJywgJy1waCcsICc3LjAnLCAnLXRuJywgJzgnLCAnLW1hJywgJzIwMCcsICctbWV0YWxfYmluZGluZycsICctaW1hZScsICc8aW5maWxlLm1hZT4nLCAnLW9tYWUnLCAnPG91dGZpbGUubWFlPic=

> <r_lp_tautomer_probability>
0.999994

> <r_epik_Ionization_Penalty>
6.97817

> <r_epik_Ionization_Penalty_Charging>
6.97815

> <r_epik_Ionization_Penalty_Neutral>
1.88285e-05

> <r_epik_State_Penalty>
7.80985

> <r_epik_Charging_Adjusted_Penalty>
14.788

> <i_epik_Tot_Q>
1

> <i_epik_Tot_abs_Q>
3

> <r_epik_Metal_State_Penalty>
3.85728

> <b_epik_Metal_Only>
1

> <s_lp_Force_Field>
OPLS_2005

> <r_lp_Energy>
44.3343

> <b_lp_Chiralities_Consistent>
1

> <s_lp_Variant>
AV-unprocessed.smi:1740-9

> <Gold.Version>
5.8.1

> <Gold.Id.Protein>
6NUR|6NUR_protein|mol2

> <Gold.PLP.Fitness>
47.7102

> <Gold.PLP.PLP>
-42.8037

> <Gold.PLP.part.hbond>
-2.0000

> <Gold.PLP.part.metal>
0.0000

> <Gold.PLP.part.buried>
-4.8499

> <Gold.PLP.part.nonpolar>
-37.0311

> <Gold.PLP.part.repulsive>
0.3326

> <Gold.PLP.ligand.clash>
0.0000

> <Gold.PLP.ligand.torsion>
0.6766

> <Gold.PLP.Chemscore.Hbond>
1.9349

> <Gold.PLP.Chemscore.CHOScore>
0.0000

> <Gold.PLP.Chemscore.Metal>
0.0000

> <Gold.Chemscore.Hbonds>
donor molecule, donor type, donor heavy atom, donor atom, acceptor molecule, acceptor atom, score
      L1  H    17    52       P1  8028  1.87

> <Gold.PLP.Chemscore.Internal.Correction>
0.4548

> <Gold.Rescore>
     Score         DG    S(hbond)    S(metal)    S(lipo)     H(rot)  DE(clash)    DE(int)     intcor
     12.26     -14.71       0.98        0.00      98.63       2.18       0.03       2.43       ----

> <Gold.Chemscore.Fitness>
12.2562

> <Gold.Chemscore.DG>
-14.7122

> <Gold.Chemscore.ZeroCoef>
-5.4800

> <Gold.Chemscore.Hbond>
0.9825

> <Gold.Chemscore.Metal>
0.0000

> <Gold.Chemscore.Lipo>
98.6315

> <Gold.Chemscore.Internal_Hbond>
0.0000

> <Gold.Chemscore.DEClash>
0.0285

> <Gold.Chemscore.DEInternal>
2.4274

> <Gold.Chemscore.Rot>
2.1832

> <Gold.Chemscore.Internal.Correction>
   9.000000E+99

> <Gold.Chemscore.Hbonds>
donor molecule, donor type, donor heavy atom, donor atom, acceptor molecule, acceptor atom, score
      L1  H    17    52       P1  8028  0.84

> <Gold.Chemscore.Hbond.Weighted>
-3.2814

> <Gold.Chemscore.Metal.Weighted>
-0.0000

> <Gold.Chemscore.Lipo.Weighted>
-11.5399

> <Gold.Chemscore.Internal_Hbond.Weighted>
0.0000

> <Gold.Chemscore.DEClash.Weighted>
0.0285

> <Gold.Chemscore.DEInternal.Weighted>
2.4274

> <Gold.Chemscore.Rot.Weighted>
5.5891

> <Gold.Chemscore.Internal.Correction.Weighted>
   9.000000E+99

> <Gold.Protein.RotatedTorsions>
[ 6907 6896 6895 6894 ] final  -74.66 input  -60.11 | X-H torsion
[ 7974 7965 7964 7962 ] final  -30.61 input  175.53 | X-H torsion
[ 8008 7997 7996 7995 ] final  -44.80 input   59.86 | X-H torsion
[ 10167 10162 10161 10158 ] final    8.15 input  -65.29 | X-H torsion
[ 10718 10713 10712 10709 ] final  -25.05 input   66.30 | X-H torsion
[ 10763 10752 10751 10750 ] final  123.69 input  -60.55 | X-H torsion
[ 11005 11000 10999 10996 ] final   56.53 input  -57.11 | X-H torsion

> <Gold.Protein.ActiveResidues>
 VAL166  LYS551  ARG553  GLY616  TRP617  ASP618  TYR619  PRO620  LYS621  CYS622 
 ASP623  PHE694  ASN695  SER759  ASP760  ASP761  ALA762  ILE779  LEU786  VAL792 
 PHE793  MET794  SER795  GLU796  ALA797  LYS798  CYS799  TRP800  GLU811  SER814 

> <Gold.Protein.RotatedAtoms>
  150.7085  134.4836  159.5482 H   0  0  0  0  0  0  0  0  0  0  0  0  # atno 6907 bound_to 6896
  152.2468  134.8170  160.0461 H   0  0  0  0  0  0  0  0  0  0  0  0  # atno 6908 bound_to 6896
  151.8931  133.3485  159.3842 H   0  0  0  0  0  0  0  0  0  0  0  0  # atno 6909 bound_to 6896
  146.1130  140.5562  142.8769 H   0  0  0  0  0  0  0  0  0  0  0  0  # atno 7974 bound_to 7965
  154.3998  140.1413  156.3743 H   0  0  0  0  0  0  0  0  0  0  0  0  # atno 8008 bound_to 7997
  155.8063  140.3474  155.5411 H   0  0  0  0  0  0  0  0  0  0  0  0  # atno 8009 bound_to 7997
  155.8432  140.0930  157.1712 H   0  0  0  0  0  0  0  0  0  0  0  0  # atno 8010 bound_to 7997
  140.6331  143.7949  150.7322 H   0  0  0  0  0  0  0  0  0  0  0  0  # atno 10167 bound_to 10162
  156.4695  130.4521  149.6878 H   0  0  0  0  0  0  0  0  0  0  0  0  # atno 10718 bound_to 10713
  153.6495  135.3365  155.3095 H   0  0  0  0  0  0  0  0  0  0  0  0  # atno 10763 bound_to 10752
  154.8541  135.4337  154.1919 H   0  0  0  0  0  0  0  0  0  0  0  0  # atno 10764 bound_to 10752
  153.2858  135.7013  153.7415 H   0  0  0  0  0  0  0  0  0  0  0  0  # atno 10765 bound_to 10752
  140.0522  134.5721  155.9250 H   0  0  0  0  0  0  0  0  0  0  0  0  # atno 11005 bound_to 11000
  144.7528  140.5233  143.6790 LP  0  0  0  0  0  0  0  0  0  0  0  0  # atno 17320 bound_to 7965
  145.5625  139.1480  143.3333 LP  0  0  0  0  0  0  0  0  0  0  0  0  # atno 17321 bound_to 7965
  140.1564  143.4313  152.2096 LP  0  0  0  0  0  0  0  0  0  0  0  0  # atno 17342 bound_to 10162
  139.5543  144.7361  151.4341 LP  0  0  0  0  0  0  0  0  0  0  0  0  # atno 17343 bound_to 10162
  156.3633  130.7493  151.2467 LP  0  0  0  0  0  0  0  0  0  0  0  0  # atno 17370 bound_to 10713
  157.7492  131.0344  150.4315 LP  0  0  0  0  0  0  0  0  0  0  0  0  # atno 17371 bound_to 10713
  141.1935  133.6579  156.5553 LP  0  0  0  0  0  0  0  0  0  0  0  0  # atno 17394 bound_to 11000
  140.3900  134.7449  157.4715 LP  0  0  0  0  0  0  0  0  0  0  0  0  # atno 17395 bound_to 11000

$$$$
