AV-unprocessed.smi:1762|AV-procd|sdf|7115|dock8
  -GOLD-   22720 8343D 1   1.00000     0.00000
 Structure written by MMmdl.
 53 54  0  0  0  0  0  0  0  0  2 V2000
  152.8773  138.6928  154.5072 C   0  0  0  0  0  0  0  0  0  0  0  0
  151.6287  137.8388  154.2603 C   0  0  2  0  0  0  0  0  0  0  0  0
  150.3282  138.6246  154.5170 C   0  0  0  0  0  0  0  0  0  0  0  0
  149.1303  137.7555  154.3457 N   0  3  2  0  0  0  0  0  0  0  0  0
  147.8077  138.4468  154.5307 C   0  0  2  0  0  0  0  0  0  0  0  0
  146.6362  137.4521  154.3818 C   0  0  0  0  0  0  0  0  0  0  0  0
  145.6927  137.4830  155.1729 O   0  0  0  0  0  0  0  0  0  0  0  0
  146.7096  136.5806  153.3649 N   0  0  0  0  0  0  0  0  0  0  0  0
  145.6988  135.5748  153.0698 C   0  0  0  0  0  0  0  0  0  0  0  0
  146.3510  134.2056  152.8338 C   0  0  0  0  0  0  0  0  0  0  0  0
  145.6852  133.4398  151.7061 C   0  0  0  0  0  0  0  0  0  0  0  0
  146.4588  132.7863  150.7230 C   0  0  0  0  0  0  0  0  0  0  0  0
  145.7904  132.0835  149.7016 C   0  0  0  0  0  0  0  0  0  0  0  0
  144.3825  132.0606  149.7034 C   0  0  0  0  0  0  0  0  0  0  0  0
  143.7021  132.7446  150.7306 C   0  0  0  0  0  0  0  0  0  0  0  0
  144.3330  133.4216  151.7144 N   0  0  0  0  0  0  0  0  0  0  0  0
  147.5954  139.6920  153.6039 C   0  0  0  0  0  0  0  0  0  0  0  0
  146.9932  140.9034  154.3431 C   0  0  0  0  0  0  0  0  0  0  0  0
  146.7827  139.3946  152.3261 C   0  0  0  0  0  0  0  0  0  0  0  0
  149.2824  136.5492  155.2098 C   0  0  0  0  0  0  0  0  0  0  0  0
  150.6053  135.8186  154.9181 C   0  0  2  0  0  0  0  0  0  0  0  0
  150.8110  134.6061  155.8330 C   0  0  0  0  0  0  0  0  0  0  0  0
  151.6830  136.7188  155.1328 O   0  0  0  0  0  0  0  0  0  0  0  0
  152.8927  139.5654  153.8538 H   0  0  0  0  0  0  0  0  0  0  0  0
  153.7853  138.1199  154.3168 H   0  0  0  0  0  0  0  0  0  0  0  0
  152.9168  139.0455  155.5382 H   0  0  0  0  0  0  0  0  0  0  0  0
  151.6483  137.4902  153.2259 H   0  0  0  0  0  0  0  0  0  0  0  0
  150.3303  139.0461  155.5235 H   0  0  0  0  0  0  0  0  0  0  0  0
  150.3162  139.4575  153.8170 H   0  0  0  0  0  0  0  0  0  0  0  0
  147.7997  138.8137  155.5591 H   0  0  0  0  0  0  0  0  0  0  0  0
  147.5164  136.6141  152.7584 H   0  0  0  0  0  0  0  0  0  0  0  0
  144.9958  135.5186  153.9024 H   0  0  0  0  0  0  0  0  0  0  0  0
  145.1310  135.8738  152.1869 H   0  0  0  0  0  0  0  0  0  0  0  0
  147.4089  134.3307  152.5977 H   0  0  0  0  0  0  0  0  0  0  0  0
  146.3084  133.6094  153.7463 H   0  0  0  0  0  0  0  0  0  0  0  0
  147.5381  132.8202  150.7490 H   0  0  0  0  0  0  0  0  0  0  0  0
  146.3478  131.5707  148.9316 H   0  0  0  0  0  0  0  0  0  0  0  0
  143.8367  131.5315  148.9363 H   0  0  0  0  0  0  0  0  0  0  0  0
  142.6225  132.7471  150.7635 H   0  0  0  0  0  0  0  0  0  0  0  0
  148.5770  140.0444  153.2904 H   0  0  0  0  0  0  0  0  0  0  0  0
  145.9555  140.7348  154.6323 H   0  0  0  0  0  0  0  0  0  0  0  0
  147.0098  141.7912  153.7104 H   0  0  0  0  0  0  0  0  0  0  0  0
  147.5595  141.1365  155.2452 H   0  0  0  0  0  0  0  0  0  0  0  0
  145.7442  139.1553  152.5545 H   0  0  0  0  0  0  0  0  0  0  0  0
  147.1965  138.5594  151.7618 H   0  0  0  0  0  0  0  0  0  0  0  0
  146.7750  140.2599  151.6626 H   0  0  0  0  0  0  0  0  0  0  0  0
  149.2443  136.8492  156.2584 H   0  0  0  0  0  0  0  0  0  0  0  0
  148.4653  135.8447  155.0561 H   0  0  0  0  0  0  0  0  0  0  0  0
  150.6174  135.4761  153.8816 H   0  0  0  0  0  0  0  0  0  0  0  0
  150.0131  133.8745  155.7024 H   0  0  0  0  0  0  0  0  0  0  0  0
  150.8269  134.9009  156.8827 H   0  0  0  0  0  0  0  0  0  0  0  0
  151.7559  134.1086  155.6130 H   0  0  0  0  0  0  0  0  0  0  0  0
  149.1451  137.4325  153.3883 H   0  0  0  0  0  0  0  0  0  0  0  0
  1  2  1  0  0  0  0
  1 24  1  0  0  0  0
  1 25  1  0  0  0  0
  1 26  1  0  0  0  0
  2 23  1  0  0  0  0
  2  3  1  0  0  0  0
  2 27  1  0  0  0  0
  3  4  1  0  0  0  0
  3 28  1  0  0  0  0
  3 29  1  0  0  0  0
  4  5  1  0  0  0  0
  4 20  1  0  0  0  0
  4 53  1  0  0  0  0
  5  6  1  0  0  0  0
  5 17  1  0  0  0  0
  5 30  1  0  0  0  0
  6  7  2  0  0  0  0
  6  8  1  0  0  0  0
  8  9  1  0  0  0  0
  8 31  1  0  0  0  0
  9 10  1  0  0  0  0
  9 32  1  0  0  0  0
  9 33  1  0  0  0  0
 10 11  1  0  0  0  0
 10 34  1  0  0  0  0
 10 35  1  0  0  0  0
 11 16  1  0  0  0  0
 11 12  2  0  0  0  0
 12 13  1  0  0  0  0
 12 36  1  0  0  0  0
 13 14  2  0  0  0  0
 13 37  1  0  0  0  0
 14 15  1  0  0  0  0
 14 38  1  0  0  0  0
 15 16  2  0  0  0  0
 15 39  1  0  0  0  0
 17 18  1  0  0  0  0
 17 19  1  0  0  0  0
 17 40  1  0  0  0  0
 18 41  1  0  0  0  0
 18 42  1  0  0  0  0
 18 43  1  0  0  0  0
 19 44  1  0  0  0  0
 19 45  1  0  0  0  0
 19 46  1  0  0  0  0
 20 21  1  0  0  0  0
 20 47  1  0  0  0  0
 20 48  1  0  0  0  0
 21 22  1  0  0  0  0
 21 23  1  0  0  0  0
 21 49  1  0  0  0  0
 22 50  1  0  0  0  0
 22 51  1  0  0  0  0
 22 52  1  0  0  0  0
M  CHG  1   4   1
M  END
> <s_m_source_file>
AV-unprocessed.smi

> <i_m_source_file_index>
1762

> <i_lp_mmshare_version>
43012

> <i_f3d_flags>
0

> <s_epik_input>
W0NIM11bQ0BASF0xW0NIMl1OKFtDSDJdW0NASF0oTzEpW0NIM10pW0NAQEhdKFtDSF0oW0NIM10pW0NIM10pQyg9TylbTkhdW0NIMl1bQ0gyXWMyW2NIXVtjSF1bY0hdW2NIXW4y

> <s_epik_cmdline>
J2VwaWtfcHl0aG9uJywgJy1waCcsICc3LjAnLCAnLXRuJywgJzgnLCAnLW1hJywgJzIwMCcsICctbWV0YWxfYmluZGluZycsICctaW1hZScsICc8aW5maWxlLm1hZT4nLCAnLW9tYWUnLCAnPG91dGZpbGUubWFlPic=

> <r_epik_Ionization_Penalty>
2.27005

> <r_epik_Ionization_Penalty_Charging>
2.24983

> <r_epik_Ionization_Penalty_Neutral>
0.0202209

> <r_epik_State_Penalty>
2.40228

> <r_epik_Charging_Adjusted_Penalty>
4.65211

> <i_epik_Tot_Q>
1

> <i_epik_Tot_abs_Q>
1

> <r_epik_Metal_State_Penalty>
2.40762

> <b_epik_Metal_Only>
0

> <s_lp_Force_Field>
OPLS_2005

> <r_lp_Energy>
21.2519

> <b_lp_Chiralities_Consistent>
1

> <s_lp_Variant>
AV-unprocessed.smi:1762-17

> <Gold.Version>
5.8.1

> <Gold.Id.Protein>
6NUR|6NUR_protein|mol2

> <Gold.PLP.Fitness>
51.8023

> <Gold.PLP.PLP>
-40.7927

> <Gold.PLP.part.hbond>
-3.0000

> <Gold.PLP.part.metal>
0.0000

> <Gold.PLP.part.buried>
-3.4759

> <Gold.PLP.part.nonpolar>
-35.9005

> <Gold.PLP.part.repulsive>
0.2589

> <Gold.PLP.ligand.clash>
0.0000

> <Gold.PLP.ligand.torsion>
2.1270

> <Gold.PLP.Chemscore.Hbond>
4.0000

> <Gold.PLP.Chemscore.CHOScore>
0.9993

> <Gold.PLP.Chemscore.Metal>
0.0000

> <Gold.Chemscore.Hbonds>
donor molecule, donor type, donor heavy atom, donor atom, acceptor molecule, acceptor atom, score
      L1  H     4    53       P1  7948  2.00
      L1  H     8    31       P1  7948  1.00
      P1  H 10752 10765       L1    23  0.84
      L1  C    15    39       P1 10186  0.75

> <Gold.PLP.Chemscore.Internal.Correction>
0.2656

> <Gold.Rescore>
     Score         DG    S(hbond)    S(metal)    S(lipo)     H(rot)  DE(clash)    DE(int)     intcor
     20.00     -23.27       2.54        0.00     116.03       1.66       0.10       3.17       ----

> <Gold.Chemscore.Fitness>
20.0040

> <Gold.Chemscore.DG>
-23.2671

> <Gold.Chemscore.ZeroCoef>
-5.4800

> <Gold.Chemscore.Hbond>
2.5360

> <Gold.Chemscore.Metal>
0.0000

> <Gold.Chemscore.Lipo>
116.0287

> <Gold.Chemscore.Internal_Hbond>
0.0000

> <Gold.Chemscore.DEClash>
0.0952

> <Gold.Chemscore.DEInternal>
3.1678

> <Gold.Chemscore.Rot>
1.6635

> <Gold.Chemscore.Internal.Correction>
   9.000000E+99

> <Gold.Chemscore.Hbonds>
donor molecule, donor type, donor heavy atom, donor atom, acceptor molecule, acceptor atom, score
      L1  H     4    53       P1  7948  0.99
      L1  H     8    31       P1  7948  1.00
      P1  H 10752 10765       L1    23  0.15

> <Gold.Chemscore.Hbond.Weighted>
-8.4703

> <Gold.Chemscore.Metal.Weighted>
-0.0000

> <Gold.Chemscore.Lipo.Weighted>
-13.5754

> <Gold.Chemscore.Internal_Hbond.Weighted>
0.0000

> <Gold.Chemscore.DEClash.Weighted>
0.0952

> <Gold.Chemscore.DEInternal.Weighted>
3.1678

> <Gold.Chemscore.Rot.Weighted>
4.2586

> <Gold.Chemscore.Internal.Correction.Weighted>
   9.000000E+99

> <Gold.Protein.RotatedTorsions>
[ 6907 6896 6895 6894 ] final   78.92 input  -60.11 | X-H torsion
[ 7974 7965 7964 7962 ] final -119.11 input  175.53 | X-H torsion
[ 8008 7997 7996 7995 ] final  -22.76 input   59.86 | X-H torsion
[ 10167 10162 10161 10158 ] final  -57.37 input  -65.29 | X-H torsion
[ 10718 10713 10712 10709 ] final  170.84 input   66.30 | X-H torsion
[ 10763 10752 10751 10750 ] final -156.66 input  -60.55 | X-H torsion
[ 11005 11000 10999 10996 ] final  -82.02 input  -57.11 | X-H torsion

> <Gold.Protein.ActiveResidues>
 VAL166  LYS551  ARG553  GLY616  TRP617  ASP618  TYR619  PRO620  LYS621  CYS622 
 ASP623  PHE694  ASN695  SER759  ASP760  ASP761  ALA762  ILE779  LEU786  VAL792 
 PHE793  MET794  SER795  GLU796  ALA797  LYS798  CYS799  TRP800  GLU811  SER814 

> <Gold.Protein.RotatedAtoms>
  152.5178  134.3590  159.9277 H   0  0  0  0  0  0  0  0  0  0  0  0  # atno 6907 bound_to 6896
  151.3542  133.3907  159.2691 H   0  0  0  0  0  0  0  0  0  0  0  0  # atno 6908 bound_to 6896
  150.9703  134.9096  159.7842 H   0  0  0  0  0  0  0  0  0  0  0  0  # atno 6909 bound_to 6896
  145.0662  140.8326  143.4123 H   0  0  0  0  0  0  0  0  0  0  0  0  # atno 7974 bound_to 7965
  154.4625  140.1999  156.0207 H   0  0  0  0  0  0  0  0  0  0  0  0  # atno 8008 bound_to 7997
  156.0866  140.3264  155.7733 H   0  0  0  0  0  0  0  0  0  0  0  0  # atno 8009 bound_to 7997
  155.5025  140.0555  157.2927 H   0  0  0  0  0  0  0  0  0  0  0  0  # atno 8010 bound_to 7997
  140.6262  143.2439  151.5357 H   0  0  0  0  0  0  0  0  0  0  0  0  # atno 10167 bound_to 10162
  157.0023  131.0180  151.2827 H   0  0  0  0  0  0  0  0  0  0  0  0  # atno 10718 bound_to 10713
  154.7696  135.3141  154.8217 H   0  0  0  0  0  0  0  0  0  0  0  0  # atno 10763 bound_to 10752
  153.8956  135.6821  153.4762 H   0  0  0  0  0  0  0  0  0  0  0  0  # atno 10764 bound_to 10752
  153.1307  135.4781  154.9278 H   0  0  0  0  0  0  0  0  0  0  0  0  # atno 10765 bound_to 10752
  141.1664  133.7224  156.8510 H   0  0  0  0  0  0  0  0  0  0  0  0  # atno 11005 bound_to 11000
  145.1348  139.2609  143.5520 LP  0  0  0  0  0  0  0  0  0  0  0  0  # atno 17320 bound_to 7965
  146.3527  140.1009  142.8608 LP  0  0  0  0  0  0  0  0  0  0  0  0  # atno 17321 bound_to 7965
  139.5482  144.2465  152.1482 LP  0  0  0  0  0  0  0  0  0  0  0  0  # atno 17342 bound_to 10162
  140.1697  144.4947  150.6586 LP  0  0  0  0  0  0  0  0  0  0  0  0  # atno 17343 bound_to 10162
  157.5381  130.8102  149.7996 LP  0  0  0  0  0  0  0  0  0  0  0  0  # atno 17370 bound_to 10713
  156.0166  130.3811  150.2090 LP  0  0  0  0  0  0  0  0  0  0  0  0  # atno 17371 bound_to 10713
  140.1916  134.8962  157.3066 LP  0  0  0  0  0  0  0  0  0  0  0  0  # atno 17394 bound_to 11000
  140.2284  134.3938  155.7533 LP  0  0  0  0  0  0  0  0  0  0  0  0  # atno 17395 bound_to 11000

$$$$
