AV-unprocessed.smi:28|AV-procd|sdf|189|dock6
  -GOLD-   2262015453D 1   1.00000     0.00000
 Structure written by MMmdl.
 41 44  0  0  0  0  0  0  0  0  1 V2000
  150.3597  140.1555  154.4382 O   0  0  0  0  0  0  0  0  0  0  0  0
  150.2411  138.9326  154.5311 C   0  0  0  0  0  0  0  0  0  0  0  0
  148.9657  138.2387  154.3878 C   0  0  0  0  0  0  0  0  0  0  0  0
  147.8521  138.9438  154.1268 F   0  0  0  0  0  0  0  0  0  0  0  0
  148.8817  136.8969  154.5172 C   0  0  0  0  0  0  0  0  0  0  0  0
  149.9777  136.0933  154.7879 N   0  0  0  0  0  0  0  0  0  0  0  0
  149.8550  134.5926  154.9534 C   0  0  2  0  0  0  0  0  0  0  0  0
  150.8596  133.8608  154.0423 C   0  0  0  0  0  0  0  0  0  0  0  0
  149.9822  132.8724  153.2997 C   0  0  0  0  0  0  0  0  0  0  0  0
  148.6448  133.5963  153.2715 C   0  0  0  0  0  0  0  0  0  0  0  0
  148.5763  134.1736  154.5685 O   0  0  0  0  0  0  0  0  0  0  0  0
  151.2513  136.6814  154.9502 C   0  0  0  0  0  0  0  0  0  0  0  0
  152.2352  135.9876  155.2181 O   0  0  0  0  0  0  0  0  0  0  0  0
  151.3441  138.0854  154.8008 N   0  0  0  0  0  0  0  0  0  0  0  0
  152.6448  138.7036  154.9973 C   0  0  0  0  0  0  0  0  0  0  0  0
  152.7442  139.2733  156.3772 C   0  0  0  0  0  0  0  0  0  0  0  0
  153.4342  138.7857  157.4098 N   0  0  0  0  0  0  0  0  0  0  0  0
  153.2292  139.6684  158.4455 N   0  0  0  0  0  0  0  0  0  0  0  0
  152.4356  140.6296  157.9617 C   0  0  0  0  0  0  0  0  0  0  0  0
  151.8987  141.8054  158.6372 C   0  0  0  0  0  0  0  0  0  0  0  0
  150.9164  142.5753  157.9765 C   0  0  0  0  0  0  0  0  0  0  0  0
  150.3713  143.7190  158.5903 C   0  0  0  0  0  0  0  0  0  0  0  0
  150.8099  144.1056  159.8698 C   0  0  0  0  0  0  0  0  0  0  0  0
  151.7977  143.3512  160.5298 C   0  0  0  0  0  0  0  0  0  0  0  0
  152.3483  142.2056  159.9205 C   0  0  0  0  0  0  0  0  0  0  0  0
  153.7147  141.2551  160.8523 Br  0  0  0  0  0  0  0  0  0  0  0  0
  152.0839  140.4243  156.6649 O   0  0  0  0  0  0  0  0  0  0  0  0
  147.9049  136.4520  154.4046 H   0  0  0  0  0  0  0  0  0  0  0  0
  149.9952  134.4018  156.0189 H   0  0  0  0  0  0  0  0  0  0  0  0
  151.3185  134.5621  153.3432 H   0  0  0  0  0  0  0  0  0  0  0  0
  151.6433  133.3816  154.6300 H   0  0  0  0  0  0  0  0  0  0  0  0
  150.3580  132.6289  152.3056 H   0  0  0  0  0  0  0  0  0  0  0  0
  149.8934  131.9468  153.8700 H   0  0  0  0  0  0  0  0  0  0  0  0
  148.6414  134.3773  152.5096 H   0  0  0  0  0  0  0  0  0  0  0  0
  147.8048  132.9269  153.0846 H   0  0  0  0  0  0  0  0  0  0  0  0
  153.4179  137.9538  154.8218 H   0  0  0  0  0  0  0  0  0  0  0  0
  152.7903  139.4759  154.2405 H   0  0  0  0  0  0  0  0  0  0  0  0
  150.5702  142.2862  156.9946 H   0  0  0  0  0  0  0  0  0  0  0  0
  149.6165  144.2986  158.0795 H   0  0  0  0  0  0  0  0  0  0  0  0
  150.3934  144.9828  160.3426 H   0  0  0  0  0  0  0  0  0  0  0  0
  152.1400  143.6567  161.5076 H   0  0  0  0  0  0  0  0  0  0  0  0
  1  2  2  0  0  0  0
  2 14  1  0  0  0  0
  2  3  1  0  0  0  0
  3  4  1  0  0  0  0
  3  5  2  0  0  0  0
  5  6  1  0  0  0  0
  5 28  1  0  0  0  0
  6  7  1  0  0  0  0
  6 12  1  0  0  0  0
  7 11  1  0  0  0  0
  7  8  1  0  0  0  0
  7 29  1  0  0  0  0
  8  9  1  0  0  0  0
  8 30  1  0  0  0  0
  8 31  1  0  0  0  0
  9 10  1  0  0  0  0
  9 32  1  0  0  0  0
  9 33  1  0  0  0  0
 10 11  1  0  0  0  0
 10 34  1  0  0  0  0
 10 35  1  0  0  0  0
 12 13  2  0  0  0  0
 12 14  1  0  0  0  0
 14 15  1  0  0  0  0
 15 16  1  0  0  0  0
 15 36  1  0  0  0  0
 15 37  1  0  0  0  0
 16 27  1  0  0  0  0
 16 17  2  0  0  0  0
 17 18  1  0  0  0  0
 18 19  2  0  0  0  0
 19 20  1  0  0  0  0
 19 27  1  0  0  0  0
 20 25  1  0  0  0  0
 20 21  2  0  0  0  0
 21 22  1  0  0  0  0
 21 38  1  0  0  0  0
 22 23  2  0  0  0  0
 22 39  1  0  0  0  0
 23 24  1  0  0  0  0
 23 40  1  0  0  0  0
 24 25  2  0  0  0  0
 24 41  1  0  0  0  0
 25 26  1  0  0  0  0
M  END
> <s_m_source_file>
AV-unprocessed.smi

> <i_m_source_file_index>
28

> <i_lp_mmshare_version>
43012

> <i_f3d_flags>
0

> <s_epik_input>
TzFbQ0gyXVtDSDJdW0NIMl1bQ0BIXTFuKFtjSF1jKEYpYzI9TyljKD1PKW4yW0NIMl1jM25uYyhvMyktYzRbY0hdW2NIXVtjSF1bY0hdYzRCcg==

> <s_epik_cmdline>
J2VwaWtfcHl0aG9uJywgJy1waCcsICc3LjAnLCAnLXRuJywgJzgnLCAnLW1hJywgJzIwMCcsICctbWV0YWxfYmluZGluZycsICctaW1hZScsICc8aW5maWxlLm1hZT4nLCAnLW9tYWUnLCAnPG91dGZpbGUubWFlPic=

> <r_lp_tautomer_probability>
1

> <r_epik_Ionization_Penalty>
2.5628e-09

> <r_epik_Ionization_Penalty_Charging>
2.54231e-09

> <r_epik_Ionization_Penalty_Neutral>
2.0492e-11

> <r_epik_State_Penalty>
-0

> <r_epik_Charging_Adjusted_Penalty>
2.54231e-09

> <i_epik_Tot_Q>
0

> <i_epik_Tot_abs_Q>
0

> <r_epik_Metal_State_Penalty>
-0

> <b_epik_Metal_Only>
0

> <s_epik_Chemistry_Notes>
This compound contains an acetal/aminal-like group ( X-CH(R)-Y where X, Y are N, S, or O) that may be acid/base labile, releasing an aldehyde.

> <s_lp_Force_Field>
OPLS_2005

> <r_lp_Energy>
34.3922

> <b_lp_Chiralities_Consistent>
1

> <s_lp_Variant>
AV-unprocessed.smi:28-1

> <Gold.Version>
5.8.1

> <Gold.Id.Protein>
6NUR|6NUR_protein|mol2

> <Gold.PLP.Fitness>
51.6620

> <Gold.PLP.PLP>
-46.9237

> <Gold.PLP.part.hbond>
-4.3797

> <Gold.PLP.part.metal>
0.0000

> <Gold.PLP.part.buried>
-1.8567

> <Gold.PLP.part.nonpolar>
-39.8674

> <Gold.PLP.part.repulsive>
0.2793

> <Gold.PLP.ligand.clash>
0.0000

> <Gold.PLP.ligand.torsion>
0.6314

> <Gold.PLP.Chemscore.Hbond>
1.9920

> <Gold.PLP.Chemscore.CHOScore>
0.0000

> <Gold.PLP.Chemscore.Metal>
0.0000

> <Gold.Chemscore.Hbonds>
donor molecule, donor type, donor heavy atom, donor atom, acceptor molecule, acceptor atom, score
      P1  H  7989  7998       L1     1  1.00

> <Gold.PLP.Chemscore.Internal.Correction>
0.0251

> <Gold.Rescore>
     Score         DG    S(hbond)    S(metal)    S(lipo)     H(rot)  DE(clash)    DE(int)     intcor
     14.73     -19.43       1.89        0.00     102.27       1.70       0.09       4.61       ----

> <Gold.Chemscore.Fitness>
14.7276

> <Gold.Chemscore.DG>
-19.4279

> <Gold.Chemscore.ZeroCoef>
-5.4800

> <Gold.Chemscore.Hbond>
1.8948

> <Gold.Chemscore.Metal>
0.0000

> <Gold.Chemscore.Lipo>
102.2735

> <Gold.Chemscore.Internal_Hbond>
0.0000

> <Gold.Chemscore.DEClash>
0.0876

> <Gold.Chemscore.DEInternal>
4.6127

> <Gold.Chemscore.Rot>
1.6980

> <Gold.Chemscore.Internal.Correction>
   9.000000E+99

> <Gold.Chemscore.Hbonds>
donor molecule, donor type, donor heavy atom, donor atom, acceptor molecule, acceptor atom, score
      P1  H  7989  7998       L1     1  0.98
      P1  H 10752 10763       L1    13  0.01

> <Gold.Chemscore.Hbond.Weighted>
-6.3288

> <Gold.Chemscore.Metal.Weighted>
-0.0000

> <Gold.Chemscore.Lipo.Weighted>
-11.9660

> <Gold.Chemscore.Internal_Hbond.Weighted>
0.0000

> <Gold.Chemscore.DEClash.Weighted>
0.0876

> <Gold.Chemscore.DEInternal.Weighted>
4.6127

> <Gold.Chemscore.Rot.Weighted>
4.3469

> <Gold.Chemscore.Internal.Correction.Weighted>
   9.000000E+99

> <Gold.Protein.RotatedTorsions>
[ 6907 6896 6895 6894 ] final   15.85 input  -60.11 | X-H torsion
[ 7974 7965 7964 7962 ] final  -12.60 input  175.53 | X-H torsion
[ 8008 7997 7996 7995 ] final  -73.76 input   59.86 | X-H torsion
[ 10167 10162 10161 10158 ] final  -54.53 input  -65.29 | X-H torsion
[ 10718 10713 10712 10709 ] final  -63.87 input   66.30 | X-H torsion
[ 10763 10752 10751 10750 ] final   53.54 input  -60.55 | X-H torsion
[ 11005 11000 10999 10996 ] final  -41.93 input  -57.11 | X-H torsion

> <Gold.Protein.ActiveResidues>
 VAL166  LYS551  ARG553  GLY616  TRP617  ASP618  TYR619  PRO620  LYS621  CYS622 
 ASP623  PHE694  ASN695  SER759  ASP760  ASP761  ALA762  ILE779  LEU786  VAL792 
 PHE793  MET794  SER795  GLU796  ALA797  LYS798  CYS799  TRP800  GLU811  SER814 

> <Gold.Protein.RotatedAtoms>
  151.8246  135.0641  160.0429 H   0  0  0  0  0  0  0  0  0  0  0  0  # atno 6907 bound_to 6896
  152.2926  133.5571  159.5575 H   0  0  0  0  0  0  0  0  0  0  0  0  # atno 6908 bound_to 6896
  150.7236  134.0323  159.3780 H   0  0  0  0  0  0  0  0  0  0  0  0  # atno 6909 bound_to 6896
  146.2146  140.3081  142.8380 H   0  0  0  0  0  0  0  0  0  0  0  0  # atno 7974 bound_to 7965
  154.5274  140.0773  156.8283 H   0  0  0  0  0  0  0  0  0  0  0  0  # atno 8008 bound_to 7997
  155.3447  140.3409  155.4221 H   0  0  0  0  0  0  0  0  0  0  0  0  # atno 8009 bound_to 7997
  156.1746  140.1631  156.8373 H   0  0  0  0  0  0  0  0  0  0  0  0  # atno 8010 bound_to 7997
  140.6425  143.2516  151.4949 H   0  0  0  0  0  0  0  0  0  0  0  0  # atno 10167 bound_to 10162
  156.0764  130.4226  150.1339 H   0  0  0  0  0  0  0  0  0  0  0  0  # atno 10718 bound_to 10713
  152.9796  135.5775  154.4758 H   0  0  0  0  0  0  0  0  0  0  0  0  # atno 10763 bound_to 10752
  154.4314  135.2773  155.1912 H   0  0  0  0  0  0  0  0  0  0  0  0  # atno 10764 bound_to 10752
  154.3619  135.6187  153.5748 H   0  0  0  0  0  0  0  0  0  0  0  0  # atno 10765 bound_to 10752
  141.0280  133.6832  156.2525 H   0  0  0  0  0  0  0  0  0  0  0  0  # atno 11005 bound_to 11000
  144.9008  140.7640  143.5868 LP  0  0  0  0  0  0  0  0  0  0  0  0  # atno 17320 bound_to 7965
  145.3007  139.1851  143.4691 LP  0  0  0  0  0  0  0  0  0  0  0  0  # atno 17321 bound_to 7965
  139.5635  144.2099  152.1728 LP  0  0  0  0  0  0  0  0  0  0  0  0  # atno 17342 bound_to 10162
  140.1374  144.5233  150.6765 LP  0  0  0  0  0  0  0  0  0  0  0  0  # atno 17343 bound_to 10162
  156.9379  130.9735  151.3521 LP  0  0  0  0  0  0  0  0  0  0  0  0  # atno 17370 bound_to 10713
  157.5861  130.8411  149.8592 LP  0  0  0  0  0  0  0  0  0  0  0  0  # atno 17371 bound_to 10713
  140.6456  134.5120  157.5573 LP  0  0  0  0  0  0  0  0  0  0  0  0  # atno 17394 bound_to 11000
  139.9189  134.8189  156.1275 LP  0  0  0  0  0  0  0  0  0  0  0  0  # atno 17395 bound_to 11000

$$$$
