AV-unprocessed.smi:2822|AV-procd|sdf|10860|dock10
  -GOLD-   2272015303D 1   1.00000     0.00000
 Structure written by MMmdl.
 41 43  0  0  0  0  0  0  0  0  3 V2000
  156.6463  140.2279  164.6975 Cl  0  0  0  0  0  0  0  0  0  0  0  0
  155.6279  138.9025  164.2556 C   0  0  0  0  0  0  0  0  0  0  0  0
  155.2626  137.9576  165.2366 C   0  0  0  0  0  0  0  0  0  0  0  0
  154.4683  136.9166  164.9090 N   0  3  0  0  0  0  0  0  0  0  0  0
  153.9934  136.7267  163.6600 C   0  0  0  0  0  0  0  0  0  0  0  0
  154.3239  137.6372  162.6357 C   0  0  0  0  0  0  0  0  0  0  0  0
  155.1545  138.7480  162.9290 C   0  0  0  0  0  0  0  0  0  0  0  0
  155.5168  139.6936  161.9570 N   0  0  0  0  0  0  0  0  0  0  0  0
  154.8036  139.7895  160.6921 C   0  0  0  0  0  0  0  0  0  0  0  0
  153.6834  140.8380  160.7546 C   0  0  2  0  0  0  0  0  0  0  0  0
  153.6662  141.7301  159.4995 C   0  0  0  0  0  0  0  0  0  0  0  0
  152.6238  142.7764  159.6168 N   0  3  2  0  0  0  0  0  0  0  0  0
  152.5456  143.6370  158.4091 C   0  0  0  0  0  0  0  0  0  0  0  0
  151.3941  144.6490  158.5241 C   0  0  0  0  0  0  0  0  0  0  0  0
  151.5346  145.4943  159.7964 C   0  0  0  0  0  0  0  0  0  0  0  0
  151.6419  144.5814  161.0252 C   0  0  0  0  0  0  0  0  0  0  0  0
  152.7901  143.5644  160.8683 C   0  0  1  0  0  0  0  0  0  0  0  0
  152.8694  142.6164  162.0810 C   0  0  0  0  0  0  0  0  0  0  0  0
  153.9117  141.6685  161.8881 O   0  0  0  0  0  0  0  0  0  0  0  0
  155.5806  138.0035  166.2679 H   0  0  0  0  0  0  0  0  0  0  0  0
  153.3668  135.8581  163.5179 H   0  0  0  0  0  0  0  0  0  0  0  0
  153.9323  137.4686  161.6437 H   0  0  0  0  0  0  0  0  0  0  0  0
  156.4003  140.1759  162.0491 H   0  0  0  0  0  0  0  0  0  0  0  0
  155.5026  140.0325  159.8907 H   0  0  0  0  0  0  0  0  0  0  0  0
  154.3719  138.8142  160.4641 H   0  0  0  0  0  0  0  0  0  0  0  0
  152.7214  140.3304  160.8535 H   0  0  0  0  0  0  0  0  0  0  0  0
  154.6408  142.2004  159.3580 H   0  0  0  0  0  0  0  0  0  0  0  0
  153.4722  141.1227  158.6145 H   0  0  0  0  0  0  0  0  0  0  0  0
  153.4923  144.1619  158.2722 H   0  0  0  0  0  0  0  0  0  0  0  0
  152.3971  143.0147  157.5257 H   0  0  0  0  0  0  0  0  0  0  0  0
  151.3774  145.2964  157.6467 H   0  0  0  0  0  0  0  0  0  0  0  0
  150.4400  144.1203  158.5376 H   0  0  0  0  0  0  0  0  0  0  0  0
  152.4224  146.1242  159.7252 H   0  0  0  0  0  0  0  0  0  0  0  0
  150.6821  146.1665  159.8992 H   0  0  0  0  0  0  0  0  0  0  0  0
  151.7966  145.1864  161.9194 H   0  0  0  0  0  0  0  0  0  0  0  0
  150.6974  144.0544  161.1690 H   0  0  0  0  0  0  0  0  0  0  0  0
  153.7327  144.1109  160.8000 H   0  0  0  0  0  0  0  0  0  0  0  0
  153.0787  143.1836  162.9884 H   0  0  0  0  0  0  0  0  0  0  0  0
  151.9209  142.1006  162.2416 H   0  0  0  0  0  0  0  0  0  0  0  0
  151.7374  142.2977  159.6908 H   0  0  0  0  0  0  0  0  0  0  0  0
  154.2167  136.2459  165.6357 H   0  0  0  0  0  0  0  0  0  0  0  0
  1  2  1  0  0  0  0
  2  7  1  0  0  0  0
  2  3  2  0  0  0  0
  3  4  1  0  0  0  0
  3 20  1  0  0  0  0
  4  5  2  0  0  0  0
  4 41  1  0  0  0  0
  5  6  1  0  0  0  0
  5 21  1  0  0  0  0
  6  7  2  0  0  0  0
  6 22  1  0  0  0  0
  7  8  1  0  0  0  0
  8  9  1  0  0  0  0
  8 23  1  0  0  0  0
  9 10  1  0  0  0  0
  9 24  1  0  0  0  0
  9 25  1  0  0  0  0
 10 19  1  0  0  0  0
 10 11  1  0  0  0  0
 10 26  1  0  0  0  0
 11 12  1  0  0  0  0
 11 27  1  0  0  0  0
 11 28  1  0  0  0  0
 12 17  1  0  0  0  0
 12 13  1  0  0  0  0
 12 40  1  0  0  0  0
 13 14  1  0  0  0  0
 13 29  1  0  0  0  0
 13 30  1  0  0  0  0
 14 15  1  0  0  0  0
 14 31  1  0  0  0  0
 14 32  1  0  0  0  0
 15 16  1  0  0  0  0
 15 33  1  0  0  0  0
 15 34  1  0  0  0  0
 16 17  1  0  0  0  0
 16 35  1  0  0  0  0
 16 36  1  0  0  0  0
 17 18  1  0  0  0  0
 17 37  1  0  0  0  0
 18 19  1  0  0  0  0
 18 38  1  0  0  0  0
 18 39  1  0  0  0  0
M  CHG  1   4   1
M  CHG  1  12   1
M  END
> <s_m_source_file>
AV-unprocessed.smi

> <i_m_source_file_index>
2822

> <i_lp_mmshare_version>
43012

> <i_f3d_flags>
0

> <s_epik_input>
Q2xjMVtjSF1uW2NIXVtjSF1jMVtOSF1bQ0gyXVtDQEhdKFtDSDJdMilPW0NIMl1bQ0BASF0oTjIzKVtDSDJdW0NIMl1bQ0gyXVtDSDJdMw==

> <s_epik_cmdline>
J2VwaWtfcHl0aG9uJywgJy1waCcsICc3LjAnLCAnLXRuJywgJzgnLCAnLW1hJywgJzIwMCcsICctbWV0YWxfYmluZGluZycsICctaW1hZScsICc8aW5maWxlLm1hZT4nLCAnLW9tYWUnLCAnPG91dGZpbGUubWFlPic=

> <r_lp_tautomer_probability>
1

> <r_epik_Ionization_Penalty>
0.254999

> <r_epik_Ionization_Penalty_Charging>
0.254956

> <r_epik_Ionization_Penalty_Neutral>
4.33524e-05

> <r_epik_State_Penalty>
0.230978

> <r_epik_Charging_Adjusted_Penalty>
0.485934

> <i_epik_Tot_Q>
2

> <i_epik_Tot_abs_Q>
2

> <r_epik_Metal_State_Penalty>
3.47007

> <b_epik_Metal_Only>
0

> <s_lp_Force_Field>
OPLS_2005

> <r_lp_Energy>
36.8988

> <b_lp_Chiralities_Consistent>
1

> <s_lp_Variant>
AV-unprocessed.smi:2822-1

> <Gold.Version>
5.8.1

> <Gold.Id.Protein>
6NUR|6NUR_protein|mol2

> <Gold.PLP.Fitness>
46.0426

> <Gold.PLP.PLP>
-47.7669

> <Gold.PLP.part.hbond>
-1.4038

> <Gold.PLP.part.metal>
0.0000

> <Gold.PLP.part.buried>
-7.0478

> <Gold.PLP.part.nonpolar>
-39.1913

> <Gold.PLP.part.repulsive>
0.2078

> <Gold.PLP.ligand.clash>
0.0000

> <Gold.PLP.ligand.torsion>
0.8626

> <Gold.PLP.Chemscore.Hbond>
0.0000

> <Gold.PLP.Chemscore.CHOScore>
0.0000

> <Gold.PLP.Chemscore.Metal>
0.0000

> <Gold.PLP.Chemscore.Internal.Correction>
0.0008

> <Gold.Rescore>
     Score         DG    S(hbond)    S(metal)    S(lipo)     H(rot)  DE(clash)    DE(int)     intcor
     18.24     -19.29       0.00        0.00     144.22       1.20       0.24       0.81       ----

> <Gold.Chemscore.Fitness>
18.2397

> <Gold.Chemscore.DG>
-19.2915

> <Gold.Chemscore.ZeroCoef>
-5.4800

> <Gold.Chemscore.Hbond>
0.0000

> <Gold.Chemscore.Metal>
0.0000

> <Gold.Chemscore.Lipo>
144.2204

> <Gold.Chemscore.Internal_Hbond>
0.0000

> <Gold.Chemscore.DEClash>
0.2424

> <Gold.Chemscore.DEInternal>
0.8094

> <Gold.Chemscore.Rot>
1.1962

> <Gold.Chemscore.Internal.Correction>
   9.000000E+99

> <Gold.Chemscore.Hbond.Weighted>
-0.0000

> <Gold.Chemscore.Metal.Weighted>
-0.0000

> <Gold.Chemscore.Lipo.Weighted>
-16.8738

> <Gold.Chemscore.Internal_Hbond.Weighted>
0.0000

> <Gold.Chemscore.DEClash.Weighted>
0.2424

> <Gold.Chemscore.DEInternal.Weighted>
0.8094

> <Gold.Chemscore.Rot.Weighted>
3.0623

> <Gold.Chemscore.Internal.Correction.Weighted>
   9.000000E+99

> <Gold.Protein.RotatedTorsions>
[ 6907 6896 6895 6894 ] final  140.64 input  -60.11 | X-H torsion
[ 7974 7965 7964 7962 ] final    4.27 input  175.53 | X-H torsion
[ 8008 7997 7996 7995 ] final    4.96 input   59.86 | X-H torsion
[ 10167 10162 10161 10158 ] final -166.40 input  -65.29 | X-H torsion
[ 10718 10713 10712 10709 ] final  -83.18 input   66.30 | X-H torsion
[ 10763 10752 10751 10750 ] final  -32.68 input  -60.55 | X-H torsion
[ 11005 11000 10999 10996 ] final  -85.49 input  -57.11 | X-H torsion

> <Gold.Protein.ActiveResidues>
 VAL166  LYS551  ARG553  GLY616  TRP617  ASP618  TYR619  PRO620  LYS621  CYS622 
 ASP623  PHE694  ASN695  SER759  ASP760  ASP761  ALA762  ILE779  LEU786  VAL792 
 PHE793  MET794  SER795  GLU796  ALA797  LYS798  CYS799  TRP800  GLU811  SER814 

> <Gold.Protein.RotatedAtoms>
  152.2406  133.5132  159.5267 H   0  0  0  0  0  0  0  0  0  0  0  0  # atno 6907 bound_to 6896
  150.7063  134.1095  159.4004 H   0  0  0  0  0  0  0  0  0  0  0  0  # atno 6908 bound_to 6896
  151.9015  135.0376  160.0557 H   0  0  0  0  0  0  0  0  0  0  0  0  # atno 6909 bound_to 6896
  146.2444  140.0559  142.8372 H   0  0  0  0  0  0  0  0  0  0  0  0  # atno 7974 bound_to 7965
  154.7224  140.2714  155.6529 H   0  0  0  0  0  0  0  0  0  0  0  0  # atno 8008 bound_to 7997
  156.2827  140.2732  156.1824 H   0  0  0  0  0  0  0  0  0  0  0  0  # atno 8009 bound_to 7997
  155.0490  140.0371  157.2527 H   0  0  0  0  0  0  0  0  0  0  0  0  # atno 8010 bound_to 7997
  139.6117  144.0801  152.1848 H   0  0  0  0  0  0  0  0  0  0  0  0  # atno 10167 bound_to 10162
  156.0022  130.4657  150.4218 H   0  0  0  0  0  0  0  0  0  0  0  0  # atno 10718 bound_to 10713
  153.8177  135.6877  153.4831 H   0  0  0  0  0  0  0  0  0  0  0  0  # atno 10763 bound_to 10752
  153.1588  135.4588  154.9741 H   0  0  0  0  0  0  0  0  0  0  0  0  # atno 10764 bound_to 10752
  154.7941  135.3312  154.7652 H   0  0  0  0  0  0  0  0  0  0  0  0  # atno 10765 bound_to 10752
  141.1640  133.7402  156.9022 H   0  0  0  0  0  0  0  0  0  0  0  0  # atno 11005 bound_to 11000
  145.0943  140.9304  143.4750 LP  0  0  0  0  0  0  0  0  0  0  0  0  # atno 17320 bound_to 7965
  145.0738  139.3011  143.5818 LP  0  0  0  0  0  0  0  0  0  0  0  0  # atno 17321 bound_to 7965
  140.0421  144.5999  150.7402 LP  0  0  0  0  0  0  0  0  0  0  0  0  # atno 17342 bound_to 10162
  140.7323  143.2705  151.3905 LP  0  0  0  0  0  0  0  0  0  0  0  0  # atno 17343 bound_to 10162
  157.2273  131.0496  151.2512 LP  0  0  0  0  0  0  0  0  0  0  0  0  # atno 17370 bound_to 10713
  157.3744  130.7198  149.6587 LP  0  0  0  0  0  0  0  0  0  0  0  0  # atno 17371 bound_to 10713
  140.1574  134.9188  157.2672 LP  0  0  0  0  0  0  0  0  0  0  0  0  # atno 17394 bound_to 11000
  140.2651  134.3526  155.7393 LP  0  0  0  0  0  0  0  0  0  0  0  0  # atno 17395 bound_to 11000

$$$$
