AV-unprocessed.smi:193|AV-procd|sdf|1502|dock4
  -GOLD-   2262019333D 1   1.00000     0.00000
 Structure written by MMmdl.
 62 66  0  0  0  0  0  0  0  0  2 V2000
  146.5991  128.4550  152.8353 C   0  0  0  0  0  0  0  0  0  0  0  0
  146.8367  129.8968  152.3608 C   0  0  2  0  0  0  0  0  0  0  0  0
  147.2097  130.8070  153.5469 C   0  0  0  0  0  0  0  0  0  0  0  0
  148.0705  131.9132  153.1323 N   0  0  0  0  0  0  0  0  0  0  0  0
  148.8372  132.3804  154.1395 C   0  0  0  0  0  0  0  0  0  0  0  0
  149.7543  131.5365  154.6713 N   0  0  0  0  0  0  0  0  0  0  0  0
  150.5357  131.9501  155.6744 C   0  0  0  0  0  0  0  0  0  0  0  0
  150.5619  133.1419  156.2761 N   0  0  0  0  0  0  0  0  0  0  0  0
  149.6394  133.9915  155.7388 C   0  0  0  0  0  0  0  0  0  0  0  0
  148.7416  133.6942  154.6764 C   0  0  0  0  0  0  0  0  0  0  0  0
  147.9485  134.8005  154.3974 N   0  0  0  0  0  0  0  0  0  0  0  0
  148.3577  135.7037  155.2469 C   0  0  0  0  0  0  0  0  0  0  0  0
  149.3740  135.3045  156.0860 N   0  0  0  0  0  0  0  0  0  0  0  0
  150.0168  136.1045  157.1178 C   0  0  0  0  0  0  0  0  0  0  0  0
  151.4128  136.6419  156.7159 C   0  0  0  0  0  0  0  0  0  0  0  0
  152.2151  135.5291  156.3595 O   0  0  0  0  0  0  0  0  0  0  0  0
  151.3015  137.5730  155.4916 C   0  0  0  0  0  0  0  0  0  0  0  0
  152.6379  138.2628  155.1630 C   0  0  0  0  0  0  0  0  0  0  0  0
  153.1175  138.9636  156.3038 O   0  0  0  0  0  0  0  0  0  0  0  0
  153.3990  138.1024  157.4000 C   0  0  0  0  0  0  0  0  0  0  0  0
  152.1117  137.3994  157.8662 C   0  0  0  0  0  0  0  0  0  0  0  0
  147.5179  132.9896  152.3156 C   0  0  0  0  0  0  0  0  0  0  0  0
  146.8434  132.5001  151.0252 C   0  0  0  0  0  0  0  0  0  0  0  0
  145.5419  131.8595  151.3320 N   0  3  1  0  0  0  0  0  0  0  0  0
  144.4922  132.2151  150.3482 C   0  0  1  0  0  0  0  0  0  0  0  0
  143.1979  132.6861  150.9727 C   0  0  0  0  0  0  0  0  0  0  0  0
  144.1190  133.6863  150.3083 C   0  0  1  0  0  0  0  0  0  0  0  0
  144.8189  134.7480  151.1372 C   0  0  0  0  0  0  0  0  0  0  0  0
  145.6091  130.3918  151.5600 C   0  0  0  0  0  0  0  0  0  0  0  0
  145.7688  128.3996  153.5398 H   0  0  0  0  0  0  0  0  0  0  0  0
  147.4831  128.0532  153.3318 H   0  0  0  0  0  0  0  0  0  0  0  0
  146.3697  127.7971  151.9963 H   0  0  0  0  0  0  0  0  0  0  0  0
  147.6952  129.8542  151.6885 H   0  0  0  0  0  0  0  0  0  0  0  0
  146.3133  131.1848  154.0404 H   0  0  0  0  0  0  0  0  0  0  0  0
  147.7457  130.2169  154.2929 H   0  0  0  0  0  0  0  0  0  0  0  0
  151.2403  131.2223  156.0493 H   0  0  0  0  0  0  0  0  0  0  0  0
  147.9312  136.6959  155.2824 H   0  0  0  0  0  0  0  0  0  0  0  0
  149.3510  136.9301  157.3734 H   0  0  0  0  0  0  0  0  0  0  0  0
  150.0975  135.4931  158.0176 H   0  0  0  0  0  0  0  0  0  0  0  0
  151.8614  134.7591  156.7779 H   0  0  0  0  0  0  0  0  0  0  0  0
  150.9412  137.0221  154.6217 H   0  0  0  0  0  0  0  0  0  0  0  0
  150.5575  138.3450  155.6923 H   0  0  0  0  0  0  0  0  0  0  0  0
  153.3826  137.5403  154.8254 H   0  0  0  0  0  0  0  0  0  0  0  0
  152.4990  138.9741  154.3487 H   0  0  0  0  0  0  0  0  0  0  0  0
  154.1638  137.3765  157.1196 H   0  0  0  0  0  0  0  0  0  0  0  0
  153.8134  138.6962  158.2147 H   0  0  0  0  0  0  0  0  0  0  0  0
  151.4315  138.1531  158.2647 H   0  0  0  0  0  0  0  0  0  0  0  0
  152.3422  136.7267  158.6931 H   0  0  0  0  0  0  0  0  0  0  0  0
  146.8130  133.5788  152.9030 H   0  0  0  0  0  0  0  0  0  0  0  0
  148.3320  133.6642  152.0451 H   0  0  0  0  0  0  0  0  0  0  0  0
  146.6677  133.3783  150.4020 H   0  0  0  0  0  0  0  0  0  0  0  0
  147.4905  131.8460  150.4395 H   0  0  0  0  0  0  0  0  0  0  0  0
  144.4691  131.6141  149.4407 H   0  0  0  0  0  0  0  0  0  0  0  0
  142.2721  132.4443  150.4544 H   0  0  0  0  0  0  0  0  0  0  0  0
  143.1260  132.7108  152.0588 H   0  0  0  0  0  0  0  0  0  0  0  0
  143.7971  134.0524  149.3351 H   0  0  0  0  0  0  0  0  0  0  0  0
  145.0179  134.3957  152.1498 H   0  0  0  0  0  0  0  0  0  0  0  0
  144.1926  135.6378  151.2049 H   0  0  0  0  0  0  0  0  0  0  0  0
  145.7639  135.0266  150.6706 H   0  0  0  0  0  0  0  0  0  0  0  0
  145.5914  129.8786  150.5972 H   0  0  0  0  0  0  0  0  0  0  0  0
  144.6943  130.1010  152.0778 H   0  0  0  0  0  0  0  0  0  0  0  0
  145.2455  132.2677  152.2070 H   0  0  0  0  0  0  0  0  0  0  0  0
  1  2  1  0  0  0  0
  1 30  1  0  0  0  0
  1 31  1  0  0  0  0
  1 32  1  0  0  0  0
  2 29  1  0  0  0  0
  2  3  1  0  0  0  0
  2 33  1  0  0  0  0
  3  4  1  0  0  0  0
  3 34  1  0  0  0  0
  3 35  1  0  0  0  0
  4  5  1  0  0  0  0
  4 22  1  0  0  0  0
  5 10  1  0  0  0  0
  5  6  2  0  0  0  0
  6  7  1  0  0  0  0
  7  8  2  0  0  0  0
  7 36  1  0  0  0  0
  8  9  1  0  0  0  0
  9 13  1  0  0  0  0
  9 10  2  0  0  0  0
 10 11  1  0  0  0  0
 11 12  2  0  0  0  0
 12 13  1  0  0  0  0
 12 37  1  0  0  0  0
 13 14  1  0  0  0  0
 14 15  1  0  0  0  0
 14 38  1  0  0  0  0
 14 39  1  0  0  0  0
 15 21  1  0  0  0  0
 15 16  1  0  0  0  0
 15 17  1  0  0  0  0
 16 40  1  0  0  0  0
 17 18  1  0  0  0  0
 17 41  1  0  0  0  0
 17 42  1  0  0  0  0
 18 19  1  0  0  0  0
 18 43  1  0  0  0  0
 18 44  1  0  0  0  0
 19 20  1  0  0  0  0
 20 21  1  0  0  0  0
 20 45  1  0  0  0  0
 20 46  1  0  0  0  0
 21 47  1  0  0  0  0
 21 48  1  0  0  0  0
 22 23  1  0  0  0  0
 22 49  1  0  0  0  0
 22 50  1  0  0  0  0
 23 24  1  0  0  0  0
 23 51  1  0  0  0  0
 23 52  1  0  0  0  0
 24 25  1  0  0  0  0
 24 29  1  0  0  0  0
 24 62  1  0  0  0  0
 25 27  1  0  0  0  0
 25 26  1  0  0  0  0
 25 53  1  0  0  0  0
 26 27  1  0  0  0  0
 26 54  1  0  0  0  0
 26 55  1  0  0  0  0
 27 28  1  0  0  0  0
 27 56  1  0  0  0  0
 28 57  1  0  0  0  0
 28 58  1  0  0  0  0
 28 59  1  0  0  0  0
 29 60  1  0  0  0  0
 29 61  1  0  0  0  0
M  CHG  1  24   1
M  END
> <s_m_source_file>
AV-unprocessed.smi

> <i_m_source_file_index>
193

> <i_lp_mmshare_version>
43012

> <i_f3d_flags>
0

> <s_epik_input>
W0NIM11bQ0BASF0xW0NIMl1bQ0BIXTFOKFtDSDJdMilbQ0gyXVtDSDJdTihbQ0gyXVtDQEhdMltDSDNdKWMobltjSF1uMyljKGMzNCluW2NIXW40W0NIMl1DNShbT0hdKVtDSDJdW0NIMl1PW0NIMl1bQ0gyXTU=

> <s_epik_cmdline>
J2VwaWtfcHl0aG9uJywgJy1waCcsICc3LjAnLCAnLXRuJywgJzgnLCAnLW1hJywgJzIwMCcsICctbWV0YWxfYmluZGluZycsICctaW1hZScsICc8aW5maWxlLm1hZT4nLCAnLW9tYWUnLCAnPG91dGZpbGUubWFlPic=

> <r_lp_tautomer_probability>
1

> <r_epik_Ionization_Penalty>
0.0540825

> <r_epik_Ionization_Penalty_Charging>
0.0538476

> <r_epik_Ionization_Penalty_Neutral>
0.000234891

> <r_epik_State_Penalty>
0.0200719

> <r_epik_Charging_Adjusted_Penalty>
0.0739194

> <i_epik_Tot_Q>
1

> <i_epik_Tot_abs_Q>
1

> <r_epik_Metal_State_Penalty>
0.0199414

> <b_epik_Metal_Only>
0

> <s_lp_Force_Field>
OPLS_2005

> <r_lp_Energy>
58.7768

> <b_lp_Chiralities_Consistent>
1

> <s_lp_Variant>
AV-unprocessed.smi:193-7

> <Gold.Version>
5.8.1

> <Gold.Id.Protein>
6NUR|6NUR_protein|mol2

> <Gold.PLP.Fitness>
46.2828

> <Gold.PLP.PLP>
-41.1675

> <Gold.PLP.part.hbond>
-2.0000

> <Gold.PLP.part.metal>
0.0000

> <Gold.PLP.part.buried>
-2.3190

> <Gold.PLP.part.nonpolar>
-37.6541

> <Gold.PLP.part.repulsive>
0.7201

> <Gold.PLP.ligand.clash>
0.0000

> <Gold.PLP.ligand.torsion>
1.2448

> <Gold.PLP.Chemscore.Hbond>
2.0000

> <Gold.PLP.Chemscore.CHOScore>
0.0000

> <Gold.PLP.Chemscore.Metal>
0.0000

> <Gold.Chemscore.Hbonds>
donor molecule, donor type, donor heavy atom, donor atom, acceptor molecule, acceptor atom, score
      P1  H  7997  8010       L1    19  1.00
      P1  H 10752 10763       L1    16  1.00

> <Gold.PLP.Chemscore.Internal.Correction>
1.6049

> <Gold.Rescore>
     Score         DG    S(hbond)    S(metal)    S(lipo)     H(rot)  DE(clash)    DE(int)     intcor
     14.72     -18.28       1.82        0.00     105.68       2.20       0.27       3.29       ----

> <Gold.Chemscore.Fitness>
14.7219

> <Gold.Chemscore.DG>
-18.2787

> <Gold.Chemscore.ZeroCoef>
-5.4800

> <Gold.Chemscore.Hbond>
1.8178

> <Gold.Chemscore.Metal>
0.0000

> <Gold.Chemscore.Lipo>
105.6752

> <Gold.Chemscore.Internal_Hbond>
0.0000

> <Gold.Chemscore.DEClash>
0.2678

> <Gold.Chemscore.DEInternal>
3.2891

> <Gold.Chemscore.Rot>
2.2018

> <Gold.Chemscore.Internal.Correction>
   9.000000E+99

> <Gold.Chemscore.Hbonds>
donor molecule, donor type, donor heavy atom, donor atom, acceptor molecule, acceptor atom, score
      P1  H  7997  8010       L1    19  0.39
      P1  H 10752 10763       L1    16  0.96

> <Gold.Chemscore.Hbond.Weighted>
-6.0713

> <Gold.Chemscore.Metal.Weighted>
-0.0000

> <Gold.Chemscore.Lipo.Weighted>
-12.3640

> <Gold.Chemscore.Internal_Hbond.Weighted>
0.0000

> <Gold.Chemscore.DEClash.Weighted>
0.2678

> <Gold.Chemscore.DEInternal.Weighted>
3.2891

> <Gold.Chemscore.Rot.Weighted>
5.6366

> <Gold.Chemscore.Internal.Correction.Weighted>
   9.000000E+99

> <Gold.Protein.RotatedTorsions>
[ 6907 6896 6895 6894 ] final  112.66 input  -60.11 | X-H torsion
[ 7974 7965 7964 7962 ] final  -73.72 input  175.53 | X-H torsion
[ 8008 7997 7996 7995 ] final   74.57 input   59.86 | X-H torsion
[ 10167 10162 10161 10158 ] final   70.06 input  -65.29 | X-H torsion
[ 10718 10713 10712 10709 ] final -139.54 input   66.30 | X-H torsion
[ 10763 10752 10751 10750 ] final  111.74 input  -60.55 | X-H torsion
[ 11005 11000 10999 10996 ] final -154.24 input  -57.11 | X-H torsion

> <Gold.Protein.ActiveResidues>
 VAL166  LYS551  ARG553  GLY616  TRP617  ASP618  TYR619  PRO620  LYS621  CYS622 
 ASP623  PHE694  ASN695  SER759  ASP760  ASP761  ALA762  ILE779  LEU786  VAL792 
 PHE793  MET794  SER795  GLU796  ALA797  LYS798  CYS799  TRP800  GLU811  SER814 

> <Gold.Protein.RotatedAtoms>
  152.4904  133.8485  159.7189 H   0  0  0  0  0  0  0  0  0  0  0  0  # atno 6907 bound_to 6896
  150.9029  133.7086  159.2881 H   0  0  0  0  0  0  0  0  0  0  0  0  # atno 6908 bound_to 6896
  151.4521  135.1035  159.9753 H   0  0  0  0  0  0  0  0  0  0  0  0  # atno 6909 bound_to 6896
  145.6485  140.9290  143.0997 H   0  0  0  0  0  0  0  0  0  0  0  0  # atno 7974 bound_to 7965
  155.8002  140.3476  155.5398 H   0  0  0  0  0  0  0  0  0  0  0  0  # atno 8008 bound_to 7997
  155.8545  140.0961  157.1673 H   0  0  0  0  0  0  0  0  0  0  0  0  # atno 8009 bound_to 7997
  154.4009  140.1370  156.3873 H   0  0  0  0  0  0  0  0  0  0  0  0  # atno 8010 bound_to 7997
  140.0610  144.5233  150.7294 H   0  0  0  0  0  0  0  0  0  0  0  0  # atno 10167 bound_to 10162
  156.3119  130.7486  151.1564 H   0  0  0  0  0  0  0  0  0  0  0  0  # atno 10718 bound_to 10713
  153.4677  135.3708  155.2373 H   0  0  0  0  0  0  0  0  0  0  0  0  # atno 10763 bound_to 10752
  154.8757  135.3924  154.3849 H   0  0  0  0  0  0  0  0  0  0  0  0  # atno 10764 bound_to 10752
  153.4433  135.7084  153.6220 H   0  0  0  0  0  0  0  0  0  0  0  0  # atno 10765 bound_to 10752
  140.6995  134.3953  157.5211 H   0  0  0  0  0  0  0  0  0  0  0  0  # atno 11005 bound_to 11000
  144.7131  139.8296  143.7408 LP  0  0  0  0  0  0  0  0  0  0  0  0  # atno 17320 bound_to 7965
  146.1223  139.4243  143.0220 LP  0  0  0  0  0  0  0  0  0  0  0  0  # atno 17321 bound_to 7965
  140.7172  143.2555  151.4397 LP  0  0  0  0  0  0  0  0  0  0  0  0  # atno 17342 bound_to 10162
  139.5894  144.1533  152.2069 LP  0  0  0  0  0  0  0  0  0  0  0  0  # atno 17343 bound_to 10162
  157.7393  131.0531  150.5242 LP  0  0  0  0  0  0  0  0  0  0  0  0  # atno 17370 bound_to 10713
  156.5382  130.4201  149.6167 LP  0  0  0  0  0  0  0  0  0  0  0  0  # atno 17371 bound_to 10713
  139.8901  134.8814  156.2389 LP  0  0  0  0  0  0  0  0  0  0  0  0  # atno 17394 bound_to 11000
  141.0175  133.7060  156.1213 LP  0  0  0  0  0  0  0  0  0  0  0  0  # atno 17395 bound_to 11000

$$$$
