AV-unprocessed.smi:1041|AV-procd|sdf|4531|dock10
  -GOLD-   22720 2553D 1   1.00000     0.00000
 Structure written by MMmdl.
 53 54  0  0  0  0  0  0  0  0  2 V2000
  143.8671  132.9440  148.7588 C   0  0  0  0  0  0  0  0  0  0  0  0
  144.1744  132.0768  149.8366 O   0  0  0  0  0  0  0  0  0  0  0  0
  145.5238  132.1884  150.2572 C   0  0  0  0  0  0  0  0  0  0  0  0
  145.6749  131.5151  151.6301 C   0  0  0  0  0  0  0  0  0  0  0  0
  147.0604  131.5967  152.1589 N   0  3  2  0  0  0  0  0  0  0  0  0
  147.3741  130.4699  153.0758 C   0  0  0  0  0  0  0  0  0  0  0  0
  148.8464  130.5009  153.5286 C   0  0  0  0  0  0  0  0  0  0  0  0
  149.2307  131.8457  154.1728 C   0  0  2  0  0  0  0  0  0  0  0  0
  148.6394  132.0004  155.5941 C   0  0  0  0  0  0  0  0  0  0  0  0
  148.5661  133.3995  156.0001 N   0  0  0  0  0  0  0  0  0  0  0  0
  149.3656  133.9931  156.9000 C   0  0  0  0  0  0  0  0  0  0  0  0
  150.3200  133.4338  157.4394 O   0  0  0  0  0  0  0  0  0  0  0  0
  149.0000  135.4259  157.2840 C   0  0  0  0  0  0  0  0  0  0  0  0
  148.6165  135.6066  158.7509 C   0  0  0  0  0  0  0  0  0  0  0  0
  147.7138  134.8165  159.3861 C   0  0  0  0  0  0  0  0  0  0  0  0
  146.9851  133.6519  158.7387 C   0  0  0  0  0  0  0  0  0  0  0  0
  147.3847  135.0305  160.7131 N   0  0  0  0  0  0  0  0  0  0  0  0
  147.9963  136.0842  161.3718 C   0  0  0  0  0  0  0  0  0  0  0  0
  147.5630  136.2343  162.8141 C   0  0  0  0  0  0  0  0  0  0  0  0
  148.8659  136.8954  160.8509 N   0  0  0  0  0  0  0  0  0  0  0  0
  149.2394  136.7173  159.5094 C   0  0  0  0  0  0  0  0  0  0  0  0
  150.0549  137.4748  158.9850 O   0  0  0  0  0  0  0  0  0  0  0  0
  148.8564  132.9806  153.1964 C   0  0  0  0  0  0  0  0  0  0  0  0
  147.3793  132.9122  152.7747 C   0  0  0  0  0  0  0  0  0  0  0  0
  146.7138  134.4147  161.1498 H   0  0  0  0  0  0  0  0  0  0  0  0
  142.8200  132.8255  148.4803 H   0  0  0  0  0  0  0  0  0  0  0  0
  144.4761  132.7157  147.8831 H   0  0  0  0  0  0  0  0  0  0  0  0
  144.0257  133.9875  149.0336 H   0  0  0  0  0  0  0  0  0  0  0  0
  146.1969  131.7542  149.5178 H   0  0  0  0  0  0  0  0  0  0  0  0
  145.7885  133.2433  150.3449 H   0  0  0  0  0  0  0  0  0  0  0  0
  144.9833  131.9563  152.3492 H   0  0  0  0  0  0  0  0  0  0  0  0
  145.3813  130.4696  151.5249 H   0  0  0  0  0  0  0  0  0  0  0  0
  146.7052  130.5017  153.9365 H   0  0  0  0  0  0  0  0  0  0  0  0
  147.1821  129.5239  152.5680 H   0  0  0  0  0  0  0  0  0  0  0  0
  149.0430  129.6799  154.2190 H   0  0  0  0  0  0  0  0  0  0  0  0
  149.4854  130.3244  152.6621 H   0  0  0  0  0  0  0  0  0  0  0  0
  150.3160  131.8572  154.2840 H   0  0  0  0  0  0  0  0  0  0  0  0
  147.6628  131.5214  155.6683 H   0  0  0  0  0  0  0  0  0  0  0  0
  149.2779  131.4847  156.3121 H   0  0  0  0  0  0  0  0  0  0  0  0
  147.8087  133.9443  155.6131 H   0  0  0  0  0  0  0  0  0  0  0  0
  149.8508  136.0638  157.0451 H   0  0  0  0  0  0  0  0  0  0  0  0
  148.1966  135.7883  156.6404 H   0  0  0  0  0  0  0  0  0  0  0  0
  147.6952  132.8899  158.4166 H   0  0  0  0  0  0  0  0  0  0  0  0
  146.4209  133.9891  157.8694 H   0  0  0  0  0  0  0  0  0  0  0  0
  146.2833  133.1830  159.4296 H   0  0  0  0  0  0  0  0  0  0  0  0
  147.8930  137.1902  163.2224 H   0  0  0  0  0  0  0  0  0  0  0  0
  147.9911  135.4368  163.4219 H   0  0  0  0  0  0  0  0  0  0  0  0
  146.4765  136.1879  162.8961 H   0  0  0  0  0  0  0  0  0  0  0  0
  149.0811  133.9584  153.6220 H   0  0  0  0  0  0  0  0  0  0  0  0
  149.4802  132.9019  152.3050 H   0  0  0  0  0  0  0  0  0  0  0  0
  147.1839  133.7186  152.0695 H   0  0  0  0  0  0  0  0  0  0  0  0
  146.7290  133.0850  153.6330 H   0  0  0  0  0  0  0  0  0  0  0  0
  147.6739  131.4880  151.3635 H   0  0  0  0  0  0  0  0  0  0  0  0
  1  2  1  0  0  0  0
  1 26  1  0  0  0  0
  1 27  1  0  0  0  0
  1 28  1  0  0  0  0
  2  3  1  0  0  0  0
  3  4  1  0  0  0  0
  3 29  1  0  0  0  0
  3 30  1  0  0  0  0
  4  5  1  0  0  0  0
  4 31  1  0  0  0  0
  4 32  1  0  0  0  0
  5 24  1  0  0  0  0
  5  6  1  0  0  0  0
  5 53  1  0  0  0  0
  6  7  1  0  0  0  0
  6 33  1  0  0  0  0
  6 34  1  0  0  0  0
  7  8  1  0  0  0  0
  7 35  1  0  0  0  0
  7 36  1  0  0  0  0
  8  9  1  0  0  0  0
  8 23  1  0  0  0  0
  8 37  1  0  0  0  0
  9 10  1  0  0  0  0
  9 38  1  0  0  0  0
  9 39  1  0  0  0  0
 10 11  1  0  0  0  0
 10 40  1  0  0  0  0
 11 12  2  0  0  0  0
 11 13  1  0  0  0  0
 13 41  1  0  0  0  0
 13 42  1  0  0  0  0
 13 14  1  0  0  0  0
 14 21  1  0  0  0  0
 14 15  2  0  0  0  0
 15 16  1  0  0  0  0
 15 17  1  0  0  0  0
 16 43  1  0  0  0  0
 16 44  1  0  0  0  0
 16 45  1  0  0  0  0
 17 25  1  0  0  0  0
 17 18  1  0  0  0  0
 18 19  1  0  0  0  0
 18 20  2  0  0  0  0
 19 46  1  0  0  0  0
 19 47  1  0  0  0  0
 19 48  1  0  0  0  0
 20 21  1  0  0  0  0
 21 22  2  0  0  0  0
 23 24  1  0  0  0  0
 23 49  1  0  0  0  0
 23 50  1  0  0  0  0
 24 51  1  0  0  0  0
 24 52  1  0  0  0  0
M  CHG  1   5   1
M  END
> <s_m_source_file>
AV-unprocessed.smi

> <i_m_source_file_index>
1041

> <i_lp_mmshare_version>
43012

> <i_f3d_flags>
0

> <s_epik_input>
W0NIM11PW0NIMl1bQ0gyXU4xW0NIMl1bQ0gyXVtDSF0oW0NIMl1bQ0gyXTEpW0NIMl1bTkhdQyg9TylbQ0gyXWMyYyhbQ0gzXSluYyhbQ0gzXSlbbkhdYzI9Tw==

> <s_epik_cmdline>
J2VwaWtfcHl0aG9uJywgJy1waCcsICc3LjAnLCAnLXRuJywgJzgnLCAnLW1hJywgJzIwMCcsICctbWV0YWxfYmluZGluZycsICctaW1hZScsICc8aW5maWxlLm1hZT4nLCAnLW9tYWUnLCAnPG91dGZpbGUubWFlPic=

> <r_lp_tautomer_probability>
0.156392

> <r_epik_Ionization_Penalty>
0.0240251

> <r_epik_Ionization_Penalty_Charging>
0.0239146

> <r_epik_Ionization_Penalty_Neutral>
0.000110474

> <r_epik_State_Penalty>
1.15942

> <r_epik_Charging_Adjusted_Penalty>
1.18333

> <i_epik_Tot_Q>
1

> <i_epik_Tot_abs_Q>
1

> <r_epik_Metal_State_Penalty>
1.33297

> <b_epik_Metal_Only>
0

> <s_lp_Force_Field>
OPLS_2005

> <r_lp_Energy>
25.6342

> <b_lp_Chiralities_Consistent>
1

> <s_lp_Variant>
AV-unprocessed.smi:1041-4

> <Gold.Version>
5.8.1

> <Gold.Id.Protein>
6NUR|6NUR_protein|mol2

> <Gold.PLP.Fitness>
48.3425

> <Gold.PLP.PLP>
-40.4111

> <Gold.PLP.part.hbond>
-4.0086

> <Gold.PLP.part.metal>
0.0000

> <Gold.PLP.part.buried>
-6.3885

> <Gold.PLP.part.nonpolar>
-30.5811

> <Gold.PLP.part.repulsive>
0.1955

> <Gold.PLP.ligand.clash>
0.0000

> <Gold.PLP.ligand.torsion>
0.7543

> <Gold.PLP.Chemscore.Hbond>
3.1041

> <Gold.PLP.Chemscore.CHOScore>
0.0000

> <Gold.PLP.Chemscore.Metal>
0.0000

> <Gold.Chemscore.Hbonds>
donor molecule, donor type, donor heavy atom, donor atom, acceptor molecule, acceptor atom, score
      L1  H     5    53       P1 10747  1.00
      P1  H  6896  6907       L1    12  1.00
      P1  H  6931  6943       L1    20  0.91
      P1  H 10785 10796       L1     2  0.01

> <Gold.PLP.Chemscore.Internal.Correction>
0.1275

> <Gold.Rescore>
     Score         DG    S(hbond)    S(metal)    S(lipo)     H(rot)  DE(clash)    DE(int)     intcor
     18.13     -18.79       2.90        0.00      84.11       2.43       0.01       0.65       ----

> <Gold.Chemscore.Fitness>
18.1340

> <Gold.Chemscore.DG>
-18.7901

> <Gold.Chemscore.ZeroCoef>
-5.4800

> <Gold.Chemscore.Hbond>
2.9005

> <Gold.Chemscore.Metal>
0.0000

> <Gold.Chemscore.Lipo>
84.1115

> <Gold.Chemscore.Internal_Hbond>
0.0000

> <Gold.Chemscore.DEClash>
0.0089

> <Gold.Chemscore.DEInternal>
0.6472

> <Gold.Chemscore.Rot>
2.4291

> <Gold.Chemscore.Internal.Correction>
   9.000000E+99

> <Gold.Chemscore.Hbonds>
donor molecule, donor type, donor heavy atom, donor atom, acceptor molecule, acceptor atom, score
      L1  H     5    53       P1 10747  1.00
      P1  H  6896  6907       L1    12  0.94
      P1  H  6931  6943       L1    20  0.63

> <Gold.Chemscore.Hbond.Weighted>
-9.6877

> <Gold.Chemscore.Metal.Weighted>
-0.0000

> <Gold.Chemscore.Lipo.Weighted>
-9.8411

> <Gold.Chemscore.Internal_Hbond.Weighted>
0.0000

> <Gold.Chemscore.DEClash.Weighted>
0.0089

> <Gold.Chemscore.DEInternal.Weighted>
0.6472

> <Gold.Chemscore.Rot.Weighted>
6.2186

> <Gold.Chemscore.Internal.Correction.Weighted>
   9.000000E+99

> <Gold.Protein.RotatedTorsions>
[ 6907 6896 6895 6894 ] final -137.26 input  -60.11 | X-H torsion
[ 7974 7965 7964 7962 ] final  -75.77 input  175.53 | X-H torsion
[ 8008 7997 7996 7995 ] final   23.83 input   59.86 | X-H torsion
[ 10167 10162 10161 10158 ] final   -3.06 input  -65.29 | X-H torsion
[ 10718 10713 10712 10709 ] final  -38.95 input   66.30 | X-H torsion
[ 10763 10752 10751 10750 ] final  -35.93 input  -60.55 | X-H torsion
[ 11005 11000 10999 10996 ] final -140.88 input  -57.11 | X-H torsion

> <Gold.Protein.ActiveResidues>
 VAL166  LYS551  ARG553  GLY616  TRP617  ASP618  TYR619  PRO620  LYS621  CYS622 
 ASP623  PHE694  ASN695  SER759  ASP760  ASP761  ALA762  ILE779  LEU786  VAL792 
 PHE793  MET794  SER795  GLU796  ALA797  LYS798  CYS799  TRP800  GLU811  SER814 

> <Gold.Protein.RotatedAtoms>
  151.0203  133.5883  159.2671 H   0  0  0  0  0  0  0  0  0  0  0  0  # atno 6907 bound_to 6896
  151.3002  135.0765  159.9245 H   0  0  0  0  0  0  0  0  0  0  0  0  # atno 6908 bound_to 6896
  152.5321  133.9886  159.7894 H   0  0  0  0  0  0  0  0  0  0  0  0  # atno 6909 bound_to 6896
  145.6217  140.9361  143.1134 H   0  0  0  0  0  0  0  0  0  0  0  0  # atno 7974 bound_to 7965
  154.9870  140.3109  155.4922 H   0  0  0  0  0  0  0  0  0  0  0  0  # atno 8008 bound_to 7997
  156.2945  140.2256  156.4912 H   0  0  0  0  0  0  0  0  0  0  0  0  # atno 8009 bound_to 7997
  154.7738  140.0450  157.1061 H   0  0  0  0  0  0  0  0  0  0  0  0  # atno 8010 bound_to 7997
  140.6875  143.6584  150.8288 H   0  0  0  0  0  0  0  0  0  0  0  0  # atno 10167 bound_to 10162
  156.2980  130.4236  149.8171 H   0  0  0  0  0  0  0  0  0  0  0  0  # atno 10718 bound_to 10713
  153.8713  135.6830  153.4774 H   0  0  0  0  0  0  0  0  0  0  0  0  # atno 10763 bound_to 10752
  153.1286  135.4708  154.9309 H   0  0  0  0  0  0  0  0  0  0  0  0  # atno 10764 bound_to 10752
  154.7713  135.3239  154.8135 H   0  0  0  0  0  0  0  0  0  0  0  0  # atno 10765 bound_to 10752
  140.8379  134.2437  157.4824 H   0  0  0  0  0  0  0  0  0  0  0  0  # atno 11005 bound_to 11000
  144.7228  139.7972  143.7375 LP  0  0  0  0  0  0  0  0  0  0  0  0  # atno 17320 bound_to 7965
  146.1426  139.4487  143.0099 LP  0  0  0  0  0  0  0  0  0  0  0  0  # atno 17321 bound_to 7965
  140.0293  143.5460  152.2767 LP  0  0  0  0  0  0  0  0  0  0  0  0  # atno 17342 bound_to 10162
  139.6247  144.7635  151.2664 LP  0  0  0  0  0  0  0  0  0  0  0  0  # atno 17343 bound_to 10162
  156.5560  130.8363  151.3314 LP  0  0  0  0  0  0  0  0  0  0  0  0  # atno 17370 bound_to 10713
  157.7360  130.9772  150.2114 LP  0  0  0  0  0  0  0  0  0  0  0  0  # atno 17371 bound_to 10713
  139.8703  134.9620  156.4416 LP  0  0  0  0  0  0  0  0  0  0  0  0  # atno 17394 bound_to 11000
  140.8927  133.7836  155.9590 LP  0  0  0  0  0  0  0  0  0  0  0  0  # atno 17395 bound_to 11000

$$$$
