AV-unprocessed.smi:1750|AV-procd|sdf|7053|dock5
  -GOLD-   22720 8273D 1   1.00000     0.00000
 Structure written by MMmdl.
 36 37  0  0  0  0  0  0  0  0  1 V2000
  152.1084  142.9604  158.6439 C   0  0  0  0  0  0  0  0  0  0  0  0
  151.6393  141.7735  157.7954 C   0  0  0  0  0  0  0  0  0  0  0  0
  151.0070  142.2135  156.4675 C   0  0  0  0  0  0  0  0  0  0  0  0
  150.5490  141.0599  155.6385 C   0  0  0  0  0  0  0  0  0  0  0  0
  151.3978  140.1816  155.0900 N   0  0  0  0  0  0  0  0  0  0  0  0
  150.7423  139.2095  154.3477 N   0  0  0  0  0  0  0  0  0  0  0  0
  149.4147  139.3926  154.3449 C   0  0  0  0  0  0  0  0  0  0  0  0
  148.5025  138.5436  153.6638 N   0  0  0  0  0  0  0  0  0  0  0  0
  147.1616  138.6309  153.6147 C   0  0  0  0  0  0  0  0  0  0  0  0
  146.4810  139.4879  154.1796 O   0  0  0  0  0  0  0  0  0  0  0  0
  146.6382  137.6563  152.8597 N   0  0  0  0  0  0  0  0  0  0  0  0
  145.2140  137.4958  152.6005 C   0  0  0  0  0  0  0  0  0  0  0  0
  144.9083  136.0745  152.1095 C   0  0  1  0  0  0  0  0  0  0  0  0
  145.5207  135.7500  150.7486 C   0  0  0  0  0  0  0  0  0  0  0  0
  145.6008  134.2418  150.8040 C   0  0  0  0  0  0  0  0  0  0  0  0
  145.9875  134.0025  152.2608 C   0  0  0  0  0  0  0  0  0  0  0  0
  145.4592  135.1036  152.9968 O   0  0  0  0  0  0  0  0  0  0  0  0
  148.8538  140.7859  155.2534 S   0  0  0  0  0  0  0  0  0  0  0  0
  152.5581  142.6174  159.5758 H   0  0  0  0  0  0  0  0  0  0  0  0
  151.2751  143.6158  158.8986 H   0  0  0  0  0  0  0  0  0  0  0  0
  152.8532  143.5545  158.1138 H   0  0  0  0  0  0  0  0  0  0  0  0
  152.4864  141.1160  157.5967 H   0  0  0  0  0  0  0  0  0  0  0  0
  150.9197  141.1863  158.3672 H   0  0  0  0  0  0  0  0  0  0  0  0
  150.1557  142.8685  156.6567 H   0  0  0  0  0  0  0  0  0  0  0  0
  151.7235  142.7950  155.8862 H   0  0  0  0  0  0  0  0  0  0  0  0
  148.9208  137.7862  153.1439 H   0  0  0  0  0  0  0  0  0  0  0  0
  147.2609  136.9914  152.4245 H   0  0  0  0  0  0  0  0  0  0  0  0
  144.6595  137.6957  153.5187 H   0  0  0  0  0  0  0  0  0  0  0  0
  144.8908  138.2301  151.8611 H   0  0  0  0  0  0  0  0  0  0  0  0
  143.8297  135.9135  152.0610 H   0  0  0  0  0  0  0  0  0  0  0  0
  144.9228  136.1174  149.9141 H   0  0  0  0  0  0  0  0  0  0  0  0
  146.5228  136.1734  150.6647 H   0  0  0  0  0  0  0  0  0  0  0  0
  144.6214  133.8077  150.5981 H   0  0  0  0  0  0  0  0  0  0  0  0
  146.3175  133.8217  150.0978 H   0  0  0  0  0  0  0  0  0  0  0  0
  145.6081  133.0528  152.6384 H   0  0  0  0  0  0  0  0  0  0  0  0
  147.0721  134.0019  152.3725 H   0  0  0  0  0  0  0  0  0  0  0  0
  1  2  1  0  0  0  0
  1 19  1  0  0  0  0
  1 20  1  0  0  0  0
  1 21  1  0  0  0  0
  2  3  1  0  0  0  0
  2 22  1  0  0  0  0
  2 23  1  0  0  0  0
  3  4  1  0  0  0  0
  3 24  1  0  0  0  0
  3 25  1  0  0  0  0
  4 18  1  0  0  0  0
  4  5  2  0  0  0  0
  5  6  1  0  0  0  0
  6  7  2  0  0  0  0
  7  8  1  0  0  0  0
  7 18  1  0  0  0  0
  8  9  1  0  0  0  0
  8 26  1  0  0  0  0
  9 10  2  0  0  0  0
  9 11  1  0  0  0  0
 11 12  1  0  0  0  0
 11 27  1  0  0  0  0
 12 13  1  0  0  0  0
 12 28  1  0  0  0  0
 12 29  1  0  0  0  0
 13 17  1  0  0  0  0
 13 14  1  0  0  0  0
 13 30  1  0  0  0  0
 14 15  1  0  0  0  0
 14 31  1  0  0  0  0
 14 32  1  0  0  0  0
 15 16  1  0  0  0  0
 15 33  1  0  0  0  0
 15 34  1  0  0  0  0
 16 17  1  0  0  0  0
 16 35  1  0  0  0  0
 16 36  1  0  0  0  0
M  END
> <s_m_source_file>
AV-unprocessed.smi

> <i_m_source_file_index>
1750

> <i_lp_mmshare_version>
43012

> <i_f3d_flags>
0

> <s_epik_input>
W0NIM11bQ0gyXVtDSDJdYzFubmMoczEpW05IXUMoPU8pW05IXVtDSDJdW0NAQEhdMltDSDJdW0NIMl1bQ0gyXU8y

> <s_epik_cmdline>
J2VwaWtfcHl0aG9uJywgJy1waCcsICc3LjAnLCAnLXRuJywgJzgnLCAnLW1hJywgJzIwMCcsICctbWV0YWxfYmluZGluZycsICctaW1hZScsICc8aW5maWxlLm1hZT4nLCAnLW9tYWUnLCAnPG91dGZpbGUubWFlPic=

> <r_lp_tautomer_probability>
1

> <r_epik_Ionization_Penalty>
0.000503051

> <r_epik_Ionization_Penalty_Charging>
0

> <r_epik_Ionization_Penalty_Neutral>
0.000503051

> <r_epik_State_Penalty>
-0

> <r_epik_Charging_Adjusted_Penalty>
0

> <i_epik_Tot_Q>
0

> <i_epik_Tot_abs_Q>
0

> <r_epik_Metal_State_Penalty>
0.219912

> <b_epik_Metal_Only>
0

> <s_lp_Force_Field>
OPLS_2005

> <r_lp_Energy>
11.8885

> <b_lp_Chiralities_Consistent>
1

> <s_lp_Variant>
AV-unprocessed.smi:1750-2

> <Gold.Version>
5.8.1

> <Gold.Id.Protein>
6NUR|6NUR_protein|mol2

> <Gold.PLP.Fitness>
36.9648

> <Gold.PLP.PLP>
-30.8770

> <Gold.PLP.part.hbond>
-4.6185

> <Gold.PLP.part.metal>
0.0000

> <Gold.PLP.part.buried>
-5.1659

> <Gold.PLP.part.nonpolar>
-22.2255

> <Gold.PLP.part.repulsive>
0.4605

> <Gold.PLP.ligand.clash>
0.0000

> <Gold.PLP.ligand.torsion>
0.1864

> <Gold.PLP.Chemscore.Hbond>
2.1500

> <Gold.PLP.Chemscore.CHOScore>
0.0000

> <Gold.PLP.Chemscore.Metal>
0.0000

> <Gold.Chemscore.Hbonds>
donor molecule, donor type, donor heavy atom, donor atom, acceptor molecule, acceptor atom, score
      L1  H     8    26       P1  7948  1.00
      L1  H    11    27       P1  7948  1.00
      P1  H  7989  7998       L1     5  0.10

> <Gold.PLP.Chemscore.Internal.Correction>
0.0107

> <Gold.Rescore>
     Score         DG    S(hbond)    S(metal)    S(lipo)     H(rot)  DE(clash)    DE(int)     intcor
     14.45     -15.86       1.95        0.00      68.70       1.63       0.04       1.36       ----

> <Gold.Chemscore.Fitness>
14.4528

> <Gold.Chemscore.DG>
-15.8573

> <Gold.Chemscore.ZeroCoef>
-5.4800

> <Gold.Chemscore.Hbond>
1.9507

> <Gold.Chemscore.Metal>
0.0000

> <Gold.Chemscore.Lipo>
68.6975

> <Gold.Chemscore.Internal_Hbond>
0.0000

> <Gold.Chemscore.DEClash>
0.0422

> <Gold.Chemscore.DEInternal>
1.3623

> <Gold.Chemscore.Rot>
1.6311

> <Gold.Chemscore.Internal.Correction>
   9.000000E+99

> <Gold.Chemscore.Hbonds>
donor molecule, donor type, donor heavy atom, donor atom, acceptor molecule, acceptor atom, score
      L1  H     8    26       P1  7948  0.96
      L1  H    11    27       P1  7948  0.99

> <Gold.Chemscore.Hbond.Weighted>
-6.5154

> <Gold.Chemscore.Metal.Weighted>
-0.0000

> <Gold.Chemscore.Lipo.Weighted>
-8.0376

> <Gold.Chemscore.Internal_Hbond.Weighted>
0.0000

> <Gold.Chemscore.DEClash.Weighted>
0.0422

> <Gold.Chemscore.DEInternal.Weighted>
1.3623

> <Gold.Chemscore.Rot.Weighted>
4.1757

> <Gold.Chemscore.Internal.Correction.Weighted>
   9.000000E+99

> <Gold.Protein.RotatedTorsions>
[ 6907 6896 6895 6894 ] final -138.27 input  -60.11 | X-H torsion
[ 7974 7965 7964 7962 ] final   60.14 input  175.53 | X-H torsion
[ 8008 7997 7996 7995 ] final   43.15 input   59.86 | X-H torsion
[ 10167 10162 10161 10158 ] final   52.21 input  -65.29 | X-H torsion
[ 10718 10713 10712 10709 ] final -118.87 input   66.30 | X-H torsion
[ 10763 10752 10751 10750 ] final  -56.48 input  -60.55 | X-H torsion
[ 11005 11000 10999 10996 ] final  -54.07 input  -57.11 | X-H torsion

> <Gold.Protein.ActiveResidues>
 VAL166  LYS551  ARG553  GLY616  TRP617  ASP618  TYR619  PRO620  LYS621  CYS622 
 ASP623  PHE694  ASN695  SER759  ASP760  ASP761  ALA762  ILE779  LEU786  VAL792 
 PHE793  MET794  SER795  GLU796  ALA797  LYS798  CYS799  TRP800  GLU811  SER814 

> <Gold.Protein.RotatedAtoms>
  151.0329  133.5774  159.2658 H   0  0  0  0  0  0  0  0  0  0  0  0  # atno 6907 bound_to 6896
  151.2849  135.0724  159.9193 H   0  0  0  0  0  0  0  0  0  0  0  0  # atno 6908 bound_to 6896
  152.5348  134.0037  159.7960 H   0  0  0  0  0  0  0  0  0  0  0  0  # atno 6909 bound_to 6896
  145.8993  139.3569  143.0602 H   0  0  0  0  0  0  0  0  0  0  0  0  # atno 7974 bound_to 7965
  155.2979  140.3383  155.4249 H   0  0  0  0  0  0  0  0  0  0  0  0  # atno 8008 bound_to 7997
  156.2015  140.1735  156.7928 H   0  0  0  0  0  0  0  0  0  0  0  0  # atno 8009 bound_to 7997
  154.5565  140.0695  156.8736 H   0  0  0  0  0  0  0  0  0  0  0  0  # atno 8010 bound_to 7997
  140.2537  144.3450  150.6340 H   0  0  0  0  0  0  0  0  0  0  0  0  # atno 10167 bound_to 10162
  156.1139  130.6270  150.9346 H   0  0  0  0  0  0  0  0  0  0  0  0  # atno 10718 bound_to 10713
  154.2074  135.6400  153.5105 H   0  0  0  0  0  0  0  0  0  0  0  0  # atno 10763 bound_to 10752
  152.9998  135.5466  154.6251 H   0  0  0  0  0  0  0  0  0  0  0  0  # atno 10764 bound_to 10752
  154.5679  135.2914  155.0829 H   0  0  0  0  0  0  0  0  0  0  0  0  # atno 10765 bound_to 10752
  141.1008  133.6618  156.4266 H   0  0  0  0  0  0  0  0  0  0  0  0  # atno 11005 bound_to 11000
  145.8811  140.9362  143.0601 LP  0  0  0  0  0  0  0  0  0  0  0  0  # atno 17320 bound_to 7965
  144.6735  140.0781  143.7470 LP  0  0  0  0  0  0  0  0  0  0  0  0  # atno 17321 bound_to 7965
  140.6020  143.2167  151.7054 LP  0  0  0  0  0  0  0  0  0  0  0  0  # atno 17342 bound_to 10162
  139.5038  144.3778  152.0406 LP  0  0  0  0  0  0  0  0  0  0  0  0  # atno 17343 bound_to 10162
  157.6321  131.0920  150.8420 LP  0  0  0  0  0  0  0  0  0  0  0  0  # atno 17370 bound_to 10713
  156.8527  130.5086  149.5310 LP  0  0  0  0  0  0  0  0  0  0  0  0  # atno 17371 bound_to 10713
  140.5028  134.6470  157.5255 LP  0  0  0  0  0  0  0  0  0  0  0  0  # atno 17394 bound_to 11000
  139.9858  134.7063  155.9776 LP  0  0  0  0  0  0  0  0  0  0  0  0  # atno 17395 bound_to 11000

$$$$
