AV-unprocessed.smi:3123|AV-procd|sdf|11901|dock1
  -GOLD-   2272017283D 1   1.00000     0.00000
 Structure written by MMmdl.
 29 30  0  0  0  0  0  0  0  0  1 V2000
  149.0293  141.1036  153.2544 N   0  0  0  0  0  0  0  0  0  0  0  0
  148.8364  141.0111  154.6872 C   0  0  0  0  0  0  0  0  0  0  0  0
  150.1139  140.6501  155.4153 C   0  0  0  0  0  0  0  0  0  0  0  0
  150.8650  139.5212  155.0314 C   0  0  0  0  0  0  0  0  0  0  0  0
  152.0416  139.2256  155.7470 C   0  0  0  0  0  0  0  0  0  0  0  0
  152.4856  139.9688  156.7828 N   0  0  0  0  0  0  0  0  0  0  0  0
  151.7609  141.0528  157.1522 C   0  0  0  0  0  0  0  0  0  0  0  0
  152.2217  141.8293  158.2250 N   0  0  0  0  0  0  0  0  0  0  0  0
  151.8505  143.2355  158.1269 C   0  0  0  0  0  0  0  0  0  0  0  0
  152.4984  144.0320  159.2731 C   0  0  0  0  0  0  0  0  0  0  0  0
  152.1291  143.4584  160.5242 O   0  0  0  0  0  0  0  0  0  0  0  0
  152.5606  142.1052  160.6404 C   0  0  0  0  0  0  0  0  0  0  0  0
  151.9113  141.2605  159.5308 C   0  0  0  0  0  0  0  0  0  0  0  0
  150.5682  141.4286  156.4991 C   0  0  0  0  0  0  0  0  0  0  0  0
  149.5363  140.2945  152.9254 H   0  0  0  0  0  0  0  0  0  0  0  0
  148.1311  141.0918  152.7927 H   0  0  0  0  0  0  0  0  0  0  0  0
  148.4707  141.9692  155.0581 H   0  0  0  0  0  0  0  0  0  0  0  0
  148.0635  140.2715  154.8984 H   0  0  0  0  0  0  0  0  0  0  0  0
  150.5495  138.8960  154.2091 H   0  0  0  0  0  0  0  0  0  0  0  0
  152.6430  138.3692  155.4800 H   0  0  0  0  0  0  0  0  0  0  0  0
  152.1709  143.6363  157.1644 H   0  0  0  0  0  0  0  0  0  0  0  0
  150.7652  143.3358  158.1742 H   0  0  0  0  0  0  0  0  0  0  0  0
  153.5849  144.0431  159.1732 H   0  0  0  0  0  0  0  0  0  0  0  0
  152.1650  145.0694  159.2458 H   0  0  0  0  0  0  0  0  0  0  0  0
  153.6491  142.0529  160.5829 H   0  0  0  0  0  0  0  0  0  0  0  0
  152.2741  141.7233  161.6203 H   0  0  0  0  0  0  0  0  0  0  0  0
  150.8303  141.2307  159.6746 H   0  0  0  0  0  0  0  0  0  0  0  0
  152.2729  140.2327  159.5815 H   0  0  0  0  0  0  0  0  0  0  0  0
  150.0136  142.2978  156.8222 H   0  0  0  0  0  0  0  0  0  0  0  0
  1  2  1  0  0  0  0
  1 15  1  0  0  0  0
  1 16  1  0  0  0  0
  2  3  1  0  0  0  0
  2 17  1  0  0  0  0
  2 18  1  0  0  0  0
  3 14  1  0  0  0  0
  3  4  2  0  0  0  0
  4  5  1  0  0  0  0
  4 19  1  0  0  0  0
  5  6  2  0  0  0  0
  5 20  1  0  0  0  0
  6  7  1  0  0  0  0
  7  8  1  0  0  0  0
  7 14  2  0  0  0  0
  8 13  1  0  0  0  0
  8  9  1  0  0  0  0
  9 10  1  0  0  0  0
  9 21  1  0  0  0  0
  9 22  1  0  0  0  0
 10 11  1  0  0  0  0
 10 23  1  0  0  0  0
 10 24  1  0  0  0  0
 11 12  1  0  0  0  0
 12 13  1  0  0  0  0
 12 25  1  0  0  0  0
 12 26  1  0  0  0  0
 13 27  1  0  0  0  0
 13 28  1  0  0  0  0
 14 29  1  0  0  0  0
M  END
> <s_m_source_file>
AV-unprocessed.smi

> <i_m_source_file_index>
3123

> <i_lp_mmshare_version>
43012

> <i_f3d_flags>
0

> <s_epik_input>
W05IMl1bQ0gyXWMxW2NIXVtjSF1uYyhbY0hdMSlOMltDSDJdW0NIMl1PW0NIMl1bQ0gyXTI=

> <s_epik_cmdline>
J2VwaWtfcHl0aG9uJywgJy1waCcsICc3LjAnLCAnLXRuJywgJzgnLCAnLW1hJywgJzIwMCcsICctbWV0YWxfYmluZGluZycsICctaW1hZScsICc8aW5maWxlLm1hZT4nLCAnLW9tYWUnLCAnPG91dGZpbGUubWFlPic=

> <r_lp_tautomer_probability>
1

> <r_epik_Ionization_Penalty>
1.26929

> <r_epik_Ionization_Penalty_Charging>
0

> <r_epik_Ionization_Penalty_Neutral>
1.26929

> <r_epik_State_Penalty>
2.46732

> <r_epik_Charging_Adjusted_Penalty>
2.46732

> <i_epik_Tot_Q>
0

> <i_epik_Tot_abs_Q>
0

> <r_epik_Metal_State_Penalty>
2.44539

> <b_epik_Metal_Only>
0

> <s_lp_Force_Field>
OPLS_2005

> <r_lp_Energy>
17.6888

> <b_lp_Chiralities_Consistent>
1

> <s_lp_Variant>
AV-unprocessed.smi:3123-2

> <Gold.Version>
5.8.1

> <Gold.Id.Protein>
6NUR|6NUR_protein|mol2

> <Gold.PLP.Fitness>
37.5051

> <Gold.PLP.PLP>
-31.6894

> <Gold.PLP.part.hbond>
-3.5536

> <Gold.PLP.part.metal>
0.0000

> <Gold.PLP.part.buried>
-2.1317

> <Gold.PLP.part.nonpolar>
-25.4402

> <Gold.PLP.part.repulsive>
0.0607

> <Gold.PLP.ligand.clash>
0.0220

> <Gold.PLP.ligand.torsion>
0.7089

> <Gold.PLP.Chemscore.Hbond>
2.3840

> <Gold.PLP.Chemscore.CHOScore>
0.0000

> <Gold.PLP.Chemscore.Metal>
0.0000

> <Gold.Chemscore.Hbonds>
donor molecule, donor type, donor heavy atom, donor atom, acceptor molecule, acceptor atom, score
      L1  H     1    15       P1  7957  0.34
      P1  H  7997  8010       L1     6  1.00
      P1  H  8011  8017       L1     1  0.95

> <Gold.PLP.Chemscore.Internal.Correction>
0.1035

> <Gold.Rescore>
     Score         DG    S(hbond)    S(metal)    S(lipo)     H(rot)  DE(clash)    DE(int)     intcor
     15.25     -16.00       1.45        0.00      76.71       1.29       0.03       0.72       ----

> <Gold.Chemscore.Fitness>
15.2505

> <Gold.Chemscore.DG>
-15.9983

> <Gold.Chemscore.ZeroCoef>
-5.4800

> <Gold.Chemscore.Hbond>
1.4487

> <Gold.Chemscore.Metal>
0.0000

> <Gold.Chemscore.Lipo>
76.7146

> <Gold.Chemscore.Internal_Hbond>
0.0000

> <Gold.Chemscore.DEClash>
0.0313

> <Gold.Chemscore.DEInternal>
0.7164

> <Gold.Chemscore.Rot>
1.2875

> <Gold.Chemscore.Internal.Correction>
   9.000000E+99

> <Gold.Chemscore.Hbonds>
donor molecule, donor type, donor heavy atom, donor atom, acceptor molecule, acceptor atom, score
      L1  H     1    15       P1  7957  0.34
      P1  H  7997  8010       L1     6  0.34
      P1  H  8011  8017       L1     1  0.07

> <Gold.Chemscore.Hbond.Weighted>
-4.8387

> <Gold.Chemscore.Metal.Weighted>
-0.0000

> <Gold.Chemscore.Lipo.Weighted>
-8.9756

> <Gold.Chemscore.Internal_Hbond.Weighted>
0.0000

> <Gold.Chemscore.DEClash.Weighted>
0.0313

> <Gold.Chemscore.DEInternal.Weighted>
0.7164

> <Gold.Chemscore.Rot.Weighted>
3.2961

> <Gold.Chemscore.Internal.Correction.Weighted>
   9.000000E+99

> <Gold.Protein.RotatedTorsions>
[ 6907 6896 6895 6894 ] final   36.79 input  -60.11 | X-H torsion
[ 7974 7965 7964 7962 ] final  -44.01 input  175.53 | X-H torsion
[ 8008 7997 7996 7995 ] final   75.92 input   59.86 | X-H torsion
[ 10167 10162 10161 10158 ] final  110.34 input  -65.29 | X-H torsion
[ 10718 10713 10712 10709 ] final   90.40 input   66.30 | X-H torsion
[ 10763 10752 10751 10750 ] final  178.79 input  -60.55 | X-H torsion
[ 11005 11000 10999 10996 ] final  -70.65 input  -57.11 | X-H torsion

> <Gold.Protein.ActiveResidues>
 VAL166  LYS551  ARG553  GLY616  TRP617  ASP618  TYR619  PRO620  LYS621  CYS622 
 ASP623  PHE694  ASN695  SER759  ASP760  ASP761  ALA762  ILE779  LEU786  VAL792 
 PHE793  MET794  SER795  GLU796  ALA797  LYS798  CYS799  TRP800  GLU811  SER814 

> <Gold.Protein.RotatedAtoms>
  152.1345  134.9110  160.0556 H   0  0  0  0  0  0  0  0  0  0  0  0  # atno 6907 bound_to 6896
  152.0202  133.3890  159.4263 H   0  0  0  0  0  0  0  0  0  0  0  0  # atno 6908 bound_to 6896
  150.6859  134.3556  159.4972 H   0  0  0  0  0  0  0  0  0  0  0  0  # atno 6909 bound_to 6896
  145.9962  140.7125  142.9292 H   0  0  0  0  0  0  0  0  0  0  0  0  # atno 7974 bound_to 7965
  155.8198  140.3470  155.5507 H   0  0  0  0  0  0  0  0  0  0  0  0  # atno 8008 bound_to 7997
  155.8354  140.0933  157.1787 H   0  0  0  0  0  0  0  0  0  0  0  0  # atno 8009 bound_to 7997
  154.4004  140.1404  156.3651 H   0  0  0  0  0  0  0  0  0  0  0  0  # atno 8010 bound_to 7997
  139.6696  144.7126  151.1713 H   0  0  0  0  0  0  0  0  0  0  0  0  # atno 10167 bound_to 10162
  157.6959  131.0369  150.3572 H   0  0  0  0  0  0  0  0  0  0  0  0  # atno 10718 bound_to 10713
  154.5122  135.2789  155.1333 H   0  0  0  0  0  0  0  0  0  0  0  0  # atno 10763 bound_to 10752
  154.2924  135.6264  153.5394 H   0  0  0  0  0  0  0  0  0  0  0  0  # atno 10764 bound_to 10752
  152.9921  135.5677  154.5590 H   0  0  0  0  0  0  0  0  0  0  0  0  # atno 10765 bound_to 10752
  141.1578  133.6796  156.6786 H   0  0  0  0  0  0  0  0  0  0  0  0  # atno 11005 bound_to 11000
  144.6904  140.3155  143.7241 LP  0  0  0  0  0  0  0  0  0  0  0  0  # atno 17320 bound_to 7965
  145.7556  139.1807  143.2296 LP  0  0  0  0  0  0  0  0  0  0  0  0  # atno 17321 bound_to 7965
  140.7613  143.5865  150.8840 LP  0  0  0  0  0  0  0  0  0  0  0  0  # atno 17342 bound_to 10162
  139.9530  143.6251  152.3024 LP  0  0  0  0  0  0  0  0  0  0  0  0  # atno 17343 bound_to 10162
  156.4013  130.3916  149.6958 LP  0  0  0  0  0  0  0  0  0  0  0  0  # atno 17370 bound_to 10713
  156.4274  130.7798  151.2817 LP  0  0  0  0  0  0  0  0  0  0  0  0  # atno 17371 bound_to 10713
  140.3120  134.8078  157.4184 LP  0  0  0  0  0  0  0  0  0  0  0  0  # atno 17394 bound_to 11000
  140.1170  134.5269  155.8216 LP  0  0  0  0  0  0  0  0  0  0  0  0  # atno 17395 bound_to 11000

$$$$
