AV-unprocessed.smi:3330|AV-procd|sdf|12802|dock6
  -GOLD-   2272019163D 1   1.00000     0.00000
 Structure written by MMmdl.
 39 40  0  0  0  0  0  0  0  0  2 V2000
  146.0622  135.8280  153.3360 C   0  0  0  0  0  0  0  0  0  0  0  0
  144.8722  136.8109  153.2984 C   0  0  1  0  0  0  0  0  0  0  0  0
  145.3374  138.1680  152.9290 N   0  3  0  0  0  0  0  0  0  0  0  0
  146.3522  138.7612  153.8239 C   0  0  0  0  0  0  0  0  0  0  0  0
  147.1371  139.8644  153.0976 C   0  0  0  0  0  0  0  0  0  0  0  0
  147.9077  140.6815  154.0385 N   0  0  0  0  0  0  0  0  0  0  0  0
  149.0550  140.2922  154.6091 C   0  0  0  0  0  0  0  0  0  0  0  0
  149.6422  139.2223  154.4521 O   0  0  0  0  0  0  0  0  0  0  0  0
  149.5378  141.3998  155.5199 C   0  0  0  0  0  0  0  0  0  0  0  0
  148.4660  142.3515  155.3194 N   0  0  0  0  0  0  0  0  0  0  0  0
  147.5401  141.9050  154.4608 C   0  0  0  0  0  0  0  0  0  0  0  0
  146.5265  142.5172  154.1279 O   0  0  0  0  0  0  0  0  0  0  0  0
  143.7516  136.3622  152.3220 C   0  0  2  0  0  0  0  0  0  0  0  0
  142.3668  136.3046  152.9966 C   0  0  0  0  0  0  0  0  0  0  0  0
  144.0501  135.0853  151.6851 N   0  0  0  0  0  0  0  0  0  0  0  0
  143.8978  133.8157  152.2041 C   0  0  0  0  0  0  0  0  0  0  0  0
  144.3038  132.9311  151.2468 C   0  0  0  0  0  0  0  0  0  0  0  0
  144.6953  133.7633  150.1615 C   0  0  0  0  0  0  0  0  0  0  0  0
  144.5415  135.0508  150.4256 N   0  0  0  0  0  0  0  0  0  0  0  0
  145.7573  134.8346  153.6651 H   0  0  0  0  0  0  0  0  0  0  0  0
  146.8376  136.1542  154.0285 H   0  0  0  0  0  0  0  0  0  0  0  0
  146.5195  135.7238  152.3517 H   0  0  0  0  0  0  0  0  0  0  0  0
  144.4417  136.8621  154.3000 H   0  0  0  0  0  0  0  0  0  0  0  0
  145.6954  138.1463  151.9849 H   0  0  0  0  0  0  0  0  0  0  0  0
  145.8584  139.1744  154.7045 H   0  0  0  0  0  0  0  0  0  0  0  0
  147.0384  137.9884  154.1700 H   0  0  0  0  0  0  0  0  0  0  0  0
  147.8070  139.4202  152.3590 H   0  0  0  0  0  0  0  0  0  0  0  0
  146.4524  140.4980  152.5305 H   0  0  0  0  0  0  0  0  0  0  0  0
  149.5975  141.0721  156.5582 H   0  0  0  0  0  0  0  0  0  0  0  0
  150.4980  141.8005  155.1935 H   0  0  0  0  0  0  0  0  0  0  0  0
  148.4321  143.2474  155.7845 H   0  0  0  0  0  0  0  0  0  0  0  0
  143.6935  137.1001  151.5200 H   0  0  0  0  0  0  0  0  0  0  0  0
  142.0606  137.2809  153.3720 H   0  0  0  0  0  0  0  0  0  0  0  0
  142.3587  135.6102  153.8374 H   0  0  0  0  0  0  0  0  0  0  0  0
  141.6030  135.9774  152.2904 H   0  0  0  0  0  0  0  0  0  0  0  0
  143.5164  133.6480  153.2007 H   0  0  0  0  0  0  0  0  0  0  0  0
  144.3200  131.8533  151.3122 H   0  0  0  0  0  0  0  0  0  0  0  0
  145.0832  133.4722  149.1965 H   0  0  0  0  0  0  0  0  0  0  0  0
  144.5325  138.7779  152.9506 H   0  0  0  0  0  0  0  0  0  0  0  0
  1  2  1  0  0  0  0
  1 20  1  0  0  0  0
  1 21  1  0  0  0  0
  1 22  1  0  0  0  0
  2  3  1  0  0  0  0
  2 13  1  0  0  0  0
  2 23  1  0  0  0  0
  3  4  1  0  0  0  0
  3 24  1  0  0  0  0
  3 39  1  0  0  0  0
  4  5  1  0  0  0  0
  4 25  1  0  0  0  0
  4 26  1  0  0  0  0
  5  6  1  0  0  0  0
  5 27  1  0  0  0  0
  5 28  1  0  0  0  0
  6 11  1  0  0  0  0
  6  7  1  0  0  0  0
  7  8  2  0  0  0  0
  7  9  1  0  0  0  0
  9 10  1  0  0  0  0
  9 29  1  0  0  0  0
  9 30  1  0  0  0  0
 10 11  1  0  0  0  0
 10 31  1  0  0  0  0
 11 12  2  0  0  0  0
 13 14  1  0  0  0  0
 13 15  1  0  0  0  0
 13 32  1  0  0  0  0
 14 33  1  0  0  0  0
 14 34  1  0  0  0  0
 14 35  1  0  0  0  0
 15 19  1  0  0  0  0
 15 16  1  0  0  0  0
 16 17  2  0  0  0  0
 16 36  1  0  0  0  0
 17 18  1  0  0  0  0
 17 37  1  0  0  0  0
 18 19  2  0  0  0  0
 18 38  1  0  0  0  0
M  CHG  1   3   1
M  END
> <s_m_source_file>
AV-unprocessed.smi

> <i_m_source_file_index>
3330

> <i_lp_mmshare_version>
43012

> <i_f3d_flags>
0

> <s_epik_input>
bjFbY0hdW2NIXVtjSF1uMVtDQEBIXShbQ0gzXSlbQ0BIXShbQ0gzXSlbTkhdW0NIMl1bQ0gyXU4yQyg9TylbQ0gyXVtOSF1DMj1P

> <s_epik_cmdline>
J2VwaWtfcHl0aG9uJywgJy1waCcsICc3LjAnLCAnLXRuJywgJzgnLCAnLW1hJywgJzIwMCcsICctbWV0YWxfYmluZGluZycsICctaW1hZScsICc8aW5maWxlLm1hZT4nLCAnLW9tYWUnLCAnPG91dGZpbGUubWFlPic=

> <r_lp_tautomer_probability>
1

> <r_epik_Ionization_Penalty>
0.0124905

> <r_epik_Ionization_Penalty_Charging>
0.0123685

> <r_epik_Ionization_Penalty_Neutral>
0.000122059

> <r_epik_State_Penalty>
0.00957041

> <r_epik_Charging_Adjusted_Penalty>
0.0219389

> <i_epik_Tot_Q>
1

> <i_epik_Tot_abs_Q>
1

> <r_epik_Metal_State_Penalty>
0.0858301

> <b_epik_Metal_Only>
0

> <s_lp_Force_Field>
OPLS_2005

> <r_lp_Energy>
24.6959

> <b_lp_Chiralities_Consistent>
1

> <s_lp_Variant>
AV-unprocessed.smi:3330-2

> <Gold.Version>
5.8.1

> <Gold.Id.Protein>
6NUR|6NUR_protein|mol2

> <Gold.PLP.Fitness>
42.0305

> <Gold.PLP.PLP>
-31.7911

> <Gold.PLP.part.hbond>
-1.8439

> <Gold.PLP.part.metal>
0.0000

> <Gold.PLP.part.buried>
-6.2298

> <Gold.PLP.part.nonpolar>
-25.7238

> <Gold.PLP.part.repulsive>
0.7944

> <Gold.PLP.ligand.clash>
0.0000

> <Gold.PLP.ligand.torsion>
2.2912

> <Gold.PLP.Chemscore.Hbond>
2.9840

> <Gold.PLP.Chemscore.CHOScore>
1.9315

> <Gold.PLP.Chemscore.Metal>
0.0000

> <Gold.Chemscore.Hbonds>
donor molecule, donor type, donor heavy atom, donor atom, acceptor molecule, acceptor atom, score
      L1  H     3    39       P1 10175  2.00
      L1  H    10    31       P1  8028  0.86
      L1  C    16    36       P1 10957  0.83
      L1  C    18    38       P1  7921  0.97

> <Gold.PLP.Chemscore.Internal.Correction>
0.0753

> <Gold.Rescore>
     Score         DG    S(hbond)    S(metal)    S(lipo)     H(rot)  DE(clash)    DE(int)     intcor
      9.19     -11.28       1.92        0.00      52.98       2.67       0.02       2.07       ----

> <Gold.Chemscore.Fitness>
9.1854

> <Gold.Chemscore.DG>
-11.2765

> <Gold.Chemscore.ZeroCoef>
-5.4800

> <Gold.Chemscore.Hbond>
1.9235

> <Gold.Chemscore.Metal>
0.0000

> <Gold.Chemscore.Lipo>
52.9795

> <Gold.Chemscore.Internal_Hbond>
0.0000

> <Gold.Chemscore.DEClash>
0.0177

> <Gold.Chemscore.DEInternal>
2.0733

> <Gold.Chemscore.Rot>
2.6666

> <Gold.Chemscore.Internal.Correction>
   9.000000E+99

> <Gold.Chemscore.Hbonds>
donor molecule, donor type, donor heavy atom, donor atom, acceptor molecule, acceptor atom, score
      L1  H     3    39       P1 10175  0.95
      L1  H    10    31       P1  8028  0.76

> <Gold.Chemscore.Hbond.Weighted>
-6.4244

> <Gold.Chemscore.Metal.Weighted>
-0.0000

> <Gold.Chemscore.Lipo.Weighted>
-6.1986

> <Gold.Chemscore.Internal_Hbond.Weighted>
0.0000

> <Gold.Chemscore.DEClash.Weighted>
0.0177

> <Gold.Chemscore.DEInternal.Weighted>
2.0733

> <Gold.Chemscore.Rot.Weighted>
6.8265

> <Gold.Chemscore.Internal.Correction.Weighted>
   9.000000E+99

> <Gold.Protein.RotatedTorsions>
[ 6907 6896 6895 6894 ] final    9.37 input  -60.11 | X-H torsion
[ 7974 7965 7964 7962 ] final   81.71 input  175.53 | X-H torsion
[ 8008 7997 7996 7995 ] final  142.90 input   59.86 | X-H torsion
[ 10167 10162 10161 10158 ] final -162.44 input  -65.29 | X-H torsion
[ 10718 10713 10712 10709 ] final  -42.31 input   66.30 | X-H torsion
[ 10763 10752 10751 10750 ] final  136.88 input  -60.55 | X-H torsion
[ 11005 11000 10999 10996 ] final  -29.06 input  -57.11 | X-H torsion

> <Gold.Protein.ActiveResidues>
 VAL166  LYS551  ARG553  GLY616  TRP617  ASP618  TYR619  PRO620  LYS621  CYS622 
 ASP623  PHE694  ASN695  SER759  ASP760  ASP761  ALA762  ILE779  LEU786  VAL792 
 PHE793  MET794  SER795  GLU796  ALA797  LYS798  CYS799  TRP800  GLU811  SER814 

> <Gold.Protein.RotatedAtoms>
  151.7211  135.0894  160.0283 H   0  0  0  0  0  0  0  0  0  0  0  0  # atno 6907 bound_to 6896
  152.3601  133.6282  159.6017 H   0  0  0  0  0  0  0  0  0  0  0  0  # atno 6908 bound_to 6896
  150.7599  133.9353  159.3481 H   0  0  0  0  0  0  0  0  0  0  0  0  # atno 6909 bound_to 6896
  145.6346  139.2412  143.2065 H   0  0  0  0  0  0  0  0  0  0  0  0  # atno 7974 bound_to 7965
  156.2941  140.2276  156.4803 H   0  0  0  0  0  0  0  0  0  0  0  0  # atno 8008 bound_to 7997
  154.7859  140.0457  157.1184 H   0  0  0  0  0  0  0  0  0  0  0  0  # atno 8009 bound_to 7997
  154.9703  140.3065  155.4994 H   0  0  0  0  0  0  0  0  0  0  0  0  # atno 8010 bound_to 7997
  139.6392  144.0292  152.2078 H   0  0  0  0  0  0  0  0  0  0  0  0  # atno 10167 bound_to 10162
  156.2610  130.4197  149.8543 H   0  0  0  0  0  0  0  0  0  0  0  0  # atno 10718 bound_to 10713
  153.8639  135.3064  155.3439 H   0  0  0  0  0  0  0  0  0  0  0  0  # atno 10763 bound_to 10752
  154.7836  135.4822  153.9901 H   0  0  0  0  0  0  0  0  0  0  0  0  # atno 10764 bound_to 10752
  153.1446  135.6831  153.9070 H   0  0  0  0  0  0  0  0  0  0  0  0  # atno 10765 bound_to 10752
  140.9263  133.7366  156.0872 H   0  0  0  0  0  0  0  0  0  0  0  0  # atno 11005 bound_to 11000
  146.1330  140.7161  142.9403 LP  0  0  0  0  0  0  0  0  0  0  0  0  # atno 17320 bound_to 7965
  144.7180  140.4278  143.7029 LP  0  0  0  0  0  0  0  0  0  0  0  0  # atno 17321 bound_to 7965
  139.9977  144.6316  150.7757 LP  0  0  0  0  0  0  0  0  0  0  0  0  # atno 17342 bound_to 10162
  140.7482  143.2918  151.3311 LP  0  0  0  0  0  0  0  0  0  0  0  0  # atno 17343 bound_to 10162
  156.6058  130.8566  151.3442 LP  0  0  0  0  0  0  0  0  0  0  0  0  # atno 17370 bound_to 10713
  157.7250  130.9610  150.1597 LP  0  0  0  0  0  0  0  0  0  0  0  0  # atno 17371 bound_to 10713
  140.7921  134.3605  157.5462 LP  0  0  0  0  0  0  0  0  0  0  0  0  # atno 17394 bound_to 11000
  139.8786  134.9147  156.3113 LP  0  0  0  0  0  0  0  0  0  0  0  0  # atno 17395 bound_to 11000

$$$$
