AV-unprocessed.smi:1933|AV-procd|sdf|7816|dock2
  -GOLD-   22720 9563D 1   1.00000     0.00000
 Structure written by MMmdl.
 47 49  0  0  0  0  0  0  0  0  1 V2000
  144.5045  136.9019  152.2888 O   0  0  0  0  0  0  0  0  0  0  0  0
  145.7076  136.7364  152.0854 C   0  0  0  0  0  0  0  0  0  0  0  0
  146.6325  137.6838  152.2961 N   0  0  0  0  0  0  0  0  0  0  0  0
  146.3664  139.0390  152.7706 C   0  0  0  0  0  0  0  0  0  0  0  0
  147.1035  139.3325  154.1047 C   0  0  1  0  0  0  0  0  0  0  0  0
  148.6564  139.3080  153.9435 C   0  0  2  0  0  0  0  0  0  0  0  0
  149.4008  138.1371  154.5930 C   0  0  0  0  0  0  0  0  0  0  0  0
  150.5162  138.8082  155.3929 C   0  0  0  0  0  0  0  0  0  0  0  0
  150.7224  140.0435  154.7286 O   0  0  0  0  0  0  0  0  0  0  0  0
  149.4413  140.5519  154.3940 C   0  0  0  0  0  0  0  0  0  0  0  0
  146.5666  140.4747  154.8732 N   0  0  0  0  0  0  0  0  0  0  0  0
  145.2378  140.2258  155.4288 C   0  0  0  0  0  0  0  0  0  0  0  0
  144.7770  141.3735  156.3416 C   0  0  0  0  0  0  0  0  0  0  0  0
  144.7955  142.5936  155.6089 O   0  0  0  0  0  0  0  0  0  0  0  0
  146.0866  142.9036  155.0955 C   0  0  0  0  0  0  0  0  0  0  0  0
  146.5816  141.7646  154.1862 C   0  0  0  0  0  0  0  0  0  0  0  0
  146.2699  135.6045  151.6259 N   0  0  0  0  0  0  0  0  0  0  0  0
  145.6292  134.3902  151.2619 C   0  0  0  0  0  0  0  0  0  0  0  0
  146.5018  133.3160  150.9749 C   0  0  0  0  0  0  0  0  0  0  0  0
  145.9655  132.0681  150.6022 C   0  0  0  0  0  0  0  0  0  0  0  0
  144.5685  131.9264  150.5253 C   0  0  0  0  0  0  0  0  0  0  0  0
  143.7710  133.0457  150.8270 C   0  0  0  0  0  0  0  0  0  0  0  0
  144.2828  134.2424  151.1847 N   0  0  0  0  0  0  0  0  0  0  0  0
  147.5965  137.4550  152.1027 H   0  0  0  0  0  0  0  0  0  0  0  0
  146.6429  139.7788  152.0184 H   0  0  0  0  0  0  0  0  0  0  0  0
  145.2871  139.1171  152.8924 H   0  0  0  0  0  0  0  0  0  0  0  0
  146.9068  138.4607  154.7306 H   0  0  0  0  0  0  0  0  0  0  0  0
  148.8534  139.2187  152.8738 H   0  0  0  0  0  0  0  0  0  0  0  0
  148.7873  137.4999  155.2290 H   0  0  0  0  0  0  0  0  0  0  0  0
  149.8275  137.4986  153.8185 H   0  0  0  0  0  0  0  0  0  0  0  0
  150.1961  138.9989  156.4180 H   0  0  0  0  0  0  0  0  0  0  0  0
  151.4278  138.2116  155.4257 H   0  0  0  0  0  0  0  0  0  0  0  0
  149.5202  141.3010  153.6062 H   0  0  0  0  0  0  0  0  0  0  0  0
  149.0074  141.0402  155.2640 H   0  0  0  0  0  0  0  0  0  0  0  0
  144.5071  140.1101  154.6287 H   0  0  0  0  0  0  0  0  0  0  0  0
  145.2381  139.2935  155.9942 H   0  0  0  0  0  0  0  0  0  0  0  0
  143.7649  141.1892  156.7016 H   0  0  0  0  0  0  0  0  0  0  0  0
  145.4209  141.4543  157.2189 H   0  0  0  0  0  0  0  0  0  0  0  0
  146.0337  143.8380  154.5368 H   0  0  0  0  0  0  0  0  0  0  0  0
  146.7819  143.0641  155.9211 H   0  0  0  0  0  0  0  0  0  0  0  0
  147.5907  142.0141  153.8699 H   0  0  0  0  0  0  0  0  0  0  0  0
  145.9608  141.7227  153.2908 H   0  0  0  0  0  0  0  0  0  0  0  0
  147.2727  135.6153  151.5146 H   0  0  0  0  0  0  0  0  0  0  0  0
  147.5728  133.4422  151.0385 H   0  0  0  0  0  0  0  0  0  0  0  0
  146.6155  131.2349  150.3792 H   0  0  0  0  0  0  0  0  0  0  0  0
  144.1200  130.9854  150.2431 H   0  0  0  0  0  0  0  0  0  0  0  0
  142.6941  132.9792  150.7806 H   0  0  0  0  0  0  0  0  0  0  0  0
  1  2  2  0  0  0  0
  2  3  1  0  0  0  0
  2 17  1  0  0  0  0
  3  4  1  0  0  0  0
  3 24  1  0  0  0  0
  4  5  1  0  0  0  0
  4 25  1  0  0  0  0
  4 26  1  0  0  0  0
  5  6  1  0  0  0  0
  5 11  1  0  0  0  0
  5 27  1  0  0  0  0
  6 10  1  0  0  0  0
  6  7  1  0  0  0  0
  6 28  1  0  0  0  0
  7  8  1  0  0  0  0
  7 29  1  0  0  0  0
  7 30  1  0  0  0  0
  8  9  1  0  0  0  0
  8 31  1  0  0  0  0
  8 32  1  0  0  0  0
  9 10  1  0  0  0  0
 10 33  1  0  0  0  0
 10 34  1  0  0  0  0
 11 16  1  0  0  0  0
 11 12  1  0  0  0  0
 12 13  1  0  0  0  0
 12 35  1  0  0  0  0
 12 36  1  0  0  0  0
 13 14  1  0  0  0  0
 13 37  1  0  0  0  0
 13 38  1  0  0  0  0
 14 15  1  0  0  0  0
 15 16  1  0  0  0  0
 15 39  1  0  0  0  0
 15 40  1  0  0  0  0
 16 41  1  0  0  0  0
 16 42  1  0  0  0  0
 17 18  1  0  0  0  0
 17 43  1  0  0  0  0
 18 23  1  0  0  0  0
 18 19  2  0  0  0  0
 19 20  1  0  0  0  0
 19 44  1  0  0  0  0
 20 21  2  0  0  0  0
 20 45  1  0  0  0  0
 21 22  1  0  0  0  0
 21 46  1  0  0  0  0
 22 23  2  0  0  0  0
 22 47  1  0  0  0  0
M  END
> <s_m_source_file>
AV-unprocessed.smi

> <i_m_source_file_index>
1933

> <i_lp_mmshare_version>
43012

> <i_f3d_flags>
0

> <s_epik_input>
bjFbY0hdW2NIXVtjSF1bY0hdYzFbTkhdQyg9TylbTkhdW0NIMl1bQ0BIXShbQ0BASF0yW0NIMl1bQ0gyXU9bQ0gyXTIpTjNbQ0gyXVtDSDJdT1tDSDJdW0NIMl0z

> <s_epik_cmdline>
J2VwaWtfcHl0aG9uJywgJy1waCcsICc3LjAnLCAnLXRuJywgJzgnLCAnLW1hJywgJzIwMCcsICctbWV0YWxfYmluZGluZycsICctaW1hZScsICc8aW5maWxlLm1hZT4nLCAnLW9tYWUnLCAnPG91dGZpbGUubWFlPic=

> <r_epik_Ionization_Penalty>
0.125062

> <r_epik_Ionization_Penalty_Charging>
0

> <r_epik_Ionization_Penalty_Neutral>
0.125062

> <r_epik_State_Penalty>
0.114484

> <r_epik_Charging_Adjusted_Penalty>
0.114484

> <i_epik_Tot_Q>
0

> <i_epik_Tot_abs_Q>
0

> <r_epik_Metal_State_Penalty>
0.114484

> <b_epik_Metal_Only>
0

> <s_lp_Force_Field>
OPLS_2005

> <r_lp_Energy>
56.3046

> <b_lp_Chiralities_Consistent>
1

> <s_lp_Variant>
AV-unprocessed.smi:1933-2

> <Gold.Version>
5.8.1

> <Gold.Id.Protein>
6NUR|6NUR_protein|mol2

> <Gold.PLP.Fitness>
43.5583

> <Gold.PLP.PLP>
-34.8653

> <Gold.PLP.part.hbond>
-3.0000

> <Gold.PLP.part.metal>
0.0000

> <Gold.PLP.part.buried>
-4.2683

> <Gold.PLP.part.nonpolar>
-30.0371

> <Gold.PLP.part.repulsive>
1.1893

> <Gold.PLP.ligand.clash>
0.0000

> <Gold.PLP.ligand.torsion>
1.7173

> <Gold.PLP.Chemscore.Hbond>
2.9000

> <Gold.PLP.Chemscore.CHOScore>
1.0000

> <Gold.PLP.Chemscore.Metal>
0.0000

> <Gold.Chemscore.Hbonds>
donor molecule, donor type, donor heavy atom, donor atom, acceptor molecule, acceptor atom, score
      L1  H     3    24       P1  7948  1.00
      L1  H    17    43       P1  7948  1.00
      P1  H  7989  7998       L1     9  0.90
      L1  C    22    47       P1 10186  0.99

> <Gold.PLP.Chemscore.Internal.Correction>
0.4275

> <Gold.Rescore>
     Score         DG    S(hbond)    S(metal)    S(lipo)     H(rot)  DE(clash)    DE(int)     intcor
     16.06     -20.23       2.82        0.00      82.95       1.72       1.13       3.04       ----

> <Gold.Chemscore.Fitness>
16.0562

> <Gold.Chemscore.DG>
-20.2265

> <Gold.Chemscore.ZeroCoef>
-5.4800

> <Gold.Chemscore.Hbond>
2.8246

> <Gold.Chemscore.Metal>
0.0000

> <Gold.Chemscore.Lipo>
82.9526

> <Gold.Chemscore.Internal_Hbond>
0.0000

> <Gold.Chemscore.DEClash>
1.1347

> <Gold.Chemscore.DEInternal>
3.0356

> <Gold.Chemscore.Rot>
1.7161

> <Gold.Chemscore.Internal.Correction>
   9.000000E+99

> <Gold.Chemscore.Hbonds>
donor molecule, donor type, donor heavy atom, donor atom, acceptor molecule, acceptor atom, score
      L1  H     3    24       P1  7948  0.96
      L1  H    17    43       P1  7948  0.97
      P1  H  7989  7998       L1     9  0.18

> <Gold.Chemscore.Hbond.Weighted>
-9.4343

> <Gold.Chemscore.Metal.Weighted>
-0.0000

> <Gold.Chemscore.Lipo.Weighted>
-9.7055

> <Gold.Chemscore.Internal_Hbond.Weighted>
0.0000

> <Gold.Chemscore.DEClash.Weighted>
1.1347

> <Gold.Chemscore.DEInternal.Weighted>
3.0356

> <Gold.Chemscore.Rot.Weighted>
4.3932

> <Gold.Chemscore.Internal.Correction.Weighted>
   9.000000E+99

> <Gold.Protein.RotatedTorsions>
[ 6907 6896 6895 6894 ] final -112.83 input  -60.11 | X-H torsion
[ 7974 7965 7964 7962 ] final  120.52 input  175.53 | X-H torsion
[ 8008 7997 7996 7995 ] final   -1.36 input   59.86 | X-H torsion
[ 10167 10162 10161 10158 ] final    4.90 input  -65.29 | X-H torsion
[ 10718 10713 10712 10709 ] final   17.64 input   66.30 | X-H torsion
[ 10763 10752 10751 10750 ] final -173.61 input  -60.55 | X-H torsion
[ 11005 11000 10999 10996 ] final  -15.94 input  -57.11 | X-H torsion

> <Gold.Protein.ActiveResidues>
 VAL166  LYS551  ARG553  GLY616  TRP617  ASP618  TYR619  PRO620  LYS621  CYS622 
 ASP623  PHE694  ASN695  SER759  ASP760  ASP761  ALA762  ILE779  LEU786  VAL792 
 PHE793  MET794  SER795  GLU796  ALA797  LYS798  CYS799  TRP800  GLU811  SER814 

> <Gold.Protein.RotatedAtoms>
  150.7786  133.9032  159.3347 H   0  0  0  0  0  0  0  0  0  0  0  0  # atno 6907 bound_to 6896
  151.6900  135.0946  160.0241 H   0  0  0  0  0  0  0  0  0  0  0  0  # atno 6908 bound_to 6896
  152.3830  133.6534  159.6212 H   0  0  0  0  0  0  0  0  0  0  0  0  # atno 6909 bound_to 6896
  145.1302  139.3332  143.4669 H   0  0  0  0  0  0  0  0  0  0  0  0  # atno 7974 bound_to 7965
  154.6477  140.2561  155.7249 H   0  0  0  0  0  0  0  0  0  0  0  0  # atno 8008 bound_to 7997
  156.2560  140.2874  156.0818 H   0  0  0  0  0  0  0  0  0  0  0  0  # atno 8009 bound_to 7997
  155.1499  140.0382  157.2809 H   0  0  0  0  0  0  0  0  0  0  0  0  # atno 8010 bound_to 7997
  140.6510  143.7544  150.7575 H   0  0  0  0  0  0  0  0  0  0  0  0  # atno 10167 bound_to 10162
  157.0850  130.6404  149.5835 H   0  0  0  0  0  0  0  0  0  0  0  0  # atno 10718 bound_to 10713
  154.6059  135.2859  155.0485 H   0  0  0  0  0  0  0  0  0  0  0  0  # atno 10763 bound_to 10752
  154.1733  135.6469  153.5019 H   0  0  0  0  0  0  0  0  0  0  0  0  # atno 10764 bound_to 10752
  153.0175  135.5406  154.6795 H   0  0  0  0  0  0  0  0  0  0  0  0  # atno 10765 bound_to 10752
  140.8018  133.8208  155.9477 H   0  0  0  0  0  0  0  0  0  0  0  0  # atno 11005 bound_to 11000
  146.3514  140.1298  142.8597 LP  0  0  0  0  0  0  0  0  0  0  0  0  # atno 17320 bound_to 7965
  145.0644  140.9111  143.4919 LP  0  0  0  0  0  0  0  0  0  0  0  0  # atno 17321 bound_to 7965
  140.1195  143.4625  152.2322 LP  0  0  0  0  0  0  0  0  0  0  0  0  # atno 17342 bound_to 10162
  139.5725  144.7470  151.3851 LP  0  0  0  0  0  0  0  0  0  0  0  0  # atno 17343 bound_to 10162
  155.9913  130.4967  150.7294 LP  0  0  0  0  0  0  0  0  0  0  0  0  # atno 17370 bound_to 10713
  157.4769  131.0898  151.0580 LP  0  0  0  0  0  0  0  0  0  0  0  0  # atno 17371 bound_to 10713
  140.9287  134.2049  157.4878 LP  0  0  0  0  0  0  0  0  0  0  0  0  # atno 17394 bound_to 11000
  139.8721  134.9823  156.5153 LP  0  0  0  0  0  0  0  0  0  0  0  0  # atno 17395 bound_to 11000

$$$$
