AV-unprocessed.smi:412|AV-procd|sdf|2511|dock10
  -GOLD-   2262022463D 1   1.00000     0.00000
 Structure written by MMmdl.
 36 38  0  0  0  0  0  0  0  0  1 V2000
  154.1909  140.6288  160.4196 C   0  0  0  0  0  0  0  0  0  0  0  0
  153.1153  140.9383  159.4854 N   0  0  0  0  0  0  0  0  0  0  0  0
  152.4007  140.0602  158.7438 C   0  0  0  0  0  0  0  0  0  0  0  0
  152.5412  138.8371  158.7326 O   0  0  0  0  0  0  0  0  0  0  0  0
  151.4969  140.7611  158.0185 N   0  0  0  0  0  0  0  0  0  0  0  0
  150.5164  140.2092  157.0842 C   0  0  0  0  0  0  0  0  0  0  0  0
  150.6753  140.7974  155.6681 C   0  0  1  0  0  0  0  0  0  0  0  0
  151.8099  140.2100  155.0610 O   0  0  0  0  0  0  0  0  0  0  0  0
  149.4184  140.5723  154.8406 C   0  0  0  0  0  0  0  0  0  0  0  0
  148.9957  139.2655  154.5085 C   0  0  0  0  0  0  0  0  0  0  0  0
  147.8270  139.0687  153.7475 C   0  0  0  0  0  0  0  0  0  0  0  0
  147.0706  140.1762  153.3188 C   0  0  0  0  0  0  0  0  0  0  0  0
  147.4823  141.4803  153.6533 C   0  0  0  0  0  0  0  0  0  0  0  0
  148.6524  141.6778  154.4122 C   0  0  0  0  0  0  0  0  0  0  0  0
  151.6338  142.1263  158.3100 C   0  0  0  0  0  0  0  0  0  0  0  0
  150.9360  143.2514  157.8362 C   0  0  0  0  0  0  0  0  0  0  0  0
  151.3245  144.5138  158.3427 C   0  0  0  0  0  0  0  0  0  0  0  0
  152.3757  144.6257  159.2897 C   0  0  0  0  0  0  0  0  0  0  0  0
  153.0600  143.4769  159.7517 C   0  0  0  0  0  0  0  0  0  0  0  0
  152.6532  142.2360  159.2322 C   0  0  0  0  0  0  0  0  0  0  0  0
  154.4093  139.5607  160.4550 H   0  0  0  0  0  0  0  0  0  0  0  0
  153.9192  140.9500  161.4253 H   0  0  0  0  0  0  0  0  0  0  0  0
  155.1038  141.1492  160.1289 H   0  0  0  0  0  0  0  0  0  0  0  0
  150.5548  139.1195  157.0653 H   0  0  0  0  0  0  0  0  0  0  0  0
  149.5265  140.4602  157.4692 H   0  0  0  0  0  0  0  0  0  0  0  0
  150.8544  141.8719  155.7280 H   0  0  0  0  0  0  0  0  0  0  0  0
  152.5664  140.4007  155.5942 H   0  0  0  0  0  0  0  0  0  0  0  0
  149.5653  138.4090  154.8382 H   0  0  0  0  0  0  0  0  0  0  0  0
  147.5100  138.0678  153.4940 H   0  0  0  0  0  0  0  0  0  0  0  0
  146.1739  140.0254  152.7359 H   0  0  0  0  0  0  0  0  0  0  0  0
  146.8996  142.3299  153.3286 H   0  0  0  0  0  0  0  0  0  0  0  0
  148.9582  142.6824  154.6660 H   0  0  0  0  0  0  0  0  0  0  0  0
  150.1343  143.1620  157.1186 H   0  0  0  0  0  0  0  0  0  0  0  0
  150.8139  145.4035  158.0052 H   0  0  0  0  0  0  0  0  0  0  0  0
  152.6557  145.5995  159.6632 H   0  0  0  0  0  0  0  0  0  0  0  0
  153.8597  143.5528  160.4736 H   0  0  0  0  0  0  0  0  0  0  0  0
  1  2  1  0  0  0  0
  1 21  1  0  0  0  0
  1 22  1  0  0  0  0
  1 23  1  0  0  0  0
  2 20  1  0  0  0  0
  2  3  1  0  0  0  0
  3  4  2  0  0  0  0
  3  5  1  0  0  0  0
  5  6  1  0  0  0  0
  5 15  1  0  0  0  0
  6  7  1  0  0  0  0
  6 24  1  0  0  0  0
  6 25  1  0  0  0  0
  7  8  1  0  0  0  0
  7  9  1  0  0  0  0
  7 26  1  0  0  0  0
  8 27  1  0  0  0  0
  9 14  1  0  0  0  0
  9 10  2  0  0  0  0
 10 11  1  0  0  0  0
 10 28  1  0  0  0  0
 11 12  2  0  0  0  0
 11 29  1  0  0  0  0
 12 13  1  0  0  0  0
 12 30  1  0  0  0  0
 13 14  2  0  0  0  0
 13 31  1  0  0  0  0
 14 32  1  0  0  0  0
 15 20  2  0  0  0  0
 15 16  1  0  0  0  0
 16 17  2  0  0  0  0
 16 33  1  0  0  0  0
 17 18  1  0  0  0  0
 17 34  1  0  0  0  0
 18 19  2  0  0  0  0
 18 35  1  0  0  0  0
 19 20  1  0  0  0  0
 19 36  1  0  0  0  0
M  END
> <s_m_source_file>
AV-unprocessed.smi

> <i_m_source_file_index>
412

> <i_lp_mmshare_version>
43012

> <i_f3d_flags>
0

> <s_epik_input>
W2NIXTFbY0hdW2NIXVtjSF1jKGMxMiluKFtDSDNdKWMoPU8pbjJbQ0gyXVtDQEhdKFtPSF0pYzNbY0hdW2NIXVtjSF1bY0hdW2NIXTM=

> <s_epik_cmdline>
J2VwaWtfcHl0aG9uJywgJy1waCcsICc3LjAnLCAnLXRuJywgJzgnLCAnLW1hJywgJzIwMCcsICctbWV0YWxfYmluZGluZycsICctaW1hZScsICc8aW5maWxlLm1hZT4nLCAnLW9tYWUnLCAnPG91dGZpbGUubWFlPic=

> <r_lp_tautomer_probability>
1

> <r_epik_Ionization_Penalty>
1.34619e-06

> <r_epik_Ionization_Penalty_Charging>
2.57375e-09

> <r_epik_Ionization_Penalty_Neutral>
1.34362e-06

> <r_epik_State_Penalty>
-0

> <r_epik_Charging_Adjusted_Penalty>
2.57375e-09

> <i_epik_Tot_Q>
0

> <i_epik_Tot_abs_Q>
0

> <r_epik_Metal_State_Penalty>
-0

> <b_epik_Metal_Only>
0

> <s_lp_Force_Field>
OPLS_2005

> <r_lp_Energy>
43.5229

> <b_lp_Chiralities_Consistent>
1

> <s_lp_Variant>
AV-unprocessed.smi:412-2

> <Gold.Version>
5.8.1

> <Gold.Id.Protein>
6NUR|6NUR_protein|mol2

> <Gold.PLP.Fitness>
50.8541

> <Gold.PLP.PLP>
-48.7252

> <Gold.PLP.part.hbond>
-1.0000

> <Gold.PLP.part.metal>
0.0000

> <Gold.PLP.part.buried>
-4.1034

> <Gold.PLP.part.nonpolar>
-43.1271

> <Gold.PLP.part.repulsive>
0.0000

> <Gold.PLP.ligand.clash>
0.0000

> <Gold.PLP.ligand.torsion>
0.1699

> <Gold.PLP.Chemscore.Hbond>
0.8208

> <Gold.PLP.Chemscore.CHOScore>
0.0000

> <Gold.PLP.Chemscore.Metal>
0.0000

> <Gold.Chemscore.Hbonds>
donor molecule, donor type, donor heavy atom, donor atom, acceptor molecule, acceptor atom, score
      P1  H  7989  7998       L1     8  0.82

> <Gold.PLP.Chemscore.Internal.Correction>
0.0063

> <Gold.Rescore>
     Score         DG    S(hbond)    S(metal)    S(lipo)     H(rot)  DE(clash)    DE(int)     intcor
     17.53     -17.72       0.73        0.00     122.27       1.76       0.00       0.18       ----

> <Gold.Chemscore.Fitness>
17.5338

> <Gold.Chemscore.DG>
-17.7199

> <Gold.Chemscore.ZeroCoef>
-5.4800

> <Gold.Chemscore.Hbond>
0.7272

> <Gold.Chemscore.Metal>
0.0000

> <Gold.Chemscore.Lipo>
122.2661

> <Gold.Chemscore.Internal_Hbond>
0.0000

> <Gold.Chemscore.DEClash>
0.0033

> <Gold.Chemscore.DEInternal>
0.1828

> <Gold.Chemscore.Rot>
1.7555

> <Gold.Chemscore.Internal.Correction>
   9.000000E+99

> <Gold.Chemscore.Hbonds>
donor molecule, donor type, donor heavy atom, donor atom, acceptor molecule, acceptor atom, score
      P1  H  7989  7998       L1     8  0.18

> <Gold.Chemscore.Hbond.Weighted>
-2.4290

> <Gold.Chemscore.Metal.Weighted>
-0.0000

> <Gold.Chemscore.Lipo.Weighted>
-14.3051

> <Gold.Chemscore.Internal_Hbond.Weighted>
0.0000

> <Gold.Chemscore.DEClash.Weighted>
0.0033

> <Gold.Chemscore.DEInternal.Weighted>
0.1828

> <Gold.Chemscore.Rot.Weighted>
4.4942

> <Gold.Chemscore.Internal.Correction.Weighted>
   9.000000E+99

> <Gold.Protein.RotatedTorsions>
[ 6907 6896 6895 6894 ] final  -58.74 input  -60.11 | X-H torsion
[ 7974 7965 7964 7962 ] final   25.25 input  175.53 | X-H torsion
[ 8008 7997 7996 7995 ] final   46.98 input   59.86 | X-H torsion
[ 10167 10162 10161 10158 ] final  -82.34 input  -65.29 | X-H torsion
[ 10718 10713 10712 10709 ] final  -22.04 input   66.30 | X-H torsion
[ 10763 10752 10751 10750 ] final  142.37 input  -60.55 | X-H torsion
[ 11005 11000 10999 10996 ] final -110.65 input  -57.11 | X-H torsion

> <Gold.Protein.ActiveResidues>
 VAL166  LYS551  ARG553  GLY616  TRP617  ASP618  TYR619  PRO620  LYS621  CYS622 
 ASP623  PHE694  ASN695  SER759  ASP760  ASP761  ALA762  ILE779  LEU786  VAL792 
 PHE793  MET794  SER795  GLU796  ALA797  LYS798  CYS799  TRP800  GLU811  SER814 

> <Gold.Protein.RotatedAtoms>
  150.7983  134.7059  159.6575 H   0  0  0  0  0  0  0  0  0  0  0  0  # atno 6907 bound_to 6896
  152.4098  134.6141  160.0043 H   0  0  0  0  0  0  0  0  0  0  0  0  # atno 6908 bound_to 6896
  151.6387  133.3290  159.3161 H   0  0  0  0  0  0  0  0  0  0  0  0  # atno 6909 bound_to 6896
  146.1898  139.7492  142.8840 H   0  0  0  0  0  0  0  0  0  0  0  0  # atno 7974 bound_to 7965
  155.3615  140.3419  155.4241 H   0  0  0  0  0  0  0  0  0  0  0  0  # atno 8008 bound_to 7997
  156.1711  140.1632  156.8480 H   0  0  0  0  0  0  0  0  0  0  0  0  # atno 8009 bound_to 7997
  154.5234  140.0761  156.8197 H   0  0  0  0  0  0  0  0  0  0  0  0  # atno 8010 bound_to 7997
  140.4328  143.2542  151.8735 H   0  0  0  0  0  0  0  0  0  0  0  0  # atno 10167 bound_to 10162
  156.5100  130.4608  149.6653 H   0  0  0  0  0  0  0  0  0  0  0  0  # atno 10718 bound_to 10713
  153.9547  135.2966  155.3437 H   0  0  0  0  0  0  0  0  0  0  0  0  # atno 10763 bound_to 10752
  154.7407  135.5026  153.9121 H   0  0  0  0  0  0  0  0  0  0  0  0  # atno 10764 bound_to 10752
  153.0976  135.6725  153.9842 H   0  0  0  0  0  0  0  0  0  0  0  0  # atno 10765 bound_to 10752
  141.0779  133.9269  157.2350 H   0  0  0  0  0  0  0  0  0  0  0  0  # atno 11005 bound_to 11000
  145.3828  141.0361  143.3168 LP  0  0  0  0  0  0  0  0  0  0  0  0  # atno 17320 bound_to 7965
  144.8465  139.5389  143.6876 LP  0  0  0  0  0  0  0  0  0  0  0  0  # atno 17321 bound_to 7965
  139.4785  144.5315  151.8659 LP  0  0  0  0  0  0  0  0  0  0  0  0  # atno 17342 bound_to 10162
  140.4407  144.1990  150.5891 LP  0  0  0  0  0  0  0  0  0  0  0  0  # atno 17343 bound_to 10162
  156.3250  130.7301  151.2220 LP  0  0  0  0  0  0  0  0  0  0  0  0  # atno 17370 bound_to 10713
  157.7452  131.0445  150.4798 LP  0  0  0  0  0  0  0  0  0  0  0  0  # atno 17371 bound_to 10713
  139.9592  135.0158  156.9214 LP  0  0  0  0  0  0  0  0  0  0  0  0  # atno 17394 bound_to 11000
  140.5532  134.0607  155.7375 LP  0  0  0  0  0  0  0  0  0  0  0  0  # atno 17395 bound_to 11000

$$$$
