AV-unprocessed.smi:750|AV-procd|sdf|3593|dock8
  -GOLD-   22720 0583D 1   1.00000     0.00000
 Structure written by MMmdl.
 22 23  0  0  0  0  0  0  0  0  2 V2000
  149.0297  141.2319  157.7071 C   0  0  0  0  0  0  0  0  0  0  0  0
  150.5603  141.1631  157.5144 C   0  0  2  0  0  0  0  0  0  0  0  0
  151.2813  142.2947  158.2720 C   0  0  0  0  0  0  0  0  0  0  0  0
  152.2338  142.0453  159.2912 C   0  0  0  0  0  0  0  0  0  0  0  0
  152.8508  143.1308  159.9420 C   0  0  0  0  0  0  0  0  0  0  0  0
  152.4975  144.4357  159.5519 C   0  0  0  0  0  0  0  0  0  0  0  0
  151.5948  144.6985  158.5854 N   0  0  0  0  0  0  0  0  0  0  0  0
  151.0075  143.6508  157.9682 C   0  0  0  0  0  0  0  0  0  0  0  0
  150.8496  141.1238  156.0853 N   0  5  0  0  0  0  0  0  0  0  0  0
  151.4903  139.9672  155.7953 C   0  0  0  0  0  0  0  0  0  0  0  0
  151.9043  139.5896  154.7016 O   0  0  0  0  0  0  0  0  0  0  0  0
  151.6356  139.2224  156.8944 N   0  0  0  0  0  0  0  0  0  0  0  0
  151.1078  139.8121  157.9624 C   0  0  0  0  0  0  0  0  0  0  0  0
  151.0568  139.3614  159.1066 O   0  0  0  0  0  0  0  0  0  0  0  0
  148.7414  141.1384  158.7541 H   0  0  0  0  0  0  0  0  0  0  0  0
  148.5193  140.4340  157.1651 H   0  0  0  0  0  0  0  0  0  0  0  0
  148.6321  142.1793  157.3415 H   0  0  0  0  0  0  0  0  0  0  0  0
  152.5012  141.0420  159.5870 H   0  0  0  0  0  0  0  0  0  0  0  0
  153.5782  142.9650  160.7225 H   0  0  0  0  0  0  0  0  0  0  0  0
  152.9515  145.2911  160.0299 H   0  0  0  0  0  0  0  0  0  0  0  0
  150.2874  143.9115  157.2071 H   0  0  0  0  0  0  0  0  0  0  0  0
  152.0764  138.3149  156.9079 H   0  0  0  0  0  0  0  0  0  0  0  0
  1  2  1  0  0  0  0
  1 15  1  0  0  0  0
  1 16  1  0  0  0  0
  1 17  1  0  0  0  0
  2 13  1  0  0  0  0
  2  3  1  0  0  0  0
  2  9  1  0  0  0  0
  3  8  1  0  0  0  0
  3  4  2  0  0  0  0
  4  5  1  0  0  0  0
  4 18  1  0  0  0  0
  5  6  2  0  0  0  0
  5 19  1  0  0  0  0
  6  7  1  0  0  0  0
  6 20  1  0  0  0  0
  7  8  2  0  0  0  0
  8 21  1  0  0  0  0
  9 10  1  0  0  0  0
 10 11  2  0  0  0  0
 10 12  1  0  0  0  0
 12 13  1  0  0  0  0
 12 22  1  0  0  0  0
 13 14  2  0  0  0  0
M  CHG  1   9  -1
M  END
> <s_m_source_file>
AV-unprocessed.smi

> <i_m_source_file_index>
750

> <i_lp_mmshare_version>
43012

> <i_f3d_flags>
0

> <s_epik_input>
Tz1DMVtOSF1DKD1PKVtOSF1bQ0BAXTEoW0NIM10pYzJbY0hdW2NIXVtjSF1uW2NIXTI=

> <s_epik_cmdline>
J2VwaWtfcHl0aG9uJywgJy1waCcsICc3LjAnLCAnLXRuJywgJzgnLCAnLW1hJywgJzIwMCcsICctbWV0YWxfYmluZGluZycsICctaW1hZScsICc8aW5maWxlLm1hZT4nLCAnLW9tYWUnLCAnPG91dGZpbGUubWFlPic=

> <r_lp_tautomer_probability>
1

> <r_epik_Ionization_Penalty>
4.84674

> <r_epik_Ionization_Penalty_Charging>
4.8337

> <r_epik_Ionization_Penalty_Neutral>
0.0130349

> <r_epik_State_Penalty>
4.85653

> <r_epik_Charging_Adjusted_Penalty>
9.69023

> <i_epik_Tot_Q>
-1

> <i_epik_Tot_abs_Q>
1

> <r_epik_Metal_State_Penalty>
1.3191

> <b_epik_Metal_Only>
1

> <s_lp_Force_Field>
OPLS_2005

> <r_lp_Energy>
14.3278

> <b_lp_Chiralities_Consistent>
1

> <s_lp_Variant>
AV-unprocessed.smi:750-6

> <Gold.Version>
5.8.1

> <Gold.Id.Protein>
6NUR|6NUR_protein|mol2

> <Gold.PLP.Fitness>
31.5562

> <Gold.PLP.PLP>
-25.6293

> <Gold.PLP.part.hbond>
-1.2284

> <Gold.PLP.part.metal>
0.0000

> <Gold.PLP.part.buried>
-5.2482

> <Gold.PLP.part.nonpolar>
-19.8344

> <Gold.PLP.part.repulsive>
0.2808

> <Gold.PLP.ligand.clash>
0.0000

> <Gold.PLP.ligand.torsion>
0.0280

> <Gold.PLP.Chemscore.Hbond>
0.9760

> <Gold.PLP.Chemscore.CHOScore>
1.0000

> <Gold.PLP.Chemscore.Metal>
0.0000

> <Gold.Chemscore.Hbonds>
donor molecule, donor type, donor heavy atom, donor atom, acceptor molecule, acceptor atom, score
      P1  H  7989  7998       L1    11  0.96
      L1  C     8    21       P1  8028  1.00

> <Gold.PLP.Chemscore.Internal.Correction>
0.0547

> <Gold.Rescore>
     Score         DG    S(hbond)    S(metal)    S(lipo)     H(rot)  DE(clash)    DE(int)     intcor
     12.21     -13.58       0.98        0.00      63.00       1.00       0.11       1.25       ----

> <Gold.Chemscore.Fitness>
12.2148

> <Gold.Chemscore.DG>
-13.5765

> <Gold.Chemscore.ZeroCoef>
-5.4800

> <Gold.Chemscore.Hbond>
0.9837

> <Gold.Chemscore.Metal>
0.0000

> <Gold.Chemscore.Lipo>
63.0002

> <Gold.Chemscore.Internal_Hbond>
0.0000

> <Gold.Chemscore.DEClash>
0.1103

> <Gold.Chemscore.DEInternal>
1.2514

> <Gold.Chemscore.Rot>
1.0000

> <Gold.Chemscore.Internal.Correction>
   9.000000E+99

> <Gold.Chemscore.Hbonds>
donor molecule, donor type, donor heavy atom, donor atom, acceptor molecule, acceptor atom, score
      P1  H  7989  7998       L1    11  0.69

> <Gold.Chemscore.Hbond.Weighted>
-3.2855

> <Gold.Chemscore.Metal.Weighted>
-0.0000

> <Gold.Chemscore.Lipo.Weighted>
-7.3710

> <Gold.Chemscore.Internal_Hbond.Weighted>
0.0000

> <Gold.Chemscore.DEClash.Weighted>
0.1103

> <Gold.Chemscore.DEInternal.Weighted>
1.2514

> <Gold.Chemscore.Rot.Weighted>
2.5600

> <Gold.Chemscore.Internal.Correction.Weighted>
   9.000000E+99

> <Gold.Protein.RotatedTorsions>
[ 6907 6896 6895 6894 ] final  174.66 input  -60.11 | X-H torsion
[ 7974 7965 7964 7962 ] final -144.76 input  175.53 | X-H torsion
[ 8008 7997 7996 7995 ] final   -4.17 input   59.86 | X-H torsion
[ 10167 10162 10161 10158 ] final -114.11 input  -65.29 | X-H torsion
[ 10718 10713 10712 10709 ] final  107.48 input   66.30 | X-H torsion
[ 10763 10752 10751 10750 ] final  -69.13 input  -60.55 | X-H torsion
[ 11005 11000 10999 10996 ] final  156.25 input  -57.11 | X-H torsion

> <Gold.Protein.ActiveResidues>
 VAL166  LYS551  ARG553  GLY616  TRP617  ASP618  TYR619  PRO620  LYS621  CYS622 
 ASP623  PHE694  ASN695  SER759  ASP760  ASP761  ALA762  ILE779  LEU786  VAL792 
 PHE793  MET794  SER795  GLU796  ALA797  LYS798  CYS799  TRP800  GLU811  SER814 

> <Gold.Protein.RotatedAtoms>
  151.7487  133.3326  159.3385 H   0  0  0  0  0  0  0  0  0  0  0  0  # atno 6907 bound_to 6896
  150.7544  134.6212  159.6146 H   0  0  0  0  0  0  0  0  0  0  0  0  # atno 6908 bound_to 6896
  152.3483  134.7043  160.0295 H   0  0  0  0  0  0  0  0  0  0  0  0  # atno 6909 bound_to 6896
  144.8275  140.5669  143.5537 H   0  0  0  0  0  0  0  0  0  0  0  0  # atno 7974 bound_to 7965
  154.6172  140.2491  155.7595 H   0  0  0  0  0  0  0  0  0  0  0  0  # atno 8008 bound_to 7997
  156.2405  140.2934  156.0381 H   0  0  0  0  0  0  0  0  0  0  0  0  # atno 8009 bound_to 7997
  155.1956  140.0393  157.2898 H   0  0  0  0  0  0  0  0  0  0  0  0  # atno 8010 bound_to 7997
  140.1045  143.4583  152.1791 H   0  0  0  0  0  0  0  0  0  0  0  0  # atno 10167 bound_to 10162
  157.6626  131.0873  150.6163 H   0  0  0  0  0  0  0  0  0  0  0  0  # atno 10718 bound_to 10713
  154.3989  135.6035  153.5886 H   0  0  0  0  0  0  0  0  0  0  0  0  # atno 10763 bound_to 10752
  152.9788  135.5902  154.4208 H   0  0  0  0  0  0  0  0  0  0  0  0  # atno 10764 bound_to 10752
  154.4003  135.2843  155.2079 H   0  0  0  0  0  0  0  0  0  0  0  0  # atno 10765 bound_to 10752
  140.1658  134.8578  157.2630 H   0  0  0  0  0  0  0  0  0  0  0  0  # atno 11005 bound_to 11000
  145.4969  139.1485  143.3679 LP  0  0  0  0  0  0  0  0  0  0  0  0  # atno 17320 bound_to 7965
  146.2579  140.5108  142.8866 LP  0  0  0  0  0  0  0  0  0  0  0  0  # atno 17321 bound_to 7965
  139.5653  144.7431  151.4040 LP  0  0  0  0  0  0  0  0  0  0  0  0  # atno 17342 bound_to 10162
  140.6960  143.7749  150.7327 LP  0  0  0  0  0  0  0  0  0  0  0  0  # atno 17343 bound_to 10162
  156.6465  130.4473  149.5734 LP  0  0  0  0  0  0  0  0  0  0  0  0  # atno 17370 bound_to 10713
  156.2170  130.6714  151.1329 LP  0  0  0  0  0  0  0  0  0  0  0  0  # atno 17371 bound_to 10713
  140.2436  134.3766  155.7470 LP  0  0  0  0  0  0  0  0  0  0  0  0  # atno 17394 bound_to 11000
  141.2213  133.7278  156.8827 LP  0  0  0  0  0  0  0  0  0  0  0  0  # atno 17395 bound_to 11000

$$$$
