AV-unprocessed.smi:663|AV-procd|sdf|3247|dock10
  -GOLD-   22720 0193D 1   1.00000     0.00000
 Structure written by MMmdl.
 30 31  0  0  0  0  0  0  0  0  1 V2000
  142.4997  138.3103  153.7389 N   0  0  0  0  0  0  0  0  0  0  0  0
  142.7532  137.1480  153.1321 C   0  0  0  0  0  0  0  0  0  0  0  0
  142.1273  136.1238  153.3985 O   0  0  0  0  0  0  0  0  0  0  0  0
  143.8856  137.1341  152.0957 C   0  0  0  0  0  0  0  0  0  0  0  0
  144.9955  136.0948  152.3806 C   0  0  2  0  0  0  0  0  0  0  0  0
  146.2885  136.7586  152.5427 N   0  0  0  0  0  0  0  0  0  0  0  0
  146.4950  137.9179  153.1838 C   0  0  0  0  0  0  0  0  0  0  0  0
  145.6008  138.5590  153.7355 O   0  0  0  0  0  0  0  0  0  0  0  0
  147.7889  138.2730  153.1353 N   0  0  0  0  0  0  0  0  0  0  0  0
  148.3995  139.4203  153.7005 C   0  0  0  0  0  0  0  0  0  0  0  0
  149.6734  139.3227  154.0987 N   0  0  0  0  0  0  0  0  0  0  0  0
  150.1449  140.5155  154.6329 N   0  0  0  0  0  0  0  0  0  0  0  0
  149.2062  141.4667  154.6179 C   0  0  0  0  0  0  0  0  0  0  0  0
  147.6523  141.0009  153.9495 S   0  0  0  0  0  0  0  0  0  0  0  0
  145.0153  135.0291  151.2968 C   0  0  0  0  0  0  0  0  0  0  0  0
  144.0741  133.8488  151.3503 C   0  0  0  0  0  0  0  0  0  0  0  0
  145.5563  133.6439  151.5621 C   0  0  0  0  0  0  0  0  0  0  0  0
  141.7624  138.3651  154.4268 H   0  0  0  0  0  0  0  0  0  0  0  0
  143.0426  139.1300  153.5092 H   0  0  0  0  0  0  0  0  0  0  0  0
  143.4558  136.9442  151.1109 H   0  0  0  0  0  0  0  0  0  0  0  0
  144.3174  138.1346  152.0447 H   0  0  0  0  0  0  0  0  0  0  0  0
  144.7424  135.6007  153.3213 H   0  0  0  0  0  0  0  0  0  0  0  0
  147.0840  136.3068  152.1155 H   0  0  0  0  0  0  0  0  0  0  0  0
  148.4097  137.6524  152.6369 H   0  0  0  0  0  0  0  0  0  0  0  0
  149.4311  142.4500  155.0033 H   0  0  0  0  0  0  0  0  0  0  0  0
  145.2044  135.4280  150.3017 H   0  0  0  0  0  0  0  0  0  0  0  0
  143.4265  133.7548  152.2199 H   0  0  0  0  0  0  0  0  0  0  0  0
  143.6470  133.5039  150.4109 H   0  0  0  0  0  0  0  0  0  0  0  0
  146.1190  133.1648  150.7636 H   0  0  0  0  0  0  0  0  0  0  0  0
  145.8890  133.4103  152.5714 H   0  0  0  0  0  0  0  0  0  0  0  0
  1  2  1  0  0  0  0
  1 18  1  0  0  0  0
  1 19  1  0  0  0  0
  2  3  2  0  0  0  0
  2  4  1  0  0  0  0
  4  5  1  0  0  0  0
  4 20  1  0  0  0  0
  4 21  1  0  0  0  0
  5  6  1  0  0  0  0
  5 15  1  0  0  0  0
  5 22  1  0  0  0  0
  6  7  1  0  0  0  0
  6 23  1  0  0  0  0
  7  8  2  0  0  0  0
  7  9  1  0  0  0  0
  9 10  1  0  0  0  0
  9 24  1  0  0  0  0
 10 14  1  0  0  0  0
 10 11  2  0  0  0  0
 11 12  1  0  0  0  0
 12 13  2  0  0  0  0
 13 14  1  0  0  0  0
 13 25  1  0  0  0  0
 15 17  1  0  0  0  0
 15 16  1  0  0  0  0
 15 26  1  0  0  0  0
 16 17  1  0  0  0  0
 16 27  1  0  0  0  0
 16 28  1  0  0  0  0
 17 29  1  0  0  0  0
 17 30  1  0  0  0  0
M  END
> <s_m_source_file>
AV-unprocessed.smi

> <i_m_source_file_index>
663

> <i_lp_mmshare_version>
43012

> <i_f3d_flags>
0

> <s_epik_input>
W05IMl1DKD1PKVtDSDJdW0NAQEhdKFtDSF0xW0NIMl1bQ0gyXTEpW05IXUMoPU8pW05IXWMybm5bY0hdczI=

> <s_epik_cmdline>
J2VwaWtfcHl0aG9uJywgJy1waCcsICc3LjAnLCAnLXRuJywgJzgnLCAnLW1hJywgJzIwMCcsICctbWV0YWxfYmluZGluZycsICctaW1hZScsICc8aW5maWxlLm1hZT4nLCAnLW9tYWUnLCAnPG91dGZpbGUubWFlPic=

> <r_lp_tautomer_probability>
1

> <r_epik_Ionization_Penalty>
0.000388224

> <r_epik_Ionization_Penalty_Charging>
0

> <r_epik_Ionization_Penalty_Neutral>
0.000388224

> <r_epik_State_Penalty>
-0

> <r_epik_Charging_Adjusted_Penalty>
0

> <i_epik_Tot_Q>
0

> <i_epik_Tot_abs_Q>
0

> <r_epik_Metal_State_Penalty>
0.191941

> <b_epik_Metal_Only>
0

> <s_lp_Force_Field>
OPLS_2005

> <r_lp_Energy>
6.58878

> <b_lp_Chiralities_Consistent>
1

> <s_lp_Variant>
AV-unprocessed.smi:663-1

> <Gold.Version>
5.8.1

> <Gold.Id.Protein>
6NUR|6NUR_protein|mol2

> <Gold.PLP.Fitness>
36.0845

> <Gold.PLP.PLP>
-23.4788

> <Gold.PLP.part.hbond>
-4.4404

> <Gold.PLP.part.metal>
0.0000

> <Gold.PLP.part.buried>
-0.0289

> <Gold.PLP.part.nonpolar>
-20.0355

> <Gold.PLP.part.repulsive>
1.1270

> <Gold.PLP.ligand.clash>
0.0000

> <Gold.PLP.ligand.torsion>
1.7328

> <Gold.PLP.Chemscore.Hbond>
3.9920

> <Gold.PLP.Chemscore.CHOScore>
1.0000

> <Gold.PLP.Chemscore.Metal>
0.0000

> <Gold.Chemscore.Hbonds>
donor molecule, donor type, donor heavy atom, donor atom, acceptor molecule, acceptor atom, score
      L1  H     1    19       P1 10175  1.00
      L1  H     6    23       P1  7948  0.99
      L1  H     9    24       P1  7948  1.00
      P1  H  7989  7998       L1    12  0.91
      L1  C    13    25       P1  8028  1.00

> <Gold.PLP.Chemscore.Internal.Correction>
1.0953

> <Gold.Rescore>
     Score         DG    S(hbond)    S(metal)    S(lipo)     H(rot)  DE(clash)    DE(int)     intcor
     10.87     -14.38       3.38        0.00      34.70       2.52       0.59       2.93       ----

> <Gold.Chemscore.Fitness>
10.8666

> <Gold.Chemscore.DG>
-14.3808

> <Gold.Chemscore.ZeroCoef>
-5.4800

> <Gold.Chemscore.Hbond>
3.3822

> <Gold.Chemscore.Metal>
0.0000

> <Gold.Chemscore.Lipo>
34.7034

> <Gold.Chemscore.Internal_Hbond>
0.0000

> <Gold.Chemscore.DEClash>
0.5867

> <Gold.Chemscore.DEInternal>
2.9275

> <Gold.Chemscore.Rot>
2.5218

> <Gold.Chemscore.Internal.Correction>
   9.000000E+99

> <Gold.Chemscore.Hbonds>
donor molecule, donor type, donor heavy atom, donor atom, acceptor molecule, acceptor atom, score
      L1  H     1    19       P1 10175  0.99
      L1  H     6    23       P1  7948  0.94
      L1  H     9    24       P1  7948  1.00
      P1  H  7989  7998       L1    12  0.26

> <Gold.Chemscore.Hbond.Weighted>
-11.2964

> <Gold.Chemscore.Metal.Weighted>
-0.0000

> <Gold.Chemscore.Lipo.Weighted>
-4.0603

> <Gold.Chemscore.Internal_Hbond.Weighted>
0.0000

> <Gold.Chemscore.DEClash.Weighted>
0.5867

> <Gold.Chemscore.DEInternal.Weighted>
2.9275

> <Gold.Chemscore.Rot.Weighted>
6.4559

> <Gold.Chemscore.Internal.Correction.Weighted>
   9.000000E+99

> <Gold.Protein.RotatedTorsions>
[ 6907 6896 6895 6894 ] final -171.52 input  -60.11 | X-H torsion
[ 7974 7965 7964 7962 ] final  166.64 input  175.53 | X-H torsion
[ 8008 7997 7996 7995 ] final  143.55 input   59.86 | X-H torsion
[ 10167 10162 10161 10158 ] final   51.16 input  -65.29 | X-H torsion
[ 10718 10713 10712 10709 ] final  112.12 input   66.30 | X-H torsion
[ 10763 10752 10751 10750 ] final -169.42 input  -60.55 | X-H torsion
[ 11005 11000 10999 10996 ] final   34.30 input  -57.11 | X-H torsion

> <Gold.Protein.ActiveResidues>
 VAL166  LYS551  ARG553  GLY616  TRP617  ASP618  TYR619  PRO620  LYS621  CYS622 
 ASP623  PHE694  ASN695  SER759  ASP760  ASP761  ALA762  ILE779  LEU786  VAL792 
 PHE793  MET794  SER795  GLU796  ALA797  LYS798  CYS799  TRP800  GLU811  SER814 

> <Gold.Protein.RotatedAtoms>
  151.5251  133.3459  159.2907 H   0  0  0  0  0  0  0  0  0  0  0  0  # atno 6907 bound_to 6896
  150.8628  134.7986  159.7107 H   0  0  0  0  0  0  0  0  0  0  0  0  # atno 6908 bound_to 6896
  152.4642  134.5123  159.9809 H   0  0  0  0  0  0  0  0  0  0  0  0  # atno 6909 bound_to 6896
  144.7454  139.8645  143.6383 H   0  0  0  0  0  0  0  0  0  0  0  0  # atno 7974 bound_to 7965
  156.2928  140.2259  156.4908 H   0  0  0  0  0  0  0  0  0  0  0  0  # atno 8008 bound_to 7997
  154.7772  140.0462  157.1120 H   0  0  0  0  0  0  0  0  0  0  0  0  # atno 8009 bound_to 7997
  154.9802  140.3077  155.4953 H   0  0  0  0  0  0  0  0  0  0  0  0  # atno 8010 bound_to 7997
  140.2648  144.3332  150.6307 H   0  0  0  0  0  0  0  0  0  0  0  0  # atno 10167 bound_to 10162
  157.6409  131.0962  150.6848 H   0  0  0  0  0  0  0  0  0  0  0  0  # atno 10718 bound_to 10713
  154.6525  135.2913  154.9969 H   0  0  0  0  0  0  0  0  0  0  0  0  # atno 10763 bound_to 10752
  154.1057  135.6570  153.4880 H   0  0  0  0  0  0  0  0  0  0  0  0  # atno 10764 bound_to 10752
  153.0384  135.5253  154.7439 H   0  0  0  0  0  0  0  0  0  0  0  0  # atno 10765 bound_to 10752
  140.2543  134.3266  155.7879 H   0  0  0  0  0  0  0  0  0  0  0  0  # atno 11005 bound_to 11000
  146.1324  139.4363  143.0160 LP  0  0  0  0  0  0  0  0  0  0  0  0  # atno 17320 bound_to 7965
  145.7142  141.0096  143.1437 LP  0  0  0  0  0  0  0  0  0  0  0  0  # atno 17321 bound_to 7965
  140.5937  143.2167  151.7204 LP  0  0  0  0  0  0  0  0  0  0  0  0  # atno 17342 bound_to 10162
  139.5006  144.3900  152.0289 LP  0  0  0  0  0  0  0  0  0  0  0  0  # atno 17343 bound_to 10162
  156.7172  130.4670  149.5532 LP  0  0  0  0  0  0  0  0  0  0  0  0  # atno 17370 bound_to 10713
  156.1689  130.6424  151.0813 LP  0  0  0  0  0  0  0  0  0  0  0  0  # atno 17371 bound_to 10713
  141.2198  133.7372  156.9086 LP  0  0  0  0  0  0  0  0  0  0  0  0  # atno 17394 bound_to 11000
  140.1527  134.9219  157.2613 LP  0  0  0  0  0  0  0  0  0  0  0  0  # atno 17395 bound_to 11000

$$$$
