AV-unprocessed.smi:1568|AV-procd|sdf|6310|dock9
  -GOLD-   22720 6513D 1   1.00000     0.00000
 Structure written by MMmdl.
 43 44  0  0  0  0  0  0  0  0  1 V2000
  152.4309  142.8324  160.2478 C   0  0  0  0  0  0  0  0  0  0  0  0
  152.4330  143.6541  159.0935 O   0  0  0  0  0  0  0  0  0  0  0  0
  151.4919  143.2230  158.1256 C   0  0  0  0  0  0  0  0  0  0  0  0
  151.7594  141.7569  157.7759 C   0  0  0  0  0  0  0  0  0  0  0  0
  151.1313  141.4752  156.5301 O   0  0  0  0  0  0  0  0  0  0  0  0
  151.4045  140.2775  155.8989 C   0  0  0  0  0  0  0  0  0  0  0  0
  152.4947  139.5735  156.2958 N   0  0  0  0  0  0  0  0  0  0  0  0
  152.7433  138.3850  155.7069 C   0  0  0  0  0  0  0  0  0  0  0  0
  151.9233  137.8340  154.7042 C   0  0  0  0  0  0  0  0  0  0  0  0
  150.7938  138.5636  154.2889 C   0  0  0  0  0  0  0  0  0  0  0  0
  150.5333  139.8167  154.8812 C   0  0  0  0  0  0  0  0  0  0  0  0
  149.3301  140.6089  154.4605 C   0  0  0  0  0  0  0  0  0  0  0  0
  149.4979  141.7618  154.0622 O   0  0  0  0  0  0  0  0  0  0  0  0
  148.1149  140.0081  154.5193 N   0  0  0  0  0  0  0  0  0  0  0  0
  146.9069  140.6314  153.9635 C   0  0  0  0  0  0  0  0  0  0  0  0
  146.3027  139.7024  152.8959 C   0  0  0  0  0  0  0  0  0  0  0  0
  145.9770  138.3150  153.4905 C   0  0  0  0  0  0  0  0  0  0  0  0
  145.4540  137.3575  152.4114 C   0  0  0  0  0  0  0  0  0  0  0  0
  144.3312  137.7083  151.7797 N   0  0  0  0  0  0  0  0  0  0  0  0
  146.0535  136.3169  152.1474 O   0  0  0  0  0  0  0  0  0  0  0  0
  147.2167  137.7305  154.2015 C   0  0  0  0  0  0  0  0  0  0  0  0
  147.8164  138.7374  155.2002 C   0  0  0  0  0  0  0  0  0  0  0  0
  153.1667  143.2013  160.9623 H   0  0  0  0  0  0  0  0  0  0  0  0
  152.6905  141.8027  159.9989 H   0  0  0  0  0  0  0  0  0  0  0  0
  151.4549  142.8387  160.7354 H   0  0  0  0  0  0  0  0  0  0  0  0
  150.4778  143.3351  158.5123 H   0  0  0  0  0  0  0  0  0  0  0  0
  151.5722  143.8386  157.2296 H   0  0  0  0  0  0  0  0  0  0  0  0
  152.8345  141.5829  157.7075 H   0  0  0  0  0  0  0  0  0  0  0  0
  151.3584  141.1121  158.5596 H   0  0  0  0  0  0  0  0  0  0  0  0
  153.6192  137.8542  156.0496 H   0  0  0  0  0  0  0  0  0  0  0  0
  152.1554  136.8754  154.2645 H   0  0  0  0  0  0  0  0  0  0  0  0
  150.1447  138.1685  153.5208 H   0  0  0  0  0  0  0  0  0  0  0  0
  146.1881  140.8041  154.7658 H   0  0  0  0  0  0  0  0  0  0  0  0
  147.1003  141.6079  153.5177 H   0  0  0  0  0  0  0  0  0  0  0  0
  145.3999  140.1552  152.4841 H   0  0  0  0  0  0  0  0  0  0  0  0
  147.0066  139.6051  152.0672 H   0  0  0  0  0  0  0  0  0  0  0  0
  145.1949  138.4508  154.2398 H   0  0  0  0  0  0  0  0  0  0  0  0
  143.9481  137.1112  151.0614 H   0  0  0  0  0  0  0  0  0  0  0  0
  143.8689  138.5724  152.0236 H   0  0  0  0  0  0  0  0  0  0  0  0
  146.9478  136.8129  154.7263 H   0  0  0  0  0  0  0  0  0  0  0  0
  147.9747  137.4512  153.4711 H   0  0  0  0  0  0  0  0  0  0  0  0
  148.6793  138.2921  155.6934 H   0  0  0  0  0  0  0  0  0  0  0  0
  147.0986  138.9332  155.9979 H   0  0  0  0  0  0  0  0  0  0  0  0
  1  2  1  0  0  0  0
  1 23  1  0  0  0  0
  1 24  1  0  0  0  0
  1 25  1  0  0  0  0
  2  3  1  0  0  0  0
  3  4  1  0  0  0  0
  3 26  1  0  0  0  0
  3 27  1  0  0  0  0
  4  5  1  0  0  0  0
  4 28  1  0  0  0  0
  4 29  1  0  0  0  0
  5  6  1  0  0  0  0
  6 11  1  0  0  0  0
  6  7  2  0  0  0  0
  7  8  1  0  0  0  0
  8  9  2  0  0  0  0
  8 30  1  0  0  0  0
  9 10  1  0  0  0  0
  9 31  1  0  0  0  0
 10 11  2  0  0  0  0
 10 32  1  0  0  0  0
 11 12  1  0  0  0  0
 12 13  2  0  0  0  0
 12 14  1  0  0  0  0
 14 22  1  0  0  0  0
 14 15  1  0  0  0  0
 15 16  1  0  0  0  0
 15 33  1  0  0  0  0
 15 34  1  0  0  0  0
 16 17  1  0  0  0  0
 16 35  1  0  0  0  0
 16 36  1  0  0  0  0
 17 18  1  0  0  0  0
 17 21  1  0  0  0  0
 17 37  1  0  0  0  0
 18 19  1  0  0  0  0
 18 20  2  0  0  0  0
 19 38  1  0  0  0  0
 19 39  1  0  0  0  0
 21 22  1  0  0  0  0
 21 40  1  0  0  0  0
 21 41  1  0  0  0  0
 22 42  1  0  0  0  0
 22 43  1  0  0  0  0
M  END
> <s_m_source_file>
AV-unprocessed.smi

> <i_m_source_file_index>
1568

> <i_lp_mmshare_version>
43012

> <i_f3d_flags>
0

> <s_epik_input>
W0NIM11PW0NIMl1bQ0gyXU9jMW5bY0hdW2NIXVtjSF1jMUMoPU8pTjJbQ0gyXVtDSDJdW0NIXShDKD1PKVtOSDJdKVtDSDJdW0NIMl0y

> <s_epik_cmdline>
J2VwaWtfcHl0aG9uJywgJy1waCcsICc3LjAnLCAnLXRuJywgJzgnLCAnLW1hJywgJzIwMCcsICctbWV0YWxfYmluZGluZycsICctaW1hZScsICc8aW5maWxlLm1hZT4nLCAnLW9tYWUnLCAnPG91dGZpbGUubWFlPic=

> <r_lp_tautomer_probability>
1

> <r_epik_Ionization_Penalty>
2.36279e-06

> <r_epik_Ionization_Penalty_Charging>
0

> <r_epik_Ionization_Penalty_Neutral>
2.36279e-06

> <r_epik_State_Penalty>
-0

> <r_epik_Charging_Adjusted_Penalty>
0

> <i_epik_Tot_Q>
0

> <i_epik_Tot_abs_Q>
0

> <r_epik_Metal_State_Penalty>
-0

> <b_epik_Metal_Only>
0

> <s_lp_Force_Field>
OPLS_2005

> <r_lp_Energy>
28.0257

> <b_lp_Chiralities_Consistent>
1

> <s_lp_Variant>
AV-unprocessed.smi:1568-1

> <Gold.Version>
5.8.1

> <Gold.Id.Protein>
6NUR|6NUR_protein|mol2

> <Gold.PLP.Fitness>
40.7922

> <Gold.PLP.PLP>
-34.0918

> <Gold.PLP.part.hbond>
-4.6971

> <Gold.PLP.part.metal>
0.0000

> <Gold.PLP.part.buried>
-0.7115

> <Gold.PLP.part.nonpolar>
-29.1224

> <Gold.PLP.part.repulsive>
1.1990

> <Gold.PLP.ligand.clash>
0.0000

> <Gold.PLP.ligand.torsion>
1.4361

> <Gold.PLP.Chemscore.Hbond>
2.5626

> <Gold.PLP.Chemscore.CHOScore>
0.0000

> <Gold.PLP.Chemscore.Metal>
0.0000

> <Gold.Chemscore.Hbonds>
donor molecule, donor type, donor heavy atom, donor atom, acceptor molecule, acceptor atom, score
      L1  H    19    39       P1 10175  1.00
      P1  H  7997  8009       L1     7  0.85
      P1  H  8011  8017       L1    13  0.53

> <Gold.PLP.Chemscore.Internal.Correction>
1.8849

> <Gold.Rescore>
     Score         DG    S(hbond)    S(metal)    S(lipo)     H(rot)  DE(clash)    DE(int)     intcor
     10.98     -15.98       1.98        0.00      81.64       2.21       2.44       2.56       ----

> <Gold.Chemscore.Fitness>
10.9841

> <Gold.Chemscore.DG>
-15.9807

> <Gold.Chemscore.ZeroCoef>
-5.4800

> <Gold.Chemscore.Hbond>
1.9817

> <Gold.Chemscore.Metal>
0.0000

> <Gold.Chemscore.Lipo>
81.6382

> <Gold.Chemscore.Internal_Hbond>
0.0000

> <Gold.Chemscore.DEClash>
2.4378

> <Gold.Chemscore.DEInternal>
2.5588

> <Gold.Chemscore.Rot>
2.2148

> <Gold.Chemscore.Internal.Correction>
   9.000000E+99

> <Gold.Chemscore.Hbonds>
donor molecule, donor type, donor heavy atom, donor atom, acceptor molecule, acceptor atom, score
      L1  H    19    38       P1 10171  0.01
      L1  H    19    39       P1 10175  0.99
      P1  H  7997  8009       L1     7  0.14
      P1  H  8011  8017       L1    13  0.52

> <Gold.Chemscore.Hbond.Weighted>
-6.6188

> <Gold.Chemscore.Metal.Weighted>
-0.0000

> <Gold.Chemscore.Lipo.Weighted>
-9.5517

> <Gold.Chemscore.Internal_Hbond.Weighted>
0.0000

> <Gold.Chemscore.DEClash.Weighted>
2.4378

> <Gold.Chemscore.DEInternal.Weighted>
2.5588

> <Gold.Chemscore.Rot.Weighted>
5.6698

> <Gold.Chemscore.Internal.Correction.Weighted>
   9.000000E+99

> <Gold.Protein.RotatedTorsions>
[ 6907 6896 6895 6894 ] final  -74.76 input  -60.11 | X-H torsion
[ 7974 7965 7964 7962 ] final   45.96 input  175.53 | X-H torsion
[ 8008 7997 7996 7995 ] final -177.15 input   59.86 | X-H torsion
[ 10167 10162 10161 10158 ] final  -58.37 input  -65.29 | X-H torsion
[ 10718 10713 10712 10709 ] final -147.80 input   66.30 | X-H torsion
[ 10763 10752 10751 10750 ] final -146.55 input  -60.55 | X-H torsion
[ 11005 11000 10999 10996 ] final  -40.24 input  -57.11 | X-H torsion

> <Gold.Protein.ActiveResidues>
 VAL166  LYS551  ARG553  GLY616  TRP617  ASP618  TYR619  PRO620  LYS621  CYS622 
 ASP623  PHE694  ASN695  SER759  ASP760  ASP761  ALA762  ILE779  LEU786  VAL792 
 PHE793  MET794  SER795  GLU796  ALA797  LYS798  CYS799  TRP800  GLU811  SER814 

> <Gold.Protein.RotatedAtoms>
  150.7082  134.4821  159.5474 H   0  0  0  0  0  0  0  0  0  0  0  0  # atno 6907 bound_to 6896
  152.2456  134.8182  160.0463 H   0  0  0  0  0  0  0  0  0  0  0  0  # atno 6908 bound_to 6896
  151.8948  133.3489  159.3847 H   0  0  0  0  0  0  0  0  0  0  0  0  # atno 6909 bound_to 6896
  146.0433  139.4907  142.9764 H   0  0  0  0  0  0  0  0  0  0  0  0  # atno 7974 bound_to 7965
  156.0035  140.1225  157.0524 H   0  0  0  0  0  0  0  0  0  0  0  0  # atno 8008 bound_to 7997
  154.4250  140.1102  156.5799 H   0  0  0  0  0  0  0  0  0  0  0  0  # atno 8009 bound_to 7997
  155.6179  140.3472  155.4645 H   0  0  0  0  0  0  0  0  0  0  0  0  # atno 8010 bound_to 7997
  140.6201  143.2416  151.5500 H   0  0  0  0  0  0  0  0  0  0  0  0  # atno 10167 bound_to 10162
  156.4121  130.7986  151.2204 H   0  0  0  0  0  0  0  0  0  0  0  0  # atno 10718 bound_to 10713
  154.8330  135.3383  154.6678 H   0  0  0  0  0  0  0  0  0  0  0  0  # atno 10763 bound_to 10752
  153.7296  135.6953  153.4997 H   0  0  0  0  0  0  0  0  0  0  0  0  # atno 10764 bound_to 10752
  153.2322  135.4412  155.0559 H   0  0  0  0  0  0  0  0  0  0  0  0  # atno 10765 bound_to 10752
  141.0160  133.6885  156.2294 H   0  0  0  0  0  0  0  0  0  0  0  0  # atno 11005 bound_to 11000
  145.6848  141.0181  143.1587 LP  0  0  0  0  0  0  0  0  0  0  0  0  # atno 17320 bound_to 7965
  144.7085  139.8464  143.7422 LP  0  0  0  0  0  0  0  0  0  0  0  0  # atno 17321 bound_to 7965
  139.5432  144.2592  152.1391 LP  0  0  0  0  0  0  0  0  0  0  0  0  # atno 17342 bound_to 10162
  140.1810  144.4844  150.6528 LP  0  0  0  0  0  0  0  0  0  0  0  0  # atno 17343 bound_to 10162
  157.7507  131.0254  150.3919 LP  0  0  0  0  0  0  0  0  0  0  0  0  # atno 17370 bound_to 10713
  156.4219  130.3954  149.6819 LP  0  0  0  0  0  0  0  0  0  0  0  0  # atno 17371 bound_to 10713
  140.6654  134.4924  157.5585 LP  0  0  0  0  0  0  0  0  0  0  0  0  # atno 17394 bound_to 11000
  139.9117  134.8330  156.1504 LP  0  0  0  0  0  0  0  0  0  0  0  0  # atno 17395 bound_to 11000

$$$$
