AV-unprocessed.smi:2580|AV-procd|sdf|10130|dock6
  -GOLD-   2272014143D 1   1.00000     0.00000
 Structure written by MMmdl.
 29 30  0  0  0  0  0  0  0  0  1 V2000
  149.4637  141.2325  154.8531 C   0  0  0  0  0  0  0  0  0  0  0  0
  150.3460  140.1918  155.5610 C   0  0  1  0  0  0  0  0  0  0  0  0
  150.9847  139.1956  154.6148 C   0  0  0  0  0  0  0  0  0  0  0  0
  152.1171  138.6313  155.4651 C   0  0  0  0  0  0  0  0  0  0  0  0
  152.5255  139.6941  156.3203 O   0  0  0  0  0  0  0  0  0  0  0  0
  151.5837  140.7676  156.2687 C   0  0  2  0  0  0  0  0  0  0  0  0
  151.3340  141.3162  157.6825 C   0  0  0  0  0  0  0  0  0  0  0  0
  150.1987  141.2954  158.1587 O   0  0  0  0  0  0  0  0  0  0  0  0
  152.4138  141.8124  158.3154 N   0  0  0  0  0  0  0  0  0  0  0  0
  152.5000  142.3831  159.6148 C   0  0  0  0  0  0  0  0  0  0  0  0
  152.8812  141.6765  160.7090 N   0  0  0  0  0  0  0  0  0  0  0  0
  152.9376  142.2909  161.9087 C   0  0  0  0  0  0  0  0  0  0  0  0
  152.6174  143.6476  162.0934 C   0  0  0  0  0  0  0  0  0  0  0  0
  152.2198  144.3924  160.9693 C   0  0  0  0  0  0  0  0  0  0  0  0
  152.1591  143.7564  159.7134 C   0  0  0  0  0  0  0  0  0  0  0  0
  151.6703  144.6711  158.3284 Cl  0  0  0  0  0  0  0  0  0  0  0  0
  150.0338  141.8067  154.1222 H   0  0  0  0  0  0  0  0  0  0  0  0
  149.0306  141.9370  155.5630 H   0  0  0  0  0  0  0  0  0  0  0  0
  148.6404  140.7492  154.3269 H   0  0  0  0  0  0  0  0  0  0  0  0
  149.7373  139.6409  156.2807 H   0  0  0  0  0  0  0  0  0  0  0  0
  150.2921  138.4285  154.2672 H   0  0  0  0  0  0  0  0  0  0  0  0
  151.3944  139.7066  153.7421 H   0  0  0  0  0  0  0  0  0  0  0  0
  151.7545  137.8096  156.0838 H   0  0  0  0  0  0  0  0  0  0  0  0
  152.9473  138.2620  154.8628 H   0  0  0  0  0  0  0  0  0  0  0  0
  152.0234  141.5588  155.6595 H   0  0  0  0  0  0  0  0  0  0  0  0
  153.2848  141.7631  157.8062 H   0  0  0  0  0  0  0  0  0  0  0  0
  153.2465  141.6823  162.7456 H   0  0  0  0  0  0  0  0  0  0  0  0
  152.6748  144.1037  163.0706 H   0  0  0  0  0  0  0  0  0  0  0  0
  151.9649  145.4372  161.0692 H   0  0  0  0  0  0  0  0  0  0  0  0
  1  2  1  0  0  0  0
  1 17  1  0  0  0  0
  1 18  1  0  0  0  0
  1 19  1  0  0  0  0
  2  6  1  0  0  0  0
  2  3  1  0  0  0  0
  2 20  1  0  0  0  0
  3  4  1  0  0  0  0
  3 21  1  0  0  0  0
  3 22  1  0  0  0  0
  4  5  1  0  0  0  0
  4 23  1  0  0  0  0
  4 24  1  0  0  0  0
  5  6  1  0  0  0  0
  6  7  1  0  0  0  0
  6 25  1  0  0  0  0
  7  8  2  0  0  0  0
  7  9  1  0  0  0  0
  9 10  1  0  0  0  0
  9 26  1  0  0  0  0
 10 15  1  0  0  0  0
 10 11  2  0  0  0  0
 11 12  1  0  0  0  0
 12 13  2  0  0  0  0
 12 27  1  0  0  0  0
 13 14  1  0  0  0  0
 13 28  1  0  0  0  0
 14 15  2  0  0  0  0
 14 29  1  0  0  0  0
 15 16  1  0  0  0  0
M  END
> <s_m_source_file>
AV-unprocessed.smi

> <i_m_source_file_index>
2580

> <i_lp_mmshare_version>
43012

> <i_f3d_flags>
0

> <s_epik_input>
W0NIM11bQ0BASF0xW0NIMl1bQ0gyXU9bQ0BIXTFDKD1PKVtOSF1jMm5bY0hdW2NIXVtjSF1jMkNs

> <s_epik_cmdline>
J2VwaWtfcHl0aG9uJywgJy1waCcsICc3LjAnLCAnLXRuJywgJzgnLCAnLW1hJywgJzIwMCcsICctbWV0YWxfYmluZGluZycsICctaW1hZScsICc8aW5maWxlLm1hZT4nLCAnLW9tYWUnLCAnPG91dGZpbGUubWFlPic=

> <r_lp_tautomer_probability>
1

> <r_epik_Ionization_Penalty>
4.32497e-05

> <r_epik_Ionization_Penalty_Charging>
0

> <r_epik_Ionization_Penalty_Neutral>
4.32497e-05

> <r_epik_State_Penalty>
-0

> <r_epik_Charging_Adjusted_Penalty>
0

> <i_epik_Tot_Q>
0

> <i_epik_Tot_abs_Q>
0

> <r_epik_Metal_State_Penalty>
-0

> <b_epik_Metal_Only>
0

> <s_lp_Force_Field>
OPLS_2005

> <r_lp_Energy>
21.1194

> <b_lp_Chiralities_Consistent>
1

> <s_lp_Variant>
AV-unprocessed.smi:2580-4

> <Gold.Version>
5.8.1

> <Gold.Id.Protein>
6NUR|6NUR_protein|mol2

> <Gold.PLP.Fitness>
42.4801

> <Gold.PLP.PLP>
-40.9635

> <Gold.PLP.part.hbond>
-1.0000

> <Gold.PLP.part.metal>
0.0000

> <Gold.PLP.part.buried>
-2.8762

> <Gold.PLP.part.nonpolar>
-35.4585

> <Gold.PLP.part.repulsive>
0.1168

> <Gold.PLP.ligand.clash>
0.0000

> <Gold.PLP.ligand.torsion>
0.7426

> <Gold.PLP.Chemscore.Hbond>
1.0000

> <Gold.PLP.Chemscore.CHOScore>
0.0000

> <Gold.PLP.Chemscore.Metal>
0.0000

> <Gold.Chemscore.Hbonds>
donor molecule, donor type, donor heavy atom, donor atom, acceptor molecule, acceptor atom, score
      P1  H  7997  8010       L1     5  1.00

> <Gold.PLP.Chemscore.Internal.Correction>
0.0017

> <Gold.Rescore>
     Score         DG    S(hbond)    S(metal)    S(lipo)     H(rot)  DE(clash)    DE(int)     intcor
     16.67     -17.46       0.92        0.00      97.92       1.00       0.06       0.74       ----

> <Gold.Chemscore.Fitness>
16.6691

> <Gold.Chemscore.DG>
-17.4632

> <Gold.Chemscore.ZeroCoef>
-5.4800

> <Gold.Chemscore.Hbond>
0.9242

> <Gold.Chemscore.Metal>
0.0000

> <Gold.Chemscore.Lipo>
97.9182

> <Gold.Chemscore.Internal_Hbond>
0.0000

> <Gold.Chemscore.DEClash>
0.0561

> <Gold.Chemscore.DEInternal>
0.7380

> <Gold.Chemscore.Rot>
1.0000

> <Gold.Chemscore.Internal.Correction>
   9.000000E+99

> <Gold.Chemscore.Hbonds>
donor molecule, donor type, donor heavy atom, donor atom, acceptor molecule, acceptor atom, score
      P1  H  7997  8010       L1     5  0.83

> <Gold.Chemscore.Hbond.Weighted>
-3.0868

> <Gold.Chemscore.Metal.Weighted>
-0.0000

> <Gold.Chemscore.Lipo.Weighted>
-11.4564

> <Gold.Chemscore.Internal_Hbond.Weighted>
0.0000

> <Gold.Chemscore.DEClash.Weighted>
0.0561

> <Gold.Chemscore.DEInternal.Weighted>
0.7380

> <Gold.Chemscore.Rot.Weighted>
2.5600

> <Gold.Chemscore.Internal.Correction.Weighted>
   9.000000E+99

> <Gold.Protein.RotatedTorsions>
[ 6907 6896 6895 6894 ] final   -6.50 input  -60.11 | X-H torsion
[ 7974 7965 7964 7962 ] final  -40.12 input  175.53 | X-H torsion
[ 8008 7997 7996 7995 ] final   87.73 input   59.86 | X-H torsion
[ 10167 10162 10161 10158 ] final  132.53 input  -65.29 | X-H torsion
[ 10718 10713 10712 10709 ] final   22.38 input   66.30 | X-H torsion
[ 10763 10752 10751 10750 ] final -170.52 input  -60.55 | X-H torsion
[ 11005 11000 10999 10996 ] final  -14.22 input  -57.11 | X-H torsion

> <Gold.Protein.ActiveResidues>
 VAL166  LYS551  ARG553  GLY616  TRP617  ASP618  TYR619  PRO620  LYS621  CYS622 
 ASP623  PHE694  ASN695  SER759  ASP760  ASP761  ALA762  ILE779  LEU786  VAL792 
 PHE793  MET794  SER795  GLU796  ALA797  LYS798  CYS799  TRP800  GLU811  SER814 

> <Gold.Protein.RotatedAtoms>
  151.4646  135.1041  159.9734 H   0  0  0  0  0  0  0  0  0  0  0  0  # atno 6907 bound_to 6896
  152.4840  133.8321  159.7119 H   0  0  0  0  0  0  0  0  0  0  0  0  # atno 6908 bound_to 6896
  150.8933  133.7153  159.2925 H   0  0  0  0  0  0  0  0  0  0  0  0  # atno 6909 bound_to 6896
  146.0334  140.6703  142.9122 H   0  0  0  0  0  0  0  0  0  0  0  0  # atno 7974 bound_to 7965
  155.9790  140.3379  155.6646 H   0  0  0  0  0  0  0  0  0  0  0  0  # atno 8008 bound_to 7997
  155.6573  140.0712  157.2584 H   0  0  0  0  0  0  0  0  0  0  0  0  # atno 8009 bound_to 7997
  154.4187  140.1715  156.1726 H   0  0  0  0  0  0  0  0  0  0  0  0  # atno 8010 bound_to 7997
  139.5336  144.6658  151.4865 H   0  0  0  0  0  0  0  0  0  0  0  0  # atno 10167 bound_to 10162
  157.1515  130.6677  149.6013 H   0  0  0  0  0  0  0  0  0  0  0  0  # atno 10718 bound_to 10713
  154.6405  135.2898  155.0109 H   0  0  0  0  0  0  0  0  0  0  0  0  # atno 10763 bound_to 10752
  154.1237  135.6544  153.4912 H   0  0  0  0  0  0  0  0  0  0  0  0  # atno 10764 bound_to 10752
  153.0324  135.5294  154.7270 H   0  0  0  0  0  0  0  0  0  0  0  0  # atno 10765 bound_to 10752
  140.7842  133.8339  155.9319 H   0  0  0  0  0  0  0  0  0  0  0  0  # atno 11005 bound_to 11000
  144.7040  140.3776  143.7133 LP  0  0  0  0  0  0  0  0  0  0  0  0  # atno 17320 bound_to 7965
  145.7004  139.1660  143.2596 LP  0  0  0  0  0  0  0  0  0  0  0  0  # atno 17321 bound_to 7965
  140.6529  143.8660  150.6804 LP  0  0  0  0  0  0  0  0  0  0  0  0  # atno 17342 bound_to 10162
  140.2030  143.3944  152.1777 LP  0  0  0  0  0  0  0  0  0  0  0  0  # atno 17343 bound_to 10162
  155.9769  130.4743  150.6562 LP  0  0  0  0  0  0  0  0  0  0  0  0  # atno 17370 bound_to 10713
  157.4216  131.0837  151.1125 LP  0  0  0  0  0  0  0  0  0  0  0  0  # atno 17371 bound_to 10713
  140.9453  134.1848  157.4768 LP  0  0  0  0  0  0  0  0  0  0  0  0  # atno 17394 bound_to 11000
  139.8739  134.9888  156.5428 LP  0  0  0  0  0  0  0  0  0  0  0  0  # atno 17395 bound_to 11000

$$$$
