AV-unprocessed.smi:2275|AV-procd|sdf|9171|dock9
  -GOLD-   2272012383D 1   1.00000     0.00000
 Structure written by MMmdl.
 38 39  0  0  0  0  0  0  0  0  1 V2000
  152.5051  143.7298  161.6604 C   0  0  0  0  0  0  0  0  0  0  0  0
  152.1970  143.1612  160.2866 C   0  0  0  0  0  0  0  0  0  0  0  0
  151.3353  143.9267  159.4954 N   0  0  0  0  0  0  0  0  0  0  0  0
  151.0219  143.5236  158.3074 C   0  0  0  0  0  0  0  0  0  0  0  0
  151.5299  142.3271  157.7768 N   0  0  0  0  0  0  0  0  0  0  0  0
  151.1027  141.9873  156.4098 C   0  0  0  0  0  0  0  0  0  0  0  0
  149.6903  141.3613  156.3809 C   0  0  1  0  0  0  0  0  0  0  0  0
  148.7187  142.3227  156.7399 O   0  0  0  0  0  0  0  0  0  0  0  0
  149.3069  140.8013  155.0010 C   0  0  0  0  0  0  0  0  0  0  0  0
  150.4043  140.0850  154.4470 O   0  0  0  0  0  0  0  0  0  0  0  0
  151.0548  139.1670  155.2430 C   0  0  0  0  0  0  0  0  0  0  0  0
  152.4256  138.9567  154.9864 C   0  0  0  0  0  0  0  0  0  0  0  0
  153.1698  138.0375  155.7503 C   0  0  0  0  0  0  0  0  0  0  0  0
  152.5467  137.3159  156.7850 C   0  0  0  0  0  0  0  0  0  0  0  0
  151.1795  137.5152  157.0521 C   0  0  0  0  0  0  0  0  0  0  0  0
  150.4350  138.4346  156.2873 C   0  0  0  0  0  0  0  0  0  0  0  0
  152.3582  141.5095  158.4890 C   0  0  0  0  0  0  0  0  0  0  0  0
  152.7740  140.4463  158.0243 O   0  0  0  0  0  0  0  0  0  0  0  0
  152.7134  141.9855  159.8357 C   0  0  0  0  0  0  0  0  0  0  0  0
  153.6571  141.1104  160.6511 C   0  0  0  0  0  0  0  0  0  0  0  0
  153.5712  143.9351  161.7578 H   0  0  0  0  0  0  0  0  0  0  0  0
  152.2114  143.0265  162.4400 H   0  0  0  0  0  0  0  0  0  0  0  0
  151.9678  144.6628  161.8348 H   0  0  0  0  0  0  0  0  0  0  0  0
  150.3487  144.0794  157.6522 H   0  0  0  0  0  0  0  0  0  0  0  0
  151.1564  142.8466  155.7378 H   0  0  0  0  0  0  0  0  0  0  0  0
  151.8202  141.2791  155.9913 H   0  0  0  0  0  0  0  0  0  0  0  0
  149.6220  140.5449  157.1011 H   0  0  0  0  0  0  0  0  0  0  0  0
  148.9385  143.1403  156.3196 H   0  0  0  0  0  0  0  0  0  0  0  0
  148.4636  140.1202  155.1266 H   0  0  0  0  0  0  0  0  0  0  0  0
  148.9859  141.6062  154.3371 H   0  0  0  0  0  0  0  0  0  0  0  0
  152.9122  139.5064  154.1940 H   0  0  0  0  0  0  0  0  0  0  0  0
  154.2187  137.8863  155.5419 H   0  0  0  0  0  0  0  0  0  0  0  0
  153.1160  136.6105  157.3722 H   0  0  0  0  0  0  0  0  0  0  0  0
  150.6999  136.9616  157.8458 H   0  0  0  0  0  0  0  0  0  0  0  0
  149.3892  138.5599  156.5228 H   0  0  0  0  0  0  0  0  0  0  0  0
  153.2115  140.1287  160.8151 H   0  0  0  0  0  0  0  0  0  0  0  0
  153.8971  141.5298  161.6267 H   0  0  0  0  0  0  0  0  0  0  0  0
  154.5967  140.9702  160.1155 H   0  0  0  0  0  0  0  0  0  0  0  0
  1  2  1  0  0  0  0
  1 21  1  0  0  0  0
  1 22  1  0  0  0  0
  1 23  1  0  0  0  0
  2 19  2  0  0  0  0
  2  3  1  0  0  0  0
  3  4  2  0  0  0  0
  4  5  1  0  0  0  0
  4 24  1  0  0  0  0
  5  6  1  0  0  0  0
  5 17  1  0  0  0  0
  6  7  1  0  0  0  0
  6 25  1  0  0  0  0
  6 26  1  0  0  0  0
  7  8  1  0  0  0  0
  7  9  1  0  0  0  0
  7 27  1  0  0  0  0
  8 28  1  0  0  0  0
  9 10  1  0  0  0  0
  9 29  1  0  0  0  0
  9 30  1  0  0  0  0
 10 11  1  0  0  0  0
 11 16  1  0  0  0  0
 11 12  2  0  0  0  0
 12 13  1  0  0  0  0
 12 31  1  0  0  0  0
 13 14  2  0  0  0  0
 13 32  1  0  0  0  0
 14 15  1  0  0  0  0
 14 33  1  0  0  0  0
 15 16  2  0  0  0  0
 15 34  1  0  0  0  0
 16 35  1  0  0  0  0
 17 18  2  0  0  0  0
 17 19  1  0  0  0  0
 19 20  1  0  0  0  0
 20 36  1  0  0  0  0
 20 37  1  0  0  0  0
 20 38  1  0  0  0  0
M  END
> <s_m_source_file>
AV-unprocessed.smi

> <i_m_source_file_index>
2275

> <i_lp_mmshare_version>
43012

> <i_f3d_flags>
0

> <s_epik_input>
W0NIM11jMW5bY0hdbihjKD1PKWMxW0NIM10pW0NIMl1bQ0BIXShbT0hdKVtDSDJdT2MyW2NIXVtjSF1bY0hdW2NIXVtjSF0y

> <s_epik_cmdline>
J2VwaWtfcHl0aG9uJywgJy1waCcsICc3LjAnLCAnLXRuJywgJzgnLCAnLW1hJywgJzIwMCcsICctbWV0YWxfYmluZGluZycsICctaW1hZScsICc8aW5maWxlLm1hZT4nLCAnLW9tYWUnLCAnPG91dGZpbGUubWFlPic=

> <r_lp_tautomer_probability>
1

> <r_epik_Ionization_Penalty>
4.18311e-05

> <r_epik_Ionization_Penalty_Charging>
1.04093e-07

> <r_epik_Ionization_Penalty_Neutral>
4.1727e-05

> <r_epik_State_Penalty>
-0

> <r_epik_Charging_Adjusted_Penalty>
1.04093e-07

> <i_epik_Tot_Q>
0

> <i_epik_Tot_abs_Q>
0

> <r_epik_Metal_State_Penalty>
-0

> <b_epik_Metal_Only>
0

> <s_lp_Force_Field>
OPLS_2005

> <r_lp_Energy>
23.5562

> <b_lp_Chiralities_Consistent>
1

> <s_lp_Variant>
AV-unprocessed.smi:2275-2

> <Gold.Version>
5.8.1

> <Gold.Id.Protein>
6NUR|6NUR_protein|mol2

> <Gold.PLP.Fitness>
49.2919

> <Gold.PLP.PLP>
-39.5254

> <Gold.PLP.part.hbond>
-3.0000

> <Gold.PLP.part.metal>
0.0000

> <Gold.PLP.part.buried>
-4.3000

> <Gold.PLP.part.nonpolar>
-30.9398

> <Gold.PLP.part.repulsive>
0.1587

> <Gold.PLP.ligand.clash>
0.0000

> <Gold.PLP.ligand.torsion>
0.8503

> <Gold.PLP.Chemscore.Hbond>
2.7992

> <Gold.PLP.Chemscore.CHOScore>
1.0000

> <Gold.PLP.Chemscore.Metal>
0.0000

> <Gold.Chemscore.Hbonds>
donor molecule, donor type, donor heavy atom, donor atom, acceptor molecule, acceptor atom, score
      L1  H     8    28       P1  8028  1.00
      P1  H  7989  7998       L1    10  1.00
      P1  H  7997  8009       L1    18  0.76
      L1  C     4    24       P1  8028  1.00

> <Gold.PLP.Chemscore.Internal.Correction>
0.0694

> <Gold.Rescore>
     Score         DG    S(hbond)    S(metal)    S(lipo)     H(rot)  DE(clash)    DE(int)     intcor
     18.78     -20.07       2.71        0.00      99.43       2.38       0.41       0.88       ----

> <Gold.Chemscore.Fitness>
18.7846

> <Gold.Chemscore.DG>
-20.0729

> <Gold.Chemscore.ZeroCoef>
-5.4800

> <Gold.Chemscore.Hbond>
2.7124

> <Gold.Chemscore.Metal>
0.0000

> <Gold.Chemscore.Lipo>
99.4273

> <Gold.Chemscore.Internal_Hbond>
0.0000

> <Gold.Chemscore.DEClash>
0.4053

> <Gold.Chemscore.DEInternal>
0.8831

> <Gold.Chemscore.Rot>
2.3826

> <Gold.Chemscore.Internal.Correction>
   9.000000E+99

> <Gold.Chemscore.Hbonds>
donor molecule, donor type, donor heavy atom, donor atom, acceptor molecule, acceptor atom, score
      L1  H     8    28       P1  8028  0.99
      P1  H  7989  7998       L1    10  0.59
      P1  H  7997  8009       L1    18  0.71

> <Gold.Chemscore.Hbond.Weighted>
-9.0595

> <Gold.Chemscore.Metal.Weighted>
-0.0000

> <Gold.Chemscore.Lipo.Weighted>
-11.6330

> <Gold.Chemscore.Internal_Hbond.Weighted>
0.0000

> <Gold.Chemscore.DEClash.Weighted>
0.4053

> <Gold.Chemscore.DEInternal.Weighted>
0.8831

> <Gold.Chemscore.Rot.Weighted>
6.0996

> <Gold.Chemscore.Internal.Correction.Weighted>
   9.000000E+99

> <Gold.Protein.RotatedTorsions>
[ 6907 6896 6895 6894 ] final  -76.44 input  -60.11 | X-H torsion
[ 7974 7965 7964 7962 ] final  -21.10 input  175.53 | X-H torsion
[ 8008 7997 7996 7995 ] final  163.24 input   59.86 | X-H torsion
[ 10167 10162 10161 10158 ] final  -17.00 input  -65.29 | X-H torsion
[ 10718 10713 10712 10709 ] final   -1.07 input   66.30 | X-H torsion
[ 10763 10752 10751 10750 ] final  -99.13 input  -60.55 | X-H torsion
[ 11005 11000 10999 10996 ] final -118.81 input  -57.11 | X-H torsion

> <Gold.Protein.ActiveResidues>
 VAL166  LYS551  ARG553  GLY616  TRP617  ASP618  TYR619  PRO620  LYS621  CYS622 
 ASP623  PHE694  ASN695  SER759  ASP760  ASP761  ALA762  ILE779  LEU786  VAL792 
 PHE793  MET794  SER795  GLU796  ALA797  LYS798  CYS799  TRP800  GLU811  SER814 

> <Gold.Protein.RotatedAtoms>
  150.7027  134.4571  159.5363 H   0  0  0  0  0  0  0  0  0  0  0  0  # atno 6907 bound_to 6896
  152.2253  134.8371  160.0490 H   0  0  0  0  0  0  0  0  0  0  0  0  # atno 6908 bound_to 6896
  151.9207  133.3550  159.3932 H   0  0  0  0  0  0  0  0  0  0  0  0  # atno 6909 bound_to 6896
  146.1752  140.4294  142.8516 H   0  0  0  0  0  0  0  0  0  0  0  0  # atno 7974 bound_to 7965
  156.1972  140.1729  156.7974 H   0  0  0  0  0  0  0  0  0  0  0  0  # atno 8008 bound_to 7997
  154.5545  140.0711  156.8752 H   0  0  0  0  0  0  0  0  0  0  0  0  # atno 8009 bound_to 7997
  155.2965  140.3359  155.4252 H   0  0  0  0  0  0  0  0  0  0  0  0  # atno 8010 bound_to 7997
  140.7241  143.5060  150.9809 H   0  0  0  0  0  0  0  0  0  0  0  0  # atno 10167 bound_to 10162
  156.8111  130.5425  149.5709 H   0  0  0  0  0  0  0  0  0  0  0  0  # atno 10718 bound_to 10713
  154.7472  135.4983  153.9225 H   0  0  0  0  0  0  0  0  0  0  0  0  # atno 10763 bound_to 10752
  153.1105  135.6708  153.9517 H   0  0  0  0  0  0  0  0  0  0  0  0  # atno 10764 bound_to 10752
  153.9278  135.3081  155.3425 H   0  0  0  0  0  0  0  0  0  0  0  0  # atno 10765 bound_to 10752
  141.0260  134.0053  157.3214 H   0  0  0  0  0  0  0  0  0  0  0  0  # atno 11005 bound_to 11000
  144.8224  140.6573  143.6344 LP  0  0  0  0  0  0  0  0  0  0  0  0  # atno 17320 bound_to 7965
  145.4232  139.1560  143.4063 LP  0  0  0  0  0  0  0  0  0  0  0  0  # atno 17321 bound_to 7965
  139.8771  143.7118  152.3161 LP  0  0  0  0  0  0  0  0  0  0  0  0  # atno 17342 bound_to 10162
  139.7388  144.7565  151.0686 LP  0  0  0  0  0  0  0  0  0  0  0  0  # atno 17343 bound_to 10162
  156.1044  130.5993  150.9946 LP  0  0  0  0  0  0  0  0  0  0  0  0  # atno 17370 bound_to 10713
  157.6505  131.0897  150.8060 LP  0  0  0  0  0  0  0  0  0  0  0  0  # atno 17371 bound_to 10713
  139.9176  135.0198  156.7941 LP  0  0  0  0  0  0  0  0  0  0  0  0  # atno 17394 bound_to 11000
  140.6491  133.9748  155.7746 LP  0  0  0  0  0  0  0  0  0  0  0  0  # atno 17395 bound_to 11000

$$$$
