AV-unprocessed.smi:3335|AV-procd|sdf|12845|dock9
  -GOLD-   2272019233D 1   1.00000     0.00000
 Structure written by MMmdl.
 46 47  0  0  0  0  0  0  0  0  1 V2000
  146.2957  143.2761  153.8915 C   0  0  0  0  0  0  0  0  0  0  0  0
  147.2386  142.2061  154.3606 C   0  0  0  0  0  0  0  0  0  0  0  0
  147.1842  141.4622  155.5732 C   0  0  0  0  0  0  0  0  0  0  0  0
  148.1733  140.5921  155.6869 N   0  0  0  0  0  0  0  0  0  0  0  0
  148.8927  140.7438  154.5524 N   0  0  0  0  0  0  0  0  0  0  0  0
  150.0897  139.9433  154.3264 C   0  0  2  0  0  0  0  0  0  0  0  0
  149.7121  138.4581  154.1610 C   0  0  0  0  0  0  0  0  0  0  0  0
  151.1562  140.1747  155.4311 C   0  0  2  0  0  0  0  0  0  0  0  0
  152.4558  139.3778  155.2121 C   0  0  0  0  0  0  0  0  0  0  0  0
  150.6090  139.7542  156.7189 N   0  0  0  0  0  0  0  0  0  0  0  0
  150.9363  140.6622  157.8317 C   0  0  2  0  0  0  0  0  0  0  0  0
  150.9650  142.1286  157.3591 C   0  0  0  0  0  0  0  0  0  0  0  0
  152.2993  140.2902  158.4492 C   0  0  0  0  0  0  0  0  0  0  0  0
  152.9778  139.4118  157.9126 O   0  0  0  0  0  0  0  0  0  0  0  0
  152.7244  140.9355  159.5578 N   0  0  0  0  0  0  0  0  0  0  0  0
  151.9545  141.9933  160.2117 C   0  0  0  0  0  0  0  0  0  0  0  0
  152.8818  142.5943  161.2679 C   0  0  0  0  0  0  0  0  0  0  0  0
  153.8500  141.4670  161.5947 C   0  0  0  0  0  0  0  0  0  0  0  0
  153.9691  140.6867  160.2857 C   0  0  0  0  0  0  0  0  0  0  0  0
  148.3486  141.7129  153.7354 C   0  0  0  0  0  0  0  0  0  0  0  0
  145.7101  143.6885  154.7133 H   0  0  0  0  0  0  0  0  0  0  0  0
  145.5904  142.8941  153.1536 H   0  0  0  0  0  0  0  0  0  0  0  0
  146.8276  144.1077  153.4288 H   0  0  0  0  0  0  0  0  0  0  0  0
  146.4593  141.5304  156.3709 H   0  0  0  0  0  0  0  0  0  0  0  0
  150.5087  140.2804  153.3766 H   0  0  0  0  0  0  0  0  0  0  0  0
  150.5675  137.8627  153.8420 H   0  0  0  0  0  0  0  0  0  0  0  0
  148.9342  138.3339  153.4072 H   0  0  0  0  0  0  0  0  0  0  0  0
  149.3431  138.0318  155.0943 H   0  0  0  0  0  0  0  0  0  0  0  0
  151.4213  141.2330  155.4431 H   0  0  0  0  0  0  0  0  0  0  0  0
  152.9748  139.6959  154.3079 H   0  0  0  0  0  0  0  0  0  0  0  0
  152.2575  138.3091  155.1226 H   0  0  0  0  0  0  0  0  0  0  0  0
  153.1490  139.5202  156.0422 H   0  0  0  0  0  0  0  0  0  0  0  0
  150.8884  138.8048  156.9208 H   0  0  0  0  0  0  0  0  0  0  0  0
  150.1620  140.5485  158.5896 H   0  0  0  0  0  0  0  0  0  0  0  0
  151.2367  142.8020  158.1727 H   0  0  0  0  0  0  0  0  0  0  0  0
  149.9923  142.4530  156.9895 H   0  0  0  0  0  0  0  0  0  0  0  0
  151.6875  142.2745  156.5549 H   0  0  0  0  0  0  0  0  0  0  0  0
  151.6155  142.7522  159.5048 H   0  0  0  0  0  0  0  0  0  0  0  0
  151.0747  141.5521  160.6825 H   0  0  0  0  0  0  0  0  0  0  0  0
  153.4305  143.4339  160.8389 H   0  0  0  0  0  0  0  0  0  0  0  0
  152.3453  142.9589  162.1442 H   0  0  0  0  0  0  0  0  0  0  0  0
  154.8114  141.8269  161.9624 H   0  0  0  0  0  0  0  0  0  0  0  0
  153.4163  140.8266  162.3639 H   0  0  0  0  0  0  0  0  0  0  0  0
  154.1325  139.6256  160.4787 H   0  0  0  0  0  0  0  0  0  0  0  0
  154.8069  141.0614  159.6958 H   0  0  0  0  0  0  0  0  0  0  0  0
  148.7942  141.9724  152.7864 H   0  0  0  0  0  0  0  0  0  0  0  0
  1  2  1  0  0  0  0
  1 21  1  0  0  0  0
  1 22  1  0  0  0  0
  1 23  1  0  0  0  0
  2 20  2  0  0  0  0
  2  3  1  0  0  0  0
  3  4  2  0  0  0  0
  3 24  1  0  0  0  0
  4  5  1  0  0  0  0
  5  6  1  0  0  0  0
  5 20  1  0  0  0  0
  6  7  1  0  0  0  0
  6  8  1  0  0  0  0
  6 25  1  0  0  0  0
  7 26  1  0  0  0  0
  7 27  1  0  0  0  0
  7 28  1  0  0  0  0
  8  9  1  0  0  0  0
  8 10  1  0  0  0  0
  8 29  1  0  0  0  0
  9 30  1  0  0  0  0
  9 31  1  0  0  0  0
  9 32  1  0  0  0  0
 10 11  1  0  0  0  0
 10 33  1  0  0  0  0
 11 12  1  0  0  0  0
 11 13  1  0  0  0  0
 11 34  1  0  0  0  0
 12 35  1  0  0  0  0
 12 36  1  0  0  0  0
 12 37  1  0  0  0  0
 13 14  2  0  0  0  0
 13 15  1  0  0  0  0
 15 19  1  0  0  0  0
 15 16  1  0  0  0  0
 16 17  1  0  0  0  0
 16 38  1  0  0  0  0
 16 39  1  0  0  0  0
 17 18  1  0  0  0  0
 17 40  1  0  0  0  0
 17 41  1  0  0  0  0
 18 19  1  0  0  0  0
 18 42  1  0  0  0  0
 18 43  1  0  0  0  0
 19 44  1  0  0  0  0
 19 45  1  0  0  0  0
 20 46  1  0  0  0  0
M  END
> <s_m_source_file>
AV-unprocessed.smi

> <i_m_source_file_index>
3335

> <i_lp_mmshare_version>
43012

> <i_f3d_flags>
0

> <s_epik_input>
W0NIM11jMVtjSF1ubihbY0hdMSlbQ0BIXShbQ0gzXSlbQ0BIXShbQ0gzXSlbTkhdW0NASF0oW0NIM10pQyg9TylOMltDSDJdW0NIMl1bQ0gyXVtDSDJdMg==

> <s_epik_cmdline>
J2VwaWtfcHl0aG9uJywgJy1waCcsICc3LjAnLCAnLXRuJywgJzgnLCAnLW1hJywgJzIwMCcsICctbWV0YWxfYmluZGluZycsICctaW1hZScsICc8aW5maWxlLm1hZT4nLCAnLW9tYWUnLCAnPG91dGZpbGUubWFlPic=

> <r_lp_tautomer_probability>
1

> <r_epik_Ionization_Penalty>
0.918803

> <r_epik_Ionization_Penalty_Charging>
0

> <r_epik_Ionization_Penalty_Neutral>
0.918803

> <r_epik_State_Penalty>
0.958258

> <r_epik_Charging_Adjusted_Penalty>
0.958258

> <i_epik_Tot_Q>
0

> <i_epik_Tot_abs_Q>
0

> <r_epik_Metal_State_Penalty>
0.956786

> <b_epik_Metal_Only>
0

> <s_lp_Force_Field>
OPLS_2005

> <r_lp_Energy>
39.0848

> <b_lp_Chiralities_Consistent>
1

> <s_lp_Variant>
AV-unprocessed.smi:3335-9

> <Gold.Version>
5.8.1

> <Gold.Id.Protein>
6NUR|6NUR_protein|mol2

> <Gold.PLP.Fitness>
49.1288

> <Gold.PLP.PLP>
-44.8866

> <Gold.PLP.part.hbond>
-1.0000

> <Gold.PLP.part.metal>
0.0000

> <Gold.PLP.part.buried>
-0.7861

> <Gold.PLP.part.nonpolar>
-42.3249

> <Gold.PLP.part.repulsive>
0.0337

> <Gold.PLP.ligand.clash>
0.0000

> <Gold.PLP.ligand.torsion>
0.9355

> <Gold.PLP.Chemscore.Hbond>
1.0000

> <Gold.PLP.Chemscore.CHOScore>
1.0000

> <Gold.PLP.Chemscore.Metal>
0.0000

> <Gold.Chemscore.Hbonds>
donor molecule, donor type, donor heavy atom, donor atom, acceptor molecule, acceptor atom, score
      P1  H  7997  8008       L1    14  1.00
      L1  C    20    46       P1  7957  0.61

> <Gold.PLP.Chemscore.Internal.Correction>
0.1131

> <Gold.Rescore>
     Score         DG    S(hbond)    S(metal)    S(lipo)     H(rot)  DE(clash)    DE(int)     intcor
     14.43     -17.04       0.91        0.00     108.20       1.62       0.02       2.59       ----

> <Gold.Chemscore.Fitness>
14.4324

> <Gold.Chemscore.DG>
-17.0392

> <Gold.Chemscore.ZeroCoef>
-5.4800

> <Gold.Chemscore.Hbond>
0.9126

> <Gold.Chemscore.Metal>
0.0000

> <Gold.Chemscore.Lipo>
108.1993

> <Gold.Chemscore.Internal_Hbond>
0.0000

> <Gold.Chemscore.DEClash>
0.0166

> <Gold.Chemscore.DEInternal>
2.5902

> <Gold.Chemscore.Rot>
1.6204

> <Gold.Chemscore.Internal.Correction>
   9.000000E+99

> <Gold.Chemscore.Hbonds>
donor molecule, donor type, donor heavy atom, donor atom, acceptor molecule, acceptor atom, score
      P1  H  7997  8008       L1    14  0.87

> <Gold.Chemscore.Hbond.Weighted>
-3.0480

> <Gold.Chemscore.Metal.Weighted>
-0.0000

> <Gold.Chemscore.Lipo.Weighted>
-12.6593

> <Gold.Chemscore.Internal_Hbond.Weighted>
0.0000

> <Gold.Chemscore.DEClash.Weighted>
0.0166

> <Gold.Chemscore.DEInternal.Weighted>
2.5902

> <Gold.Chemscore.Rot.Weighted>
4.1482

> <Gold.Chemscore.Internal.Correction.Weighted>
   9.000000E+99

> <Gold.Protein.RotatedTorsions>
[ 6907 6896 6895 6894 ] final  164.69 input  -60.11 | X-H torsion
[ 7974 7965 7964 7962 ] final  -61.80 input  175.53 | X-H torsion
[ 8008 7997 7996 7995 ] final  -94.24 input   59.86 | X-H torsion
[ 10167 10162 10161 10158 ] final -137.15 input  -65.29 | X-H torsion
[ 10718 10713 10712 10709 ] final  135.10 input   66.30 | X-H torsion
[ 10763 10752 10751 10750 ] final   83.89 input  -60.55 | X-H torsion
[ 11005 11000 10999 10996 ] final  152.20 input  -57.11 | X-H torsion

> <Gold.Protein.ActiveResidues>
 VAL166  LYS551  ARG553  GLY616  TRP617  ASP618  TYR619  PRO620  LYS621  CYS622 
 ASP623  PHE694  ASN695  SER759  ASP760  ASP761  ALA762  ILE779  LEU786  VAL792 
 PHE793  MET794  SER795  GLU796  ALA797  LYS798  CYS799  TRP800  GLU811  SER814 

> <Gold.Protein.RotatedAtoms>
  151.9060  133.3549  159.3846 H   0  0  0  0  0  0  0  0  0  0  0  0  # atno 6907 bound_to 6896
  150.7069  134.4781  159.5466 H   0  0  0  0  0  0  0  0  0  0  0  0  # atno 6908 bound_to 6896
  152.2378  134.8259  160.0515 H   0  0  0  0  0  0  0  0  0  0  0  0  # atno 6909 bound_to 6896
  145.7990  140.8666  143.0241 H   0  0  0  0  0  0  0  0  0  0  0  0  # atno 7974 bound_to 7965
  154.7459  140.0491  157.0851 H   0  0  0  0  0  0  0  0  0  0  0  0  # atno 8008 bound_to 7997
  155.0119  140.3137  155.4807 H   0  0  0  0  0  0  0  0  0  0  0  0  # atno 8009 bound_to 7997
  156.2875  140.2182  156.5233 H   0  0  0  0  0  0  0  0  0  0  0  0  # atno 8010 bound_to 7997
  139.8607  143.7081  152.2650 H   0  0  0  0  0  0  0  0  0  0  0  0  # atno 10167 bound_to 10162
  157.4605  131.1073  150.9926 H   0  0  0  0  0  0  0  0  0  0  0  0  # atno 10718 bound_to 10713
  153.1332  135.4674  154.9381 H   0  0  0  0  0  0  0  0  0  0  0  0  # atno 10763 bound_to 10752
  154.7682  135.3151  154.8245 H   0  0  0  0  0  0  0  0  0  0  0  0  # atno 10764 bound_to 10752
  153.8783  135.6897  153.4823 H   0  0  0  0  0  0  0  0  0  0  0  0  # atno 10765 bound_to 10752
  140.1287  134.8816  157.2173 H   0  0  0  0  0  0  0  0  0  0  0  0  # atno 11005 bound_to 11000
  144.6771  140.0232  143.7483 LP  0  0  0  0  0  0  0  0  0  0  0  0  # atno 17320 bound_to 7965
  145.9897  139.3005  143.0992 LP  0  0  0  0  0  0  0  0  0  0  0  0  # atno 17321 bound_to 7965
  139.7377  144.7567  151.0702 LP  0  0  0  0  0  0  0  0  0  0  0  0  # atno 17342 bound_to 10162
  140.7775  143.5011  150.9770 LP  0  0  0  0  0  0  0  0  0  0  0  0  # atno 17343 bound_to 10162
  157.0724  130.5870  149.5405 LP  0  0  0  0  0  0  0  0  0  0  0  0  # atno 17370 bound_to 10713
  156.0026  130.5108  150.7719 LP  0  0  0  0  0  0  0  0  0  0  0  0  # atno 17371 bound_to 10713
  140.2871  134.3283  155.7326 LP  0  0  0  0  0  0  0  0  0  0  0  0  # atno 17394 bound_to 11000
  141.2166  133.7512  156.9448 LP  0  0  0  0  0  0  0  0  0  0  0  0  # atno 17395 bound_to 11000

$$$$
