AV-unprocessed.smi:682|AV-procd|sdf|3328|dock2
  -GOLD-   22720 0293D 1   1.00000     0.00000
 Structure written by MMmdl.
 41 42  0  0  0  0  0  0  0  0  1 V2000
  145.8789  142.1477  155.4677 C   0  0  0  0  0  0  0  0  0  0  0  0
  145.5360  140.7775  155.2997 O   0  0  0  0  0  0  0  0  0  0  0  0
  146.5864  139.8122  155.4489 C   0  0  1  0  0  0  0  0  0  0  0  0
  147.4240  140.1181  156.6968 C   0  0  0  0  0  0  0  0  0  0  0  0
  146.0367  138.3881  155.2380 C   0  0  0  0  0  0  0  0  0  0  0  0
  146.1946  138.6301  153.7384 C   0  0  2  0  0  0  0  0  0  0  0  0
  146.6401  137.4418  153.0188 N   0  0  0  0  0  0  0  0  0  0  0  0
  145.8229  136.4737  152.5841 C   0  0  0  0  0  0  0  0  0  0  0  0
  144.6034  136.4874  152.7515 O   0  0  0  0  0  0  0  0  0  0  0  0
  146.5052  135.5074  151.9495 N   0  0  0  0  0  0  0  0  0  0  0  0
  145.9755  134.3390  151.3478 C   0  0  0  0  0  0  0  0  0  0  0  0
  146.6596  133.2213  150.7912 C   0  0  0  0  0  0  0  0  0  0  0  0
  145.8032  132.3245  150.3249 N   0  0  0  0  0  0  0  0  0  0  0  0
  144.5774  132.8466  150.5719 N   0  0  0  0  0  0  0  0  0  0  0  0
  143.3992  132.1036  150.1791 C   0  0  0  0  0  0  0  0  0  0  0  0
  144.6473  134.0754  151.1973 C   0  0  0  0  0  0  0  0  0  0  0  0
  147.3108  139.6535  154.0717 C   0  0  0  0  0  0  0  0  0  0  0  0
  147.3670  140.8979  153.1787 C   0  0  0  0  0  0  0  0  0  0  0  0
  148.7526  139.1137  154.1264 C   0  0  0  0  0  0  0  0  0  0  0  0
  144.9662  142.7432  155.4811 H   0  0  0  0  0  0  0  0  0  0  0  0
  146.4886  142.5136  154.6417 H   0  0  0  0  0  0  0  0  0  0  0  0
  146.4071  142.3339  156.4021 H   0  0  0  0  0  0  0  0  0  0  0  0
  148.2891  139.4606  156.7762 H   0  0  0  0  0  0  0  0  0  0  0  0
  146.8539  139.9775  157.6145 H   0  0  0  0  0  0  0  0  0  0  0  0
  147.7939  141.1434  156.6840 H   0  0  0  0  0  0  0  0  0  0  0  0
  146.7016  137.6161  155.6293 H   0  0  0  0  0  0  0  0  0  0  0  0
  145.0093  138.2149  155.5560 H   0  0  0  0  0  0  0  0  0  0  0  0
  145.3038  139.0969  153.3107 H   0  0  0  0  0  0  0  0  0  0  0  0
  147.6300  137.3543  152.8411 H   0  0  0  0  0  0  0  0  0  0  0  0
  147.5065  135.6203  151.8884 H   0  0  0  0  0  0  0  0  0  0  0  0
  147.7181  133.0247  150.7078 H   0  0  0  0  0  0  0  0  0  0  0  0
  142.5059  132.7097  150.3340 H   0  0  0  0  0  0  0  0  0  0  0  0
  143.3206  131.1955  150.7774 H   0  0  0  0  0  0  0  0  0  0  0  0
  143.4653  131.8345  149.1243 H   0  0  0  0  0  0  0  0  0  0  0  0
  143.7682  134.6393  151.4727 H   0  0  0  0  0  0  0  0  0  0  0  0
  147.8245  140.6789  152.2133 H   0  0  0  0  0  0  0  0  0  0  0  0
  147.9444  141.6966  153.6448 H   0  0  0  0  0  0  0  0  0  0  0  0
  146.3736  141.2945  152.9687 H   0  0  0  0  0  0  0  0  0  0  0  0
  149.1287  138.8677  153.1330 H   0  0  0  0  0  0  0  0  0  0  0  0
  148.8316  138.2085  154.7287 H   0  0  0  0  0  0  0  0  0  0  0  0
  149.4367  139.8461  154.5561 H   0  0  0  0  0  0  0  0  0  0  0  0
  1  2  1  0  0  0  0
  1 20  1  0  0  0  0
  1 21  1  0  0  0  0
  1 22  1  0  0  0  0
  2  3  1  0  0  0  0
  3 17  1  0  0  0  0
  3  4  1  0  0  0  0
  3  5  1  0  0  0  0
  4 23  1  0  0  0  0
  4 24  1  0  0  0  0
  4 25  1  0  0  0  0
  5  6  1  0  0  0  0
  5 26  1  0  0  0  0
  5 27  1  0  0  0  0
  6  7  1  0  0  0  0
  6 17  1  0  0  0  0
  6 28  1  0  0  0  0
  7  8  1  0  0  0  0
  7 29  1  0  0  0  0
  8  9  2  0  0  0  0
  8 10  1  0  0  0  0
 10 11  1  0  0  0  0
 10 30  1  0  0  0  0
 11 16  2  0  0  0  0
 11 12  1  0  0  0  0
 12 13  2  0  0  0  0
 12 31  1  0  0  0  0
 13 14  1  0  0  0  0
 14 15  1  0  0  0  0
 14 16  1  0  0  0  0
 15 32  1  0  0  0  0
 15 33  1  0  0  0  0
 15 34  1  0  0  0  0
 16 35  1  0  0  0  0
 17 18  1  0  0  0  0
 17 19  1  0  0  0  0
 18 36  1  0  0  0  0
 18 37  1  0  0  0  0
 18 38  1  0  0  0  0
 19 39  1  0  0  0  0
 19 40  1  0  0  0  0
 19 41  1  0  0  0  0
M  END
> <s_m_source_file>
AV-unprocessed.smi

> <i_m_source_file_index>
682

> <i_lp_mmshare_version>
43012

> <i_f3d_flags>
0

> <s_epik_input>
W0NIM11PW0NAQF0xKFtDSDNdKVtDSDJdW0NASF0oQzEoW0NIM10pW0NIM10pW05IXUMoPU8pW05IXWMyW2NIXW5uKFtDSDNdKVtjSF0y

> <s_epik_cmdline>
J2VwaWtfcHl0aG9uJywgJy1waCcsICc3LjAnLCAnLXRuJywgJzgnLCAnLW1hJywgJzIwMCcsICctbWV0YWxfYmluZGluZycsICctaW1hZScsICc8aW5maWxlLm1hZT4nLCAnLW9tYWUnLCAnPG91dGZpbGUubWFlPic=

> <r_lp_tautomer_probability>
1

> <r_epik_Ionization_Penalty>
0.000192302

> <r_epik_Ionization_Penalty_Charging>
0

> <r_epik_Ionization_Penalty_Neutral>
0.000192302

> <r_epik_State_Penalty>
-0

> <r_epik_Charging_Adjusted_Penalty>
0

> <i_epik_Tot_Q>
0

> <i_epik_Tot_abs_Q>
0

> <r_epik_Metal_State_Penalty>
-0

> <b_epik_Metal_Only>
0

> <s_lp_Force_Field>
OPLS_2005

> <r_lp_Energy>
24.1869

> <b_lp_Chiralities_Consistent>
1

> <s_lp_Variant>
AV-unprocessed.smi:682-3

> <Gold.Version>
5.8.1

> <Gold.Id.Protein>
6NUR|6NUR_protein|mol2

> <Gold.PLP.Fitness>
32.2950

> <Gold.PLP.PLP>
-24.1529

> <Gold.PLP.part.hbond>
-1.9832

> <Gold.PLP.part.metal>
0.0000

> <Gold.PLP.part.buried>
-3.2686

> <Gold.PLP.part.nonpolar>
-19.7400

> <Gold.PLP.part.repulsive>
0.4733

> <Gold.PLP.ligand.clash>
0.0000

> <Gold.PLP.ligand.torsion>
0.3880

> <Gold.PLP.Chemscore.Hbond>
1.8480

> <Gold.PLP.Chemscore.CHOScore>
0.9993

> <Gold.PLP.Chemscore.Metal>
0.0000

> <Gold.Chemscore.Hbonds>
donor molecule, donor type, donor heavy atom, donor atom, acceptor molecule, acceptor atom, score
      L1  H     7    29       P1  7948  0.83
      L1  H    10    30       P1  7948  1.00
      L1  C    12    31       P1 10747  1.00

> <Gold.PLP.Chemscore.Internal.Correction>
0.3764

> <Gold.Rescore>
     Score         DG    S(hbond)    S(metal)    S(lipo)     H(rot)  DE(clash)    DE(int)     intcor
     13.43     -15.64       1.83        0.00      61.48       1.23       0.36       1.85       ----

> <Gold.Chemscore.Fitness>
13.4251

> <Gold.Chemscore.DG>
-15.6397

> <Gold.Chemscore.ZeroCoef>
-5.4800

> <Gold.Chemscore.Hbond>
1.8338

> <Gold.Chemscore.Metal>
0.0000

> <Gold.Chemscore.Lipo>
61.4784

> <Gold.Chemscore.Internal_Hbond>
0.0000

> <Gold.Chemscore.DEClash>
0.3633

> <Gold.Chemscore.DEInternal>
1.8512

> <Gold.Chemscore.Rot>
1.2336

> <Gold.Chemscore.Internal.Correction>
   9.000000E+99

> <Gold.Chemscore.Hbonds>
donor molecule, donor type, donor heavy atom, donor atom, acceptor molecule, acceptor atom, score
      L1  H     7    29       P1  7948  0.81
      L1  H    10    30       P1  7948  0.93

> <Gold.Chemscore.Hbond.Weighted>
-6.1248

> <Gold.Chemscore.Metal.Weighted>
-0.0000

> <Gold.Chemscore.Lipo.Weighted>
-7.1930

> <Gold.Chemscore.Internal_Hbond.Weighted>
0.0000

> <Gold.Chemscore.DEClash.Weighted>
0.3633

> <Gold.Chemscore.DEInternal.Weighted>
1.8512

> <Gold.Chemscore.Rot.Weighted>
3.1581

> <Gold.Chemscore.Internal.Correction.Weighted>
   9.000000E+99

> <Gold.Protein.RotatedTorsions>
[ 6907 6896 6895 6894 ] final  138.06 input  -60.11 | X-H torsion
[ 7974 7965 7964 7962 ] final  112.25 input  175.53 | X-H torsion
[ 8008 7997 7996 7995 ] final  -42.77 input   59.86 | X-H torsion
[ 10167 10162 10161 10158 ] final  137.20 input  -65.29 | X-H torsion
[ 10718 10713 10712 10709 ] final  154.73 input   66.30 | X-H torsion
[ 10763 10752 10751 10750 ] final   74.55 input  -60.55 | X-H torsion
[ 11005 11000 10999 10996 ] final  -35.92 input  -57.11 | X-H torsion

> <Gold.Protein.ActiveResidues>
 VAL166  LYS551  ARG553  GLY616  TRP617  ASP618  TYR619  PRO620  LYS621  CYS622 
 ASP623  PHE694  ASN695  SER759  ASP760  ASP761  ALA762  ILE779  LEU786  VAL792 
 PHE793  MET794  SER795  GLU796  ALA797  LYS798  CYS799  TRP800  GLU811  SER814 

> <Gold.Protein.RotatedAtoms>
  152.2710  133.5382  159.5438 H   0  0  0  0  0  0  0  0  0  0  0  0  # atno 6907 bound_to 6896
  150.7159  134.0698  159.3869 H   0  0  0  0  0  0  0  0  0  0  0  0  # atno 6908 bound_to 6896
  151.8613  135.0523  160.0520 H   0  0  0  0  0  0  0  0  0  0  0  0  # atno 6909 bound_to 6896
  145.2319  139.2816  143.4163 H   0  0  0  0  0  0  0  0  0  0  0  0  # atno 7974 bound_to 7965
  154.3998  140.1465  156.3409 H   0  0  0  0  0  0  0  0  0  0  0  0  # atno 8008 bound_to 7997
  155.8357  140.3464  155.5579 H   0  0  0  0  0  0  0  0  0  0  0  0  # atno 8009 bound_to 7997
  155.8140  140.0888  157.1878 H   0  0  0  0  0  0  0  0  0  0  0  0  # atno 8010 bound_to 7997
  139.5153  144.6423  151.5535 H   0  0  0  0  0  0  0  0  0  0  0  0  # atno 10167 bound_to 10162
  157.2278  131.0732  151.1872 H   0  0  0  0  0  0  0  0  0  0  0  0  # atno 10718 bound_to 10713
  153.0594  135.5021  154.8058 H   0  0  0  0  0  0  0  0  0  0  0  0  # atno 10763 bound_to 10752
  154.6859  135.2976  154.9550 H   0  0  0  0  0  0  0  0  0  0  0  0  # atno 10764 bound_to 10752
  154.0321  135.6728  153.4834 H   0  0  0  0  0  0  0  0  0  0  0  0  # atno 10765 bound_to 10752
  140.9834  133.7044  156.1723 H   0  0  0  0  0  0  0  0  0  0  0  0  # atno 11005 bound_to 11000
  146.3351  140.2657  142.8604 LP  0  0  0  0  0  0  0  0  0  0  0  0  # atno 17320 bound_to 7965
  144.9668  140.8330  143.5479 LP  0  0  0  0  0  0  0  0  0  0  0  0  # atno 17321 bound_to 7965
  140.6194  143.9286  150.6514 LP  0  0  0  0  0  0  0  0  0  0  0  0  # atno 17342 bound_to 10162
  140.2555  143.3562  152.1368 LP  0  0  0  0  0  0  0  0  0  0  0  0  # atno 17343 bound_to 10162
  157.3510  130.7082  149.6440 LP  0  0  0  0  0  0  0  0  0  0  0  0  # atno 17370 bound_to 10713
  155.9677  130.4252  150.4645 LP  0  0  0  0  0  0  0  0  0  0  0  0  # atno 17371 bound_to 10713
  140.7152  134.4418  157.5579 LP  0  0  0  0  0  0  0  0  0  0  0  0  # atno 17394 bound_to 11000
  139.8960  134.8670  156.2107 LP  0  0  0  0  0  0  0  0  0  0  0  0  # atno 17395 bound_to 11000

$$$$
