AV-unprocessed.smi:3071|AV-procd|sdf|11715|dock5
  -GOLD-   2272017113D 1   1.00000     0.00000
 Structure written by MMmdl.
 29 30  0  0  0  0  0  0  0  0  3 V2000
  152.9325  142.0487  160.3874 C   0  0  0  0  0  0  0  0  0  0  0  0
  152.4826  143.1272  159.4551 C   0  0  0  0  0  0  0  0  0  0  0  0
  152.5212  144.4402  159.7102 N   0  3  0  0  0  0  0  0  0  0  0  0
  152.0270  145.1473  158.6483 C   0  0  0  0  0  0  0  0  0  0  0  0
  151.6708  144.2239  157.7008 C   0  0  0  0  0  0  0  0  0  0  0  0
  151.9653  142.9889  158.2220 N   0  0  0  0  0  0  0  0  0  0  0  0
  151.7549  141.6916  157.5632 C   0  0  0  0  0  0  0  0  0  0  0  0
  150.3237  141.5205  157.0188 C   0  0  2  0  0  0  0  0  0  0  0  0
  149.8710  140.0697  156.8262 C   0  0  0  0  0  0  0  0  0  0  0  0
  148.7597  140.1987  155.7916 C   0  0  0  0  0  0  0  0  0  0  0  0
  149.2513  141.3267  154.8811 C   0  0  0  0  0  0  0  0  0  0  0  0
  150.1530  142.1632  155.6998 N   0  3  0  0  0  0  0  0  0  0  0  0
  153.3487  142.5063  161.2856 H   0  0  0  0  0  0  0  0  0  0  0  0
  153.6944  141.4476  159.8922 H   0  0  0  0  0  0  0  0  0  0  0  0
  152.0733  141.4312  160.6499 H   0  0  0  0  0  0  0  0  0  0  0  0
  151.9666  146.2261  158.6473 H   0  0  0  0  0  0  0  0  0  0  0  0
  151.2419  144.3529  156.7174 H   0  0  0  0  0  0  0  0  0  0  0  0
  152.4906  141.5834  156.7655 H   0  0  0  0  0  0  0  0  0  0  0  0
  151.9757  140.9142  158.2962 H   0  0  0  0  0  0  0  0  0  0  0  0
  149.6181  142.0061  157.6941 H   0  0  0  0  0  0  0  0  0  0  0  0
  150.6839  139.4665  156.4188 H   0  0  0  0  0  0  0  0  0  0  0  0
  149.5345  139.6024  157.7522 H   0  0  0  0  0  0  0  0  0  0  0  0
  148.5707  139.2703  155.2518 H   0  0  0  0  0  0  0  0  0  0  0  0
  147.8319  140.4958  156.2830 H   0  0  0  0  0  0  0  0  0  0  0  0
  149.8237  140.9194  154.0470 H   0  0  0  0  0  0  0  0  0  0  0  0
  148.4288  141.9130  154.4702 H   0  0  0  0  0  0  0  0  0  0  0  0
  149.7709  143.0916  155.8137 H   0  0  0  0  0  0  0  0  0  0  0  0
  151.0468  142.2208  155.2322 H   0  0  0  0  0  0  0  0  0  0  0  0
  152.8654  144.8499  160.5698 H   0  0  0  0  0  0  0  0  0  0  0  0
  1  2  1  0  0  0  0
  1 13  1  0  0  0  0
  1 14  1  0  0  0  0
  1 15  1  0  0  0  0
  2  6  1  0  0  0  0
  2  3  2  0  0  0  0
  3  4  1  0  0  0  0
  3 29  1  0  0  0  0
  4  5  2  0  0  0  0
  4 16  1  0  0  0  0
  5  6  1  0  0  0  0
  5 17  1  0  0  0  0
  6  7  1  0  0  0  0
  7  8  1  0  0  0  0
  7 18  1  0  0  0  0
  7 19  1  0  0  0  0
  8 12  1  0  0  0  0
  8  9  1  0  0  0  0
  8 20  1  0  0  0  0
  9 10  1  0  0  0  0
  9 21  1  0  0  0  0
  9 22  1  0  0  0  0
 10 11  1  0  0  0  0
 10 23  1  0  0  0  0
 10 24  1  0  0  0  0
 11 12  1  0  0  0  0
 11 25  1  0  0  0  0
 11 26  1  0  0  0  0
 12 27  1  0  0  0  0
 12 28  1  0  0  0  0
M  CHG  1   3   1
M  CHG  1  12   1
M  END
> <s_m_source_file>
AV-unprocessed.smi

> <i_m_source_file_index>
3071

> <i_lp_mmshare_version>
43012

> <i_f3d_flags>
0

> <s_epik_input>
W0NIM11jMW5bY0hdW2NIXW4xW0NIMl1bQ0BASF0yW0NIMl1bQ0gyXVtDSDJdW05IXTI=

> <s_epik_cmdline>
J2VwaWtfcHl0aG9uJywgJy1waCcsICc3LjAnLCAnLXRuJywgJzgnLCAnLW1hJywgJzIwMCcsICctbWV0YWxfYmluZGluZycsICctaW1hZScsICc8aW5maWxlLm1hZT4nLCAnLW9tYWUnLCAnPG91dGZpbGUubWFlPic=

> <r_lp_tautomer_probability>
1

> <r_epik_Ionization_Penalty>
0.770167

> <r_epik_Ionization_Penalty_Charging>
0.000985251

> <r_epik_Ionization_Penalty_Neutral>
0.769181

> <r_epik_State_Penalty>
0.493256

> <r_epik_Charging_Adjusted_Penalty>
0.494241

> <i_epik_Tot_Q>
2

> <i_epik_Tot_abs_Q>
2

> <r_epik_Metal_State_Penalty>
4.24699

> <b_epik_Metal_Only>
0

> <s_lp_Force_Field>
OPLS_2005

> <r_lp_Energy>
34.2939

> <b_lp_Chiralities_Consistent>
1

> <s_lp_Variant>
AV-unprocessed.smi:3071-3

> <Gold.Version>
5.8.1

> <Gold.Id.Protein>
6NUR|6NUR_protein|mol2

> <Gold.PLP.Fitness>
37.0892

> <Gold.PLP.PLP>
-28.6982

> <Gold.PLP.part.hbond>
-1.0000

> <Gold.PLP.part.metal>
0.0000

> <Gold.PLP.part.buried>
-3.6668

> <Gold.PLP.part.nonpolar>
-24.2751

> <Gold.PLP.part.repulsive>
0.1903

> <Gold.PLP.ligand.clash>
0.0000

> <Gold.PLP.ligand.torsion>
0.3048

> <Gold.PLP.Chemscore.Hbond>
2.0000

> <Gold.PLP.Chemscore.CHOScore>
1.0000

> <Gold.PLP.Chemscore.Metal>
0.0000

> <Gold.Chemscore.Hbonds>
donor molecule, donor type, donor heavy atom, donor atom, acceptor molecule, acceptor atom, score
      L1  H    12    27       P1  8028  2.00
      L1  C     5    17       P1  8028  0.89

> <Gold.PLP.Chemscore.Internal.Correction>
0.0005

> <Gold.Rescore>
     Score         DG    S(hbond)    S(metal)    S(lipo)     H(rot)  DE(clash)    DE(int)     intcor
     13.16     -13.63       1.00        0.00      68.47       1.25       0.31       0.16       ----

> <Gold.Chemscore.Fitness>
13.1560

> <Gold.Chemscore.DG>
-13.6259

> <Gold.Chemscore.ZeroCoef>
-5.4800

> <Gold.Chemscore.Hbond>
0.9968

> <Gold.Chemscore.Metal>
0.0000

> <Gold.Chemscore.Lipo>
68.4665

> <Gold.Chemscore.Internal_Hbond>
0.0000

> <Gold.Chemscore.DEClash>
0.3061

> <Gold.Chemscore.DEInternal>
0.1638

> <Gold.Chemscore.Rot>
1.2477

> <Gold.Chemscore.Internal.Correction>
   9.000000E+99

> <Gold.Chemscore.Hbonds>
donor molecule, donor type, donor heavy atom, donor atom, acceptor molecule, acceptor atom, score
      L1  H    12    27       P1  8028  1.00

> <Gold.Chemscore.Hbond.Weighted>
-3.3294

> <Gold.Chemscore.Metal.Weighted>
-0.0000

> <Gold.Chemscore.Lipo.Weighted>
-8.0106

> <Gold.Chemscore.Internal_Hbond.Weighted>
0.0000

> <Gold.Chemscore.DEClash.Weighted>
0.3061

> <Gold.Chemscore.DEInternal.Weighted>
0.1638

> <Gold.Chemscore.Rot.Weighted>
3.1941

> <Gold.Chemscore.Internal.Correction.Weighted>
   9.000000E+99

> <Gold.Protein.RotatedTorsions>
[ 6907 6896 6895 6894 ] final   28.48 input  -60.11 | X-H torsion
[ 7974 7965 7964 7962 ] final   89.49 input  175.53 | X-H torsion
[ 8008 7997 7996 7995 ] final   92.74 input   59.86 | X-H torsion
[ 10167 10162 10161 10158 ] final   15.90 input  -65.29 | X-H torsion
[ 10718 10713 10712 10709 ] final   92.36 input   66.30 | X-H torsion
[ 10763 10752 10751 10750 ] final   18.79 input  -60.55 | X-H torsion
[ 11005 11000 10999 10996 ] final -160.73 input  -57.11 | X-H torsion

> <Gold.Protein.ActiveResidues>
 VAL166  LYS551  ARG553  GLY616  TRP617  ASP618  TYR619  PRO620  LYS621  CYS622 
 ASP623  PHE694  ASN695  SER759  ASP760  ASP761  ALA762  ILE779  LEU786  VAL792 
 PHE793  MET794  SER795  GLU796  ALA797  LYS798  CYS799  TRP800  GLU811  SER814 

> <Gold.Protein.RotatedAtoms>
  152.0175  134.9841  160.0569 H   0  0  0  0  0  0  0  0  0  0  0  0  # atno 6907 bound_to 6896
  152.1369  133.4436  159.4756 H   0  0  0  0  0  0  0  0  0  0  0  0  # atno 6908 bound_to 6896
  150.6861  134.2271  159.4463 H   0  0  0  0  0  0  0  0  0  0  0  0  # atno 6909 bound_to 6896
  145.5316  139.2283  143.2615 H   0  0  0  0  0  0  0  0  0  0  0  0  # atno 7974 bound_to 7965
  156.0388  140.3321  155.7221 H   0  0  0  0  0  0  0  0  0  0  0  0  # atno 8008 bound_to 7997
  155.5775  140.0634  157.2809 H   0  0  0  0  0  0  0  0  0  0  0  0  # atno 8009 bound_to 7997
  154.4384  140.1850  156.0930 H   0  0  0  0  0  0  0  0  0  0  0  0  # atno 8010 bound_to 7997
  140.5835  143.8935  150.6810 H   0  0  0  0  0  0  0  0  0  0  0  0  # atno 10167 bound_to 10162
  157.6959  131.0440  150.3870 H   0  0  0  0  0  0  0  0  0  0  0  0  # atno 10718 bound_to 10713
  153.1218  135.6721  153.9322 H   0  0  0  0  0  0  0  0  0  0  0  0  # atno 10763 bound_to 10752
  153.8835  135.3055  155.3447 H   0  0  0  0  0  0  0  0  0  0  0  0  # atno 10764 bound_to 10752
  154.7629  135.4979  153.9578 H   0  0  0  0  0  0  0  0  0  0  0  0  # atno 10765 bound_to 10752
  140.6282  134.4678  157.5228 H   0  0  0  0  0  0  0  0  0  0  0  0  # atno 11005 bound_to 11000
  146.2040  140.6133  142.9089 LP  0  0  0  0  0  0  0  0  0  0  0  0  # atno 17320 bound_to 7965
  144.7623  140.5450  143.6727 LP  0  0  0  0  0  0  0  0  0  0  0  0  # atno 17321 bound_to 7965
  140.2440  143.3642  152.1462 LP  0  0  0  0  0  0  0  0  0  0  0  0  # atno 17342 bound_to 10162
  139.5183  144.7004  151.5509 LP  0  0  0  0  0  0  0  0  0  0  0  0  # atno 17343 bound_to 10162
  156.4277  130.3966  149.6781 LP  0  0  0  0  0  0  0  0  0  0  0  0  # atno 17370 bound_to 10713
  156.4009  130.7674  151.2682 LP  0  0  0  0  0  0  0  0  0  0  0  0  # atno 17371 bound_to 10713
  139.9126  134.8312  156.1475 LP  0  0  0  0  0  0  0  0  0  0  0  0  # atno 17394 bound_to 11000
  141.0694  133.6804  156.2109 LP  0  0  0  0  0  0  0  0  0  0  0  0  # atno 17395 bound_to 11000

$$$$
