AV-unprocessed.smi:2482|AV-procd|sdf|9780|dock7
  -GOLD-   2272013423D 1   1.00000     0.00000
 Structure written by MMmdl.
 34 35  0  0  0  0  0  0  0  0  1 V2000
  152.2265  144.0190  159.2531 C   0  0  0  0  0  0  0  0  0  0  0  0
  152.1275  142.5539  158.8709 C   0  0  0  0  0  0  0  0  0  0  0  0
  151.3104  142.2747  157.8320 N   0  0  0  0  0  0  0  0  0  0  0  0
  151.1799  140.9863  157.4557 C   0  0  0  0  0  0  0  0  0  0  0  0
  151.8548  139.9231  158.0849 C   0  0  0  0  0  0  0  0  0  0  0  0
  152.7247  140.2137  159.1632 C   0  0  0  0  0  0  0  0  0  0  0  0
  153.4379  139.2161  159.8834 N   0  0  0  0  0  0  0  0  0  0  0  0
  153.4312  137.8807  159.7144 C   0  0  0  0  0  0  0  0  0  0  0  0
  152.7603  137.2906  158.8674 O   0  0  0  0  0  0  0  0  0  0  0  0
  154.3366  137.0876  160.6681 C   0  0  1  0  0  0  0  0  0  0  0  0
  153.9561  137.2743  162.1550 C   0  0  0  0  0  0  0  0  0  0  0  0
  154.7859  136.4595  163.0336 N   0  0  0  0  0  0  0  0  0  0  0  0
  154.4219  136.6365  164.4310 C   0  0  0  0  0  0  0  0  0  0  0  0
  154.7039  135.0627  162.6295 C   0  0  0  0  0  0  0  0  0  0  0  0
  155.0848  134.8778  161.1514 C   0  0  0  0  0  0  0  0  0  0  0  0
  154.2524  135.6997  160.3391 O   0  0  0  0  0  0  0  0  0  0  0  0
  152.8518  141.5619  159.5728 C   0  0  0  0  0  0  0  0  0  0  0  0
  153.8774  141.9911  160.9012 Cl  0  0  0  0  0  0  0  0  0  0  0  0
  153.2564  144.3651  159.1643 H   0  0  0  0  0  0  0  0  0  0  0  0
  151.9000  144.1657  160.2829 H   0  0  0  0  0  0  0  0  0  0  0  0
  151.6051  144.6442  158.6106 H   0  0  0  0  0  0  0  0  0  0  0  0
  150.5101  140.7949  156.6306 H   0  0  0  0  0  0  0  0  0  0  0  0
  151.6823  138.9157  157.7395 H   0  0  0  0  0  0  0  0  0  0  0  0
  154.1014  139.5653  160.5605 H   0  0  0  0  0  0  0  0  0  0  0  0
  155.3613  137.4273  160.5072 H   0  0  0  0  0  0  0  0  0  0  0  0
  154.0603  138.3245  162.4315 H   0  0  0  0  0  0  0  0  0  0  0  0
  152.9051  137.0169  162.2989 H   0  0  0  0  0  0  0  0  0  0  0  0
  155.0744  136.0490  165.0775 H   0  0  0  0  0  0  0  0  0  0  0  0
  153.3925  136.3246  164.6130 H   0  0  0  0  0  0  0  0  0  0  0  0
  154.5169  137.6821  164.7255 H   0  0  0  0  0  0  0  0  0  0  0  0
  155.3623  134.4571  163.2533 H   0  0  0  0  0  0  0  0  0  0  0  0
  153.6909  134.6901  162.7898 H   0  0  0  0  0  0  0  0  0  0  0  0
  156.1325  135.1337  160.9864 H   0  0  0  0  0  0  0  0  0  0  0  0
  154.9578  133.8369  160.8538 H   0  0  0  0  0  0  0  0  0  0  0  0
  1  2  1  0  0  0  0
  1 19  1  0  0  0  0
  1 20  1  0  0  0  0
  1 21  1  0  0  0  0
  2 17  1  0  0  0  0
  2  3  2  0  0  0  0
  3  4  1  0  0  0  0
  4  5  2  0  0  0  0
  4 22  1  0  0  0  0
  5  6  1  0  0  0  0
  5 23  1  0  0  0  0
  6  7  1  0  0  0  0
  6 17  2  0  0  0  0
  7  8  1  0  0  0  0
  7 24  1  0  0  0  0
  8  9  2  0  0  0  0
  8 10  1  0  0  0  0
 10 16  1  0  0  0  0
 10 11  1  0  0  0  0
 10 25  1  0  0  0  0
 11 12  1  0  0  0  0
 11 26  1  0  0  0  0
 11 27  1  0  0  0  0
 12 13  1  0  0  0  0
 12 14  1  0  0  0  0
 13 28  1  0  0  0  0
 13 29  1  0  0  0  0
 13 30  1  0  0  0  0
 14 15  1  0  0  0  0
 14 31  1  0  0  0  0
 14 32  1  0  0  0  0
 15 16  1  0  0  0  0
 15 33  1  0  0  0  0
 15 34  1  0  0  0  0
 17 18  1  0  0  0  0
M  END
> <s_m_source_file>
AV-unprocessed.smi

> <i_m_source_file_index>
2482

> <i_lp_mmshare_version>
43012

> <i_f3d_flags>
0

> <s_epik_input>
W0NIM11jMW5bY0hdW2NIXWMoYzFDbClbTkhdQyg9TylbQ0BASF0yW0NIMl1OKFtDSDNdKVtDSDJdW0NIMl1PMg==

> <s_epik_cmdline>
J2VwaWtfcHl0aG9uJywgJy1waCcsICc3LjAnLCAnLXRuJywgJzgnLCAnLW1hJywgJzIwMCcsICctbWV0YWxfYmluZGluZycsICctaW1hZScsICc8aW5maWxlLm1hZT4nLCAnLW9tYWUnLCAnPG91dGZpbGUubWFlPic=

> <r_epik_Ionization_Penalty>
0.52656

> <r_epik_Ionization_Penalty_Charging>
0

> <r_epik_Ionization_Penalty_Neutral>
0.52656

> <r_epik_State_Penalty>
0.534659

> <r_epik_Charging_Adjusted_Penalty>
0.534659

> <i_epik_Tot_Q>
0

> <i_epik_Tot_abs_Q>
0

> <r_epik_Metal_State_Penalty>
0.54077

> <b_epik_Metal_Only>
0

> <s_lp_Force_Field>
OPLS_2005

> <r_lp_Energy>
25.124

> <b_lp_Chiralities_Consistent>
1

> <s_lp_Variant>
AV-unprocessed.smi:2482-6

> <Gold.Version>
5.8.1

> <Gold.Id.Protein>
6NUR|6NUR_protein|mol2

> <Gold.PLP.Fitness>
37.4077

> <Gold.PLP.PLP>
-34.4148

> <Gold.PLP.part.hbond>
-1.0000

> <Gold.PLP.part.metal>
0.0000

> <Gold.PLP.part.buried>
-5.0060

> <Gold.PLP.part.nonpolar>
-29.5412

> <Gold.PLP.part.repulsive>
0.1428

> <Gold.PLP.ligand.clash>
0.0000

> <Gold.PLP.ligand.torsion>
0.0045

> <Gold.PLP.Chemscore.Hbond>
1.0000

> <Gold.PLP.Chemscore.CHOScore>
0.0000

> <Gold.PLP.Chemscore.Metal>
0.0000

> <Gold.Chemscore.Hbonds>
donor molecule, donor type, donor heavy atom, donor atom, acceptor molecule, acceptor atom, score
      P1  H  6896  6907       L1    16  0.75

> <Gold.PLP.Chemscore.Internal.Correction>
0.0020

> <Gold.Rescore>
     Score         DG    S(hbond)    S(metal)    S(lipo)     H(rot)  DE(clash)    DE(int)     intcor
     16.02     -17.34       0.92        0.00      96.83       1.00       0.05       1.27       ----

> <Gold.Chemscore.Fitness>
16.0174

> <Gold.Chemscore.DG>
-17.3383

> <Gold.Chemscore.ZeroCoef>
-5.4800

> <Gold.Chemscore.Hbond>
0.9249

> <Gold.Chemscore.Metal>
0.0000

> <Gold.Chemscore.Lipo>
96.8290

> <Gold.Chemscore.Internal_Hbond>
0.0000

> <Gold.Chemscore.DEClash>
0.0477

> <Gold.Chemscore.DEInternal>
1.2731

> <Gold.Chemscore.Rot>
1.0000

> <Gold.Chemscore.Internal.Correction>
   9.000000E+99

> <Gold.Chemscore.Hbonds>
donor molecule, donor type, donor heavy atom, donor atom, acceptor molecule, acceptor atom, score
      P1  H  6896  6907       L1    16  0.58

> <Gold.Chemscore.Hbond.Weighted>
-3.0893

> <Gold.Chemscore.Metal.Weighted>
-0.0000

> <Gold.Chemscore.Lipo.Weighted>
-11.3290

> <Gold.Chemscore.Internal_Hbond.Weighted>
0.0000

> <Gold.Chemscore.DEClash.Weighted>
0.0477

> <Gold.Chemscore.DEInternal.Weighted>
1.2731

> <Gold.Chemscore.Rot.Weighted>
2.5600

> <Gold.Chemscore.Internal.Correction.Weighted>
   9.000000E+99

> <Gold.Protein.RotatedTorsions>
[ 6907 6896 6895 6894 ] final   46.92 input  -60.11 | X-H torsion
[ 7974 7965 7964 7962 ] final   82.37 input  175.53 | X-H torsion
[ 8008 7997 7996 7995 ] final -133.33 input   59.86 | X-H torsion
[ 10167 10162 10161 10158 ] final  140.76 input  -65.29 | X-H torsion
[ 10718 10713 10712 10709 ] final   45.86 input   66.30 | X-H torsion
[ 10763 10752 10751 10750 ] final -148.82 input  -60.55 | X-H torsion
[ 11005 11000 10999 10996 ] final  109.76 input  -57.11 | X-H torsion

> <Gold.Protein.ActiveResidues>
 VAL166  LYS551  ARG553  GLY616  TRP617  ASP618  TYR619  PRO620  LYS621  CYS622 
 ASP623  PHE694  ASN695  SER759  ASP760  ASP761  ALA762  ILE779  LEU786  VAL792 
 PHE793  MET794  SER795  GLU796  ALA797  LYS798  CYS799  TRP800  GLU811  SER814 

> <Gold.Protein.RotatedAtoms>
  152.2620  134.8024  160.0428 H   0  0  0  0  0  0  0  0  0  0  0  0  # atno 6907 bound_to 6896
  151.8667  133.3462  159.3729 H   0  0  0  0  0  0  0  0  0  0  0  0  # atno 6908 bound_to 6896
  150.7120  134.5080  159.5638 H   0  0  0  0  0  0  0  0  0  0  0  0  # atno 6909 bound_to 6896
  145.6260  139.2395  143.2111 H   0  0  0  0  0  0  0  0  0  0  0  0  # atno 7974 bound_to 7965
  155.3437  140.0473  157.3045 H   0  0  0  0  0  0  0  0  0  0  0  0  # atno 8008 bound_to 7997
  154.5264  140.2242  155.8848 H   0  0  0  0  0  0  0  0  0  0  0  0  # atno 8009 bound_to 7997
  156.1743  140.3088  155.9037 H   0  0  0  0  0  0  0  0  0  0  0  0  # atno 8010 bound_to 7997
  139.5039  144.6214  151.6042 H   0  0  0  0  0  0  0  0  0  0  0  0  # atno 10167 bound_to 10162
  157.4420  130.8087  149.7703 H   0  0  0  0  0  0  0  0  0  0  0  0  # atno 10718 bound_to 10713
  154.8212  135.3325  154.7033 H   0  0  0  0  0  0  0  0  0  0  0  0  # atno 10763 bound_to 10752
  153.7666  135.6928  153.4919 H   0  0  0  0  0  0  0  0  0  0  0  0  # atno 10764 bound_to 10752
  153.2073  135.4494  155.0287 H   0  0  0  0  0  0  0  0  0  0  0  0  # atno 10765 bound_to 10752
  139.8868  134.9467  156.6176 H   0  0  0  0  0  0  0  0  0  0  0  0  # atno 11005 bound_to 11000
  146.1394  140.7078  142.9374 LP  0  0  0  0  0  0  0  0  0  0  0  0  # atno 17320 bound_to 7965
  144.7212  140.4379  143.7007 LP  0  0  0  0  0  0  0  0  0  0  0  0  # atno 17321 bound_to 7965
  140.5917  143.9767  150.6329 LP  0  0  0  0  0  0  0  0  0  0  0  0  # atno 17342 bound_to 10162
  140.2950  143.3298  152.1026 LP  0  0  0  0  0  0  0  0  0  0  0  0  # atno 17343 bound_to 10162
  155.9952  130.3913  150.2827 LP  0  0  0  0  0  0  0  0  0  0  0  0  # atno 17370 bound_to 10713
  157.0992  131.0191  151.3092 LP  0  0  0  0  0  0  0  0  0  0  0  0  # atno 17371 bound_to 10713
  140.7764  133.8696  155.8532 LP  0  0  0  0  0  0  0  0  0  0  0  0  # atno 17394 bound_to 11000
  140.9798  134.1421  157.4504 LP  0  0  0  0  0  0  0  0  0  0  0  0  # atno 17395 bound_to 11000

$$$$
