AV-unprocessed.smi:2149|AV-procd|sdf|8752|dock2
  -GOLD-   2272011523D 1   1.00000     0.00000
 Structure written by MMmdl.
 42 43  0  0  0  0  0  0  0  0  1 V2000
  150.7819  141.3470  156.4973 C   0  0  0  0  0  0  0  0  0  0  0  0
  150.2999  139.9401  155.4149 S   0  0  0  0  0  0  0  0  0  0  0  0
  151.4919  139.5035  154.6718 O   0  0  0  0  0  0  0  0  0  0  0  0
  149.5537  138.9703  156.2312 O   0  0  0  0  0  0  0  0  0  0  0  0
  149.1888  140.6425  154.2743 N   0  0  0  0  0  0  0  0  0  0  0  0
  148.3042  141.7508  154.6890 C   0  0  0  0  0  0  0  0  0  0  0  0
  146.8699  141.2636  154.9584 C   0  0  0  0  0  0  0  0  0  0  0  0
  146.3131  140.4876  153.7595 C   0  0  0  0  0  0  0  0  0  0  0  0
  147.2486  139.3135  153.4201 C   0  0  1  0  0  0  0  0  0  0  0  0
  146.7214  138.5169  152.2189 C   0  0  0  0  0  0  0  0  0  0  0  0
  146.7462  139.0071  151.0896 O   0  0  0  0  0  0  0  0  0  0  0  0
  146.2444  137.2891  152.4765 N   0  0  0  0  0  0  0  0  0  0  0  0
  145.6944  136.3788  151.4792 C   0  0  0  0  0  0  0  0  0  0  0  0
  144.6177  135.4632  152.0847 C   0  0  0  0  0  0  0  0  0  0  0  0
  144.7619  134.0251  151.6241 C   0  0  0  0  0  0  0  0  0  0  0  0
  143.6887  133.3597  150.9939 C   0  0  0  0  0  0  0  0  0  0  0  0
  143.8718  132.0223  150.5924 C   0  0  0  0  0  0  0  0  0  0  0  0
  145.1139  131.4049  150.8358 C   0  0  0  0  0  0  0  0  0  0  0  0
  146.1219  132.1553  151.4732 C   0  0  0  0  0  0  0  0  0  0  0  0
  145.9560  133.4376  151.8633 N   0  0  0  0  0  0  0  0  0  0  0  0
  148.6782  139.8333  153.1483 C   0  0  0  0  0  0  0  0  0  0  0  0
  151.5073  140.9975  157.2314 H   0  0  0  0  0  0  0  0  0  0  0  0
  149.9069  141.7277  157.0212 H   0  0  0  0  0  0  0  0  0  0  0  0
  151.2353  142.1364  155.9010 H   0  0  0  0  0  0  0  0  0  0  0  0
  148.7067  142.2514  155.5690 H   0  0  0  0  0  0  0  0  0  0  0  0
  148.2910  142.4949  153.8920 H   0  0  0  0  0  0  0  0  0  0  0  0
  146.8476  140.6329  155.8462 H   0  0  0  0  0  0  0  0  0  0  0  0
  146.2273  142.1171  155.1759 H   0  0  0  0  0  0  0  0  0  0  0  0
  145.3105  140.1241  153.9886 H   0  0  0  0  0  0  0  0  0  0  0  0
  146.2162  141.1596  152.9051 H   0  0  0  0  0  0  0  0  0  0  0  0
  147.2757  138.6451  154.2803 H   0  0  0  0  0  0  0  0  0  0  0  0
  146.2619  136.9622  153.4319 H   0  0  0  0  0  0  0  0  0  0  0  0
  145.2902  136.9439  150.6373 H   0  0  0  0  0  0  0  0  0  0  0  0
  146.5126  135.7769  151.0832 H   0  0  0  0  0  0  0  0  0  0  0  0
  144.6683  135.4973  153.1738 H   0  0  0  0  0  0  0  0  0  0  0  0
  143.6228  135.8198  151.8138 H   0  0  0  0  0  0  0  0  0  0  0  0
  142.7467  133.8596  150.8224 H   0  0  0  0  0  0  0  0  0  0  0  0
  143.0740  131.4800  150.1067 H   0  0  0  0  0  0  0  0  0  0  0  0
  145.2904  130.3810  150.5414 H   0  0  0  0  0  0  0  0  0  0  0  0
  147.0865  131.7139  151.6755 H   0  0  0  0  0  0  0  0  0  0  0  0
  148.6877  140.4563  152.2526 H   0  0  0  0  0  0  0  0  0  0  0  0
  149.3550  139.0027  152.9480 H   0  0  0  0  0  0  0  0  0  0  0  0
  1  2  1  0  0  0  0
  1 22  1  0  0  0  0
  1 23  1  0  0  0  0
  1 24  1  0  0  0  0
  2  3  2  0  0  0  0
  2  4  2  0  0  0  0
  2  5  1  0  0  0  0
  5 21  1  0  0  0  0
  5  6  1  0  0  0  0
  6  7  1  0  0  0  0
  6 25  1  0  0  0  0
  6 26  1  0  0  0  0
  7  8  1  0  0  0  0
  7 27  1  0  0  0  0
  7 28  1  0  0  0  0
  8  9  1  0  0  0  0
  8 29  1  0  0  0  0
  8 30  1  0  0  0  0
  9 10  1  0  0  0  0
  9 21  1  0  0  0  0
  9 31  1  0  0  0  0
 10 11  2  0  0  0  0
 10 12  1  0  0  0  0
 12 13  1  0  0  0  0
 12 32  1  0  0  0  0
 13 14  1  0  0  0  0
 13 33  1  0  0  0  0
 13 34  1  0  0  0  0
 14 15  1  0  0  0  0
 14 35  1  0  0  0  0
 14 36  1  0  0  0  0
 15 20  1  0  0  0  0
 15 16  2  0  0  0  0
 16 17  1  0  0  0  0
 16 37  1  0  0  0  0
 17 18  2  0  0  0  0
 17 38  1  0  0  0  0
 18 19  1  0  0  0  0
 18 39  1  0  0  0  0
 19 20  2  0  0  0  0
 19 40  1  0  0  0  0
 21 41  1  0  0  0  0
 21 42  1  0  0  0  0
M  END
> <s_m_source_file>
AV-unprocessed.smi

> <i_m_source_file_index>
2149

> <i_lp_mmshare_version>
43012

> <i_f3d_flags>
0

> <s_epik_input>
W0NIM11TKD1PKSg9TylOMVtDSDJdW0NIMl1bQ0gyXVtDQEhdKFtDSDJdMSlDKD1PKVtOSF1bQ0gyXVtDSDJdYzJbY0hdW2NIXVtjSF1bY0hdbjI=

> <s_epik_cmdline>
J2VwaWtfcHl0aG9uJywgJy1waCcsICc3LjAnLCAnLXRuJywgJzgnLCAnLW1hJywgJzIwMCcsICctbWV0YWxfYmluZGluZycsICctaW1hZScsICc8aW5maWxlLm1hZT4nLCAnLW9tYWUnLCAnPG91dGZpbGUubWFlPic=

> <r_epik_Ionization_Penalty>
0.0273806

> <r_epik_Ionization_Penalty_Charging>
0

> <r_epik_Ionization_Penalty_Neutral>
0.0273806

> <r_epik_State_Penalty>
0.0224071

> <r_epik_Charging_Adjusted_Penalty>
0.0224071

> <i_epik_Tot_Q>
0

> <i_epik_Tot_abs_Q>
0

> <r_epik_Metal_State_Penalty>
0.0214134

> <b_epik_Metal_Only>
0

> <s_lp_Force_Field>
OPLS_2005

> <r_lp_Energy>
-0.402048

> <b_lp_Chiralities_Consistent>
1

> <s_lp_Variant>
AV-unprocessed.smi:2149-1

> <Gold.Version>
5.8.1

> <Gold.Id.Protein>
6NUR|6NUR_protein|mol2

> <Gold.PLP.Fitness>
40.5653

> <Gold.PLP.PLP>
-34.0823

> <Gold.PLP.part.hbond>
-3.0000

> <Gold.PLP.part.metal>
0.0000

> <Gold.PLP.part.buried>
4.2203

> <Gold.PLP.part.nonpolar>
-36.7748

> <Gold.PLP.part.repulsive>
1.6881

> <Gold.PLP.ligand.clash>
0.0000

> <Gold.PLP.ligand.torsion>
1.8733

> <Gold.PLP.Chemscore.Hbond>
1.7020

> <Gold.PLP.Chemscore.CHOScore>
1.0000

> <Gold.PLP.Chemscore.Metal>
0.0000

> <Gold.Chemscore.Hbonds>
donor molecule, donor type, donor heavy atom, donor atom, acceptor molecule, acceptor atom, score
      P1  H  7954  7966       L1    11  0.56
      P1  H  7989  7998       L1     3  1.00
      L1  C    19    40       P1 10747  1.00

> <Gold.PLP.Chemscore.Internal.Correction>
2.1237

> <Gold.Rescore>
     Score         DG    S(hbond)    S(metal)    S(lipo)     H(rot)  DE(clash)    DE(int)     intcor
     11.04     -14.72       0.98        0.00      85.17       1.56       1.74       1.94       ----

> <Gold.Chemscore.Fitness>
11.0428

> <Gold.Chemscore.DG>
-14.7222

> <Gold.Chemscore.ZeroCoef>
-5.4800

> <Gold.Chemscore.Hbond>
0.9827

> <Gold.Chemscore.Metal>
0.0000

> <Gold.Chemscore.Lipo>
85.1678

> <Gold.Chemscore.Internal_Hbond>
0.0000

> <Gold.Chemscore.DEClash>
1.7428

> <Gold.Chemscore.DEInternal>
1.9366

> <Gold.Chemscore.Rot>
1.5643

> <Gold.Chemscore.Internal.Correction>
   9.000000E+99

> <Gold.Chemscore.Hbonds>
donor molecule, donor type, donor heavy atom, donor atom, acceptor molecule, acceptor atom, score
      P1  H  7954  7966       L1    11  0.39
      P1  H  7989  7998       L1     3  0.30

> <Gold.Chemscore.Hbond.Weighted>
-3.2822

> <Gold.Chemscore.Metal.Weighted>
-0.0000

> <Gold.Chemscore.Lipo.Weighted>
-9.9646

> <Gold.Chemscore.Internal_Hbond.Weighted>
0.0000

> <Gold.Chemscore.DEClash.Weighted>
1.7428

> <Gold.Chemscore.DEInternal.Weighted>
1.9366

> <Gold.Chemscore.Rot.Weighted>
4.0046

> <Gold.Chemscore.Internal.Correction.Weighted>
   9.000000E+99

> <Gold.Protein.RotatedTorsions>
[ 6907 6896 6895 6894 ] final  -25.24 input  -60.11 | X-H torsion
[ 7974 7965 7964 7962 ] final  112.55 input  175.53 | X-H torsion
[ 8008 7997 7996 7995 ] final  -38.35 input   59.86 | X-H torsion
[ 10167 10162 10161 10158 ] final  142.13 input  -65.29 | X-H torsion
[ 10718 10713 10712 10709 ] final   36.49 input   66.30 | X-H torsion
[ 10763 10752 10751 10750 ] final  -48.77 input  -60.55 | X-H torsion
[ 11005 11000 10999 10996 ] final  -26.54 input  -57.11 | X-H torsion

> <Gold.Protein.ActiveResidues>
 VAL166  LYS551  ARG553  GLY616  TRP617  ASP618  TYR619  PRO620  LYS621  CYS622 
 ASP623  PHE694  ASN695  SER759  ASP760  ASP761  ALA762  ILE779  LEU786  VAL792 
 PHE793  MET794  SER795  GLU796  ALA797  LYS798  CYS799  TRP800  GLU811  SER814 

> <Gold.Protein.RotatedAtoms>
  151.1780  135.0348  159.8779 H   0  0  0  0  0  0  0  0  0  0  0  0  # atno 6907 bound_to 6896
  152.5446  134.1095  159.8362 H   0  0  0  0  0  0  0  0  0  0  0  0  # atno 6908 bound_to 6896
  151.1209  133.5058  159.2634 H   0  0  0  0  0  0  0  0  0  0  0  0  # atno 6909 bound_to 6896
  145.2281  139.2831  143.4182 H   0  0  0  0  0  0  0  0  0  0  0  0  # atno 7974 bound_to 7965
  154.4038  140.1580  156.2686 H   0  0  0  0  0  0  0  0  0  0  0  0  # atno 8008 bound_to 7997
  155.8974  140.3435  155.5978 H   0  0  0  0  0  0  0  0  0  0  0  0  # atno 8009 bound_to 7997
  155.7488  140.0802  157.2201 H   0  0  0  0  0  0  0  0  0  0  0  0  # atno 8010 bound_to 7997
  139.5002  144.6127  151.6235 H   0  0  0  0  0  0  0  0  0  0  0  0  # atno 10167 bound_to 10162
  157.3355  130.7520  149.6876 H   0  0  0  0  0  0  0  0  0  0  0  0  # atno 10718 bound_to 10713
  154.0831  135.6588  153.4841 H   0  0  0  0  0  0  0  0  0  0  0  0  # atno 10763 bound_to 10752
  153.0348  135.5185  154.7454 H   0  0  0  0  0  0  0  0  0  0  0  0  # atno 10764 bound_to 10752
  154.6555  135.3007  154.9901 H   0  0  0  0  0  0  0  0  0  0  0  0  # atno 10765 bound_to 10752
  140.9038  133.7506  156.0579 H   0  0  0  0  0  0  0  0  0  0  0  0  # atno 11005 bound_to 11000
  146.3359  140.2608  142.8602 LP  0  0  0  0  0  0  0  0  0  0  0  0  # atno 17320 bound_to 7965
  144.9702  140.8361  143.5460 LP  0  0  0  0  0  0  0  0  0  0  0  0  # atno 17321 bound_to 7965
  140.5806  143.9952  150.6266 LP  0  0  0  0  0  0  0  0  0  0  0  0  # atno 17342 bound_to 10162
  140.3100  143.3204  152.0888 LP  0  0  0  0  0  0  0  0  0  0  0  0  # atno 17343 bound_to 10162
  155.9701  130.4183  150.4320 LP  0  0  0  0  0  0  0  0  0  0  0  0  # atno 17370 bound_to 10713
  157.2359  131.0514  151.2465 LP  0  0  0  0  0  0  0  0  0  0  0  0  # atno 17371 bound_to 10713
  140.8197  134.3304  157.5386 LP  0  0  0  0  0  0  0  0  0  0  0  0  # atno 17394 bound_to 11000
  139.8746  134.9302  156.3495 LP  0  0  0  0  0  0  0  0  0  0  0  0  # atno 17395 bound_to 11000

$$$$
