AV-unprocessed.smi:674|AV-procd|sdf|3301|dock5
  -GOLD-   22720 0263D 1   1.00000     0.00000
 Structure written by MMmdl.
 47 48  0  0  0  0  0  0  0  0  1 V2000
  147.8768  128.5711  152.1717 C   0  0  0  0  0  0  0  0  0  0  0  0
  146.9420  129.6189  152.7869 C   0  0  0  0  0  0  0  0  0  0  0  0
  147.6966  130.8120  153.3016 C   0  0  0  0  0  0  0  0  0  0  0  0
  147.4472  132.1885  153.0303 C   0  0  0  0  0  0  0  0  0  0  0  0
  148.4334  132.8200  153.7379 C   0  0  0  0  0  0  0  0  0  0  0  0
  148.6926  134.1512  153.8341 N   0  0  0  0  0  0  0  0  0  0  0  0
  149.0161  134.8680  154.9246 C   0  0  0  0  0  0  0  0  0  0  0  0
  149.1766  134.4141  156.0578 O   0  0  0  0  0  0  0  0  0  0  0  0
  149.1546  136.1666  154.6257 N   0  0  0  0  0  0  0  0  0  0  0  0
  149.5053  137.2002  155.5937 C   0  0  2  0  0  0  0  0  0  0  0  0
  148.7694  138.5148  155.3462 C   0  0  0  0  0  0  0  0  0  0  0  0
  150.0646  139.2192  155.7901 C   0  0  2  0  0  0  0  0  0  0  0  0
  150.1887  139.6347  157.2646 C   0  0  0  0  0  0  0  0  0  0  0  0
  150.3955  140.3209  154.9433 O   0  0  0  0  0  0  0  0  0  0  0  0
  149.4989  141.4245  154.9666 C   0  0  0  0  0  0  0  0  0  0  0  0
  150.8295  137.9479  155.2955 C   0  0  0  0  0  0  0  0  0  0  0  0
  152.0443  137.5067  156.1181 C   0  0  0  0  0  0  0  0  0  0  0  0
  151.3007  137.9657  153.8272 C   0  0  0  0  0  0  0  0  0  0  0  0
  149.2017  131.8689  154.3752 N   0  0  0  0  0  0  0  0  0  0  0  0
  150.3597  132.0211  155.2349 C   0  0  0  0  0  0  0  0  0  0  0  0
  148.7404  130.6297  154.1032 N   0  0  0  0  0  0  0  0  0  0  0  0
  147.3120  127.7148  151.8033 H   0  0  0  0  0  0  0  0  0  0  0  0
  148.5955  128.2043  152.9053 H   0  0  0  0  0  0  0  0  0  0  0  0
  148.4367  128.9873  151.3335 H   0  0  0  0  0  0  0  0  0  0  0  0
  146.2142  129.9357  152.0392 H   0  0  0  0  0  0  0  0  0  0  0  0
  146.3666  129.1635  153.5938 H   0  0  0  0  0  0  0  0  0  0  0  0
  146.6737  132.6171  152.4113 H   0  0  0  0  0  0  0  0  0  0  0  0
  148.6268  134.6654  152.9681 H   0  0  0  0  0  0  0  0  0  0  0  0
  149.0123  136.4605  153.6706 H   0  0  0  0  0  0  0  0  0  0  0  0
  149.4199  136.8800  156.6348 H   0  0  0  0  0  0  0  0  0  0  0  0
  148.5134  138.6851  154.2987 H   0  0  0  0  0  0  0  0  0  0  0  0
  147.9117  138.6815  155.9984 H   0  0  0  0  0  0  0  0  0  0  0  0
  150.0808  138.7840  157.9372 H   0  0  0  0  0  0  0  0  0  0  0  0
  149.4185  140.3500  157.5520 H   0  0  0  0  0  0  0  0  0  0  0  0
  151.1576  140.0907  157.4682 H   0  0  0  0  0  0  0  0  0  0  0  0
  149.8051  142.1479  154.2113 H   0  0  0  0  0  0  0  0  0  0  0  0
  149.5091  141.9375  155.9279 H   0  0  0  0  0  0  0  0  0  0  0  0
  148.4756  141.1251  154.7391 H   0  0  0  0  0  0  0  0  0  0  0  0
  152.8398  138.2516  156.0847 H   0  0  0  0  0  0  0  0  0  0  0  0
  152.4568  136.5666  155.7502 H   0  0  0  0  0  0  0  0  0  0  0  0
  151.7923  137.3461  157.1660 H   0  0  0  0  0  0  0  0  0  0  0  0
  152.1263  138.6632  153.6825 H   0  0  0  0  0  0  0  0  0  0  0  0
  150.5083  138.2645  153.1407 H   0  0  0  0  0  0  0  0  0  0  0  0
  151.6483  136.9840  153.5038 H   0  0  0  0  0  0  0  0  0  0  0  0
  150.5586  133.0743  155.4329 H   0  0  0  0  0  0  0  0  0  0  0  0
  151.2332  131.5809  154.7532 H   0  0  0  0  0  0  0  0  0  0  0  0
  150.1825  131.5137  156.1835 H   0  0  0  0  0  0  0  0  0  0  0  0
  1  2  1  0  0  0  0
  1 22  1  0  0  0  0
  1 23  1  0  0  0  0
  1 24  1  0  0  0  0
  2  3  1  0  0  0  0
  2 25  1  0  0  0  0
  2 26  1  0  0  0  0
  3 21  2  0  0  0  0
  3  4  1  0  0  0  0
  4  5  2  0  0  0  0
  4 27  1  0  0  0  0
  5  6  1  0  0  0  0
  5 19  1  0  0  0  0
  6  7  1  0  0  0  0
  6 28  1  0  0  0  0
  7  8  2  0  0  0  0
  7  9  1  0  0  0  0
  9 10  1  0  0  0  0
  9 29  1  0  0  0  0
 10 16  1  0  0  0  0
 10 11  1  0  0  0  0
 10 30  1  0  0  0  0
 11 12  1  0  0  0  0
 11 31  1  0  0  0  0
 11 32  1  0  0  0  0
 12 13  1  0  0  0  0
 12 14  1  0  0  0  0
 12 16  1  0  0  0  0
 13 33  1  0  0  0  0
 13 34  1  0  0  0  0
 13 35  1  0  0  0  0
 14 15  1  0  0  0  0
 15 36  1  0  0  0  0
 15 37  1  0  0  0  0
 15 38  1  0  0  0  0
 16 17  1  0  0  0  0
 16 18  1  0  0  0  0
 17 39  1  0  0  0  0
 17 40  1  0  0  0  0
 17 41  1  0  0  0  0
 18 42  1  0  0  0  0
 18 43  1  0  0  0  0
 18 44  1  0  0  0  0
 19 20  1  0  0  0  0
 19 21  1  0  0  0  0
 20 45  1  0  0  0  0
 20 46  1  0  0  0  0
 20 47  1  0  0  0  0
M  END
> <s_m_source_file>
AV-unprocessed.smi

> <i_m_source_file_index>
674

> <i_lp_mmshare_version>
43012

> <i_f3d_flags>
0

> <s_epik_input>
W0NIM11bQ0gyXWMxW2NIXWMobihuMSlbQ0gzXSlbTkhdQyg9TylbTkhdW0NAQEhdKEMyKFtDSDNdKVtDSDNdKVtDSDJdW0NAQF0yKFtDSDNdKU9bQ0gzXQ==

> <s_epik_cmdline>
J2VwaWtfcHl0aG9uJywgJy1waCcsICc3LjAnLCAnLXRuJywgJzgnLCAnLW1hJywgJzIwMCcsICctbWV0YWxfYmluZGluZycsICctaW1hZScsICc8aW5maWxlLm1hZT4nLCAnLW9tYWUnLCAnPG91dGZpbGUubWFlPic=

> <r_lp_tautomer_probability>
1

> <r_epik_Ionization_Penalty>
0.000101626

> <r_epik_Ionization_Penalty_Charging>
0

> <r_epik_Ionization_Penalty_Neutral>
0.000101626

> <r_epik_State_Penalty>
-0

> <r_epik_Charging_Adjusted_Penalty>
0

> <i_epik_Tot_Q>
0

> <i_epik_Tot_abs_Q>
0

> <r_epik_Metal_State_Penalty>
-0

> <b_epik_Metal_Only>
0

> <s_lp_Force_Field>
OPLS_2005

> <r_lp_Energy>
22.7641

> <b_lp_Chiralities_Consistent>
1

> <s_lp_Variant>
AV-unprocessed.smi:674-3

> <Gold.Version>
5.8.1

> <Gold.Id.Protein>
6NUR|6NUR_protein|mol2

> <Gold.PLP.Fitness>
37.0220

> <Gold.PLP.PLP>
-29.0556

> <Gold.PLP.part.hbond>
-3.0000

> <Gold.PLP.part.metal>
0.0000

> <Gold.PLP.part.buried>
-2.6302

> <Gold.PLP.part.nonpolar>
-24.0365

> <Gold.PLP.part.repulsive>
0.1629

> <Gold.PLP.ligand.clash>
0.0000

> <Gold.PLP.ligand.torsion>
0.7048

> <Gold.PLP.Chemscore.Hbond>
3.0000

> <Gold.PLP.Chemscore.CHOScore>
0.0000

> <Gold.PLP.Chemscore.Metal>
0.0000

> <Gold.Chemscore.Hbonds>
donor molecule, donor type, donor heavy atom, donor atom, acceptor molecule, acceptor atom, score
      L1  H     6    28       P1  7948  0.95
      L1  H     9    29       P1  7948  1.00
      P1  H  7989  7998       L1    14  1.00

> <Gold.PLP.Chemscore.Internal.Correction>
0.3760

> <Gold.Rescore>
     Score         DG    S(hbond)    S(metal)    S(lipo)     H(rot)  DE(clash)    DE(int)     intcor
     15.38     -17.91       2.33        0.00      69.66       1.37       0.69       1.85       ----

> <Gold.Chemscore.Fitness>
15.3780

> <Gold.Chemscore.DG>
-17.9137

> <Gold.Chemscore.ZeroCoef>
-5.4800

> <Gold.Chemscore.Hbond>
2.3292

> <Gold.Chemscore.Metal>
0.0000

> <Gold.Chemscore.Lipo>
69.6618

> <Gold.Chemscore.Internal_Hbond>
0.0000

> <Gold.Chemscore.DEClash>
0.6861

> <Gold.Chemscore.DEInternal>
1.8497

> <Gold.Chemscore.Rot>
1.3658

> <Gold.Chemscore.Internal.Correction>
   9.000000E+99

> <Gold.Chemscore.Hbonds>
donor molecule, donor type, donor heavy atom, donor atom, acceptor molecule, acceptor atom, score
      L1  H     6    28       P1  7948  0.21
      L1  H     9    29       P1  7948  0.97
      P1  H  7989  7998       L1    14  0.25

> <Gold.Chemscore.Hbond.Weighted>
-7.7796

> <Gold.Chemscore.Metal.Weighted>
-0.0000

> <Gold.Chemscore.Lipo.Weighted>
-8.1504

> <Gold.Chemscore.Internal_Hbond.Weighted>
0.0000

> <Gold.Chemscore.DEClash.Weighted>
0.6861

> <Gold.Chemscore.DEInternal.Weighted>
1.8497

> <Gold.Chemscore.Rot.Weighted>
3.4963

> <Gold.Chemscore.Internal.Correction.Weighted>
   9.000000E+99

> <Gold.Protein.RotatedTorsions>
[ 6907 6896 6895 6894 ] final  -94.94 input  -60.11 | X-H torsion
[ 7974 7965 7964 7962 ] final   47.18 input  175.53 | X-H torsion
[ 8008 7997 7996 7995 ] final -162.99 input   59.86 | X-H torsion
[ 10167 10162 10161 10158 ] final  -31.78 input  -65.29 | X-H torsion
[ 10718 10713 10712 10709 ] final -165.44 input   66.30 | X-H torsion
[ 10763 10752 10751 10750 ] final   32.13 input  -60.55 | X-H torsion
[ 11005 11000 10999 10996 ] final  -16.53 input  -57.11 | X-H torsion

> <Gold.Protein.ActiveResidues>
 VAL166  LYS551  ARG553  GLY616  TRP617  ASP618  TYR619  PRO620  LYS621  CYS622 
 ASP623  PHE694  ASN695  SER759  ASP760  ASP761  ALA762  ILE779  LEU786  VAL792 
 PHE793  MET794  SER795  GLU796  ALA797  LYS798  CYS799  TRP800  GLU811  SER814 

> <Gold.Protein.RotatedAtoms>
  150.6952  134.1735  159.4220 H   0  0  0  0  0  0  0  0  0  0  0  0  # atno 6907 bound_to 6896
  151.9712  135.0073  160.0562 H   0  0  0  0  0  0  0  0  0  0  0  0  # atno 6908 bound_to 6896
  152.1840  133.4692  159.5010 H   0  0  0  0  0  0  0  0  0  0  0  0  # atno 6909 bound_to 6896
  146.0321  139.4777  142.9831 H   0  0  0  0  0  0  0  0  0  0  0  0  # atno 7974 bound_to 7965
  155.8149  140.0911  157.1883 H   0  0  0  0  0  0  0  0  0  0  0  0  # atno 8008 bound_to 7997
  154.3979  140.1448  156.3490 H   0  0  0  0  0  0  0  0  0  0  0  0  # atno 8009 bound_to 7997
  155.8327  140.3442  155.5585 H   0  0  0  0  0  0  0  0  0  0  0  0  # atno 8010 bound_to 7997
  140.7231  143.3744  151.1716 H   0  0  0  0  0  0  0  0  0  0  0  0  # atno 10167 bound_to 10162
  156.6534  130.9016  151.3017 H   0  0  0  0  0  0  0  0  0  0  0  0  # atno 10718 bound_to 10713
  153.0278  135.6421  154.1308 H   0  0  0  0  0  0  0  0  0  0  0  0  # atno 10763 bound_to 10752
  154.1034  135.2858  155.3248 H   0  0  0  0  0  0  0  0  0  0  0  0  # atno 10764 bound_to 10752
  154.6382  135.5469  153.7822 H   0  0  0  0  0  0  0  0  0  0  0  0  # atno 10765 bound_to 10752
  140.8077  133.8165  155.9532 H   0  0  0  0  0  0  0  0  0  0  0  0  # atno 11005 bound_to 11000
  145.7023  141.0132  143.1498 LP  0  0  0  0  0  0  0  0  0  0  0  0  # atno 17320 bound_to 7965
  144.7035  139.8659  143.7437 LP  0  0  0  0  0  0  0  0  0  0  0  0  # atno 17321 bound_to 7965
  139.7322  143.9055  152.3023 LP  0  0  0  0  0  0  0  0  0  0  0  0  # atno 17342 bound_to 10162
  139.8848  144.6998  150.8837 LP  0  0  0  0  0  0  0  0  0  0  0  0  # atno 17343 bound_to 10162
  157.7133  130.9467  150.1166 LP  0  0  0  0  0  0  0  0  0  0  0  0  # atno 17370 bound_to 10713
  156.2067  130.3664  149.8721 LP  0  0  0  0  0  0  0  0  0  0  0  0  # atno 17371 bound_to 10713
  140.9230  134.2118  157.4914 LP  0  0  0  0  0  0  0  0  0  0  0  0  # atno 17394 bound_to 11000
  139.8716  134.9800  156.5060 LP  0  0  0  0  0  0  0  0  0  0  0  0  # atno 17395 bound_to 11000

$$$$
