AV-unprocessed.smi:3279|AV-procd|sdf|12549|dock2
  -GOLD-   2272018463D 1   1.00000     0.00000
 Structure written by MMmdl.
 35 35  0  0  0  0  0  0  0  0  2 V2000
  150.3747  132.6129  155.0462 C   0  0  0  0  0  0  0  0  0  0  0  0
  149.8945  134.0725  155.0177 C   0  0  1  0  0  0  0  0  0  0  0  0
  148.3607  134.1889  154.8819 C   0  0  0  0  0  0  0  0  0  0  0  0
  147.9417  134.2224  153.4820 N   0  0  0  0  0  0  0  0  0  0  0  0
  146.8130  133.6902  152.9874 C   0  0  0  0  0  0  0  0  0  0  0  0
  146.0204  133.0274  153.6573 O   0  0  0  0  0  0  0  0  0  0  0  0
  146.5370  133.9547  151.5080 C   0  0  0  0  0  0  0  0  0  0  0  0
  145.2631  133.4092  151.1775 O   0  0  0  0  0  0  0  0  0  0  0  0
  145.2079  132.0749  150.6677 C   0  0  0  0  0  0  0  0  0  0  0  0
  145.9195  131.9649  149.3044 C   0  0  0  0  0  0  0  0  0  0  0  0
  143.7062  131.8016  150.4856 C   0  0  0  0  0  0  0  0  0  0  0  0
  145.7941  131.0769  151.6857 C   0  0  0  0  0  0  0  0  0  0  0  0
  150.4360  134.8561  156.1821 C   0  0  0  0  0  0  0  0  0  0  0  0
  149.6587  135.3168  157.1741 N   0  0  0  0  0  0  0  0  0  0  0  0
  150.5271  135.9112  158.0031 N   0  0  0  0  0  0  0  0  0  0  0  0
  151.7675  135.8020  157.5129 N   0  0  0  0  0  0  0  0  0  0  0  0
  151.7388  135.1337  156.3523 N   0  5  0  0  0  0  0  0  0  0  0  0
  151.4637  132.5595  155.0585 H   0  0  0  0  0  0  0  0  0  0  0  0
  150.0268  132.0679  154.1685 H   0  0  0  0  0  0  0  0  0  0  0  0
  150.0053  132.0897  155.9288 H   0  0  0  0  0  0  0  0  0  0  0  0
  150.2999  134.4880  154.0933 H   0  0  0  0  0  0  0  0  0  0  0  0
  147.8804  133.3351  155.3604 H   0  0  0  0  0  0  0  0  0  0  0  0
  148.0104  135.0729  155.4172 H   0  0  0  0  0  0  0  0  0  0  0  0
  148.5251  134.7511  152.8500 H   0  0  0  0  0  0  0  0  0  0  0  0
  146.5599  135.0297  151.3269 H   0  0  0  0  0  0  0  0  0  0  0  0
  147.3340  133.4940  150.9254 H   0  0  0  0  0  0  0  0  0  0  0  0
  145.7470  130.9884  148.8510 H   0  0  0  0  0  0  0  0  0  0  0  0
  146.9989  132.0857  149.3946 H   0  0  0  0  0  0  0  0  0  0  0  0
  145.5556  132.7212  148.6081 H   0  0  0  0  0  0  0  0  0  0  0  0
  143.2594  132.5083  149.7851 H   0  0  0  0  0  0  0  0  0  0  0  0
  143.1702  131.8952  151.4307 H   0  0  0  0  0  0  0  0  0  0  0  0
  143.5268  130.7969  150.1015 H   0  0  0  0  0  0  0  0  0  0  0  0
  145.6177  130.0482  151.3701 H   0  0  0  0  0  0  0  0  0  0  0  0
  145.3386  131.2030  152.6684 H   0  0  0  0  0  0  0  0  0  0  0  0
  146.8717  131.1928  151.8000 H   0  0  0  0  0  0  0  0  0  0  0  0
  1  2  1  0  0  0  0
  1 18  1  0  0  0  0
  1 19  1  0  0  0  0
  1 20  1  0  0  0  0
  2  3  1  0  0  0  0
  2 13  1  0  0  0  0
  2 21  1  0  0  0  0
  3  4  1  0  0  0  0
  3 22  1  0  0  0  0
  3 23  1  0  0  0  0
  4  5  1  0  0  0  0
  4 24  1  0  0  0  0
  5  6  2  0  0  0  0
  5  7  1  0  0  0  0
  7  8  1  0  0  0  0
  7 25  1  0  0  0  0
  7 26  1  0  0  0  0
  8  9  1  0  0  0  0
  9 10  1  0  0  0  0
  9 11  1  0  0  0  0
  9 12  1  0  0  0  0
 10 27  1  0  0  0  0
 10 28  1  0  0  0  0
 10 29  1  0  0  0  0
 11 30  1  0  0  0  0
 11 31  1  0  0  0  0
 11 32  1  0  0  0  0
 12 33  1  0  0  0  0
 12 34  1  0  0  0  0
 12 35  1  0  0  0  0
 13 17  1  0  0  0  0
 13 14  2  0  0  0  0
 14 15  1  0  0  0  0
 15 16  2  0  0  0  0
 16 17  1  0  0  0  0
M  CHG  1  17  -1
M  END
> <s_m_source_file>
AV-unprocessed.smi

> <i_m_source_file_index>
3279

> <i_lp_mmshare_version>
43012

> <i_f3d_flags>
0

> <s_epik_input>
W25IXTFubm5jMVtDQEhdKFtDSDNdKVtDSDJdW05IXUMoPU8pW0NIMl1PQyhbQ0gzXSkoW0NIM10pW0NIM10=

> <s_epik_cmdline>
J2VwaWtfcHl0aG9uJywgJy1waCcsICc3LjAnLCAnLXRuJywgJzgnLCAnLW1hJywgJzIwMCcsICctbWV0YWxfYmluZGluZycsICctaW1hZScsICc8aW5maWxlLm1hZT4nLCAnLW9tYWUnLCAnPG91dGZpbGUubWFlPic=

> <r_epik_Ionization_Penalty>
0.054353

> <r_epik_Ionization_Penalty_Charging>
0.054353

> <r_epik_Ionization_Penalty_Neutral>
3.0997e-08

> <r_epik_State_Penalty>
0.0139445

> <r_epik_Charging_Adjusted_Penalty>
0.0682975

> <i_epik_Tot_Q>
-1

> <i_epik_Tot_abs_Q>
1

> <r_epik_Metal_State_Penalty>
0.0109703

> <b_epik_Metal_Only>
0

> <s_lp_Force_Field>
OPLS_2005

> <r_lp_Energy>
1.27922

> <b_lp_Chiralities_Consistent>
1

> <s_lp_Variant>
AV-unprocessed.smi:3279-2

> <Gold.Version>
5.8.1

> <Gold.Id.Protein>
6NUR|6NUR_protein|mol2

> <Gold.PLP.Fitness>
36.0615

> <Gold.PLP.PLP>
-27.2780

> <Gold.PLP.part.hbond>
-4.0000

> <Gold.PLP.part.metal>
0.0000

> <Gold.PLP.part.buried>
-4.1580

> <Gold.PLP.part.nonpolar>
-18.8127

> <Gold.PLP.part.repulsive>
0.2200

> <Gold.PLP.ligand.clash>
0.0000

> <Gold.PLP.ligand.torsion>
1.0731

> <Gold.PLP.Chemscore.Hbond>
3.6080

> <Gold.PLP.Chemscore.CHOScore>
0.0000

> <Gold.PLP.Chemscore.Metal>
0.0000

> <Gold.Chemscore.Hbonds>
donor molecule, donor type, donor heavy atom, donor atom, acceptor molecule, acceptor atom, score
      L1  H     4    24       P1  7948  1.00
      P1  H  6896  6908       L1    15  0.56
      P1  H 10752 10764       L1    17  2.00

> <Gold.PLP.Chemscore.Internal.Correction>
0.1056

> <Gold.Rescore>
     Score         DG    S(hbond)    S(metal)    S(lipo)     H(rot)  DE(clash)    DE(int)     intcor
      9.84     -12.08       1.94        0.00      58.89       2.64       0.03       2.21       ----

> <Gold.Chemscore.Fitness>
9.8417

> <Gold.Chemscore.DG>
-12.0838

> <Gold.Chemscore.ZeroCoef>
-5.4800

> <Gold.Chemscore.Hbond>
1.9386

> <Gold.Chemscore.Metal>
0.0000

> <Gold.Chemscore.Lipo>
58.8853

> <Gold.Chemscore.Internal_Hbond>
0.0000

> <Gold.Chemscore.DEClash>
0.0310

> <Gold.Chemscore.DEInternal>
2.2111

> <Gold.Chemscore.Rot>
2.6409

> <Gold.Chemscore.Internal.Correction>
   9.000000E+99

> <Gold.Chemscore.Hbonds>
donor molecule, donor type, donor heavy atom, donor atom, acceptor molecule, acceptor atom, score
      L1  H     4    24       P1  7948  0.34
      P1  H  6896  6908       L1    15  0.05
      P1  H 10752 10764       L1    17  0.93

> <Gold.Chemscore.Hbond.Weighted>
-6.4749

> <Gold.Chemscore.Metal.Weighted>
-0.0000

> <Gold.Chemscore.Lipo.Weighted>
-6.8896

> <Gold.Chemscore.Internal_Hbond.Weighted>
0.0000

> <Gold.Chemscore.DEClash.Weighted>
0.0310

> <Gold.Chemscore.DEInternal.Weighted>
2.2111

> <Gold.Chemscore.Rot.Weighted>
6.7607

> <Gold.Chemscore.Internal.Correction.Weighted>
   9.000000E+99

> <Gold.Protein.RotatedTorsions>
[ 6907 6896 6895 6894 ] final  170.38 input  -60.11 | X-H torsion
[ 7974 7965 7964 7962 ] final  156.13 input  175.53 | X-H torsion
[ 8008 7997 7996 7995 ] final  -50.80 input   59.86 | X-H torsion
[ 10167 10162 10161 10158 ] final  -97.97 input  -65.29 | X-H torsion
[ 10718 10713 10712 10709 ] final  -65.31 input   66.30 | X-H torsion
[ 10763 10752 10751 10750 ] final  -27.00 input  -60.55 | X-H torsion
[ 11005 11000 10999 10996 ] final   32.96 input  -57.11 | X-H torsion

> <Gold.Protein.ActiveResidues>
 VAL166  LYS551  ARG553  GLY616  TRP617  ASP618  TYR619  PRO620  LYS621  CYS622 
 ASP623  PHE694  ASN695  SER759  ASP760  ASP761  ALA762  ILE779  LEU786  VAL792 
 PHE793  MET794  SER795  GLU796  ALA797  LYS798  CYS799  TRP800  GLU811  SER814 

> <Gold.Protein.RotatedAtoms>
  151.8169  133.3389  159.3572 H   0  0  0  0  0  0  0  0  0  0  0  0  # atno 6907 bound_to 6896
  150.7307  134.5610  159.5852 H   0  0  0  0  0  0  0  0  0  0  0  0  # atno 6908 bound_to 6896
  152.3034  134.7585  160.0404 H   0  0  0  0  0  0  0  0  0  0  0  0  # atno 6909 bound_to 6896
  144.7982  139.7161  143.6193 H   0  0  0  0  0  0  0  0  0  0  0  0  # atno 7974 bound_to 7965
  154.4069  140.1263  156.4726 H   0  0  0  0  0  0  0  0  0  0  0  0  # atno 8008 bound_to 7997
  155.7165  140.3493  155.4977 H   0  0  0  0  0  0  0  0  0  0  0  0  # atno 8009 bound_to 7997
  155.9253  140.1060  157.1165 H   0  0  0  0  0  0  0  0  0  0  0  0  # atno 8010 bound_to 7997
  140.2779  143.3301  152.0470 H   0  0  0  0  0  0  0  0  0  0  0  0  # atno 10167 bound_to 10162
  156.0677  130.4245  150.1546 H   0  0  0  0  0  0  0  0  0  0  0  0  # atno 10718 bound_to 10713
  153.7251  135.6942  153.5003 H   0  0  0  0  0  0  0  0  0  0  0  0  # atno 10763 bound_to 10752
  153.2176  135.4381  155.0451 H   0  0  0  0  0  0  0  0  0  0  0  0  # atno 10764 bound_to 10752
  154.8271  135.3452  154.6783 H   0  0  0  0  0  0  0  0  0  0  0  0  # atno 10765 bound_to 10752
  140.2680  134.3115  155.7836 H   0  0  0  0  0  0  0  0  0  0  0  0  # atno 11005 bound_to 11000
  146.2256  139.5717  142.9589 LP  0  0  0  0  0  0  0  0  0  0  0  0  # atno 17320 bound_to 7965
  145.5619  141.0403  143.2221 LP  0  0  0  0  0  0  0  0  0  0  0  0  # atno 17321 bound_to 7965
  139.4970  144.6612  151.6460 LP  0  0  0  0  0  0  0  0  0  0  0  0  # atno 17342 bound_to 10162
  140.5836  143.9903  150.6282 LP  0  0  0  0  0  0  0  0  0  0  0  0  # atno 17343 bound_to 10162
  156.9603  130.9802  151.3480 LP  0  0  0  0  0  0  0  0  0  0  0  0  # atno 17370 bound_to 10713
  157.5729  130.8323  149.8416 LP  0  0  0  0  0  0  0  0  0  0  0  0  # atno 17371 bound_to 10713
  141.2181  133.7449  156.9290 LP  0  0  0  0  0  0  0  0  0  0  0  0  # atno 17394 bound_to 11000
  140.1400  134.9300  157.2454 LP  0  0  0  0  0  0  0  0  0  0  0  0  # atno 17395 bound_to 11000

$$$$
