AV-unprocessed.smi:2329|AV-procd|sdf|9305|dock3
  -GOLD-   2272012523D 1   1.00000     0.00000
 Structure written by MMmdl.
 45 48  0  0  0  0  0  0  0  0  1 V2000
  147.8968  132.3877  160.5646 C   0  0  0  0  0  0  0  0  0  0  0  0
  147.6818  133.8147  161.0224 C   0  0  0  0  0  0  0  0  0  0  0  0
  147.0078  134.0966  162.2269 C   0  0  0  0  0  0  0  0  0  0  0  0
  146.8439  135.4439  162.5951 C   0  0  0  0  0  0  0  0  0  0  0  0
  147.3568  136.4465  161.7499 C   0  0  0  0  0  0  0  0  0  0  0  0
  148.0191  136.0781  160.5574 C   0  0  0  0  0  0  0  0  0  0  0  0
  148.4957  137.1626  159.7768 N   0  0  0  0  0  0  0  0  0  0  0  0
  149.6479  137.2562  159.0845 C   0  0  0  0  0  0  0  0  0  0  0  0
  150.5019  136.3739  159.0182 O   0  0  0  0  0  0  0  0  0  0  0  0
  149.7980  138.4220  158.4311 N   0  0  0  0  0  0  0  0  0  0  0  0
  150.9268  138.8359  157.5956 C   0  0  1  0  0  0  0  0  0  0  0  0
  150.5644  138.8423  156.1016 C   0  0  2  0  0  0  0  0  0  0  0  0
  151.2349  137.8751  155.1648 C   0  0  0  0  0  0  0  0  0  0  0  0
  152.3827  138.7047  154.5830 C   0  0  0  0  0  0  0  0  0  0  0  0
  152.5946  139.7427  155.5371 O   0  0  0  0  0  0  0  0  0  0  0  0
  151.3155  140.1612  156.0072 C   0  0  2  0  0  0  0  0  0  0  0  0
  151.1664  140.3648  157.5300 C   0  0  0  0  0  0  0  0  0  0  0  0
  150.0520  141.3244  157.9540 C   0  0  0  0  0  0  0  0  0  0  0  0
  150.6823  142.7152  158.0047 C   0  0  0  0  0  0  0  0  0  0  0  0
  152.1543  142.4756  158.3523 C   0  0  0  0  0  0  0  0  0  0  0  0
  152.3652  140.9588  158.2695 C   0  0  0  0  0  0  0  0  0  0  0  0
  148.1734  134.7760  160.2112 N   0  0  0  0  0  0  0  0  0  0  0  0
  147.3917  131.6804  161.2229 H   0  0  0  0  0  0  0  0  0  0  0  0
  148.9607  132.1484  160.5590 H   0  0  0  0  0  0  0  0  0  0  0  0
  147.5080  132.2499  159.5551 H   0  0  0  0  0  0  0  0  0  0  0  0
  146.6258  133.3043  162.8537 H   0  0  0  0  0  0  0  0  0  0  0  0
  146.3333  135.7047  163.5103 H   0  0  0  0  0  0  0  0  0  0  0  0
  147.2387  137.4866  162.0175 H   0  0  0  0  0  0  0  0  0  0  0  0
  147.8832  137.9633  159.7273 H   0  0  0  0  0  0  0  0  0  0  0  0
  149.0344  139.0794  158.4989 H   0  0  0  0  0  0  0  0  0  0  0  0
  151.8498  138.2815  157.7813 H   0  0  0  0  0  0  0  0  0  0  0  0
  149.4954  138.9794  155.9279 H   0  0  0  0  0  0  0  0  0  0  0  0
  151.6168  137.0094  155.7070 H   0  0  0  0  0  0  0  0  0  0  0  0
  150.5650  137.5129  154.3846 H   0  0  0  0  0  0  0  0  0  0  0  0
  153.2868  138.1177  154.4198 H   0  0  0  0  0  0  0  0  0  0  0  0
  152.0885  139.1522  153.6325 H   0  0  0  0  0  0  0  0  0  0  0  0
  150.8350  140.9046  155.3692 H   0  0  0  0  0  0  0  0  0  0  0  0
  149.1942  141.2976  157.2812 H   0  0  0  0  0  0  0  0  0  0  0  0
  149.6843  141.0712  158.9489 H   0  0  0  0  0  0  0  0  0  0  0  0
  150.6106  143.1867  157.0239 H   0  0  0  0  0  0  0  0  0  0  0  0
  150.1836  143.3675  158.7221 H   0  0  0  0  0  0  0  0  0  0  0  0
  152.7998  142.9986  157.6456 H   0  0  0  0  0  0  0  0  0  0  0  0
  152.3942  142.8442  159.3502 H   0  0  0  0  0  0  0  0  0  0  0  0
  152.4211  140.5511  159.2789 H   0  0  0  0  0  0  0  0  0  0  0  0
  153.3148  140.7206  157.7900 H   0  0  0  0  0  0  0  0  0  0  0  0
  1  2  1  0  0  0  0
  1 23  1  0  0  0  0
  1 24  1  0  0  0  0
  1 25  1  0  0  0  0
  2 22  1  0  0  0  0
  2  3  2  0  0  0  0
  3  4  1  0  0  0  0
  3 26  1  0  0  0  0
  4  5  2  0  0  0  0
  4 27  1  0  0  0  0
  5  6  1  0  0  0  0
  5 28  1  0  0  0  0
  6  7  1  0  0  0  0
  6 22  2  0  0  0  0
  7  8  1  0  0  0  0
  7 29  1  0  0  0  0
  8  9  2  0  0  0  0
  8 10  1  0  0  0  0
 10 11  1  0  0  0  0
 10 30  1  0  0  0  0
 11 17  1  0  0  0  0
 11 12  1  0  0  0  0
 11 31  1  0  0  0  0
 12 16  1  0  0  0  0
 12 13  1  0  0  0  0
 12 32  1  0  0  0  0
 13 14  1  0  0  0  0
 13 33  1  0  0  0  0
 13 34  1  0  0  0  0
 14 15  1  0  0  0  0
 14 35  1  0  0  0  0
 14 36  1  0  0  0  0
 15 16  1  0  0  0  0
 16 17  1  0  0  0  0
 16 37  1  0  0  0  0
 17 21  1  0  0  0  0
 17 18  1  0  0  0  0
 18 19  1  0  0  0  0
 18 38  1  0  0  0  0
 18 39  1  0  0  0  0
 19 20  1  0  0  0  0
 19 40  1  0  0  0  0
 19 41  1  0  0  0  0
 20 21  1  0  0  0  0
 20 42  1  0  0  0  0
 20 43  1  0  0  0  0
 21 44  1  0  0  0  0
 21 45  1  0  0  0  0
M  END
> <s_m_source_file>
AV-unprocessed.smi

> <i_m_source_file_index>
2329

> <i_lp_mmshare_version>
43012

> <i_f3d_flags>
0

> <s_epik_input>
W0NIM11jMVtjSF1bY0hdW2NIXWMobjEpW05IXUMoPU8pW05IXVtDQEBIXTJbQ0BASF0oW0NIMl1bQ0gyXU8zKVtDQEhdM0MyNFtDSDJdW0NIMl1bQ0gyXVtDSDJdNA==

> <s_epik_cmdline>
J2VwaWtfcHl0aG9uJywgJy1waCcsICc3LjAnLCAnLXRuJywgJzgnLCAnLW1hJywgJzIwMCcsICctbWV0YWxfYmluZGluZycsICctaW1hZScsICc8aW5maWxlLm1hZT4nLCAnLW9tYWUnLCAnPG91dGZpbGUubWFlPic=

> <r_lp_tautomer_probability>
1

> <r_epik_Ionization_Penalty>
8.97002e-05

> <r_epik_Ionization_Penalty_Charging>
0

> <r_epik_Ionization_Penalty_Neutral>
8.97002e-05

> <r_epik_State_Penalty>
-0

> <r_epik_Charging_Adjusted_Penalty>
0

> <i_epik_Tot_Q>
0

> <i_epik_Tot_abs_Q>
0

> <r_epik_Metal_State_Penalty>
-0

> <b_epik_Metal_Only>
0

> <s_lp_Force_Field>
OPLS_2005

> <r_lp_Energy>
64.4638

> <b_lp_Chiralities_Consistent>
1

> <s_lp_Variant>
AV-unprocessed.smi:2329-4

> <Gold.Version>
5.8.1

> <Gold.Id.Protein>
6NUR|6NUR_protein|mol2

> <Gold.PLP.Fitness>
44.7360

> <Gold.PLP.PLP>
-39.6451

> <Gold.PLP.part.hbond>
-2.2413

> <Gold.PLP.part.metal>
0.0000

> <Gold.PLP.part.buried>
-6.4304

> <Gold.PLP.part.nonpolar>
-31.9439

> <Gold.PLP.part.repulsive>
0.5417

> <Gold.PLP.ligand.clash>
0.0000

> <Gold.PLP.ligand.torsion>
0.5464

> <Gold.PLP.Chemscore.Hbond>
2.0000

> <Gold.PLP.Chemscore.CHOScore>
0.0000

> <Gold.PLP.Chemscore.Metal>
0.0000

> <Gold.Chemscore.Hbonds>
donor molecule, donor type, donor heavy atom, donor atom, acceptor molecule, acceptor atom, score
      P1  H  6896  6907       L1     9  1.00
      P1  H  7997  8008       L1    15  1.00

> <Gold.PLP.Chemscore.Internal.Correction>
0.1838

> <Gold.Rescore>
     Score         DG    S(hbond)    S(metal)    S(lipo)     H(rot)  DE(clash)    DE(int)     intcor
     20.06     -21.36       1.95        0.00     101.79       1.00       0.01       1.29       ----

> <Gold.Chemscore.Fitness>
20.0584

> <Gold.Chemscore.DG>
-21.3551

> <Gold.Chemscore.ZeroCoef>
-5.4800

> <Gold.Chemscore.Hbond>
1.9537

> <Gold.Chemscore.Metal>
0.0000

> <Gold.Chemscore.Lipo>
101.7943

> <Gold.Chemscore.Internal_Hbond>
0.0000

> <Gold.Chemscore.DEClash>
0.0105

> <Gold.Chemscore.DEInternal>
1.2863

> <Gold.Chemscore.Rot>
1.0000

> <Gold.Chemscore.Internal.Correction>
   9.000000E+99

> <Gold.Chemscore.Hbonds>
donor molecule, donor type, donor heavy atom, donor atom, acceptor molecule, acceptor atom, score
      P1  H  6896  6907       L1     9  0.97
      P1  H  7997  8008       L1    15  0.91

> <Gold.Chemscore.Hbond.Weighted>
-6.5252

> <Gold.Chemscore.Metal.Weighted>
-0.0000

> <Gold.Chemscore.Lipo.Weighted>
-11.9099

> <Gold.Chemscore.Internal_Hbond.Weighted>
0.0000

> <Gold.Chemscore.DEClash.Weighted>
0.0105

> <Gold.Chemscore.DEInternal.Weighted>
1.2863

> <Gold.Chemscore.Rot.Weighted>
2.5600

> <Gold.Chemscore.Internal.Correction.Weighted>
   9.000000E+99

> <Gold.Protein.RotatedTorsions>
[ 6907 6896 6895 6894 ] final  -47.76 input  -60.11 | X-H torsion
[ 7974 7965 7964 7962 ] final  178.58 input  175.53 | X-H torsion
[ 8008 7997 7996 7995 ] final  -14.64 input   59.86 | X-H torsion
[ 10167 10162 10161 10158 ] final -116.63 input  -65.29 | X-H torsion
[ 10718 10713 10712 10709 ] final   92.41 input   66.30 | X-H torsion
[ 10763 10752 10751 10750 ] final  -25.19 input  -60.55 | X-H torsion
[ 11005 11000 10999 10996 ] final   14.52 input  -57.11 | X-H torsion

> <Gold.Protein.ActiveResidues>
 VAL166  LYS551  ARG553  GLY616  TRP617  ASP618  TYR619  PRO620  LYS621  CYS622 
 ASP623  PHE694  ASN695  SER759  ASP760  ASP761  ALA762  ILE779  LEU786  VAL792 
 PHE793  MET794  SER795  GLU796  ALA797  LYS798  CYS799  TRP800  GLU811  SER814 

> <Gold.Protein.RotatedAtoms>
  150.8975  134.8384  159.7336 H   0  0  0  0  0  0  0  0  0  0  0  0  # atno 6907 bound_to 6896
  152.4873  134.4554  159.9598 H   0  0  0  0  0  0  0  0  0  0  0  0  # atno 6908 bound_to 6896
  151.4609  133.3554  159.2844 H   0  0  0  0  0  0  0  0  0  0  0  0  # atno 6909 bound_to 6896
  144.7154  140.0419  143.6437 H   0  0  0  0  0  0  0  0  0  0  0  0  # atno 7974 bound_to 7965
  154.5194  140.2217  155.9004 H   0  0  0  0  0  0  0  0  0  0  0  0  # atno 8008 bound_to 7997
  156.1645  140.3135  155.8829 H   0  0  0  0  0  0  0  0  0  0  0  0  # atno 8009 bound_to 7997
  155.3685  140.0465  157.3036 H   0  0  0  0  0  0  0  0  0  0  0  0  # atno 8010 bound_to 7997
  140.0771  143.4823  152.1947 H   0  0  0  0  0  0  0  0  0  0  0  0  # atno 10167 bound_to 10162
  157.6958  131.0442  150.3878 H   0  0  0  0  0  0  0  0  0  0  0  0  # atno 10718 bound_to 10713
  153.6959  135.6959  153.5077 H   0  0  0  0  0  0  0  0  0  0  0  0  # atno 10763 bound_to 10752
  153.2379  135.4316  155.0665 H   0  0  0  0  0  0  0  0  0  0  0  0  # atno 10764 bound_to 10752
  154.8359  135.3500  154.6499 H   0  0  0  0  0  0  0  0  0  0  0  0  # atno 10765 bound_to 10752
  140.4686  134.1054  155.7728 H   0  0  0  0  0  0  0  0  0  0  0  0  # atno 11005 bound_to 11000
  146.0017  139.3096  143.0924 LP  0  0  0  0  0  0  0  0  0  0  0  0  # atno 17320 bound_to 7965
  145.8786  140.9377  143.0613 LP  0  0  0  0  0  0  0  0  0  0  0  0  # atno 17321 bound_to 7965
  139.5801  144.7506  151.3661 LP  0  0  0  0  0  0  0  0  0  0  0  0  # atno 17342 bound_to 10162
  140.7096  143.7424  150.7544 LP  0  0  0  0  0  0  0  0  0  0  0  0  # atno 17343 bound_to 10162
  156.4285  130.3967  149.6777 LP  0  0  0  0  0  0  0  0  0  0  0  0  # atno 17370 bound_to 10713
  156.4002  130.7671  151.2678 LP  0  0  0  0  0  0  0  0  0  0  0  0  # atno 17371 bound_to 10713
  141.1587  133.8833  157.1906 LP  0  0  0  0  0  0  0  0  0  0  0  0  # atno 17394 bound_to 11000
  139.9899  135.0068  156.9951 LP  0  0  0  0  0  0  0  0  0  0  0  0  # atno 17395 bound_to 11000

$$$$
