AV-unprocessed.smi:2833|AV-procd|sdf|10915|dock2
  -GOLD-   2272015363D 1   1.00000     0.00000
 Structure written by MMmdl.
 28 29  0  0  0  0  0  0  0  0  1 V2000
  152.2300  137.0409  153.9534 O   0  0  0  0  0  0  0  0  0  0  0  0
  152.5613  138.3668  154.3080 C   0  0  0  0  0  0  0  0  0  0  0  0
  151.4034  139.0145  155.0829 C   0  0  1  0  0  0  0  0  0  0  0  0
  151.8847  140.2161  155.9212 C   0  0  0  0  0  0  0  0  0  0  0  0
  150.7505  140.8641  156.5680 N   0  0  0  0  0  0  0  0  0  0  0  0
  151.1145  141.8849  157.4583 C   0  0  0  0  0  0  0  0  0  0  0  0
  150.7694  143.1587  157.1484 N   0  0  0  0  0  0  0  0  0  0  0  0
  151.1158  144.1428  158.0060 C   0  0  0  0  0  0  0  0  0  0  0  0
  151.8177  143.9097  159.2050 C   0  0  0  0  0  0  0  0  0  0  0  0
  152.2286  145.2151  160.2554 Cl  0  0  0  0  0  0  0  0  0  0  0  0
  152.1759  142.5867  159.5263 C   0  0  0  0  0  0  0  0  0  0  0  0
  151.8177  141.5542  158.6380 C   0  0  0  0  0  0  0  0  0  0  0  0
  152.1455  140.2693  158.9165 F   0  0  0  0  0  0  0  0  0  0  0  0
  149.7199  141.2627  155.6184 C   0  0  0  0  0  0  0  0  0  0  0  0
  149.2964  140.0538  154.7681 C   0  0  0  0  0  0  0  0  0  0  0  0
  150.4445  139.4912  154.1395 O   0  0  0  0  0  0  0  0  0  0  0  0
  151.8041  137.0525  153.1099 H   0  0  0  0  0  0  0  0  0  0  0  0
  153.4535  138.3200  154.9331 H   0  0  0  0  0  0  0  0  0  0  0  0
  152.8188  138.9460  153.4207 H   0  0  0  0  0  0  0  0  0  0  0  0
  150.9461  138.2764  155.7454 H   0  0  0  0  0  0  0  0  0  0  0  0
  152.5949  139.8841  156.6797 H   0  0  0  0  0  0  0  0  0  0  0  0
  152.4045  140.9318  155.2823 H   0  0  0  0  0  0  0  0  0  0  0  0
  150.8232  145.1443  157.7270 H   0  0  0  0  0  0  0  0  0  0  0  0
  152.7143  142.3660  160.4362 H   0  0  0  0  0  0  0  0  0  0  0  0
  148.8588  141.6658  156.1530 H   0  0  0  0  0  0  0  0  0  0  0  0
  150.0999  142.0547  154.9713 H   0  0  0  0  0  0  0  0  0  0  0  0
  148.7972  139.3014  155.3808 H   0  0  0  0  0  0  0  0  0  0  0  0
  148.5863  140.3632  154.0014 H   0  0  0  0  0  0  0  0  0  0  0  0
  1  2  1  0  0  0  0
  1 17  1  0  0  0  0
  2  3  1  0  0  0  0
  2 18  1  0  0  0  0
  2 19  1  0  0  0  0
  3 16  1  0  0  0  0
  3  4  1  0  0  0  0
  3 20  1  0  0  0  0
  4  5  1  0  0  0  0
  4 21  1  0  0  0  0
  4 22  1  0  0  0  0
  5  6  1  0  0  0  0
  5 14  1  0  0  0  0
  6 12  1  0  0  0  0
  6  7  2  0  0  0  0
  7  8  1  0  0  0  0
  8  9  2  0  0  0  0
  8 23  1  0  0  0  0
  9 10  1  0  0  0  0
  9 11  1  0  0  0  0
 11 12  2  0  0  0  0
 11 24  1  0  0  0  0
 12 13  1  0  0  0  0
 14 15  1  0  0  0  0
 14 25  1  0  0  0  0
 14 26  1  0  0  0  0
 15 16  1  0  0  0  0
 15 27  1  0  0  0  0
 15 28  1  0  0  0  0
M  END
> <s_m_source_file>
AV-unprocessed.smi

> <i_m_source_file_index>
2833

> <i_lp_mmshare_version>
43012

> <i_f3d_flags>
0

> <s_epik_input>
W09IXVtDSDJdW0NAQEhdMVtDSDJdTihbQ0gyXVtDSDJdTzEpYzJuW2NIXWMoQ2wpW2NIXWMyRg==

> <s_epik_cmdline>
J2VwaWtfcHl0aG9uJywgJy1waCcsICc3LjAnLCAnLXRuJywgJzgnLCAnLW1hJywgJzIwMCcsICctbWV0YWxfYmluZGluZycsICctaW1hZScsICc8aW5maWxlLm1hZT4nLCAnLW9tYWUnLCAnPG91dGZpbGUubWFlPic=

> <r_lp_tautomer_probability>
1

> <r_epik_Ionization_Penalty>
1.06846e-07

> <r_epik_Ionization_Penalty_Charging>
0

> <r_epik_Ionization_Penalty_Neutral>
1.06846e-07

> <r_epik_State_Penalty>
-0

> <r_epik_Charging_Adjusted_Penalty>
0

> <i_epik_Tot_Q>
0

> <i_epik_Tot_abs_Q>
0

> <r_epik_Metal_State_Penalty>
-0

> <b_epik_Metal_Only>
0

> <s_lp_Force_Field>
OPLS_2005

> <r_lp_Energy>
22.731

> <b_lp_Chiralities_Consistent>
1

> <s_lp_Variant>
AV-unprocessed.smi:2833-2

> <Gold.Version>
5.8.1

> <Gold.Id.Protein>
6NUR|6NUR_protein|mol2

> <Gold.PLP.Fitness>
42.3306

> <Gold.PLP.PLP>
-34.8917

> <Gold.PLP.part.hbond>
-2.7799

> <Gold.PLP.part.metal>
0.0000

> <Gold.PLP.part.buried>
-6.6270

> <Gold.PLP.part.nonpolar>
-28.5076

> <Gold.PLP.part.repulsive>
2.0755

> <Gold.PLP.ligand.clash>
0.0000

> <Gold.PLP.ligand.torsion>
0.4799

> <Gold.PLP.Chemscore.Hbond>
2.6436

> <Gold.PLP.Chemscore.CHOScore>
0.1199

> <Gold.PLP.Chemscore.Metal>
0.0000

> <Gold.Chemscore.Hbonds>
donor molecule, donor type, donor heavy atom, donor atom, acceptor molecule, acceptor atom, score
      L1  H     1    17       P1  7949  0.94
      P1  H  7989  7998       L1    16  0.65
      P1  H 10752 10763       L1     1  0.98
      L1  C     8    23       P1  8028  0.12

> <Gold.PLP.Chemscore.Internal.Correction>
0.1082

> <Gold.Rescore>
     Score         DG    S(hbond)    S(metal)    S(lipo)     H(rot)  DE(clash)    DE(int)     intcor
     15.17     -16.86       1.73        0.00      86.65       1.78       0.16       1.53       ----

> <Gold.Chemscore.Fitness>
15.1711

> <Gold.Chemscore.DG>
-16.8601

> <Gold.Chemscore.ZeroCoef>
-5.4800

> <Gold.Chemscore.Hbond>
1.7341

> <Gold.Chemscore.Metal>
0.0000

> <Gold.Chemscore.Lipo>
86.6515

> <Gold.Chemscore.Internal_Hbond>
0.0000

> <Gold.Chemscore.DEClash>
0.1557

> <Gold.Chemscore.DEInternal>
1.5333

> <Gold.Chemscore.Rot>
1.7773

> <Gold.Chemscore.Internal.Correction>
   9.000000E+99

> <Gold.Chemscore.Hbonds>
donor molecule, donor type, donor heavy atom, donor atom, acceptor molecule, acceptor atom, score
      L1  H     1    17       P1  7949  0.83
      P1  H  7989  7998       L1    16  0.05
      P1  H 10752 10763       L1     1  0.58

> <Gold.Chemscore.Hbond.Weighted>
-5.7918

> <Gold.Chemscore.Metal.Weighted>
-0.0000

> <Gold.Chemscore.Lipo.Weighted>
-10.1382

> <Gold.Chemscore.Internal_Hbond.Weighted>
0.0000

> <Gold.Chemscore.DEClash.Weighted>
0.1557

> <Gold.Chemscore.DEInternal.Weighted>
1.5333

> <Gold.Chemscore.Rot.Weighted>
4.5499

> <Gold.Chemscore.Internal.Correction.Weighted>
   9.000000E+99

> <Gold.Protein.RotatedTorsions>
[ 6907 6896 6895 6894 ] final   84.54 input  -60.11 | X-H torsion
[ 7974 7965 7964 7962 ] final   86.59 input  175.53 | X-H torsion
[ 8008 7997 7996 7995 ] final -151.31 input   59.86 | X-H torsion
[ 10167 10162 10161 10158 ] final   67.84 input  -65.29 | X-H torsion
[ 10718 10713 10712 10709 ] final  122.45 input   66.30 | X-H torsion
[ 10763 10752 10751 10750 ] final   27.77 input  -60.55 | X-H torsion
[ 11005 11000 10999 10996 ] final  -11.92 input  -57.11 | X-H torsion

> <Gold.Protein.ActiveResidues>
 VAL166  LYS551  ARG553  GLY616  TRP617  ASP618  TYR619  PRO620  LYS621  CYS622 
 ASP623  PHE694  ASN695  SER759  ASP760  ASP761  ALA762  ILE779  LEU786  VAL792 
 PHE793  MET794  SER795  GLU796  ALA797  LYS798  CYS799  TRP800  GLU811  SER814 

> <Gold.Protein.RotatedAtoms>
  152.5355  134.2725  159.8976 H   0  0  0  0  0  0  0  0  0  0  0  0  # atno 6907 bound_to 6896
  151.2681  133.4262  159.2627 H   0  0  0  0  0  0  0  0  0  0  0  0  # atno 6908 bound_to 6896
  151.0392  134.9610  159.8209 H   0  0  0  0  0  0  0  0  0  0  0  0  # atno 6909 bound_to 6896
  145.5702  139.2313  143.2410 H   0  0  0  0  0  0  0  0  0  0  0  0  # atno 7974 bound_to 7965
  155.6373  140.0698  157.2630 H   0  0  0  0  0  0  0  0  0  0  0  0  # atno 8008 bound_to 7997
  154.4192  140.1756  156.1585 H   0  0  0  0  0  0  0  0  0  0  0  0  # atno 8009 bound_to 7997
  155.9884  140.3347  155.6732 H   0  0  0  0  0  0  0  0  0  0  0  0  # atno 8010 bound_to 7997
  140.0852  144.5036  150.7135 H   0  0  0  0  0  0  0  0  0  0  0  0  # atno 10167 bound_to 10162
  157.5741  131.1081  150.8311 H   0  0  0  0  0  0  0  0  0  0  0  0  # atno 10718 bound_to 10713
  153.0534  135.6529  154.0636 H   0  0  0  0  0  0  0  0  0  0  0  0  # atno 10763 bound_to 10752
  154.0319  135.2911  155.3369 H   0  0  0  0  0  0  0  0  0  0  0  0  # atno 10764 bound_to 10752
  154.6836  135.5310  153.8363 H   0  0  0  0  0  0  0  0  0  0  0  0  # atno 10765 bound_to 10752
  140.7603  133.8520  155.9119 H   0  0  0  0  0  0  0  0  0  0  0  0  # atno 11005 bound_to 11000
  146.1790  140.6528  142.9198 LP  0  0  0  0  0  0  0  0  0  0  0  0  # atno 17320 bound_to 7965
  144.7441  140.5022  143.6848 LP  0  0  0  0  0  0  0  0  0  0  0  0  # atno 17321 bound_to 7965
  140.7057  143.2466  151.4733 LP  0  0  0  0  0  0  0  0  0  0  0  0  # atno 17342 bound_to 10162
  139.5756  144.1826  152.1899 LP  0  0  0  0  0  0  0  0  0  0  0  0  # atno 17343 bound_to 10162
  156.8775  130.5167  149.5293 LP  0  0  0  0  0  0  0  0  0  0  0  0  # atno 17370 bound_to 10713
  156.0786  130.5802  150.9521 LP  0  0  0  0  0  0  0  0  0  0  0  0  # atno 17371 bound_to 10713
  140.9669  134.1582  157.4608 LP  0  0  0  0  0  0  0  0  0  0  0  0  # atno 17394 bound_to 11000
  139.8772  134.9965  156.5797 LP  0  0  0  0  0  0  0  0  0  0  0  0  # atno 17395 bound_to 11000

$$$$
