AV-unprocessed.smi:2945|AV-procd|sdf|11276|dock1
  -GOLD-   2272016163D 1   1.00000     0.00000
 Structure written by MMmdl.
 36 37  0  0  0  0  0  0  0  0  1 V2000
  153.5582  141.9649  160.9014 C   0  0  0  0  0  0  0  0  0  0  0  0
  152.6168  142.5359  159.8972 C   0  0  0  0  0  0  0  0  0  0  0  0
  151.7955  141.9681  158.9641 C   0  0  0  0  0  0  0  0  0  0  0  0
  151.1823  143.0929  158.3512 C   0  0  0  0  0  0  0  0  0  0  0  0
  150.2397  142.9264  157.3048 N   0  0  0  0  0  0  0  0  0  0  0  0
  149.7655  141.7729  156.8042 C   0  0  0  0  0  0  0  0  0  0  0  0
  150.0920  140.6485  157.1855 O   0  0  0  0  0  0  0  0  0  0  0  0
  148.8791  141.9998  155.8231 N   0  0  0  0  0  0  0  0  0  0  0  0
  148.1818  140.9793  155.0407 C   0  0  2  0  0  0  0  0  0  0  0  0
  149.2223  139.9804  154.4966 C   0  0  0  0  0  0  0  0  0  0  0  0
  148.5752  138.9126  153.6033 C   0  0  0  0  0  0  0  0  0  0  0  0
  147.7930  139.5614  152.4541 C   0  0  0  0  0  0  0  0  0  0  0  0
  146.7394  140.5413  152.9909 C   0  0  0  0  0  0  0  0  0  0  0  0
  147.3651  141.6260  153.8919 C   0  0  1  0  0  0  0  0  0  0  0  0
  146.2794  142.5894  154.4038 C   0  0  0  0  0  0  0  0  0  0  0  0
  151.5929  144.2434  158.8627 N   0  0  0  0  0  0  0  0  0  0  0  0
  152.5146  143.8921  159.8561 O   0  0  0  0  0  0  0  0  0  0  0  0
  153.4824  140.8779  160.9327 H   0  0  0  0  0  0  0  0  0  0  0  0
  153.3393  142.3477  161.8984 H   0  0  0  0  0  0  0  0  0  0  0  0
  154.5881  142.2254  160.6569 H   0  0  0  0  0  0  0  0  0  0  0  0
  151.6574  140.9174  158.7566 H   0  0  0  0  0  0  0  0  0  0  0  0
  149.8893  143.7782  156.8922 H   0  0  0  0  0  0  0  0  0  0  0  0
  148.6746  142.9599  155.5883 H   0  0  0  0  0  0  0  0  0  0  0  0
  147.4923  140.4226  155.6784 H   0  0  0  0  0  0  0  0  0  0  0  0
  149.9826  140.5140  153.9240 H   0  0  0  0  0  0  0  0  0  0  0  0
  149.7430  139.4964  155.3237 H   0  0  0  0  0  0  0  0  0  0  0  0
  149.3413  138.2479  153.2030 H   0  0  0  0  0  0  0  0  0  0  0  0
  147.9055  138.2915  154.1997 H   0  0  0  0  0  0  0  0  0  0  0  0
  148.4817  140.0883  151.7923 H   0  0  0  0  0  0  0  0  0  0  0  0
  147.3118  138.7912  151.8506 H   0  0  0  0  0  0  0  0  0  0  0  0
  146.2189  141.0073  152.1532 H   0  0  0  0  0  0  0  0  0  0  0  0
  145.9844  139.9885  153.5516 H   0  0  0  0  0  0  0  0  0  0  0  0
  148.0524  142.2073  153.2752 H   0  0  0  0  0  0  0  0  0  0  0  0
  145.5763  142.0774  155.0616 H   0  0  0  0  0  0  0  0  0  0  0  0
  145.7108  143.0144  153.5763 H   0  0  0  0  0  0  0  0  0  0  0  0
  146.7082  143.4229  154.9599 H   0  0  0  0  0  0  0  0  0  0  0  0
  1  2  1  0  0  0  0
  1 18  1  0  0  0  0
  1 19  1  0  0  0  0
  1 20  1  0  0  0  0
  2 17  1  0  0  0  0
  2  3  2  0  0  0  0
  3  4  1  0  0  0  0
  3 21  1  0  0  0  0
  4  5  1  0  0  0  0
  4 16  2  0  0  0  0
  5  6  1  0  0  0  0
  5 22  1  0  0  0  0
  6  7  2  0  0  0  0
  6  8  1  0  0  0  0
  8  9  1  0  0  0  0
  8 23  1  0  0  0  0
  9 14  1  0  0  0  0
  9 10  1  0  0  0  0
  9 24  1  0  0  0  0
 10 11  1  0  0  0  0
 10 25  1  0  0  0  0
 10 26  1  0  0  0  0
 11 12  1  0  0  0  0
 11 27  1  0  0  0  0
 11 28  1  0  0  0  0
 12 13  1  0  0  0  0
 12 29  1  0  0  0  0
 12 30  1  0  0  0  0
 13 14  1  0  0  0  0
 13 31  1  0  0  0  0
 13 32  1  0  0  0  0
 14 15  1  0  0  0  0
 14 33  1  0  0  0  0
 15 34  1  0  0  0  0
 15 35  1  0  0  0  0
 15 36  1  0  0  0  0
 16 17  1  0  0  0  0
M  END
> <s_m_source_file>
AV-unprocessed.smi

> <i_m_source_file_index>
2945

> <i_lp_mmshare_version>
43012

> <i_f3d_flags>
0

> <s_epik_input>
W0NIM11jMVtjSF1jKG5vMSlbTkhdQyg9TylbTkhdW0NAQEhdMltDSDJdW0NIMl1bQ0gyXVtDSDJdW0NASF0yW0NIM10=

> <s_epik_cmdline>
J2VwaWtfcHl0aG9uJywgJy1waCcsICc3LjAnLCAnLXRuJywgJzgnLCAnLW1hJywgJzIwMCcsICctbWV0YWxfYmluZGluZycsICctaW1hZScsICc8aW5maWxlLm1hZT4nLCAnLW9tYWUnLCAnPG91dGZpbGUubWFlPic=

> <r_lp_tautomer_probability>
1

> <r_epik_Ionization_Penalty>
2.357e-05

> <r_epik_Ionization_Penalty_Charging>
0

> <r_epik_Ionization_Penalty_Neutral>
2.357e-05

> <r_epik_State_Penalty>
-0

> <r_epik_Charging_Adjusted_Penalty>
0

> <i_epik_Tot_Q>
0

> <i_epik_Tot_abs_Q>
0

> <r_epik_Metal_State_Penalty>
-0

> <b_epik_Metal_Only>
0

> <s_lp_Force_Field>
OPLS_2005

> <r_lp_Energy>
8.52615

> <b_lp_Chiralities_Consistent>
1

> <s_lp_Variant>
AV-unprocessed.smi:2945-1

> <Gold.Version>
5.8.1

> <Gold.Id.Protein>
6NUR|6NUR_protein|mol2

> <Gold.PLP.Fitness>
36.7843

> <Gold.PLP.PLP>
-31.1241

> <Gold.PLP.part.hbond>
-2.0000

> <Gold.PLP.part.metal>
0.0000

> <Gold.PLP.part.buried>
-0.6964

> <Gold.PLP.part.nonpolar>
-29.6287

> <Gold.PLP.part.repulsive>
0.2141

> <Gold.PLP.ligand.clash>
0.0000

> <Gold.PLP.ligand.torsion>
0.0639

> <Gold.PLP.Chemscore.Hbond>
1.9280

> <Gold.PLP.Chemscore.CHOScore>
0.0000

> <Gold.PLP.Chemscore.Metal>
0.0000

> <Gold.Chemscore.Hbonds>
donor molecule, donor type, donor heavy atom, donor atom, acceptor molecule, acceptor atom, score
      L1  H     5    22       P1  8028  1.00
      L1  H     8    23       P1  8028  1.00

> <Gold.PLP.Chemscore.Internal.Correction>
0.0040

> <Gold.Rescore>
     Score         DG    S(hbond)    S(metal)    S(lipo)     H(rot)  DE(clash)    DE(int)     intcor
     15.49     -17.74       1.93        0.00      71.62       1.00       0.80       1.45       ----

> <Gold.Chemscore.Fitness>
15.4880

> <Gold.Chemscore.DG>
-17.7368

> <Gold.Chemscore.ZeroCoef>
-5.4800

> <Gold.Chemscore.Hbond>
1.9273

> <Gold.Chemscore.Metal>
0.0000

> <Gold.Chemscore.Lipo>
71.6198

> <Gold.Chemscore.Internal_Hbond>
0.0000

> <Gold.Chemscore.DEClash>
0.7989

> <Gold.Chemscore.DEInternal>
1.4500

> <Gold.Chemscore.Rot>
1.0000

> <Gold.Chemscore.Internal.Correction>
   9.000000E+99

> <Gold.Chemscore.Hbonds>
donor molecule, donor type, donor heavy atom, donor atom, acceptor molecule, acceptor atom, score
      L1  H     5    22       P1  8028  0.96
      L1  H     8    23       P1  8028  0.99

> <Gold.Chemscore.Hbond.Weighted>
-6.4373

> <Gold.Chemscore.Metal.Weighted>
-0.0000

> <Gold.Chemscore.Lipo.Weighted>
-8.3795

> <Gold.Chemscore.Internal_Hbond.Weighted>
0.0000

> <Gold.Chemscore.DEClash.Weighted>
0.7989

> <Gold.Chemscore.DEInternal.Weighted>
1.4500

> <Gold.Chemscore.Rot.Weighted>
2.5600

> <Gold.Chemscore.Internal.Correction.Weighted>
   9.000000E+99

> <Gold.Protein.RotatedTorsions>
[ 6907 6896 6895 6894 ] final  136.11 input  -60.11 | X-H torsion
[ 7974 7965 7964 7962 ] final  141.37 input  175.53 | X-H torsion
[ 8008 7997 7996 7995 ] final  -73.65 input   59.86 | X-H torsion
[ 10167 10162 10161 10158 ] final  -66.37 input  -65.29 | X-H torsion
[ 10718 10713 10712 10709 ] final  -58.39 input   66.30 | X-H torsion
[ 10763 10752 10751 10750 ] final -150.06 input  -60.55 | X-H torsion
[ 11005 11000 10999 10996 ] final  162.81 input  -57.11 | X-H torsion

> <Gold.Protein.ActiveResidues>
 VAL166  LYS551  ARG553  GLY616  TRP617  ASP618  TYR619  PRO620  LYS621  CYS622 
 ASP623  PHE694  ASN695  SER759  ASP760  ASP761  ALA762  ILE779  LEU786  VAL792 
 PHE793  MET794  SER795  GLU796  ALA797  LYS798  CYS799  TRP800  GLU811  SER814 

> <Gold.Protein.RotatedAtoms>
  152.2930  133.5580  159.5569 H   0  0  0  0  0  0  0  0  0  0  0  0  # atno 6907 bound_to 6896
  150.7243  134.0401  159.3772 H   0  0  0  0  0  0  0  0  0  0  0  0  # atno 6908 bound_to 6896
  151.8306  135.0623  160.0487 H   0  0  0  0  0  0  0  0  0  0  0  0  # atno 6909 bound_to 6896
  144.9102  139.5303  143.5712 H   0  0  0  0  0  0  0  0  0  0  0  0  # atno 7974 bound_to 7965
  154.5265  140.0775  156.8268 H   0  0  0  0  0  0  0  0  0  0  0  0  # atno 8008 bound_to 7997
  155.3464  140.3410  155.4221 H   0  0  0  0  0  0  0  0  0  0  0  0  # atno 8009 bound_to 7997
  156.1737  140.1628  156.8388 H   0  0  0  0  0  0  0  0  0  0  0  0  # atno 8010 bound_to 7997
  140.5661  143.2315  151.6631 H   0  0  0  0  0  0  0  0  0  0  0  0  # atno 10167 bound_to 10162
  156.1139  130.4172  150.0570 H   0  0  0  0  0  0  0  0  0  0  0  0  # atno 10718 bound_to 10713
  154.8141  135.3293  154.7225 H   0  0  0  0  0  0  0  0  0  0  0  0  # atno 10763 bound_to 10752
  153.7869  135.6914  153.4883 H   0  0  0  0  0  0  0  0  0  0  0  0  # atno 10764 bound_to 10752
  153.1942  135.4539  155.0134 H   0  0  0  0  0  0  0  0  0  0  0  0  # atno 10765 bound_to 10752
  140.2295  134.8135  157.3303 H   0  0  0  0  0  0  0  0  0  0  0  0  # atno 11005 bound_to 11000
  146.3154  139.7902  142.8987 LP  0  0  0  0  0  0  0  0  0  0  0  0  # atno 17320 bound_to 7965
  145.3467  141.0299  143.3361 LP  0  0  0  0  0  0  0  0  0  0  0  0  # atno 17321 bound_to 7965
  139.5094  144.3579  152.0590 LP  0  0  0  0  0  0  0  0  0  0  0  0  # atno 17342 bound_to 10162
  140.2711  144.3963  150.6151 LP  0  0  0  0  0  0  0  0  0  0  0  0  # atno 17343 bound_to 10162
  156.8527  130.9464  151.3624 LP  0  0  0  0  0  0  0  0  0  0  0  0  # atno 17370 bound_to 10713
  157.6321  130.8738  149.9293 LP  0  0  0  0  0  0  0  0  0  0  0  0  # atno 17371 bound_to 10713
  140.1765  134.4543  155.7798 LP  0  0  0  0  0  0  0  0  0  0  0  0  # atno 17394 bound_to 11000
  141.2218  133.6964  156.7796 LP  0  0  0  0  0  0  0  0  0  0  0  0  # atno 17395 bound_to 11000

$$$$
