AV-unprocessed.smi:683|AV-procd|sdf|3331|dock6
  -GOLD-   22720 0303D 1   1.00000     0.00000
 Structure written by MMmdl.
 29 30  0  0  0  0  0  0  0  0  2 V2000
  154.4648  141.9242  163.3281 N   0  0  0  0  0  0  0  0  0  0  0  0
  153.7694  142.3217  162.4931 C   0  0  0  0  0  0  0  0  0  0  0  0
  152.8962  142.8211  161.4442 C   0  0  0  0  0  0  0  0  0  0  0  0
  152.1470  143.9963  161.6509 C   0  0  0  0  0  0  0  0  0  0  0  0
  151.3026  144.4771  160.6332 C   0  0  0  0  0  0  0  0  0  0  0  0
  151.2081  143.7855  159.4107 C   0  0  0  0  0  0  0  0  0  0  0  0
  151.9520  142.6088  159.1873 C   0  0  0  0  0  0  0  0  0  0  0  0
  151.8004  141.9969  157.9614 O   0  0  0  0  0  0  0  0  0  0  0  0
  150.5733  142.1778  157.2684 C   0  0  0  0  0  0  0  0  0  0  0  0
  150.7689  141.7663  155.8024 C   0  0  0  0  0  0  0  0  0  0  0  0
  149.5906  141.0582  155.2855 N   0  0  0  0  0  0  0  0  0  0  0  0
  148.3272  141.6050  155.5664 C   0  0  0  0  0  0  0  0  0  0  0  0
  147.1872  141.0249  155.1439 C   0  0  0  0  0  0  0  0  0  0  0  0
  145.6473  141.7198  155.5054 Cl  0  0  0  0  0  0  0  0  0  0  0  0
  147.2920  139.7874  154.3732 C   0  0  0  0  0  0  0  0  0  0  0  0
  146.2709  139.2333  153.9685 O   0  0  0  0  0  0  0  0  0  0  0  0
  148.5422  139.2931  154.1346 N   0  5  0  0  0  0  0  0  0  0  0  0
  149.6894  139.8956  154.5752 C   0  0  0  0  0  0  0  0  0  0  0  0
  150.8060  139.4252  154.3563 O   0  0  0  0  0  0  0  0  0  0  0  0
  152.7997  142.1295  160.2187 C   0  0  0  0  0  0  0  0  0  0  0  0
  152.2154  144.5333  162.5863 H   0  0  0  0  0  0  0  0  0  0  0  0
  150.7274  145.3776  160.7899 H   0  0  0  0  0  0  0  0  0  0  0  0
  150.5582  144.1629  158.6347 H   0  0  0  0  0  0  0  0  0  0  0  0
  149.7917  141.5678  157.7242 H   0  0  0  0  0  0  0  0  0  0  0  0
  150.2643  143.2231  157.3193 H   0  0  0  0  0  0  0  0  0  0  0  0
  150.9692  142.6529  155.1988 H   0  0  0  0  0  0  0  0  0  0  0  0
  151.6617  141.1465  155.7036 H   0  0  0  0  0  0  0  0  0  0  0  0
  148.3416  142.5165  156.1460 H   0  0  0  0  0  0  0  0  0  0  0  0
  153.3852  141.2314  160.0873 H   0  0  0  0  0  0  0  0  0  0  0  0
  1  2  3  0  0  0  0
  2  3  1  0  0  0  0
  3 20  1  0  0  0  0
  3  4  2  0  0  0  0
  4  5  1  0  0  0  0
  4 21  1  0  0  0  0
  5  6  2  0  0  0  0
  5 22  1  0  0  0  0
  6  7  1  0  0  0  0
  6 23  1  0  0  0  0
  7  8  1  0  0  0  0
  7 20  2  0  0  0  0
  8  9  1  0  0  0  0
  9 10  1  0  0  0  0
  9 24  1  0  0  0  0
  9 25  1  0  0  0  0
 10 11  1  0  0  0  0
 10 26  1  0  0  0  0
 10 27  1  0  0  0  0
 11 18  1  0  0  0  0
 11 12  1  0  0  0  0
 12 13  2  0  0  0  0
 12 28  1  0  0  0  0
 13 14  1  0  0  0  0
 13 15  1  0  0  0  0
 15 16  2  0  0  0  0
 15 17  1  0  0  0  0
 17 18  1  0  0  0  0
 18 19  2  0  0  0  0
 20 29  1  0  0  0  0
M  CHG  1  17  -1
M  END
> <s_m_source_file>
AV-unprocessed.smi

> <i_m_source_file_index>
683

> <i_lp_mmshare_version>
43012

> <i_f3d_flags>
0

> <s_epik_input>
TiNDYzFbY0hdW2NIXVtjSF1jKFtjSF0xKU9bQ0gyXVtDSDJdbjJbY0hdYyhDbCljKD1PKVtuSF1jMj1P

> <s_epik_cmdline>
J2VwaWtfcHl0aG9uJywgJy1waCcsICc3LjAnLCAnLXRuJywgJzgnLCAnLW1hJywgJzIwMCcsICctbWV0YWxfYmluZGluZycsICctaW1hZScsICc8aW5maWxlLm1hZT4nLCAnLW9tYWUnLCAnPG91dGZpbGUubWFlPic=

> <r_epik_Ionization_Penalty>
1.49102

> <r_epik_Ionization_Penalty_Charging>
6.47896e-09

> <r_epik_Ionization_Penalty_Neutral>
1.49102

> <r_epik_State_Penalty>
1.58045

> <r_epik_Charging_Adjusted_Penalty>
1.58045

> <i_epik_Tot_Q>
-1

> <i_epik_Tot_abs_Q>
1

> <r_epik_Metal_State_Penalty>
0.00788874

> <b_epik_Metal_Only>
0

> <s_lp_Force_Field>
OPLS_2005

> <r_lp_Energy>
20.1006

> <b_lp_Chiralities_Consistent>
1

> <s_lp_Variant>
AV-unprocessed.smi:683-2

> <Gold.Version>
5.8.1

> <Gold.Id.Protein>
6NUR|6NUR_protein|mol2

> <Gold.PLP.Fitness>
44.1446

> <Gold.PLP.PLP>
-39.8554

> <Gold.PLP.part.hbond>
-2.0000

> <Gold.PLP.part.metal>
0.0000

> <Gold.PLP.part.buried>
-4.4374

> <Gold.PLP.part.nonpolar>
-33.3051

> <Gold.PLP.part.repulsive>
0.4664

> <Gold.PLP.ligand.clash>
0.0000

> <Gold.PLP.ligand.torsion>
0.8676

> <Gold.PLP.Chemscore.Hbond>
1.0000

> <Gold.PLP.Chemscore.CHOScore>
1.0000

> <Gold.PLP.Chemscore.Metal>
0.0000

> <Gold.Chemscore.Hbonds>
donor molecule, donor type, donor heavy atom, donor atom, acceptor molecule, acceptor atom, score
      P1  H  7989  7998       L1    19  1.00
      L1  C    12    28       P1  8028  1.00

> <Gold.PLP.Chemscore.Internal.Correction>
0.0244

> <Gold.Rescore>
     Score         DG    S(hbond)    S(metal)    S(lipo)     H(rot)  DE(clash)    DE(int)     intcor
     12.06     -13.39       0.85        0.00      86.43       1.97       0.41       0.92       ----

> <Gold.Chemscore.Fitness>
12.0614

> <Gold.Chemscore.DG>
-13.3885

> <Gold.Chemscore.ZeroCoef>
-5.4800

> <Gold.Chemscore.Hbond>
0.8513

> <Gold.Chemscore.Metal>
0.0000

> <Gold.Chemscore.Lipo>
86.4332

> <Gold.Chemscore.Internal_Hbond>
0.0000

> <Gold.Chemscore.DEClash>
0.4080

> <Gold.Chemscore.DEInternal>
0.9191

> <Gold.Chemscore.Rot>
1.9717

> <Gold.Chemscore.Internal.Correction>
   9.000000E+99

> <Gold.Chemscore.Hbonds>
donor molecule, donor type, donor heavy atom, donor atom, acceptor molecule, acceptor atom, score
      P1  H  7989  7998       L1    19  0.30

> <Gold.Chemscore.Hbond.Weighted>
-2.8433

> <Gold.Chemscore.Metal.Weighted>
-0.0000

> <Gold.Chemscore.Lipo.Weighted>
-10.1127

> <Gold.Chemscore.Internal_Hbond.Weighted>
0.0000

> <Gold.Chemscore.DEClash.Weighted>
0.4080

> <Gold.Chemscore.DEInternal.Weighted>
0.9191

> <Gold.Chemscore.Rot.Weighted>
5.0475

> <Gold.Chemscore.Internal.Correction.Weighted>
   9.000000E+99

> <Gold.Protein.RotatedTorsions>
[ 6907 6896 6895 6894 ] final -128.30 input  -60.11 | X-H torsion
[ 7974 7965 7964 7962 ] final -107.02 input  175.53 | X-H torsion
[ 8008 7997 7996 7995 ] final   51.48 input   59.86 | X-H torsion
[ 10167 10162 10161 10158 ] final -151.37 input  -65.29 | X-H torsion
[ 10718 10713 10712 10709 ] final   37.17 input   66.30 | X-H torsion
[ 10763 10752 10751 10750 ] final   47.92 input  -60.55 | X-H torsion
[ 11005 11000 10999 10996 ] final  -60.73 input  -57.11 | X-H torsion

> <Gold.Protein.ActiveResidues>
 VAL166  LYS551  ARG553  GLY616  TRP617  ASP618  TYR619  PRO620  LYS621  CYS622 
 ASP623  PHE694  ASN695  SER759  ASP760  ASP761  ALA762  ILE779  LEU786  VAL792 
 PHE793  MET794  SER795  GLU796  ALA797  LYS798  CYS799  TRP800  GLU811  SER814 

> <Gold.Protein.RotatedAtoms>
  150.9164  133.6934  159.2842 H   0  0  0  0  0  0  0  0  0  0  0  0  # atno 6907 bound_to 6896
  151.4403  135.1018  159.9678 H   0  0  0  0  0  0  0  0  0  0  0  0  # atno 6908 bound_to 6896
  152.4957  133.8574  159.7288 H   0  0  0  0  0  0  0  0  0  0  0  0  # atno 6909 bound_to 6896
  145.2105  140.9094  143.3317 H   0  0  0  0  0  0  0  0  0  0  0  0  # atno 7974 bound_to 7965
  155.4361  140.3452  155.4285 H   0  0  0  0  0  0  0  0  0  0  0  0  # atno 8008 bound_to 7997
  156.1307  140.1513  156.9100 H   0  0  0  0  0  0  0  0  0  0  0  0  # atno 8009 bound_to 7997
  154.4893  140.0846  156.7537 H   0  0  0  0  0  0  0  0  0  0  0  0  # atno 8010 bound_to 7997
  139.7273  143.8863  152.2523 H   0  0  0  0  0  0  0  0  0  0  0  0  # atno 10167 bound_to 10162
  157.3437  130.7561  149.6929 H   0  0  0  0  0  0  0  0  0  0  0  0  # atno 10718 bound_to 10713
  152.9796  135.5961  154.3842 H   0  0  0  0  0  0  0  0  0  0  0  0  # atno 10763 bound_to 10752
  154.3503  135.2767  155.2377 H   0  0  0  0  0  0  0  0  0  0  0  0  # atno 10764 bound_to 10752
  154.4419  135.6011  153.6190 H   0  0  0  0  0  0  0  0  0  0  0  0  # atno 10765 bound_to 10752
  141.1298  133.6624  156.5267 H   0  0  0  0  0  0  0  0  0  0  0  0  # atno 11005 bound_to 11000
  144.9860  139.3736  143.6238 LP  0  0  0  0  0  0  0  0  0  0  0  0  # atno 17320 bound_to 7965
  146.3398  139.9022  142.8793 LP  0  0  0  0  0  0  0  0  0  0  0  0  # atno 17321 bound_to 7965
  139.8776  144.7035  150.8915 LP  0  0  0  0  0  0  0  0  0  0  0  0  # atno 17342 bound_to 10162
  140.7765  143.3687  151.1689 LP  0  0  0  0  0  0  0  0  0  0  0  0  # atno 17343 bound_to 10162
  155.9711  130.4160  150.4211 LP  0  0  0  0  0  0  0  0  0  0  0  0  # atno 17370 bound_to 10713
  157.2263  131.0494  151.2518 LP  0  0  0  0  0  0  0  0  0  0  0  0  # atno 17371 bound_to 10713
  140.4248  134.7155  157.4910 LP  0  0  0  0  0  0  0  0  0  0  0  0  # atno 17394 bound_to 11000
  140.0334  134.6372  155.9075 LP  0  0  0  0  0  0  0  0  0  0  0  0  # atno 17395 bound_to 11000

$$$$
