AV-unprocessed.smi:282|AV-procd|sdf|2121|dock7
  -GOLD-   2262021423D 1   1.00000     0.00000
 Structure written by MMmdl.
 65 69  0  0  0  0  0  0  0  0  2 V2000
  148.5381  129.0438  153.7866 C   0  0  0  0  0  0  0  0  0  0  0  0
  148.7862  130.5218  154.1172 C   0  0  0  0  0  0  0  0  0  0  0  0
  147.4938  131.3472  154.3305 C   0  0  2  0  0  0  0  0  0  0  0  0
  146.4438  131.1371  153.2194 C   0  0  0  0  0  0  0  0  0  0  0  0
  146.8540  131.7823  151.9435 N   0  3  1  0  0  0  0  0  0  0  0  0
  145.9200  131.5200  150.8176 C   0  0  0  0  0  0  0  0  0  0  0  0
  144.6312  132.3572  150.9258 C   0  0  0  0  0  0  0  0  0  0  0  0
  144.9545  133.8523  151.0507 C   0  0  0  0  0  0  0  0  0  0  0  0
  145.9199  134.0962  152.2191 C   0  0  0  0  0  0  0  0  0  0  0  0
  147.1913  133.2296  152.0809 C   0  0  1  0  0  0  0  0  0  0  0  0
  148.1918  133.4674  153.2294 C   0  0  0  0  0  0  0  0  0  0  0  0
  147.7781  132.7793  154.4517 N   0  0  0  0  0  0  0  0  0  0  0  0
  148.3025  133.2016  155.6304 C   0  0  0  0  0  0  0  0  0  0  0  0
  149.4796  133.8822  155.6369 N   0  0  0  0  0  0  0  0  0  0  0  0
  150.0129  134.2965  156.7899 C   0  0  0  0  0  0  0  0  0  0  0  0
  149.5406  134.1468  158.0285 N   0  0  0  0  0  0  0  0  0  0  0  0
  148.3533  133.4756  158.0280 C   0  0  0  0  0  0  0  0  0  0  0  0
  147.6733  132.9675  156.8854 C   0  0  0  0  0  0  0  0  0  0  0  0
  146.4931  132.3461  157.2759 N   0  0  0  0  0  0  0  0  0  0  0  0
  146.4805  132.4730  158.5745 C   0  0  0  0  0  0  0  0  0  0  0  0
  147.5495  133.1560  159.1091 N   0  0  0  0  0  0  0  0  0  0  0  0
  147.7895  133.4443  160.5148 C   0  0  0  0  0  0  0  0  0  0  0  0
  146.5989  134.1005  161.2861 C   0  0  0  0  0  0  0  0  0  0  0  0
  145.4973  133.0511  161.6064 C   0  0  0  0  0  0  0  0  0  0  0  0
  144.3902  133.5848  162.3062 O   0  0  0  0  0  0  0  0  0  0  0  0
  147.0370  134.8169  162.5902 C   0  0  0  0  0  0  0  0  0  0  0  0
  147.8851  136.0723  162.3208 C   0  0  0  0  0  0  0  0  0  0  0  0
  147.1597  136.9780  161.4995 O   0  0  0  0  0  0  0  0  0  0  0  0
  146.8462  136.4372  160.2227 C   0  0  0  0  0  0  0  0  0  0  0  0
  145.9617  135.1856  160.3813 C   0  0  0  0  0  0  0  0  0  0  0  0
  149.4805  128.4974  153.7456 H   0  0  0  0  0  0  0  0  0  0  0  0
  148.0505  128.9185  152.8204 H   0  0  0  0  0  0  0  0  0  0  0  0
  147.9145  128.5698  154.5450 H   0  0  0  0  0  0  0  0  0  0  0  0
  149.3874  130.5585  155.0265 H   0  0  0  0  0  0  0  0  0  0  0  0
  149.4012  130.9667  153.3346 H   0  0  0  0  0  0  0  0  0  0  0  0
  147.0436  130.9964  155.2578 H   0  0  0  0  0  0  0  0  0  0  0  0
  146.2582  130.0763  153.0558 H   0  0  0  0  0  0  0  0  0  0  0  0
  145.4938  131.5566  153.5509 H   0  0  0  0  0  0  0  0  0  0  0  0
  146.4316  131.7627  149.8853 H   0  0  0  0  0  0  0  0  0  0  0  0
  145.6830  130.4567  150.7677 H   0  0  0  0  0  0  0  0  0  0  0  0
  144.0055  132.1867  150.0491 H   0  0  0  0  0  0  0  0  0  0  0  0
  144.0431  132.0345  151.7852 H   0  0  0  0  0  0  0  0  0  0  0  0
  145.4042  134.2084  150.1231 H   0  0  0  0  0  0  0  0  0  0  0  0
  144.0381  134.4257  151.1929 H   0  0  0  0  0  0  0  0  0  0  0  0
  146.1919  135.1518  152.2500 H   0  0  0  0  0  0  0  0  0  0  0  0
  145.4156  133.8859  153.1629 H   0  0  0  0  0  0  0  0  0  0  0  0
  147.6869  133.5312  151.1568 H   0  0  0  0  0  0  0  0  0  0  0  0
  149.1786  133.1051  152.9393 H   0  0  0  0  0  0  0  0  0  0  0  0
  148.2942  134.5387  153.4095 H   0  0  0  0  0  0  0  0  0  0  0  0
  150.9509  134.8255  156.7084 H   0  0  0  0  0  0  0  0  0  0  0  0
  145.6798  132.0766  159.1814 H   0  0  0  0  0  0  0  0  0  0  0  0
  148.0926  132.5084  160.9812 H   0  0  0  0  0  0  0  0  0  0  0  0
  148.6653  134.0914  160.5767 H   0  0  0  0  0  0  0  0  0  0  0  0
  145.1033  132.6171  160.6868 H   0  0  0  0  0  0  0  0  0  0  0  0
  145.9133  132.2243  162.1833 H   0  0  0  0  0  0  0  0  0  0  0  0
  143.6357  133.5601  161.7377 H   0  0  0  0  0  0  0  0  0  0  0  0
  146.1495  135.1221  163.1466 H   0  0  0  0  0  0  0  0  0  0  0  0
  147.5763  134.1415  163.2529 H   0  0  0  0  0  0  0  0  0  0  0  0
  148.1180  136.5698  163.2623 H   0  0  0  0  0  0  0  0  0  0  0  0
  148.8392  135.8212  161.8563 H   0  0  0  0  0  0  0  0  0  0  0  0
  146.3125  137.1949  159.6488 H   0  0  0  0  0  0  0  0  0  0  0  0
  147.7606  136.2209  159.6701 H   0  0  0  0  0  0  0  0  0  0  0  0
  145.7242  134.7724  159.4002 H   0  0  0  0  0  0  0  0  0  0  0  0
  145.0106  135.5079  160.8072 H   0  0  0  0  0  0  0  0  0  0  0  0
  147.7187  131.3249  151.6926 H   0  0  0  0  0  0  0  0  0  0  0  0
  1  2  1  0  0  0  0
  1 31  1  0  0  0  0
  1 32  1  0  0  0  0
  1 33  1  0  0  0  0
  2  3  1  0  0  0  0
  2 34  1  0  0  0  0
  2 35  1  0  0  0  0
  3 12  1  0  0  0  0
  3  4  1  0  0  0  0
  3 36  1  0  0  0  0
  4  5  1  0  0  0  0
  4 37  1  0  0  0  0
  4 38  1  0  0  0  0
  5 10  1  0  0  0  0
  5  6  1  0  0  0  0
  5 65  1  0  0  0  0
  6  7  1  0  0  0  0
  6 39  1  0  0  0  0
  6 40  1  0  0  0  0
  7  8  1  0  0  0  0
  7 41  1  0  0  0  0
  7 42  1  0  0  0  0
  8  9  1  0  0  0  0
  8 43  1  0  0  0  0
  8 44  1  0  0  0  0
  9 10  1  0  0  0  0
  9 45  1  0  0  0  0
  9 46  1  0  0  0  0
 10 11  1  0  0  0  0
 10 47  1  0  0  0  0
 11 12  1  0  0  0  0
 11 48  1  0  0  0  0
 11 49  1  0  0  0  0
 12 13  1  0  0  0  0
 13 18  1  0  0  0  0
 13 14  2  0  0  0  0
 14 15  1  0  0  0  0
 15 16  2  0  0  0  0
 15 50  1  0  0  0  0
 16 17  1  0  0  0  0
 17 21  1  0  0  0  0
 17 18  2  0  0  0  0
 18 19  1  0  0  0  0
 19 20  2  0  0  0  0
 20 21  1  0  0  0  0
 20 51  1  0  0  0  0
 21 22  1  0  0  0  0
 22 23  1  0  0  0  0
 22 52  1  0  0  0  0
 22 53  1  0  0  0  0
 23 30  1  0  0  0  0
 23 24  1  0  0  0  0
 23 26  1  0  0  0  0
 24 25  1  0  0  0  0
 24 54  1  0  0  0  0
 24 55  1  0  0  0  0
 25 56  1  0  0  0  0
 26 27  1  0  0  0  0
 26 57  1  0  0  0  0
 26 58  1  0  0  0  0
 27 28  1  0  0  0  0
 27 59  1  0  0  0  0
 27 60  1  0  0  0  0
 28 29  1  0  0  0  0
 29 30  1  0  0  0  0
 29 61  1  0  0  0  0
 29 62  1  0  0  0  0
 30 63  1  0  0  0  0
 30 64  1  0  0  0  0
M  CHG  1   5   1
M  END
> <s_m_source_file>
AV-unprocessed.smi

> <i_m_source_file_index>
282

> <i_lp_mmshare_version>
43012

> <i_f3d_flags>
0

> <s_epik_input>
W0NIMl0xW0NIMl1bQ0gyXVtDSDJdW0NAQEhdKE4xMilbQ0gyXU4oW0NAQEhdKFtDSDJdMilbQ0gyXVtDSDNdKWMobltjSF1uMyljKGMzNCluW2NIXW40W0NIMl1DNShbQ0gyXVtPSF0pW0NIMl1bQ0gyXU9bQ0gyXVtDSDJdNQ==

> <s_epik_cmdline>
J2VwaWtfcHl0aG9uJywgJy1waCcsICc3LjAnLCAnLXRuJywgJzgnLCAnLW1hJywgJzIwMCcsICctbWV0YWxfYmluZGluZycsICctaW1hZScsICc8aW5maWxlLm1hZT4nLCAnLW9tYWUnLCAnPG91dGZpbGUubWFlPic=

> <r_lp_tautomer_probability>
1

> <r_epik_Ionization_Penalty>
0.00308583

> <r_epik_Ionization_Penalty_Charging>
0.00300384

> <r_epik_Ionization_Penalty_Neutral>
8.19894e-05

> <r_epik_State_Penalty>
-0

> <r_epik_Charging_Adjusted_Penalty>
0.00300384

> <i_epik_Tot_Q>
1

> <i_epik_Tot_abs_Q>
1

> <r_epik_Metal_State_Penalty>
-0

> <b_epik_Metal_Only>
0

> <s_lp_Force_Field>
OPLS_2005

> <r_lp_Energy>
61.1987

> <b_lp_Chiralities_Consistent>
1

> <s_lp_Variant>
AV-unprocessed.smi:282-5

> <Gold.Version>
5.8.1

> <Gold.Id.Protein>
6NUR|6NUR_protein|mol2

> <Gold.PLP.Fitness>
48.8581

> <Gold.PLP.PLP>
-41.6090

> <Gold.PLP.part.hbond>
-3.9445

> <Gold.PLP.part.metal>
0.0000

> <Gold.PLP.part.buried>
-4.6014

> <Gold.PLP.part.nonpolar>
-32.1453

> <Gold.PLP.part.repulsive>
0.0607

> <Gold.PLP.ligand.clash>
0.0000

> <Gold.PLP.ligand.torsion>
1.0047

> <Gold.PLP.Chemscore.Hbond>
2.9920

> <Gold.PLP.Chemscore.CHOScore>
0.0000

> <Gold.PLP.Chemscore.Metal>
0.0000

> <Gold.Chemscore.Hbonds>
donor molecule, donor type, donor heavy atom, donor atom, acceptor molecule, acceptor atom, score
      L1  H     5    65       P1 10747  0.96
      P1  H  6896  6907       L1    16  1.00
      P1  H  6931  6943       L1    28  0.02
      P1  H  6934  6947       L1    28  0.70

> <Gold.PLP.Chemscore.Internal.Correction>
0.2824

> <Gold.Rescore>
     Score         DG    S(hbond)    S(metal)    S(lipo)     H(rot)  DE(clash)    DE(int)     intcor
     19.83     -20.91       2.75        0.00     101.69       2.20       0.02       1.06       ----

> <Gold.Chemscore.Fitness>
19.8299

> <Gold.Chemscore.DG>
-20.9071

> <Gold.Chemscore.ZeroCoef>
-5.4800

> <Gold.Chemscore.Hbond>
2.7462

> <Gold.Chemscore.Metal>
0.0000

> <Gold.Chemscore.Lipo>
101.6908

> <Gold.Chemscore.Internal_Hbond>
0.0000

> <Gold.Chemscore.DEClash>
0.0202

> <Gold.Chemscore.DEInternal>
1.0570

> <Gold.Chemscore.Rot>
2.2042

> <Gold.Chemscore.Internal.Correction>
   9.000000E+99

> <Gold.Chemscore.Hbonds>
donor molecule, donor type, donor heavy atom, donor atom, acceptor molecule, acceptor atom, score
      L1  H     5    65       P1 10747  0.91
      P1  H  6896  6907       L1    16  0.95
      P1  H  6934  6947       L1    28  0.13

> <Gold.Chemscore.Hbond.Weighted>
-9.1722

> <Gold.Chemscore.Metal.Weighted>
-0.0000

> <Gold.Chemscore.Lipo.Weighted>
-11.8978

> <Gold.Chemscore.Internal_Hbond.Weighted>
0.0000

> <Gold.Chemscore.DEClash.Weighted>
0.0202

> <Gold.Chemscore.DEInternal.Weighted>
1.0570

> <Gold.Chemscore.Rot.Weighted>
5.6429

> <Gold.Chemscore.Internal.Correction.Weighted>
   9.000000E+99

> <Gold.Protein.RotatedTorsions>
[ 6907 6896 6895 6894 ] final -106.22 input  -60.11 | X-H torsion
[ 7974 7965 7964 7962 ] final  -25.98 input  175.53 | X-H torsion
[ 8008 7997 7996 7995 ] final  -38.13 input   59.86 | X-H torsion
[ 10167 10162 10161 10158 ] final  -96.39 input  -65.29 | X-H torsion
[ 10718 10713 10712 10709 ] final -121.55 input   66.30 | X-H torsion
[ 10763 10752 10751 10750 ] final -133.40 input  -60.55 | X-H torsion
[ 11005 11000 10999 10996 ] final  163.07 input  -57.11 | X-H torsion

> <Gold.Protein.ActiveResidues>
 VAL166  LYS551  ARG553  GLY616  TRP617  ASP618  TYR619  PRO620  LYS621  CYS622 
 ASP623  PHE694  ASN695  SER759  ASP760  ASP761  ALA762  ILE779  LEU786  VAL792 
 PHE793  MET794  SER795  GLU796  ALA797  LYS798  CYS799  TRP800  GLU811  SER814 

> <Gold.Protein.RotatedAtoms>
  150.7377  134.0009  159.3637 H   0  0  0  0  0  0  0  0  0  0  0  0  # atno 6907 bound_to 6896
  151.7963  135.0719  160.0403 H   0  0  0  0  0  0  0  0  0  0  0  0  # atno 6908 bound_to 6896
  152.3172  133.5779  159.5756 H   0  0  0  0  0  0  0  0  0  0  0  0  # atno 6909 bound_to 6896
  146.1456  140.4959  142.8633 H   0  0  0  0  0  0  0  0  0  0  0  0  # atno 7974 bound_to 7965
  154.4042  140.1586  156.2649 H   0  0  0  0  0  0  0  0  0  0  0  0  # atno 8008 bound_to 7997
  155.9004  140.3433  155.6000 H   0  0  0  0  0  0  0  0  0  0  0  0  # atno 8009 bound_to 7997
  155.7455  140.0798  157.2216 H   0  0  0  0  0  0  0  0  0  0  0  0  # atno 8010 bound_to 7997
  140.2943  143.3202  152.0314 H   0  0  0  0  0  0  0  0  0  0  0  0  # atno 10167 bound_to 10162
  156.1346  130.6421  150.9676 H   0  0  0  0  0  0  0  0  0  0  0  0  # atno 10718 bound_to 10713
  154.8733  135.3767  154.4567 H   0  0  0  0  0  0  0  0  0  0  0  0  # atno 10763 bound_to 10752
  153.5238  135.7028  153.5723 H   0  0  0  0  0  0  0  0  0  0  0  0  # atno 10764 bound_to 10752
  153.3958  135.3961  155.1919 H   0  0  0  0  0  0  0  0  0  0  0  0  # atno 10765 bound_to 10752
  140.2321  134.8116  157.3327 H   0  0  0  0  0  0  0  0  0  0  0  0  # atno 11005 bound_to 11000
  144.7842  140.5902  143.6585 LP  0  0  0  0  0  0  0  0  0  0  0  0  # atno 17320 bound_to 7965
  145.4946  139.1486  143.3691 LP  0  0  0  0  0  0  0  0  0  0  0  0  # atno 17321 bound_to 7965
  139.4930  144.6502  151.6691 LP  0  0  0  0  0  0  0  0  0  0  0  0  # atno 17342 bound_to 10162
  140.5705  144.0116  150.6214 LP  0  0  0  0  0  0  0  0  0  0  0  0  # atno 17343 bound_to 10162
  157.6520  131.0895  150.8030 LP  0  0  0  0  0  0  0  0  0  0  0  0  # atno 17370 bound_to 10713
  156.8111  130.4952  149.5356 LP  0  0  0  0  0  0  0  0  0  0  0  0  # atno 17371 bound_to 10713
  140.1739  134.4573  155.7814 LP  0  0  0  0  0  0  0  0  0  0  0  0  # atno 17394 bound_to 11000
  141.2217  133.6954  156.7755 LP  0  0  0  0  0  0  0  0  0  0  0  0  # atno 17395 bound_to 11000

$$$$
