AV-unprocessed.smi:409|AV-procd|sdf|2506|dock4
  -GOLD-   2262022453D 1   1.00000     0.00000
 Structure written by MMmdl.
 34 35  0  0  0  0  0  0  0  0  2 V2000
  150.7087  140.5274  155.1663 O   0  0  0  0  0  0  0  0  0  0  0  0
  149.9712  141.5029  155.3144 C   0  0  0  0  0  0  0  0  0  0  0  0
  148.7168  141.6746  154.4472 C   0  0  0  0  0  0  0  0  0  0  0  0
  147.7730  140.5530  154.5779 N   0  0  0  0  0  0  0  0  0  0  0  0
  147.3945  139.8759  153.4052 C   0  0  0  0  0  0  0  0  0  0  0  0
  146.5341  138.8402  153.4293 C   0  0  0  0  0  0  0  0  0  0  0  0
  145.9911  138.4236  154.7163 C   0  0  0  0  0  0  0  0  0  0  0  0
  145.2084  137.4764  154.7580 O   0  0  0  0  0  0  0  0  0  0  0  0
  146.3850  139.1157  155.8253 N   0  5  0  0  0  0  0  0  0  0  0  0
  147.2586  140.1694  155.7851 C   0  0  0  0  0  0  0  0  0  0  0  0
  147.5986  140.7823  156.7979 O   0  0  0  0  0  0  0  0  0  0  0  0
  150.1818  142.4508  156.2402 N   0  0  0  0  0  0  0  0  0  0  0  0
  151.3041  142.4865  157.1728 C   0  0  0  0  0  0  0  0  0  0  0  0
  151.0678  141.5143  158.3473 C   0  0  0  0  0  0  0  0  0  0  0  0
  152.2035  141.5941  159.3805 C   0  0  0  0  0  0  0  0  0  0  0  0
  152.3994  143.0321  159.8854 C   0  0  0  0  0  0  0  0  0  0  0  0
  152.6406  144.0017  158.7177 C   0  0  0  0  0  0  0  0  0  0  0  0
  151.5037  143.9252  157.6857 C   0  0  0  0  0  0  0  0  0  0  0  0
  148.2359  142.6118  154.7298 H   0  0  0  0  0  0  0  0  0  0  0  0
  149.0021  141.8037  153.4013 H   0  0  0  0  0  0  0  0  0  0  0  0
  147.8368  140.2510  152.4942 H   0  0  0  0  0  0  0  0  0  0  0  0
  146.2508  138.3325  152.5191 H   0  0  0  0  0  0  0  0  0  0  0  0
  149.5222  143.2134  156.2914 H   0  0  0  0  0  0  0  0  0  0  0  0
  152.2121  142.1880  156.6450 H   0  0  0  0  0  0  0  0  0  0  0  0
  150.1194  141.7468  158.8343 H   0  0  0  0  0  0  0  0  0  0  0  0
  150.9825  140.4914  157.9793 H   0  0  0  0  0  0  0  0  0  0  0  0
  151.9898  140.9309  160.2193 H   0  0  0  0  0  0  0  0  0  0  0  0
  153.1303  141.2352  158.9310 H   0  0  0  0  0  0  0  0  0  0  0  0
  151.5177  143.3460  160.4455 H   0  0  0  0  0  0  0  0  0  0  0  0
  153.2382  143.0714  160.5809 H   0  0  0  0  0  0  0  0  0  0  0  0
  152.7335  145.0211  159.0930 H   0  0  0  0  0  0  0  0  0  0  0  0
  153.5885  143.7625  158.2341 H   0  0  0  0  0  0  0  0  0  0  0  0
  151.7208  144.5930  156.8511 H   0  0  0  0  0  0  0  0  0  0  0  0
  150.5803  144.2882  158.1396 H   0  0  0  0  0  0  0  0  0  0  0  0
  1  2  2  0  0  0  0
  2  3  1  0  0  0  0
  2 12  1  0  0  0  0
  3  4  1  0  0  0  0
  3 19  1  0  0  0  0
  3 20  1  0  0  0  0
  4 10  1  0  0  0  0
  4  5  1  0  0  0  0
  5  6  2  0  0  0  0
  5 21  1  0  0  0  0
  6  7  1  0  0  0  0
  6 22  1  0  0  0  0
  7  8  2  0  0  0  0
  7  9  1  0  0  0  0
  9 10  1  0  0  0  0
 10 11  2  0  0  0  0
 12 13  1  0  0  0  0
 12 23  1  0  0  0  0
 13 18  1  0  0  0  0
 13 14  1  0  0  0  0
 13 24  1  0  0  0  0
 14 15  1  0  0  0  0
 14 25  1  0  0  0  0
 14 26  1  0  0  0  0
 15 16  1  0  0  0  0
 15 27  1  0  0  0  0
 15 28  1  0  0  0  0
 16 17  1  0  0  0  0
 16 29  1  0  0  0  0
 16 30  1  0  0  0  0
 17 18  1  0  0  0  0
 17 31  1  0  0  0  0
 17 32  1  0  0  0  0
 18 33  1  0  0  0  0
 18 34  1  0  0  0  0
M  CHG  1   9  -1
M  END
> <s_m_source_file>
AV-unprocessed.smi

> <i_m_source_file_index>
409

> <i_lp_mmshare_version>
43012

> <i_f3d_flags>
0

> <s_epik_input>
W0NIMl0xW0NIMl1bQ0gyXVtDSDJdW0NIMl1bQ0hdMVtOSF1DKD1PKVtDSDJdbjJbY0hdW2NIXWMoPU8pW25IXWMyPU8=

> <s_epik_cmdline>
J2VwaWtfcHl0aG9uJywgJy1waCcsICc3LjAnLCAnLXRuJywgJzgnLCAnLW1hJywgJzIwMCcsICctbWV0YWxfYmluZGluZycsICctaW1hZScsICc8aW5maWxlLm1hZT4nLCAnLW9tYWUnLCAnPG91dGZpbGUubWFlPic=

> <r_lp_tautomer_probability>
0.999537

> <r_epik_Ionization_Penalty>
3.11464

> <r_epik_Ionization_Penalty_Charging>
2.89611e-08

> <r_epik_Ionization_Penalty_Neutral>
3.11464

> <r_epik_State_Penalty>
3.11372

> <r_epik_Charging_Adjusted_Penalty>
3.11373

> <i_epik_Tot_Q>
-1

> <i_epik_Tot_abs_Q>
1

> <r_epik_Metal_State_Penalty>
0.463005

> <b_epik_Metal_Only>
1

> <s_lp_Force_Field>
OPLS_2005

> <r_lp_Energy>
17.6148

> <b_lp_Chiralities_Consistent>
1

> <s_lp_Variant>
AV-unprocessed.smi:409-2

> <Gold.Version>
5.8.1

> <Gold.Id.Protein>
6NUR|6NUR_protein|mol2

> <Gold.PLP.Fitness>
40.0401

> <Gold.PLP.PLP>
-31.6531

> <Gold.PLP.part.hbond>
-2.0000

> <Gold.PLP.part.metal>
0.0000

> <Gold.PLP.part.buried>
-2.6583

> <Gold.PLP.part.nonpolar>
-26.9131

> <Gold.PLP.part.repulsive>
0.2713

> <Gold.PLP.ligand.clash>
0.0000

> <Gold.PLP.ligand.torsion>
0.2978

> <Gold.PLP.Chemscore.Hbond>
1.9920

> <Gold.PLP.Chemscore.CHOScore>
1.0000

> <Gold.PLP.Chemscore.Metal>
0.0000

> <Gold.Chemscore.Hbonds>
donor molecule, donor type, donor heavy atom, donor atom, acceptor molecule, acceptor atom, score
      L1  H    12    23       P1  8028  1.00
      P1  H  7989  7998       L1     1  0.99
      L1  C     5    21       P1  7957  1.00

> <Gold.PLP.Chemscore.Internal.Correction>
0.0067

> <Gold.Rescore>
     Score         DG    S(hbond)    S(metal)    S(lipo)     H(rot)  DE(clash)    DE(int)     intcor
     14.60     -16.40       1.63        0.00      83.42       1.67       0.19       1.61       ----

> <Gold.Chemscore.Fitness>
14.6014

> <Gold.Chemscore.DG>
-16.4020

> <Gold.Chemscore.ZeroCoef>
-5.4800

> <Gold.Chemscore.Hbond>
1.6269

> <Gold.Chemscore.Metal>
0.0000

> <Gold.Chemscore.Lipo>
83.4246

> <Gold.Chemscore.Internal_Hbond>
0.0000

> <Gold.Chemscore.DEClash>
0.1938

> <Gold.Chemscore.DEInternal>
1.6068

> <Gold.Chemscore.Rot>
1.6690

> <Gold.Chemscore.Internal.Correction>
   9.000000E+99

> <Gold.Chemscore.Hbonds>
donor molecule, donor type, donor heavy atom, donor atom, acceptor molecule, acceptor atom, score
      L1  H    12    23       P1  8028  0.94
      P1  H  7989  7998       L1     1  0.42

> <Gold.Chemscore.Hbond.Weighted>
-5.4339

> <Gold.Chemscore.Metal.Weighted>
-0.0000

> <Gold.Chemscore.Lipo.Weighted>
-9.7607

> <Gold.Chemscore.Internal_Hbond.Weighted>
0.0000

> <Gold.Chemscore.DEClash.Weighted>
0.1938

> <Gold.Chemscore.DEInternal.Weighted>
1.6068

> <Gold.Chemscore.Rot.Weighted>
4.2726

> <Gold.Chemscore.Internal.Correction.Weighted>
   9.000000E+99

> <Gold.Protein.RotatedTorsions>
[ 6907 6896 6895 6894 ] final  -74.97 input  -60.11 | X-H torsion
[ 7974 7965 7964 7962 ] final  179.22 input  175.53 | X-H torsion
[ 8008 7997 7996 7995 ] final  -96.20 input   59.86 | X-H torsion
[ 10167 10162 10161 10158 ] final -122.14 input  -65.29 | X-H torsion
[ 10718 10713 10712 10709 ] final -171.99 input   66.30 | X-H torsion
[ 10763 10752 10751 10750 ] final   72.20 input  -60.55 | X-H torsion
[ 11005 11000 10999 10996 ] final    6.43 input  -57.11 | X-H torsion

> <Gold.Protein.ActiveResidues>
 VAL166  LYS551  ARG553  GLY616  TRP617  ASP618  TYR619  PRO620  LYS621  CYS622 
 ASP623  PHE694  ASN695  SER759  ASP760  ASP761  ALA762  ILE779  LEU786  VAL792 
 PHE793  MET794  SER795  GLU796  ALA797  LYS798  CYS799  TRP800  GLU811  SER814 

> <Gold.Protein.RotatedAtoms>
  150.7074  134.4790  159.5460 H   0  0  0  0  0  0  0  0  0  0  0  0  # atno 6907 bound_to 6896
  152.2431  134.8206  160.0466 H   0  0  0  0  0  0  0  0  0  0  0  0  # atno 6908 bound_to 6896
  151.8981  133.3496  159.3858 H   0  0  0  0  0  0  0  0  0  0  0  0  # atno 6909 bound_to 6896
  144.7148  140.0516  143.6435 H   0  0  0  0  0  0  0  0  0  0  0  0  # atno 7974 bound_to 7965
  154.7713  140.0473  157.1053 H   0  0  0  0  0  0  0  0  0  0  0  0  # atno 8008 bound_to 7997
  154.9817  140.3102  155.4924 H   0  0  0  0  0  0  0  0  0  0  0  0  # atno 8009 bound_to 7997
  156.2921  140.2235  156.4916 H   0  0  0  0  0  0  0  0  0  0  0  0  # atno 8010 bound_to 7997
  140.0174  143.5379  152.2236 H   0  0  0  0  0  0  0  0  0  0  0  0  # atno 10167 bound_to 10162
  156.7489  130.9371  151.3114 H   0  0  0  0  0  0  0  0  0  0  0  0  # atno 10718 bound_to 10713
  153.0444  135.5109  154.7708 H   0  0  0  0  0  0  0  0  0  0  0  0  # atno 10763 bound_to 10752
  154.6619  135.2940  154.9857 H   0  0  0  0  0  0  0  0  0  0  0  0  # atno 10764 bound_to 10752
  154.0705  135.6678  153.4876 H   0  0  0  0  0  0  0  0  0  0  0  0  # atno 10765 bound_to 10752
  140.5595  134.0206  155.7966 H   0  0  0  0  0  0  0  0  0  0  0  0  # atno 11005 bound_to 11000
  145.9939  139.3037  143.0968 LP  0  0  0  0  0  0  0  0  0  0  0  0  # atno 17320 bound_to 7965
  145.8871  140.9327  143.0571 LP  0  0  0  0  0  0  0  0  0  0  0  0  # atno 17321 bound_to 7965
  139.6163  144.7620  151.2839 LP  0  0  0  0  0  0  0  0  0  0  0  0  # atno 17342 bound_to 10162
  140.7356  143.6731  150.8065 LP  0  0  0  0  0  0  0  0  0  0  0  0  # atno 17343 bound_to 10162
  157.6785  130.9118  150.0210 LP  0  0  0  0  0  0  0  0  0  0  0  0  # atno 17370 bound_to 10713
  156.1414  130.3642  149.9576 LP  0  0  0  0  0  0  0  0  0  0  0  0  # atno 17371 bound_to 10713
  141.1123  133.9597  157.2887 LP  0  0  0  0  0  0  0  0  0  0  0  0  # atno 17394 bound_to 11000
  139.9415  135.0190  156.8721 LP  0  0  0  0  0  0  0  0  0  0  0  0  # atno 17395 bound_to 11000

$$$$
