AV-unprocessed.smi:1093|AV-procd|sdf|4745|dock1
  -GOLD-   22720 3283D 1   1.00000     0.00000
 Structure written by MMmdl.
 47 48  0  0  0  0  0  0  0  0  2 V2000
  155.2588  140.2630  170.9271 C   0  0  0  0  0  0  0  0  0  0  0  0
  156.5824  140.7706  170.3366 C   0  0  0  0  0  0  0  0  0  0  0  0
  156.3836  141.8319  169.3173 N   0  3  2  0  0  0  0  0  0  0  0  0
  155.5886  142.9714  169.8452 C   0  0  0  0  0  0  0  0  0  0  0  0
  155.5093  144.1173  168.8229 C   0  0  0  0  0  0  0  0  0  0  0  0
  154.9355  143.6261  167.4880 C   0  0  0  0  0  0  0  0  0  0  0  0
  155.7566  142.4345  166.9722 C   0  0  2  0  0  0  0  0  0  0  0  0
  155.1781  141.9333  165.7290 N   0  0  0  0  0  0  0  0  0  0  0  0
  154.7020  142.7000  164.7376 C   0  0  0  0  0  0  0  0  0  0  0  0
  154.7256  143.9304  164.7627 O   0  0  0  0  0  0  0  0  0  0  0  0
  154.2309  141.9524  163.7255 N   0  0  0  0  0  0  0  0  0  0  0  0
  153.5966  142.3892  162.5317 C   0  0  0  0  0  0  0  0  0  0  0  0
  153.6803  141.7106  161.2945 C   0  0  0  0  0  0  0  0  0  0  0  0
  153.0307  142.2560  160.1706 C   0  0  0  0  0  0  0  0  0  0  0  0
  152.3145  143.4719  160.3031 C   0  0  0  0  0  0  0  0  0  0  0  0
  151.6466  144.0590  159.2041 N   0  0  0  0  0  0  0  0  0  0  0  0
  150.9332  145.3195  159.3675 C   0  0  0  0  0  0  0  0  0  0  0  0
  151.7276  143.4348  157.8875 C   0  0  0  0  0  0  0  0  0  0  0  0
  152.2479  144.1221  161.4908 N   0  0  0  0  0  0  0  0  0  0  0  0
  152.8747  143.5980  162.5644 C   0  0  0  0  0  0  0  0  0  0  0  0
  155.8211  141.3206  168.0386 C   0  0  0  0  0  0  0  0  0  0  0  0
  155.4372  139.4188  171.5935 H   0  0  0  0  0  0  0  0  0  0  0  0
  154.5809  139.9257  170.1426 H   0  0  0  0  0  0  0  0  0  0  0  0
  154.7471  141.0286  171.5095 H   0  0  0  0  0  0  0  0  0  0  0  0
  157.2454  141.1276  171.1260 H   0  0  0  0  0  0  0  0  0  0  0  0
  157.0842  139.9200  169.8736 H   0  0  0  0  0  0  0  0  0  0  0  0
  154.5858  142.6276  170.1042 H   0  0  0  0  0  0  0  0  0  0  0  0
  156.0426  143.3450  170.7637 H   0  0  0  0  0  0  0  0  0  0  0  0
  154.8943  144.9268  169.2173 H   0  0  0  0  0  0  0  0  0  0  0  0
  156.5043  144.5353  168.6628 H   0  0  0  0  0  0  0  0  0  0  0  0
  153.8930  143.3336  167.6229 H   0  0  0  0  0  0  0  0  0  0  0  0
  154.9420  144.4368  166.7582 H   0  0  0  0  0  0  0  0  0  0  0  0
  156.7702  142.7863  166.7688 H   0  0  0  0  0  0  0  0  0  0  0  0
  155.1238  140.9308  165.6219 H   0  0  0  0  0  0  0  0  0  0  0  0
  154.3753  140.9558  163.7990 H   0  0  0  0  0  0  0  0  0  0  0  0
  154.2408  140.7956  161.1813 H   0  0  0  0  0  0  0  0  0  0  0  0
  153.1002  141.7323  159.2294 H   0  0  0  0  0  0  0  0  0  0  0  0
  151.6164  146.1089  159.6823 H   0  0  0  0  0  0  0  0  0  0  0  0
  150.1453  145.2194  160.1145 H   0  0  0  0  0  0  0  0  0  0  0  0
  150.4665  145.6361  158.4346 H   0  0  0  0  0  0  0  0  0  0  0  0
  152.7647  143.3783  157.5557 H   0  0  0  0  0  0  0  0  0  0  0  0
  151.1698  144.0026  157.1429 H   0  0  0  0  0  0  0  0  0  0  0  0
  151.3160  142.4252  157.9138 H   0  0  0  0  0  0  0  0  0  0  0  0
  152.7917  144.1634  163.4812 H   0  0  0  0  0  0  0  0  0  0  0  0
  156.4365  140.5031  167.6642 H   0  0  0  0  0  0  0  0  0  0  0  0
  154.8264  140.9087  168.2182 H   0  0  0  0  0  0  0  0  0  0  0  0
  157.3002  142.2017  169.1079 H   0  0  0  0  0  0  0  0  0  0  0  0
  1  2  1  0  0  0  0
  1 22  1  0  0  0  0
  1 23  1  0  0  0  0
  1 24  1  0  0  0  0
  2  3  1  0  0  0  0
  2 25  1  0  0  0  0
  2 26  1  0  0  0  0
  3 21  1  0  0  0  0
  3  4  1  0  0  0  0
  3 47  1  0  0  0  0
  4  5  1  0  0  0  0
  4 27  1  0  0  0  0
  4 28  1  0  0  0  0
  5  6  1  0  0  0  0
  5 29  1  0  0  0  0
  5 30  1  0  0  0  0
  6  7  1  0  0  0  0
  6 31  1  0  0  0  0
  6 32  1  0  0  0  0
  7  8  1  0  0  0  0
  7 21  1  0  0  0  0
  7 33  1  0  0  0  0
  8  9  1  0  0  0  0
  8 34  1  0  0  0  0
  9 10  2  0  0  0  0
  9 11  1  0  0  0  0
 11 12  1  0  0  0  0
 11 35  1  0  0  0  0
 12 20  1  0  0  0  0
 12 13  2  0  0  0  0
 13 14  1  0  0  0  0
 13 36  1  0  0  0  0
 14 15  2  0  0  0  0
 14 37  1  0  0  0  0
 15 16  1  0  0  0  0
 15 19  1  0  0  0  0
 16 17  1  0  0  0  0
 16 18  1  0  0  0  0
 17 38  1  0  0  0  0
 17 39  1  0  0  0  0
 17 40  1  0  0  0  0
 18 41  1  0  0  0  0
 18 42  1  0  0  0  0
 18 43  1  0  0  0  0
 19 20  2  0  0  0  0
 20 44  1  0  0  0  0
 21 45  1  0  0  0  0
 21 46  1  0  0  0  0
M  CHG  1   3   1
M  END
> <s_m_source_file>
AV-unprocessed.smi

> <i_m_source_file_index>
1093

> <i_lp_mmshare_version>
43012

> <i_f3d_flags>
0

> <s_epik_input>
W0NIM11bQ0gyXU4xW0NIMl1bQ0gyXVtDSDJdW0NASF0oW0NIMl0xKVtOSF1DKD1PKVtOSF1jMltjSF1bY0hdYyhOKFtDSDNdKVtDSDNdKW5bY0hdMg==

> <s_epik_cmdline>
J2VwaWtfcHl0aG9uJywgJy1waCcsICc3LjAnLCAnLXRuJywgJzgnLCAnLW1hJywgJzIwMCcsICctbWV0YWxfYmluZGluZycsICctaW1hZScsICc8aW5maWxlLm1hZT4nLCAnLW9tYWUnLCAnPG91dGZpbGUubWFlPic=

> <r_lp_tautomer_probability>
1

> <r_epik_Ionization_Penalty>
0.489418

> <r_epik_Ionization_Penalty_Charging>
0.00268196

> <r_epik_Ionization_Penalty_Neutral>
0.486736

> <r_epik_State_Penalty>
0.491157

> <r_epik_Charging_Adjusted_Penalty>
0.493839

> <i_epik_Tot_Q>
1

> <i_epik_Tot_abs_Q>
1

> <r_epik_Metal_State_Penalty>
0.266953

> <b_epik_Metal_Only>
0

> <s_lp_Force_Field>
OPLS_2005

> <r_lp_Energy>
20.183

> <b_lp_Chiralities_Consistent>
1

> <s_lp_Variant>
AV-unprocessed.smi:1093-8

> <Gold.Version>
5.8.1

> <Gold.Id.Protein>
6NUR|6NUR_protein|mol2

> <Gold.PLP.Fitness>
46.3931

> <Gold.PLP.PLP>
-47.2930

> <Gold.PLP.part.hbond>
-0.4715

> <Gold.PLP.part.metal>
0.0000

> <Gold.PLP.part.buried>
-6.7721

> <Gold.PLP.part.nonpolar>
-41.2568

> <Gold.PLP.part.repulsive>
0.3677

> <Gold.PLP.ligand.clash>
0.0000

> <Gold.PLP.ligand.torsion>
0.4664

> <Gold.PLP.Chemscore.Hbond>
0.0000

> <Gold.PLP.Chemscore.CHOScore>
0.0000

> <Gold.PLP.Chemscore.Metal>
0.0000

> <Gold.PLP.Chemscore.Internal.Correction>
0.0329

> <Gold.Rescore>
     Score         DG    S(hbond)    S(metal)    S(lipo)     H(rot)  DE(clash)    DE(int)     intcor
     11.51     -15.03       0.00        0.00     107.50       1.18       0.34       3.17       ----

> <Gold.Chemscore.Fitness>
11.5124

> <Gold.Chemscore.DG>
-15.0260

> <Gold.Chemscore.ZeroCoef>
-5.4800

> <Gold.Chemscore.Hbond>
0.0000

> <Gold.Chemscore.Metal>
0.0000

> <Gold.Chemscore.Lipo>
107.5017

> <Gold.Chemscore.Internal_Hbond>
0.0000

> <Gold.Chemscore.DEClash>
0.3413

> <Gold.Chemscore.DEInternal>
3.1723

> <Gold.Chemscore.Rot>
1.1842

> <Gold.Chemscore.Internal.Correction>
   9.000000E+99

> <Gold.Chemscore.Hbond.Weighted>
-0.0000

> <Gold.Chemscore.Metal.Weighted>
-0.0000

> <Gold.Chemscore.Lipo.Weighted>
-12.5777

> <Gold.Chemscore.Internal_Hbond.Weighted>
0.0000

> <Gold.Chemscore.DEClash.Weighted>
0.3413

> <Gold.Chemscore.DEInternal.Weighted>
3.1723

> <Gold.Chemscore.Rot.Weighted>
3.0317

> <Gold.Chemscore.Internal.Correction.Weighted>
   9.000000E+99

> <Gold.Protein.RotatedTorsions>
[ 6907 6896 6895 6894 ] final  165.87 input  -60.11 | X-H torsion
[ 7974 7965 7964 7962 ] final   61.32 input  175.53 | X-H torsion
[ 8008 7997 7996 7995 ] final  137.59 input   59.86 | X-H torsion
[ 10167 10162 10161 10158 ] final   20.83 input  -65.29 | X-H torsion
[ 10718 10713 10712 10709 ] final   -9.19 input   66.30 | X-H torsion
[ 10763 10752 10751 10750 ] final -107.99 input  -60.55 | X-H torsion
[ 11005 11000 10999 10996 ] final  -35.78 input  -57.11 | X-H torsion

> <Gold.Protein.ActiveResidues>
 VAL166  LYS551  ARG553  GLY616  TRP617  ASP618  TYR619  PRO620  LYS621  CYS622 
 ASP623  PHE694  ASN695  SER759  ASP760  ASP761  ALA762  ILE779  LEU786  VAL792 
 PHE793  MET794  SER795  GLU796  ALA797  LYS798  CYS799  TRP800  GLU811  SER814 

> <Gold.Protein.RotatedAtoms>
  151.8877  133.3509  159.3787 H   0  0  0  0  0  0  0  0  0  0  0  0  # atno 6907 bound_to 6896
  150.7111  134.4955  159.5545 H   0  0  0  0  0  0  0  0  0  0  0  0  # atno 6908 bound_to 6896
  152.2519  134.8124  160.0495 H   0  0  0  0  0  0  0  0  0  0  0  0  # atno 6909 bound_to 6896
  145.8860  139.3477  143.0677 H   0  0  0  0  0  0  0  0  0  0  0  0  # atno 7974 bound_to 7965
  156.3001  140.2415  156.3934 H   0  0  0  0  0  0  0  0  0  0  0  0  # atno 8008 bound_to 7997
  154.8593  140.0420  157.1674 H   0  0  0  0  0  0  0  0  0  0  0  0  # atno 8009 bound_to 7997
  154.8914  140.2963  155.5372 H   0  0  0  0  0  0  0  0  0  0  0  0  # atno 8010 bound_to 7997
  140.5474  143.9570  150.6556 H   0  0  0  0  0  0  0  0  0  0  0  0  # atno 10167 bound_to 10162
  156.6917  130.5067  149.5942 H   0  0  0  0  0  0  0  0  0  0  0  0  # atno 10718 bound_to 10713
  154.8109  135.4654  154.0513 H   0  0  0  0  0  0  0  0  0  0  0  0  # atno 10763 bound_to 10752
  153.1945  135.6860  153.8316 H   0  0  0  0  0  0  0  0  0  0  0  0  # atno 10764 bound_to 10752
  153.7823  135.3255  155.3344 H   0  0  0  0  0  0  0  0  0  0  0  0  # atno 10765 bound_to 10752
  140.9823  133.7049  156.1705 H   0  0  0  0  0  0  0  0  0  0  0  0  # atno 11005 bound_to 11000
  145.8966  140.9270  143.0525 LP  0  0  0  0  0  0  0  0  0  0  0  0  # atno 17320 bound_to 7965
  144.6728  140.0976  143.7462 LP  0  0  0  0  0  0  0  0  0  0  0  0  # atno 17321 bound_to 7965
  140.2987  143.3275  152.0992 LP  0  0  0  0  0  0  0  0  0  0  0  0  # atno 17342 bound_to 10162
  139.5013  144.6710  151.6242 LP  0  0  0  0  0  0  0  0  0  0  0  0  # atno 17343 bound_to 10162
  156.1793  130.6488  151.0932 LP  0  0  0  0  0  0  0  0  0  0  0  0  # atno 17370 bound_to 10713
  157.7006  131.0777  150.6831 LP  0  0  0  0  0  0  0  0  0  0  0  0  # atno 17371 bound_to 10713
  140.7168  134.4402  157.5578 LP  0  0  0  0  0  0  0  0  0  0  0  0  # atno 17394 bound_to 11000
  139.8955  134.8680  156.2127 LP  0  0  0  0  0  0  0  0  0  0  0  0  # atno 17395 bound_to 11000

$$$$
