AV-unprocessed.smi:3032|AV-procd|sdf|11566|dock5
  -GOLD-   2272016533D 1   1.00000     0.00000
 Structure written by MMmdl.
 37 38  0  0  0  0  0  0  0  0  1 V2000
  153.4632  141.6105  160.6165 C   0  0  0  0  0  0  0  0  0  0  0  0
  152.4456  142.3949  159.7759 C   0  0  1  0  0  0  0  0  0  0  0  0
  152.9739  143.7968  159.4163 C   0  0  0  0  0  0  0  0  0  0  0  0
  151.9639  144.5793  158.5623 C   0  0  0  0  0  0  0  0  0  0  0  0
  151.5858  143.7988  157.2940 C   0  0  0  0  0  0  0  0  0  0  0  0
  151.0353  142.4010  157.6449 C   0  0  1  0  0  0  0  0  0  0  0  0
  150.6814  141.6092  156.3798 C   0  0  0  0  0  0  0  0  0  0  0  0
  151.1917  140.5076  156.1759 O   0  0  0  0  0  0  0  0  0  0  0  0
  149.7850  142.1713  155.5530 N   0  0  0  0  0  0  0  0  0  0  0  0
  149.2295  141.5461  154.3546 C   0  0  0  0  0  0  0  0  0  0  0  0
  147.7409  141.1857  154.5248 C   0  0  0  0  0  0  0  0  0  0  0  0
  147.2753  140.0784  153.6314 C   0  0  0  0  0  0  0  0  0  0  0  0
  147.1890  138.7921  153.9906 N   0  0  0  0  0  0  0  0  0  0  0  0
  146.6836  138.1292  152.8830 N   0  0  0  0  0  0  0  0  0  0  0  0
  146.5153  139.0800  151.9630 C   0  0  0  0  0  0  0  0  0  0  0  0
  146.8689  140.3037  152.3721 N   0  0  0  0  0  0  0  0  0  0  0  0
  152.0570  141.6217  158.5006 C   0  0  0  0  0  0  0  0  0  0  0  0
  146.8291  141.1759  151.8655 H   0  0  0  0  0  0  0  0  0  0  0  0
  154.3861  141.4386  160.0619 H   0  0  0  0  0  0  0  0  0  0  0  0
  153.0648  140.6385  160.9086 H   0  0  0  0  0  0  0  0  0  0  0  0
  153.7189  142.1494  161.5292 H   0  0  0  0  0  0  0  0  0  0  0  0
  151.5463  142.5194  160.3808 H   0  0  0  0  0  0  0  0  0  0  0  0
  153.1939  144.3574  160.3252 H   0  0  0  0  0  0  0  0  0  0  0  0
  153.9156  143.7081  158.8730 H   0  0  0  0  0  0  0  0  0  0  0  0
  151.0671  144.7814  159.1493 H   0  0  0  0  0  0  0  0  0  0  0  0
  152.3811  145.5495  158.2909 H   0  0  0  0  0  0  0  0  0  0  0  0
  150.8452  144.3633  156.7257 H   0  0  0  0  0  0  0  0  0  0  0  0
  152.4648  143.7098  156.6533 H   0  0  0  0  0  0  0  0  0  0  0  0
  150.1263  142.5327  158.2346 H   0  0  0  0  0  0  0  0  0  0  0  0
  149.4259  143.0828  155.7975 H   0  0  0  0  0  0  0  0  0  0  0  0
  149.3434  142.2415  153.5232 H   0  0  0  0  0  0  0  0  0  0  0  0
  149.7987  140.6553  154.0839 H   0  0  0  0  0  0  0  0  0  0  0  0
  147.5484  140.9037  155.5608 H   0  0  0  0  0  0  0  0  0  0  0  0
  147.1278  142.0664  154.3309 H   0  0  0  0  0  0  0  0  0  0  0  0
  146.1272  138.8798  150.9752 H   0  0  0  0  0  0  0  0  0  0  0  0
  152.9545  141.4161  157.9146 H   0  0  0  0  0  0  0  0  0  0  0  0
  151.6426  140.6504  158.7751 H   0  0  0  0  0  0  0  0  0  0  0  0
  1  2  1  0  0  0  0
  1 19  1  0  0  0  0
  1 20  1  0  0  0  0
  1 21  1  0  0  0  0
  2 17  1  0  0  0  0
  2  3  1  0  0  0  0
  2 22  1  0  0  0  0
  3  4  1  0  0  0  0
  3 23  1  0  0  0  0
  3 24  1  0  0  0  0
  4  5  1  0  0  0  0
  4 25  1  0  0  0  0
  4 26  1  0  0  0  0
  5  6  1  0  0  0  0
  5 27  1  0  0  0  0
  5 28  1  0  0  0  0
  6  7  1  0  0  0  0
  6 17  1  0  0  0  0
  6 29  1  0  0  0  0
  7  8  2  0  0  0  0
  7  9  1  0  0  0  0
  9 10  1  0  0  0  0
  9 30  1  0  0  0  0
 10 11  1  0  0  0  0
 10 31  1  0  0  0  0
 10 32  1  0  0  0  0
 11 12  1  0  0  0  0
 11 33  1  0  0  0  0
 11 34  1  0  0  0  0
 12 16  1  0  0  0  0
 12 13  2  0  0  0  0
 13 14  1  0  0  0  0
 14 15  2  0  0  0  0
 15 16  1  0  0  0  0
 15 35  1  0  0  0  0
 16 18  1  0  0  0  0
 17 36  1  0  0  0  0
 17 37  1  0  0  0  0
M  END
> <s_m_source_file>
AV-unprocessed.smi

> <i_m_source_file_index>
3032

> <i_lp_mmshare_version>
43012

> <i_f3d_flags>
0

> <s_epik_input>
W0NIM11bQ0BASF0xW0NIMl1bQ0gyXVtDSDJdW0NASF0oW0NIMl0xKUMoPU8pW05IXVtDSDJdW0NIMl1jMm5uW2NIXVtuSF0y

> <s_epik_cmdline>
J2VwaWtfcHl0aG9uJywgJy1waCcsICc3LjAnLCAnLXRuJywgJzgnLCAnLW1hJywgJzIwMCcsICctbWV0YWxfYmluZGluZycsICctaW1hZScsICc8aW5maWxlLm1hZT4nLCAnLW9tYWUnLCAnPG91dGZpbGUubWFlPic=

> <r_lp_tautomer_probability>
0.0517155

> <r_epik_Ionization_Penalty>
0.00149837

> <r_epik_Ionization_Penalty_Charging>
0

> <r_epik_Ionization_Penalty_Neutral>
0.00149837

> <r_epik_State_Penalty>
2.1109

> <r_epik_Charging_Adjusted_Penalty>
2.1109

> <i_epik_Tot_Q>
0

> <i_epik_Tot_abs_Q>
0

> <r_epik_Metal_State_Penalty>
2.23635

> <b_epik_Metal_Only>
0

> <s_lp_Force_Field>
OPLS_2005

> <r_lp_Energy>
11.6052

> <b_lp_Chiralities_Consistent>
1

> <s_lp_Variant>
AV-unprocessed.smi:3032-10

> <Gold.Version>
5.8.1

> <Gold.Id.Protein>
6NUR|6NUR_protein|mol2

> <Gold.PLP.Fitness>
44.6321

> <Gold.PLP.PLP>
-39.6744

> <Gold.PLP.part.hbond>
-2.5373

> <Gold.PLP.part.metal>
0.0000

> <Gold.PLP.part.buried>
-2.7304

> <Gold.PLP.part.nonpolar>
-35.6245

> <Gold.PLP.part.repulsive>
0.7508

> <Gold.PLP.ligand.clash>
0.0000

> <Gold.PLP.ligand.torsion>
0.5306

> <Gold.PLP.Chemscore.Hbond>
1.0000

> <Gold.PLP.Chemscore.CHOScore>
0.9991

> <Gold.PLP.Chemscore.Metal>
0.0000

> <Gold.Chemscore.Hbonds>
donor molecule, donor type, donor heavy atom, donor atom, acceptor molecule, acceptor atom, score
      L1  H     9    30       P1  8028  1.00
      L1  C    15    35       P1 10171  0.99

> <Gold.PLP.Chemscore.Internal.Correction>
0.0215

> <Gold.Rescore>
     Score         DG    S(hbond)    S(metal)    S(lipo)     H(rot)  DE(clash)    DE(int)     intcor
     14.49     -14.82       1.16        0.00      95.84       2.25       0.09       0.24       ----

> <Gold.Chemscore.Fitness>
14.4903

> <Gold.Chemscore.DG>
-14.8158

> <Gold.Chemscore.ZeroCoef>
-5.4800

> <Gold.Chemscore.Hbond>
1.1625

> <Gold.Chemscore.Metal>
0.0000

> <Gold.Chemscore.Lipo>
95.8418

> <Gold.Chemscore.Internal_Hbond>
0.0000

> <Gold.Chemscore.DEClash>
0.0871

> <Gold.Chemscore.DEInternal>
0.2384

> <Gold.Chemscore.Rot>
2.2501

> <Gold.Chemscore.Internal.Correction>
   9.000000E+99

> <Gold.Chemscore.Hbonds>
donor molecule, donor type, donor heavy atom, donor atom, acceptor molecule, acceptor atom, score
      L1  H     9    30       P1  8028  1.00

> <Gold.Chemscore.Hbond.Weighted>
-3.8827

> <Gold.Chemscore.Metal.Weighted>
-0.0000

> <Gold.Chemscore.Lipo.Weighted>
-11.2135

> <Gold.Chemscore.Internal_Hbond.Weighted>
0.0000

> <Gold.Chemscore.DEClash.Weighted>
0.0871

> <Gold.Chemscore.DEInternal.Weighted>
0.2384

> <Gold.Chemscore.Rot.Weighted>
5.7603

> <Gold.Chemscore.Internal.Correction.Weighted>
   9.000000E+99

> <Gold.Protein.RotatedTorsions>
[ 6907 6896 6895 6894 ] final  179.69 input  -60.11 | X-H torsion
[ 7974 7965 7964 7962 ] final   64.02 input  175.53 | X-H torsion
[ 8008 7997 7996 7995 ] final -177.54 input   59.86 | X-H torsion
[ 10167 10162 10161 10158 ] final   27.76 input  -65.29 | X-H torsion
[ 10718 10713 10712 10709 ] final -139.23 input   66.30 | X-H torsion
[ 10763 10752 10751 10750 ] final    3.98 input  -60.55 | X-H torsion
[ 11005 11000 10999 10996 ] final   -2.93 input  -57.11 | X-H torsion

> <Gold.Protein.ActiveResidues>
 VAL166  LYS551  ARG553  GLY616  TRP617  ASP618  TYR619  PRO620  LYS621  CYS622 
 ASP623  PHE694  ASN695  SER759  ASP760  ASP761  ALA762  ILE779  LEU786  VAL792 
 PHE793  MET794  SER795  GLU796  ALA797  LYS798  CYS799  TRP800  GLU811  SER814 

> <Gold.Protein.RotatedAtoms>
  151.6675  133.3315  159.3188 H   0  0  0  0  0  0  0  0  0  0  0  0  # atno 6907 bound_to 6896
  150.7883  134.6891  159.6496 H   0  0  0  0  0  0  0  0  0  0  0  0  # atno 6908 bound_to 6896
  152.3958  134.6371  160.0142 H   0  0  0  0  0  0  0  0  0  0  0  0  # atno 6909 bound_to 6896
  145.8551  139.3278  143.0852 H   0  0  0  0  0  0  0  0  0  0  0  0  # atno 7974 bound_to 7965
  156.0082  140.1235  157.0480 H   0  0  0  0  0  0  0  0  0  0  0  0  # atno 8008 bound_to 7997
  154.4266  140.1093  156.5861 H   0  0  0  0  0  0  0  0  0  0  0  0  # atno 8009 bound_to 7997
  155.6117  140.3471  155.4626 H   0  0  0  0  0  0  0  0  0  0  0  0  # atno 8010 bound_to 7997
  140.4911  144.0466  150.6297 H   0  0  0  0  0  0  0  0  0  0  0  0  # atno 10167 bound_to 10162
  156.3084  130.7468  151.1537 H   0  0  0  0  0  0  0  0  0  0  0  0  # atno 10718 bound_to 10713
  153.2767  135.6937  153.7426 H   0  0  0  0  0  0  0  0  0  0  0  0  # atno 10763 bound_to 10752
  153.6428  135.3390  155.3077 H   0  0  0  0  0  0  0  0  0  0  0  0  # atno 10764 bound_to 10752
  154.8482  135.4436  154.1808 H   0  0  0  0  0  0  0  0  0  0  0  0  # atno 10765 bound_to 10752
  140.6637  133.9297  155.8452 H   0  0  0  0  0  0  0  0  0  0  0  0  # atno 11005 bound_to 11000
  145.9313  140.9046  143.0355 LP  0  0  0  0  0  0  0  0  0  0  0  0  # atno 17320 bound_to 7965
  144.6728  140.1422  143.7436 LP  0  0  0  0  0  0  0  0  0  0  0  0  # atno 17321 bound_to 7965
  140.3735  143.2841  152.0251 LP  0  0  0  0  0  0  0  0  0  0  0  0  # atno 17342 bound_to 10162
  139.4851  144.6211  151.7253 LP  0  0  0  0  0  0  0  0  0  0  0  0  # atno 17343 bound_to 10162
  157.7385  131.0540  150.5290 LP  0  0  0  0  0  0  0  0  0  0  0  0  # atno 17370 bound_to 10713
  156.5427  130.4212  149.6146 LP  0  0  0  0  0  0  0  0  0  0  0  0  # atno 17371 bound_to 10713
  141.0445  134.0573  157.3861 LP  0  0  0  0  0  0  0  0  0  0  0  0  # atno 17394 bound_to 11000
  139.9004  135.0162  156.7241 LP  0  0  0  0  0  0  0  0  0  0  0  0  # atno 17395 bound_to 11000

$$$$
