AV-unprocessed.smi:1871|AV-procd|sdf|7602|dock6
  -GOLD-   22720 9323D 1   1.00000     0.00000
 Structure written by MMmdl.
 41 43  0  0  0  0  0  0  0  0  2 V2000
  149.8307  140.6052  153.9115 O   0  0  0  0  0  0  0  0  0  0  0  0
  149.3809  141.7191  154.6539 C   0  0  0  0  0  0  0  0  0  0  0  0
  150.1643  141.9472  155.9082 C   0  0  0  0  0  0  0  0  0  0  0  0
  150.6565  143.1425  156.3433 N   0  3  0  0  0  0  0  0  0  0  0  0
  151.3419  142.9653  157.5451 C   0  0  0  0  0  0  0  0  0  0  0  0
  152.0077  143.8769  158.3584 C   0  0  0  0  0  0  0  0  0  0  0  0
  152.6076  143.3621  159.5265 C   0  0  0  0  0  0  0  0  0  0  0  0
  152.5312  141.9912  159.8481 C   0  0  0  0  0  0  0  0  0  0  0  0
  151.8540  141.0765  159.0149 C   0  0  0  0  0  0  0  0  0  0  0  0
  151.2649  141.5941  157.8616 C   0  0  0  0  0  0  0  0  0  0  0  0
  150.5359  141.0044  156.8231 N   0  0  0  0  0  0  0  0  0  0  0  0
  150.2953  139.5530  156.8532 C   0  0  0  0  0  0  0  0  0  0  0  0
  148.7958  139.1992  156.9283 C   0  0  1  0  0  0  0  0  0  0  0  0
  148.3398  138.9375  155.6174 O   0  0  0  0  0  0  0  0  0  0  0  0
  148.5248  138.0414  157.8786 C   0  0  0  0  0  0  0  0  0  0  0  0
  149.5640  137.4850  158.6546 C   0  0  0  0  0  0  0  0  0  0  0  0
  149.2949  136.4325  159.5502 C   0  0  0  0  0  0  0  0  0  0  0  0
  147.9900  135.9158  159.6801 C   0  0  0  0  0  0  0  0  0  0  0  0
  147.7884  134.8995  160.5862 O   0  0  0  0  0  0  0  0  0  0  0  0
  146.9226  135.0877  161.6176 C   0  0  0  0  0  0  0  0  0  0  0  0
  146.6417  133.8982  162.2026 F   0  0  0  0  0  0  0  0  0  0  0  0
  147.4772  135.8866  162.5620 F   0  0  0  0  0  0  0  0  0  0  0  0
  146.9471  136.4826  158.9088 C   0  0  0  0  0  0  0  0  0  0  0  0
  147.2153  137.5347  158.0126 C   0  0  0  0  0  0  0  0  0  0  0  0
  149.8024  140.8257  152.9925 H   0  0  0  0  0  0  0  0  0  0  0  0
  149.4391  142.6063  154.0230 H   0  0  0  0  0  0  0  0  0  0  0  0
  148.3327  141.5681  154.9104 H   0  0  0  0  0  0  0  0  0  0  0  0
  152.0670  144.9273  158.1131 H   0  0  0  0  0  0  0  0  0  0  0  0
  153.1363  144.0319  160.1892 H   0  0  0  0  0  0  0  0  0  0  0  0
  153.0019  141.6334  160.7525 H   0  0  0  0  0  0  0  0  0  0  0  0
  151.8021  140.0281  159.2692 H   0  0  0  0  0  0  0  0  0  0  0  0
  150.7540  139.1177  155.9642 H   0  0  0  0  0  0  0  0  0  0  0  0
  150.8305  139.1365  157.7070 H   0  0  0  0  0  0  0  0  0  0  0  0
  148.2371  140.0683  157.2772 H   0  0  0  0  0  0  0  0  0  0  0  0
  147.5304  138.4521  155.6721 H   0  0  0  0  0  0  0  0  0  0  0  0
  150.5704  137.8693  158.5740 H   0  0  0  0  0  0  0  0  0  0  0  0
  150.0973  136.0181  160.1429 H   0  0  0  0  0  0  0  0  0  0  0  0
  145.9817  135.5229  161.2799 H   0  0  0  0  0  0  0  0  0  0  0  0
  145.9323  136.1251  159.0008 H   0  0  0  0  0  0  0  0  0  0  0  0
  146.4069  137.9612  157.4366 H   0  0  0  0  0  0  0  0  0  0  0  0
  150.5271  144.0147  155.8464 H   0  0  0  0  0  0  0  0  0  0  0  0
  1  2  1  0  0  0  0
  1 25  1  0  0  0  0
  2  3  1  0  0  0  0
  2 26  1  0  0  0  0
  2 27  1  0  0  0  0
  3 11  1  0  0  0  0
  3  4  2  0  0  0  0
  4  5  1  0  0  0  0
  4 41  1  0  0  0  0
  5 10  2  0  0  0  0
  5  6  1  0  0  0  0
  6  7  2  0  0  0  0
  6 28  1  0  0  0  0
  7  8  1  0  0  0  0
  7 29  1  0  0  0  0
  8  9  2  0  0  0  0
  8 30  1  0  0  0  0
  9 10  1  0  0  0  0
  9 31  1  0  0  0  0
 10 11  1  0  0  0  0
 11 12  1  0  0  0  0
 12 13  1  0  0  0  0
 12 32  1  0  0  0  0
 12 33  1  0  0  0  0
 13 14  1  0  0  0  0
 13 15  1  0  0  0  0
 13 34  1  0  0  0  0
 14 35  1  0  0  0  0
 15 24  1  0  0  0  0
 15 16  2  0  0  0  0
 16 17  1  0  0  0  0
 16 36  1  0  0  0  0
 17 18  2  0  0  0  0
 17 37  1  0  0  0  0
 18 19  1  0  0  0  0
 18 23  1  0  0  0  0
 19 20  1  0  0  0  0
 20 21  1  0  0  0  0
 20 22  1  0  0  0  0
 20 38  1  0  0  0  0
 23 24  2  0  0  0  0
 23 39  1  0  0  0  0
 24 40  1  0  0  0  0
M  CHG  1   4   1
M  END
> <s_m_source_file>
AV-unprocessed.smi

> <i_m_source_file_index>
1871

> <i_lp_mmshare_version>
43012

> <i_f3d_flags>
0

> <s_epik_input>
W2NIXTFbY0hdW2NIXVtjSF1jKGMxMiluKGMobjIpW0NIMl1bT0hdKVtDSDJdW0NASF0oW09IXSljM1tjSF1bY0hdYyhPW0NIXShGKUYpW2NIXVtjSF0z

> <s_epik_cmdline>
J2VwaWtfcHl0aG9uJywgJy1waCcsICc3LjAnLCAnLXRuJywgJzgnLCAnLW1hJywgJzIwMCcsICctbWV0YWxfYmluZGluZycsICctaW1hZScsICc8aW5maWxlLm1hZT4nLCAnLW9tYWUnLCAnPG91dGZpbGUubWFlPic=

> <r_lp_tautomer_probability>
1

> <r_epik_Ionization_Penalty>
1.35642

> <r_epik_Ionization_Penalty_Charging>
1.35557

> <r_epik_Ionization_Penalty_Neutral>
0.000856035

> <r_epik_State_Penalty>
1.43401

> <r_epik_Charging_Adjusted_Penalty>
2.78958

> <i_epik_Tot_Q>
1

> <i_epik_Tot_abs_Q>
1

> <r_epik_Metal_State_Penalty>
5.47166

> <b_epik_Metal_Only>
0

> <s_lp_Force_Field>
OPLS_2005

> <r_lp_Energy>
14.8195

> <b_lp_Chiralities_Consistent>
1

> <s_lp_Variant>
AV-unprocessed.smi:1871-4

> <Gold.Version>
5.8.1

> <Gold.Id.Protein>
6NUR|6NUR_protein|mol2

> <Gold.PLP.Fitness>
53.2941

> <Gold.PLP.PLP>
-49.3729

> <Gold.PLP.part.hbond>
-2.7822

> <Gold.PLP.part.metal>
0.0000

> <Gold.PLP.part.buried>
-3.0631

> <Gold.PLP.part.nonpolar>
-42.6006

> <Gold.PLP.part.repulsive>
0.1023

> <Gold.PLP.ligand.clash>
0.0000

> <Gold.PLP.ligand.torsion>
0.8717

> <Gold.PLP.Chemscore.Hbond>
1.8640

> <Gold.PLP.Chemscore.CHOScore>
0.0000

> <Gold.PLP.Chemscore.Metal>
0.0000

> <Gold.Chemscore.Hbonds>
donor molecule, donor type, donor heavy atom, donor atom, acceptor molecule, acceptor atom, score
      L1  H     1    25       P1  7957  0.88
      L1  H     4    41       P1  8028  0.86

> <Gold.PLP.Chemscore.Internal.Correction>
0.0727

> <Gold.Rescore>
     Score         DG    S(hbond)    S(metal)    S(lipo)     H(rot)  DE(clash)    DE(int)     intcor
     11.66     -13.44       1.43        0.00     100.80       3.37       0.21       1.58       ----

> <Gold.Chemscore.Fitness>
11.6565

> <Gold.Chemscore.DG>
-13.4403

> <Gold.Chemscore.ZeroCoef>
-5.4800

> <Gold.Chemscore.Hbond>
1.4320

> <Gold.Chemscore.Metal>
0.0000

> <Gold.Chemscore.Lipo>
100.8028

> <Gold.Chemscore.Internal_Hbond>
0.0000

> <Gold.Chemscore.DEClash>
0.2063

> <Gold.Chemscore.DEInternal>
1.5775

> <Gold.Chemscore.Rot>
3.3659

> <Gold.Chemscore.Internal.Correction>
   9.000000E+99

> <Gold.Chemscore.Hbonds>
donor molecule, donor type, donor heavy atom, donor atom, acceptor molecule, acceptor atom, score
      L1  H     1    25       P1  7957  0.84
      L1  H     4    41       P1  8028  0.44

> <Gold.Chemscore.Hbond.Weighted>
-4.7830

> <Gold.Chemscore.Metal.Weighted>
-0.0000

> <Gold.Chemscore.Lipo.Weighted>
-11.7939

> <Gold.Chemscore.Internal_Hbond.Weighted>
0.0000

> <Gold.Chemscore.DEClash.Weighted>
0.2063

> <Gold.Chemscore.DEInternal.Weighted>
1.5775

> <Gold.Chemscore.Rot.Weighted>
8.6167

> <Gold.Chemscore.Internal.Correction.Weighted>
   9.000000E+99

> <Gold.Protein.RotatedTorsions>
[ 6907 6896 6895 6894 ] final -105.31 input  -60.11 | X-H torsion
[ 7974 7965 7964 7962 ] final -146.33 input  175.53 | X-H torsion
[ 8008 7997 7996 7995 ] final  -73.53 input   59.86 | X-H torsion
[ 10167 10162 10161 10158 ] final   63.94 input  -65.29 | X-H torsion
[ 10718 10713 10712 10709 ] final   69.62 input   66.30 | X-H torsion
[ 10763 10752 10751 10750 ] final  139.55 input  -60.55 | X-H torsion
[ 11005 11000 10999 10996 ] final -164.16 input  -57.11 | X-H torsion

> <Gold.Protein.ActiveResidues>
 VAL166  LYS551  ARG553  GLY616  TRP617  ASP618  TYR619  PRO620  LYS621  CYS622 
 ASP623  PHE694  ASN695  SER759  ASP760  ASP761  ALA762  ILE779  LEU786  VAL792 
 PHE793  MET794  SER795  GLU796  ALA797  LYS798  CYS799  TRP800  GLU811  SER814 

> <Gold.Protein.RotatedAtoms>
  150.7330  134.0146  159.3680 H   0  0  0  0  0  0  0  0  0  0  0  0  # atno 6907 bound_to 6896
  151.8108  135.0679  160.0422 H   0  0  0  0  0  0  0  0  0  0  0  0  # atno 6908 bound_to 6896
  152.3074  133.5681  159.5694 H   0  0  0  0  0  0  0  0  0  0  0  0  # atno 6909 bound_to 6896
  144.8166  140.5469  143.5606 H   0  0  0  0  0  0  0  0  0  0  0  0  # atno 7974 bound_to 7965
  154.5255  140.0777  156.8251 H   0  0  0  0  0  0  0  0  0  0  0  0  # atno 8008 bound_to 7997
  155.3484  140.3411  155.4221 H   0  0  0  0  0  0  0  0  0  0  0  0  # atno 8009 bound_to 7997
  156.1727  140.1625  156.8405 H   0  0  0  0  0  0  0  0  0  0  0  0  # atno 8010 bound_to 7997
  140.1276  144.4673  150.6883 H   0  0  0  0  0  0  0  0  0  0  0  0  # atno 10167 bound_to 10162
  157.6356  130.9435  150.0539 H   0  0  0  0  0  0  0  0  0  0  0  0  # atno 10718 bound_to 10713
  153.9079  135.3014  155.3448 H   0  0  0  0  0  0  0  0  0  0  0  0  # atno 10763 bound_to 10752
  154.7638  135.4921  153.9518 H   0  0  0  0  0  0  0  0  0  0  0  0  # atno 10764 bound_to 10752
  153.1209  135.6782  153.9439 H   0  0  0  0  0  0  0  0  0  0  0  0  # atno 10765 bound_to 10752
  140.5900  134.5054  157.5191 H   0  0  0  0  0  0  0  0  0  0  0  0  # atno 11005 bound_to 11000
  145.5199  139.1477  143.3558 LP  0  0  0  0  0  0  0  0  0  0  0  0  # atno 17320 bound_to 7965
  146.2470  140.5340  142.8910 LP  0  0  0  0  0  0  0  0  0  0  0  0  # atno 17321 bound_to 7965
  140.6836  143.2338  151.5320 LP  0  0  0  0  0  0  0  0  0  0  0  0  # atno 17342 bound_to 10162
  139.5536  144.2332  152.1573 LP  0  0  0  0  0  0  0  0  0  0  0  0  # atno 17343 bound_to 10162
  156.1592  130.3643  149.9324 LP  0  0  0  0  0  0  0  0  0  0  0  0  # atno 17370 bound_to 10713
  156.7326  130.9049  151.3627 LP  0  0  0  0  0  0  0  0  0  0  0  0  # atno 17371 bound_to 10713
  139.9278  134.8021  156.1017 LP  0  0  0  0  0  0  0  0  0  0  0  0  # atno 17394 bound_to 11000
  141.0941  133.6702  156.2606 LP  0  0  0  0  0  0  0  0  0  0  0  0  # atno 17395 bound_to 11000

$$$$
