AV-unprocessed.smi:1274|AV-procd|sdf|5341|dock7
  -GOLD-   22720 4473D 1   1.00000     0.00000
 Structure written by MMmdl.
 36 37  0  0  0  0  0  0  0  0  2 V2000
  152.9457  139.5827  154.8694 O   0  0  0  0  0  0  0  0  0  0  0  0
  151.8756  138.6796  155.3235 S   0  0  0  0  0  0  0  0  0  0  0  0
  151.9032  137.2872  154.8456 O   0  0  0  0  0  0  0  0  0  0  0  0
  151.5678  138.8273  156.9068 N   0  5  0  0  0  0  0  0  0  0  0  0
  152.2953  139.8138  157.6859 C   0  0  0  0  0  0  0  0  0  0  0  0
  151.4996  141.1364  157.7410 C   0  0  0  0  0  0  0  0  0  0  0  0
  151.8636  142.0484  158.9089 C   0  0  0  0  0  0  0  0  0  0  0  0
  152.7998  141.6406  159.8845 C   0  0  0  0  0  0  0  0  0  0  0  0
  153.1014  142.5136  160.9472 C   0  0  0  0  0  0  0  0  0  0  0  0
  152.4485  143.7610  160.9944 C   0  0  0  0  0  0  0  0  0  0  0  0
  151.5452  144.1619  160.0741 N   0  0  0  0  0  0  0  0  0  0  0  0
  151.2645  143.3195  159.0563 C   0  0  0  0  0  0  0  0  0  0  0  0
  150.3771  139.3478  154.7457 N   0  0  0  0  0  0  0  0  0  0  0  0
  149.2022  138.4514  154.7324 C   0  0  0  0  0  0  0  0  0  0  0  0
  148.0635  139.0208  153.8689 C   0  0  0  0  0  0  0  0  0  0  0  0
  147.6835  140.4363  154.3101 C   0  0  0  0  0  0  0  0  0  0  0  0
  148.9284  141.3259  154.2705 C   0  0  0  0  0  0  0  0  0  0  0  0
  150.0553  140.7408  155.1362 C   0  0  0  0  0  0  0  0  0  0  0  0
  152.4819  139.4730  158.7049 H   0  0  0  0  0  0  0  0  0  0  0  0
  153.2769  140.0106  157.2540 H   0  0  0  0  0  0  0  0  0  0  0  0
  151.6628  141.6886  156.8149 H   0  0  0  0  0  0  0  0  0  0  0  0
  150.4296  140.9253  157.7744 H   0  0  0  0  0  0  0  0  0  0  0  0
  153.2836  140.6772  159.8148 H   0  0  0  0  0  0  0  0  0  0  0  0
  153.8169  142.2339  161.7060 H   0  0  0  0  0  0  0  0  0  0  0  0
  152.6555  144.4551  161.7954 H   0  0  0  0  0  0  0  0  0  0  0  0
  150.5395  143.6708  158.3369 H   0  0  0  0  0  0  0  0  0  0  0  0
  149.4855  137.4744  154.3420 H   0  0  0  0  0  0  0  0  0  0  0  0
  148.8639  138.2974  155.7576 H   0  0  0  0  0  0  0  0  0  0  0  0
  148.3720  139.0342  152.8227 H   0  0  0  0  0  0  0  0  0  0  0  0
  147.1929  138.3671  153.9258 H   0  0  0  0  0  0  0  0  0  0  0  0
  146.9082  140.8405  153.6587 H   0  0  0  0  0  0  0  0  0  0  0  0
  147.2711  140.4151  155.3195 H   0  0  0  0  0  0  0  0  0  0  0  0
  149.2756  141.4294  153.2417 H   0  0  0  0  0  0  0  0  0  0  0  0
  148.6799  142.3298  154.6155 H   0  0  0  0  0  0  0  0  0  0  0  0
  149.7677  140.7531  156.1882 H   0  0  0  0  0  0  0  0  0  0  0  0
  150.9368  141.3749  155.0494 H   0  0  0  0  0  0  0  0  0  0  0  0
  1  2  2  0  0  0  0
  2  3  2  0  0  0  0
  2  4  1  0  0  0  0
  2 13  1  0  0  0  0
  4  5  1  0  0  0  0
  5  6  1  0  0  0  0
  5 19  1  0  0  0  0
  5 20  1  0  0  0  0
  6  7  1  0  0  0  0
  6 21  1  0  0  0  0
  6 22  1  0  0  0  0
  7 12  1  0  0  0  0
  7  8  2  0  0  0  0
  8  9  1  0  0  0  0
  8 23  1  0  0  0  0
  9 10  2  0  0  0  0
  9 24  1  0  0  0  0
 10 11  1  0  0  0  0
 10 25  1  0  0  0  0
 11 12  2  0  0  0  0
 12 26  1  0  0  0  0
 13 18  1  0  0  0  0
 13 14  1  0  0  0  0
 14 15  1  0  0  0  0
 14 27  1  0  0  0  0
 14 28  1  0  0  0  0
 15 16  1  0  0  0  0
 15 29  1  0  0  0  0
 15 30  1  0  0  0  0
 16 17  1  0  0  0  0
 16 31  1  0  0  0  0
 16 32  1  0  0  0  0
 17 18  1  0  0  0  0
 17 33  1  0  0  0  0
 17 34  1  0  0  0  0
 18 35  1  0  0  0  0
 18 36  1  0  0  0  0
M  CHG  1   4  -1
M  END
> <s_m_source_file>
AV-unprocessed.smi

> <i_m_source_file_index>
1274

> <i_lp_mmshare_version>
43012

> <i_f3d_flags>
0

> <s_epik_input>
W0NIMl0xW0NIMl1bQ0gyXVtDSDJdW0NIMl1OMVMoPU8pKD1PKVtOSF1bQ0gyXVtDSDJdYzJbY0hdW2NIXVtjSF1uW2NIXTI=

> <s_epik_cmdline>
J2VwaWtfcHl0aG9uJywgJy1waCcsICc3LjAnLCAnLXRuJywgJzgnLCAnLW1hJywgJzIwMCcsICctbWV0YWxfYmluZGluZycsICctaW1hZScsICc8aW5maWxlLm1hZT4nLCAnLW9tYWUnLCAnPG91dGZpbGUubWFlPic=

> <r_epik_Ionization_Penalty>
1.98317

> <r_epik_Ionization_Penalty_Charging>
1.95606

> <r_epik_Ionization_Penalty_Neutral>
0.027117

> <r_epik_State_Penalty>
2.28376

> <r_epik_Charging_Adjusted_Penalty>
4.23982

> <i_epik_Tot_Q>
-1

> <i_epik_Tot_abs_Q>
1

> <r_epik_Metal_State_Penalty>
0.598332

> <b_epik_Metal_Only>
0

> <s_lp_Force_Field>
OPLS_2005

> <r_lp_Energy>
4.69546

> <b_lp_Chiralities_Consistent>
1

> <s_lp_Variant>
AV-unprocessed.smi:1274-2

> <Gold.Version>
5.8.1

> <Gold.Id.Protein>
6NUR|6NUR_protein|mol2

> <Gold.PLP.Fitness>
41.2401

> <Gold.PLP.PLP>
-35.6139

> <Gold.PLP.part.hbond>
-3.0021

> <Gold.PLP.part.metal>
0.0000

> <Gold.PLP.part.buried>
-4.2033

> <Gold.PLP.part.nonpolar>
-29.1274

> <Gold.PLP.part.repulsive>
0.3144

> <Gold.PLP.ligand.clash>
0.0000

> <Gold.PLP.ligand.torsion>
1.2279

> <Gold.PLP.Chemscore.Hbond>
2.1691

> <Gold.PLP.Chemscore.CHOScore>
0.0000

> <Gold.PLP.Chemscore.Metal>
0.0000

> <Gold.Chemscore.Hbonds>
donor molecule, donor type, donor heavy atom, donor atom, acceptor molecule, acceptor atom, score
      P1  H  7989  7998       L1     1  0.18
      P1  H  7997  8008       L1     1  1.00
      P1  H 10752 10764       L1     3  0.91

> <Gold.PLP.Chemscore.Internal.Correction>
1.5749

> <Gold.Rescore>
     Score         DG    S(hbond)    S(metal)    S(lipo)     H(rot)  DE(clash)    DE(int)     intcor
     17.87     -19.06       1.88        0.00      94.16       1.45       0.02       1.16       ----

> <Gold.Chemscore.Fitness>
17.8710

> <Gold.Chemscore.DG>
-19.0587

> <Gold.Chemscore.ZeroCoef>
-5.4800

> <Gold.Chemscore.Hbond>
1.8817

> <Gold.Chemscore.Metal>
0.0000

> <Gold.Chemscore.Lipo>
94.1631

> <Gold.Chemscore.Internal_Hbond>
0.0000

> <Gold.Chemscore.DEClash>
0.0237

> <Gold.Chemscore.DEInternal>
1.1640

> <Gold.Chemscore.Rot>
1.4544

> <Gold.Chemscore.Internal.Correction>
   9.000000E+99

> <Gold.Chemscore.Hbonds>
donor molecule, donor type, donor heavy atom, donor atom, acceptor molecule, acceptor atom, score
      P1  H  7989  7998       L1     1  0.03
      P1  H  7997  8008       L1     1  0.92
      P1  H 10752 10764       L1     3  0.85

> <Gold.Chemscore.Hbond.Weighted>
-6.2848

> <Gold.Chemscore.Metal.Weighted>
-0.0000

> <Gold.Chemscore.Lipo.Weighted>
-11.0171

> <Gold.Chemscore.Internal_Hbond.Weighted>
0.0000

> <Gold.Chemscore.DEClash.Weighted>
0.0237

> <Gold.Chemscore.DEInternal.Weighted>
1.1640

> <Gold.Chemscore.Rot.Weighted>
3.7232

> <Gold.Chemscore.Internal.Correction.Weighted>
   9.000000E+99

> <Gold.Protein.RotatedTorsions>
[ 6907 6896 6895 6894 ] final   74.81 input  -60.11 | X-H torsion
[ 7974 7965 7964 7962 ] final  137.55 input  175.53 | X-H torsion
[ 8008 7997 7996 7995 ] final  -33.43 input   59.86 | X-H torsion
[ 10167 10162 10161 10158 ] final  146.20 input  -65.29 | X-H torsion
[ 10718 10713 10712 10709 ] final   23.43 input   66.30 | X-H torsion
[ 10763 10752 10751 10750 ] final  -58.55 input  -60.55 | X-H torsion
[ 11005 11000 10999 10996 ] final    2.90 input  -57.11 | X-H torsion

> <Gold.Protein.ActiveResidues>
 VAL166  LYS551  ARG553  GLY616  TRP617  ASP618  TYR619  PRO620  LYS621  CYS622 
 ASP623  PHE694  ASN695  SER759  ASP760  ASP761  ALA762  ILE779  LEU786  VAL792 
 PHE793  MET794  SER795  GLU796  ALA797  LYS798  CYS799  TRP800  GLU811  SER814 

> <Gold.Protein.RotatedAtoms>
  152.4995  134.4214  159.9481 H   0  0  0  0  0  0  0  0  0  0  0  0  # atno 6907 bound_to 6896
  151.4187  133.3698  159.2761 H   0  0  0  0  0  0  0  0  0  0  0  0  # atno 6908 bound_to 6896
  150.9238  134.8677  159.7566 H   0  0  0  0  0  0  0  0  0  0  0  0  # atno 6909 bound_to 6896
  144.9457  139.4877  143.5550 H   0  0  0  0  0  0  0  0  0  0  0  0  # atno 7974 bound_to 7965
  154.4149  140.1711  156.1887 H   0  0  0  0  0  0  0  0  0  0  0  0  # atno 8008 bound_to 7997
  155.9621  140.3392  155.6476 H   0  0  0  0  0  0  0  0  0  0  0  0  # atno 8009 bound_to 7997
  155.6735  140.0714  157.2502 H   0  0  0  0  0  0  0  0  0  0  0  0  # atno 8010 bound_to 7997
  139.4911  144.5846  151.6803 H   0  0  0  0  0  0  0  0  0  0  0  0  # atno 10167 bound_to 10162
  157.1660  130.6738  149.6060 H   0  0  0  0  0  0  0  0  0  0  0  0  # atno 10718 bound_to 10713
  154.2399  135.6345  153.5203 H   0  0  0  0  0  0  0  0  0  0  0  0  # atno 10763 bound_to 10752
  152.9932  135.5539  154.5922 H   0  0  0  0  0  0  0  0  0  0  0  0  # atno 10764 bound_to 10752
  154.5425  135.2896  155.1057 H   0  0  0  0  0  0  0  0  0  0  0  0  # atno 10765 bound_to 10752
  140.5991  133.9852  155.8124 H   0  0  0  0  0  0  0  0  0  0  0  0  # atno 11005 bound_to 11000
  146.3303  139.8508  142.8873 LP  0  0  0  0  0  0  0  0  0  0  0  0  # atno 17320 bound_to 7965
  145.2921  141.0170  143.3657 LP  0  0  0  0  0  0  0  0  0  0  0  0  # atno 17321 bound_to 7965
  140.5460  144.0503  150.6107 LP  0  0  0  0  0  0  0  0  0  0  0  0  # atno 17342 bound_to 10162
  140.3541  143.2946  152.0455 LP  0  0  0  0  0  0  0  0  0  0  0  0  # atno 17343 bound_to 10162
  155.9746  130.4695  150.6398 LP  0  0  0  0  0  0  0  0  0  0  0  0  # atno 17370 bound_to 10713
  157.4088  131.0820  151.1240 LP  0  0  0  0  0  0  0  0  0  0  0  0  # atno 17371 bound_to 10713
  141.0884  133.9955  157.3277 LP  0  0  0  0  0  0  0  0  0  0  0  0  # atno 17394 bound_to 11000
  139.9240  135.0201  156.8168 LP  0  0  0  0  0  0  0  0  0  0  0  0  # atno 17395 bound_to 11000

$$$$
