AV-unprocessed.smi:1538|AV-procd|sdf|6195|dock4
  -GOLD-   22720 6363D 1   1.00000     0.00000
 Structure written by MMmdl.
 36 37  0  0  0  0  0  0  0  0  1 V2000
  152.6871  141.9273  160.1062 C   0  0  0  0  0  0  0  0  0  0  0  0
  152.0037  141.7220  158.8278 N   0  0  0  0  0  0  0  0  0  0  0  0
  151.0038  142.7440  158.4870 C   0  0  0  0  0  0  0  0  0  0  0  0
  150.0212  142.3008  157.3955 C   0  0  0  0  0  0  0  0  0  0  0  0
  150.7874  141.6872  156.2166 C   0  0  2  0  0  0  0  0  0  0  0  0
  149.8258  141.2962  155.0860 C   0  0  0  0  0  0  0  0  0  0  0  0
  150.0705  140.3261  154.3678 O   0  0  0  0  0  0  0  0  0  0  0  0
  148.7338  142.0620  154.9381 N   0  0  0  0  0  0  0  0  0  0  0  0
  147.7059  141.8667  153.9228 C   0  0  0  0  0  0  0  0  0  0  0  0
  146.3012  141.8109  154.5454 C   0  0  0  0  0  0  0  0  0  0  0  0
  145.5987  143.0669  154.3821 N   0  0  0  0  0  0  0  0  0  0  0  0
  145.4407  143.7912  153.2081 C   0  0  0  0  0  0  0  0  0  0  0  0
  144.7053  144.9089  153.5323 C   0  0  0  0  0  0  0  0  0  0  0  0
  144.4011  144.8921  154.8915 N   0  0  0  0  0  0  0  0  0  0  0  0
  144.9627  143.7718  155.3277 C   0  0  0  0  0  0  0  0  0  0  0  0
  151.5940  140.4661  156.7026 C   0  0  0  0  0  0  0  0  0  0  0  0
  152.3532  140.6906  158.0213 C   0  0  0  0  0  0  0  0  0  0  0  0
  153.2453  139.8947  158.3166 O   0  0  0  0  0  0  0  0  0  0  0  0
  153.7678  141.9822  159.9658 H   0  0  0  0  0  0  0  0  0  0  0  0
  152.4723  141.1041  160.7890 H   0  0  0  0  0  0  0  0  0  0  0  0
  152.3782  142.8522  160.5947 H   0  0  0  0  0  0  0  0  0  0  0  0
  150.4396  143.0282  159.3764 H   0  0  0  0  0  0  0  0  0  0  0  0
  151.5363  143.6367  158.1569 H   0  0  0  0  0  0  0  0  0  0  0  0
  149.3236  141.5721  157.8122 H   0  0  0  0  0  0  0  0  0  0  0  0
  149.4234  143.1530  157.0693 H   0  0  0  0  0  0  0  0  0  0  0  0
  151.4865  142.4341  155.8347 H   0  0  0  0  0  0  0  0  0  0  0  0
  148.6082  142.8380  155.5720 H   0  0  0  0  0  0  0  0  0  0  0  0
  147.7636  142.6593  153.1747 H   0  0  0  0  0  0  0  0  0  0  0  0
  147.9192  140.9326  153.4020 H   0  0  0  0  0  0  0  0  0  0  0  0
  145.7099  141.0179  154.0851 H   0  0  0  0  0  0  0  0  0  0  0  0
  146.3584  141.5865  155.6112 H   0  0  0  0  0  0  0  0  0  0  0  0
  145.8522  143.4601  152.2658 H   0  0  0  0  0  0  0  0  0  0  0  0
  144.3739  145.7170  152.8970 H   0  0  0  0  0  0  0  0  0  0  0  0
  144.9094  143.4563  156.3594 H   0  0  0  0  0  0  0  0  0  0  0  0
  150.9345  139.6112  156.8595 H   0  0  0  0  0  0  0  0  0  0  0  0
  152.3074  140.1667  155.9336 H   0  0  0  0  0  0  0  0  0  0  0  0
  1  2  1  0  0  0  0
  1 19  1  0  0  0  0
  1 20  1  0  0  0  0
  1 21  1  0  0  0  0
  2 17  1  0  0  0  0
  2  3  1  0  0  0  0
  3  4  1  0  0  0  0
  3 22  1  0  0  0  0
  3 23  1  0  0  0  0
  4  5  1  0  0  0  0
  4 24  1  0  0  0  0
  4 25  1  0  0  0  0
  5  6  1  0  0  0  0
  5 16  1  0  0  0  0
  5 26  1  0  0  0  0
  6  7  2  0  0  0  0
  6  8  1  0  0  0  0
  8  9  1  0  0  0  0
  8 27  1  0  0  0  0
  9 10  1  0  0  0  0
  9 28  1  0  0  0  0
  9 29  1  0  0  0  0
 10 11  1  0  0  0  0
 10 30  1  0  0  0  0
 10 31  1  0  0  0  0
 11 15  1  0  0  0  0
 11 12  1  0  0  0  0
 12 13  2  0  0  0  0
 12 32  1  0  0  0  0
 13 14  1  0  0  0  0
 13 33  1  0  0  0  0
 14 15  2  0  0  0  0
 15 34  1  0  0  0  0
 16 17  1  0  0  0  0
 16 35  1  0  0  0  0
 16 36  1  0  0  0  0
 17 18  2  0  0  0  0
M  END
> <s_m_source_file>
AV-unprocessed.smi

> <i_m_source_file_index>
1538

> <i_lp_mmshare_version>
43012

> <i_f3d_flags>
0

> <s_epik_input>
W0NIM11OMVtDSDJdW0NIMl1bQ0BIXShbQ0gyXUMxPU8pQyg9TylbTkhdW0NIMl1bQ0gyXW4yW2NIXVtjSF1uW2NIXTI=

> <s_epik_cmdline>
J2VwaWtfcHl0aG9uJywgJy1waCcsICc3LjAnLCAnLXRuJywgJzgnLCAnLW1hJywgJzIwMCcsICctbWV0YWxfYmluZGluZycsICctaW1hZScsICc8aW5maWxlLm1hZT4nLCAnLW9tYWUnLCAnPG91dGZpbGUubWFlPic=

> <r_lp_tautomer_probability>
1

> <r_epik_Ionization_Penalty>
0.590576

> <r_epik_Ionization_Penalty_Charging>
0.590576

> <r_epik_Ionization_Penalty_Neutral>
2.97775e-08

> <r_epik_State_Penalty>
0.604111

> <r_epik_Charging_Adjusted_Penalty>
1.19469

> <i_epik_Tot_Q>
0

> <i_epik_Tot_abs_Q>
0

> <r_epik_Metal_State_Penalty>
0.298544

> <b_epik_Metal_Only>
0

> <s_lp_Force_Field>
OPLS_2005

> <r_lp_Energy>
14.6501

> <b_lp_Chiralities_Consistent>
1

> <s_lp_Variant>
AV-unprocessed.smi:1538-4

> <Gold.Version>
5.8.1

> <Gold.Id.Protein>
6NUR|6NUR_protein|mol2

> <Gold.PLP.Fitness>
44.5757

> <Gold.PLP.PLP>
-38.5784

> <Gold.PLP.part.hbond>
-3.0000

> <Gold.PLP.part.metal>
0.0000

> <Gold.PLP.part.buried>
-3.4703

> <Gold.PLP.part.nonpolar>
-31.2158

> <Gold.PLP.part.repulsive>
0.4219

> <Gold.PLP.ligand.clash>
0.0000

> <Gold.PLP.ligand.torsion>
1.1458

> <Gold.PLP.Chemscore.Hbond>
2.7600

> <Gold.PLP.Chemscore.CHOScore>
0.0000

> <Gold.PLP.Chemscore.Metal>
0.0000

> <Gold.Chemscore.Hbonds>
donor molecule, donor type, donor heavy atom, donor atom, acceptor molecule, acceptor atom, score
      L1  H     8    27       P1  8028  0.80
      P1  H  7989  7998       L1     7  0.93
      P1  H  7997  8010       L1    18  1.00

> <Gold.PLP.Chemscore.Internal.Correction>
0.0089

> <Gold.Rescore>
     Score         DG    S(hbond)    S(metal)    S(lipo)     H(rot)  DE(clash)    DE(int)     intcor
     14.46     -15.56       2.22        0.00      66.07       1.98       0.03       1.07       ----

> <Gold.Chemscore.Fitness>
14.4635

> <Gold.Chemscore.DG>
-15.5603

> <Gold.Chemscore.ZeroCoef>
-5.4800

> <Gold.Chemscore.Hbond>
2.2199

> <Gold.Chemscore.Metal>
0.0000

> <Gold.Chemscore.Lipo>
66.0691

> <Gold.Chemscore.Internal_Hbond>
0.0000

> <Gold.Chemscore.DEClash>
0.0252

> <Gold.Chemscore.DEInternal>
1.0716

> <Gold.Chemscore.Rot>
1.9782

> <Gold.Chemscore.Internal.Correction>
   9.000000E+99

> <Gold.Chemscore.Hbonds>
donor molecule, donor type, donor heavy atom, donor atom, acceptor molecule, acceptor atom, score
      L1  H     8    27       P1  8028  0.79
      P1  H  7989  7998       L1     7  0.32
      P1  H  7997  8010       L1    18  0.77

> <Gold.Chemscore.Hbond.Weighted>
-7.4145

> <Gold.Chemscore.Metal.Weighted>
-0.0000

> <Gold.Chemscore.Lipo.Weighted>
-7.7301

> <Gold.Chemscore.Internal_Hbond.Weighted>
0.0000

> <Gold.Chemscore.DEClash.Weighted>
0.0252

> <Gold.Chemscore.DEInternal.Weighted>
1.0716

> <Gold.Chemscore.Rot.Weighted>
5.0643

> <Gold.Chemscore.Internal.Correction.Weighted>
   9.000000E+99

> <Gold.Protein.RotatedTorsions>
[ 6907 6896 6895 6894 ] final -121.54 input  -60.11 | X-H torsion
[ 7974 7965 7964 7962 ] final -157.58 input  175.53 | X-H torsion
[ 8008 7997 7996 7995 ] final   26.32 input   59.86 | X-H torsion
[ 10167 10162 10161 10158 ] final -150.98 input  -65.29 | X-H torsion
[ 10718 10713 10712 10709 ] final   70.53 input   66.30 | X-H torsion
[ 10763 10752 10751 10750 ] final   -7.54 input  -60.55 | X-H torsion
[ 11005 11000 10999 10996 ] final   23.00 input  -57.11 | X-H torsion

> <Gold.Protein.ActiveResidues>
 VAL166  LYS551  ARG553  GLY616  TRP617  ASP618  TYR619  PRO620  LYS621  CYS622 
 ASP623  PHE694  ASN695  SER759  ASP760  ASP761  ALA762  ILE779  LEU786  VAL792 
 PHE793  MET794  SER795  GLU796  ALA797  LYS798  CYS799  TRP800  GLU811  SER814 

> <Gold.Protein.RotatedAtoms>
  150.8492  133.7813  159.3031 H   0  0  0  0  0  0  0  0  0  0  0  0  # atno 6907 bound_to 6896
  151.5490  135.1066  159.9954 H   0  0  0  0  0  0  0  0  0  0  0  0  # atno 6908 bound_to 6896
  152.4539  133.7641  159.6819 H   0  0  0  0  0  0  0  0  0  0  0  0  # atno 6909 bound_to 6896
  144.7542  140.3948  143.6025 H   0  0  0  0  0  0  0  0  0  0  0  0  # atno 7974 bound_to 7965
  155.0254  140.3152  155.4778 H   0  0  0  0  0  0  0  0  0  0  0  0  # atno 8008 bound_to 7997
  156.2884  140.2190  156.5316 H   0  0  0  0  0  0  0  0  0  0  0  0  # atno 8009 bound_to 7997
  154.7416  140.0473  157.0803 H   0  0  0  0  0  0  0  0  0  0  0  0  # atno 8010 bound_to 7997
  139.7307  143.8813  152.2533 H   0  0  0  0  0  0  0  0  0  0  0  0  # atno 10167 bound_to 10162
  157.6405  130.9482  150.0664 H   0  0  0  0  0  0  0  0  0  0  0  0  # atno 10718 bound_to 10713
  153.4277  135.7011  153.6251 H   0  0  0  0  0  0  0  0  0  0  0  0  # atno 10763 bound_to 10752
  153.4679  135.3721  155.2375 H   0  0  0  0  0  0  0  0  0  0  0  0  # atno 10764 bound_to 10752
  154.8724  135.4036  154.3656 H   0  0  0  0  0  0  0  0  0  0  0  0  # atno 10765 bound_to 10752
  140.3744  134.1987  155.7665 H   0  0  0  0  0  0  0  0  0  0  0  0  # atno 11005 bound_to 11000
  145.6837  139.1624  143.2686 LP  0  0  0  0  0  0  0  0  0  0  0  0  # atno 17320 bound_to 7965
  146.1531  140.6896  142.9312 LP  0  0  0  0  0  0  0  0  0  0  0  0  # atno 17321 bound_to 7965
  139.8735  144.7055  150.8960 LP  0  0  0  0  0  0  0  0  0  0  0  0  # atno 17342 bound_to 10162
  140.7770  143.3719  151.1634 LP  0  0  0  0  0  0  0  0  0  0  0  0  # atno 17343 bound_to 10162
  156.1681  130.3645  149.9203 LP  0  0  0  0  0  0  0  0  0  0  0  0  # atno 17370 bound_to 10713
  156.7185  130.8998  151.3616 LP  0  0  0  0  0  0  0  0  0  0  0  0  # atno 17371 bound_to 10713
  141.1944  133.8129  157.0759 LP  0  0  0  0  0  0  0  0  0  0  0  0  # atno 17394 bound_to 11000
  140.0526  134.9797  157.1164 LP  0  0  0  0  0  0  0  0  0  0  0  0  # atno 17395 bound_to 11000

$$$$
