AV-unprocessed.smi:2561|AV-procd|sdf|10041|dock1
  -GOLD-   2272014 83D 1   1.00000     0.00000
 Structure written by MMmdl.
 33 34  0  0  0  0  0  0  0  0  2 V2000
  146.5331  138.5665  151.5040 C   0  0  0  0  0  0  0  0  0  0  0  0
  147.7135  138.6899  152.3458 N   0  0  0  0  0  0  0  0  0  0  0  0
  147.9019  139.6720  153.2368 C   0  0  0  0  0  0  0  0  0  0  0  0
  147.0884  140.5750  153.4309 O   0  0  0  0  0  0  0  0  0  0  0  0
  149.0859  139.5445  153.8608 N   0  0  0  0  0  0  0  0  0  0  0  0
  149.6523  140.3820  154.8597 C   0  0  0  0  0  0  0  0  0  0  0  0
  150.6278  139.8224  155.7128 C   0  0  0  0  0  0  0  0  0  0  0  0
  151.2094  140.6125  156.7254 C   0  0  0  0  0  0  0  0  0  0  0  0
  150.7970  141.9568  156.8791 C   0  0  0  0  0  0  0  0  0  0  0  0
  151.3116  142.8264  157.8511 N   0  0  0  0  0  0  0  0  0  0  0  0
  152.3514  142.2634  158.6964 C   0  0  0  0  0  0  0  0  0  0  0  0
  153.0304  143.4625  159.3636 C   0  0  0  0  0  0  0  0  0  0  0  0
  152.7056  144.6546  158.4554 C   0  0  0  0  0  0  0  0  0  0  0  0
  151.8534  144.0685  157.3264 C   0  0  0  0  0  0  0  0  0  0  0  0
  149.8520  142.4520  156.0509 N   0  3  0  0  0  0  0  0  0  0  0  0
  149.2712  141.7303  155.0678 C   0  0  0  0  0  0  0  0  0  0  0  0
  146.6171  137.6810  150.8740 H   0  0  0  0  0  0  0  0  0  0  0  0
  146.4249  139.4374  150.8561 H   0  0  0  0  0  0  0  0  0  0  0  0
  145.6318  138.4696  152.1105 H   0  0  0  0  0  0  0  0  0  0  0  0
  148.4299  137.9864  152.2401 H   0  0  0  0  0  0  0  0  0  0  0  0
  149.6753  138.7902  153.5402 H   0  0  0  0  0  0  0  0  0  0  0  0
  150.9371  138.7945  155.5902 H   0  0  0  0  0  0  0  0  0  0  0  0
  151.9629  140.1861  157.3714 H   0  0  0  0  0  0  0  0  0  0  0  0
  151.9300  141.5800  159.4341 H   0  0  0  0  0  0  0  0  0  0  0  0
  153.0758  141.7085  158.0994 H   0  0  0  0  0  0  0  0  0  0  0  0
  152.6134  143.6294  160.3578 H   0  0  0  0  0  0  0  0  0  0  0  0
  154.1036  143.3053  159.4761 H   0  0  0  0  0  0  0  0  0  0  0  0
  152.1377  145.4010  159.0123 H   0  0  0  0  0  0  0  0  0  0  0  0
  153.6025  145.1403  158.0701 H   0  0  0  0  0  0  0  0  0  0  0  0
  152.4729  143.8748  156.4495 H   0  0  0  0  0  0  0  0  0  0  0  0
  151.0563  144.7512  157.0301 H   0  0  0  0  0  0  0  0  0  0  0  0
  148.5216  142.2603  154.5000 H   0  0  0  0  0  0  0  0  0  0  0  0
  149.5590  143.4215  156.1754 H   0  0  0  0  0  0  0  0  0  0  0  0
  1  2  1  0  0  0  0
  1 17  1  0  0  0  0
  1 18  1  0  0  0  0
  1 19  1  0  0  0  0
  2  3  1  0  0  0  0
  2 20  1  0  0  0  0
  3  4  2  0  0  0  0
  3  5  1  0  0  0  0
  5  6  1  0  0  0  0
  5 21  1  0  0  0  0
  6 16  1  0  0  0  0
  6  7  2  0  0  0  0
  7  8  1  0  0  0  0
  7 22  1  0  0  0  0
  8  9  2  0  0  0  0
  8 23  1  0  0  0  0
  9 10  1  0  0  0  0
  9 15  1  0  0  0  0
 10 14  1  0  0  0  0
 10 11  1  0  0  0  0
 11 12  1  0  0  0  0
 11 24  1  0  0  0  0
 11 25  1  0  0  0  0
 12 13  1  0  0  0  0
 12 26  1  0  0  0  0
 12 27  1  0  0  0  0
 13 14  1  0  0  0  0
 13 28  1  0  0  0  0
 13 29  1  0  0  0  0
 14 30  1  0  0  0  0
 14 31  1  0  0  0  0
 15 16  2  0  0  0  0
 15 33  1  0  0  0  0
 16 32  1  0  0  0  0
M  CHG  1  15   1
M  END
> <s_m_source_file>
AV-unprocessed.smi

> <i_m_source_file_index>
2561

> <i_lp_mmshare_version>
43012

> <i_f3d_flags>
0

> <s_epik_input>
W0NIM11bTkhdQyg9TylbTkhdYzFbY0hdW2NIXWMobltjSF0xKU4yW0NIMl1bQ0gyXVtDSDJdW0NIMl0y

> <s_epik_cmdline>
J2VwaWtfcHl0aG9uJywgJy1waCcsICc3LjAnLCAnLXRuJywgJzgnLCAnLW1hJywgJzIwMCcsICctbWV0YWxfYmluZGluZycsICctaW1hZScsICc8aW5maWxlLm1hZT4nLCAnLW9tYWUnLCAnPG91dGZpbGUubWFlPic=

> <r_lp_tautomer_probability>
0.999994

> <r_epik_Ionization_Penalty>
0.57702

> <r_epik_Ionization_Penalty_Charging>
0.577

> <r_epik_Ionization_Penalty_Neutral>
2.01329e-05

> <r_epik_State_Penalty>
0.589437

> <r_epik_Charging_Adjusted_Penalty>
1.16644

> <i_epik_Tot_Q>
1

> <i_epik_Tot_abs_Q>
1

> <r_epik_Metal_State_Penalty>
0.781142

> <b_epik_Metal_Only>
0

> <s_lp_Force_Field>
OPLS_2005

> <r_lp_Energy>
38.8589

> <b_lp_Chiralities_Consistent>
1

> <s_lp_Variant>
AV-unprocessed.smi:2561-2

> <Gold.Version>
5.8.1

> <Gold.Id.Protein>
6NUR|6NUR_protein|mol2

> <Gold.PLP.Fitness>
44.4459

> <Gold.PLP.PLP>
-35.7046

> <Gold.PLP.part.hbond>
-3.8349

> <Gold.PLP.part.metal>
0.0000

> <Gold.PLP.part.buried>
-0.4883

> <Gold.PLP.part.nonpolar>
-33.1407

> <Gold.PLP.part.repulsive>
0.5539

> <Gold.PLP.ligand.clash>
0.0000

> <Gold.PLP.ligand.torsion>
0.1352

> <Gold.PLP.Chemscore.Hbond>
3.0000

> <Gold.PLP.Chemscore.CHOScore>
0.0000

> <Gold.PLP.Chemscore.Metal>
0.0000

> <Gold.Chemscore.Hbonds>
donor molecule, donor type, donor heavy atom, donor atom, acceptor molecule, acceptor atom, score
      L1  H     2    20       P1  7948  1.00
      L1  H    15    33       P1  8028  2.00

> <Gold.PLP.Chemscore.Internal.Correction>
0.0117

> <Gold.Rescore>
     Score         DG    S(hbond)    S(metal)    S(lipo)     H(rot)  DE(clash)    DE(int)     intcor
     18.11     -19.48       1.91        0.00      87.02       1.00       0.11       1.26       ----

> <Gold.Chemscore.Fitness>
18.1051

> <Gold.Chemscore.DG>
-19.4786

> <Gold.Chemscore.ZeroCoef>
-5.4800

> <Gold.Chemscore.Hbond>
1.9092

> <Gold.Chemscore.Metal>
0.0000

> <Gold.Chemscore.Lipo>
87.0248

> <Gold.Chemscore.Internal_Hbond>
0.0000

> <Gold.Chemscore.DEClash>
0.1120

> <Gold.Chemscore.DEInternal>
1.2615

> <Gold.Chemscore.Rot>
1.0000

> <Gold.Chemscore.Internal.Correction>
   9.000000E+99

> <Gold.Chemscore.Hbonds>
donor molecule, donor type, donor heavy atom, donor atom, acceptor molecule, acceptor atom, score
      L1  H     2    20       P1  7948  0.96
      L1  H    15    33       P1  8028  0.92

> <Gold.Chemscore.Hbond.Weighted>
-6.3767

> <Gold.Chemscore.Metal.Weighted>
-0.0000

> <Gold.Chemscore.Lipo.Weighted>
-10.1819

> <Gold.Chemscore.Internal_Hbond.Weighted>
0.0000

> <Gold.Chemscore.DEClash.Weighted>
0.1120

> <Gold.Chemscore.DEInternal.Weighted>
1.2615

> <Gold.Chemscore.Rot.Weighted>
2.5600

> <Gold.Chemscore.Internal.Correction.Weighted>
   9.000000E+99

> <Gold.Protein.RotatedTorsions>
[ 6907 6896 6895 6894 ] final  132.88 input  -60.11 | X-H torsion
[ 7974 7965 7964 7962 ] final  -15.67 input  175.53 | X-H torsion
[ 8008 7997 7996 7995 ] final -112.46 input   59.86 | X-H torsion
[ 10167 10162 10161 10158 ] final -129.67 input  -65.29 | X-H torsion
[ 10718 10713 10712 10709 ] final -177.26 input   66.30 | X-H torsion
[ 10763 10752 10751 10750 ] final -153.66 input  -60.55 | X-H torsion
[ 11005 11000 10999 10996 ] final  -20.44 input  -57.11 | X-H torsion

> <Gold.Protein.ActiveResidues>
 VAL166  LYS551  ARG553  GLY616  TRP617  ASP618  TYR619  PRO620  LYS621  CYS622 
 ASP623  PHE694  ASN695  SER759  ASP760  ASP761  ALA762  ILE779  LEU786  VAL792 
 PHE793  MET794  SER795  GLU796  ALA797  LYS798  CYS799  TRP800  GLU811  SER814 

> <Gold.Protein.RotatedAtoms>
  152.3277  133.5924  159.5788 H   0  0  0  0  0  0  0  0  0  0  0  0  # atno 6907 bound_to 6896
  150.7406  133.9914  159.3617 H   0  0  0  0  0  0  0  0  0  0  0  0  # atno 6908 bound_to 6896
  151.7793  135.0766  160.0422 H   0  0  0  0  0  0  0  0  0  0  0  0  # atno 6909 bound_to 6896
  146.2021  140.3527  142.8419 H   0  0  0  0  0  0  0  0  0  0  0  0  # atno 7974 bound_to 7965
  155.0056  140.0394  157.2378 H   0  0  0  0  0  0  0  0  0  0  0  0  # atno 8008 bound_to 7997
  154.7505  140.2766  155.6273 H   0  0  0  0  0  0  0  0  0  0  0  0  # atno 8009 bound_to 7997
  156.2884  140.2648  156.2258 H   0  0  0  0  0  0  0  0  0  0  0  0  # atno 8010 bound_to 7997
  139.9374  143.6203  152.2513 H   0  0  0  0  0  0  0  0  0  0  0  0  # atno 10167 bound_to 10162
  156.8269  130.9639  151.3109 H   0  0  0  0  0  0  0  0  0  0  0  0  # atno 10718 bound_to 10713
  154.7913  135.3208  154.7771 H   0  0  0  0  0  0  0  0  0  0  0  0  # atno 10763 bound_to 10752
  153.8460  135.6866  153.4802 H   0  0  0  0  0  0  0  0  0  0  0  0  # atno 10764 bound_to 10752
  153.1584  135.4671  154.9677 H   0  0  0  0  0  0  0  0  0  0  0  0  # atno 10765 bound_to 10752
  140.8465  133.7888  155.9918 H   0  0  0  0  0  0  0  0  0  0  0  0  # atno 11005 bound_to 11000
  144.8708  140.7270  143.6048 LP  0  0  0  0  0  0  0  0  0  0  0  0  # atno 17320 bound_to 7965
  145.3446  139.1723  143.4467 LP  0  0  0  0  0  0  0  0  0  0  0  0  # atno 17321 bound_to 7965
  139.6733  144.7660  151.1743 LP  0  0  0  0  0  0  0  0  0  0  0  0  # atno 17342 bound_to 10162
  140.7621  143.5833  150.8872 LP  0  0  0  0  0  0  0  0  0  0  0  0  # atno 17343 bound_to 10162
  157.6427  130.8819  149.9480 LP  0  0  0  0  0  0  0  0  0  0  0  0  # atno 17370 bound_to 10713
  156.0957  130.3659  150.0312 LP  0  0  0  0  0  0  0  0  0  0  0  0  # atno 17371 bound_to 10713
  140.8838  134.2579  157.5130 LP  0  0  0  0  0  0  0  0  0  0  0  0  # atno 17394 bound_to 11000
  139.8703  134.9628  156.4440 LP  0  0  0  0  0  0  0  0  0  0  0  0  # atno 17395 bound_to 11000

$$$$
