AV-unprocessed.smi:1368|AV-procd|sdf|5577|dock5
  -GOLD-   22720 5173D 1   1.00000     0.00000
 Structure written by MMmdl.
 47 49  0  0  0  0  0  0  0  0  2 V2000
  146.5134  130.0402  152.2758 C   0  0  0  0  0  0  0  0  0  0  0  0
  146.7089  131.4373  152.8567 C   0  0  0  0  0  0  0  0  0  0  0  0
  145.7695  132.2315  152.8410 O   0  0  0  0  0  0  0  0  0  0  0  0
  147.9399  131.7053  153.3311 N   0  0  0  0  0  0  0  0  0  0  0  0
  148.4240  132.8960  153.9394 C   0  0  0  0  0  0  0  0  0  0  0  0
  147.5281  133.9790  154.0383 C   0  0  0  0  0  0  0  0  0  0  0  0
  147.9396  135.1980  154.6096 C   0  0  0  0  0  0  0  0  0  0  0  0
  149.2552  135.3650  155.0855 C   0  0  0  0  0  0  0  0  0  0  0  0
  149.5752  136.5912  155.6286 O   0  0  0  0  0  0  0  0  0  0  0  0
  150.9040  136.7953  156.0910 C   0  0  0  0  0  0  0  0  0  0  0  0
  150.9734  138.1350  156.8407 C   0  0  2  0  0  0  0  0  0  0  0  0
  149.6763  138.4577  157.3025 O   0  0  0  0  0  0  0  0  0  0  0  0
  151.4889  139.2702  155.9332 C   0  0  0  0  0  0  0  0  0  0  0  0
  151.1223  140.6098  156.4214 N   0  0  0  0  0  0  0  0  0  0  0  0
  150.2645  141.5279  155.8918 C   0  0  0  0  0  0  0  0  0  0  0  0
  149.4662  141.3818  154.6401 C   0  0  0  0  0  0  0  0  0  0  0  0
  150.2657  142.6090  156.7215 N   0  3  0  0  0  0  0  0  0  0  0  0
  151.1330  142.3820  157.7911 C   0  0  0  0  0  0  0  0  0  0  0  0
  151.4647  143.1829  158.8797 C   0  0  0  0  0  0  0  0  0  0  0  0
  152.3941  142.6506  159.7972 C   0  0  0  0  0  0  0  0  0  0  0  0
  152.9559  141.3705  159.6135 C   0  0  0  0  0  0  0  0  0  0  0  0
  152.6109  140.5675  158.5065 C   0  0  0  0  0  0  0  0  0  0  0  0
  151.6893  141.0997  157.6046 C   0  0  0  0  0  0  0  0  0  0  0  0
  150.1607  134.2808  154.9741 C   0  0  0  0  0  0  0  0  0  0  0  0
  149.7511  133.0605  154.4025 C   0  0  0  0  0  0  0  0  0  0  0  0
  147.1784  129.3178  152.7510 H   0  0  0  0  0  0  0  0  0  0  0  0
  146.7190  130.0458  151.2052 H   0  0  0  0  0  0  0  0  0  0  0  0
  145.4870  129.7040  152.4260 H   0  0  0  0  0  0  0  0  0  0  0  0
  148.6302  130.9815  153.1925 H   0  0  0  0  0  0  0  0  0  0  0  0
  146.5145  133.8786  153.6786 H   0  0  0  0  0  0  0  0  0  0  0  0
  147.2368  136.0153  154.6818 H   0  0  0  0  0  0  0  0  0  0  0  0
  151.1546  135.9855  156.7785 H   0  0  0  0  0  0  0  0  0  0  0  0
  151.6251  136.7723  155.2718 H   0  0  0  0  0  0  0  0  0  0  0  0
  151.6389  138.0394  157.6995 H   0  0  0  0  0  0  0  0  0  0  0  0
  149.4535  137.8657  158.0052 H   0  0  0  0  0  0  0  0  0  0  0  0
  152.5779  139.2367  155.8822 H   0  0  0  0  0  0  0  0  0  0  0  0
  151.1377  139.1493  154.9081 H   0  0  0  0  0  0  0  0  0  0  0  0
  148.9160  142.2983  154.4259 H   0  0  0  0  0  0  0  0  0  0  0  0
  148.7525  140.5645  154.7443 H   0  0  0  0  0  0  0  0  0  0  0  0
  150.1223  141.1670  153.7968 H   0  0  0  0  0  0  0  0  0  0  0  0
  151.0371  144.1647  159.0212 H   0  0  0  0  0  0  0  0  0  0  0  0
  152.6833  143.2364  160.6578 H   0  0  0  0  0  0  0  0  0  0  0  0
  153.6677  140.9969  160.3352 H   0  0  0  0  0  0  0  0  0  0  0  0
  153.0535  139.5917  158.3730 H   0  0  0  0  0  0  0  0  0  0  0  0
  151.1815  134.3596  155.3154 H   0  0  0  0  0  0  0  0  0  0  0  0
  150.4811  132.2709  154.3179 H   0  0  0  0  0  0  0  0  0  0  0  0
  149.7128  143.4418  156.5648 H   0  0  0  0  0  0  0  0  0  0  0  0
  1  2  1  0  0  0  0
  1 26  1  0  0  0  0
  1 27  1  0  0  0  0
  1 28  1  0  0  0  0
  2  3  2  0  0  0  0
  2  4  1  0  0  0  0
  4  5  1  0  0  0  0
  4 29  1  0  0  0  0
  5 25  1  0  0  0  0
  5  6  2  0  0  0  0
  6  7  1  0  0  0  0
  6 30  1  0  0  0  0
  7  8  2  0  0  0  0
  7 31  1  0  0  0  0
  8  9  1  0  0  0  0
  8 24  1  0  0  0  0
  9 10  1  0  0  0  0
 10 11  1  0  0  0  0
 10 32  1  0  0  0  0
 10 33  1  0  0  0  0
 11 12  1  0  0  0  0
 11 13  1  0  0  0  0
 11 34  1  0  0  0  0
 12 35  1  0  0  0  0
 13 14  1  0  0  0  0
 13 36  1  0  0  0  0
 13 37  1  0  0  0  0
 14 23  1  0  0  0  0
 14 15  1  0  0  0  0
 15 16  1  0  0  0  0
 15 17  2  0  0  0  0
 16 38  1  0  0  0  0
 16 39  1  0  0  0  0
 16 40  1  0  0  0  0
 17 18  1  0  0  0  0
 17 47  1  0  0  0  0
 18 23  2  0  0  0  0
 18 19  1  0  0  0  0
 19 20  2  0  0  0  0
 19 41  1  0  0  0  0
 20 21  1  0  0  0  0
 20 42  1  0  0  0  0
 21 22  2  0  0  0  0
 21 43  1  0  0  0  0
 22 23  1  0  0  0  0
 22 44  1  0  0  0  0
 24 25  2  0  0  0  0
 24 45  1  0  0  0  0
 25 46  1  0  0  0  0
M  CHG  1  17   1
M  END
> <s_m_source_file>
AV-unprocessed.smi

> <i_m_source_file_index>
1368

> <i_lp_mmshare_version>
43012

> <i_f3d_flags>
0

> <s_epik_input>
W0NIM11DKD1PKVtOSF1jMVtjSF1bY0hdYyhbY0hdW2NIXTEpT1tDSDJdW0NASF0oW09IXSlbQ0gyXW4oYyhuMilbQ0gzXSljKGMyMylbY0hdW2NIXVtjSF1bY0hdMw==

> <s_epik_cmdline>
J2VwaWtfcHl0aG9uJywgJy1waCcsICc3LjAnLCAnLXRuJywgJzgnLCAnLW1hJywgJzIwMCcsICctbWV0YWxfYmluZGluZycsICctaW1hZScsICc8aW5maWxlLm1hZT4nLCAnLW9tYWUnLCAnPG91dGZpbGUubWFlPic=

> <r_lp_tautomer_probability>
1

> <r_epik_Ionization_Penalty>
1.00673

> <r_epik_Ionization_Penalty_Charging>
1.00673

> <r_epik_Ionization_Penalty_Neutral>
2.60899e-06

> <r_epik_State_Penalty>
1.05579

> <r_epik_Charging_Adjusted_Penalty>
2.06252

> <i_epik_Tot_Q>
1

> <i_epik_Tot_abs_Q>
1

> <r_epik_Metal_State_Penalty>
1.15682

> <b_epik_Metal_Only>
0

> <s_lp_Force_Field>
OPLS_2005

> <r_lp_Energy>
25.0727

> <b_lp_Chiralities_Consistent>
1

> <s_lp_Variant>
AV-unprocessed.smi:1368-3

> <Gold.Version>
5.8.1

> <Gold.Id.Protein>
6NUR|6NUR_protein|mol2

> <Gold.PLP.Fitness>
46.8236

> <Gold.PLP.PLP>
-42.3261

> <Gold.PLP.part.hbond>
-1.0000

> <Gold.PLP.part.metal>
0.0000

> <Gold.PLP.part.buried>
-4.2342

> <Gold.PLP.part.nonpolar>
-36.5783

> <Gold.PLP.part.repulsive>
0.2756

> <Gold.PLP.ligand.clash>
0.0000

> <Gold.PLP.ligand.torsion>
0.7879

> <Gold.PLP.Chemscore.Hbond>
2.0000

> <Gold.PLP.Chemscore.CHOScore>
0.0000

> <Gold.PLP.Chemscore.Metal>
0.0000

> <Gold.Chemscore.Hbonds>
donor molecule, donor type, donor heavy atom, donor atom, acceptor molecule, acceptor atom, score
      L1  H    17    47       P1  8028  2.00

> <Gold.PLP.Chemscore.Internal.Correction>
0.0733

> <Gold.Rescore>
     Score         DG    S(hbond)    S(metal)    S(lipo)     H(rot)  DE(clash)    DE(int)     intcor
     13.53     -15.83       1.00        0.00     114.08       2.47       0.10       2.19       ----

> <Gold.Chemscore.Fitness>
13.5325

> <Gold.Chemscore.DG>
-15.8293

> <Gold.Chemscore.ZeroCoef>
-5.4800

> <Gold.Chemscore.Hbond>
0.9967

> <Gold.Chemscore.Metal>
0.0000

> <Gold.Chemscore.Lipo>
114.0812

> <Gold.Chemscore.Internal_Hbond>
0.0000

> <Gold.Chemscore.DEClash>
0.1040

> <Gold.Chemscore.DEInternal>
2.1929

> <Gold.Chemscore.Rot>
2.4715

> <Gold.Chemscore.Internal.Correction>
   9.000000E+99

> <Gold.Chemscore.Hbonds>
donor molecule, donor type, donor heavy atom, donor atom, acceptor molecule, acceptor atom, score
      L1  H    17    47       P1  8028  0.99

> <Gold.Chemscore.Hbond.Weighted>
-3.3289

> <Gold.Chemscore.Metal.Weighted>
-0.0000

> <Gold.Chemscore.Lipo.Weighted>
-13.3475

> <Gold.Chemscore.Internal_Hbond.Weighted>
0.0000

> <Gold.Chemscore.DEClash.Weighted>
0.1040

> <Gold.Chemscore.DEInternal.Weighted>
2.1929

> <Gold.Chemscore.Rot.Weighted>
6.3271

> <Gold.Chemscore.Internal.Correction.Weighted>
   9.000000E+99

> <Gold.Protein.RotatedTorsions>
[ 6907 6896 6895 6894 ] final  157.23 input  -60.11 | X-H torsion
[ 7974 7965 7964 7962 ] final   75.64 input  175.53 | X-H torsion
[ 8008 7997 7996 7995 ] final  104.97 input   59.86 | X-H torsion
[ 10167 10162 10161 10158 ] final -151.11 input  -65.29 | X-H torsion
[ 10718 10713 10712 10709 ] final -134.00 input   66.30 | X-H torsion
[ 10763 10752 10751 10750 ] final    3.33 input  -60.55 | X-H torsion
[ 11005 11000 10999 10996 ] final   93.86 input  -57.11 | X-H torsion

> <Gold.Protein.ActiveResidues>
 VAL166  LYS551  ARG553  GLY616  TRP617  ASP618  TYR619  PRO620  LYS621  CYS622 
 ASP623  PHE694  ASN695  SER759  ASP760  ASP761  ALA762  ILE779  LEU786  VAL792 
 PHE793  MET794  SER795  GLU796  ALA797  LYS798  CYS799  TRP800  GLU811  SER814 

> <Gold.Protein.RotatedAtoms>
  152.0181  133.3888  159.4246 H   0  0  0  0  0  0  0  0  0  0  0  0  # atno 6907 bound_to 6896
  150.6893  134.3656  159.4979 H   0  0  0  0  0  0  0  0  0  0  0  0  # atno 6908 bound_to 6896
  152.1426  134.9050  160.0603 H   0  0  0  0  0  0  0  0  0  0  0  0  # atno 6909 bound_to 6896
  145.7130  139.2621  143.1639 H   0  0  0  0  0  0  0  0  0  0  0  0  # atno 7974 bound_to 7965
  156.1619  140.3138  155.8822 H   0  0  0  0  0  0  0  0  0  0  0  0  # atno 8008 bound_to 7997
  155.3765  140.0485  157.3061 H   0  0  0  0  0  0  0  0  0  0  0  0  # atno 8009 bound_to 7997
  154.5155  140.2179  155.9086 H   0  0  0  0  0  0  0  0  0  0  0  0  # atno 8010 bound_to 7997
  139.7296  143.8829  152.2530 H   0  0  0  0  0  0  0  0  0  0  0  0  # atno 10167 bound_to 10162
  156.2508  130.7152  151.1050 H   0  0  0  0  0  0  0  0  0  0  0  0  # atno 10718 bound_to 10713
  153.2846  135.6943  153.7352 H   0  0  0  0  0  0  0  0  0  0  0  0  # atno 10763 bound_to 10752
  153.6326  135.3407  155.3047 H   0  0  0  0  0  0  0  0  0  0  0  0  # atno 10764 bound_to 10752
  154.8505  135.4412  154.1910 H   0  0  0  0  0  0  0  0  0  0  0  0  # atno 10765 bound_to 10752
  139.8805  134.8814  156.3780 H   0  0  0  0  0  0  0  0  0  0  0  0  # atno 11005 bound_to 11000
  146.0695  140.7884  142.9695 LP  0  0  0  0  0  0  0  0  0  0  0  0  # atno 17320 bound_to 7965
  144.6937  140.3320  143.7214 LP  0  0  0  0  0  0  0  0  0  0  0  0  # atno 17321 bound_to 7965
  139.8748  144.7049  150.8945 LP  0  0  0  0  0  0  0  0  0  0  0  0  # atno 17342 bound_to 10162
  140.7769  143.3708  151.1652 LP  0  0  0  0  0  0  0  0  0  0  0  0  # atno 17343 bound_to 10162
  157.7213  131.0679  150.6121 LP  0  0  0  0  0  0  0  0  0  0  0  0  # atno 17370 bound_to 10713
  156.6201  130.4403  149.5825 LP  0  0  0  0  0  0  0  0  0  0  0  0  # atno 17371 bound_to 10713
  140.9418  133.7509  156.0157 LP  0  0  0  0  0  0  0  0  0  0  0  0  # atno 17394 bound_to 11000
  140.8210  134.3289  157.5381 LP  0  0  0  0  0  0  0  0  0  0  0  0  # atno 17395 bound_to 11000

$$$$
