AV-unprocessed.smi:875|AV-procd|sdf|4018|dock1
  -GOLD-   22720 1503D 1   1.00000     0.00000
 Structure written by MMmdl.
 37 38  0  0  0  0  0  0  0  0  1 V2000
  149.6069  133.9684  154.7726 C   0  0  0  0  0  0  0  0  0  0  0  0
  149.8305  135.3478  154.3690 N   0  0  0  0  0  0  0  0  0  0  0  0
  150.7081  136.1746  154.9573 C   0  0  0  0  0  0  0  0  0  0  0  0
  151.4067  135.8457  155.9159 O   0  0  0  0  0  0  0  0  0  0  0  0
  150.8080  137.5933  154.3901 C   0  0  0  0  0  0  0  0  0  0  0  0
  151.3770  138.5386  155.4006 C   0  0  0  0  0  0  0  0  0  0  0  0
  152.1276  139.5722  155.0363 N   0  0  0  0  0  0  0  0  0  0  0  0
  152.4420  140.1901  156.2553 O   0  0  0  0  0  0  0  0  0  0  0  0
  151.8410  139.4462  157.2147 C   0  0  0  0  0  0  0  0  0  0  0  0
  151.9998  139.8526  158.6428 C   0  0  0  0  0  0  0  0  0  0  0  0
  152.7323  141.0702  158.6577 O   0  0  0  0  0  0  0  0  0  0  0  0
  152.0461  142.1646  159.2513 C   0  0  0  0  0  0  0  0  0  0  0  0
  152.0425  143.3946  158.3183 C   0  0  0  0  0  0  0  0  0  0  0  0
  151.4221  144.6202  159.0093 C   0  0  0  0  0  0  0  0  0  0  0  0
  152.1345  144.9373  160.3336 C   0  0  0  0  0  0  0  0  0  0  0  0
  152.1429  143.7150  161.2651 C   0  0  0  0  0  0  0  0  0  0  0  0
  152.7658  142.4925  160.5715 C   0  0  0  0  0  0  0  0  0  0  0  0
  151.1706  138.3981  156.7397 N   0  0  0  0  0  0  0  0  0  0  0  0
  148.8703  133.5041  154.1169 H   0  0  0  0  0  0  0  0  0  0  0  0
  149.2328  133.9196  155.7959 H   0  0  0  0  0  0  0  0  0  0  0  0
  150.5300  133.3903  154.7105 H   0  0  0  0  0  0  0  0  0  0  0  0
  149.2935  135.6942  153.5865 H   0  0  0  0  0  0  0  0  0  0  0  0
  151.4350  137.5848  153.4976 H   0  0  0  0  0  0  0  0  0  0  0  0
  149.8211  137.9401  154.0802 H   0  0  0  0  0  0  0  0  0  0  0  0
  151.0116  139.9681  159.0873 H   0  0  0  0  0  0  0  0  0  0  0  0
  152.5346  139.0716  159.1851 H   0  0  0  0  0  0  0  0  0  0  0  0
  151.0198  141.8736  159.4833 H   0  0  0  0  0  0  0  0  0  0  0  0
  153.0641  143.6265  158.0144 H   0  0  0  0  0  0  0  0  0  0  0  0
  151.4884  143.1850  157.4038 H   0  0  0  0  0  0  0  0  0  0  0  0
  151.4698  145.4844  158.3462 H   0  0  0  0  0  0  0  0  0  0  0  0
  150.3642  144.4349  159.1999 H   0  0  0  0  0  0  0  0  0  0  0  0
  153.1598  145.2501  160.1310 H   0  0  0  0  0  0  0  0  0  0  0  0
  151.6466  145.7782  160.8272 H   0  0  0  0  0  0  0  0  0  0  0  0
  152.6948  143.9467  162.1764 H   0  0  0  0  0  0  0  0  0  0  0  0
  151.1226  143.4811  161.5716 H   0  0  0  0  0  0  0  0  0  0  0  0
  152.7288  141.6311  161.2392 H   0  0  0  0  0  0  0  0  0  0  0  0
  153.8216  142.6857  160.3759 H   0  0  0  0  0  0  0  0  0  0  0  0
  1  2  1  0  0  0  0
  1 19  1  0  0  0  0
  1 20  1  0  0  0  0
  1 21  1  0  0  0  0
  2  3  1  0  0  0  0
  2 22  1  0  0  0  0
  3  4  2  0  0  0  0
  3  5  1  0  0  0  0
  5  6  1  0  0  0  0
  5 23  1  0  0  0  0
  5 24  1  0  0  0  0
  6 18  1  0  0  0  0
  6  7  2  0  0  0  0
  7  8  1  0  0  0  0
  8  9  1  0  0  0  0
  9 10  1  0  0  0  0
  9 18  2  0  0  0  0
 10 11  1  0  0  0  0
 10 25  1  0  0  0  0
 10 26  1  0  0  0  0
 11 12  1  0  0  0  0
 12 17  1  0  0  0  0
 12 13  1  0  0  0  0
 12 27  1  0  0  0  0
 13 14  1  0  0  0  0
 13 28  1  0  0  0  0
 13 29  1  0  0  0  0
 14 15  1  0  0  0  0
 14 30  1  0  0  0  0
 14 31  1  0  0  0  0
 15 16  1  0  0  0  0
 15 32  1  0  0  0  0
 15 33  1  0  0  0  0
 16 17  1  0  0  0  0
 16 34  1  0  0  0  0
 16 35  1  0  0  0  0
 17 36  1  0  0  0  0
 17 37  1  0  0  0  0
M  END
> <s_m_source_file>
AV-unprocessed.smi

> <i_m_source_file_index>
875

> <i_lp_mmshare_version>
43012

> <i_f3d_flags>
0

> <s_epik_input>
W0NIM11bTkhdQyg9TylbQ0gyXWMxbm9jKG4xKVtDSDJdT1tDSF0yW0NIMl1bQ0gyXVtDSDJdW0NIMl1bQ0gyXTI=

> <s_epik_cmdline>
J2VwaWtfcHl0aG9uJywgJy1waCcsICc3LjAnLCAnLXRuJywgJzgnLCAnLW1hJywgJzIwMCcsICctbWV0YWxfYmluZGluZycsICctaW1hZScsICc8aW5maWxlLm1hZT4nLCAnLW9tYWUnLCAnPG91dGZpbGUubWFlPic=

> <r_lp_tautomer_probability>
1

> <r_epik_Ionization_Penalty>
1.02915e-07

> <r_epik_Ionization_Penalty_Charging>
0

> <r_epik_Ionization_Penalty_Neutral>
1.02915e-07

> <r_epik_State_Penalty>
-0

> <r_epik_Charging_Adjusted_Penalty>
0

> <i_epik_Tot_Q>
0

> <i_epik_Tot_abs_Q>
0

> <r_epik_Metal_State_Penalty>
-0

> <b_epik_Metal_Only>
0

> <s_lp_Force_Field>
OPLS_2005

> <r_lp_Energy>
10.4582

> <b_lp_Chiralities_Consistent>
1

> <s_lp_Variant>
AV-unprocessed.smi:875-1

> <Gold.Version>
5.8.1

> <Gold.Id.Protein>
6NUR|6NUR_protein|mol2

> <Gold.PLP.Fitness>
45.7558

> <Gold.PLP.PLP>
-37.6232

> <Gold.PLP.part.hbond>
-4.3505

> <Gold.PLP.part.metal>
0.0000

> <Gold.PLP.part.buried>
-2.4881

> <Gold.PLP.part.nonpolar>
-30.3148

> <Gold.PLP.part.repulsive>
0.1218

> <Gold.PLP.ligand.clash>
0.0000

> <Gold.PLP.ligand.torsion>
1.7776

> <Gold.PLP.Chemscore.Hbond>
3.8800

> <Gold.PLP.Chemscore.CHOScore>
0.0000

> <Gold.PLP.Chemscore.Metal>
0.0000

> <Gold.Chemscore.Hbonds>
donor molecule, donor type, donor heavy atom, donor atom, acceptor molecule, acceptor atom, score
      L1  H     2    22       P1  7948  1.00
      P1  H  7989  7998       L1     7  0.81
      P1  H  7997  8009       L1     8  1.00
      P1  H 10752 10764       L1     4  1.00

> <Gold.PLP.Chemscore.Internal.Correction>
0.0477

> <Gold.Rescore>
     Score         DG    S(hbond)    S(metal)    S(lipo)     H(rot)  DE(clash)    DE(int)     intcor
     16.76     -20.09       3.05        0.00      85.50       2.18       0.05       3.28       ----

> <Gold.Chemscore.Fitness>
16.7623

> <Gold.Chemscore.DG>
-20.0888

> <Gold.Chemscore.ZeroCoef>
-5.4800

> <Gold.Chemscore.Hbond>
3.0470

> <Gold.Chemscore.Metal>
0.0000

> <Gold.Chemscore.Lipo>
85.4956

> <Gold.Chemscore.Internal_Hbond>
0.0000

> <Gold.Chemscore.DEClash>
0.0471

> <Gold.Chemscore.DEInternal>
3.2793

> <Gold.Chemscore.Rot>
2.1763

> <Gold.Chemscore.Internal.Correction>
   9.000000E+99

> <Gold.Chemscore.Hbonds>
donor molecule, donor type, donor heavy atom, donor atom, acceptor molecule, acceptor atom, score
      L1  H     2    22       P1  7948  0.49
      P1  H  7989  7998       L1     7  0.69
      P1  H  7997  8009       L1     8  0.28
      P1  H 10752 10764       L1     4  0.30

> <Gold.Chemscore.Hbond.Weighted>
-10.1770

> <Gold.Chemscore.Metal.Weighted>
-0.0000

> <Gold.Chemscore.Lipo.Weighted>
-10.0030

> <Gold.Chemscore.Internal_Hbond.Weighted>
0.0000

> <Gold.Chemscore.DEClash.Weighted>
0.0471

> <Gold.Chemscore.DEInternal.Weighted>
3.2793

> <Gold.Chemscore.Rot.Weighted>
5.5712

> <Gold.Chemscore.Internal.Correction.Weighted>
   9.000000E+99

> <Gold.Protein.RotatedTorsions>
[ 6907 6896 6895 6894 ] final -121.66 input  -60.11 | X-H torsion
[ 7974 7965 7964 7962 ] final   21.10 input  175.53 | X-H torsion
[ 8008 7997 7996 7995 ] final -152.73 input   59.86 | X-H torsion
[ 10167 10162 10161 10158 ] final   67.84 input  -65.29 | X-H torsion
[ 10718 10713 10712 10709 ] final  141.58 input   66.30 | X-H torsion
[ 10763 10752 10751 10750 ] final  -31.73 input  -60.55 | X-H torsion
[ 11005 11000 10999 10996 ] final  -74.69 input  -57.11 | X-H torsion

> <Gold.Protein.ActiveResidues>
 VAL166  LYS551  ARG553  GLY616  TRP617  ASP618  TYR619  PRO620  LYS621  CYS622 
 ASP623  PHE694  ASN695  SER759  ASP760  ASP761  ALA762  ILE779  LEU786  VAL792 
 PHE793  MET794  SER795  GLU796  ALA797  LYS798  CYS799  TRP800  GLU811  SER814 

> <Gold.Protein.RotatedAtoms>
  150.8504  133.7796  159.3027 H   0  0  0  0  0  0  0  0  0  0  0  0  # atno 6907 bound_to 6896
  151.5470  135.1066  159.9950 H   0  0  0  0  0  0  0  0  0  0  0  0  # atno 6908 bound_to 6896
  152.4548  133.7657  159.6827 H   0  0  0  0  0  0  0  0  0  0  0  0  # atno 6909 bound_to 6896
  146.2085  139.8075  142.8707 H   0  0  0  0  0  0  0  0  0  0  0  0  # atno 7974 bound_to 7965
  155.6597  140.0721  157.2558 H   0  0  0  0  0  0  0  0  0  0  0  0  # atno 8008 bound_to 7997
  154.4145  140.1718  156.1813 H   0  0  0  0  0  0  0  0  0  0  0  0  # atno 8009 bound_to 7997
  155.9708  140.3362  155.6577 H   0  0  0  0  0  0  0  0  0  0  0  0  # atno 8010 bound_to 7997
  140.0852  144.5037  150.7135 H   0  0  0  0  0  0  0  0  0  0  0  0  # atno 10167 bound_to 10162
  157.3904  131.1004  151.0652 H   0  0  0  0  0  0  0  0  0  0  0  0  # atno 10718 bound_to 10713
  153.8022  135.6889  153.4854 H   0  0  0  0  0  0  0  0  0  0  0  0  # atno 10763 bound_to 10752
  153.1681  135.4553  154.9864 H   0  0  0  0  0  0  0  0  0  0  0  0  # atno 10764 bound_to 10752
  154.8002  135.3334  154.7509 H   0  0  0  0  0  0  0  0  0  0  0  0  # atno 10765 bound_to 10752
  141.1638  133.6920  156.7403 H   0  0  0  0  0  0  0  0  0  0  0  0  # atno 11005 bound_to 11000
  145.3231  141.0248  143.3489 LP  0  0  0  0  0  0  0  0  0  0  0  0  # atno 17320 bound_to 7965
  144.8853  139.4848  143.6704 LP  0  0  0  0  0  0  0  0  0  0  0  0  # atno 17321 bound_to 7965
  140.7057  143.2466  151.4732 LP  0  0  0  0  0  0  0  0  0  0  0  0  # atno 17342 bound_to 10162
  139.5757  144.1826  152.1899 LP  0  0  0  0  0  0  0  0  0  0  0  0  # atno 17343 bound_to 10162
  157.1688  130.6258  149.5634 LP  0  0  0  0  0  0  0  0  0  0  0  0  # atno 17370 bound_to 10713
  155.9797  130.4792  150.6729 LP  0  0  0  0  0  0  0  0  0  0  0  0  # atno 17371 bound_to 10713
  140.2679  134.8415  157.3820 LP  0  0  0  0  0  0  0  0  0  0  0  0  # atno 17394 bound_to 11000
  140.1549  134.4803  155.7935 LP  0  0  0  0  0  0  0  0  0  0  0  0  # atno 17395 bound_to 11000

$$$$
