AV-unprocessed.smi:2365|AV-procd|sdf|9419|dock2
  -GOLD-   2272013 53D 1   1.00000     0.00000
 Structure written by MMmdl.
 29 30  0  0  0  0  0  0  0  0  1 V2000
  151.8866  145.3156  159.5462 C   0  0  0  0  0  0  0  0  0  0  0  0
  152.1217  143.8902  160.0561 C   0  0  2  0  0  0  0  0  0  0  0  0
  152.2563  143.7775  161.5700 C   0  0  0  0  0  0  0  0  0  0  0  0
  153.0126  142.4713  161.7464 C   0  0  0  0  0  0  0  0  0  0  0  0
  153.7470  142.2721  160.4048 C   0  0  1  0  0  0  0  0  0  0  0  0
  153.3704  140.9592  159.6937 C   0  0  0  0  0  0  0  0  0  0  0  0
  153.7160  139.8856  160.1865 O   0  0  0  0  0  0  0  0  0  0  0  0
  152.6700  141.0737  158.5499 N   0  0  0  0  0  0  0  0  0  0  0  0
  152.1612  140.0388  157.7198 C   0  0  0  0  0  0  0  0  0  0  0  0
  152.4837  138.6717  157.9008 C   0  0  0  0  0  0  0  0  0  0  0  0
  152.0228  137.6861  157.1021 N   0  0  0  0  0  0  0  0  0  0  0  0
  151.2170  138.0277  156.0757 C   0  0  0  0  0  0  0  0  0  0  0  0
  150.8435  139.3560  155.7930 C   0  0  0  0  0  0  0  0  0  0  0  0
  149.8126  139.6961  154.4489 Cl  0  0  0  0  0  0  0  0  0  0  0  0
  151.3301  140.3841  156.6294 C   0  0  0  0  0  0  0  0  0  0  0  0
  150.9069  142.0365  156.3296 Cl  0  0  0  0  0  0  0  0  0  0  0  0
  153.3747  143.3982  159.6061 O   0  0  0  0  0  0  0  0  0  0  0  0
  150.9417  145.7122  159.9175 H   0  0  0  0  0  0  0  0  0  0  0  0
  151.8522  145.3368  158.4568 H   0  0  0  0  0  0  0  0  0  0  0  0
  152.6827  145.9877  159.8674 H   0  0  0  0  0  0  0  0  0  0  0  0
  151.3294  143.2291  159.7003 H   0  0  0  0  0  0  0  0  0  0  0  0
  152.8549  144.6028  161.9581 H   0  0  0  0  0  0  0  0  0  0  0  0
  151.2945  143.7860  162.0834 H   0  0  0  0  0  0  0  0  0  0  0  0
  153.7050  142.5225  162.5872 H   0  0  0  0  0  0  0  0  0  0  0  0
  152.3082  141.6640  161.9537 H   0  0  0  0  0  0  0  0  0  0  0  0
  154.8279  142.2900  160.5470 H   0  0  0  0  0  0  0  0  0  0  0  0
  152.3815  142.0109  158.3065 H   0  0  0  0  0  0  0  0  0  0  0  0
  153.1449  138.3452  158.6888 H   0  0  0  0  0  0  0  0  0  0  0  0
  150.8635  137.2157  155.4573 H   0  0  0  0  0  0  0  0  0  0  0  0
  1  2  1  0  0  0  0
  1 18  1  0  0  0  0
  1 19  1  0  0  0  0
  1 20  1  0  0  0  0
  2 17  1  0  0  0  0
  2  3  1  0  0  0  0
  2 21  1  0  0  0  0
  3  4  1  0  0  0  0
  3 22  1  0  0  0  0
  3 23  1  0  0  0  0
  4  5  1  0  0  0  0
  4 24  1  0  0  0  0
  4 25  1  0  0  0  0
  5  6  1  0  0  0  0
  5 17  1  0  0  0  0
  5 26  1  0  0  0  0
  6  7  2  0  0  0  0
  6  8  1  0  0  0  0
  8  9  1  0  0  0  0
  8 27  1  0  0  0  0
  9 15  1  0  0  0  0
  9 10  2  0  0  0  0
 10 11  1  0  0  0  0
 10 28  1  0  0  0  0
 11 12  2  0  0  0  0
 12 13  1  0  0  0  0
 12 29  1  0  0  0  0
 13 14  1  0  0  0  0
 13 15  2  0  0  0  0
 15 16  1  0  0  0  0
M  END
> <s_m_source_file>
AV-unprocessed.smi

> <i_m_source_file_index>
2365

> <i_lp_mmshare_version>
43012

> <i_f3d_flags>
0

> <s_epik_input>
W0NIM11bQ0BASF0xW0NIMl1bQ0gyXVtDQEhdKE8xKUMoPU8pW05IXWMyW2NIXW5bY0hdYyhDbCljMkNs

> <s_epik_cmdline>
J2VwaWtfcHl0aG9uJywgJy1waCcsICc3LjAnLCAnLXRuJywgJzgnLCAnLW1hJywgJzIwMCcsICctbWV0YWxfYmluZGluZycsICctaW1hZScsICc8aW5maWxlLm1hZT4nLCAnLW9tYWUnLCAnPG91dGZpbGUubWFlPic=

> <r_lp_tautomer_probability>
1

> <r_epik_Ionization_Penalty>
7.32461e-06

> <r_epik_Ionization_Penalty_Charging>
0

> <r_epik_Ionization_Penalty_Neutral>
7.32461e-06

> <r_epik_State_Penalty>
-0

> <r_epik_Charging_Adjusted_Penalty>
0

> <i_epik_Tot_Q>
0

> <i_epik_Tot_abs_Q>
0

> <r_epik_Metal_State_Penalty>
-0

> <b_epik_Metal_Only>
0

> <s_lp_Force_Field>
OPLS_2005

> <r_lp_Energy>
23.4255

> <b_lp_Chiralities_Consistent>
1

> <s_lp_Variant>
AV-unprocessed.smi:2365-1

> <Gold.Version>
5.8.1

> <Gold.Id.Protein>
6NUR|6NUR_protein|mol2

> <Gold.PLP.Fitness>
36.9908

> <Gold.PLP.PLP>
-37.2160

> <Gold.PLP.part.hbond>
0.0000

> <Gold.PLP.part.metal>
0.0000

> <Gold.PLP.part.buried>
-4.3468

> <Gold.PLP.part.nonpolar>
-31.4130

> <Gold.PLP.part.repulsive>
0.0948

> <Gold.PLP.ligand.clash>
0.0000

> <Gold.PLP.ligand.torsion>
0.1164

> <Gold.PLP.Chemscore.Hbond>
0.0000

> <Gold.PLP.Chemscore.CHOScore>
0.0000

> <Gold.PLP.Chemscore.Metal>
0.0000

> <Gold.PLP.Chemscore.Internal.Correction>
0.0075

> <Gold.Rescore>
     Score         DG    S(hbond)    S(metal)    S(lipo)     H(rot)  DE(clash)    DE(int)     intcor
     13.32     -14.79       0.00        0.00     101.43       1.00       0.07       1.40       ----

> <Gold.Chemscore.Fitness>
13.3167

> <Gold.Chemscore.DG>
-14.7873

> <Gold.Chemscore.ZeroCoef>
-5.4800

> <Gold.Chemscore.Hbond>
0.0000

> <Gold.Chemscore.Metal>
0.0000

> <Gold.Chemscore.Lipo>
101.4297

> <Gold.Chemscore.Internal_Hbond>
0.0000

> <Gold.Chemscore.DEClash>
0.0677

> <Gold.Chemscore.DEInternal>
1.4029

> <Gold.Chemscore.Rot>
1.0000

> <Gold.Chemscore.Internal.Correction>
   9.000000E+99

> <Gold.Chemscore.Hbond.Weighted>
-0.0000

> <Gold.Chemscore.Metal.Weighted>
-0.0000

> <Gold.Chemscore.Lipo.Weighted>
-11.8673

> <Gold.Chemscore.Internal_Hbond.Weighted>
0.0000

> <Gold.Chemscore.DEClash.Weighted>
0.0677

> <Gold.Chemscore.DEInternal.Weighted>
1.4029

> <Gold.Chemscore.Rot.Weighted>
2.5600

> <Gold.Chemscore.Internal.Correction.Weighted>
   9.000000E+99

> <Gold.Protein.RotatedTorsions>
[ 6907 6896 6895 6894 ] final  -34.61 input  -60.11 | X-H torsion
[ 7974 7965 7964 7962 ] final  179.36 input  175.53 | X-H torsion
[ 8008 7997 7996 7995 ] final   28.10 input   59.86 | X-H torsion
[ 10167 10162 10161 10158 ] final  108.24 input  -65.29 | X-H torsion
[ 10718 10713 10712 10709 ] final   -5.33 input   66.30 | X-H torsion
[ 10763 10752 10751 10750 ] final  -11.47 input  -60.55 | X-H torsion
[ 11005 11000 10999 10996 ] final -111.08 input  -57.11 | X-H torsion

> <Gold.Protein.ActiveResidues>
 VAL166  LYS551  ARG553  GLY616  TRP617  ASP618  TYR619  PRO620  LYS621  CYS622 
 ASP623  PHE694  ASN695  SER759  ASP760  ASP761  ALA762  ILE779  LEU786  VAL792 
 PHE793  MET794  SER795  GLU796  ALA797  LYS798  CYS799  TRP800  GLU811  SER814 

> <Gold.Protein.RotatedAtoms>
  151.0504  134.9669  159.8208 H   0  0  0  0  0  0  0  0  0  0  0  0  # atno 6907 bound_to 6896
  152.5380  134.2544  159.8921 H   0  0  0  0  0  0  0  0  0  0  0  0  # atno 6908 bound_to 6896
  151.2559  133.4283  159.2647 H   0  0  0  0  0  0  0  0  0  0  0  0  # atno 6909 bound_to 6896
  144.7146  140.0536  143.6434 H   0  0  0  0  0  0  0  0  0  0  0  0  # atno 7974 bound_to 7965
  155.0533  140.3182  155.4685 H   0  0  0  0  0  0  0  0  0  0  0  0  # atno 8008 bound_to 7997
  156.2829  140.2142  156.5603 H   0  0  0  0  0  0  0  0  0  0  0  0  # atno 8009 bound_to 7997
  154.7192  140.0491  157.0611 H   0  0  0  0  0  0  0  0  0  0  0  0  # atno 8010 bound_to 7997
  139.6862  144.7113  151.1428 H   0  0  0  0  0  0  0  0  0  0  0  0  # atno 10167 bound_to 10162
  156.7481  130.5231  149.5810 H   0  0  0  0  0  0  0  0  0  0  0  0  # atno 10718 bound_to 10713
  153.4842  135.7017  153.5920 H   0  0  0  0  0  0  0  0  0  0  0  0  # atno 10763 bound_to 10752
  153.4120  135.3846  155.2057 H   0  0  0  0  0  0  0  0  0  0  0  0  # atno 10764 bound_to 10752
  154.8720  135.3907  154.4295 H   0  0  0  0  0  0  0  0  0  0  0  0  # atno 10765 bound_to 10752
  141.0755  133.9308  157.2398 H   0  0  0  0  0  0  0  0  0  0  0  0  # atno 11005 bound_to 11000
  145.9923  139.3025  143.0977 LP  0  0  0  0  0  0  0  0  0  0  0  0  # atno 17320 bound_to 7965
  145.8889  140.9316  143.0562 LP  0  0  0  0  0  0  0  0  0  0  0  0  # atno 17321 bound_to 7965
  140.7668  143.5625  150.9083 LP  0  0  0  0  0  0  0  0  0  0  0  0  # atno 17342 bound_to 10162
  139.9300  143.6504  152.3078 LP  0  0  0  0  0  0  0  0  0  0  0  0  # atno 17343 bound_to 10162
  156.1420  130.6251  151.0479 LP  0  0  0  0  0  0  0  0  0  0  0  0  # atno 17370 bound_to 10713
  157.6789  131.0843  150.7422 LP  0  0  0  0  0  0  0  0  0  0  0  0  # atno 17371 bound_to 10713
  139.9567  135.0164  156.9149 LP  0  0  0  0  0  0  0  0  0  0  0  0  # atno 17394 bound_to 11000
  140.5582  134.0560  155.7390 LP  0  0  0  0  0  0  0  0  0  0  0  0  # atno 17395 bound_to 11000

$$$$
