AV-unprocessed.smi:2945|AV-procd|sdf|11278|dock5
  -GOLD-   2272016173D 1   1.00000     0.00000
 Structure written by MMmdl.
 36 37  0  0  0  0  0  0  0  0  1 V2000
  147.1870  141.5114  153.7077 C   0  0  0  0  0  0  0  0  0  0  0  0
  147.7319  141.2686  155.0735 C   0  0  0  0  0  0  0  0  0  0  0  0
  148.8934  141.6385  155.6912 C   0  0  0  0  0  0  0  0  0  0  0  0
  148.7612  141.0718  156.9867 C   0  0  0  0  0  0  0  0  0  0  0  0
  149.7805  141.2358  157.9586 N   0  0  0  0  0  0  0  0  0  0  0  0
  150.8554  142.0394  157.8934 C   0  0  0  0  0  0  0  0  0  0  0  0
  151.1211  142.7934  156.9569 O   0  0  0  0  0  0  0  0  0  0  0  0
  151.6130  141.9195  158.9938 N   0  0  0  0  0  0  0  0  0  0  0  0
  152.8637  142.6312  159.2665 C   0  0  2  0  0  0  0  0  0  0  0  0
  153.6991  141.8408  160.2938 C   0  0  0  0  0  0  0  0  0  0  0  0
  153.0693  141.8652  161.6974 C   0  0  0  0  0  0  0  0  0  0  0  0
  152.8275  143.3055  162.1732 C   0  0  0  0  0  0  0  0  0  0  0  0
  151.9764  144.0935  161.1643 C   0  0  0  0  0  0  0  0  0  0  0  0
  152.6068  144.0795  159.7561 C   0  0  2  0  0  0  0  0  0  0  0  0
  151.7857  144.9157  158.7599 C   0  0  0  0  0  0  0  0  0  0  0  0
  147.6232  140.4137  157.1452 N   0  0  0  0  0  0  0  0  0  0  0  0
  146.9578  140.5361  155.9197 O   0  0  0  0  0  0  0  0  0  0  0  0
  147.8348  142.1822  153.1430 H   0  0  0  0  0  0  0  0  0  0  0  0
  146.1969  141.9643  153.7607 H   0  0  0  0  0  0  0  0  0  0  0  0
  147.1031  140.5762  153.1537 H   0  0  0  0  0  0  0  0  0  0  0  0
  149.7037  142.2223  155.2804 H   0  0  0  0  0  0  0  0  0  0  0  0
  149.6859  140.6731  158.7908 H   0  0  0  0  0  0  0  0  0  0  0  0
  151.3039  141.2756  159.7069 H   0  0  0  0  0  0  0  0  0  0  0  0
  153.4529  142.6864  158.3494 H   0  0  0  0  0  0  0  0  0  0  0  0
  153.8308  140.8106  159.9609 H   0  0  0  0  0  0  0  0  0  0  0  0
  154.7000  142.2709  160.3468 H   0  0  0  0  0  0  0  0  0  0  0  0
  152.1256  141.3189  161.6899 H   0  0  0  0  0  0  0  0  0  0  0  0
  153.7179  141.3458  162.4032 H   0  0  0  0  0  0  0  0  0  0  0  0
  152.3371  143.2972  163.1470 H   0  0  0  0  0  0  0  0  0  0  0  0
  153.7851  143.8083  162.3144 H   0  0  0  0  0  0  0  0  0  0  0  0
  150.9707  143.6731  161.1278 H   0  0  0  0  0  0  0  0  0  0  0  0
  151.8647  145.1214  161.5111 H   0  0  0  0  0  0  0  0  0  0  0  0
  153.5814  144.5636  159.8370 H   0  0  0  0  0  0  0  0  0  0  0  0
  150.7667  144.5411  158.6600 H   0  0  0  0  0  0  0  0  0  0  0  0
  152.2432  144.9056  157.7703 H   0  0  0  0  0  0  0  0  0  0  0  0
  151.7224  145.9552  159.0823 H   0  0  0  0  0  0  0  0  0  0  0  0
  1  2  1  0  0  0  0
  1 18  1  0  0  0  0
  1 19  1  0  0  0  0
  1 20  1  0  0  0  0
  2 17  1  0  0  0  0
  2  3  2  0  0  0  0
  3  4  1  0  0  0  0
  3 21  1  0  0  0  0
  4  5  1  0  0  0  0
  4 16  2  0  0  0  0
  5  6  1  0  0  0  0
  5 22  1  0  0  0  0
  6  7  2  0  0  0  0
  6  8  1  0  0  0  0
  8  9  1  0  0  0  0
  8 23  1  0  0  0  0
  9 14  1  0  0  0  0
  9 10  1  0  0  0  0
  9 24  1  0  0  0  0
 10 11  1  0  0  0  0
 10 25  1  0  0  0  0
 10 26  1  0  0  0  0
 11 12  1  0  0  0  0
 11 27  1  0  0  0  0
 11 28  1  0  0  0  0
 12 13  1  0  0  0  0
 12 29  1  0  0  0  0
 12 30  1  0  0  0  0
 13 14  1  0  0  0  0
 13 31  1  0  0  0  0
 13 32  1  0  0  0  0
 14 15  1  0  0  0  0
 14 33  1  0  0  0  0
 15 34  1  0  0  0  0
 15 35  1  0  0  0  0
 15 36  1  0  0  0  0
 16 17  1  0  0  0  0
M  END
> <s_m_source_file>
AV-unprocessed.smi

> <i_m_source_file_index>
2945

> <i_lp_mmshare_version>
43012

> <i_f3d_flags>
0

> <s_epik_input>
W0NIM11jMVtjSF1jKG5vMSlbTkhdQyg9TylbTkhdW0NAQEhdMltDSDJdW0NIMl1bQ0gyXVtDSDJdW0NASF0yW0NIM10=

> <s_epik_cmdline>
J2VwaWtfcHl0aG9uJywgJy1waCcsICc3LjAnLCAnLXRuJywgJzgnLCAnLW1hJywgJzIwMCcsICctbWV0YWxfYmluZGluZycsICctaW1hZScsICc8aW5maWxlLm1hZT4nLCAnLW9tYWUnLCAnPG91dGZpbGUubWFlPic=

> <r_lp_tautomer_probability>
1

> <r_epik_Ionization_Penalty>
2.357e-05

> <r_epik_Ionization_Penalty_Charging>
0

> <r_epik_Ionization_Penalty_Neutral>
2.357e-05

> <r_epik_State_Penalty>
-0

> <r_epik_Charging_Adjusted_Penalty>
0

> <i_epik_Tot_Q>
0

> <i_epik_Tot_abs_Q>
0

> <r_epik_Metal_State_Penalty>
-0

> <b_epik_Metal_Only>
0

> <s_lp_Force_Field>
OPLS_2005

> <r_lp_Energy>
7.46694

> <b_lp_Chiralities_Consistent>
1

> <s_lp_Variant>
AV-unprocessed.smi:2945-3

> <Gold.Version>
5.8.1

> <Gold.Id.Protein>
6NUR|6NUR_protein|mol2

> <Gold.PLP.Fitness>
36.4571

> <Gold.PLP.PLP>
-37.0911

> <Gold.PLP.part.hbond>
0.0000

> <Gold.PLP.part.metal>
0.0000

> <Gold.PLP.part.buried>
-4.6992

> <Gold.PLP.part.nonpolar>
-32.8460

> <Gold.PLP.part.repulsive>
0.3573

> <Gold.PLP.ligand.clash>
0.0000

> <Gold.PLP.ligand.torsion>
0.3204

> <Gold.PLP.Chemscore.Hbond>
0.0000

> <Gold.PLP.Chemscore.CHOScore>
0.0000

> <Gold.PLP.Chemscore.Metal>
0.0000

> <Gold.PLP.Chemscore.Internal.Correction>
0.0067

> <Gold.Rescore>
     Score         DG    S(hbond)    S(metal)    S(lipo)     H(rot)  DE(clash)    DE(int)     intcor
     12.70     -14.39       0.00        0.00      98.03       1.00       0.01       1.68       ----

> <Gold.Chemscore.Fitness>
12.6994

> <Gold.Chemscore.DG>
-14.3895

> <Gold.Chemscore.ZeroCoef>
-5.4800

> <Gold.Chemscore.Hbond>
0.0000

> <Gold.Chemscore.Metal>
0.0000

> <Gold.Chemscore.Lipo>
98.0300

> <Gold.Chemscore.Internal_Hbond>
0.0000

> <Gold.Chemscore.DEClash>
0.0060

> <Gold.Chemscore.DEInternal>
1.6841

> <Gold.Chemscore.Rot>
1.0000

> <Gold.Chemscore.Internal.Correction>
   9.000000E+99

> <Gold.Chemscore.Hbond.Weighted>
-0.0000

> <Gold.Chemscore.Metal.Weighted>
-0.0000

> <Gold.Chemscore.Lipo.Weighted>
-11.4695

> <Gold.Chemscore.Internal_Hbond.Weighted>
0.0000

> <Gold.Chemscore.DEClash.Weighted>
0.0060

> <Gold.Chemscore.DEInternal.Weighted>
1.6841

> <Gold.Chemscore.Rot.Weighted>
2.5600

> <Gold.Chemscore.Internal.Correction.Weighted>
   9.000000E+99

> <Gold.Protein.RotatedTorsions>
[ 6907 6896 6895 6894 ] final   32.99 input  -60.11 | X-H torsion
[ 7974 7965 7964 7962 ] final  -80.31 input  175.53 | X-H torsion
[ 8008 7997 7996 7995 ] final -175.27 input   59.86 | X-H torsion
[ 10167 10162 10161 10158 ] final   34.10 input  -65.29 | X-H torsion
[ 10718 10713 10712 10709 ] final  115.74 input   66.30 | X-H torsion
[ 10763 10752 10751 10750 ] final -130.69 input  -60.55 | X-H torsion
[ 11005 11000 10999 10996 ] final   89.94 input  -57.11 | X-H torsion

> <Gold.Protein.ActiveResidues>
 VAL166  LYS551  ARG553  GLY616  TRP617  ASP618  TYR619  PRO620  LYS621  CYS622 
 ASP623  PHE694  ASN695  SER759  ASP760  ASP761  ALA762  ILE779  LEU786  VAL792 
 PHE793  MET794  SER795  GLU796  ALA797  LYS798  CYS799  TRP800  GLU811  SER814 

> <Gold.Protein.RotatedAtoms>
  152.0822  134.9464  160.0573 H   0  0  0  0  0  0  0  0  0  0  0  0  # atno 6907 bound_to 6896
  152.0748  133.4119  159.4483 H   0  0  0  0  0  0  0  0  0  0  0  0  # atno 6908 bound_to 6896
  150.6836  134.2970  159.4734 H   0  0  0  0  0  0  0  0  0  0  0  0  # atno 6909 bound_to 6896
  145.5617  140.9481  143.1444 H   0  0  0  0  0  0  0  0  0  0  0  0  # atno 7974 bound_to 7965
  155.9805  140.1181  157.0731 H   0  0  0  0  0  0  0  0  0  0  0  0  # atno 8008 bound_to 7997
  154.4181  140.1145  156.5497 H   0  0  0  0  0  0  0  0  0  0  0  0  # atno 8009 bound_to 7997
  155.6477  140.3473  155.4739 H   0  0  0  0  0  0  0  0  0  0  0  0  # atno 8010 bound_to 7997
  140.4346  144.1275  150.6164 H   0  0  0  0  0  0  0  0  0  0  0  0  # atno 10167 bound_to 10162
  157.6204  131.1016  150.7372 H   0  0  0  0  0  0  0  0  0  0  0  0  # atno 10718 bound_to 10713
  154.8754  135.3854  154.4124 H   0  0  0  0  0  0  0  0  0  0  0  0  # atno 10763 bound_to 10752
  153.4837  135.7030  153.5929 H   0  0  0  0  0  0  0  0  0  0  0  0  # atno 10764 bound_to 10752
  153.4333  135.3873  155.2151 H   0  0  0  0  0  0  0  0  0  0  0  0  # atno 10765 bound_to 10752
  139.8865  134.8583  156.3214 H   0  0  0  0  0  0  0  0  0  0  0  0  # atno 11005 bound_to 11000
  144.7480  139.7269  143.7284 LP  0  0  0  0  0  0  0  0  0  0  0  0  # atno 17320 bound_to 7965
  146.1847  139.5056  142.9844 LP  0  0  0  0  0  0  0  0  0  0  0  0  # atno 17321 bound_to 7965
  140.4388  143.2535  151.9500 LP  0  0  0  0  0  0  0  0  0  0  0  0  # atno 17342 bound_to 10162
  139.4786  144.5674  151.8143 LP  0  0  0  0  0  0  0  0  0  0  0  0  # atno 17343 bound_to 10162
  156.7731  130.4835  149.5414 LP  0  0  0  0  0  0  0  0  0  0  0  0  # atno 17370 bound_to 10713
  156.1346  130.6202  151.0382 LP  0  0  0  0  0  0  0  0  0  0  0  0  # atno 17371 bound_to 10713
  140.9784  133.7283  156.0636 LP  0  0  0  0  0  0  0  0  0  0  0  0  # atno 17394 bound_to 11000
  140.7781  134.3757  157.5493 LP  0  0  0  0  0  0  0  0  0  0  0  0  # atno 17395 bound_to 11000

$$$$
