AV-unprocessed.smi:232|AV-procd|sdf|1770|dock2
  -GOLD-   2262020303D 1   1.00000     0.00000
 Structure written by MMmdl.
 52 55  0  0  0  0  0  0  0  0  1 V2000
  143.8985  133.4980  148.0583 C   0  0  0  0  0  0  0  0  0  0  0  0
  143.5391  132.3677  149.0309 C   0  0  0  0  0  0  0  0  0  0  0  0
  144.4891  132.2921  150.2464 C   0  0  1  0  0  0  0  0  0  0  0  0
  145.9454  131.9694  149.8582 C   0  0  0  0  0  0  0  0  0  0  0  0
  146.8080  133.0073  150.5853 C   0  0  0  0  0  0  0  0  0  0  0  0
  145.8747  133.6307  151.6242 C   0  0  2  0  0  0  0  0  0  0  0  0
  145.9445  132.8830  152.9723 C   0  0  0  0  0  0  0  0  0  0  0  0
  144.5627  133.5498  150.9908 N   0  0  0  0  0  0  0  0  0  0  0  0
  143.5012  134.0090  151.7068 C   0  0  0  0  0  0  0  0  0  0  0  0
  142.3581  133.2751  151.7739 N   0  0  0  0  0  0  0  0  0  0  0  0
  141.3171  133.7051  152.4921 C   0  0  0  0  0  0  0  0  0  0  0  0
  141.2056  134.8222  153.2125 N   0  0  0  0  0  0  0  0  0  0  0  0
  142.3473  135.5649  153.1494 C   0  0  0  0  0  0  0  0  0  0  0  0
  143.5302  135.2368  152.4277 C   0  0  0  0  0  0  0  0  0  0  0  0
  144.4779  136.2402  152.5971 N   0  0  0  0  0  0  0  0  0  0  0  0
  143.8942  137.1036  153.3825 C   0  0  0  0  0  0  0  0  0  0  0  0
  142.6132  136.7763  153.7625 N   0  0  0  0  0  0  0  0  0  0  0  0
  141.7401  137.5512  154.6271 C   0  0  0  0  0  0  0  0  0  0  0  0
  140.7144  138.3906  153.8347 C   0  0  2  0  0  0  0  0  0  0  0  0
  141.2294  139.7005  153.6880 O   0  0  0  0  0  0  0  0  0  0  0  0
  139.3489  138.4988  154.5424 C   0  0  2  0  0  0  0  0  0  0  0  0
  138.4523  137.2679  154.4002 C   0  0  0  0  0  0  0  0  0  0  0  0
  137.0561  137.8206  154.6287 C   0  0  0  0  0  0  0  0  0  0  0  0
  137.2059  139.3176  154.3464 C   0  0  0  0  0  0  0  0  0  0  0  0
  138.5479  139.4849  153.9081 O   0  0  0  0  0  0  0  0  0  0  0  0
  143.2200  133.5044  147.2048 H   0  0  0  0  0  0  0  0  0  0  0  0
  144.9120  133.3770  147.6752 H   0  0  0  0  0  0  0  0  0  0  0  0
  143.8350  134.4752  148.5371 H   0  0  0  0  0  0  0  0  0  0  0  0
  142.5110  132.4912  149.3731 H   0  0  0  0  0  0  0  0  0  0  0  0
  143.5577  131.4299  148.4762 H   0  0  0  0  0  0  0  0  0  0  0  0
  144.1368  131.5148  150.9262 H   0  0  0  0  0  0  0  0  0  0  0  0
  146.2008  130.9579  150.1757 H   0  0  0  0  0  0  0  0  0  0  0  0
  146.1159  132.0263  148.7823 H   0  0  0  0  0  0  0  0  0  0  0  0
  147.7127  132.5794  151.0182 H   0  0  0  0  0  0  0  0  0  0  0  0
  147.1187  133.7751  149.8754 H   0  0  0  0  0  0  0  0  0  0  0  0
  146.1626  134.6703  151.7773 H   0  0  0  0  0  0  0  0  0  0  0  0
  146.9534  132.9199  153.3831 H   0  0  0  0  0  0  0  0  0  0  0  0
  145.6683  131.8332  152.8690 H   0  0  0  0  0  0  0  0  0  0  0  0
  145.2800  133.3305  153.7120 H   0  0  0  0  0  0  0  0  0  0  0  0
  140.4507  133.0605  152.4911 H   0  0  0  0  0  0  0  0  0  0  0  0
  144.3855  138.0082  153.7099 H   0  0  0  0  0  0  0  0  0  0  0  0
  141.2326  136.8549  155.2950 H   0  0  0  0  0  0  0  0  0  0  0  0
  142.3529  138.1958  155.2588 H   0  0  0  0  0  0  0  0  0  0  0  0
  140.5821  137.9538  152.8438 H   0  0  0  0  0  0  0  0  0  0  0  0
  141.3000  139.8941  152.7659 H   0  0  0  0  0  0  0  0  0  0  0  0
  139.4712  138.7440  155.5996 H   0  0  0  0  0  0  0  0  0  0  0  0
  138.5237  136.8668  153.3881 H   0  0  0  0  0  0  0  0  0  0  0  0
  138.7090  136.4709  155.0986 H   0  0  0  0  0  0  0  0  0  0  0  0
  136.3269  137.3470  153.9705 H   0  0  0  0  0  0  0  0  0  0  0  0
  136.7356  137.6603  155.6588 H   0  0  0  0  0  0  0  0  0  0  0  0
  136.5067  139.6718  153.5887 H   0  0  0  0  0  0  0  0  0  0  0  0
  137.0463  139.8988  155.2558 H   0  0  0  0  0  0  0  0  0  0  0  0
  1  2  1  0  0  0  0
  1 26  1  0  0  0  0
  1 27  1  0  0  0  0
  1 28  1  0  0  0  0
  2  3  1  0  0  0  0
  2 29  1  0  0  0  0
  2 30  1  0  0  0  0
  3  8  1  0  0  0  0
  3  4  1  0  0  0  0
  3 31  1  0  0  0  0
  4  5  1  0  0  0  0
  4 32  1  0  0  0  0
  4 33  1  0  0  0  0
  5  6  1  0  0  0  0
  5 34  1  0  0  0  0
  5 35  1  0  0  0  0
  6  7  1  0  0  0  0
  6  8  1  0  0  0  0
  6 36  1  0  0  0  0
  7 37  1  0  0  0  0
  7 38  1  0  0  0  0
  7 39  1  0  0  0  0
  8  9  1  0  0  0  0
  9 14  1  0  0  0  0
  9 10  2  0  0  0  0
 10 11  1  0  0  0  0
 11 12  2  0  0  0  0
 11 40  1  0  0  0  0
 12 13  1  0  0  0  0
 13 17  1  0  0  0  0
 13 14  2  0  0  0  0
 14 15  1  0  0  0  0
 15 16  2  0  0  0  0
 16 17  1  0  0  0  0
 16 41  1  0  0  0  0
 17 18  1  0  0  0  0
 18 19  1  0  0  0  0
 18 42  1  0  0  0  0
 18 43  1  0  0  0  0
 19 20  1  0  0  0  0
 19 21  1  0  0  0  0
 19 44  1  0  0  0  0
 20 45  1  0  0  0  0
 21 25  1  0  0  0  0
 21 22  1  0  0  0  0
 21 46  1  0  0  0  0
 22 23  1  0  0  0  0
 22 47  1  0  0  0  0
 22 48  1  0  0  0  0
 23 24  1  0  0  0  0
 23 49  1  0  0  0  0
 23 50  1  0  0  0  0
 24 25  1  0  0  0  0
 24 51  1  0  0  0  0
 24 52  1  0  0  0  0
M  END
> <s_m_source_file>
AV-unprocessed.smi

> <i_m_source_file_index>
232

> <i_lp_mmshare_version>
43012

> <i_f3d_flags>
0

> <s_epik_input>
W0NIM11bQ0gyXVtDQEBIXTFbQ0gyXVtDSDJdW0NAQEhdKFtDSDNdKU4xYyhuW2NIXW4yKWMoYzIzKW5bY0hdbjNbQ0gyXVtDQEhdKFtPSF0pW0NAQEhdNFtDSDJdW0NIMl1bQ0gyXU80

> <s_epik_cmdline>
J2VwaWtfcHl0aG9uJywgJy1waCcsICc3LjAnLCAnLXRuJywgJzgnLCAnLW1hJywgJzIwMCcsICctbWV0YWxfYmluZGluZycsICctaW1hZScsICc8aW5maWxlLm1hZT4nLCAnLW9tYWUnLCAnPG91dGZpbGUubWFlPic=

> <r_lp_tautomer_probability>
1

> <r_epik_Ionization_Penalty>
0.00258048

> <r_epik_Ionization_Penalty_Charging>
0

> <r_epik_Ionization_Penalty_Neutral>
0.00258048

> <r_epik_State_Penalty>
0.00168551

> <r_epik_Charging_Adjusted_Penalty>
0.00168551

> <i_epik_Tot_Q>
0

> <i_epik_Tot_abs_Q>
0

> <r_epik_Metal_State_Penalty>
-0

> <b_epik_Metal_Only>
0

> <s_lp_Force_Field>
OPLS_2005

> <r_lp_Energy>
53.6071

> <b_lp_Chiralities_Consistent>
1

> <s_lp_Variant>
AV-unprocessed.smi:232-4

> <Gold.Version>
5.8.1

> <Gold.Id.Protein>
6NUR|6NUR_protein|mol2

> <Gold.PLP.Fitness>
42.9055

> <Gold.PLP.PLP>
-38.9848

> <Gold.PLP.part.hbond>
-2.0000

> <Gold.PLP.part.metal>
0.0000

> <Gold.PLP.part.buried>
2.4409

> <Gold.PLP.part.nonpolar>
-40.7300

> <Gold.PLP.part.repulsive>
1.8684

> <Gold.PLP.ligand.clash>
0.0000

> <Gold.PLP.ligand.torsion>
1.2013

> <Gold.PLP.Chemscore.Hbond>
1.0000

> <Gold.PLP.Chemscore.CHOScore>
1.0000

> <Gold.PLP.Chemscore.Metal>
0.0000

> <Gold.Chemscore.Hbonds>
donor molecule, donor type, donor heavy atom, donor atom, acceptor molecule, acceptor atom, score
      L1  H    20    45       P1 10160  0.68
      L1  C    16    41       P1 10175  0.19

> <Gold.PLP.Chemscore.Internal.Correction>
0.3233

> <Gold.Rescore>
     Score         DG    S(hbond)    S(metal)    S(lipo)     H(rot)  DE(clash)    DE(int)     intcor
     11.06     -13.84       1.01        0.00      95.79       2.43       1.85       0.93       ----

> <Gold.Chemscore.Fitness>
11.0550

> <Gold.Chemscore.DG>
-13.8436

> <Gold.Chemscore.ZeroCoef>
-5.4800

> <Gold.Chemscore.Hbond>
1.0082

> <Gold.Chemscore.Metal>
0.0000

> <Gold.Chemscore.Lipo>
95.7866

> <Gold.Chemscore.Internal_Hbond>
0.0000

> <Gold.Chemscore.DEClash>
1.8537

> <Gold.Chemscore.DEInternal>
0.9349

> <Gold.Chemscore.Rot>
2.4260

> <Gold.Chemscore.Internal.Correction>
   9.000000E+99

> <Gold.Chemscore.Hbonds>
donor molecule, donor type, donor heavy atom, donor atom, acceptor molecule, acceptor atom, score
      L1  H    20    45       P1 10160  0.67

> <Gold.Chemscore.Hbond.Weighted>
-3.3672

> <Gold.Chemscore.Metal.Weighted>
-0.0000

> <Gold.Chemscore.Lipo.Weighted>
-11.2070

> <Gold.Chemscore.Internal_Hbond.Weighted>
0.0000

> <Gold.Chemscore.DEClash.Weighted>
1.8537

> <Gold.Chemscore.DEInternal.Weighted>
0.9349

> <Gold.Chemscore.Rot.Weighted>
6.2107

> <Gold.Chemscore.Internal.Correction.Weighted>
   9.000000E+99

> <Gold.Protein.RotatedTorsions>
[ 6907 6896 6895 6894 ] final  109.62 input  -60.11 | X-H torsion
[ 7974 7965 7964 7962 ] final  127.87 input  175.53 | X-H torsion
[ 8008 7997 7996 7995 ] final -166.13 input   59.86 | X-H torsion
[ 10167 10162 10161 10158 ] final   61.12 input  -65.29 | X-H torsion
[ 10718 10713 10712 10709 ] final  163.71 input   66.30 | X-H torsion
[ 10763 10752 10751 10750 ] final -173.94 input  -60.55 | X-H torsion
[ 11005 11000 10999 10996 ] final   21.47 input  -57.11 | X-H torsion

> <Gold.Protein.ActiveResidues>
 VAL166  LYS551  ARG553  GLY616  TRP617  ASP618  TYR619  PRO620  LYS621  CYS622 
 ASP623  PHE694  ASN695  SER759  ASP760  ASP761  ALA762  ILE779  LEU786  VAL792 
 PHE793  MET794  SER795  GLU796  ALA797  LYS798  CYS799  TRP800  GLU811  SER814 

> <Gold.Protein.RotatedAtoms>
  152.5058  133.8917  159.7396 H   0  0  0  0  0  0  0  0  0  0  0  0  # atno 6907 bound_to 6896
  150.9354  133.6709  159.2808 H   0  0  0  0  0  0  0  0  0  0  0  0  # atno 6908 bound_to 6896
  151.4039  135.0980  159.9617 H   0  0  0  0  0  0  0  0  0  0  0  0  # atno 6909 bound_to 6896
  145.0458  139.3924  143.5079 H   0  0  0  0  0  0  0  0  0  0  0  0  # atno 7974 bound_to 7965
  155.8595  140.0976  157.1623 H   0  0  0  0  0  0  0  0  0  0  0  0  # atno 8008 bound_to 7997
  154.3989  140.1368  156.4005 H   0  0  0  0  0  0  0  0  0  0  0  0  # atno 8009 bound_to 7997
  155.7873  140.3457  155.5332 H   0  0  0  0  0  0  0  0  0  0  0  0  # atno 8010 bound_to 7997
  140.1582  144.4396  150.6723 H   0  0  0  0  0  0  0  0  0  0  0  0  # atno 10167 bound_to 10162
  157.1046  131.0452  151.2483 H   0  0  0  0  0  0  0  0  0  0  0  0  # atno 10718 bound_to 10713
  154.6020  135.2855  155.0525 H   0  0  0  0  0  0  0  0  0  0  0  0  # atno 10763 bound_to 10752
  154.1786  135.6460  153.5032 H   0  0  0  0  0  0  0  0  0  0  0  0  # atno 10764 bound_to 10752
  153.0161  135.5418  154.6743 H   0  0  0  0  0  0  0  0  0  0  0  0  # atno 10765 bound_to 10752
  140.3912  134.1817  155.7662 H   0  0  0  0  0  0  0  0  0  0  0  0  # atno 11005 bound_to 11000
  146.3513  140.0082  142.8669 LP  0  0  0  0  0  0  0  0  0  0  0  0  # atno 17320 bound_to 7965
  145.1590  140.9663  143.4388 LP  0  0  0  0  0  0  0  0  0  0  0  0  # atno 17321 bound_to 7965
  140.6659  143.2268  151.5743 LP  0  0  0  0  0  0  0  0  0  0  0  0  # atno 17342 bound_to 10162
  139.5393  144.2691  152.1318 LP  0  0  0  0  0  0  0  0  0  0  0  0  # atno 17343 bound_to 10162
  157.4612  130.7654  149.7237 LP  0  0  0  0  0  0  0  0  0  0  0  0  # atno 17370 bound_to 10713
  155.9865  130.3974  150.3209 LP  0  0  0  0  0  0  0  0  0  0  0  0  # atno 17371 bound_to 10713
  141.1890  133.8248  157.0974 LP  0  0  0  0  0  0  0  0  0  0  0  0  # atno 17394 bound_to 11000
  140.0405  134.9857  157.0953 LP  0  0  0  0  0  0  0  0  0  0  0  0  # atno 17395 bound_to 11000

$$$$
