AV-unprocessed.smi:1950|AV-procd|sdf|7879|dock6
  -GOLD-   2272010 33D 1   1.00000     0.00000
 Structure written by MMmdl.
 33 34  0  0  0  0  0  0  0  0  1 V2000
  151.3186  141.0369  158.4797 C   0  0  0  0  0  0  0  0  0  0  0  0
  152.1786  140.2176  157.5147 C   0  0  0  0  0  0  0  0  0  0  0  0
  153.1412  139.6042  157.9762 O   0  0  0  0  0  0  0  0  0  0  0  0
  151.8530  140.1874  156.2000 N   0  0  0  0  0  0  0  0  0  0  0  0
  152.5633  139.3522  155.2249 C   0  0  0  0  0  0  0  0  0  0  0  0
  151.6421  138.1940  154.8005 C   0  0  0  0  0  0  0  0  0  0  0  0
  150.2956  138.7159  154.2532 C   0  0  0  0  0  0  0  0  0  0  0  0
  149.3727  137.5990  154.0687 N   0  0  0  0  0  0  0  0  0  0  0  0
  148.6463  137.0105  155.0303 C   0  0  0  0  0  0  0  0  0  0  0  0
  148.6740  137.3514  156.2131 O   0  0  0  0  0  0  0  0  0  0  0  0
  147.8987  136.0123  154.5273 N   0  0  0  0  0  0  0  0  0  0  0  0
  146.9934  135.1584  155.2113 C   0  0  0  0  0  0  0  0  0  0  0  0
  146.9185  135.0700  156.5487 N   0  0  0  0  0  0  0  0  0  0  0  0
  145.9488  134.1630  156.9561 N   0  0  0  0  0  0  0  0  0  0  0  0
  145.3319  133.6031  155.9116 C   0  0  0  0  0  0  0  0  0  0  0  0
  145.8743  134.1302  154.3277 S   0  0  0  0  0  0  0  0  0  0  0  0
  149.6642  139.7618  155.1978 C   0  0  0  0  0  0  0  0  0  0  0  0
  150.6845  140.8417  155.5988 C   0  0  0  0  0  0  0  0  0  0  0  0
  150.2822  140.6991  158.4572 H   0  0  0  0  0  0  0  0  0  0  0  0
  151.3530  142.0962  158.2246 H   0  0  0  0  0  0  0  0  0  0  0  0
  151.6799  140.9289  159.5028 H   0  0  0  0  0  0  0  0  0  0  0  0
  152.8312  139.9566  154.3572 H   0  0  0  0  0  0  0  0  0  0  0  0
  153.5035  138.9569  155.6117 H   0  0  0  0  0  0  0  0  0  0  0  0
  152.1384  137.5791  154.0485 H   0  0  0  0  0  0  0  0  0  0  0  0
  151.4662  137.5467  155.6612 H   0  0  0  0  0  0  0  0  0  0  0  0
  150.4959  139.2104  153.3008 H   0  0  0  0  0  0  0  0  0  0  0  0
  149.2790  137.2469  153.1273 H   0  0  0  0  0  0  0  0  0  0  0  0
  147.9861  135.8443  153.5360 H   0  0  0  0  0  0  0  0  0  0  0  0
  144.5518  132.8745  156.0750 H   0  0  0  0  0  0  0  0  0  0  0  0
  148.8007  140.2247  154.7185 H   0  0  0  0  0  0  0  0  0  0  0  0
  149.2923  139.2719  156.0993 H   0  0  0  0  0  0  0  0  0  0  0  0
  150.2122  141.5766  156.2491 H   0  0  0  0  0  0  0  0  0  0  0  0
  151.0011  141.3985  154.7156 H   0  0  0  0  0  0  0  0  0  0  0  0
  1  2  1  0  0  0  0
  1 19  1  0  0  0  0
  1 20  1  0  0  0  0
  1 21  1  0  0  0  0
  2  3  2  0  0  0  0
  2  4  1  0  0  0  0
  4 18  1  0  0  0  0
  4  5  1  0  0  0  0
  5  6  1  0  0  0  0
  5 22  1  0  0  0  0
  5 23  1  0  0  0  0
  6  7  1  0  0  0  0
  6 24  1  0  0  0  0
  6 25  1  0  0  0  0
  7  8  1  0  0  0  0
  7 17  1  0  0  0  0
  7 26  1  0  0  0  0
  8  9  1  0  0  0  0
  8 27  1  0  0  0  0
  9 10  2  0  0  0  0
  9 11  1  0  0  0  0
 11 12  1  0  0  0  0
 11 28  1  0  0  0  0
 12 16  1  0  0  0  0
 12 13  2  0  0  0  0
 13 14  1  0  0  0  0
 14 15  2  0  0  0  0
 15 16  1  0  0  0  0
 15 29  1  0  0  0  0
 17 18  1  0  0  0  0
 17 30  1  0  0  0  0
 17 31  1  0  0  0  0
 18 32  1  0  0  0  0
 18 33  1  0  0  0  0
M  END
> <s_m_source_file>
AV-unprocessed.smi

> <i_m_source_file_index>
1950

> <i_lp_mmshare_version>
43012

> <i_f3d_flags>
0

> <s_epik_input>
W0NIM11DKD1PKU4xW0NIMl1bQ0gyXVtDSF0oW0NIMl1bQ0gyXTEpW05IXUMoPU8pW05IXWMybm5bY0hdczI=

> <s_epik_cmdline>
J2VwaWtfcHl0aG9uJywgJy1waCcsICc3LjAnLCAnLXRuJywgJzgnLCAnLW1hJywgJzIwMCcsICctbWV0YWxfYmluZGluZycsICctaW1hZScsICc8aW5maWxlLm1hZT4nLCAnLW9tYWUnLCAnPG91dGZpbGUubWFlPic=

> <r_lp_tautomer_probability>
1

> <r_epik_Ionization_Penalty>
0.00190949

> <r_epik_Ionization_Penalty_Charging>
0

> <r_epik_Ionization_Penalty_Neutral>
0.00190949

> <r_epik_State_Penalty>
-0

> <r_epik_Charging_Adjusted_Penalty>
0

> <i_epik_Tot_Q>
0

> <i_epik_Tot_abs_Q>
0

> <r_epik_Metal_State_Penalty>
0.336167

> <b_epik_Metal_Only>
0

> <s_lp_Force_Field>
OPLS_2005

> <r_lp_Energy>
22.3171

> <b_lp_Chiralities_Consistent>
1

> <s_lp_Variant>
AV-unprocessed.smi:1950-1

> <Gold.Version>
5.8.1

> <Gold.Id.Protein>
6NUR|6NUR_protein|mol2

> <Gold.PLP.Fitness>
35.0398

> <Gold.PLP.PLP>
-23.7438

> <Gold.PLP.part.hbond>
-3.0000

> <Gold.PLP.part.metal>
0.0000

> <Gold.PLP.part.buried>
-0.7239

> <Gold.PLP.part.nonpolar>
-19.3502

> <Gold.PLP.part.repulsive>
0.0461

> <Gold.PLP.ligand.clash>
0.0000

> <Gold.PLP.ligand.torsion>
0.3007

> <Gold.PLP.Chemscore.Hbond>
2.9600

> <Gold.PLP.Chemscore.CHOScore>
1.0000

> <Gold.PLP.Chemscore.Metal>
0.0000

> <Gold.Chemscore.Hbonds>
donor molecule, donor type, donor heavy atom, donor atom, acceptor molecule, acceptor atom, score
      L1  H     8    27       P1  7948  1.00
      L1  H    11    28       P1  7948  0.96
      P1  H  7997  8010       L1     3  1.00
      L1  C    15    29       P1 10957  1.00

> <Gold.PLP.Chemscore.Internal.Correction>
0.0173

> <Gold.Rescore>
     Score         DG    S(hbond)    S(metal)    S(lipo)     H(rot)  DE(clash)    DE(int)     intcor
     14.62     -17.65       2.83        0.00      44.99       1.00       0.03       3.00       ----

> <Gold.Chemscore.Fitness>
14.6217

> <Gold.Chemscore.DG>
-17.6484

> <Gold.Chemscore.ZeroCoef>
-5.4800

> <Gold.Chemscore.Hbond>
2.8338

> <Gold.Chemscore.Metal>
0.0000

> <Gold.Chemscore.Lipo>
44.9884

> <Gold.Chemscore.Internal_Hbond>
0.0000

> <Gold.Chemscore.DEClash>
0.0251

> <Gold.Chemscore.DEInternal>
3.0016

> <Gold.Chemscore.Rot>
1.0000

> <Gold.Chemscore.Internal.Correction>
   9.000000E+99

> <Gold.Chemscore.Hbonds>
donor molecule, donor type, donor heavy atom, donor atom, acceptor molecule, acceptor atom, score
      L1  H     8    27       P1  7948  0.97
      L1  H    11    28       P1  7948  0.91
      P1  H  7997  8010       L1     3  0.65

> <Gold.Chemscore.Hbond.Weighted>
-9.4647

> <Gold.Chemscore.Metal.Weighted>
-0.0000

> <Gold.Chemscore.Lipo.Weighted>
-5.2636

> <Gold.Chemscore.Internal_Hbond.Weighted>
0.0000

> <Gold.Chemscore.DEClash.Weighted>
0.0251

> <Gold.Chemscore.DEInternal.Weighted>
3.0016

> <Gold.Chemscore.Rot.Weighted>
2.5600

> <Gold.Chemscore.Internal.Correction.Weighted>
   9.000000E+99

> <Gold.Protein.RotatedTorsions>
[ 6907 6896 6895 6894 ] final  131.81 input  -60.11 | X-H torsion
[ 7974 7965 7964 7962 ] final  -40.41 input  175.53 | X-H torsion
[ 8008 7997 7996 7995 ] final   36.04 input   59.86 | X-H torsion
[ 10167 10162 10161 10158 ] final  118.75 input  -65.29 | X-H torsion
[ 10718 10713 10712 10709 ] final   71.30 input   66.30 | X-H torsion
[ 10763 10752 10751 10750 ] final -157.17 input  -60.55 | X-H torsion
[ 11005 11000 10999 10996 ] final   89.26 input  -57.11 | X-H torsion

> <Gold.Protein.ActiveResidues>
 VAL166  LYS551  ARG553  GLY616  TRP617  ASP618  TYR619  PRO620  LYS621  CYS622 
 ASP623  PHE694  ASN695  SER759  ASP760  ASP761  ALA762  ILE779  LEU786  VAL792 
 PHE793  MET794  SER795  GLU796  ALA797  LYS798  CYS799  TRP800  GLU811  SER814 

> <Gold.Protein.RotatedAtoms>
  152.3389  133.6043  159.5861 H   0  0  0  0  0  0  0  0  0  0  0  0  # atno 6907 bound_to 6896
  150.7466  133.9754  159.3568 H   0  0  0  0  0  0  0  0  0  0  0  0  # atno 6908 bound_to 6896
  151.7620  135.0808  160.0398 H   0  0  0  0  0  0  0  0  0  0  0  0  # atno 6909 bound_to 6896
  146.0307  140.6735  142.9134 H   0  0  0  0  0  0  0  0  0  0  0  0  # atno 7974 bound_to 7965
  155.1809  140.3300  155.4375 H   0  0  0  0  0  0  0  0  0  0  0  0  # atno 8008 bound_to 7997
  156.2477  140.1927  156.6857 H   0  0  0  0  0  0  0  0  0  0  0  0  # atno 8009 bound_to 7997
  154.6272  140.0587  156.9674 H   0  0  0  0  0  0  0  0  0  0  0  0  # atno 8010 bound_to 7997
  139.6091  144.7077  151.2886 H   0  0  0  0  0  0  0  0  0  0  0  0  # atno 10167 bound_to 10162
  157.6445  130.9521  150.0771 H   0  0  0  0  0  0  0  0  0  0  0  0  # atno 10718 bound_to 10713
  154.7657  135.3130  154.8291 H   0  0  0  0  0  0  0  0  0  0  0  0  # atno 10763 bound_to 10752
  153.9040  135.6813  153.4758 H   0  0  0  0  0  0  0  0  0  0  0  0  # atno 10764 bound_to 10752
  153.1263  135.4800  154.9210 H   0  0  0  0  0  0  0  0  0  0  0  0  # atno 10765 bound_to 10752
  139.8879  134.8540  156.3117 H   0  0  0  0  0  0  0  0  0  0  0  0  # atno 11005 bound_to 11000
  144.7029  140.3730  143.7141 LP  0  0  0  0  0  0  0  0  0  0  0  0  # atno 17320 bound_to 7965
  145.7046  139.1669  143.2573 LP  0  0  0  0  0  0  0  0  0  0  0  0  # atno 17321 bound_to 7965
  140.7306  143.6875  150.7949 LP  0  0  0  0  0  0  0  0  0  0  0  0  # atno 17342 bound_to 10162
  140.0466  143.5292  152.2693 LP  0  0  0  0  0  0  0  0  0  0  0  0  # atno 17343 bound_to 10162
  156.1758  130.3648  149.9102 LP  0  0  0  0  0  0  0  0  0  0  0  0  # atno 17370 bound_to 10713
  156.7067  130.8954  151.3605 LP  0  0  0  0  0  0  0  0  0  0  0  0  # atno 17371 bound_to 10713
  140.9845  133.7246  156.0722 LP  0  0  0  0  0  0  0  0  0  0  0  0  # atno 17394 bound_to 11000
  140.7705  134.3837  157.5508 LP  0  0  0  0  0  0  0  0  0  0  0  0  # atno 17395 bound_to 11000

$$$$
