AV-unprocessed.smi:2031|AV-procd|sdf|8230|dock3
  -GOLD-   2272010503D 1   1.00000     0.00000
 Structure written by MMmdl.
 41 42  0  0  0  0  0  0  0  0  3 V2000
  152.6014  142.0692  160.1290 C   0  0  0  0  0  0  0  0  0  0  0  0
  152.6253  140.9828  159.1095 C   0  0  0  0  0  0  0  0  0  0  0  0
  151.7174  140.5569  158.1815 C   0  0  0  0  0  0  0  0  0  0  0  0
  152.3901  139.4807  157.5436 C   0  0  0  0  0  0  0  0  0  0  0  0
  151.7638  138.7557  156.4953 N   0  0  0  0  0  0  0  0  0  0  0  0
  151.1833  139.2245  155.3755 C   0  0  0  0  0  0  0  0  0  0  0  0
  151.1465  140.4407  155.1537 O   0  0  0  0  0  0  0  0  0  0  0  0
  150.6866  138.2245  154.5962 N   0  5  0  0  0  0  0  0  0  0  0  0
  150.3339  136.8875  155.0713 C   0  0  0  0  0  0  0  0  0  0  0  0
  148.8087  136.6896  154.9823 C   0  0  0  0  0  0  0  0  0  0  0  0
  148.4641  135.3695  154.3806 N   0  3  0  0  0  0  0  0  0  0  0  0
  147.0189  135.0217  154.4494 C   0  0  0  0  0  0  0  0  0  0  0  0
  146.5373  134.4697  153.0968 C   0  0  0  0  0  0  0  0  0  0  0  0
  146.9666  133.0245  152.8018 C   0  0  0  0  0  0  0  0  0  0  0  0
  148.4824  132.7804  152.8854 C   0  0  0  0  0  0  0  0  0  0  0  0
  149.0060  132.8624  154.3284 C   0  0  0  0  0  0  0  0  0  0  0  0
  149.3849  134.2765  154.8121 C   0  0  0  0  0  0  0  0  0  0  0  0
  153.6000  139.2687  158.0402 N   0  0  0  0  0  0  0  0  0  0  0  0
  153.7567  140.2300  159.0456 O   0  0  0  0  0  0  0  0  0  0  0  0
  151.6453  142.5928  160.1191 H   0  0  0  0  0  0  0  0  0  0  0  0
  153.3886  142.7978  159.9348 H   0  0  0  0  0  0  0  0  0  0  0  0
  152.7542  141.6633  161.1291 H   0  0  0  0  0  0  0  0  0  0  0  0
  150.7313  140.9531  157.9897 H   0  0  0  0  0  0  0  0  0  0  0  0
  151.7465  137.7532  156.6100 H   0  0  0  0  0  0  0  0  0  0  0  0
  150.8234  136.1162  154.4761 H   0  0  0  0  0  0  0  0  0  0  0  0
  150.6490  136.7061  156.0997 H   0  0  0  0  0  0  0  0  0  0  0  0
  148.3502  136.7873  155.9678 H   0  0  0  0  0  0  0  0  0  0  0  0
  148.4039  137.5119  154.3918 H   0  0  0  0  0  0  0  0  0  0  0  0
  146.8101  134.3359  155.2715 H   0  0  0  0  0  0  0  0  0  0  0  0
  146.4178  135.9086  154.6490 H   0  0  0  0  0  0  0  0  0  0  0  0
  145.4477  134.5091  153.0715 H   0  0  0  0  0  0  0  0  0  0  0  0
  146.8749  135.1267  152.2935 H   0  0  0  0  0  0  0  0  0  0  0  0
  146.4497  132.3449  153.4807 H   0  0  0  0  0  0  0  0  0  0  0  0
  146.6217  132.7599  151.8015 H   0  0  0  0  0  0  0  0  0  0  0  0
  148.6798  131.7768  152.5069 H   0  0  0  0  0  0  0  0  0  0  0  0
  149.0285  133.4610  152.2307 H   0  0  0  0  0  0  0  0  0  0  0  0
  148.2767  132.4194  155.0075 H   0  0  0  0  0  0  0  0  0  0  0  0
  149.8923  132.2333  154.4175 H   0  0  0  0  0  0  0  0  0  0  0  0
  150.3863  134.5112  154.4499 H   0  0  0  0  0  0  0  0  0  0  0  0
  149.4504  134.2612  155.9009 H   0  0  0  0  0  0  0  0  0  0  0  0
  148.6347  135.4995  153.3935 H   0  0  0  0  0  0  0  0  0  0  0  0
  1  2  1  0  0  0  0
  1 20  1  0  0  0  0
  1 21  1  0  0  0  0
  1 22  1  0  0  0  0
  2 19  1  0  0  0  0
  2  3  2  0  0  0  0
  3  4  1  0  0  0  0
  3 23  1  0  0  0  0
  4  5  1  0  0  0  0
  4 18  2  0  0  0  0
  5  6  1  0  0  0  0
  5 24  1  0  0  0  0
  6  7  2  0  0  0  0
  6  8  1  0  0  0  0
  8  9  1  0  0  0  0
  9 10  1  0  0  0  0
  9 25  1  0  0  0  0
  9 26  1  0  0  0  0
 10 11  1  0  0  0  0
 10 27  1  0  0  0  0
 10 28  1  0  0  0  0
 11 17  1  0  0  0  0
 11 12  1  0  0  0  0
 11 41  1  0  0  0  0
 12 13  1  0  0  0  0
 12 29  1  0  0  0  0
 12 30  1  0  0  0  0
 13 14  1  0  0  0  0
 13 31  1  0  0  0  0
 13 32  1  0  0  0  0
 14 15  1  0  0  0  0
 14 33  1  0  0  0  0
 14 34  1  0  0  0  0
 15 16  1  0  0  0  0
 15 35  1  0  0  0  0
 15 36  1  0  0  0  0
 16 17  1  0  0  0  0
 16 37  1  0  0  0  0
 16 38  1  0  0  0  0
 17 39  1  0  0  0  0
 17 40  1  0  0  0  0
 18 19  1  0  0  0  0
M  CHG  1   8  -1
M  CHG  1  11   1
M  END
> <s_m_source_file>
AV-unprocessed.smi

> <i_m_source_file_index>
2031

> <i_lp_mmshare_version>
43012

> <i_f3d_flags>
0

> <s_epik_input>
W0NIM11jMVtjSF1jKG5vMSlbTkhdQyg9TylbTkhdW0NIMl1bQ0gyXU4yW0NIMl1bQ0gyXVtDSDJdW0NIMl1bQ0gyXVtDSDJdMg==

> <s_epik_cmdline>
J2VwaWtfcHl0aG9uJywgJy1waCcsICc3LjAnLCAnLXRuJywgJzgnLCAnLW1hJywgJzIwMCcsICctbWV0YWxfYmluZGluZycsICctaW1hZScsICc8aW5maWxlLm1hZT4nLCAnLW9tYWUnLCAnPG91dGZpbGUubWFlPic=

> <r_epik_Ionization_Penalty>
6.7666

> <r_epik_Ionization_Penalty_Charging>
6.7666

> <r_epik_Ionization_Penalty_Neutral>
5.77131e-06

> <r_epik_State_Penalty>
6.79217

> <r_epik_Charging_Adjusted_Penalty>
13.5588

> <i_epik_Tot_Q>
0

> <i_epik_Tot_abs_Q>
2

> <r_epik_Metal_State_Penalty>
2.72569

> <b_epik_Metal_Only>
1

> <s_lp_Force_Field>
OPLS_2005

> <r_lp_Energy>
19.0994

> <b_lp_Chiralities_Consistent>
1

> <s_lp_Variant>
AV-unprocessed.smi:2031-3

> <Gold.Version>
5.8.1

> <Gold.Id.Protein>
6NUR|6NUR_protein|mol2

> <Gold.PLP.Fitness>
38.9483

> <Gold.PLP.PLP>
-29.0471

> <Gold.PLP.part.hbond>
-4.0000

> <Gold.PLP.part.metal>
0.0000

> <Gold.PLP.part.buried>
-2.0168

> <Gold.PLP.part.nonpolar>
-22.9864

> <Gold.PLP.part.repulsive>
0.3177

> <Gold.PLP.ligand.clash>
0.0005

> <Gold.PLP.ligand.torsion>
1.0557

> <Gold.PLP.Chemscore.Hbond>
3.9840

> <Gold.PLP.Chemscore.CHOScore>
0.0000

> <Gold.PLP.Chemscore.Metal>
0.0000

> <Gold.Chemscore.Hbonds>
donor molecule, donor type, donor heavy atom, donor atom, acceptor molecule, acceptor atom, score
      L1  H    11    41       P1  7948  2.00
      P1  H  7989  7998       L1     7  1.00
      P1  H  7997  8009       L1    18  0.67

> <Gold.PLP.Chemscore.Internal.Correction>
0.0611

> <Gold.Rescore>
     Score         DG    S(hbond)    S(metal)    S(lipo)     H(rot)  DE(clash)    DE(int)     intcor
     15.54     -16.73       2.56        0.00      56.64       1.54       0.05       1.14       ----

> <Gold.Chemscore.Fitness>
15.5410

> <Gold.Chemscore.DG>
-16.7285

> <Gold.Chemscore.ZeroCoef>
-5.4800

> <Gold.Chemscore.Hbond>
2.5647

> <Gold.Chemscore.Metal>
0.0000

> <Gold.Chemscore.Lipo>
56.6414

> <Gold.Chemscore.Internal_Hbond>
0.0000

> <Gold.Chemscore.DEClash>
0.0486

> <Gold.Chemscore.DEInternal>
1.1389

> <Gold.Chemscore.Rot>
1.5409

> <Gold.Chemscore.Internal.Correction>
   9.000000E+99

> <Gold.Chemscore.Hbonds>
donor molecule, donor type, donor heavy atom, donor atom, acceptor molecule, acceptor atom, score
      L1  H    11    41       P1  7948  0.96
      P1  H  7989  7998       L1     7  0.83
      P1  H  7997  8009       L1    18  0.02

> <Gold.Chemscore.Hbond.Weighted>
-8.5661

> <Gold.Chemscore.Metal.Weighted>
-0.0000

> <Gold.Chemscore.Lipo.Weighted>
-6.6270

> <Gold.Chemscore.Internal_Hbond.Weighted>
0.0000

> <Gold.Chemscore.DEClash.Weighted>
0.0486

> <Gold.Chemscore.DEInternal.Weighted>
1.1389

> <Gold.Chemscore.Rot.Weighted>
3.9446

> <Gold.Chemscore.Internal.Correction.Weighted>
   9.000000E+99

> <Gold.Protein.RotatedTorsions>
[ 6907 6896 6895 6894 ] final   44.91 input  -60.11 | X-H torsion
[ 7974 7965 7964 7962 ] final  -79.82 input  175.53 | X-H torsion
[ 8008 7997 7996 7995 ] final  173.90 input   59.86 | X-H torsion
[ 10167 10162 10161 10158 ] final  157.56 input  -65.29 | X-H torsion
[ 10718 10713 10712 10709 ] final    4.98 input   66.30 | X-H torsion
[ 10763 10752 10751 10750 ] final  164.86 input  -60.55 | X-H torsion
[ 11005 11000 10999 10996 ] final   38.82 input  -57.11 | X-H torsion

> <Gold.Protein.ActiveResidues>
 VAL166  LYS551  ARG553  GLY616  TRP617  ASP618  TYR619  PRO620  LYS621  CYS622 
 ASP623  PHE694  ASN695  SER759  ASP760  ASP761  ALA762  ILE779  LEU786  VAL792 
 PHE793  MET794  SER795  GLU796  ALA797  LYS798  CYS799  TRP800  GLU811  SER814 

> <Gold.Protein.RotatedAtoms>
  152.2382  134.8255  160.0463 H   0  0  0  0  0  0  0  0  0  0  0  0  # atno 6907 bound_to 6896
  151.8979  133.3526  159.3829 H   0  0  0  0  0  0  0  0  0  0  0  0  # atno 6908 bound_to 6896
  150.7045  134.4783  159.5502 H   0  0  0  0  0  0  0  0  0  0  0  0  # atno 6909 bound_to 6896
  145.5682  140.9470  143.1410 H   0  0  0  0  0  0  0  0  0  0  0  0  # atno 7974 bound_to 7965
  156.1028  140.1448  156.9444 H   0  0  0  0  0  0  0  0  0  0  0  0  # atno 8008 bound_to 7997
  154.4714  140.0908  156.7198 H   0  0  0  0  0  0  0  0  0  0  0  0  # atno 8009 bound_to 7997
  155.4730  140.3442  155.4331 H   0  0  0  0  0  0  0  0  0  0  0  0  # atno 8010 bound_to 7997
  139.4823  144.4906  151.8314 H   0  0  0  0  0  0  0  0  0  0  0  0  # atno 10167 bound_to 10162
  156.9006  130.5720  149.5648 H   0  0  0  0  0  0  0  0  0  0  0  0  # atno 10718 bound_to 10713
  154.3153  135.2756  155.2546 H   0  0  0  0  0  0  0  0  0  0  0  0  # atno 10763 bound_to 10752
  154.4923  135.5830  153.6472 H   0  0  0  0  0  0  0  0  0  0  0  0  # atno 10764 bound_to 10752
  152.9883  135.6137  154.3334 H   0  0  0  0  0  0  0  0  0  0  0  0  # atno 10765 bound_to 10752
  140.2089  134.3779  155.8059 H   0  0  0  0  0  0  0  0  0  0  0  0  # atno 11005 bound_to 11000
  144.7450  139.7344  143.7296 LP  0  0  0  0  0  0  0  0  0  0  0  0  # atno 17320 bound_to 7965
  146.1803  139.4992  142.9871 LP  0  0  0  0  0  0  0  0  0  0  0  0  # atno 17321 bound_to 7965
  140.4390  144.2013  150.5890 LP  0  0  0  0  0  0  0  0  0  0  0  0  # atno 17342 bound_to 10162
  140.4703  143.2415  151.9099 LP  0  0  0  0  0  0  0  0  0  0  0  0  # atno 17343 bound_to 10162
  156.0584  130.5641  150.9140 LP  0  0  0  0  0  0  0  0  0  0  0  0  # atno 17370 bound_to 10713
  157.6028  131.0940  150.8930 LP  0  0  0  0  0  0  0  0  0  0  0  0  # atno 17371 bound_to 10713
  141.2226  133.7132  156.8384 LP  0  0  0  0  0  0  0  0  0  0  0  0  # atno 17394 bound_to 11000
  140.1973  134.8923  157.3128 LP  0  0  0  0  0  0  0  0  0  0  0  0  # atno 17395 bound_to 11000

$$$$
