AV-unprocessed.smi:281|AV-procd|sdf|2114|dock4
  -GOLD-   2262021413D 1   1.00000     0.00000
 Structure written by MMmdl.
 55 59  0  0  0  0  0  0  0  0  1 V2000
  145.4261  141.7097  156.1846 C   0  0  0  0  0  0  0  0  0  0  0  0
  144.7925  140.3629  156.5464 C   0  0  1  0  0  0  0  0  0  0  0  0
  144.4658  139.5261  155.2996 C   0  0  0  0  0  0  0  0  0  0  0  0
  143.9561  138.2261  155.7066 N   0  0  0  0  0  0  0  0  0  0  0  0
  143.4710  137.4873  154.6876 C   0  0  0  0  0  0  0  0  0  0  0  0
  142.1597  137.1503  154.7409 N   0  0  0  0  0  0  0  0  0  0  0  0
  141.6192  136.4187  153.7617 C   0  0  0  0  0  0  0  0  0  0  0  0
  142.2021  135.9301  152.6646 N   0  0  0  0  0  0  0  0  0  0  0  0
  143.5233  136.2662  152.6112 C   0  0  0  0  0  0  0  0  0  0  0  0
  144.2329  137.0412  153.5708 C   0  0  0  0  0  0  0  0  0  0  0  0
  145.5571  137.1882  153.1760 N   0  0  0  0  0  0  0  0  0  0  0  0
  145.6265  136.5356  152.0482 C   0  0  0  0  0  0  0  0  0  0  0  0
  144.4539  135.9395  151.6398 N   0  0  0  0  0  0  0  0  0  0  0  0
  144.2468  135.1518  150.4336 C   0  0  0  0  0  0  0  0  0  0  0  0
  144.0470  133.6399  150.7027 C   0  0  1  0  0  0  0  0  0  0  0  0
  142.7669  133.4390  151.2737 O   0  0  0  0  0  0  0  0  0  0  0  0
  144.1605  132.7999  149.4283 C   0  0  0  0  0  0  0  0  0  0  0  0
  145.4872  132.0694  149.5962 C   0  0  0  0  0  0  0  0  0  0  0  0
  145.5341  131.8323  150.9915 O   0  0  0  0  0  0  0  0  0  0  0  0
  145.1170  133.0298  151.6309 C   0  0  0  0  0  0  0  0  0  0  0  0
  144.8821  137.5048  156.5691 C   0  0  0  0  0  0  0  0  0  0  0  0
  145.2696  138.3536  157.8024 C   0  0  1  0  0  0  0  0  0  0  0  0
  144.1397  138.4895  158.8326 C   0  0  0  0  0  0  0  0  0  0  0  0
  144.5732  137.5980  159.9882 C   0  0  0  0  0  0  0  0  0  0  0  0
  145.9808  137.7420  159.9726 O   0  0  0  0  0  0  0  0  0  0  0  0
  146.3863  137.6533  158.6149 C   0  0  2  0  0  0  0  0  0  0  0  0
  147.8028  138.2193  158.4395 C   0  0  0  0  0  0  0  0  0  0  0  0
  145.7153  139.6458  157.3680 O   0  0  0  0  0  0  0  0  0  0  0  0
  144.7574  142.3035  155.5607 H   0  0  0  0  0  0  0  0  0  0  0  0
  146.3602  141.5722  155.6394 H   0  0  0  0  0  0  0  0  0  0  0  0
  145.6461  142.2891  157.0816 H   0  0  0  0  0  0  0  0  0  0  0  0
  143.8746  140.5554  157.1029 H   0  0  0  0  0  0  0  0  0  0  0  0
  143.7250  140.0398  154.6854 H   0  0  0  0  0  0  0  0  0  0  0  0
  145.3611  139.3988  154.6898 H   0  0  0  0  0  0  0  0  0  0  0  0
  140.5692  136.1916  153.8732 H   0  0  0  0  0  0  0  0  0  0  0  0
  146.5440  136.4696  151.4819 H   0  0  0  0  0  0  0  0  0  0  0  0
  143.3831  135.5579  149.9049 H   0  0  0  0  0  0  0  0  0  0  0  0
  145.1042  135.3052  149.7770 H   0  0  0  0  0  0  0  0  0  0  0  0
  142.1316  133.9133  150.7594 H   0  0  0  0  0  0  0  0  0  0  0  0
  143.3573  132.0631  149.3716 H   0  0  0  0  0  0  0  0  0  0  0  0
  144.1254  133.3903  148.5120 H   0  0  0  0  0  0  0  0  0  0  0  0
  145.5341  131.1416  149.0256 H   0  0  0  0  0  0  0  0  0  0  0  0
  146.3250  132.7027  149.2998 H   0  0  0  0  0  0  0  0  0  0  0  0
  145.9900  133.6785  151.7046 H   0  0  0  0  0  0  0  0  0  0  0  0
  144.7616  132.8394  152.6444 H   0  0  0  0  0  0  0  0  0  0  0  0
  144.4361  136.5599  156.8835 H   0  0  0  0  0  0  0  0  0  0  0  0
  145.7818  137.2589  156.0035 H   0  0  0  0  0  0  0  0  0  0  0  0
  144.0814  139.5164  159.1953 H   0  0  0  0  0  0  0  0  0  0  0  0
  143.1570  138.2213  158.4437 H   0  0  0  0  0  0  0  0  0  0  0  0
  144.1450  137.9053  160.9427 H   0  0  0  0  0  0  0  0  0  0  0  0
  144.3031  136.5567  159.8052 H   0  0  0  0  0  0  0  0  0  0  0  0
  146.4050  136.5904  158.3660 H   0  0  0  0  0  0  0  0  0  0  0  0
  148.1133  138.1786  157.3953 H   0  0  0  0  0  0  0  0  0  0  0  0
  148.5232  137.6460  159.0232 H   0  0  0  0  0  0  0  0  0  0  0  0
  147.8630  139.2566  158.7698 H   0  0  0  0  0  0  0  0  0  0  0  0
  1  2  1  0  0  0  0
  1 29  1  0  0  0  0
  1 30  1  0  0  0  0
  1 31  1  0  0  0  0
  2 28  1  0  0  0  0
  2  3  1  0  0  0  0
  2 32  1  0  0  0  0
  3  4  1  0  0  0  0
  3 33  1  0  0  0  0
  3 34  1  0  0  0  0
  4  5  1  0  0  0  0
  4 21  1  0  0  0  0
  5 10  1  0  0  0  0
  5  6  2  0  0  0  0
  6  7  1  0  0  0  0
  7  8  2  0  0  0  0
  7 35  1  0  0  0  0
  8  9  1  0  0  0  0
  9 13  1  0  0  0  0
  9 10  2  0  0  0  0
 10 11  1  0  0  0  0
 11 12  2  0  0  0  0
 12 13  1  0  0  0  0
 12 36  1  0  0  0  0
 13 14  1  0  0  0  0
 14 15  1  0  0  0  0
 14 37  1  0  0  0  0
 14 38  1  0  0  0  0
 15 20  1  0  0  0  0
 15 16  1  0  0  0  0
 15 17  1  0  0  0  0
 16 39  1  0  0  0  0
 17 18  1  0  0  0  0
 17 40  1  0  0  0  0
 17 41  1  0  0  0  0
 18 19  1  0  0  0  0
 18 42  1  0  0  0  0
 18 43  1  0  0  0  0
 19 20  1  0  0  0  0
 20 44  1  0  0  0  0
 20 45  1  0  0  0  0
 21 22  1  0  0  0  0
 21 46  1  0  0  0  0
 21 47  1  0  0  0  0
 22 26  1  0  0  0  0
 22 23  1  0  0  0  0
 22 28  1  0  0  0  0
 23 24  1  0  0  0  0
 23 48  1  0  0  0  0
 23 49  1  0  0  0  0
 24 25  1  0  0  0  0
 24 50  1  0  0  0  0
 24 51  1  0  0  0  0
 25 26  1  0  0  0  0
 26 27  1  0  0  0  0
 26 52  1  0  0  0  0
 27 53  1  0  0  0  0
 27 54  1  0  0  0  0
 27 55  1  0  0  0  0
M  END
> <s_m_source_file>
AV-unprocessed.smi

> <i_m_source_file_index>
281

> <i_lp_mmshare_version>
43012

> <i_f3d_flags>
0

> <s_epik_input>
W0NIM11bQ0BASF0xT1tDSDJdW0NIMl1bQ0BAXTEyW0NIMl1OKFtDSDJdW0NASF0oTzIpW0NIM10pYyhuW2NIXW4zKWMoYzM0KW5bY0hdbjRbQ0gyXVtDQEBdNShbT0hdKVtDSDJdW0NIMl1PW0NIMl01

> <s_epik_cmdline>
J2VwaWtfcHl0aG9uJywgJy1waCcsICc3LjAnLCAnLXRuJywgJzgnLCAnLW1hJywgJzIwMCcsICctbWV0YWxfYmluZGluZycsICctaW1hZScsICc8aW5maWxlLm1hZT4nLCAnLW9tYWUnLCAnPG91dGZpbGUubWFlPic=

> <r_lp_tautomer_probability>
1

> <r_epik_Ionization_Penalty>
0.00571331

> <r_epik_Ionization_Penalty_Charging>
0

> <r_epik_Ionization_Penalty_Neutral>
0.00571331

> <r_epik_State_Penalty>
0.00399586

> <r_epik_Charging_Adjusted_Penalty>
0.00399586

> <i_epik_Tot_Q>
0

> <i_epik_Tot_abs_Q>
0

> <r_epik_Metal_State_Penalty>
-0

> <b_epik_Metal_Only>
0

> <s_lp_Force_Field>
OPLS_2005

> <r_lp_Energy>
55.7735

> <b_lp_Chiralities_Consistent>
1

> <s_lp_Variant>
AV-unprocessed.smi:281-14

> <Gold.Version>
5.8.1

> <Gold.Id.Protein>
6NUR|6NUR_protein|mol2

> <Gold.PLP.Fitness>
38.3702

> <Gold.PLP.PLP>
-29.9672

> <Gold.PLP.part.hbond>
-2.0000

> <Gold.PLP.part.metal>
0.0000

> <Gold.PLP.part.buried>
-6.9844

> <Gold.PLP.part.nonpolar>
-22.2386

> <Gold.PLP.part.repulsive>
0.5466

> <Gold.PLP.ligand.clash>
0.0000

> <Gold.PLP.ligand.torsion>
0.3173

> <Gold.PLP.Chemscore.Hbond>
2.0000

> <Gold.PLP.Chemscore.CHOScore>
0.9704

> <Gold.PLP.Chemscore.Metal>
0.0000

> <Gold.Chemscore.Hbonds>
donor molecule, donor type, donor heavy atom, donor atom, acceptor molecule, acceptor atom, score
      L1  H    16    39       P1 10186  1.00
      P1  H  6934  6947       L1    25  1.00
      L1  C    12    36       P1  7948  1.00

> <Gold.PLP.Chemscore.Internal.Correction>
0.1264

> <Gold.Rescore>
     Score         DG    S(hbond)    S(metal)    S(lipo)     H(rot)  DE(clash)    DE(int)     intcor
     11.81     -12.20       1.88        0.00      49.57       2.09       0.00       0.40       ----

> <Gold.Chemscore.Fitness>
11.8055

> <Gold.Chemscore.DG>
-12.2037

> <Gold.Chemscore.ZeroCoef>
-5.4800

> <Gold.Chemscore.Hbond>
1.8807

> <Gold.Chemscore.Metal>
0.0000

> <Gold.Chemscore.Lipo>
49.5673

> <Gold.Chemscore.Internal_Hbond>
0.0000

> <Gold.Chemscore.DEClash>
0.0004

> <Gold.Chemscore.DEInternal>
0.3978

> <Gold.Chemscore.Rot>
2.0927

> <Gold.Chemscore.Internal.Correction>
   9.000000E+99

> <Gold.Chemscore.Hbonds>
donor molecule, donor type, donor heavy atom, donor atom, acceptor molecule, acceptor atom, score
      L1  H    16    39       P1 10186  0.55
      P1  H  6934  6947       L1    25  0.65

> <Gold.Chemscore.Hbond.Weighted>
-6.2816

> <Gold.Chemscore.Metal.Weighted>
-0.0000

> <Gold.Chemscore.Lipo.Weighted>
-5.7994

> <Gold.Chemscore.Internal_Hbond.Weighted>
0.0000

> <Gold.Chemscore.DEClash.Weighted>
0.0004

> <Gold.Chemscore.DEInternal.Weighted>
0.3978

> <Gold.Chemscore.Rot.Weighted>
5.3573

> <Gold.Chemscore.Internal.Correction.Weighted>
   9.000000E+99

> <Gold.Protein.RotatedTorsions>
[ 6907 6896 6895 6894 ] final   95.41 input  -60.11 | X-H torsion
[ 7974 7965 7964 7962 ] final  -41.08 input  175.53 | X-H torsion
[ 8008 7997 7996 7995 ] final   93.43 input   59.86 | X-H torsion
[ 10167 10162 10161 10158 ] final   65.98 input  -65.29 | X-H torsion
[ 10718 10713 10712 10709 ] final  -87.75 input   66.30 | X-H torsion
[ 10763 10752 10751 10750 ] final -145.30 input  -60.55 | X-H torsion
[ 11005 11000 10999 10996 ] final  106.41 input  -57.11 | X-H torsion

> <Gold.Protein.ActiveResidues>
 VAL166  LYS551  ARG553  GLY616  TRP617  ASP618  TYR619  PRO620  LYS621  CYS622 
 ASP623  PHE694  ASN695  SER759  ASP760  ASP761  ALA762  ILE779  LEU786  VAL792 
 PHE793  MET794  SER795  GLU796  ALA797  LYS798  CYS799  TRP800  GLU811  SER814 

> <Gold.Protein.RotatedAtoms>
  152.5444  134.1044  159.8331 H   0  0  0  0  0  0  0  0  0  0  0  0  # atno 6907 bound_to 6896
  151.1118  133.5160  159.2613 H   0  0  0  0  0  0  0  0  0  0  0  0  # atno 6908 bound_to 6896
  151.1876  135.0398  159.8873 H   0  0  0  0  0  0  0  0  0  0  0  0  # atno 6909 bound_to 6896
  146.0245  140.6809  142.9162 H   0  0  0  0  0  0  0  0  0  0  0  0  # atno 7974 bound_to 7965
  156.0466  140.3313  155.7303 H   0  0  0  0  0  0  0  0  0  0  0  0  # atno 8008 bound_to 7997
  155.5664  140.0624  157.2834 H   0  0  0  0  0  0  0  0  0  0  0  0  # atno 8009 bound_to 7997
  154.4417  140.1868  156.0823 H   0  0  0  0  0  0  0  0  0  0  0  0  # atno 8010 bound_to 7997
  140.1053  144.4867  150.7011 H   0  0  0  0  0  0  0  0  0  0  0  0  # atno 10167 bound_to 10162
  155.9984  130.4811  150.4915 H   0  0  0  0  0  0  0  0  0  0  0  0  # atno 10718 bound_to 10713
  154.8389  135.3417  154.6482 H   0  0  0  0  0  0  0  0  0  0  0  0  # atno 10763 bound_to 10752
  153.7095  135.6965  153.5046 H   0  0  0  0  0  0  0  0  0  0  0  0  # atno 10764 bound_to 10752
  153.2462  135.4368  155.0704 H   0  0  0  0  0  0  0  0  0  0  0  0  # atno 10765 bound_to 10752
  139.8814  134.9368  156.5663 H   0  0  0  0  0  0  0  0  0  0  0  0  # atno 11005 bound_to 11000
  144.7003  140.3624  143.7161 LP  0  0  0  0  0  0  0  0  0  0  0  0  # atno 17320 bound_to 7965
  145.7141  139.1692  143.2522 LP  0  0  0  0  0  0  0  0  0  0  0  0  # atno 17321 bound_to 7965
  140.6955  143.2401  151.5012 LP  0  0  0  0  0  0  0  0  0  0  0  0  # atno 17342 bound_to 10162
  139.5648  144.2068  152.1748 LP  0  0  0  0  0  0  0  0  0  0  0  0  # atno 17343 bound_to 10162
  157.2909  131.0626  151.2134 LP  0  0  0  0  0  0  0  0  0  0  0  0  # atno 17370 bound_to 10713
  157.3147  130.6907  149.6235 LP  0  0  0  0  0  0  0  0  0  0  0  0  # atno 17371 bound_to 10713
  140.8132  133.8412  155.8828 LP  0  0  0  0  0  0  0  0  0  0  0  0  # atno 17394 bound_to 11000
  140.9487  134.1807  157.4744 LP  0  0  0  0  0  0  0  0  0  0  0  0  # atno 17395 bound_to 11000

$$$$
