AV-unprocessed.smi:3160|AV-procd|sdf|12052|dock4
  -GOLD-   2272017483D 1   1.00000     0.00000
 Structure written by MMmdl.
 40 41  0  0  0  0  0  0  0  0  2 V2000
  149.8552  136.1240  155.5149 C   0  0  0  0  0  0  0  0  0  0  0  0
  150.1889  137.5460  155.1660 C   0  0  0  0  0  0  0  0  0  0  0  0
  151.0961  138.0126  154.1734 C   0  0  0  0  0  0  0  0  0  0  0  0
  151.1595  139.3325  154.1164 N   0  0  0  0  0  0  0  0  0  0  0  0
  150.2992  139.7573  155.0683 N   0  0  0  0  0  0  0  0  0  0  0  0
  150.0942  141.1844  155.2914 C   0  0  1  0  0  0  0  0  0  0  0  0
  148.6646  141.5780  154.8729 C   0  0  0  0  0  0  0  0  0  0  0  0
  150.4381  141.5824  156.7520 C   0  0  2  0  0  0  0  0  0  0  0  0
  149.2655  141.3681  157.7238 C   0  0  0  0  0  0  0  0  0  0  0  0
  150.8507  143.0052  156.8094 N   0  3  0  0  0  0  0  0  0  0  0  0
  151.2893  143.4867  158.1368 C   0  0  0  0  0  0  0  0  0  0  0  0
  150.1465  144.0402  158.9918 C   0  0  0  0  0  0  0  0  0  0  0  0
  150.8336  144.9512  160.0162 C   0  0  0  0  0  0  0  0  0  0  0  0
  152.1958  145.3311  159.4119 C   0  0  0  0  0  0  0  0  0  0  0  0
  152.2494  144.6702  158.0308 C   0  0  0  0  0  0  0  0  0  0  0  0
  149.7035  138.6968  155.7195 C   0  0  0  0  0  0  0  0  0  0  0  0
  150.3784  135.4149  154.8730 H   0  0  0  0  0  0  0  0  0  0  0  0
  148.7886  135.9238  155.4109 H   0  0  0  0  0  0  0  0  0  0  0  0
  150.1296  135.8876  156.5432 H   0  0  0  0  0  0  0  0  0  0  0  0
  151.7058  137.4342  153.4949 H   0  0  0  0  0  0  0  0  0  0  0  0
  150.7823  141.7086  154.6261 H   0  0  0  0  0  0  0  0  0  0  0  0
  148.5336  142.6595  154.8556 H   0  0  0  0  0  0  0  0  0  0  0  0
  147.9190  141.1621  155.5514 H   0  0  0  0  0  0  0  0  0  0  0  0
  148.4379  141.2155  153.8699 H   0  0  0  0  0  0  0  0  0  0  0  0
  151.2630  140.9548  157.0932 H   0  0  0  0  0  0  0  0  0  0  0  0
  148.9967  140.3154  157.8054 H   0  0  0  0  0  0  0  0  0  0  0  0
  148.3785  141.9173  157.4061 H   0  0  0  0  0  0  0  0  0  0  0  0
  149.5231  141.7060  158.7281 H   0  0  0  0  0  0  0  0  0  0  0  0
  151.6267  143.1195  156.1731 H   0  0  0  0  0  0  0  0  0  0  0  0
  151.7921  142.6797  158.6724 H   0  0  0  0  0  0  0  0  0  0  0  0
  149.4721  144.6354  158.3741 H   0  0  0  0  0  0  0  0  0  0  0  0
  149.5552  143.2559  159.4656 H   0  0  0  0  0  0  0  0  0  0  0  0
  150.2256  145.8303  160.2331 H   0  0  0  0  0  0  0  0  0  0  0  0
  150.9820  144.4187  160.9567 H   0  0  0  0  0  0  0  0  0  0  0  0
  152.3281  146.4113  159.3433 H   0  0  0  0  0  0  0  0  0  0  0  0
  152.9977  144.9446  160.0422 H   0  0  0  0  0  0  0  0  0  0  0  0
  153.2592  144.3688  157.7497 H   0  0  0  0  0  0  0  0  0  0  0  0
  151.8922  145.3760  157.2790 H   0  0  0  0  0  0  0  0  0  0  0  0
  148.9865  138.8459  156.5135 H   0  0  0  0  0  0  0  0  0  0  0  0
  150.0873  143.5828  156.4878 H   0  0  0  0  0  0  0  0  0  0  0  0
  1  2  1  0  0  0  0
  1 17  1  0  0  0  0
  1 18  1  0  0  0  0
  1 19  1  0  0  0  0
  2 16  2  0  0  0  0
  2  3  1  0  0  0  0
  3  4  2  0  0  0  0
  3 20  1  0  0  0  0
  4  5  1  0  0  0  0
  5  6  1  0  0  0  0
  5 16  1  0  0  0  0
  6  7  1  0  0  0  0
  6  8  1  0  0  0  0
  6 21  1  0  0  0  0
  7 22  1  0  0  0  0
  7 23  1  0  0  0  0
  7 24  1  0  0  0  0
  8  9  1  0  0  0  0
  8 10  1  0  0  0  0
  8 25  1  0  0  0  0
  9 26  1  0  0  0  0
  9 27  1  0  0  0  0
  9 28  1  0  0  0  0
 10 11  1  0  0  0  0
 10 29  1  0  0  0  0
 10 40  1  0  0  0  0
 11 15  1  0  0  0  0
 11 12  1  0  0  0  0
 11 30  1  0  0  0  0
 12 13  1  0  0  0  0
 12 31  1  0  0  0  0
 12 32  1  0  0  0  0
 13 14  1  0  0  0  0
 13 33  1  0  0  0  0
 13 34  1  0  0  0  0
 14 15  1  0  0  0  0
 14 35  1  0  0  0  0
 14 36  1  0  0  0  0
 15 37  1  0  0  0  0
 15 38  1  0  0  0  0
 16 39  1  0  0  0  0
M  CHG  1  10   1
M  END
> <s_m_source_file>
AV-unprocessed.smi

> <i_m_source_file_index>
3160

> <i_lp_mmshare_version>
43012

> <i_f3d_flags>
0

> <s_epik_input>
W0NIM11jMVtjSF1ubihbY0hdMSlbQ0BIXShbQ0gzXSlbQ0BIXShbQ0gzXSlbTkhdW0NIXTJbQ0gyXVtDSDJdW0NIMl1bQ0gyXTI=

> <s_epik_cmdline>
J2VwaWtfcHl0aG9uJywgJy1waCcsICc3LjAnLCAnLXRuJywgJzgnLCAnLW1hJywgJzIwMCcsICctbWV0YWxfYmluZGluZycsICctaW1hZScsICc8aW5maWxlLm1hZT4nLCAnLW9tYWUnLCAnPG91dGZpbGUubWFlPic=

> <r_lp_tautomer_probability>
1

> <r_epik_Ionization_Penalty>
0.00117636

> <r_epik_Ionization_Penalty_Charging>
0.00115264

> <r_epik_Ionization_Penalty_Neutral>
2.37123e-05

> <r_epik_State_Penalty>
-0

> <r_epik_Charging_Adjusted_Penalty>
0.00115264

> <i_epik_Tot_Q>
1

> <i_epik_Tot_abs_Q>
1

> <r_epik_Metal_State_Penalty>
-0

> <b_epik_Metal_Only>
0

> <s_lp_Force_Field>
OPLS_2005

> <r_lp_Energy>
30.6153

> <b_lp_Chiralities_Consistent>
1

> <s_lp_Variant>
AV-unprocessed.smi:3160-2

> <Gold.Version>
5.8.1

> <Gold.Id.Protein>
6NUR|6NUR_protein|mol2

> <Gold.PLP.Fitness>
45.8677

> <Gold.PLP.PLP>
-35.5952

> <Gold.PLP.part.hbond>
-2.0000

> <Gold.PLP.part.metal>
0.0000

> <Gold.PLP.part.buried>
-3.1455

> <Gold.PLP.part.nonpolar>
-29.6470

> <Gold.PLP.part.repulsive>
0.2178

> <Gold.PLP.ligand.clash>
0.0000

> <Gold.PLP.ligand.torsion>
0.8967

> <Gold.PLP.Chemscore.Hbond>
3.0000

> <Gold.PLP.Chemscore.CHOScore>
0.9984

> <Gold.PLP.Chemscore.Metal>
0.0000

> <Gold.Chemscore.Hbonds>
donor molecule, donor type, donor heavy atom, donor atom, acceptor molecule, acceptor atom, score
      L1  H    10    40       P1  8028  2.00
      P1  H  7989  7998       L1     4  1.00
      L1  C     3    20       P1  7949  1.00

> <Gold.PLP.Chemscore.Internal.Correction>
0.0706

> <Gold.Rescore>
     Score         DG    S(hbond)    S(metal)    S(lipo)     H(rot)  DE(clash)    DE(int)     intcor
     17.89     -19.39       1.73        0.00      99.59       1.37       0.50       1.00       ----

> <Gold.Chemscore.Fitness>
17.8872

> <Gold.Chemscore.DG>
-19.3874

> <Gold.Chemscore.ZeroCoef>
-5.4800

> <Gold.Chemscore.Hbond>
1.7260

> <Gold.Chemscore.Metal>
0.0000

> <Gold.Chemscore.Lipo>
99.5903

> <Gold.Chemscore.Internal_Hbond>
0.0000

> <Gold.Chemscore.DEClash>
0.4990

> <Gold.Chemscore.DEInternal>
1.0012

> <Gold.Chemscore.Rot>
1.3709

> <Gold.Chemscore.Internal.Correction>
   9.000000E+99

> <Gold.Chemscore.Hbonds>
donor molecule, donor type, donor heavy atom, donor atom, acceptor molecule, acceptor atom, score
      L1  H    10    40       P1  8028  1.00
      P1  H  7989  7998       L1     4  0.25

> <Gold.Chemscore.Hbond.Weighted>
-5.7649

> <Gold.Chemscore.Metal.Weighted>
-0.0000

> <Gold.Chemscore.Lipo.Weighted>
-11.6521

> <Gold.Chemscore.Internal_Hbond.Weighted>
0.0000

> <Gold.Chemscore.DEClash.Weighted>
0.4990

> <Gold.Chemscore.DEInternal.Weighted>
1.0012

> <Gold.Chemscore.Rot.Weighted>
3.5095

> <Gold.Chemscore.Internal.Correction.Weighted>
   9.000000E+99

> <Gold.Protein.RotatedTorsions>
[ 6907 6896 6895 6894 ] final -155.85 input  -60.11 | X-H torsion
[ 7974 7965 7964 7962 ] final  153.36 input  175.53 | X-H torsion
[ 8008 7997 7996 7995 ] final   25.42 input   59.86 | X-H torsion
[ 10167 10162 10161 10158 ] final   60.45 input  -65.29 | X-H torsion
[ 10718 10713 10712 10709 ] final    0.42 input   66.30 | X-H torsion
[ 10763 10752 10751 10750 ] final   90.99 input  -60.55 | X-H torsion
[ 11005 11000 10999 10996 ] final  -44.78 input  -57.11 | X-H torsion

> <Gold.Protein.ActiveResidues>
 VAL166  LYS551  ARG553  GLY616  TRP617  ASP618  TYR619  PRO620  LYS621  CYS622 
 ASP623  PHE694  ASN695  SER759  ASP760  ASP761  ALA762  ILE779  LEU786  VAL792 
 PHE793  MET794  SER795  GLU796  ALA797  LYS798  CYS799  TRP800  GLU811  SER814 

> <Gold.Protein.RotatedAtoms>
  151.2787  133.4220  159.2625 H   0  0  0  0  0  0  0  0  0  0  0  0  # atno 6907 bound_to 6896
  151.0380  134.9587  159.8157 H   0  0  0  0  0  0  0  0  0  0  0  0  # atno 6908 bound_to 6896
  152.5359  134.2746  159.9037 H   0  0  0  0  0  0  0  0  0  0  0  0  # atno 6909 bound_to 6896
  144.8160  139.6790  143.6121 H   0  0  0  0  0  0  0  0  0  0  0  0  # atno 7974 bound_to 7965
  155.0115  140.3137  155.4828 H   0  0  0  0  0  0  0  0  0  0  0  0  # atno 8008 bound_to 7997
  156.2908  140.2214  156.5171 H   0  0  0  0  0  0  0  0  0  0  0  0  # atno 8009 bound_to 7997
  154.7530  140.0464  157.0898 H   0  0  0  0  0  0  0  0  0  0  0  0  # atno 8010 bound_to 7997
  140.1654  144.4329  150.6688 H   0  0  0  0  0  0  0  0  0  0  0  0  # atno 10167 bound_to 10162
  156.8331  130.5495  149.5685 H   0  0  0  0  0  0  0  0  0  0  0  0  # atno 10718 bound_to 10713
  153.2035  135.4414  155.0295 H   0  0  0  0  0  0  0  0  0  0  0  0  # atno 10763 bound_to 10752
  154.8160  135.3315  154.7176 H   0  0  0  0  0  0  0  0  0  0  0  0  # atno 10764 bound_to 10752
  153.7620  135.6991  153.4979 H   0  0  0  0  0  0  0  0  0  0  0  0  # atno 10765 bound_to 10752
  141.0473  133.6756  156.2920 H   0  0  0  0  0  0  0  0  0  0  0  0  # atno 11005 bound_to 11000
  146.2463  139.6105  142.9457 LP  0  0  0  0  0  0  0  0  0  0  0  0  # atno 17320 bound_to 7965
  145.5213  141.0431  143.2433 LP  0  0  0  0  0  0  0  0  0  0  0  0  # atno 17321 bound_to 7965
  140.6616  143.2254  151.5842 LP  0  0  0  0  0  0  0  0  0  0  0  0  # atno 17342 bound_to 10162
  139.5362  144.2775  152.1256 LP  0  0  0  0  0  0  0  0  0  0  0  0  # atno 17343 bound_to 10162
  156.0923  130.5905  150.9753 LP  0  0  0  0  0  0  0  0  0  0  0  0  # atno 17370 bound_to 10713
  157.6396  131.0912  150.8278 LP  0  0  0  0  0  0  0  0  0  0  0  0  # atno 17371 bound_to 10713
  140.6123  134.5446  157.5535 LP  0  0  0  0  0  0  0  0  0  0  0  0  # atno 17394 bound_to 11000
  139.9322  134.7943  156.0901 LP  0  0  0  0  0  0  0  0  0  0  0  0  # atno 17395 bound_to 11000

$$$$
