AV-unprocessed.smi:2135|AV-procd|sdf|8699|dock7
  -GOLD-   2272011453D 1   1.00000     0.00000
 Structure written by MMmdl.
 42 43  0  0  0  0  0  0  0  0  1 V2000
  151.8139  137.8495  154.2141 C   0  0  0  0  0  0  0  0  0  0  0  0
  151.2580  139.1750  155.3621 S   0  0  0  0  0  0  0  0  0  0  0  0
  152.3949  139.5470  156.2180 O   0  0  0  0  0  0  0  0  0  0  0  0
  150.5733  140.2078  154.5697 O   0  0  0  0  0  0  0  0  0  0  0  0
  150.0661  138.3995  156.3657 N   0  0  0  0  0  0  0  0  0  0  0  0
  148.9361  139.1808  156.9078 C   0  0  0  0  0  0  0  0  0  0  0  0
  147.6413  138.9313  156.1145 C   0  0  0  0  0  0  0  0  0  0  0  0
  147.3262  137.4338  156.0221 C   0  0  0  0  0  0  0  0  0  0  0  0
  148.5196  136.6886  155.3976 C   0  0  2  0  0  0  0  0  0  0  0  0
  148.2460  135.1821  155.2996 C   0  0  0  0  0  0  0  0  0  0  0  0
  147.9822  134.5311  156.3110 O   0  0  0  0  0  0  0  0  0  0  0  0
  148.3191  134.6387  154.0747 N   0  0  0  0  0  0  0  0  0  0  0  0
  148.1235  133.2261  153.7733 C   0  0  0  0  0  0  0  0  0  0  0  0
  148.1074  132.9697  152.2575 C   0  0  0  0  0  0  0  0  0  0  0  0
  146.7188  133.1190  151.6692 C   0  0  0  0  0  0  0  0  0  0  0  0
  146.0088  131.9982  151.1920 C   0  0  0  0  0  0  0  0  0  0  0  0
  144.7234  132.1903  150.6505 C   0  0  0  0  0  0  0  0  0  0  0  0
  144.2018  133.4989  150.6089 C   0  0  0  0  0  0  0  0  0  0  0  0
  144.8731  134.5794  151.0626 N   0  0  0  0  0  0  0  0  0  0  0  0
  146.1050  134.3864  151.5810 C   0  0  0  0  0  0  0  0  0  0  0  0
  149.8011  136.9539  156.2177 C   0  0  0  0  0  0  0  0  0  0  0  0
  152.5592  138.2595  153.5330 H   0  0  0  0  0  0  0  0  0  0  0  0
  150.9690  137.4837  153.6334 H   0  0  0  0  0  0  0  0  0  0  0  0
  152.2629  137.0336  154.7771 H   0  0  0  0  0  0  0  0  0  0  0  0
  148.7865  138.8909  157.9484 H   0  0  0  0  0  0  0  0  0  0  0  0
  149.1776  140.2434  156.9163 H   0  0  0  0  0  0  0  0  0  0  0  0
  146.8121  139.4540  156.5918 H   0  0  0  0  0  0  0  0  0  0  0  0
  147.7273  139.3497  155.1126 H   0  0  0  0  0  0  0  0  0  0  0  0
  147.1108  137.0459  157.0190 H   0  0  0  0  0  0  0  0  0  0  0  0
  146.4261  137.2815  155.4250 H   0  0  0  0  0  0  0  0  0  0  0  0
  148.6636  137.0704  154.3869 H   0  0  0  0  0  0  0  0  0  0  0  0
  148.5399  135.2447  153.2978 H   0  0  0  0  0  0  0  0  0  0  0  0
  148.8997  132.6301  154.2565 H   0  0  0  0  0  0  0  0  0  0  0  0
  147.1747  132.9161  154.2123 H   0  0  0  0  0  0  0  0  0  0  0  0
  148.7863  133.6589  151.7534 H   0  0  0  0  0  0  0  0  0  0  0  0
  148.4714  131.9651  152.0381 H   0  0  0  0  0  0  0  0  0  0  0  0
  146.4401  131.0089  151.2375 H   0  0  0  0  0  0  0  0  0  0  0  0
  144.1508  131.3550  150.2754 H   0  0  0  0  0  0  0  0  0  0  0  0
  143.2196  133.6827  150.1991 H   0  0  0  0  0  0  0  0  0  0  0  0
  146.6171  135.2701  151.9327 H   0  0  0  0  0  0  0  0  0  0  0  0
  150.6580  136.4616  155.7576 H   0  0  0  0  0  0  0  0  0  0  0  0
  149.7035  136.5241  157.2158 H   0  0  0  0  0  0  0  0  0  0  0  0
  1  2  1  0  0  0  0
  1 22  1  0  0  0  0
  1 23  1  0  0  0  0
  1 24  1  0  0  0  0
  2  3  2  0  0  0  0
  2  4  2  0  0  0  0
  2  5  1  0  0  0  0
  5 21  1  0  0  0  0
  5  6  1  0  0  0  0
  6  7  1  0  0  0  0
  6 25  1  0  0  0  0
  6 26  1  0  0  0  0
  7  8  1  0  0  0  0
  7 27  1  0  0  0  0
  7 28  1  0  0  0  0
  8  9  1  0  0  0  0
  8 29  1  0  0  0  0
  8 30  1  0  0  0  0
  9 10  1  0  0  0  0
  9 21  1  0  0  0  0
  9 31  1  0  0  0  0
 10 11  2  0  0  0  0
 10 12  1  0  0  0  0
 12 13  1  0  0  0  0
 12 32  1  0  0  0  0
 13 14  1  0  0  0  0
 13 33  1  0  0  0  0
 13 34  1  0  0  0  0
 14 15  1  0  0  0  0
 14 35  1  0  0  0  0
 14 36  1  0  0  0  0
 15 20  1  0  0  0  0
 15 16  2  0  0  0  0
 16 17  1  0  0  0  0
 16 37  1  0  0  0  0
 17 18  2  0  0  0  0
 17 38  1  0  0  0  0
 18 19  1  0  0  0  0
 18 39  1  0  0  0  0
 19 20  2  0  0  0  0
 20 40  1  0  0  0  0
 21 41  1  0  0  0  0
 21 42  1  0  0  0  0
M  END
> <s_m_source_file>
AV-unprocessed.smi

> <i_m_source_file_index>
2135

> <i_lp_mmshare_version>
43012

> <i_f3d_flags>
0

> <s_epik_input>
W0NIM11TKD1PKSg9TylOMVtDSDJdW0NIMl1bQ0gyXVtDQEhdKFtDSDJdMSlDKD1PKVtOSF1bQ0gyXVtDSDJdYzJbY0hdW2NIXVtjSF1uW2NIXTI=

> <s_epik_cmdline>
J2VwaWtfcHl0aG9uJywgJy1waCcsICc3LjAnLCAnLXRuJywgJzgnLCAnLW1hJywgJzIwMCcsICctbWV0YWxfYmluZGluZycsICctaW1hZScsICc8aW5maWxlLm1hZT4nLCAnLW9tYWUnLCAnPG91dGZpbGUubWFlPic=

> <r_epik_Ionization_Penalty>
0.0134582

> <r_epik_Ionization_Penalty_Charging>
0

> <r_epik_Ionization_Penalty_Neutral>
0.0134582

> <r_epik_State_Penalty>
0.010475

> <r_epik_Charging_Adjusted_Penalty>
0.010475

> <i_epik_Tot_Q>
0

> <i_epik_Tot_abs_Q>
0

> <r_epik_Metal_State_Penalty>
0.0102416

> <b_epik_Metal_Only>
0

> <s_lp_Force_Field>
OPLS_2005

> <r_lp_Energy>
-1.59051

> <b_lp_Chiralities_Consistent>
1

> <s_lp_Variant>
AV-unprocessed.smi:2135-2

> <Gold.Version>
5.8.1

> <Gold.Id.Protein>
6NUR|6NUR_protein|mol2

> <Gold.PLP.Fitness>
42.4173

> <Gold.PLP.PLP>
-28.3669

> <Gold.PLP.part.hbond>
-2.9431

> <Gold.PLP.part.metal>
0.0000

> <Gold.PLP.part.buried>
-4.7294

> <Gold.PLP.part.nonpolar>
-21.4629

> <Gold.PLP.part.repulsive>
0.2814

> <Gold.PLP.ligand.clash>
0.0000

> <Gold.PLP.ligand.torsion>
1.5170

> <Gold.PLP.Chemscore.Hbond>
3.0000

> <Gold.PLP.Chemscore.CHOScore>
2.0000

> <Gold.PLP.Chemscore.Metal>
0.0000

> <Gold.Chemscore.Hbonds>
donor molecule, donor type, donor heavy atom, donor atom, acceptor molecule, acceptor atom, score
      L1  H    12    32       P1  7948  1.00
      P1  H  7989  7998       L1     4  1.00
      P1  H  7997  8008       L1     3  0.88
      L1  C    18    39       P1 10186  1.00
      L1  C    20    40       P1  7948  1.00

> <Gold.PLP.Chemscore.Internal.Correction>
2.0843

> <Gold.Rescore>
     Score         DG    S(hbond)    S(metal)    S(lipo)     H(rot)  DE(clash)    DE(int)     intcor
     17.28     -18.74       2.95        0.00      63.32       1.56       0.04       1.43       ----

> <Gold.Chemscore.Fitness>
17.2789

> <Gold.Chemscore.DG>
-18.7449

> <Gold.Chemscore.ZeroCoef>
-5.4800

> <Gold.Chemscore.Hbond>
2.9525

> <Gold.Chemscore.Metal>
0.0000

> <Gold.Chemscore.Lipo>
63.3164

> <Gold.Chemscore.Internal_Hbond>
0.0000

> <Gold.Chemscore.DEClash>
0.0376

> <Gold.Chemscore.DEInternal>
1.4284

> <Gold.Chemscore.Rot>
1.5643

> <Gold.Chemscore.Internal.Correction>
   9.000000E+99

> <Gold.Chemscore.Hbonds>
donor molecule, donor type, donor heavy atom, donor atom, acceptor molecule, acceptor atom, score
      L1  H    12    32       P1  7948  0.91
      P1  H  7989  7998       L1     4  0.74
      P1  H  7997  8008       L1     3  0.85

> <Gold.Chemscore.Hbond.Weighted>
-9.8615

> <Gold.Chemscore.Metal.Weighted>
-0.0000

> <Gold.Chemscore.Lipo.Weighted>
-7.4080

> <Gold.Chemscore.Internal_Hbond.Weighted>
0.0000

> <Gold.Chemscore.DEClash.Weighted>
0.0376

> <Gold.Chemscore.DEInternal.Weighted>
1.4284

> <Gold.Chemscore.Rot.Weighted>
4.0046

> <Gold.Chemscore.Internal.Correction.Weighted>
   9.000000E+99

> <Gold.Protein.RotatedTorsions>
[ 6907 6896 6895 6894 ] final    5.49 input  -60.11 | X-H torsion
[ 7974 7965 7964 7962 ] final   26.00 input  175.53 | X-H torsion
[ 8008 7997 7996 7995 ] final  -58.80 input   59.86 | X-H torsion
[ 10167 10162 10161 10158 ] final   47.53 input  -65.29 | X-H torsion
[ 10718 10713 10712 10709 ] final  143.77 input   66.30 | X-H torsion
[ 10763 10752 10751 10750 ] final   71.43 input  -60.55 | X-H torsion
[ 11005 11000 10999 10996 ] final  131.51 input  -57.11 | X-H torsion

> <Gold.Protein.ActiveResidues>
 VAL166  LYS551  ARG553  GLY616  TRP617  ASP618  TYR619  PRO620  LYS621  CYS622 
 ASP623  PHE694  ASN695  SER759  ASP760  ASP761  ALA762  ILE779  LEU786  VAL792 
 PHE793  MET794  SER795  GLU796  ALA797  LYS798  CYS799  TRP800  GLU811  SER814 

> <Gold.Protein.RotatedAtoms>
  151.6584  135.0992  160.0174 H   0  0  0  0  0  0  0  0  0  0  0  0  # atno 6907 bound_to 6896
  152.3961  133.6744  159.6286 H   0  0  0  0  0  0  0  0  0  0  0  0  # atno 6908 bound_to 6896
  150.7868  133.8789  159.3321 H   0  0  0  0  0  0  0  0  0  0  0  0  # atno 6909 bound_to 6896
  146.1860  139.7388  142.8866 H   0  0  0  0  0  0  0  0  0  0  0  0  # atno 7974 bound_to 7965
  154.4324  140.1076  156.6014 H   0  0  0  0  0  0  0  0  0  0  0  0  # atno 8008 bound_to 7997
  155.5907  140.3492  155.4547 H   0  0  0  0  0  0  0  0  0  0  0  0  # atno 8009 bound_to 7997
  156.0249  140.1247  157.0309 H   0  0  0  0  0  0  0  0  0  0  0  0  # atno 8010 bound_to 7997
  140.3026  144.2915  150.6216 H   0  0  0  0  0  0  0  0  0  0  0  0  # atno 10167 bound_to 10162
  157.3651  131.0971  151.0880 H   0  0  0  0  0  0  0  0  0  0  0  0  # atno 10718 bound_to 10713
  153.0399  135.5137  154.7592 H   0  0  0  0  0  0  0  0  0  0  0  0  # atno 10763 bound_to 10752
  154.6538  135.2929  154.9955 H   0  0  0  0  0  0  0  0  0  0  0  0  # atno 10764 bound_to 10752
  154.0830  135.6661  153.4893 H   0  0  0  0  0  0  0  0  0  0  0  0  # atno 10765 bound_to 10752
  139.9735  134.9570  156.9449 H   0  0  0  0  0  0  0  0  0  0  0  0  # atno 11005 bound_to 11000
  145.3937  141.0376  143.3109 LP  0  0  0  0  0  0  0  0  0  0  0  0  # atno 17320 bound_to 7965
  144.8398  139.5490  143.6905 LP  0  0  0  0  0  0  0  0  0  0  0  0  # atno 17321 bound_to 7965
  140.5637  143.2189  151.7720 LP  0  0  0  0  0  0  0  0  0  0  0  0  # atno 17342 bound_to 10162
  139.4911  144.4313  151.9869 LP  0  0  0  0  0  0  0  0  0  0  0  0  # atno 17343 bound_to 10162
  157.2005  130.6392  149.5737 LP  0  0  0  0  0  0  0  0  0  0  0  0  # atno 17370 bound_to 10713
  155.9744  130.4692  150.6388 LP  0  0  0  0  0  0  0  0  0  0  0  0  # atno 17371 bound_to 10713
  140.5244  134.0875  155.7300 LP  0  0  0  0  0  0  0  0  0  0  0  0  # atno 17394 bound_to 11000
  141.1413  133.9133  157.2319 LP  0  0  0  0  0  0  0  0  0  0  0  0  # atno 17395 bound_to 11000

$$$$
