AV-unprocessed.smi:21|AV-procd|sdf|122|dock3
  -GOLD-   2262015293D 1   1.00000     0.00000
 Structure written by MMmdl.
 62 65  0  0  0  0  0  0  0  0  2 V2000
  147.2118  132.0665  150.4292 C   0  0  0  0  0  0  0  0  0  0  0  0
  148.3443  131.8430  151.2534 O   0  0  0  0  0  0  0  0  0  0  0  0
  148.8908  133.0330  151.8022 C   0  0  2  0  0  0  0  0  0  0  0  0
  150.0013  132.7008  152.7935 C   0  0  0  0  0  0  0  0  0  0  0  0
  150.0363  133.8922  153.7694 C   0  0  1  0  0  0  0  0  0  0  0  0
  151.2145  134.8619  153.5235 C   0  0  0  0  0  0  0  0  0  0  0  0
  151.8266  135.3673  154.7534 N   0  0  0  0  0  0  0  0  0  0  0  0
  152.1177  134.4267  155.8334 C   0  0  0  0  0  0  0  0  0  0  0  0
  151.7936  136.7017  155.0339 C   0  0  0  0  0  0  0  0  0  0  0  0
  151.5709  137.5744  154.0143 N   0  0  0  0  0  0  0  0  0  0  0  0
  151.5687  138.8926  154.2283 C   0  0  0  0  0  0  0  0  0  0  0  0
  151.7671  139.5508  155.3701 N   0  0  0  0  0  0  0  0  0  0  0  0
  151.9760  138.6885  156.4042 C   0  0  0  0  0  0  0  0  0  0  0  0
  151.9975  137.2653  156.3311 C   0  0  0  0  0  0  0  0  0  0  0  0
  152.2230  136.7426  157.6012 N   0  0  0  0  0  0  0  0  0  0  0  0
  152.3404  137.7887  158.3711 C   0  0  0  0  0  0  0  0  0  0  0  0
  152.2217  138.9986  157.7293 N   0  0  0  0  0  0  0  0  0  0  0  0
  152.3275  140.3174  158.3255 C   0  0  0  0  0  0  0  0  0  0  0  0
  150.9783  141.0822  158.3905 C   0  0  2  0  0  0  0  0  0  0  0  0
  150.4750  141.5111  156.9876 C   0  0  0  0  0  0  0  0  0  0  0  0
  149.0668  141.6199  156.9316 O   0  0  0  0  0  0  0  0  0  0  0  0
  151.0955  142.3062  159.3371 C   0  0  2  0  0  0  0  0  0  0  0  0
  149.8250  143.1290  159.4809 C   0  0  0  0  0  0  0  0  0  0  0  0
  150.3515  144.4463  160.0363 C   0  0  0  0  0  0  0  0  0  0  0  0
  151.6325  144.6199  159.4449 O   0  0  0  0  0  0  0  0  0  0  0  0
  152.0734  143.3935  158.8699 C   0  0  0  0  0  0  0  0  0  0  0  0
  148.7487  134.6069  153.5857 N   0  3  2  0  0  0  0  0  0  0  0  0
  148.0737  134.9928  154.8436 C   0  0  0  0  0  0  0  0  0  0  0  0
  147.9053  133.8096  152.6731 C   0  0  0  0  0  0  0  0  0  0  0  0
  149.2941  133.6770  151.0182 H   0  0  0  0  0  0  0  0  0  0  0  0
  150.0837  133.4995  154.7863 H   0  0  0  0  0  0  0  0  0  0  0  0
  146.8666  131.1167  150.0208 H   0  0  0  0  0  0  0  0  0  0  0  0
  147.4554  132.7223  149.5926 H   0  0  0  0  0  0  0  0  0  0  0  0
  146.3873  132.5063  150.9909 H   0  0  0  0  0  0  0  0  0  0  0  0
  149.7370  131.7978  153.3460 H   0  0  0  0  0  0  0  0  0  0  0  0
  150.9502  132.5050  152.2962 H   0  0  0  0  0  0  0  0  0  0  0  0
  151.9743  134.3534  152.9289 H   0  0  0  0  0  0  0  0  0  0  0  0
  150.8999  135.7024  152.9073 H   0  0  0  0  0  0  0  0  0  0  0  0
  153.0530  134.6904  156.3286 H   0  0  0  0  0  0  0  0  0  0  0  0
  152.2222  133.4100  155.4543 H   0  0  0  0  0  0  0  0  0  0  0  0
  151.3214  134.4280  156.5784 H   0  0  0  0  0  0  0  0  0  0  0  0
  151.3880  139.5076  153.3590 H   0  0  0  0  0  0  0  0  0  0  0  0
  152.5322  137.7068  159.4311 H   0  0  0  0  0  0  0  0  0  0  0  0
  152.7448  140.1815  159.3230 H   0  0  0  0  0  0  0  0  0  0  0  0
  153.0608  140.8954  157.7616 H   0  0  0  0  0  0  0  0  0  0  0  0
  150.2314  140.4146  158.8236 H   0  0  0  0  0  0  0  0  0  0  0  0
  150.8628  142.4905  156.7117 H   0  0  0  0  0  0  0  0  0  0  0  0
  150.8190  140.8138  156.2229 H   0  0  0  0  0  0  0  0  0  0  0  0
  148.8472  142.4725  156.5880 H   0  0  0  0  0  0  0  0  0  0  0  0
  151.3996  141.9691  160.3297 H   0  0  0  0  0  0  0  0  0  0  0  0
  149.3628  143.2918  158.5059 H   0  0  0  0  0  0  0  0  0  0  0  0
  149.0847  142.6732  160.1390 H   0  0  0  0  0  0  0  0  0  0  0  0
  149.6923  145.2868  159.8182 H   0  0  0  0  0  0  0  0  0  0  0  0
  150.4731  144.3814  161.1182 H   0  0  0  0  0  0  0  0  0  0  0  0
  153.1021  143.1828  159.1630 H   0  0  0  0  0  0  0  0  0  0  0  0
  152.0476  143.4988  157.7845 H   0  0  0  0  0  0  0  0  0  0  0  0
  147.8174  134.1157  155.4394 H   0  0  0  0  0  0  0  0  0  0  0  0
  147.1569  135.5430  154.6303 H   0  0  0  0  0  0  0  0  0  0  0  0
  148.7195  135.6359  155.4417 H   0  0  0  0  0  0  0  0  0  0  0  0
  147.2338  134.4429  152.0927 H   0  0  0  0  0  0  0  0  0  0  0  0
  147.2976  133.1111  153.2513 H   0  0  0  0  0  0  0  0  0  0  0  0
  148.9718  135.4587  153.0906 H   0  0  0  0  0  0  0  0  0  0  0  0
  1  2  1  0  0  0  0
  1 32  1  0  0  0  0
  1 33  1  0  0  0  0
  1 34  1  0  0  0  0
  2  3  1  0  0  0  0
  3 30  1  0  0  0  0
  3 29  1  0  0  0  0
  3  4  1  0  0  0  0
  4  5  1  0  0  0  0
  4 35  1  0  0  0  0
  4 36  1  0  0  0  0
  5 31  1  0  0  0  0
  5  6  1  0  0  0  0
  5 27  1  0  0  0  0
  6  7  1  0  0  0  0
  6 37  1  0  0  0  0
  6 38  1  0  0  0  0
  7  8  1  0  0  0  0
  7  9  1  0  0  0  0
  8 39  1  0  0  0  0
  8 40  1  0  0  0  0
  8 41  1  0  0  0  0
  9 14  1  0  0  0  0
  9 10  2  0  0  0  0
 10 11  1  0  0  0  0
 11 12  2  0  0  0  0
 11 42  1  0  0  0  0
 12 13  1  0  0  0  0
 13 17  1  0  0  0  0
 13 14  2  0  0  0  0
 14 15  1  0  0  0  0
 15 16  2  0  0  0  0
 16 17  1  0  0  0  0
 16 43  1  0  0  0  0
 17 18  1  0  0  0  0
 18 19  1  0  0  0  0
 18 44  1  0  0  0  0
 18 45  1  0  0  0  0
 19 20  1  0  0  0  0
 19 22  1  0  0  0  0
 19 46  1  0  0  0  0
 20 21  1  0  0  0  0
 20 47  1  0  0  0  0
 20 48  1  0  0  0  0
 21 49  1  0  0  0  0
 22 26  1  0  0  0  0
 22 23  1  0  0  0  0
 22 50  1  0  0  0  0
 23 24  1  0  0  0  0
 23 51  1  0  0  0  0
 23 52  1  0  0  0  0
 24 25  1  0  0  0  0
 24 53  1  0  0  0  0
 24 54  1  0  0  0  0
 25 26  1  0  0  0  0
 26 55  1  0  0  0  0
 26 56  1  0  0  0  0
 27 28  1  0  0  0  0
 27 29  1  0  0  0  0
 27 62  1  0  0  0  0
 28 57  1  0  0  0  0
 28 58  1  0  0  0  0
 28 59  1  0  0  0  0
 29 60  1  0  0  0  0
 29 61  1  0  0  0  0
M  CHG  1  27   1
M  END
> <s_m_source_file>
AV-unprocessed.smi

> <i_m_source_file_index>
21

> <i_lp_mmshare_version>
43012

> <i_f3d_flags>
0

> <s_epik_input>
W0NIM11PW0NASF0xW0NIMl1bQ0BIXShOKFtDSDNdKVtDSDJdMSlbQ0gyXU4oW0NIM10pYyhuW2NIXW4yKWMoYzIzKW5bY0hdbjNbQ0gyXVtDQEhdKFtDSDJdW09IXSlbQ0BASF00W0NIMl1bQ0gyXU9bQ0gyXTQ=

> <s_epik_cmdline>
J2VwaWtfcHl0aG9uJywgJy1waCcsICc3LjAnLCAnLXRuJywgJzgnLCAnLW1hJywgJzIwMCcsICctbWV0YWxfYmluZGluZycsICctaW1hZScsICc8aW5maWxlLm1hZT4nLCAnLW9tYWUnLCAnPG91dGZpbGUubWFlPic=

> <r_lp_tautomer_probability>
1

> <r_epik_Ionization_Penalty>
0.0157465

> <r_epik_Ionization_Penalty_Charging>
0.015354

> <r_epik_Ionization_Penalty_Neutral>
0.000392529

> <r_epik_State_Penalty>
0.0120612

> <r_epik_Charging_Adjusted_Penalty>
0.0274152

> <i_epik_Tot_Q>
1

> <i_epik_Tot_abs_Q>
1

> <r_epik_Metal_State_Penalty>
0.0121253

> <b_epik_Metal_Only>
0

> <s_lp_Force_Field>
OPLS_2005

> <r_lp_Energy>
59.339

> <b_lp_Chiralities_Consistent>
1

> <s_lp_Variant>
AV-unprocessed.smi:21-2

> <Gold.Version>
5.8.1

> <Gold.Id.Protein>
6NUR|6NUR_protein|mol2

> <Gold.PLP.Fitness>
54.4726

> <Gold.PLP.PLP>
-46.1987

> <Gold.PLP.part.hbond>
-2.9733

> <Gold.PLP.part.metal>
0.0000

> <Gold.PLP.part.buried>
-8.4455

> <Gold.PLP.part.nonpolar>
-35.7756

> <Gold.PLP.part.repulsive>
0.7002

> <Gold.PLP.ligand.clash>
0.0000

> <Gold.PLP.ligand.torsion>
1.2200

> <Gold.PLP.Chemscore.Hbond>
3.3149

> <Gold.PLP.Chemscore.CHOScore>
0.0000

> <Gold.PLP.Chemscore.Metal>
0.0000

> <Gold.Chemscore.Hbonds>
donor molecule, donor type, donor heavy atom, donor atom, acceptor molecule, acceptor atom, score
      L1  H    27    62       P1  7948  1.40
      L1  C    11    42       P1  7957  0.19

> <Gold.PLP.Chemscore.Internal.Correction>
0.7691

> <Gold.Rescore>
     Score         DG    S(hbond)    S(metal)    S(lipo)     H(rot)  DE(clash)    DE(int)     intcor
     14.72     -17.76       2.51        0.00     100.64       3.08       0.02       3.03       ----

> <Gold.Chemscore.Fitness>
14.7158

> <Gold.Chemscore.DG>
-17.7565

> <Gold.Chemscore.ZeroCoef>
-5.4800

> <Gold.Chemscore.Hbond>
2.5076

> <Gold.Chemscore.Metal>
0.0000

> <Gold.Chemscore.Lipo>
100.6435

> <Gold.Chemscore.Internal_Hbond>
0.0000

> <Gold.Chemscore.DEClash>
0.0150

> <Gold.Chemscore.DEInternal>
3.0256

> <Gold.Chemscore.Rot>
3.0758

> <Gold.Chemscore.Internal.Correction>
   9.000000E+99

> <Gold.Chemscore.Hbonds>
donor molecule, donor type, donor heavy atom, donor atom, acceptor molecule, acceptor atom, score
      L1  H    21    49       P1  8028  0.07
      L1  H    27    62       P1  7948  0.38

> <Gold.Chemscore.Hbond.Weighted>
-8.3753

> <Gold.Chemscore.Metal.Weighted>
-0.0000

> <Gold.Chemscore.Lipo.Weighted>
-11.7753

> <Gold.Chemscore.Internal_Hbond.Weighted>
0.0000

> <Gold.Chemscore.DEClash.Weighted>
0.0150

> <Gold.Chemscore.DEInternal.Weighted>
3.0256

> <Gold.Chemscore.Rot.Weighted>
7.8741

> <Gold.Chemscore.Internal.Correction.Weighted>
   9.000000E+99

> <Gold.Protein.RotatedTorsions>
[ 6907 6896 6895 6894 ] final -153.95 input  -60.11 | X-H torsion
[ 7974 7965 7964 7962 ] final  -51.22 input  175.53 | X-H torsion
[ 8008 7997 7996 7995 ] final  136.62 input   59.86 | X-H torsion
[ 10167 10162 10161 10158 ] final  137.12 input  -65.29 | X-H torsion
[ 10718 10713 10712 10709 ] final  151.94 input   66.30 | X-H torsion
[ 10763 10752 10751 10750 ] final  -52.91 input  -60.55 | X-H torsion
[ 11005 11000 10999 10996 ] final -101.82 input  -57.11 | X-H torsion

> <Gold.Protein.ActiveResidues>
 VAL166  LYS551  ARG553  GLY616  TRP617  ASP618  TYR619  PRO620  LYS621  CYS622 
 ASP623  PHE694  ASN695  SER759  ASP760  ASP761  ALA762  ILE779  LEU786  VAL792 
 PHE793  MET794  SER795  GLU796  ALA797  LYS798  CYS799  TRP800  GLU811  SER814 

> <Gold.Protein.RotatedAtoms>
  151.2502  133.4354  159.2610 H   0  0  0  0  0  0  0  0  0  0  0  0  # atno 6907 bound_to 6896
  151.0624  134.9745  159.8277 H   0  0  0  0  0  0  0  0  0  0  0  0  # atno 6908 bound_to 6896
  152.5400  134.2452  159.8930 H   0  0  0  0  0  0  0  0  0  0  0  0  # atno 6909 bound_to 6896
  145.9214  140.7830  142.9645 H   0  0  0  0  0  0  0  0  0  0  0  0  # atno 7974 bound_to 7965
  156.3004  140.2440  156.3775 H   0  0  0  0  0  0  0  0  0  0  0  0  # atno 8008 bound_to 7997
  154.8731  140.0415  157.1756 H   0  0  0  0  0  0  0  0  0  0  0  0  # atno 8009 bound_to 7997
  154.8774  140.2944  155.5449 H   0  0  0  0  0  0  0  0  0  0  0  0  # atno 8010 bound_to 7997
  139.5155  144.6427  151.5525 H   0  0  0  0  0  0  0  0  0  0  0  0  # atno 10167 bound_to 10162
  157.2642  131.0804  151.1644 H   0  0  0  0  0  0  0  0  0  0  0  0  # atno 10718 bound_to 10713
  154.1503  135.6491  153.4962 H   0  0  0  0  0  0  0  0  0  0  0  0  # atno 10763 bound_to 10752
  153.0139  135.5336  154.6815 H   0  0  0  0  0  0  0  0  0  0  0  0  # atno 10764 bound_to 10752
  154.6100  135.2953  155.0413 H   0  0  0  0  0  0  0  0  0  0  0  0  # atno 10765 bound_to 10752
  141.1215  133.8508  157.1280 H   0  0  0  0  0  0  0  0  0  0  0  0  # atno 11005 bound_to 11000
  144.6753  140.1981  143.7390 LP  0  0  0  0  0  0  0  0  0  0  0  0  # atno 17320 bound_to 7965
  145.8545  139.2192  143.1752 LP  0  0  0  0  0  0  0  0  0  0  0  0  # atno 17321 bound_to 7965
  140.6200  143.9276  150.6518 LP  0  0  0  0  0  0  0  0  0  0  0  0  # atno 17342 bound_to 10162
  140.2547  143.3567  152.1375 LP  0  0  0  0  0  0  0  0  0  0  0  0  # atno 17343 bound_to 10162
  157.3142  130.6905  149.6232 LP  0  0  0  0  0  0  0  0  0  0  0  0  # atno 17370 bound_to 10713
  155.9663  130.4354  150.5092 LP  0  0  0  0  0  0  0  0  0  0  0  0  # atno 17371 bound_to 10713
  140.0176  134.9960  157.0526 LP  0  0  0  0  0  0  0  0  0  0  0  0  # atno 17394 bound_to 11000
  140.4493  134.1599  155.7180 LP  0  0  0  0  0  0  0  0  0  0  0  0  # atno 17395 bound_to 11000

$$$$
