AV-unprocessed.smi:224|AV-procd|sdf|1719|dock1
  -GOLD-   2262020193D 1   1.00000     0.00000
 Structure written by MMmdl.
 56 59  0  0  0  0  0  0  0  0  2 V2000
  144.8213  131.9022  150.5232 C   0  0  0  0  0  0  0  0  0  0  0  0
  143.7791  132.8167  151.1795 C   0  0  2  0  0  0  0  0  0  0  0  0
  143.0927  133.5080  150.1555 O   0  0  0  0  0  0  0  0  0  0  0  0
  144.4276  133.8370  152.1373 C   0  0  0  0  0  0  0  0  0  0  0  0
  144.9423  133.2340  153.3983 N   0  3  2  0  0  0  0  0  0  0  0  0
  145.2335  134.2647  154.4299 C   0  0  0  0  0  0  0  0  0  0  0  0
  145.6145  133.6219  155.7752 C   0  0  0  0  0  0  0  0  0  0  0  0
  146.6988  132.6571  155.6108 N   0  0  0  0  0  0  0  0  0  0  0  0
  147.9889  133.0672  155.7478 C   0  0  0  0  0  0  0  0  0  0  0  0
  148.9849  132.1429  155.8094 N   0  0  0  0  0  0  0  0  0  0  0  0
  150.2558  132.5224  155.9671 C   0  0  0  0  0  0  0  0  0  0  0  0
  150.7490  133.7561  156.0783 N   0  0  0  0  0  0  0  0  0  0  0  0
  149.7605  134.6920  155.9997 C   0  0  0  0  0  0  0  0  0  0  0  0
  148.3687  134.4381  155.8353 C   0  0  0  0  0  0  0  0  0  0  0  0
  147.6759  135.6426  155.7855 N   0  0  0  0  0  0  0  0  0  0  0  0
  148.6010  136.5523  155.9255 C   0  0  0  0  0  0  0  0  0  0  0  0
  149.8832  136.0693  156.0538 N   0  0  0  0  0  0  0  0  0  0  0  0
  151.0975  136.8519  156.2267 C   0  0  0  0  0  0  0  0  0  0  0  0
  151.4172  137.7970  155.0407 C   0  0  2  0  0  0  0  0  0  0  0  0
  151.5744  137.0262  153.8634 O   0  0  0  0  0  0  0  0  0  0  0  0
  152.6619  138.6609  155.2454 C   0  0  0  0  0  0  0  0  0  0  0  0
  152.0815  139.9523  155.8002 C   0  0  0  0  0  0  0  0  0  0  0  0
  150.9137  140.1204  155.0155 O   0  0  0  0  0  0  0  0  0  0  0  0
  150.3038  138.8460  154.8402 C   0  0  0  0  0  0  0  0  0  0  0  0
  146.4273  131.6240  154.6138 C   0  0  0  0  0  0  0  0  0  0  0  0
  146.0401  132.2273  153.2445 C   0  0  2  0  0  0  0  0  0  0  0  0
  147.2673  132.7639  152.4773 C   0  0  0  0  0  0  0  0  0  0  0  0
  145.3685  131.3314  151.2740 H   0  0  0  0  0  0  0  0  0  0  0  0
  145.5487  132.4744  149.9460 H   0  0  0  0  0  0  0  0  0  0  0  0
  144.3483  131.1873  149.8489 H   0  0  0  0  0  0  0  0  0  0  0  0
  143.0682  132.1846  151.7102 H   0  0  0  0  0  0  0  0  0  0  0  0
  142.2556  133.7933  150.4896 H   0  0  0  0  0  0  0  0  0  0  0  0
  145.2286  134.3777  151.6325 H   0  0  0  0  0  0  0  0  0  0  0  0
  143.6802  134.5909  152.3907 H   0  0  0  0  0  0  0  0  0  0  0  0
  146.0321  134.9188  154.0789 H   0  0  0  0  0  0  0  0  0  0  0  0
  144.3570  134.8969  154.5761 H   0  0  0  0  0  0  0  0  0  0  0  0
  145.8703  134.3852  156.5114 H   0  0  0  0  0  0  0  0  0  0  0  0
  144.7528  133.0918  156.1826 H   0  0  0  0  0  0  0  0  0  0  0  0
  150.9810  131.7232  156.0120 H   0  0  0  0  0  0  0  0  0  0  0  0
  148.3732  137.6086  155.9341 H   0  0  0  0  0  0  0  0  0  0  0  0
  150.9999  137.4275  157.1483 H   0  0  0  0  0  0  0  0  0  0  0  0
  151.9261  136.1615  156.3887 H   0  0  0  0  0  0  0  0  0  0  0  0
  150.9611  137.3404  153.2164 H   0  0  0  0  0  0  0  0  0  0  0  0
  153.4198  138.2239  155.8934 H   0  0  0  0  0  0  0  0  0  0  0  0
  153.1412  138.8781  154.2892 H   0  0  0  0  0  0  0  0  0  0  0  0
  151.8125  139.8440  156.8522 H   0  0  0  0  0  0  0  0  0  0  0  0
  152.7607  140.7988  155.7000 H   0  0  0  0  0  0  0  0  0  0  0  0
  149.8412  138.7944  153.8536 H   0  0  0  0  0  0  0  0  0  0  0  0
  149.5078  138.7303  155.5771 H   0  0  0  0  0  0  0  0  0  0  0  0
  147.2609  130.9349  154.4896 H   0  0  0  0  0  0  0  0  0  0  0  0
  145.5996  131.0201  154.9880 H   0  0  0  0  0  0  0  0  0  0  0  0
  145.6475  131.3933  152.6643 H   0  0  0  0  0  0  0  0  0  0  0  0
  148.0621  132.0178  152.4519 H   0  0  0  0  0  0  0  0  0  0  0  0
  147.6803  133.6623  152.9346 H   0  0  0  0  0  0  0  0  0  0  0  0
  147.0256  132.9990  151.4412 H   0  0  0  0  0  0  0  0  0  0  0  0
  144.1634  132.7102  153.7718 H   0  0  0  0  0  0  0  0  0  0  0  0
  1  2  1  0  0  0  0
  1 28  1  0  0  0  0
  1 29  1  0  0  0  0
  1 30  1  0  0  0  0
  2  3  1  0  0  0  0
  2  4  1  0  0  0  0
  2 31  1  0  0  0  0
  3 32  1  0  0  0  0
  4  5  1  0  0  0  0
  4 33  1  0  0  0  0
  4 34  1  0  0  0  0
  5 26  1  0  0  0  0
  5  6  1  0  0  0  0
  5 56  1  0  0  0  0
  6  7  1  0  0  0  0
  6 35  1  0  0  0  0
  6 36  1  0  0  0  0
  7  8  1  0  0  0  0
  7 37  1  0  0  0  0
  7 38  1  0  0  0  0
  8  9  1  0  0  0  0
  8 25  1  0  0  0  0
  9 14  1  0  0  0  0
  9 10  2  0  0  0  0
 10 11  1  0  0  0  0
 11 12  2  0  0  0  0
 11 39  1  0  0  0  0
 12 13  1  0  0  0  0
 13 17  1  0  0  0  0
 13 14  2  0  0  0  0
 14 15  1  0  0  0  0
 15 16  2  0  0  0  0
 16 17  1  0  0  0  0
 16 40  1  0  0  0  0
 17 18  1  0  0  0  0
 18 19  1  0  0  0  0
 18 41  1  0  0  0  0
 18 42  1  0  0  0  0
 19 24  1  0  0  0  0
 19 20  1  0  0  0  0
 19 21  1  0  0  0  0
 20 43  1  0  0  0  0
 21 22  1  0  0  0  0
 21 44  1  0  0  0  0
 21 45  1  0  0  0  0
 22 23  1  0  0  0  0
 22 46  1  0  0  0  0
 22 47  1  0  0  0  0
 23 24  1  0  0  0  0
 24 48  1  0  0  0  0
 24 49  1  0  0  0  0
 25 26  1  0  0  0  0
 25 50  1  0  0  0  0
 25 51  1  0  0  0  0
 26 27  1  0  0  0  0
 26 52  1  0  0  0  0
 27 53  1  0  0  0  0
 27 54  1  0  0  0  0
 27 55  1  0  0  0  0
M  CHG  1   5   1
M  END
> <s_m_source_file>
AV-unprocessed.smi

> <i_m_source_file_index>
224

> <i_lp_mmshare_version>
43012

> <i_f3d_flags>
0

> <s_epik_input>
W0NIM11bQ0BIXShbT0hdKVtDSDJdTjFbQ0gyXVtDSDJdTihbQ0gyXVtDQEhdMVtDSDNdKWMobltjSF1uMiljKGMyMyluW2NIXW4zW0NIMl1bQ0BAXTQoW09IXSlbQ0gyXVtDSDJdT1tDSDJdNA==

> <s_epik_cmdline>
J2VwaWtfcHl0aG9uJywgJy1waCcsICc3LjAnLCAnLXRuJywgJzgnLCAnLW1hJywgJzIwMCcsICctbWV0YWxfYmluZGluZycsICctaW1hZScsICc8aW5maWxlLm1hZT4nLCAnLW9tYWUnLCAnPG91dGZpbGUubWFlPic=

> <r_lp_tautomer_probability>
1

> <r_epik_Ionization_Penalty>
0.00516958

> <r_epik_Ionization_Penalty_Charging>
0.00509693

> <r_epik_Ionization_Penalty_Neutral>
7.26542e-05

> <r_epik_State_Penalty>
-0

> <r_epik_Charging_Adjusted_Penalty>
0.00509693

> <i_epik_Tot_Q>
1

> <i_epik_Tot_abs_Q>
1

> <r_epik_Metal_State_Penalty>
-0

> <b_epik_Metal_Only>
0

> <s_lp_Force_Field>
OPLS_2005

> <r_lp_Energy>
49.9792

> <b_lp_Chiralities_Consistent>
1

> <s_lp_Variant>
AV-unprocessed.smi:224-13

> <Gold.Version>
5.8.1

> <Gold.Id.Protein>
6NUR|6NUR_protein|mol2

> <Gold.PLP.Fitness>
51.6706

> <Gold.PLP.PLP>
-37.4311

> <Gold.PLP.part.hbond>
-4.9297

> <Gold.PLP.part.metal>
0.0000

> <Gold.PLP.part.buried>
-6.9752

> <Gold.PLP.part.nonpolar>
-26.1691

> <Gold.PLP.part.repulsive>
0.1184

> <Gold.PLP.ligand.clash>
0.0206

> <Gold.PLP.ligand.torsion>
0.5359

> <Gold.PLP.Chemscore.Hbond>
4.9745

> <Gold.PLP.Chemscore.CHOScore>
0.0000

> <Gold.PLP.Chemscore.Metal>
0.0000

> <Gold.Chemscore.Hbonds>
donor molecule, donor type, donor heavy atom, donor atom, acceptor molecule, acceptor atom, score
      L1  H     3    32       P1 10186  0.51
      L1  H     5    56       P1 10957  2.00
      L1  H    20    43       P1  7949  0.07
      P1  H  7989  7998       L1    23  1.00
      P1  H 10752 10765       L1    20  1.00

> <Gold.PLP.Chemscore.Internal.Correction>
0.4085

> <Gold.Rescore>
     Score         DG    S(hbond)    S(metal)    S(lipo)     H(rot)  DE(clash)    DE(int)     intcor
     16.00     -18.45       3.30        0.00      82.73       3.02       0.47       1.98       ----

> <Gold.Chemscore.Fitness>
16.0022

> <Gold.Chemscore.DG>
-18.4467

> <Gold.Chemscore.ZeroCoef>
-5.4800

> <Gold.Chemscore.Hbond>
3.3014

> <Gold.Chemscore.Metal>
0.0000

> <Gold.Chemscore.Lipo>
82.7268

> <Gold.Chemscore.Internal_Hbond>
0.0000

> <Gold.Chemscore.DEClash>
0.4660

> <Gold.Chemscore.DEInternal>
1.9785

> <Gold.Chemscore.Rot>
3.0231

> <Gold.Chemscore.Internal.Correction>
   9.000000E+99

> <Gold.Chemscore.Hbonds>
donor molecule, donor type, donor heavy atom, donor atom, acceptor molecule, acceptor atom, score
      L1  H     3    32       P1 10186  0.48
      L1  H     5    56       P1 10957  0.65
      L1  H    20    43       P1  7949  0.02
      P1  H  7989  7998       L1    23  0.24
      P1  H 10752 10765       L1    20  0.64

> <Gold.Chemscore.Hbond.Weighted>
-11.0267

> <Gold.Chemscore.Metal.Weighted>
-0.0000

> <Gold.Chemscore.Lipo.Weighted>
-9.6790

> <Gold.Chemscore.Internal_Hbond.Weighted>
0.0000

> <Gold.Chemscore.DEClash.Weighted>
0.4660

> <Gold.Chemscore.DEInternal.Weighted>
1.9785

> <Gold.Chemscore.Rot.Weighted>
7.7391

> <Gold.Chemscore.Internal.Correction.Weighted>
   9.000000E+99

> <Gold.Protein.RotatedTorsions>
[ 6907 6896 6895 6894 ] final  -53.54 input  -60.11 | X-H torsion
[ 7974 7965 7964 7962 ] final  112.78 input  175.53 | X-H torsion
[ 8008 7997 7996 7995 ] final -110.29 input   59.86 | X-H torsion
[ 10167 10162 10161 10158 ] final  144.87 input  -65.29 | X-H torsion
[ 10718 10713 10712 10709 ] final  148.61 input   66.30 | X-H torsion
[ 10763 10752 10751 10750 ] final  158.38 input  -60.55 | X-H torsion
[ 11005 11000 10999 10996 ] final -101.51 input  -57.11 | X-H torsion

> <Gold.Protein.ActiveResidues>
 VAL166  LYS551  ARG553  GLY616  TRP617  ASP618  TYR619  PRO620  LYS621  CYS622 
 ASP623  PHE694  ASN695  SER759  ASP760  ASP761  ALA762  ILE779  LEU786  VAL792 
 PHE793  MET794  SER795  GLU796  ALA797  LYS798  CYS799  TRP800  GLU811  SER814 

> <Gold.Protein.RotatedAtoms>
  150.8418  134.7713  159.6938 H   0  0  0  0  0  0  0  0  0  0  0  0  # atno 6907 bound_to 6896
  152.4504  134.5403  159.9847 H   0  0  0  0  0  0  0  0  0  0  0  0  # atno 6908 bound_to 6896
  151.5541  133.3375  159.2994 H   0  0  0  0  0  0  0  0  0  0  0  0  # atno 6909 bound_to 6896
  145.2253  139.2844  143.4197 H   0  0  0  0  0  0  0  0  0  0  0  0  # atno 7974 bound_to 7965
  154.9722  140.0397  157.2240 H   0  0  0  0  0  0  0  0  0  0  0  0  # atno 8008 bound_to 7997
  154.7790  140.2815  155.6056 H   0  0  0  0  0  0  0  0  0  0  0  0  # atno 8009 bound_to 7997
  156.2933  140.2595  156.2611 H   0  0  0  0  0  0  0  0  0  0  0  0  # atno 8010 bound_to 7997
  139.4938  144.5942  151.6618 H   0  0  0  0  0  0  0  0  0  0  0  0  # atno 10167 bound_to 10162
  157.3065  131.0880  151.1350 H   0  0  0  0  0  0  0  0  0  0  0  0  # atno 10718 bound_to 10713
  154.2151  135.2784  155.2944 H   0  0  0  0  0  0  0  0  0  0  0  0  # atno 10763 bound_to 10752
  154.5747  135.5608  153.7131 H   0  0  0  0  0  0  0  0  0  0  0  0  # atno 10764 bound_to 10752
  153.0055  135.6330  154.2290 H   0  0  0  0  0  0  0  0  0  0  0  0  # atno 10765 bound_to 10752
  141.1228  133.8484  157.1241 H   0  0  0  0  0  0  0  0  0  0  0  0  # atno 11005 bound_to 11000
  146.3366  140.2571  142.8600 LP  0  0  0  0  0  0  0  0  0  0  0  0  # atno 17320 bound_to 7965
  144.9727  140.8384  143.5445 LP  0  0  0  0  0  0  0  0  0  0  0  0  # atno 17321 bound_to 7965
  140.5575  144.0323  150.6154 LP  0  0  0  0  0  0  0  0  0  0  0  0  # atno 17342 bound_to 10162
  140.3398  143.3026  152.0600 LP  0  0  0  0  0  0  0  0  0  0  0  0  # atno 17343 bound_to 10162
  157.2688  130.6694  149.6009 LP  0  0  0  0  0  0  0  0  0  0  0  0  # atno 17370 bound_to 10713
  155.9675  130.4485  150.5623 LP  0  0  0  0  0  0  0  0  0  0  0  0  # atno 17371 bound_to 10713
  140.0199  134.9950  157.0570 LP  0  0  0  0  0  0  0  0  0  0  0  0  # atno 17394 bound_to 11000
  140.4457  134.1635  155.7177 LP  0  0  0  0  0  0  0  0  0  0  0  0  # atno 17395 bound_to 11000

$$$$
