AV-unprocessed.smi:2641|AV-procd|sdf|10273|dock2
  -GOLD-   2272014283D 1   1.00000     0.00000
 Structure written by MMmdl.
 40 41  0  0  0  0  0  0  0  0  3 V2000
  151.4096  143.4518  157.4807 C   0  0  0  0  0  0  0  0  0  0  0  0
  151.0968  142.1874  156.7088 C   0  0  0  0  0  0  0  0  0  0  0  0
  151.8229  140.9914  156.8946 C   0  0  0  0  0  0  0  0  0  0  0  0
  151.4773  139.8521  156.1383 C   0  0  0  0  0  0  0  0  0  0  0  0
  150.4134  139.9307  155.2124 C   0  0  0  0  0  0  0  0  0  0  0  0
  150.0186  138.7224  154.3823 C   0  0  0  0  0  0  0  0  0  0  0  0
  149.5794  137.5707  155.2884 C   0  0  0  0  0  0  0  0  0  0  0  0
  149.2913  137.8064  156.4608 O   0  0  0  0  0  0  0  0  0  0  0  0
  149.5452  136.3568  154.7075 N   0  0  0  0  0  0  0  0  0  0  0  0
  149.1617  135.0284  155.2129 C   0  0  0  0  0  0  0  0  0  0  0  0
  150.1055  134.7782  156.4171 C   0  0  0  0  0  0  0  0  0  0  0  0
  149.5824  134.5318  157.5273 O   0  0  0  0  0  0  0  0  0  0  0  0
  151.3378  134.8877  156.2293 O   0  5  0  0  0  0  0  0  0  0  0  0
  147.6779  135.1273  155.6704 C   0  0  0  0  0  0  0  0  0  0  0  0
  147.1060  133.7937  156.1916 C   0  0  0  0  0  0  0  0  0  0  0  0
  147.2481  132.6790  155.1453 C   0  0  0  0  0  0  0  0  0  0  0  0
  148.7060  132.5319  154.6870 C   0  0  0  0  0  0  0  0  0  0  0  0
  149.2631  133.8718  154.1669 C   0  0  0  0  0  0  0  0  0  0  0  0
  149.7236  141.1540  155.0692 C   0  0  0  0  0  0  0  0  0  0  0  0
  150.0856  142.2230  155.8118 N   0  3  0  0  0  0  0  0  0  0  0  0
  152.1854  143.2752  158.2264 H   0  0  0  0  0  0  0  0  0  0  0  0
  150.5197  143.8147  157.9959 H   0  0  0  0  0  0  0  0  0  0  0  0
  151.7590  144.2320  156.8039 H   0  0  0  0  0  0  0  0  0  0  0  0
  152.6354  140.9444  157.6053 H   0  0  0  0  0  0  0  0  0  0  0  0
  152.0261  138.9302  156.2660 H   0  0  0  0  0  0  0  0  0  0  0  0
  149.1993  138.9818  153.7107 H   0  0  0  0  0  0  0  0  0  0  0  0
  150.8575  138.4218  153.7521 H   0  0  0  0  0  0  0  0  0  0  0  0
  149.7962  136.3476  153.7296 H   0  0  0  0  0  0  0  0  0  0  0  0
  147.5521  135.8980  156.4322 H   0  0  0  0  0  0  0  0  0  0  0  0
  147.0689  135.4569  154.8273 H   0  0  0  0  0  0  0  0  0  0  0  0
  147.6133  133.5002  157.1112 H   0  0  0  0  0  0  0  0  0  0  0  0
  146.0552  133.9210  156.4530 H   0  0  0  0  0  0  0  0  0  0  0  0
  146.8888  131.7348  155.5551 H   0  0  0  0  0  0  0  0  0  0  0  0
  146.6168  132.9039  154.2849 H   0  0  0  0  0  0  0  0  0  0  0  0
  149.3161  132.1622  155.5116 H   0  0  0  0  0  0  0  0  0  0  0  0
  148.7696  131.7783  153.9017 H   0  0  0  0  0  0  0  0  0  0  0  0
  148.6889  134.1344  153.2776 H   0  0  0  0  0  0  0  0  0  0  0  0
  150.2910  133.7291  153.8302 H   0  0  0  0  0  0  0  0  0  0  0  0
  148.9016  141.3094  154.3854 H   0  0  0  0  0  0  0  0  0  0  0  0
  149.5730  143.0965  155.6889 H   0  0  0  0  0  0  0  0  0  0  0  0
  1  2  1  0  0  0  0
  1 21  1  0  0  0  0
  1 22  1  0  0  0  0
  1 23  1  0  0  0  0
  2 20  1  0  0  0  0
  2  3  2  0  0  0  0
  3  4  1  0  0  0  0
  3 24  1  0  0  0  0
  4  5  2  0  0  0  0
  4 25  1  0  0  0  0
  5  6  1  0  0  0  0
  5 19  1  0  0  0  0
  6  7  1  0  0  0  0
  6 26  1  0  0  0  0
  6 27  1  0  0  0  0
  7  8  2  0  0  0  0
  7  9  1  0  0  0  0
  9 10  1  0  0  0  0
  9 28  1  0  0  0  0
 10 18  1  0  0  0  0
 10 11  1  0  0  0  0
 10 14  1  0  0  0  0
 11 12  2  0  0  0  0
 11 13  1  0  0  0  0
 14 15  1  0  0  0  0
 14 29  1  0  0  0  0
 14 30  1  0  0  0  0
 15 16  1  0  0  0  0
 15 31  1  0  0  0  0
 15 32  1  0  0  0  0
 16 17  1  0  0  0  0
 16 33  1  0  0  0  0
 16 34  1  0  0  0  0
 17 18  1  0  0  0  0
 17 35  1  0  0  0  0
 17 36  1  0  0  0  0
 18 37  1  0  0  0  0
 18 38  1  0  0  0  0
 19 20  2  0  0  0  0
 19 39  1  0  0  0  0
 20 40  1  0  0  0  0
M  CHG  1  13  -1
M  CHG  1  20   1
M  END
> <s_m_source_file>
AV-unprocessed.smi

> <i_m_source_file_index>
2641

> <i_lp_mmshare_version>
43012

> <i_f3d_flags>
0

> <s_epik_input>
W0NIM11jMVtjSF1bY0hdYyhbY0hdbjEpW0NIMl1DKD1PKVtOSF1DMihDKD1PKVtPSF0pW0NIMl1bQ0gyXVtDSDJdW0NIMl1bQ0gyXTI=

> <s_epik_cmdline>
J2VwaWtfcHl0aG9uJywgJy1waCcsICc3LjAnLCAnLXRuJywgJzgnLCAnLW1hJywgJzIwMCcsICctbWV0YWxfYmluZGluZycsICctaW1hZScsICc8aW5maWxlLm1hZT4nLCAnLW9tYWUnLCAnPG91dGZpbGUubWFlPic=

> <r_epik_Ionization_Penalty>
2.05743

> <r_epik_Ionization_Penalty_Charging>
2.05743

> <r_epik_Ionization_Penalty_Neutral>
6.51537e-08

> <r_epik_State_Penalty>
2.19002

> <r_epik_Charging_Adjusted_Penalty>
4.24745

> <i_epik_Tot_Q>
0

> <i_epik_Tot_abs_Q>
2

> <r_epik_Metal_State_Penalty>
2.2083

> <b_epik_Metal_Only>
0

> <s_lp_Force_Field>
OPLS_2005

> <r_lp_Energy>
7.8147

> <b_lp_Chiralities_Consistent>
1

> <s_lp_Variant>
AV-unprocessed.smi:2641-2

> <Gold.Version>
5.8.1

> <Gold.Id.Protein>
6NUR|6NUR_protein|mol2

> <Gold.PLP.Fitness>
48.8748

> <Gold.PLP.PLP>
-29.8068

> <Gold.PLP.part.hbond>
-4.0000

> <Gold.PLP.part.metal>
0.0000

> <Gold.PLP.part.buried>
-3.5135

> <Gold.PLP.part.nonpolar>
-23.1170

> <Gold.PLP.part.repulsive>
0.1830

> <Gold.PLP.ligand.clash>
0.0000

> <Gold.PLP.ligand.torsion>
0.4263

> <Gold.PLP.Chemscore.Hbond>
6.6227

> <Gold.PLP.Chemscore.CHOScore>
0.0000

> <Gold.PLP.Chemscore.Metal>
0.0000

> <Gold.Chemscore.Hbonds>
donor molecule, donor type, donor heavy atom, donor atom, acceptor molecule, acceptor atom, score
      L1  H     9    28       P1  7948  0.86
      L1  H    20    40       P1  8028  2.00
      P1  H  6896  6908       L1    12  1.37
      P1  H 10752 10764       L1    13  1.03

> <Gold.PLP.Chemscore.Internal.Correction>
0.0525

> <Gold.Rescore>
     Score         DG    S(hbond)    S(metal)    S(lipo)     H(rot)  DE(clash)    DE(int)     intcor
     16.47     -18.98       2.79        0.00      77.75       1.91       0.09       2.42       ----

> <Gold.Chemscore.Fitness>
16.4727

> <Gold.Chemscore.DG>
-18.9785

> <Gold.Chemscore.ZeroCoef>
-5.4800

> <Gold.Chemscore.Hbond>
2.7855

> <Gold.Chemscore.Metal>
0.0000

> <Gold.Chemscore.Lipo>
77.7538

> <Gold.Chemscore.Internal_Hbond>
0.0000

> <Gold.Chemscore.DEClash>
0.0853

> <Gold.Chemscore.DEInternal>
2.4205

> <Gold.Chemscore.Rot>
1.9149

> <Gold.Chemscore.Internal.Correction>
   9.000000E+99

> <Gold.Chemscore.Hbonds>
donor molecule, donor type, donor heavy atom, donor atom, acceptor molecule, acceptor atom, score
      L1  H     9    28       P1  7948  0.28
      L1  H    20    40       P1  8028  1.00
      P1  H  6896  6908       L1    12  0.64
      P1  H 10752 10764       L1    13  0.50

> <Gold.Chemscore.Hbond.Weighted>
-9.3035

> <Gold.Chemscore.Metal.Weighted>
-0.0000

> <Gold.Chemscore.Lipo.Weighted>
-9.0972

> <Gold.Chemscore.Internal_Hbond.Weighted>
0.0000

> <Gold.Chemscore.DEClash.Weighted>
0.0853

> <Gold.Chemscore.DEInternal.Weighted>
2.4205

> <Gold.Chemscore.Rot.Weighted>
4.9023

> <Gold.Chemscore.Internal.Correction.Weighted>
   9.000000E+99

> <Gold.Protein.RotatedTorsions>
[ 6907 6896 6895 6894 ] final  136.27 input  -60.11 | X-H torsion
[ 7974 7965 7964 7962 ] final -145.46 input  175.53 | X-H torsion
[ 8008 7997 7996 7995 ] final   72.40 input   59.86 | X-H torsion
[ 10167 10162 10161 10158 ] final  -70.87 input  -65.29 | X-H torsion
[ 10718 10713 10712 10709 ] final  -90.21 input   66.30 | X-H torsion
[ 10763 10752 10751 10750 ] final  -28.23 input  -60.55 | X-H torsion
[ 11005 11000 10999 10996 ] final  -77.14 input  -57.11 | X-H torsion

> <Gold.Protein.ActiveResidues>
 VAL166  LYS551  ARG553  GLY616  TRP617  ASP618  TYR619  PRO620  LYS621  CYS622 
 ASP623  PHE694  ASN695  SER759  ASP760  ASP761  ALA762  ILE779  LEU786  VAL792 
 PHE793  MET794  SER795  GLU796  ALA797  LYS798  CYS799  TRP800  GLU811  SER814 

> <Gold.Protein.RotatedAtoms>
  152.2912  133.5563  159.5558 H   0  0  0  0  0  0  0  0  0  0  0  0  # atno 6907 bound_to 6896
  150.7236  134.0426  159.3780 H   0  0  0  0  0  0  0  0  0  0  0  0  # atno 6908 bound_to 6896
  151.8332  135.0615  160.0490 H   0  0  0  0  0  0  0  0  0  0  0  0  # atno 6909 bound_to 6896
  144.8226  140.5581  143.5568 H   0  0  0  0  0  0  0  0  0  0  0  0  # atno 7974 bound_to 7965
  155.7683  140.3485  155.5234 H   0  0  0  0  0  0  0  0  0  0  0  0  # atno 8008 bound_to 7997
  155.8847  140.1008  157.1482 H   0  0  0  0  0  0  0  0  0  0  0  0  # atno 8009 bound_to 7997
  154.4028  140.1316  156.4227 H   0  0  0  0  0  0  0  0  0  0  0  0  # atno 8010 bound_to 7997
  140.5318  143.2321  151.7248 H   0  0  0  0  0  0  0  0  0  0  0  0  # atno 10167 bound_to 10162
  155.9987  130.4901  150.5288 H   0  0  0  0  0  0  0  0  0  0  0  0  # atno 10718 bound_to 10713
  153.7449  135.6930  153.4958 H   0  0  0  0  0  0  0  0  0  0  0  0  # atno 10763 bound_to 10752
  153.2043  135.4425  155.0303 H   0  0  0  0  0  0  0  0  0  0  0  0  # atno 10764 bound_to 10752
  154.8207  135.3421  154.6973 H   0  0  0  0  0  0  0  0  0  0  0  0  # atno 10765 bound_to 10752
  141.1658  133.7010  156.7775 H   0  0  0  0  0  0  0  0  0  0  0  0  # atno 11005 bound_to 11000
  145.5071  139.1481  143.3625 LP  0  0  0  0  0  0  0  0  0  0  0  0  # atno 17320 bound_to 7965
  146.2531  140.5212  142.8885 LP  0  0  0  0  0  0  0  0  0  0  0  0  # atno 17321 bound_to 7965
  139.4957  144.4102  152.0089 LP  0  0  0  0  0  0  0  0  0  0  0  0  # atno 17342 bound_to 10162
  140.3205  144.3434  150.6011 LP  0  0  0  0  0  0  0  0  0  0  0  0  # atno 17343 bound_to 10162
  157.3240  131.0687  151.1910 LP  0  0  0  0  0  0  0  0  0  0  0  0  # atno 17370 bound_to 10713
  157.2814  130.6752  149.6068 LP  0  0  0  0  0  0  0  0  0  0  0  0  # atno 17371 bound_to 10713
  140.2419  134.8607  157.3582 LP  0  0  0  0  0  0  0  0  0  0  0  0  # atno 17394 bound_to 11000
  140.1787  134.4516  155.7785 LP  0  0  0  0  0  0  0  0  0  0  0  0  # atno 17395 bound_to 11000

$$$$
