AV-unprocessed.smi:2069|AV-procd|sdf|8431|dock2
  -GOLD-   2272011123D 1   1.00000     0.00000
 Structure written by MMmdl.
 38 39  0  0  0  0  0  0  0  0  1 V2000
  146.4519  134.1075  162.5735 C   0  0  0  0  0  0  0  0  0  0  0  0
  147.1906  134.7532  161.4516 C   0  0  0  0  0  0  0  0  0  0  0  0
  147.8424  134.0551  160.5137 N   0  0  0  0  0  0  0  0  0  0  0  0
  148.4551  134.8761  159.5776 N   0  0  0  0  0  0  0  0  0  0  0  0
  148.2459  136.1739  159.8380 C   0  0  0  0  0  0  0  0  0  0  0  0
  148.7603  137.2321  159.0432 N   0  0  0  0  0  0  0  0  0  0  0  0
  149.9892  137.7767  159.0741 C   0  0  0  0  0  0  0  0  0  0  0  0
  150.9017  137.4306  159.8246 O   0  0  0  0  0  0  0  0  0  0  0  0
  150.1049  138.7577  158.1667 N   0  0  0  0  0  0  0  0  0  0  0  0
  151.3015  139.5631  157.9320 C   0  0  0  0  0  0  0  0  0  0  0  0
  150.9799  141.0165  157.4814 C   0  0  2  0  0  0  0  0  0  0  0  0
  150.9252  141.0685  155.9330 C   0  0  0  0  0  0  0  0  0  0  0  0
  151.9066  142.0203  158.0560 N   0  0  0  0  0  0  0  0  0  0  0  0
  151.9462  141.9819  159.5227 C   0  0  0  0  0  0  0  0  0  0  0  0
  152.8838  143.0426  160.1250 C   0  0  0  0  0  0  0  0  0  0  0  0
  152.4945  144.3344  159.6807 O   0  0  0  0  0  0  0  0  0  0  0  0
  152.5231  144.4401  158.2644 C   0  0  0  0  0  0  0  0  0  0  0  0
  151.5809  143.3921  157.6476 C   0  0  0  0  0  0  0  0  0  0  0  0
  147.2725  136.5003  161.2617 S   0  0  0  0  0  0  0  0  0  0  0  0
  146.5776  133.0248  162.5449 H   0  0  0  0  0  0  0  0  0  0  0  0
  145.3890  134.3380  162.5012 H   0  0  0  0  0  0  0  0  0  0  0  0
  146.8279  134.4771  163.5277 H   0  0  0  0  0  0  0  0  0  0  0  0
  148.1160  137.6191  158.3696 H   0  0  0  0  0  0  0  0  0  0  0  0
  149.3016  138.9679  157.5929 H   0  0  0  0  0  0  0  0  0  0  0  0
  151.8252  139.5531  158.8856 H   0  0  0  0  0  0  0  0  0  0  0  0
  151.9699  139.0884  157.2112 H   0  0  0  0  0  0  0  0  0  0  0  0
  149.9750  141.2449  157.8404 H   0  0  0  0  0  0  0  0  0  0  0  0
  150.2614  140.3131  155.5148 H   0  0  0  0  0  0  0  0  0  0  0  0
  151.9133  140.9132  155.4986 H   0  0  0  0  0  0  0  0  0  0  0  0
  150.5373  142.0158  155.5617 H   0  0  0  0  0  0  0  0  0  0  0  0
  150.9406  142.1180  159.9236 H   0  0  0  0  0  0  0  0  0  0  0  0
  152.3004  141.0150  159.8743 H   0  0  0  0  0  0  0  0  0  0  0  0
  152.8383  143.0119  161.2136 H   0  0  0  0  0  0  0  0  0  0  0  0
  153.9197  142.8483  159.8426 H   0  0  0  0  0  0  0  0  0  0  0  0
  152.2127  145.4446  157.9766 H   0  0  0  0  0  0  0  0  0  0  0  0
  153.5432  144.3043  157.9015 H   0  0  0  0  0  0  0  0  0  0  0  0
  151.6542  143.4989  156.5670 H   0  0  0  0  0  0  0  0  0  0  0  0
  150.5507  143.6252  157.9213 H   0  0  0  0  0  0  0  0  0  0  0  0
  1  2  1  0  0  0  0
  1 20  1  0  0  0  0
  1 21  1  0  0  0  0
  1 22  1  0  0  0  0
  2 19  1  0  0  0  0
  2  3  2  0  0  0  0
  3  4  1  0  0  0  0
  4  5  2  0  0  0  0
  5  6  1  0  0  0  0
  5 19  1  0  0  0  0
  6  7  1  0  0  0  0
  6 23  1  0  0  0  0
  7  8  2  0  0  0  0
  7  9  1  0  0  0  0
  9 10  1  0  0  0  0
  9 24  1  0  0  0  0
 10 11  1  0  0  0  0
 10 25  1  0  0  0  0
 10 26  1  0  0  0  0
 11 12  1  0  0  0  0
 11 13  1  0  0  0  0
 11 27  1  0  0  0  0
 12 28  1  0  0  0  0
 12 29  1  0  0  0  0
 12 30  1  0  0  0  0
 13 18  1  0  0  0  0
 13 14  1  0  0  0  0
 14 15  1  0  0  0  0
 14 31  1  0  0  0  0
 14 32  1  0  0  0  0
 15 16  1  0  0  0  0
 15 33  1  0  0  0  0
 15 34  1  0  0  0  0
 16 17  1  0  0  0  0
 17 18  1  0  0  0  0
 17 35  1  0  0  0  0
 17 36  1  0  0  0  0
 18 37  1  0  0  0  0
 18 38  1  0  0  0  0
M  END
> <s_m_source_file>
AV-unprocessed.smi

> <i_m_source_file_index>
2069

> <i_lp_mmshare_version>
43012

> <i_f3d_flags>
0

> <s_epik_input>
W0NIM11jMW5uYyhzMSlbTkhdQyg9TylbTkhdW0NIMl1bQ0BIXShbQ0gzXSlOMltDSDJdW0NIMl1PW0NIMl1bQ0gyXTI=

> <s_epik_cmdline>
J2VwaWtfcHl0aG9uJywgJy1waCcsICc3LjAnLCAnLXRuJywgJzgnLCAnLW1hJywgJzIwMCcsICctbWV0YWxfYmluZGluZycsICctaW1hZScsICc8aW5maWxlLm1hZT4nLCAnLW9tYWUnLCAnPG91dGZpbGUubWFlPic=

> <r_lp_tautomer_probability>
1

> <r_epik_Ionization_Penalty>
0.221104

> <r_epik_Ionization_Penalty_Charging>
0

> <r_epik_Ionization_Penalty_Neutral>
0.221104

> <r_epik_State_Penalty>
0.209349

> <r_epik_Charging_Adjusted_Penalty>
0.209349

> <i_epik_Tot_Q>
0

> <i_epik_Tot_abs_Q>
0

> <r_epik_Metal_State_Penalty>
0.561068

> <b_epik_Metal_Only>
0

> <s_lp_Force_Field>
OPLS_2005

> <r_lp_Energy>
28.2762

> <b_lp_Chiralities_Consistent>
1

> <s_lp_Variant>
AV-unprocessed.smi:2069-1

> <Gold.Version>
5.8.1

> <Gold.Id.Protein>
6NUR|6NUR_protein|mol2

> <Gold.PLP.Fitness>
36.9006

> <Gold.PLP.PLP>
-36.7486

> <Gold.PLP.part.hbond>
-1.4127

> <Gold.PLP.part.metal>
0.0000

> <Gold.PLP.part.buried>
-4.8989

> <Gold.PLP.part.nonpolar>
-30.5306

> <Gold.PLP.part.repulsive>
0.3291

> <Gold.PLP.ligand.clash>
0.0000

> <Gold.PLP.ligand.torsion>
1.3894

> <Gold.PLP.Chemscore.Hbond>
0.9588

> <Gold.PLP.Chemscore.CHOScore>
0.0000

> <Gold.PLP.Chemscore.Metal>
0.0000

> <Gold.Chemscore.Hbonds>
donor molecule, donor type, donor heavy atom, donor atom, acceptor molecule, acceptor atom, score
      P1  H  6896  6907       L1     4  0.52

> <Gold.PLP.Chemscore.Internal.Correction>
0.0544

> <Gold.Rescore>
     Score         DG    S(hbond)    S(metal)    S(lipo)     H(rot)  DE(clash)    DE(int)     intcor
     12.51     -13.85       0.72        0.00      86.13       1.60       0.01       1.33       ----

> <Gold.Chemscore.Fitness>
12.5144

> <Gold.Chemscore.DG>
-13.8541

> <Gold.Chemscore.ZeroCoef>
-5.4800

> <Gold.Chemscore.Hbond>
0.7177

> <Gold.Chemscore.Metal>
0.0000

> <Gold.Chemscore.Lipo>
86.1278

> <Gold.Chemscore.Internal_Hbond>
0.0000

> <Gold.Chemscore.DEClash>
0.0069

> <Gold.Chemscore.DEInternal>
1.3328

> <Gold.Chemscore.Rot>
1.6016

> <Gold.Chemscore.Internal.Correction>
   9.000000E+99

> <Gold.Chemscore.Hbonds>
donor molecule, donor type, donor heavy atom, donor atom, acceptor molecule, acceptor atom, score
      P1  H  6896  6907       L1     4  0.27

> <Gold.Chemscore.Hbond.Weighted>
-2.3972

> <Gold.Chemscore.Metal.Weighted>
-0.0000

> <Gold.Chemscore.Lipo.Weighted>
-10.0770

> <Gold.Chemscore.Internal_Hbond.Weighted>
0.0000

> <Gold.Chemscore.DEClash.Weighted>
0.0069

> <Gold.Chemscore.DEInternal.Weighted>
1.3328

> <Gold.Chemscore.Rot.Weighted>
4.1001

> <Gold.Chemscore.Internal.Correction.Weighted>
   9.000000E+99

> <Gold.Protein.RotatedTorsions>
[ 6907 6896 6895 6894 ] final  -80.53 input  -60.11 | X-H torsion
[ 7974 7965 7964 7962 ] final  -99.49 input  175.53 | X-H torsion
[ 8008 7997 7996 7995 ] final  -38.37 input   59.86 | X-H torsion
[ 10167 10162 10161 10158 ] final  -11.45 input  -65.29 | X-H torsion
[ 10718 10713 10712 10709 ] final  -11.66 input   66.30 | X-H torsion
[ 10763 10752 10751 10750 ] final -147.96 input  -60.55 | X-H torsion
[ 11005 11000 10999 10996 ] final  -91.54 input  -57.11 | X-H torsion

> <Gold.Protein.ActiveResidues>
 VAL166  LYS551  ARG553  GLY616  TRP617  ASP618  TYR619  PRO620  LYS621  CYS622 
 ASP623  PHE694  ASN695  SER759  ASP760  ASP761  ALA762  ILE779  LEU786  VAL792 
 PHE793  MET794  SER795  GLU796  ALA797  LYS798  CYS799  TRP800  GLU811  SER814 

> <Gold.Protein.RotatedAtoms>
  150.6928  134.3955  159.5095 H   0  0  0  0  0  0  0  0  0  0  0  0  # atno 6907 bound_to 6896
  152.1737  134.8810  160.0541 H   0  0  0  0  0  0  0  0  0  0  0  0  # atno 6908 bound_to 6896
  151.9827  133.3728  159.4150 H   0  0  0  0  0  0  0  0  0  0  0  0  # atno 6909 bound_to 6896
  145.3069  140.9391  143.2792 H   0  0  0  0  0  0  0  0  0  0  0  0  # atno 7974 bound_to 7965
  154.4038  140.1579  156.2689 H   0  0  0  0  0  0  0  0  0  0  0  0  # atno 8008 bound_to 7997
  155.8971  140.3435  155.5976 H   0  0  0  0  0  0  0  0  0  0  0  0  # atno 8009 bound_to 7997
  155.7491  140.0802  157.2200 H   0  0  0  0  0  0  0  0  0  0  0  0  # atno 8010 bound_to 7997
  140.7139  143.5638  150.9167 H   0  0  0  0  0  0  0  0  0  0  0  0  # atno 10167 bound_to 10162
  156.6559  130.4968  149.6046 H   0  0  0  0  0  0  0  0  0  0  0  0  # atno 10718 bound_to 10713
  154.8259  135.3347  154.6899 H   0  0  0  0  0  0  0  0  0  0  0  0  # atno 10763 bound_to 10752
  153.7525  135.6938  153.4947 H   0  0  0  0  0  0  0  0  0  0  0  0  # atno 10764 bound_to 10752
  153.2167  135.4463  155.0392 H   0  0  0  0  0  0  0  0  0  0  0  0  # atno 10765 bound_to 10752
  141.1542  133.7762  156.9893 H   0  0  0  0  0  0  0  0  0  0  0  0  # atno 11005 bound_to 11000
  144.9048  139.4604  143.6615 LP  0  0  0  0  0  0  0  0  0  0  0  0  # atno 17320 bound_to 7965
  146.3132  139.7822  142.9004 LP  0  0  0  0  0  0  0  0  0  0  0  0  # atno 17321 bound_to 7965
  139.9363  143.6434  152.3064 LP  0  0  0  0  0  0  0  0  0  0  0  0  # atno 17342 bound_to 10162
  139.6902  144.7647  151.1451 LP  0  0  0  0  0  0  0  0  0  0  0  0  # atno 17343 bound_to 10162
  156.2048  130.6642  151.1207 LP  0  0  0  0  0  0  0  0  0  0  0  0  # atno 17370 bound_to 10713
  157.7126  131.0726  150.6446 LP  0  0  0  0  0  0  0  0  0  0  0  0  # atno 17371 bound_to 10713
  140.1013  134.9533  157.1927 LP  0  0  0  0  0  0  0  0  0  0  0  0  # atno 17394 bound_to 11000
  140.3314  134.2805  155.7227 LP  0  0  0  0  0  0  0  0  0  0  0  0  # atno 17395 bound_to 11000

$$$$
