AV-unprocessed.smi:1115|AV-procd|sdf|4804|dock7
  -GOLD-   22720 3353D 1   1.00000     0.00000
 Structure written by MMmdl.
 52 53  0  0  0  0  0  0  0  0  3 V2000
  151.5018  143.8604  157.5978 C   0  0  0  0  0  0  0  0  0  0  0  0
  151.4978  142.4100  157.7368 N   0  0  0  0  0  0  0  0  0  0  0  0
  152.0690  141.7818  158.9228 C   0  0  0  0  0  0  0  0  0  0  0  0
  150.8888  141.6115  156.7446 C   0  0  0  0  0  0  0  0  0  0  0  0
  151.2563  140.2659  156.4980 C   0  0  0  0  0  0  0  0  0  0  0  0
  150.5987  139.5329  155.4890 C   0  0  0  0  0  0  0  0  0  0  0  0
  149.5832  140.1436  154.7241 C   0  0  0  0  0  0  0  0  0  0  0  0
  148.9416  139.3568  153.7288 N   0  0  0  0  0  0  0  0  0  0  0  0
  147.6711  139.4228  153.2945 C   0  0  0  0  0  0  0  0  0  0  0  0
  146.8296  140.2357  153.6754 O   0  0  0  0  0  0  0  0  0  0  0  0
  147.4295  138.4926  152.3595 N   0  0  0  0  0  0  0  0  0  0  0  0
  146.1513  138.2818  151.6803 C   0  0  0  0  0  0  0  0  0  0  0  0
  145.6593  136.8034  151.7249 C   0  0  0  0  0  0  0  0  0  0  0  0
  144.1396  136.7467  152.0236 C   0  0  0  0  0  0  0  0  0  0  0  0
  145.8468  136.1495  150.3332 C   0  0  0  0  0  0  0  0  0  0  0  0
  146.4097  136.0073  152.7627 N   0  3  0  0  0  0  0  0  0  0  0  0
  146.2084  136.4329  154.1773 C   0  0  0  0  0  0  0  0  0  0  0  0
  147.1624  135.6729  155.1135 C   0  0  0  0  0  0  0  0  0  0  0  0
  146.9515  134.2750  154.9775 O   0  0  0  0  0  0  0  0  0  0  0  0
  147.2267  133.8301  153.6570 C   0  0  0  0  0  0  0  0  0  0  0  0
  146.2783  134.5252  152.6656 C   0  0  0  0  0  0  0  0  0  0  0  0
  149.2453  141.4872  155.0146 C   0  0  0  0  0  0  0  0  0  0  0  0
  149.9002  142.1518  155.9908 N   0  3  0  0  0  0  0  0  0  0  0  0
  151.9885  144.1563  156.6679 H   0  0  0  0  0  0  0  0  0  0  0  0
  152.0396  144.3357  158.4186 H   0  0  0  0  0  0  0  0  0  0  0  0
  150.4821  144.2470  157.5976 H   0  0  0  0  0  0  0  0  0  0  0  0
  152.8780  141.1052  158.6465 H   0  0  0  0  0  0  0  0  0  0  0  0
  151.3087  141.2128  159.4592 H   0  0  0  0  0  0  0  0  0  0  0  0
  152.4751  142.5250  159.6093 H   0  0  0  0  0  0  0  0  0  0  0  0
  152.0343  139.7801  157.0675 H   0  0  0  0  0  0  0  0  0  0  0  0
  150.8797  138.5062  155.3043 H   0  0  0  0  0  0  0  0  0  0  0  0
  149.5316  138.6799  153.2673 H   0  0  0  0  0  0  0  0  0  0  0  0
  148.1835  137.8716  152.1038 H   0  0  0  0  0  0  0  0  0  0  0  0
  145.4362  138.9355  152.1781 H   0  0  0  0  0  0  0  0  0  0  0  0
  146.2158  138.6419  150.6533 H   0  0  0  0  0  0  0  0  0  0  0  0
  143.5476  137.1199  151.1874 H   0  0  0  0  0  0  0  0  0  0  0  0
  143.8642  137.3565  152.8840 H   0  0  0  0  0  0  0  0  0  0  0  0
  143.8090  135.7250  152.2144 H   0  0  0  0  0  0  0  0  0  0  0  0
  145.1702  136.5768  149.5922 H   0  0  0  0  0  0  0  0  0  0  0  0
  145.6468  135.0778  150.3675 H   0  0  0  0  0  0  0  0  0  0  0  0
  146.8528  136.2911  149.9391 H   0  0  0  0  0  0  0  0  0  0  0  0
  146.3932  137.4974  154.3060 H   0  0  0  0  0  0  0  0  0  0  0  0
  145.1805  136.2435  154.4870 H   0  0  0  0  0  0  0  0  0  0  0  0
  148.2028  135.9218  154.8977 H   0  0  0  0  0  0  0  0  0  0  0  0
  146.9762  135.9571  156.1495 H   0  0  0  0  0  0  0  0  0  0  0  0
  148.2697  134.0258  153.4026 H   0  0  0  0  0  0  0  0  0  0  0  0
  147.0870  132.7498  153.6138 H   0  0  0  0  0  0  0  0  0  0  0  0
  145.2527  134.2211  152.8748 H   0  0  0  0  0  0  0  0  0  0  0  0
  146.5240  134.1641  151.6690 H   0  0  0  0  0  0  0  0  0  0  0  0
  148.4741  142.0588  154.5214 H   0  0  0  0  0  0  0  0  0  0  0  0
  149.6311  143.1189  156.1731 H   0  0  0  0  0  0  0  0  0  0  0  0
  147.3831  136.1947  152.5689 H   0  0  0  0  0  0  0  0  0  0  0  0
  1  2  1  0  0  0  0
  1 24  1  0  0  0  0
  1 25  1  0  0  0  0
  1 26  1  0  0  0  0
  2  3  1  0  0  0  0
  2  4  1  0  0  0  0
  3 27  1  0  0  0  0
  3 28  1  0  0  0  0
  3 29  1  0  0  0  0
  4 23  1  0  0  0  0
  4  5  2  0  0  0  0
  5  6  1  0  0  0  0
  5 30  1  0  0  0  0
  6  7  2  0  0  0  0
  6 31  1  0  0  0  0
  7  8  1  0  0  0  0
  7 22  1  0  0  0  0
  8  9  1  0  0  0  0
  8 32  1  0  0  0  0
  9 10  2  0  0  0  0
  9 11  1  0  0  0  0
 11 12  1  0  0  0  0
 11 33  1  0  0  0  0
 12 13  1  0  0  0  0
 12 34  1  0  0  0  0
 12 35  1  0  0  0  0
 13 14  1  0  0  0  0
 13 15  1  0  0  0  0
 13 16  1  0  0  0  0
 14 36  1  0  0  0  0
 14 37  1  0  0  0  0
 14 38  1  0  0  0  0
 15 39  1  0  0  0  0
 15 40  1  0  0  0  0
 15 41  1  0  0  0  0
 16 21  1  0  0  0  0
 16 17  1  0  0  0  0
 16 52  1  0  0  0  0
 17 18  1  0  0  0  0
 17 42  1  0  0  0  0
 17 43  1  0  0  0  0
 18 19  1  0  0  0  0
 18 44  1  0  0  0  0
 18 45  1  0  0  0  0
 19 20  1  0  0  0  0
 20 21  1  0  0  0  0
 20 46  1  0  0  0  0
 20 47  1  0  0  0  0
 21 48  1  0  0  0  0
 21 49  1  0  0  0  0
 22 23  2  0  0  0  0
 22 50  1  0  0  0  0
 23 51  1  0  0  0  0
M  CHG  1  16   1
M  CHG  1  23   1
M  END
> <s_m_source_file>
AV-unprocessed.smi

> <i_m_source_file_index>
1115

> <i_lp_mmshare_version>
43012

> <i_f3d_flags>
0

> <s_epik_input>
W0NIM11OKFtDSDNdKWMxW2NIXVtjSF1jKFtjSF1uMSlbTkhdQyg9TylbTkhdW0NIMl1DKFtDSDNdKShbQ0gzXSlOMltDSDJdW0NIMl1PW0NIMl1bQ0gyXTI=

> <s_epik_cmdline>
J2VwaWtfcHl0aG9uJywgJy1waCcsICc3LjAnLCAnLXRuJywgJzgnLCAnLW1hJywgJzIwMCcsICctbWV0YWxfYmluZGluZycsICctaW1hZScsICc8aW5maWxlLm1hZT4nLCAnLW9tYWUnLCAnPG91dGZpbGUubWFlPic=

> <r_lp_tautomer_probability>
0.999994

> <r_epik_Ionization_Penalty>
0.90424

> <r_epik_Ionization_Penalty_Charging>
0.90422

> <r_epik_Ionization_Penalty_Neutral>
2.023e-05

> <r_epik_State_Penalty>
0.905868

> <r_epik_Charging_Adjusted_Penalty>
1.81009

> <i_epik_Tot_Q>
2

> <i_epik_Tot_abs_Q>
2

> <r_epik_Metal_State_Penalty>
1.19318

> <b_epik_Metal_Only>
0

> <s_lp_Force_Field>
OPLS_2005

> <r_lp_Energy>
35.8961

> <b_lp_Chiralities_Consistent>
1

> <s_lp_Variant>
AV-unprocessed.smi:1115-3

> <Gold.Version>
5.8.1

> <Gold.Id.Protein>
6NUR|6NUR_protein|mol2

> <Gold.PLP.Fitness>
49.7738

> <Gold.PLP.PLP>
-37.9848

> <Gold.PLP.part.hbond>
-4.7431

> <Gold.PLP.part.metal>
0.0000

> <Gold.PLP.part.buried>
-3.4478

> <Gold.PLP.part.nonpolar>
-31.8213

> <Gold.PLP.part.repulsive>
0.4561

> <Gold.PLP.ligand.clash>
0.0000

> <Gold.PLP.ligand.torsion>
1.6568

> <Gold.PLP.Chemscore.Hbond>
5.0000

> <Gold.PLP.Chemscore.CHOScore>
0.0000

> <Gold.PLP.Chemscore.Metal>
0.0000

> <Gold.Chemscore.Hbonds>
donor molecule, donor type, donor heavy atom, donor atom, acceptor molecule, acceptor atom, score
      L1  H    11    33       P1  7948  1.00
      L1  H    16    52       P1  7948  2.00
      L1  H    23    51       P1  8028  2.00

> <Gold.PLP.Chemscore.Internal.Correction>
0.1025

> <Gold.Rescore>
     Score         DG    S(hbond)    S(metal)    S(lipo)     H(rot)  DE(clash)    DE(int)     intcor
     18.49     -21.47       2.94        0.00      85.39       1.49       0.41       2.58       ----

> <Gold.Chemscore.Fitness>
18.4865

> <Gold.Chemscore.DG>
-21.4721

> <Gold.Chemscore.ZeroCoef>
-5.4800

> <Gold.Chemscore.Hbond>
2.9371

> <Gold.Chemscore.Metal>
0.0000

> <Gold.Chemscore.Lipo>
85.3930

> <Gold.Chemscore.Internal_Hbond>
0.0000

> <Gold.Chemscore.DEClash>
0.4102

> <Gold.Chemscore.DEInternal>
2.5753

> <Gold.Chemscore.Rot>
1.4878

> <Gold.Chemscore.Internal.Correction>
   9.000000E+99

> <Gold.Chemscore.Hbonds>
donor molecule, donor type, donor heavy atom, donor atom, acceptor molecule, acceptor atom, score
      L1  H    11    33       P1  7948  0.99
      L1  H    16    52       P1  7948  1.00
      L1  H    23    51       P1  8028  0.96

> <Gold.Chemscore.Hbond.Weighted>
-9.8100

> <Gold.Chemscore.Metal.Weighted>
-0.0000

> <Gold.Chemscore.Lipo.Weighted>
-9.9910

> <Gold.Chemscore.Internal_Hbond.Weighted>
0.0000

> <Gold.Chemscore.DEClash.Weighted>
0.4102

> <Gold.Chemscore.DEInternal.Weighted>
2.5753

> <Gold.Chemscore.Rot.Weighted>
3.8089

> <Gold.Chemscore.Internal.Correction.Weighted>
   9.000000E+99

> <Gold.Protein.RotatedTorsions>
[ 6907 6896 6895 6894 ] final  100.85 input  -60.11 | X-H torsion
[ 7974 7965 7964 7962 ] final  -87.46 input  175.53 | X-H torsion
[ 8008 7997 7996 7995 ] final   97.59 input   59.86 | X-H torsion
[ 10167 10162 10161 10158 ] final  -51.03 input  -65.29 | X-H torsion
[ 10718 10713 10712 10709 ] final -124.79 input   66.30 | X-H torsion
[ 10763 10752 10751 10750 ] final   54.67 input  -60.55 | X-H torsion
[ 11005 11000 10999 10996 ] final  129.27 input  -57.11 | X-H torsion

> <Gold.Protein.ActiveResidues>
 VAL166  LYS551  ARG553  GLY616  TRP617  ASP618  TYR619  PRO620  LYS621  CYS622 
 ASP623  PHE694  ASN695  SER759  ASP760  ASP761  ALA762  ILE779  LEU786  VAL792 
 PHE793  MET794  SER795  GLU796  ALA797  LYS798  CYS799  TRP800  GLU811  SER814 

> <Gold.Protein.RotatedAtoms>
  152.5363  134.0215  159.7983 H   0  0  0  0  0  0  0  0  0  0  0  0  # atno 6907 bound_to 6896
  151.0400  133.5706  159.2659 H   0  0  0  0  0  0  0  0  0  0  0  0  # atno 6908 bound_to 6896
  151.2679  135.0682  159.9177 H   0  0  0  0  0  0  0  0  0  0  0  0  # atno 6909 bound_to 6896
  145.4662  140.9560  143.1942 H   0  0  0  0  0  0  0  0  0  0  0  0  # atno 7974 bound_to 7965
  156.0917  140.3256  155.7825 H   0  0  0  0  0  0  0  0  0  0  0  0  # atno 8008 bound_to 7997
  155.4985  140.0567  157.2960 H   0  0  0  0  0  0  0  0  0  0  0  0  # atno 8009 bound_to 7997
  154.4642  140.1981  156.0179 H   0  0  0  0  0  0  0  0  0  0  0  0  # atno 8010 bound_to 7997
  140.6608  143.2635  151.4445 H   0  0  0  0  0  0  0  0  0  0  0  0  # atno 10167 bound_to 10162
  156.1618  130.6607  151.0060 H   0  0  0  0  0  0  0  0  0  0  0  0  # atno 10718 bound_to 10713
  152.9807  135.5737  154.4941 H   0  0  0  0  0  0  0  0  0  0  0  0  # atno 10763 bound_to 10752
  154.4471  135.2777  155.1809 H   0  0  0  0  0  0  0  0  0  0  0  0  # atno 10764 bound_to 10752
  154.3452  135.6221  153.5669 H   0  0  0  0  0  0  0  0  0  0  0  0  # atno 10765 bound_to 10752
  139.9606  134.9603  156.9124 H   0  0  0  0  0  0  0  0  0  0  0  0  # atno 11005 bound_to 11000
  144.7973  139.6210  143.7087 LP  0  0  0  0  0  0  0  0  0  0  0  0  # atno 17320 bound_to 7965
  146.2423  139.6026  142.9483 LP  0  0  0  0  0  0  0  0  0  0  0  0  # atno 17321 bound_to 7965
  139.5842  144.1642  152.2007 LP  0  0  0  0  0  0  0  0  0  0  0  0  # atno 17342 bound_to 10162
  140.0976  144.5567  150.7011 LP  0  0  0  0  0  0  0  0  0  0  0  0  # atno 17343 bound_to 10162
  157.6738  131.0855  150.7545 LP  0  0  0  0  0  0  0  0  0  0  0  0  # atno 17370 bound_to 10713
  156.7608  130.4798  149.5437 LP  0  0  0  0  0  0  0  0  0  0  0  0  # atno 17371 bound_to 10713
  140.5508  134.0629  155.7369 LP  0  0  0  0  0  0  0  0  0  0  0  0  # atno 17394 bound_to 11000
  141.1283  133.9346  157.2589 LP  0  0  0  0  0  0  0  0  0  0  0  0  # atno 17395 bound_to 11000

$$$$
