AV-unprocessed.smi:2804|AV-procd|sdf|10809|dock5
  -GOLD-   2272015243D 1   1.00000     0.00000
 Structure written by MMmdl.
 35 36  0  0  0  0  0  0  0  0  1 V2000
  154.8903  140.8967  163.0062 C   0  0  0  0  0  0  0  0  0  0  0  0
  153.9533  141.3544  161.8842 C   0  0  0  0  0  0  0  0  0  0  0  0
  154.2974  140.7107  160.5320 C   0  0  0  0  0  0  0  0  0  0  0  0
  153.2551  140.9731  159.5433 N   0  0  0  0  0  0  0  0  0  0  0  0
  152.6406  140.0591  158.7565 C   0  0  0  0  0  0  0  0  0  0  0  0
  152.8492  138.8459  158.7570 O   0  0  0  0  0  0  0  0  0  0  0  0
  151.7684  140.7134  157.9536 N   0  0  0  0  0  0  0  0  0  0  0  0
  150.9107  140.1127  156.9330 C   0  0  0  0  0  0  0  0  0  0  0  0
  151.7053  139.1772  155.9974 C   0  0  2  0  0  0  0  0  0  0  0  0
  152.6205  139.9595  155.2547 O   0  0  0  0  0  0  0  0  0  0  0  0
  150.8015  138.4263  155.0000 C   0  0  0  0  0  0  0  0  0  0  0  0
  150.0253  139.2892  154.3436 F   0  0  0  0  0  0  0  0  0  0  0  0
  151.5560  137.7902  154.1041 F   0  0  0  0  0  0  0  0  0  0  0  0
  150.0402  137.5305  155.6297 F   0  0  0  0  0  0  0  0  0  0  0  0
  151.8397  142.0883  158.2224 C   0  0  0  0  0  0  0  0  0  0  0  0
  151.1616  143.1809  157.6537 C   0  0  0  0  0  0  0  0  0  0  0  0
  151.4773  144.4675  158.1499 C   0  0  0  0  0  0  0  0  0  0  0  0
  152.4419  144.6344  159.1774 C   0  0  0  0  0  0  0  0  0  0  0  0
  153.1107  143.5178  159.7313 C   0  0  0  0  0  0  0  0  0  0  0  0
  152.7765  142.2510  159.2217 C   0  0  0  0  0  0  0  0  0  0  0  0
  154.6203  141.3651  163.9528 H   0  0  0  0  0  0  0  0  0  0  0  0
  155.9251  141.1611  162.7868 H   0  0  0  0  0  0  0  0  0  0  0  0
  154.8410  139.8161  163.1433 H   0  0  0  0  0  0  0  0  0  0  0  0
  152.9253  141.1120  162.1558 H   0  0  0  0  0  0  0  0  0  0  0  0
  154.0017  142.4406  161.7978 H   0  0  0  0  0  0  0  0  0  0  0  0
  155.2542  141.0900  160.1697 H   0  0  0  0  0  0  0  0  0  0  0  0
  154.4240  139.6337  160.6473 H   0  0  0  0  0  0  0  0  0  0  0  0
  150.1353  139.5444  157.4486 H   0  0  0  0  0  0  0  0  0  0  0  0
  150.3809  140.8786  156.3658 H   0  0  0  0  0  0  0  0  0  0  0  0
  152.2662  138.4445  156.5794 H   0  0  0  0  0  0  0  0  0  0  0  0
  152.5095  139.7590  154.3379 H   0  0  0  0  0  0  0  0  0  0  0  0
  150.4324  143.0509  156.8679 H   0  0  0  0  0  0  0  0  0  0  0  0
  150.9801  145.3339  157.7395 H   0  0  0  0  0  0  0  0  0  0  0  0
  152.6699  145.6260  159.5395 H   0  0  0  0  0  0  0  0  0  0  0  0
  153.8487  143.6388  160.5104 H   0  0  0  0  0  0  0  0  0  0  0  0
  1  2  1  0  0  0  0
  1 21  1  0  0  0  0
  1 22  1  0  0  0  0
  1 23  1  0  0  0  0
  2  3  1  0  0  0  0
  2 24  1  0  0  0  0
  2 25  1  0  0  0  0
  3  4  1  0  0  0  0
  3 26  1  0  0  0  0
  3 27  1  0  0  0  0
  4 20  1  0  0  0  0
  4  5  1  0  0  0  0
  5  6  2  0  0  0  0
  5  7  1  0  0  0  0
  7  8  1  0  0  0  0
  7 15  1  0  0  0  0
  8  9  1  0  0  0  0
  8 28  1  0  0  0  0
  8 29  1  0  0  0  0
  9 10  1  0  0  0  0
  9 11  1  0  0  0  0
  9 30  1  0  0  0  0
 10 31  1  0  0  0  0
 11 12  1  0  0  0  0
 11 13  1  0  0  0  0
 11 14  1  0  0  0  0
 15 20  2  0  0  0  0
 15 16  1  0  0  0  0
 16 17  2  0  0  0  0
 16 32  1  0  0  0  0
 17 18  1  0  0  0  0
 17 33  1  0  0  0  0
 18 19  2  0  0  0  0
 18 34  1  0  0  0  0
 19 20  1  0  0  0  0
 19 35  1  0  0  0  0
M  END
> <s_m_source_file>
AV-unprocessed.smi

> <i_m_source_file_index>
2804

> <i_lp_mmshare_version>
43012

> <i_f3d_flags>
0

> <s_epik_input>
W2NIXTFbY0hdW2NIXVtjSF1jKGMxMiluKFtDSDJdW0NIMl1bQ0gzXSljKD1PKW4yW0NIMl1bQ0BIXShbT0hdKUMoRikoRilG

> <s_epik_cmdline>
J2VwaWtfcHl0aG9uJywgJy1waCcsICc3LjAnLCAnLXRuJywgJzgnLCAnLW1hJywgJzIwMCcsICctbWV0YWxfYmluZGluZycsICctaW1hZScsICc8aW5maWxlLm1hZT4nLCAnLW9tYWUnLCAnPG91dGZpbGUubWFlPic=

> <r_epik_Ionization_Penalty>
0.0117937

> <r_epik_Ionization_Penalty_Charging>
3.30828e-09

> <r_epik_Ionization_Penalty_Neutral>
0.0117937

> <r_epik_State_Penalty>
0.00909547

> <r_epik_Charging_Adjusted_Penalty>
0.00909547

> <i_epik_Tot_Q>
0

> <i_epik_Tot_abs_Q>
0

> <r_epik_Metal_State_Penalty>
0.00909547

> <b_epik_Metal_Only>
0

> <s_lp_Force_Field>
OPLS_2005

> <r_lp_Energy>
41.5992

> <b_lp_Chiralities_Consistent>
1

> <s_lp_Variant>
AV-unprocessed.smi:2804-1

> <Gold.Version>
5.8.1

> <Gold.Id.Protein>
6NUR|6NUR_protein|mol2

> <Gold.PLP.Fitness>
49.0431

> <Gold.PLP.PLP>
-46.5970

> <Gold.PLP.part.hbond>
-2.0000

> <Gold.PLP.part.metal>
0.0000

> <Gold.PLP.part.buried>
-1.8007

> <Gold.PLP.part.nonpolar>
-43.1545

> <Gold.PLP.part.repulsive>
0.0000

> <Gold.PLP.ligand.clash>
0.0000

> <Gold.PLP.ligand.torsion>
0.2974

> <Gold.PLP.Chemscore.Hbond>
1.0000

> <Gold.PLP.Chemscore.CHOScore>
0.0000

> <Gold.PLP.Chemscore.Metal>
0.0000

> <Gold.Chemscore.Hbonds>
donor molecule, donor type, donor heavy atom, donor atom, acceptor molecule, acceptor atom, score
      P1  H  7997  8008       L1    10  1.00

> <Gold.PLP.Chemscore.Internal.Correction>
0.0409

> <Gold.Rescore>
     Score         DG    S(hbond)    S(metal)    S(lipo)     H(rot)  DE(clash)    DE(int)     intcor
     14.68     -16.27       0.97        0.00     115.27       2.32       0.07       1.52       ----

> <Gold.Chemscore.Fitness>
14.6806

> <Gold.Chemscore.DG>
-16.2709

> <Gold.Chemscore.ZeroCoef>
-5.4800

> <Gold.Chemscore.Hbond>
0.9675

> <Gold.Chemscore.Metal>
0.0000

> <Gold.Chemscore.Lipo>
115.2669

> <Gold.Chemscore.Internal_Hbond>
0.0000

> <Gold.Chemscore.DEClash>
0.0729

> <Gold.Chemscore.DEInternal>
1.5174

> <Gold.Chemscore.Rot>
2.3152

> <Gold.Chemscore.Internal.Correction>
   9.000000E+99

> <Gold.Chemscore.Hbonds>
donor molecule, donor type, donor heavy atom, donor atom, acceptor molecule, acceptor atom, score
      P1  H  7997  8008       L1    10  0.79

> <Gold.Chemscore.Hbond.Weighted>
-3.2315

> <Gold.Chemscore.Metal.Weighted>
-0.0000

> <Gold.Chemscore.Lipo.Weighted>
-13.4862

> <Gold.Chemscore.Internal_Hbond.Weighted>
0.0000

> <Gold.Chemscore.DEClash.Weighted>
0.0729

> <Gold.Chemscore.DEInternal.Weighted>
1.5174

> <Gold.Chemscore.Rot.Weighted>
5.9268

> <Gold.Chemscore.Internal.Correction.Weighted>
   9.000000E+99

> <Gold.Protein.RotatedTorsions>
[ 6907 6896 6895 6894 ] final -100.99 input  -60.11 | X-H torsion
[ 7974 7965 7964 7962 ] final  -72.45 input  175.53 | X-H torsion
[ 8008 7997 7996 7995 ] final   -5.34 input   59.86 | X-H torsion
[ 10167 10162 10161 10158 ] final   89.16 input  -65.29 | X-H torsion
[ 10718 10713 10712 10709 ] final  148.93 input   66.30 | X-H torsion
[ 10763 10752 10751 10750 ] final -168.78 input  -60.55 | X-H torsion
[ 11005 11000 10999 10996 ] final  -60.05 input  -57.11 | X-H torsion

> <Gold.Protein.ActiveResidues>
 VAL166  LYS551  ARG553  GLY616  TRP617  ASP618  TYR619  PRO620  LYS621  CYS622 
 ASP623  PHE694  ASN695  SER759  ASP760  ASP761  ALA762  ILE779  LEU786  VAL792 
 PHE793  MET794  SER795  GLU796  ALA797  LYS798  CYS799  TRP800  GLU811  SER814 

> <Gold.Protein.RotatedAtoms>
  150.7137  134.0802  159.3894 H   0  0  0  0  0  0  0  0  0  0  0  0  # atno 6907 bound_to 6896
  151.8786  135.0460  160.0496 H   0  0  0  0  0  0  0  0  0  0  0  0  # atno 6908 bound_to 6896
  152.2586  133.5242  159.5404 H   0  0  0  0  0  0  0  0  0  0  0  0  # atno 6909 bound_to 6896
  145.6650  140.9240  143.0913 H   0  0  0  0  0  0  0  0  0  0  0  0  # atno 7974 bound_to 7965
  154.6049  140.2461  155.7744 H   0  0  0  0  0  0  0  0  0  0  0  0  # atno 8008 bound_to 7997
  156.2334  140.2958  156.0200 H   0  0  0  0  0  0  0  0  0  0  0  0  # atno 8009 bound_to 7997
  155.2149  140.0398  157.2929 H   0  0  0  0  0  0  0  0  0  0  0  0  # atno 8010 bound_to 7997
  139.8600  144.6549  150.9069 H   0  0  0  0  0  0  0  0  0  0  0  0  # atno 10167 bound_to 10162
  157.3024  131.0873  151.1379 H   0  0  0  0  0  0  0  0  0  0  0  0  # atno 10718 bound_to 10713
  154.6593  135.2922  154.9888 H   0  0  0  0  0  0  0  0  0  0  0  0  # atno 10763 bound_to 10752
  154.0953  135.6585  153.4863 H   0  0  0  0  0  0  0  0  0  0  0  0  # atno 10764 bound_to 10752
  153.0420  135.5229  154.7536 H   0  0  0  0  0  0  0  0  0  0  0  0  # atno 10765 bound_to 10752
  141.1272  133.6620  156.5164 H   0  0  0  0  0  0  0  0  0  0  0  0  # atno 11005 bound_to 11000
  144.7076  139.8498  143.7425 LP  0  0  0  0  0  0  0  0  0  0  0  0  # atno 17320 bound_to 7965
  146.1093  139.4096  143.0297 LP  0  0  0  0  0  0  0  0  0  0  0  0  # atno 17321 bound_to 7965
  140.7776  143.3752  151.1575 LP  0  0  0  0  0  0  0  0  0  0  0  0  # atno 17342 bound_to 10162
  139.7383  143.8965  152.3042 LP  0  0  0  0  0  0  0  0  0  0  0  0  # atno 17343 bound_to 10162
  157.2733  130.6715  149.6030 LP  0  0  0  0  0  0  0  0  0  0  0  0  # atno 17370 bound_to 10713
  155.9672  130.4472  150.5572 LP  0  0  0  0  0  0  0  0  0  0  0  0  # atno 17371 bound_to 10713
  140.4327  134.7087  157.4950 LP  0  0  0  0  0  0  0  0  0  0  0  0  # atno 17394 bound_to 11000
  140.0282  134.6445  155.9143 LP  0  0  0  0  0  0  0  0  0  0  0  0  # atno 17395 bound_to 11000

$$$$
