AV-unprocessed.smi:1978|AV-procd|sdf|7996|dock10
  -GOLD-   2272010183D 1   1.00000     0.00000
 Structure written by MMmdl.
 45 46  0  0  0  0  0  0  0  0  2 V2000
  151.5923  141.5676  158.0677 C   0  0  0  0  0  0  0  0  0  0  0  0
  151.3215  140.6871  156.8963 C   0  0  0  0  0  0  0  0  0  0  0  0
  151.4257  139.3384  156.7018 C   0  0  0  0  0  0  0  0  0  0  0  0
  151.0135  139.1774  155.3523 C   0  0  0  0  0  0  0  0  0  0  0  0
  150.9823  137.8949  154.7478 N   0  0  0  0  0  0  0  0  0  0  0  0
  150.3887  136.7846  155.2175 C   0  0  0  0  0  0  0  0  0  0  0  0
  149.7699  136.7054  156.2792 O   0  0  0  0  0  0  0  0  0  0  0  0
  150.5409  135.7540  154.3722 N   0  0  0  0  0  0  0  0  0  0  0  0
  150.0141  134.4067  154.5786 C   0  0  0  0  0  0  0  0  0  0  0  0
  148.4901  134.4005  154.8576 C   0  0  2  0  0  0  0  0  0  0  0  0
  148.0360  133.2571  155.7920 C   0  0  0  0  0  0  0  0  0  0  0  0
  147.7063  134.4431  153.5795 N   0  3  1  0  0  0  0  0  0  0  0  0
  147.6859  133.1420  152.8463 C   0  0  0  0  0  0  0  0  0  0  0  0
  147.1207  133.3036  151.4285 C   0  0  0  0  0  0  0  0  0  0  0  0
  145.7076  133.8870  151.4804 C   0  0  0  0  0  0  0  0  0  0  0  0
  145.7245  135.2049  152.2609 C   0  0  0  0  0  0  0  0  0  0  0  0
  146.3291  135.0355  153.6730 C   0  0  2  0  0  0  0  0  0  0  0  0
  146.2829  136.3970  154.3972 C   0  0  0  0  0  0  0  0  0  0  0  0
  150.6852  140.3234  154.7759 N   0  0  0  0  0  0  0  0  0  0  0  0
  150.8807  141.2968  155.7627 O   0  0  0  0  0  0  0  0  0  0  0  0
  151.8946  140.9812  158.9354 H   0  0  0  0  0  0  0  0  0  0  0  0
  150.7024  142.1364  158.3374 H   0  0  0  0  0  0  0  0  0  0  0  0
  152.3911  142.2743  157.8425 H   0  0  0  0  0  0  0  0  0  0  0  0
  151.7474  138.5912  157.4120 H   0  0  0  0  0  0  0  0  0  0  0  0
  151.4524  137.8193  153.8579 H   0  0  0  0  0  0  0  0  0  0  0  0
  151.0645  135.9122  153.5235 H   0  0  0  0  0  0  0  0  0  0  0  0
  150.2195  133.8360  153.6724 H   0  0  0  0  0  0  0  0  0  0  0  0
  150.5740  133.9154  155.3736 H   0  0  0  0  0  0  0  0  0  0  0  0
  148.3251  135.3307  155.3953 H   0  0  0  0  0  0  0  0  0  0  0  0
  148.4860  133.3519  156.7799 H   0  0  0  0  0  0  0  0  0  0  0  0
  148.3172  132.2788  155.4020 H   0  0  0  0  0  0  0  0  0  0  0  0
  146.9568  133.2618  155.9415 H   0  0  0  0  0  0  0  0  0  0  0  0
  148.6845  132.7175  152.7658 H   0  0  0  0  0  0  0  0  0  0  0  0
  147.0824  132.4170  153.3938 H   0  0  0  0  0  0  0  0  0  0  0  0
  147.7713  133.9538  150.8419 H   0  0  0  0  0  0  0  0  0  0  0  0
  147.1052  132.3389  150.9205 H   0  0  0  0  0  0  0  0  0  0  0  0
  145.3285  134.0493  150.4710 H   0  0  0  0  0  0  0  0  0  0  0  0
  145.0301  133.1799  151.9610 H   0  0  0  0  0  0  0  0  0  0  0  0
  146.2960  135.9485  151.7031 H   0  0  0  0  0  0  0  0  0  0  0  0
  144.7068  135.5909  152.3318 H   0  0  0  0  0  0  0  0  0  0  0  0
  145.6949  134.3418  154.2269 H   0  0  0  0  0  0  0  0  0  0  0  0
  145.3011  136.8596  154.2923 H   0  0  0  0  0  0  0  0  0  0  0  0
  147.0173  137.0926  153.9900 H   0  0  0  0  0  0  0  0  0  0  0  0
  146.4543  136.3009  155.4689 H   0  0  0  0  0  0  0  0  0  0  0  0
  148.2204  135.0804  152.9882 H   0  0  0  0  0  0  0  0  0  0  0  0
  1  2  1  0  0  0  0
  1 21  1  0  0  0  0
  1 22  1  0  0  0  0
  1 23  1  0  0  0  0
  2 20  1  0  0  0  0
  2  3  2  0  0  0  0
  3  4  1  0  0  0  0
  3 24  1  0  0  0  0
  4  5  1  0  0  0  0
  4 19  2  0  0  0  0
  5  6  1  0  0  0  0
  5 25  1  0  0  0  0
  6  7  2  0  0  0  0
  6  8  1  0  0  0  0
  8  9  1  0  0  0  0
  8 26  1  0  0  0  0
  9 10  1  0  0  0  0
  9 27  1  0  0  0  0
  9 28  1  0  0  0  0
 10 11  1  0  0  0  0
 10 12  1  0  0  0  0
 10 29  1  0  0  0  0
 11 30  1  0  0  0  0
 11 31  1  0  0  0  0
 11 32  1  0  0  0  0
 12 17  1  0  0  0  0
 12 13  1  0  0  0  0
 12 45  1  0  0  0  0
 13 14  1  0  0  0  0
 13 33  1  0  0  0  0
 13 34  1  0  0  0  0
 14 15  1  0  0  0  0
 14 35  1  0  0  0  0
 14 36  1  0  0  0  0
 15 16  1  0  0  0  0
 15 37  1  0  0  0  0
 15 38  1  0  0  0  0
 16 17  1  0  0  0  0
 16 39  1  0  0  0  0
 16 40  1  0  0  0  0
 17 18  1  0  0  0  0
 17 41  1  0  0  0  0
 18 42  1  0  0  0  0
 18 43  1  0  0  0  0
 18 44  1  0  0  0  0
 19 20  1  0  0  0  0
M  CHG  1  12   1
M  END
> <s_m_source_file>
AV-unprocessed.smi

> <i_m_source_file_index>
1978

> <i_lp_mmshare_version>
43012

> <i_f3d_flags>
0

> <s_epik_input>
W0NIM11jMVtjSF1jKG5vMSlbTkhdQyg9TylbTkhdW0NIMl1bQ0BIXShbQ0gzXSlOMltDSDJdW0NIMl1bQ0gyXVtDSDJdW0NASF0yW0NIM10=

> <s_epik_cmdline>
J2VwaWtfcHl0aG9uJywgJy1waCcsICc3LjAnLCAnLXRuJywgJzgnLCAnLW1hJywgJzIwMCcsICctbWV0YWxfYmluZGluZycsICctaW1hZScsICc8aW5maWxlLm1hZT4nLCAnLW9tYWUnLCAnPG91dGZpbGUubWFlPic=

> <r_epik_Ionization_Penalty>
0.00265971

> <r_epik_Ionization_Penalty_Charging>
0.00262393

> <r_epik_Ionization_Penalty_Neutral>
3.57846e-05

> <r_epik_State_Penalty>
0.00182566

> <r_epik_Charging_Adjusted_Penalty>
0.00444959

> <i_epik_Tot_Q>
1

> <i_epik_Tot_abs_Q>
1

> <r_epik_Metal_State_Penalty>
0.0216344

> <b_epik_Metal_Only>
0

> <s_lp_Force_Field>
OPLS_2005

> <r_lp_Energy>
21.464

> <b_lp_Chiralities_Consistent>
1

> <s_lp_Variant>
AV-unprocessed.smi:1978-5

> <Gold.Version>
5.8.1

> <Gold.Id.Protein>
6NUR|6NUR_protein|mol2

> <Gold.PLP.Fitness>
36.9446

> <Gold.PLP.PLP>
-27.0202

> <Gold.PLP.part.hbond>
-4.9939

> <Gold.PLP.part.metal>
0.0000

> <Gold.PLP.part.buried>
-3.3925

> <Gold.PLP.part.nonpolar>
-19.4354

> <Gold.PLP.part.repulsive>
0.3469

> <Gold.PLP.ligand.clash>
0.0000

> <Gold.PLP.ligand.torsion>
1.0962

> <Gold.PLP.Chemscore.Hbond>
4.0000

> <Gold.PLP.Chemscore.CHOScore>
0.0000

> <Gold.PLP.Chemscore.Metal>
0.0000

> <Gold.Chemscore.Hbonds>
donor molecule, donor type, donor heavy atom, donor atom, acceptor molecule, acceptor atom, score
      L1  H     8    26       P1  7949  0.95
      L1  H    12    45       P1  7948  2.00
      P1  H  7989  7998       L1    19  1.00

> <Gold.PLP.Chemscore.Internal.Correction>
0.1168

> <Gold.Rescore>
     Score         DG    S(hbond)    S(metal)    S(lipo)     H(rot)  DE(clash)    DE(int)     intcor
     13.09     -15.27       2.17        0.00      55.43       1.55       0.04       2.14       ----

> <Gold.Chemscore.Fitness>
13.0862

> <Gold.Chemscore.DG>
-15.2654

> <Gold.Chemscore.ZeroCoef>
-5.4800

> <Gold.Chemscore.Hbond>
2.1742

> <Gold.Chemscore.Metal>
0.0000

> <Gold.Chemscore.Lipo>
55.4259

> <Gold.Chemscore.Internal_Hbond>
0.0000

> <Gold.Chemscore.DEClash>
0.0417

> <Gold.Chemscore.DEInternal>
2.1374

> <Gold.Chemscore.Rot>
1.5474

> <Gold.Chemscore.Internal.Correction>
   9.000000E+99

> <Gold.Chemscore.Hbonds>
donor molecule, donor type, donor heavy atom, donor atom, acceptor molecule, acceptor atom, score
      L1  H     8    26       P1  7949  0.19
      L1  H    12    45       P1  7948  0.93
      P1  H  7989  7998       L1    19  0.38

> <Gold.Chemscore.Hbond.Weighted>
-7.2618

> <Gold.Chemscore.Metal.Weighted>
-0.0000

> <Gold.Chemscore.Lipo.Weighted>
-6.4848

> <Gold.Chemscore.Internal_Hbond.Weighted>
0.0000

> <Gold.Chemscore.DEClash.Weighted>
0.0417

> <Gold.Chemscore.DEInternal.Weighted>
2.1374

> <Gold.Chemscore.Rot.Weighted>
3.9612

> <Gold.Chemscore.Internal.Correction.Weighted>
   9.000000E+99

> <Gold.Protein.RotatedTorsions>
[ 6907 6896 6895 6894 ] final  175.54 input  -60.11 | X-H torsion
[ 7974 7965 7964 7962 ] final   82.38 input  175.53 | X-H torsion
[ 8008 7997 7996 7995 ] final  162.13 input   59.86 | X-H torsion
[ 10167 10162 10161 10158 ] final   45.73 input  -65.29 | X-H torsion
[ 10718 10713 10712 10709 ] final -121.59 input   66.30 | X-H torsion
[ 10763 10752 10751 10750 ] final  157.09 input  -60.55 | X-H torsion
[ 11005 11000 10999 10996 ] final -135.31 input  -57.11 | X-H torsion

> <Gold.Protein.ActiveResidues>
 VAL166  LYS551  ARG553  GLY616  TRP617  ASP618  TYR619  PRO620  LYS621  CYS622 
 ASP623  PHE694  ASN695  SER759  ASP760  ASP761  ALA762  ILE779  LEU786  VAL792 
 PHE793  MET794  SER795  GLU796  ALA797  LYS798  CYS799  TRP800  GLU811  SER814 

> <Gold.Protein.RotatedAtoms>
  151.7346  133.3319  159.3349 H   0  0  0  0  0  0  0  0  0  0  0  0  # atno 6907 bound_to 6896
  150.7598  134.6333  159.6207 H   0  0  0  0  0  0  0  0  0  0  0  0  # atno 6908 bound_to 6896
  152.3570  134.6928  160.0270 H   0  0  0  0  0  0  0  0  0  0  0  0  # atno 6909 bound_to 6896
  145.6258  139.2395  143.2113 H   0  0  0  0  0  0  0  0  0  0  0  0  # atno 7974 bound_to 7965
  156.2053  140.1758  156.7812 H   0  0  0  0  0  0  0  0  0  0  0  0  # atno 8008 bound_to 7997
  154.5647  140.0693  156.8904 H   0  0  0  0  0  0  0  0  0  0  0  0  # atno 8009 bound_to 7997
  155.2783  140.3347  155.4262 H   0  0  0  0  0  0  0  0  0  0  0  0  # atno 8010 bound_to 7997
  140.3212  144.2703  150.6182 H   0  0  0  0  0  0  0  0  0  0  0  0  # atno 10167 bound_to 10162
  156.1349  130.6423  150.9681 H   0  0  0  0  0  0  0  0  0  0  0  0  # atno 10718 bound_to 10713
  154.1947  135.2793  155.3010 H   0  0  0  0  0  0  0  0  0  0  0  0  # atno 10763 bound_to 10752
  154.5901  135.5562  153.7273 H   0  0  0  0  0  0  0  0  0  0  0  0  # atno 10764 bound_to 10752
  153.0103  135.6366  154.2086 H   0  0  0  0  0  0  0  0  0  0  0  0  # atno 10765 bound_to 10752
  140.8910  134.1811  157.4527 H   0  0  0  0  0  0  0  0  0  0  0  0  # atno 11005 bound_to 11000
  146.1396  140.7076  142.9373 LP  0  0  0  0  0  0  0  0  0  0  0  0  # atno 17320 bound_to 7965
  144.7213  140.4382  143.7006 LP  0  0  0  0  0  0  0  0  0  0  0  0  # atno 17321 bound_to 7965
  140.5482  143.2211  151.7972 LP  0  0  0  0  0  0  0  0  0  0  0  0  # atno 17342 bound_to 10162
  139.4874  144.4512  151.9652 LP  0  0  0  0  0  0  0  0  0  0  0  0  # atno 17343 bound_to 10162
  157.6523  131.0895  150.8024 LP  0  0  0  0  0  0  0  0  0  0  0  0  # atno 17370 bound_to 10713
  156.8105  130.4950  149.5356 LP  0  0  0  0  0  0  0  0  0  0  0  0  # atno 17371 bound_to 10713
  139.8730  134.9858  156.5299 LP  0  0  0  0  0  0  0  0  0  0  0  0  # atno 17394 bound_to 11000
  140.8346  133.8252  155.9017 LP  0  0  0  0  0  0  0  0  0  0  0  0  # atno 17395 bound_to 11000

$$$$
