AV-unprocessed.smi:648|AV-procd|sdf|3171|dock8
  -GOLD-   22720 0 93D 1   1.00000     0.00000
 Structure written by MMmdl.
 46 47  0  0  0  0  0  0  0  0  2 V2000
  144.6544  133.7156  151.3183 C   0  0  0  0  0  0  0  0  0  0  0  0
  144.6682  135.0672  152.0476 C   0  0  1  0  0  0  0  0  0  0  0  0
  143.7290  135.0445  153.2688 C   0  0  0  0  0  0  0  0  0  0  0  0
  143.6789  136.3817  154.0457 C   0  0  0  0  0  0  0  0  0  0  0  0
  142.8192  137.4232  153.2933 C   0  0  0  0  0  0  0  0  0  0  0  0
  142.9732  136.1309  155.3963 C   0  0  0  0  0  0  0  0  0  0  0  0
  145.1215  136.8880  154.3485 C   0  0  0  0  0  0  0  0  0  0  0  0
  146.1751  136.8263  153.1997 C   0  0  1  0  0  0  0  0  0  0  0  0
  145.9599  137.9841  152.1865 C   0  0  0  0  0  0  0  0  0  0  0  0
  146.4634  137.6609  150.9041 O   0  0  0  0  0  0  0  0  0  0  0  0
  147.5269  137.0721  153.7834 N   0  3  0  0  0  0  0  0  0  0  0  0
  147.9156  136.3728  155.0305 C   0  0  0  0  0  0  0  0  0  0  0  0
  149.4405  136.2086  155.1043 C   0  0  0  0  0  0  0  0  0  0  0  0
  150.1234  137.4874  155.0780 N   0  0  0  0  0  0  0  0  0  0  0  0
  150.1843  138.4226  154.1287 C   0  0  0  0  0  0  0  0  0  0  0  0
  150.9090  139.4804  154.4657 N   0  0  0  0  0  0  0  0  0  0  0  0
  151.2876  139.1067  155.7242 C   0  0  0  0  0  0  0  0  0  0  0  0
  150.8416  137.9212  156.1402 N   0  0  0  0  0  0  0  0  0  0  0  0
  146.0941  135.4431  152.4929 C   0  0  0  0  0  0  0  0  0  0  0  0
  145.0051  132.9098  151.9641 H   0  0  0  0  0  0  0  0  0  0  0  0
  145.2946  133.7383  150.4360 H   0  0  0  0  0  0  0  0  0  0  0  0
  143.6478  133.4604  150.9854 H   0  0  0  0  0  0  0  0  0  0  0  0
  144.3071  135.8061  151.3341 H   0  0  0  0  0  0  0  0  0  0  0  0
  142.7223  134.7633  152.9559 H   0  0  0  0  0  0  0  0  0  0  0  0
  144.0615  134.2508  153.9398 H   0  0  0  0  0  0  0  0  0  0  0  0
  142.9015  138.4113  153.7470 H   0  0  0  0  0  0  0  0  0  0  0  0
  141.7645  137.1465  153.3172 H   0  0  0  0  0  0  0  0  0  0  0  0
  143.0695  137.5155  152.2411 H   0  0  0  0  0  0  0  0  0  0  0  0
  142.9011  137.0475  155.9833 H   0  0  0  0  0  0  0  0  0  0  0  0
  143.5056  135.3967  156.0023 H   0  0  0  0  0  0  0  0  0  0  0  0
  141.9600  135.7531  155.2540 H   0  0  0  0  0  0  0  0  0  0  0  0
  145.0786  137.8988  154.7568 H   0  0  0  0  0  0  0  0  0  0  0  0
  145.4909  136.2784  155.1717 H   0  0  0  0  0  0  0  0  0  0  0  0
  144.9144  138.2340  152.0477 H   0  0  0  0  0  0  0  0  0  0  0  0
  146.4556  138.8938  152.5287 H   0  0  0  0  0  0  0  0  0  0  0  0
  145.8355  137.9412  150.2548 H   0  0  0  0  0  0  0  0  0  0  0  0
  148.2023  136.8115  153.0784 H   0  0  0  0  0  0  0  0  0  0  0  0
  147.5674  136.9199  155.9052 H   0  0  0  0  0  0  0  0  0  0  0  0
  147.4494  135.3874  155.0569 H   0  0  0  0  0  0  0  0  0  0  0  0
  149.7233  135.6824  156.0171 H   0  0  0  0  0  0  0  0  0  0  0  0
  149.8015  135.6095  154.2669 H   0  0  0  0  0  0  0  0  0  0  0  0
  149.6900  138.3295  153.1727 H   0  0  0  0  0  0  0  0  0  0  0  0
  151.9098  139.7266  156.3526 H   0  0  0  0  0  0  0  0  0  0  0  0
  146.4256  134.6529  153.1658 H   0  0  0  0  0  0  0  0  0  0  0  0
  146.7731  135.4119  151.6401 H   0  0  0  0  0  0  0  0  0  0  0  0
  147.6117  138.0663  153.9395 H   0  0  0  0  0  0  0  0  0  0  0  0
  1  2  1  0  0  0  0
  1 20  1  0  0  0  0
  1 21  1  0  0  0  0
  1 22  1  0  0  0  0
  2 19  1  0  0  0  0
  2  3  1  0  0  0  0
  2 23  1  0  0  0  0
  3  4  1  0  0  0  0
  3 24  1  0  0  0  0
  3 25  1  0  0  0  0
  4  5  1  0  0  0  0
  4  6  1  0  0  0  0
  4  7  1  0  0  0  0
  5 26  1  0  0  0  0
  5 27  1  0  0  0  0
  5 28  1  0  0  0  0
  6 29  1  0  0  0  0
  6 30  1  0  0  0  0
  6 31  1  0  0  0  0
  7  8  1  0  0  0  0
  7 32  1  0  0  0  0
  7 33  1  0  0  0  0
  8  9  1  0  0  0  0
  8 11  1  0  0  0  0
  8 19  1  0  0  0  0
  9 10  1  0  0  0  0
  9 34  1  0  0  0  0
  9 35  1  0  0  0  0
 10 36  1  0  0  0  0
 11 12  1  0  0  0  0
 11 37  1  0  0  0  0
 11 46  1  0  0  0  0
 12 13  1  0  0  0  0
 12 38  1  0  0  0  0
 12 39  1  0  0  0  0
 13 14  1  0  0  0  0
 13 40  1  0  0  0  0
 13 41  1  0  0  0  0
 14 18  1  0  0  0  0
 14 15  1  0  0  0  0
 15 16  2  0  0  0  0
 15 42  1  0  0  0  0
 16 17  1  0  0  0  0
 17 18  2  0  0  0  0
 17 43  1  0  0  0  0
 19 44  1  0  0  0  0
 19 45  1  0  0  0  0
M  CHG  1  11   1
M  END
> <s_m_source_file>
AV-unprocessed.smi

> <i_m_source_file_index>
648

> <i_lp_mmshare_version>
43012

> <i_f3d_flags>
0

> <s_epik_input>
W0NIM11DMShbQ0gzXSlbQ0gyXVtDQEBIXShbQ0gzXSlbQ0gyXVtDQF0oW0NIMl0xKShbQ0gyXVtPSF0pW05IXVtDSDJdW0NIMl1uMltjSF1uW2NIXW4y

> <s_epik_cmdline>
J2VwaWtfcHl0aG9uJywgJy1waCcsICc3LjAnLCAnLXRuJywgJzgnLCAnLW1hJywgJzIwMCcsICctbWV0YWxfYmluZGluZycsICctaW1hZScsICc8aW5maWxlLm1hZT4nLCAnLW9tYWUnLCAnPG91dGZpbGUubWFlPic=

> <r_lp_tautomer_probability>
1

> <r_epik_Ionization_Penalty>
0.00942316

> <r_epik_Ionization_Penalty_Charging>
0.00942185

> <r_epik_Ionization_Penalty_Neutral>
1.31257e-06

> <r_epik_State_Penalty>
0.00715409

> <r_epik_Charging_Adjusted_Penalty>
0.0165759

> <i_epik_Tot_Q>
1

> <i_epik_Tot_abs_Q>
1

> <r_epik_Metal_State_Penalty>
0.00715563

> <b_epik_Metal_Only>
0

> <s_lp_Force_Field>
OPLS_2005

> <r_lp_Energy>
31.5534

> <b_lp_Chiralities_Consistent>
1

> <s_lp_Variant>
AV-unprocessed.smi:648-2

> <Gold.Version>
5.8.1

> <Gold.Id.Protein>
6NUR|6NUR_protein|mol2

> <Gold.PLP.Fitness>
42.4047

> <Gold.PLP.PLP>
-23.4681

> <Gold.PLP.part.hbond>
-4.9446

> <Gold.PLP.part.metal>
0.0000

> <Gold.PLP.part.buried>
-0.8609

> <Gold.PLP.part.nonpolar>
-18.3540

> <Gold.PLP.part.repulsive>
0.1323

> <Gold.PLP.ligand.clash>
0.0000

> <Gold.PLP.ligand.torsion>
0.8208

> <Gold.PLP.Chemscore.Hbond>
4.9913

> <Gold.PLP.Chemscore.CHOScore>
1.8590

> <Gold.PLP.Chemscore.Metal>
0.0000

> <Gold.Chemscore.Hbonds>
donor molecule, donor type, donor heavy atom, donor atom, acceptor molecule, acceptor atom, score
      L1  H    10    36       P1 10171  0.82
      L1  H    11    37       P1  7948  2.00
      P1  H  7954  7966       L1    10  1.00
      P1  H  7989  7998       L1    16  1.00
      L1  C    15    42       P1  7948  0.98
      L1  C    15    42       P1  7957  0.76

> <Gold.PLP.Chemscore.Internal.Correction>
0.0273

> <Gold.Rescore>
     Score         DG    S(hbond)    S(metal)    S(lipo)     H(rot)  DE(clash)    DE(int)     intcor
     11.80     -14.15       3.56        0.00      41.90       3.17       1.28       1.08       ----

> <Gold.Chemscore.Fitness>
11.7981

> <Gold.Chemscore.DG>
-14.1524

> <Gold.Chemscore.ZeroCoef>
-5.4800

> <Gold.Chemscore.Hbond>
3.5623

> <Gold.Chemscore.Metal>
0.0000

> <Gold.Chemscore.Lipo>
41.9007

> <Gold.Chemscore.Internal_Hbond>
0.0000

> <Gold.Chemscore.DEClash>
1.2780

> <Gold.Chemscore.DEInternal>
1.0762

> <Gold.Chemscore.Rot>
3.1750

> <Gold.Chemscore.Internal.Correction>
   9.000000E+99

> <Gold.Chemscore.Hbonds>
donor molecule, donor type, donor heavy atom, donor atom, acceptor molecule, acceptor atom, score
      L1  H    10    36       P1 10171  0.77
      L1  H    11    37       P1  7948  0.94
      P1  H  7954  7966       L1    10  0.25
      P1  H  7989  7998       L1    16  1.00

> <Gold.Chemscore.Hbond.Weighted>
-11.8979

> <Gold.Chemscore.Metal.Weighted>
-0.0000

> <Gold.Chemscore.Lipo.Weighted>
-4.9024

> <Gold.Chemscore.Internal_Hbond.Weighted>
0.0000

> <Gold.Chemscore.DEClash.Weighted>
1.2780

> <Gold.Chemscore.DEInternal.Weighted>
1.0762

> <Gold.Chemscore.Rot.Weighted>
8.1279

> <Gold.Chemscore.Internal.Correction.Weighted>
   9.000000E+99

> <Gold.Protein.RotatedTorsions>
[ 6907 6896 6895 6894 ] final  -13.18 input  -60.11 | X-H torsion
[ 7974 7965 7964 7962 ] final  -74.40 input  175.53 | X-H torsion
[ 8008 7997 7996 7995 ] final  165.35 input   59.86 | X-H torsion
[ 10167 10162 10161 10158 ] final  110.04 input  -65.29 | X-H torsion
[ 10718 10713 10712 10709 ] final   -4.57 input   66.30 | X-H torsion
[ 10763 10752 10751 10750 ] final  118.11 input  -60.55 | X-H torsion
[ 11005 11000 10999 10996 ] final   45.71 input  -57.11 | X-H torsion

> <Gold.Protein.ActiveResidues>
 VAL166  LYS551  ARG553  GLY616  TRP617  ASP618  TYR619  PRO620  LYS621  CYS622 
 ASP623  PHE694  ASN695  SER759  ASP760  ASP761  ALA762  ILE779  LEU786  VAL792 
 PHE793  MET794  SER795  GLU796  ALA797  LYS798  CYS799  TRP800  GLU811  SER814 

> <Gold.Protein.RotatedAtoms>
  151.3590  135.0900  159.9427 H   0  0  0  0  0  0  0  0  0  0  0  0  # atno 6907 bound_to 6896
  152.5167  133.9277  159.7575 H   0  0  0  0  0  0  0  0  0  0  0  0  # atno 6908 bound_to 6896
  150.9667  133.6332  159.2774 H   0  0  0  0  0  0  0  0  0  0  0  0  # atno 6909 bound_to 6896
  145.6396  140.9315  143.1043 H   0  0  0  0  0  0  0  0  0  0  0  0  # atno 7974 bound_to 7965
  156.1807  140.1672  156.8279 H   0  0  0  0  0  0  0  0  0  0  0  0  # atno 8008 bound_to 7997
  154.5357  140.0747  156.8456 H   0  0  0  0  0  0  0  0  0  0  0  0  # atno 8009 bound_to 7997
  155.3316  140.3379  155.4242 H   0  0  0  0  0  0  0  0  0  0  0  0  # atno 8010 bound_to 7997
  139.6719  144.7125  151.1672 H   0  0  0  0  0  0  0  0  0  0  0  0  # atno 10167 bound_to 10162
  156.7593  130.5264  149.5788 H   0  0  0  0  0  0  0  0  0  0  0  0  # atno 10718 bound_to 10713
  153.5626  135.3518  155.2805 H   0  0  0  0  0  0  0  0  0  0  0  0  # atno 10763 bound_to 10752
  154.8693  135.4140  154.2813 H   0  0  0  0  0  0  0  0  0  0  0  0  # atno 10764 bound_to 10752
  153.3562  135.7057  153.6818 H   0  0  0  0  0  0  0  0  0  0  0  0  # atno 10765 bound_to 10752
  140.1435  134.4553  155.8433 H   0  0  0  0  0  0  0  0  0  0  0  0  # atno 11005 bound_to 11000
  144.7162  139.8187  143.7398 LP  0  0  0  0  0  0  0  0  0  0  0  0  # atno 17320 bound_to 7965
  146.1292  139.4324  143.0179 LP  0  0  0  0  0  0  0  0  0  0  0  0  # atno 17321 bound_to 7965
  140.7621  143.5831  150.8874 LP  0  0  0  0  0  0  0  0  0  0  0  0  # atno 17342 bound_to 10162
  139.9497  143.6286  152.3032 LP  0  0  0  0  0  0  0  0  0  0  0  0  # atno 17343 bound_to 10162
  156.1349  130.6204  151.0386 LP  0  0  0  0  0  0  0  0  0  0  0  0  # atno 17370 bound_to 10713
  157.6742  131.0854  150.7537 LP  0  0  0  0  0  0  0  0  0  0  0  0  # atno 17371 bound_to 10713
  141.2189  133.6842  156.7290 LP  0  0  0  0  0  0  0  0  0  0  0  0  # atno 17394 bound_to 11000
  140.2693  134.8405  157.3832 LP  0  0  0  0  0  0  0  0  0  0  0  0  # atno 17395 bound_to 11000

$$$$
