AV-unprocessed.smi:652|AV-procd|sdf|3199|dock8
  -GOLD-   22720 0133D 1   1.00000     0.00000
 Structure written by MMmdl.
 49 50  0  0  0  0  0  0  0  0  3 V2000
  148.9265  133.7767  155.3887 C   0  0  0  0  0  0  0  0  0  0  0  0
  149.7252  134.9708  154.8491 C   0  0  0  0  0  0  0  0  0  0  0  0
  150.8285  135.4022  155.8285 C   0  0  0  0  0  0  0  0  0  0  0  0
  148.8157  136.0817  154.5817 N   0  0  0  0  0  0  0  0  0  0  0  0
  148.0677  136.7135  155.5000 C   0  0  0  0  0  0  0  0  0  0  0  0
  148.0743  136.4177  156.6951 O   0  0  0  0  0  0  0  0  0  0  0  0
  147.1799  137.8501  154.9813 C   0  0  0  0  0  0  0  0  0  0  0  0
  147.4834  139.2070  155.6505 C   0  0  0  0  0  0  0  0  0  0  0  0
  148.1490  140.1616  154.7239 N   0  3  2  0  0  0  0  0  0  0  0  0
  148.9760  139.4988  153.6855 C   0  0  0  0  0  0  0  0  0  0  0  0
  150.3165  139.0146  154.2670 C   0  0  0  0  0  0  0  0  0  0  0  0
  151.0141  140.1171  154.8343 O   0  0  0  0  0  0  0  0  0  0  0  0
  150.2940  140.7335  155.8973 C   0  0  1  0  0  0  0  0  0  0  0  0
  151.1727  141.8364  156.5136 C   0  0  0  0  0  0  0  0  0  0  0  0
  150.3889  142.9300  157.0716 N   0  0  0  0  0  0  0  0  0  0  0  0
  150.8266  143.6042  158.2194 C   0  0  0  0  0  0  0  0  0  0  0  0
  152.0213  143.2992  158.9122 C   0  0  0  0  0  0  0  0  0  0  0  0
  152.3437  144.0582  160.0502 C   0  0  0  0  0  0  0  0  0  0  0  0
  151.4514  145.0771  160.4282 C   0  0  0  0  0  0  0  0  0  0  0  0
  150.3135  145.3527  159.7526 N   0  0  0  0  0  0  0  0  0  0  0  0
  150.0329  144.6091  158.6680 N   0  3  0  0  0  0  0  0  0  0  0  0
  148.9239  141.2425  155.3874 C   0  0  0  0  0  0  0  0  0  0  0  0
  149.5775  132.9210  155.5700 H   0  0  0  0  0  0  0  0  0  0  0  0
  148.1605  133.4618  154.6790 H   0  0  0  0  0  0  0  0  0  0  0  0
  148.4306  134.0216  156.3289 H   0  0  0  0  0  0  0  0  0  0  0  0
  150.1928  134.6611  153.9125 H   0  0  0  0  0  0  0  0  0  0  0  0
  151.5144  134.5791  156.0315 H   0  0  0  0  0  0  0  0  0  0  0  0
  150.4088  135.7269  156.7813 H   0  0  0  0  0  0  0  0  0  0  0  0
  151.4184  136.2259  155.4254 H   0  0  0  0  0  0  0  0  0  0  0  0
  148.7518  136.3918  153.6228 H   0  0  0  0  0  0  0  0  0  0  0  0
  147.3248  137.9276  153.9029 H   0  0  0  0  0  0  0  0  0  0  0  0
  146.1381  137.5708  155.1386 H   0  0  0  0  0  0  0  0  0  0  0  0
  146.5755  139.6421  156.0688 H   0  0  0  0  0  0  0  0  0  0  0  0
  148.1516  139.0291  156.4946 H   0  0  0  0  0  0  0  0  0  0  0  0
  148.4314  138.6728  153.2261 H   0  0  0  0  0  0  0  0  0  0  0  0
  149.1681  140.2170  152.8873 H   0  0  0  0  0  0  0  0  0  0  0  0
  150.1667  138.2349  155.0153 H   0  0  0  0  0  0  0  0  0  0  0  0
  150.9308  138.5806  153.4780 H   0  0  0  0  0  0  0  0  0  0  0  0
  150.1320  139.9869  156.6759 H   0  0  0  0  0  0  0  0  0  0  0  0
  151.7967  141.4086  157.2993 H   0  0  0  0  0  0  0  0  0  0  0  0
  151.8442  142.2327  155.7508 H   0  0  0  0  0  0  0  0  0  0  0  0
  149.6539  143.3340  156.5088 H   0  0  0  0  0  0  0  0  0  0  0  0
  152.6819  142.5071  158.5923 H   0  0  0  0  0  0  0  0  0  0  0  0
  153.2438  143.8665  160.6156 H   0  0  0  0  0  0  0  0  0  0  0  0
  151.6538  145.6880  161.2958 H   0  0  0  0  0  0  0  0  0  0  0  0
  149.0749  142.0325  154.6510 H   0  0  0  0  0  0  0  0  0  0  0  0
  148.3552  141.6940  156.1992 H   0  0  0  0  0  0  0  0  0  0  0  0
  147.3934  140.6103  154.2254 H   0  0  0  0  0  0  0  0  0  0  0  0
  149.1761  144.8132  158.1530 H   0  0  0  0  0  0  0  0  0  0  0  0
  1  2  1  0  0  0  0
  1 23  1  0  0  0  0
  1 24  1  0  0  0  0
  1 25  1  0  0  0  0
  2  3  1  0  0  0  0
  2  4  1  0  0  0  0
  2 26  1  0  0  0  0
  3 27  1  0  0  0  0
  3 28  1  0  0  0  0
  3 29  1  0  0  0  0
  4  5  1  0  0  0  0
  4 30  1  0  0  0  0
  5  6  2  0  0  0  0
  5  7  1  0  0  0  0
  7  8  1  0  0  0  0
  7 31  1  0  0  0  0
  7 32  1  0  0  0  0
  8  9  1  0  0  0  0
  8 33  1  0  0  0  0
  8 34  1  0  0  0  0
  9 22  1  0  0  0  0
  9 10  1  0  0  0  0
  9 48  1  0  0  0  0
 10 11  1  0  0  0  0
 10 35  1  0  0  0  0
 10 36  1  0  0  0  0
 11 12  1  0  0  0  0
 11 37  1  0  0  0  0
 11 38  1  0  0  0  0
 12 13  1  0  0  0  0
 13 14  1  0  0  0  0
 13 22  1  0  0  0  0
 13 39  1  0  0  0  0
 14 15  1  0  0  0  0
 14 40  1  0  0  0  0
 14 41  1  0  0  0  0
 15 16  1  0  0  0  0
 15 42  1  0  0  0  0
 16 21  1  0  0  0  0
 16 17  2  0  0  0  0
 17 18  1  0  0  0  0
 17 43  1  0  0  0  0
 18 19  2  0  0  0  0
 18 44  1  0  0  0  0
 19 20  1  0  0  0  0
 19 45  1  0  0  0  0
 20 21  2  0  0  0  0
 21 49  1  0  0  0  0
 22 46  1  0  0  0  0
 22 47  1  0  0  0  0
M  CHG  1   9   1
M  CHG  1  21   1
M  END
> <s_m_source_file>
AV-unprocessed.smi

> <i_m_source_file_index>
652

> <i_lp_mmshare_version>
43012

> <i_f3d_flags>
0

> <s_epik_input>
W0NIM11bQ0hdKFtDSDNdKVtOSF1DKD1PKVtDSDJdW0NIMl1OMVtDSDJdW0NIMl1PW0NASF0oW0NIMl0xKVtDSDJdW05IXWMyW2NIXVtjSF1bY0hdbm4y

> <s_epik_cmdline>
J2VwaWtfcHl0aG9uJywgJy1waCcsICc3LjAnLCAnLXRuJywgJzgnLCAnLW1hJywgJzIwMCcsICctbWV0YWxfYmluZGluZycsICctaW1hZScsICc8aW5maWxlLm1hZT4nLCAnLW9tYWUnLCAnPG91dGZpbGUubWFlPic=

> <r_lp_tautomer_probability>
0.966961

> <r_epik_Ionization_Penalty>
2.79885

> <r_epik_Ionization_Penalty_Charging>
2.79884

> <r_epik_Ionization_Penalty_Neutral>
3.2567e-06

> <r_epik_State_Penalty>
2.43203

> <r_epik_Charging_Adjusted_Penalty>
5.23087

> <i_epik_Tot_Q>
2

> <i_epik_Tot_abs_Q>
2

> <r_epik_Metal_State_Penalty>
2.43963

> <b_epik_Metal_Only>
0

> <s_lp_Force_Field>
OPLS_2005

> <r_lp_Energy>
35.8493

> <b_lp_Chiralities_Consistent>
1

> <s_lp_Variant>
AV-unprocessed.smi:652-8

> <Gold.Version>
5.8.1

> <Gold.Id.Protein>
6NUR|6NUR_protein|mol2

> <Gold.PLP.Fitness>
50.3860

> <Gold.PLP.PLP>
-34.8206

> <Gold.PLP.part.hbond>
-5.4097

> <Gold.PLP.part.metal>
0.0000

> <Gold.PLP.part.buried>
-2.9934

> <Gold.PLP.part.nonpolar>
-27.8442

> <Gold.PLP.part.repulsive>
0.4955

> <Gold.PLP.ligand.clash>
0.0000

> <Gold.PLP.ligand.torsion>
1.2382

> <Gold.PLP.Chemscore.Hbond>
5.9840

> <Gold.PLP.Chemscore.CHOScore>
0.0000

> <Gold.PLP.Chemscore.Metal>
0.0000

> <Gold.Chemscore.Hbonds>
donor molecule, donor type, donor heavy atom, donor atom, acceptor molecule, acceptor atom, score
      L1  H     4    30       P1  7948  1.00
      L1  H    15    42       P1  8028  2.00
      L1  H    21    49       P1  8029  2.00
      P1  H  7989  7998       L1    12  1.00

> <Gold.PLP.Chemscore.Internal.Correction>
0.0898

> <Gold.Rescore>
     Score         DG    S(hbond)    S(metal)    S(lipo)     H(rot)  DE(clash)    DE(int)     intcor
     16.51     -19.03       3.03        0.00      80.29       2.33       0.24       2.28       ----

> <Gold.Chemscore.Fitness>
16.5083

> <Gold.Chemscore.DG>
-19.0274

> <Gold.Chemscore.ZeroCoef>
-5.4800

> <Gold.Chemscore.Hbond>
3.0316

> <Gold.Chemscore.Metal>
0.0000

> <Gold.Chemscore.Lipo>
80.2851

> <Gold.Chemscore.Internal_Hbond>
0.0000

> <Gold.Chemscore.DEClash>
0.2386

> <Gold.Chemscore.DEInternal>
2.2805

> <Gold.Chemscore.Rot>
2.3326

> <Gold.Chemscore.Internal.Correction>
   9.000000E+99

> <Gold.Chemscore.Hbonds>
donor molecule, donor type, donor heavy atom, donor atom, acceptor molecule, acceptor atom, score
      L1  H     4    30       P1  7948  0.98
      L1  H    15    42       P1  8028  0.95
      L1  H    21    49       P1  8029  0.29
      P1  H  7989  7998       L1    12  0.39

> <Gold.Chemscore.Hbond.Weighted>
-10.1255

> <Gold.Chemscore.Metal.Weighted>
-0.0000

> <Gold.Chemscore.Lipo.Weighted>
-9.3934

> <Gold.Chemscore.Internal_Hbond.Weighted>
0.0000

> <Gold.Chemscore.DEClash.Weighted>
0.2386

> <Gold.Chemscore.DEInternal.Weighted>
2.2805

> <Gold.Chemscore.Rot.Weighted>
5.9714

> <Gold.Chemscore.Internal.Correction.Weighted>
   9.000000E+99

> <Gold.Protein.RotatedTorsions>
[ 6907 6896 6895 6894 ] final   -3.33 input  -60.11 | X-H torsion
[ 7974 7965 7964 7962 ] final  -54.83 input  175.53 | X-H torsion
[ 8008 7997 7996 7995 ] final   23.24 input   59.86 | X-H torsion
[ 10167 10162 10161 10158 ] final -171.49 input  -65.29 | X-H torsion
[ 10718 10713 10712 10709 ] final   -8.42 input   66.30 | X-H torsion
[ 10763 10752 10751 10750 ] final   58.51 input  -60.55 | X-H torsion
[ 11005 11000 10999 10996 ] final  -51.03 input  -57.11 | X-H torsion

> <Gold.Protein.ActiveResidues>
 VAL166  LYS551  ARG553  GLY616  TRP617  ASP618  TYR619  PRO620  LYS621  CYS622 
 ASP623  PHE694  ASN695  SER759  ASP760  ASP761  ALA762  ILE779  LEU786  VAL792 
 PHE793  MET794  SER795  GLU796  ALA797  LYS798  CYS799  TRP800  GLU811  SER814 

> <Gold.Protein.RotatedAtoms>
  151.5154  135.1066  159.9864 H   0  0  0  0  0  0  0  0  0  0  0  0  # atno 6907 bound_to 6896
  152.4643  133.7886  159.6900 H   0  0  0  0  0  0  0  0  0  0  0  0  # atno 6908 bound_to 6896
  150.8620  133.7566  159.3014 H   0  0  0  0  0  0  0  0  0  0  0  0  # atno 6909 bound_to 6896
  145.8811  140.8143  142.9839 H   0  0  0  0  0  0  0  0  0  0  0  0  # atno 7974 bound_to 7965
  154.9779  140.3098  155.4959 H   0  0  0  0  0  0  0  0  0  0  0  0  # atno 8008 bound_to 7997
  156.2957  140.2272  156.4815 H   0  0  0  0  0  0  0  0  0  0  0  0  # atno 8009 bound_to 7997
  154.7816  140.0445  157.1120 H   0  0  0  0  0  0  0  0  0  0  0  0  # atno 8010 bound_to 7997
  139.5799  144.1446  152.1501 H   0  0  0  0  0  0  0  0  0  0  0  0  # atno 10167 bound_to 10162
  156.7028  130.5098  149.5912 H   0  0  0  0  0  0  0  0  0  0  0  0  # atno 10718 bound_to 10713
  152.9872  135.5604  154.5563 H   0  0  0  0  0  0  0  0  0  0  0  0  # atno 10763 bound_to 10752
  154.4991  135.2796  155.1437 H   0  0  0  0  0  0  0  0  0  0  0  0  # atno 10764 bound_to 10752
  154.2875  135.6332  153.5425 H   0  0  0  0  0  0  0  0  0  0  0  0  # atno 10765 bound_to 10752
  141.0849  133.6645  156.3818 H   0  0  0  0  0  0  0  0  0  0  0  0  # atno 11005 bound_to 11000
  144.6727  140.1385  143.7439 LP  0  0  0  0  0  0  0  0  0  0  0  0  # atno 17320 bound_to 7965
  145.9022  139.2437  143.1487 LP  0  0  0  0  0  0  0  0  0  0  0  0  # atno 17321 bound_to 7965
  140.0997  144.5550  150.6997 LP  0  0  0  0  0  0  0  0  0  0  0  0  # atno 17342 bound_to 10162
  140.7079  143.2482  151.4672 LP  0  0  0  0  0  0  0  0  0  0  0  0  # atno 17343 bound_to 10162
  156.1716  130.6441  151.0844 LP  0  0  0  0  0  0  0  0  0  0  0  0  # atno 17370 bound_to 10713
  157.6966  131.0791  150.6949 LP  0  0  0  0  0  0  0  0  0  0  0  0  # atno 17371 bound_to 10713
  140.5386  134.6143  157.5372 LP  0  0  0  0  0  0  0  0  0  0  0  0  # atno 17394 bound_to 11000
  139.9666  134.7363  156.0126 LP  0  0  0  0  0  0  0  0  0  0  0  0  # atno 17395 bound_to 11000

$$$$
