AV-unprocessed.smi:3025|AV-procd|sdf|11510|dock7
  -GOLD-   2272016443D 1   1.00000     0.00000
 Structure written by MMmdl.
 42 43  0  0  0  0  0  0  0  0  2 V2000
  143.5397  132.4993  150.7931 C   0  0  0  0  0  0  0  0  0  0  0  0
  144.7471  133.3529  150.3904 C   0  0  0  0  0  0  0  0  0  0  0  0
  144.5510  134.8417  150.7231 C   0  0  0  0  0  0  0  0  0  0  0  0
  144.8195  135.2012  152.1993 C   0  0  2  0  0  0  0  0  0  0  0  0
  144.6159  136.7033  152.4917 C   0  0  0  0  0  0  0  0  0  0  0  0
  144.9090  137.0442  153.9631 C   0  0  0  0  0  0  0  0  0  0  0  0
  146.3235  136.6063  154.3986 C   0  0  2  0  0  0  0  0  0  0  0  0
  147.3881  137.4247  153.7719 N   0  3  0  0  0  0  0  0  0  0  0  0
  148.4683  137.8653  154.6793 C   0  0  0  0  0  0  0  0  0  0  0  0
  149.2691  139.0195  154.0621 C   0  0  0  0  0  0  0  0  0  0  0  0
  150.6939  139.0256  154.5104 C   0  0  0  0  0  0  0  0  0  0  0  0
  151.3482  140.1095  154.9440 N   0  0  0  0  0  0  0  0  0  0  0  0
  152.6210  139.6697  155.2714 N   0  0  0  0  0  0  0  0  0  0  0  0
  152.6102  138.3627  155.0052 C   0  0  0  0  0  0  0  0  0  0  0  0
  151.4414  137.9116  154.5342 N   0  0  0  0  0  0  0  0  0  0  0  0
  146.5396  135.1141  154.0853 C   0  0  0  0  0  0  0  0  0  0  0  0
  146.2420  134.7752  152.6140 C   0  0  0  0  0  0  0  0  0  0  0  0
  151.1913  136.9711  154.2650 H   0  0  0  0  0  0  0  0  0  0  0  0
  143.7078  131.4498  150.5504 H   0  0  0  0  0  0  0  0  0  0  0  0
  142.6375  132.8203  150.2716 H   0  0  0  0  0  0  0  0  0  0  0  0
  143.3496  132.5664  151.8646 H   0  0  0  0  0  0  0  0  0  0  0  0
  145.6311  132.9660  150.8967 H   0  0  0  0  0  0  0  0  0  0  0  0
  144.9261  133.2362  149.3210 H   0  0  0  0  0  0  0  0  0  0  0  0
  145.2269  135.4213  150.0926 H   0  0  0  0  0  0  0  0  0  0  0  0
  143.5427  135.1511  150.4452 H   0  0  0  0  0  0  0  0  0  0  0  0
  144.1159  134.6368  152.8135 H   0  0  0  0  0  0  0  0  0  0  0  0
  145.2577  137.2985  151.8409 H   0  0  0  0  0  0  0  0  0  0  0  0
  143.5922  136.9992  152.2646 H   0  0  0  0  0  0  0  0  0  0  0  0
  144.7530  138.1082  154.1389 H   0  0  0  0  0  0  0  0  0  0  0  0
  144.1760  136.5348  154.5903 H   0  0  0  0  0  0  0  0  0  0  0  0
  146.4120  136.7314  155.4787 H   0  0  0  0  0  0  0  0  0  0  0  0
  147.8144  136.8638  153.0482 H   0  0  0  0  0  0  0  0  0  0  0  0
  148.0429  138.1835  155.6312 H   0  0  0  0  0  0  0  0  0  0  0  0
  149.1336  137.0261  154.8862 H   0  0  0  0  0  0  0  0  0  0  0  0
  149.2404  138.9580  152.9732 H   0  0  0  0  0  0  0  0  0  0  0  0
  148.8189  139.9758  154.3323 H   0  0  0  0  0  0  0  0  0  0  0  0
  153.4686  137.7253  155.1590 H   0  0  0  0  0  0  0  0  0  0  0  0
  147.5583  134.8177  154.3386 H   0  0  0  0  0  0  0  0  0  0  0  0
  145.8854  134.5179  154.7227 H   0  0  0  0  0  0  0  0  0  0  0  0
  146.3673  133.7024  152.4620 H   0  0  0  0  0  0  0  0  0  0  0  0
  146.9756  135.2604  151.9686 H   0  0  0  0  0  0  0  0  0  0  0  0
  146.9647  138.2341  153.3404 H   0  0  0  0  0  0  0  0  0  0  0  0
  1  2  1  0  0  0  0
  1 19  1  0  0  0  0
  1 20  1  0  0  0  0
  1 21  1  0  0  0  0
  2  3  1  0  0  0  0
  2 22  1  0  0  0  0
  2 23  1  0  0  0  0
  3  4  1  0  0  0  0
  3 24  1  0  0  0  0
  3 25  1  0  0  0  0
  4 17  1  0  0  0  0
  4  5  1  0  0  0  0
  4 26  1  0  0  0  0
  5  6  1  0  0  0  0
  5 27  1  0  0  0  0
  5 28  1  0  0  0  0
  6  7  1  0  0  0  0
  6 29  1  0  0  0  0
  6 30  1  0  0  0  0
  7  8  1  0  0  0  0
  7 16  1  0  0  0  0
  7 31  1  0  0  0  0
  8  9  1  0  0  0  0
  8 32  1  0  0  0  0
  8 42  1  0  0  0  0
  9 10  1  0  0  0  0
  9 33  1  0  0  0  0
  9 34  1  0  0  0  0
 10 11  1  0  0  0  0
 10 35  1  0  0  0  0
 10 36  1  0  0  0  0
 11 15  1  0  0  0  0
 11 12  2  0  0  0  0
 12 13  1  0  0  0  0
 13 14  2  0  0  0  0
 14 15  1  0  0  0  0
 14 37  1  0  0  0  0
 15 18  1  0  0  0  0
 16 17  1  0  0  0  0
 16 38  1  0  0  0  0
 16 39  1  0  0  0  0
 17 40  1  0  0  0  0
 17 41  1  0  0  0  0
M  CHG  1   8   1
M  END
> <s_m_source_file>
AV-unprocessed.smi

> <i_m_source_file_index>
3025

> <i_lp_mmshare_version>
43012

> <i_f3d_flags>
0

> <s_epik_input>
W0NIM11bQ0gyXVtDSDJdW0NAQEhdMVtDSDJdW0NIMl1bQ0BIXShbQ0gyXVtDSDJdMSlbTkhdW0NIMl1bQ0gyXWMybm5bY0hdW25IXTI=

> <s_epik_cmdline>
J2VwaWtfcHl0aG9uJywgJy1waCcsICc3LjAnLCAnLXRuJywgJzgnLCAnLW1hJywgJzIwMCcsICctbWV0YWxfYmluZGluZycsICctaW1hZScsICc8aW5maWxlLm1hZT4nLCAnLW9tYWUnLCAnPG91dGZpbGUubWFlPic=

> <r_lp_tautomer_probability>
0.0517155

> <r_epik_Ionization_Penalty>
0.0349397

> <r_epik_Ionization_Penalty_Charging>
0.000546397

> <r_epik_Ionization_Penalty_Neutral>
0.0343933

> <r_epik_State_Penalty>
2.24019

> <r_epik_Charging_Adjusted_Penalty>
2.24074

> <i_epik_Tot_Q>
1

> <i_epik_Tot_abs_Q>
1

> <r_epik_Metal_State_Penalty>
2.47389

> <b_epik_Metal_Only>
0

> <s_lp_Force_Field>
OPLS_2005

> <r_lp_Energy>
17.8014

> <b_lp_Chiralities_Consistent>
1

> <s_lp_Variant>
AV-unprocessed.smi:3025-6

> <Gold.Version>
5.8.1

> <Gold.Id.Protein>
6NUR|6NUR_protein|mol2

> <Gold.PLP.Fitness>
37.6001

> <Gold.PLP.PLP>
-27.8213

> <Gold.PLP.part.hbond>
-3.7681

> <Gold.PLP.part.metal>
0.0000

> <Gold.PLP.part.buried>
-4.2184

> <Gold.PLP.part.nonpolar>
-20.7305

> <Gold.PLP.part.repulsive>
0.1712

> <Gold.PLP.ligand.clash>
0.0000

> <Gold.PLP.ligand.torsion>
1.1225

> <Gold.PLP.Chemscore.Hbond>
4.0000

> <Gold.PLP.Chemscore.CHOScore>
0.0000

> <Gold.PLP.Chemscore.Metal>
0.0000

> <Gold.Chemscore.Hbonds>
donor molecule, donor type, donor heavy atom, donor atom, acceptor molecule, acceptor atom, score
      L1  H     8    32       P1  7948  2.00
      P1  H  7989  7998       L1    12  1.00
      P1  H  7997  8010       L1    13  1.00

> <Gold.PLP.Chemscore.Internal.Correction>
0.0237

> <Gold.Rescore>
     Score         DG    S(hbond)    S(metal)    S(lipo)     H(rot)  DE(clash)    DE(int)     intcor
     13.27     -14.42       2.93        0.00      48.87       2.56       0.05       1.10       ----

> <Gold.Chemscore.Fitness>
13.2698

> <Gold.Chemscore.DG>
-14.4159

> <Gold.Chemscore.ZeroCoef>
-5.4800

> <Gold.Chemscore.Hbond>
2.9258

> <Gold.Chemscore.Metal>
0.0000

> <Gold.Chemscore.Lipo>
48.8713

> <Gold.Chemscore.Internal_Hbond>
0.0000

> <Gold.Chemscore.DEClash>
0.0457

> <Gold.Chemscore.DEInternal>
1.1004

> <Gold.Chemscore.Rot>
2.5602

> <Gold.Chemscore.Internal.Correction>
   9.000000E+99

> <Gold.Chemscore.Hbonds>
donor molecule, donor type, donor heavy atom, donor atom, acceptor molecule, acceptor atom, score
      L1  H     8    32       P1  7948  1.00
      P1  H  7989  7998       L1    12  0.08
      P1  H  7997  8010       L1    13  0.68

> <Gold.Chemscore.Hbond.Weighted>
-9.7722

> <Gold.Chemscore.Metal.Weighted>
-0.0000

> <Gold.Chemscore.Lipo.Weighted>
-5.7179

> <Gold.Chemscore.Internal_Hbond.Weighted>
0.0000

> <Gold.Chemscore.DEClash.Weighted>
0.0457

> <Gold.Chemscore.DEInternal.Weighted>
1.1004

> <Gold.Chemscore.Rot.Weighted>
6.5542

> <Gold.Chemscore.Internal.Correction.Weighted>
   9.000000E+99

> <Gold.Protein.RotatedTorsions>
[ 6907 6896 6895 6894 ] final -153.47 input  -60.11 | X-H torsion
[ 7974 7965 7964 7962 ] final  117.65 input  175.53 | X-H torsion
[ 8008 7997 7996 7995 ] final  101.60 input   59.86 | X-H torsion
[ 10167 10162 10161 10158 ] final    3.91 input  -65.29 | X-H torsion
[ 10718 10713 10712 10709 ] final -100.19 input   66.30 | X-H torsion
[ 10763 10752 10751 10750 ] final  -71.12 input  -60.55 | X-H torsion
[ 11005 11000 10999 10996 ] final   13.21 input  -57.11 | X-H torsion

> <Gold.Protein.ActiveResidues>
 VAL166  LYS551  ARG553  GLY616  TRP617  ASP618  TYR619  PRO620  LYS621  CYS622 
 ASP623  PHE694  ASN695  SER759  ASP760  ASP761  ALA762  ILE779  LEU786  VAL792 
 PHE793  MET794  SER795  GLU796  ALA797  LYS798  CYS799  TRP800  GLU811  SER814 

> <Gold.Protein.RotatedAtoms>
  151.2431  133.4389  159.2607 H   0  0  0  0  0  0  0  0  0  0  0  0  # atno 6907 bound_to 6896
  151.0687  134.9784  159.8308 H   0  0  0  0  0  0  0  0  0  0  0  0  # atno 6908 bound_to 6896
  152.5409  134.2377  159.8902 H   0  0  0  0  0  0  0  0  0  0  0  0  # atno 6909 bound_to 6896
  145.1648  139.3134  143.4498 H   0  0  0  0  0  0  0  0  0  0  0  0  # atno 7974 bound_to 7965
  156.1315  140.3195  155.8356 H   0  0  0  0  0  0  0  0  0  0  0  0  # atno 8008 bound_to 7997
  155.4323  140.0519  157.3034 H   0  0  0  0  0  0  0  0  0  0  0  0  # atno 8009 bound_to 7997
  154.4903  140.2089  155.9576 H   0  0  0  0  0  0  0  0  0  0  0  0  # atno 8010 bound_to 7997
  140.6562  143.7421  150.7657 H   0  0  0  0  0  0  0  0  0  0  0  0  # atno 10167 bound_to 10162
  156.0156  130.5316  150.6781 H   0  0  0  0  0  0  0  0  0  0  0  0  # atno 10718 bound_to 10713
  154.4272  135.5972  153.6046 H   0  0  0  0  0  0  0  0  0  0  0  0  # atno 10763 bound_to 10752
  152.9797  135.5966  154.3883 H   0  0  0  0  0  0  0  0  0  0  0  0  # atno 10764 bound_to 10752
  154.3716  135.2841  155.2242 H   0  0  0  0  0  0  0  0  0  0  0  0  # atno 10765 bound_to 10752
  140.4833  134.0913  155.7755 H   0  0  0  0  0  0  0  0  0  0  0  0  # atno 11005 bound_to 11000
  146.3477  140.1772  142.8589 LP  0  0  0  0  0  0  0  0  0  0  0  0  # atno 17320 bound_to 7965
  145.0293  140.8858  143.5119 LP  0  0  0  0  0  0  0  0  0  0  0  0  # atno 17321 bound_to 7965
  140.1082  143.4724  152.2386 LP  0  0  0  0  0  0  0  0  0  0  0  0  # atno 17342 bound_to 10162
  139.5785  144.7499  151.3702 LP  0  0  0  0  0  0  0  0  0  0  0  0  # atno 17343 bound_to 10162
  157.4489  131.0870  151.0866 LP  0  0  0  0  0  0  0  0  0  0  0  0  # atno 17370 bound_to 10713
  157.1388  130.6134  149.5549 LP  0  0  0  0  0  0  0  0  0  0  0  0  # atno 17371 bound_to 10713
  141.1520  133.8951  157.2073 LP  0  0  0  0  0  0  0  0  0  0  0  0  # atno 17394 bound_to 11000
  139.9813  135.0097  156.9756 LP  0  0  0  0  0  0  0  0  0  0  0  0  # atno 17395 bound_to 11000

$$$$
