AV-unprocessed.smi:2834|AV-procd|sdf|10917|dock2
  -GOLD-   2272015363D 1   1.00000     0.00000
 Structure written by MMmdl.
 35 36  0  0  0  0  0  0  0  0  1 V2000
  146.5471  138.2019  151.8418 C   0  0  0  0  0  0  0  0  0  0  0  0
  145.5402  137.1314  152.3160 C   0  0  2  0  0  0  0  0  0  0  0  0
  144.2379  137.7445  152.6017 N   0  0  0  0  0  0  0  0  0  0  0  0
  143.1307  137.1302  153.0497 C   0  0  0  0  0  0  0  0  0  0  0  0
  143.0684  135.9275  153.3047 O   0  0  0  0  0  0  0  0  0  0  0  0
  142.1142  137.9980  153.1807 N   0  0  0  0  0  0  0  0  0  0  0  0
  140.7892  137.7142  153.5979 C   0  0  0  0  0  0  0  0  0  0  0  0
  140.4308  136.6957  154.5187 C   0  0  0  0  0  0  0  0  0  0  0  0
  139.1220  136.6705  154.7198 N   0  0  0  0  0  0  0  0  0  0  0  0
  138.6268  137.6628  153.9390 N   0  0  0  0  0  0  0  0  0  0  0  0
  137.1984  137.9209  153.9240 C   0  0  0  0  0  0  0  0  0  0  0  0
  136.6175  138.0824  155.3383 C   0  0  0  0  0  0  0  0  0  0  0  0
  137.0900  137.1111  156.1188 F   0  0  0  0  0  0  0  0  0  0  0  0
  136.9697  139.2576  155.8601 F   0  0  0  0  0  0  0  0  0  0  0  0
  135.2874  137.9957  155.3086 F   0  0  0  0  0  0  0  0  0  0  0  0
  139.6186  138.3203  153.2388 C   0  0  0  0  0  0  0  0  0  0  0  0
  146.0569  136.4258  153.5787 C   0  0  0  0  0  0  0  0  0  0  0  0
  146.0477  134.9413  153.2253 C   0  0  0  0  0  0  0  0  0  0  0  0
  146.2494  134.9448  151.8248 O   0  0  0  0  0  0  0  0  0  0  0  0
  145.4180  135.9691  151.3064 C   0  0  0  0  0  0  0  0  0  0  0  0
  147.5309  137.7661  151.6646 H   0  0  0  0  0  0  0  0  0  0  0  0
  146.6640  138.9905  152.5858 H   0  0  0  0  0  0  0  0  0  0  0  0
  146.2338  138.6720  150.9096 H   0  0  0  0  0  0  0  0  0  0  0  0
  144.1745  138.7372  152.4305 H   0  0  0  0  0  0  0  0  0  0  0  0
  142.3038  138.9607  152.9439 H   0  0  0  0  0  0  0  0  0  0  0  0
  141.0622  135.9902  155.0385 H   0  0  0  0  0  0  0  0  0  0  0  0
  137.0203  138.8241  153.3391 H   0  0  0  0  0  0  0  0  0  0  0  0
  136.6975  137.1055  153.3995 H   0  0  0  0  0  0  0  0  0  0  0  0
  139.4006  139.1400  152.5703 H   0  0  0  0  0  0  0  0  0  0  0  0
  147.0796  136.7325  153.8026 H   0  0  0  0  0  0  0  0  0  0  0  0
  145.4626  136.6286  154.4710 H   0  0  0  0  0  0  0  0  0  0  0  0
  146.8241  134.3790  153.7445 H   0  0  0  0  0  0  0  0  0  0  0  0
  145.0808  134.4906  153.4561 H   0  0  0  0  0  0  0  0  0  0  0  0
  144.3979  135.5837  151.2546 H   0  0  0  0  0  0  0  0  0  0  0  0
  145.7178  136.2466  150.2952 H   0  0  0  0  0  0  0  0  0  0  0  0
  1  2  1  0  0  0  0
  1 21  1  0  0  0  0
  1 22  1  0  0  0  0
  1 23  1  0  0  0  0
  2 20  1  0  0  0  0
  2  3  1  0  0  0  0
  2 17  1  0  0  0  0
  3  4  1  0  0  0  0
  3 24  1  0  0  0  0
  4  5  2  0  0  0  0
  4  6  1  0  0  0  0
  6  7  1  0  0  0  0
  6 25  1  0  0  0  0
  7 16  2  0  0  0  0
  7  8  1  0  0  0  0
  8  9  2  0  0  0  0
  8 26  1  0  0  0  0
  9 10  1  0  0  0  0
 10 11  1  0  0  0  0
 10 16  1  0  0  0  0
 11 12  1  0  0  0  0
 11 27  1  0  0  0  0
 11 28  1  0  0  0  0
 12 13  1  0  0  0  0
 12 14  1  0  0  0  0
 12 15  1  0  0  0  0
 16 29  1  0  0  0  0
 17 18  1  0  0  0  0
 17 30  1  0  0  0  0
 17 31  1  0  0  0  0
 18 19  1  0  0  0  0
 18 32  1  0  0  0  0
 18 33  1  0  0  0  0
 19 20  1  0  0  0  0
 20 34  1  0  0  0  0
 20 35  1  0  0  0  0
M  END
> <s_m_source_file>
AV-unprocessed.smi

> <i_m_source_file_index>
2834

> <i_lp_mmshare_version>
43012

> <i_f3d_flags>
0

> <s_epik_input>
W0NIMl0xT1tDSDJdW0NIMl1bQ0BAXTEoW0NIM10pW05IXUMoPU8pW05IXWMyW2NIXW5uKFtjSF0yKVtDSDJdQyhGKShGKUY=

> <s_epik_cmdline>
J2VwaWtfcHl0aG9uJywgJy1waCcsICc3LjAnLCAnLXRuJywgJzgnLCAnLW1hJywgJzIwMCcsICctbWV0YWxfYmluZGluZycsICctaW1hZScsICc8aW5maWxlLm1hZT4nLCAnLW9tYWUnLCAnPG91dGZpbGUubWFlPic=

> <r_lp_tautomer_probability>
1

> <r_epik_Ionization_Penalty>
3.3002e-05

> <r_epik_Ionization_Penalty_Charging>
0

> <r_epik_Ionization_Penalty_Neutral>
3.3002e-05

> <r_epik_State_Penalty>
-0

> <r_epik_Charging_Adjusted_Penalty>
0

> <i_epik_Tot_Q>
0

> <i_epik_Tot_abs_Q>
0

> <r_epik_Metal_State_Penalty>
-0

> <b_epik_Metal_Only>
0

> <s_lp_Force_Field>
OPLS_2005

> <r_lp_Energy>
22.3443

> <b_lp_Chiralities_Consistent>
1

> <s_lp_Variant>
AV-unprocessed.smi:2834-2

> <Gold.Version>
5.8.1

> <Gold.Id.Protein>
6NUR|6NUR_protein|mol2

> <Gold.PLP.Fitness>
42.2627

> <Gold.PLP.PLP>
-31.7564

> <Gold.PLP.part.hbond>
-3.0000

> <Gold.PLP.part.metal>
0.0000

> <Gold.PLP.part.buried>
-3.6924

> <Gold.PLP.part.nonpolar>
-27.7046

> <Gold.PLP.part.repulsive>
1.2197

> <Gold.PLP.ligand.clash>
0.0000

> <Gold.PLP.ligand.torsion>
0.4403

> <Gold.PLP.Chemscore.Hbond>
2.0000

> <Gold.PLP.Chemscore.CHOScore>
1.7827

> <Gold.PLP.Chemscore.Metal>
0.0000

> <Gold.Chemscore.Hbonds>
donor molecule, donor type, donor heavy atom, donor atom, acceptor molecule, acceptor atom, score
      L1  H     3    24       P1 10175  1.00
      L1  H     6    25       P1 10175  1.00
      L1  C     8    26       P1 11000  0.88
      L1  C    16    29       P1 10160  1.00

> <Gold.PLP.Chemscore.Internal.Correction>
0.0388

> <Gold.Rescore>
     Score         DG    S(hbond)    S(metal)    S(lipo)     H(rot)  DE(clash)    DE(int)     intcor
     11.19     -15.62       1.97        0.00      59.90       1.34       0.38       4.05       ----

> <Gold.Chemscore.Fitness>
11.1925

> <Gold.Chemscore.DG>
-15.6247

> <Gold.Chemscore.ZeroCoef>
-5.4800

> <Gold.Chemscore.Hbond>
1.9673

> <Gold.Chemscore.Metal>
0.0000

> <Gold.Chemscore.Lipo>
59.9011

> <Gold.Chemscore.Internal_Hbond>
0.0000

> <Gold.Chemscore.DEClash>
0.3827

> <Gold.Chemscore.DEInternal>
4.0495

> <Gold.Chemscore.Rot>
1.3417

> <Gold.Chemscore.Internal.Correction>
   9.000000E+99

> <Gold.Chemscore.Hbonds>
donor molecule, donor type, donor heavy atom, donor atom, acceptor molecule, acceptor atom, score
      L1  H     3    24       P1 10175  1.00
      L1  H     6    25       P1 10175  0.90

> <Gold.Chemscore.Hbond.Weighted>
-6.5709

> <Gold.Chemscore.Metal.Weighted>
-0.0000

> <Gold.Chemscore.Lipo.Weighted>
-7.0084

> <Gold.Chemscore.Internal_Hbond.Weighted>
0.0000

> <Gold.Chemscore.DEClash.Weighted>
0.3827

> <Gold.Chemscore.DEInternal.Weighted>
4.0495

> <Gold.Chemscore.Rot.Weighted>
3.4347

> <Gold.Chemscore.Internal.Correction.Weighted>
   9.000000E+99

> <Gold.Protein.RotatedTorsions>
[ 6907 6896 6895 6894 ] final  -96.53 input  -60.11 | X-H torsion
[ 7974 7965 7964 7962 ] final -131.69 input  175.53 | X-H torsion
[ 8008 7997 7996 7995 ] final  -27.90 input   59.86 | X-H torsion
[ 10167 10162 10161 10158 ] final  136.98 input  -65.29 | X-H torsion
[ 10718 10713 10712 10709 ] final   38.56 input   66.30 | X-H torsion
[ 10763 10752 10751 10750 ] final  136.17 input  -60.55 | X-H torsion
[ 11005 11000 10999 10996 ] final -123.09 input  -57.11 | X-H torsion

> <Gold.Protein.ActiveResidues>
 VAL166  LYS551  ARG553  GLY616  TRP617  ASP618  TYR619  PRO620  LYS621  CYS622 
 ASP623  PHE694  ASN695  SER759  ASP760  ASP761  ALA762  ILE779  LEU786  VAL792 
 PHE793  MET794  SER795  GLU796  ALA797  LYS798  CYS799  TRP800  GLU811  SER814 

> <Gold.Protein.RotatedAtoms>
  150.6991  134.1488  159.4132 H   0  0  0  0  0  0  0  0  0  0  0  0  # atno 6907 bound_to 6896
  151.9471  135.0184  160.0549 H   0  0  0  0  0  0  0  0  0  0  0  0  # atno 6908 bound_to 6896
  152.2043  133.4829  159.5112 H   0  0  0  0  0  0  0  0  0  0  0  0  # atno 6909 bound_to 6896
  144.9356  140.7179  143.4879 H   0  0  0  0  0  0  0  0  0  0  0  0  # atno 7974 bound_to 7965
  154.4356  140.1860  156.1004 H   0  0  0  0  0  0  0  0  0  0  0  0  # atno 8008 bound_to 7997
  156.0296  140.3332  155.7100 H   0  0  0  0  0  0  0  0  0  0  0  0  # atno 8009 bound_to 7997
  155.5858  140.0626  157.2762 H   0  0  0  0  0  0  0  0  0  0  0  0  # atno 8010 bound_to 7997
  139.5160  144.6435  151.5504 H   0  0  0  0  0  0  0  0  0  0  0  0  # atno 10167 bound_to 10162
  157.3603  130.7646  149.7042 H   0  0  0  0  0  0  0  0  0  0  0  0  # atno 10718 bound_to 10713
  153.8521  135.3078  155.3433 H   0  0  0  0  0  0  0  0  0  0  0  0  # atno 10763 bound_to 10752
  154.7886  135.4795  154.0005 H   0  0  0  0  0  0  0  0  0  0  0  0  # atno 10764 bound_to 10752
  153.1512  135.6843  153.8973 H   0  0  0  0  0  0  0  0  0  0  0  0  # atno 10765 bound_to 10752
  140.9946  134.0490  157.3613 H   0  0  0  0  0  0  0  0  0  0  0  0  # atno 11005 bound_to 11000
  145.3073  139.1830  143.4657 LP  0  0  0  0  0  0  0  0  0  0  0  0  # atno 17320 bound_to 7965
  146.3265  140.3072  142.8624 LP  0  0  0  0  0  0  0  0  0  0  0  0  # atno 17321 bound_to 7965
  140.6211  143.9257  150.6527 LP  0  0  0  0  0  0  0  0  0  0  0  0  # atno 17342 bound_to 10162
  140.2530  143.3579  152.1389 LP  0  0  0  0  0  0  0  0  0  0  0  0  # atno 17343 bound_to 10162
  155.9736  130.4116  150.3988 LP  0  0  0  0  0  0  0  0  0  0  0  0  # atno 17370 bound_to 10713
  157.2064  131.0450  151.2623 LP  0  0  0  0  0  0  0  0  0  0  0  0  # atno 17371 bound_to 10713
  139.9008  135.0164  156.7260 LP  0  0  0  0  0  0  0  0  0  0  0  0  # atno 17394 bound_to 11000
  140.6986  133.9326  155.8010 LP  0  0  0  0  0  0  0  0  0  0  0  0  # atno 17395 bound_to 11000

$$$$
