AV-unprocessed.smi:153|AV-procd|sdf|1250|dock3
  -GOLD-   2262018473D 1   1.00000     0.00000
 Structure written by MMmdl.
 60 63  0  0  0  0  0  0  0  0  2 V2000
  152.5893  144.7428  158.0290 C   0  0  0  0  0  0  0  0  0  0  0  0
  151.5167  144.1165  158.9374 C   0  0  2  0  0  0  0  0  0  0  0  0
  151.6253  144.8359  160.1672 O   0  0  0  0  0  0  0  0  0  0  0  0
  152.1256  144.0052  161.2101 C   0  0  0  0  0  0  0  0  0  0  0  0
  152.6390  142.7434  160.5242 C   0  0  0  0  0  0  0  0  0  0  0  0
  151.7341  142.6311  159.3091 C   0  0  1  0  0  0  0  0  0  0  0  0
  150.4844  142.1117  159.7333 O   0  0  0  0  0  0  0  0  0  0  0  0
  152.3048  141.6927  158.2087 C   0  0  0  0  0  0  0  0  0  0  0  0
  151.4921  140.5132  157.9298 N   0  0  0  0  0  0  0  0  0  0  0  0
  150.3074  140.4593  157.2325 C   0  0  0  0  0  0  0  0  0  0  0  0
  149.7865  139.2700  157.1128 N   0  0  0  0  0  0  0  0  0  0  0  0
  150.6802  138.4256  157.7630 C   0  0  0  0  0  0  0  0  0  0  0  0
  150.7445  137.0165  158.0011 C   0  0  0  0  0  0  0  0  0  0  0  0
  149.8146  136.1058  157.5902 N   0  0  0  0  0  0  0  0  0  0  0  0
  149.8446  134.7445  158.1107 C   0  0  0  0  0  0  0  0  0  0  0  0
  148.6127  136.5369  156.8696 C   0  0  0  0  0  0  0  0  0  0  0  0
  148.4708  135.8668  155.4877 C   0  0  2  0  0  0  0  0  0  0  0  0
  149.4093  136.4837  154.6290 O   0  0  0  0  0  0  0  0  0  0  0  0
  147.0630  136.0347  154.8739 C   0  0  0  0  0  0  0  0  0  0  0  0
  146.9292  135.3855  153.5459 N   0  3  0  0  0  0  0  0  0  0  0  0
  147.0622  133.9077  153.5942 C   0  0  0  0  0  0  0  0  0  0  0  0
  146.9414  133.3097  152.1821 C   0  0  0  0  0  0  0  0  0  0  0  0
  145.7031  133.6997  151.6019 O   0  0  0  0  0  0  0  0  0  0  0  0
  145.5995  135.1115  151.4681 C   0  0  0  0  0  0  0  0  0  0  0  0
  145.6738  135.7679  152.8568 C   0  0  0  0  0  0  0  0  0  0  0  0
  151.8339  136.5612  158.6758 N   0  0  0  0  0  0  0  0  0  0  0  0
  152.7880  137.3987  159.0879 C   0  0  0  0  0  0  0  0  0  0  0  0
  152.8575  138.7199  158.9337 N   0  0  0  0  0  0  0  0  0  0  0  0
  151.7694  139.1973  158.2654 C   0  0  0  0  0  0  0  0  0  0  0  0
  152.5765  144.3219  157.0278 H   0  0  0  0  0  0  0  0  0  0  0  0
  153.5911  144.6072  158.4368 H   0  0  0  0  0  0  0  0  0  0  0  0
  152.4218  145.8149  157.9240 H   0  0  0  0  0  0  0  0  0  0  0  0
  150.5343  144.2795  158.4913 H   0  0  0  0  0  0  0  0  0  0  0  0
  152.9014  144.5106  161.7853 H   0  0  0  0  0  0  0  0  0  0  0  0
  151.3052  143.7656  161.8877 H   0  0  0  0  0  0  0  0  0  0  0  0
  153.6730  142.8929  160.2101 H   0  0  0  0  0  0  0  0  0  0  0  0
  152.6130  141.8665  161.1723 H   0  0  0  0  0  0  0  0  0  0  0  0
  150.6425  141.3720  160.2998 H   0  0  0  0  0  0  0  0  0  0  0  0
  152.4701  142.2334  157.2766 H   0  0  0  0  0  0  0  0  0  0  0  0
  153.2901  141.3405  158.5163 H   0  0  0  0  0  0  0  0  0  0  0  0
  149.8355  141.3251  156.7956 H   0  0  0  0  0  0  0  0  0  0  0  0
  150.8393  134.3103  158.0063 H   0  0  0  0  0  0  0  0  0  0  0  0
  149.1502  134.1043  157.5660 H   0  0  0  0  0  0  0  0  0  0  0  0
  149.5577  134.7269  159.1623 H   0  0  0  0  0  0  0  0  0  0  0  0
  147.7042  136.4002  157.4564 H   0  0  0  0  0  0  0  0  0  0  0  0
  148.6943  137.6159  156.7319 H   0  0  0  0  0  0  0  0  0  0  0  0
  148.7412  134.8150  155.5756 H   0  0  0  0  0  0  0  0  0  0  0  0
  149.1596  136.3204  153.7327 H   0  0  0  0  0  0  0  0  0  0  0  0
  146.2967  135.6209  155.5283 H   0  0  0  0  0  0  0  0  0  0  0  0
  146.8447  137.1009  154.7918 H   0  0  0  0  0  0  0  0  0  0  0  0
  148.0212  133.6226  154.0253 H   0  0  0  0  0  0  0  0  0  0  0  0
  146.2872  133.4905  154.2394 H   0  0  0  0  0  0  0  0  0  0  0  0
  147.7710  133.6301  151.5501 H   0  0  0  0  0  0  0  0  0  0  0  0
  146.9803  132.2214  152.2308 H   0  0  0  0  0  0  0  0  0  0  0  0
  146.3901  135.4870  150.8165 H   0  0  0  0  0  0  0  0  0  0  0  0
  144.6505  135.3528  150.9888 H   0  0  0  0  0  0  0  0  0  0  0  0
  144.8173  135.4646  153.4611 H   0  0  0  0  0  0  0  0  0  0  0  0
  145.6248  136.8523  152.7510 H   0  0  0  0  0  0  0  0  0  0  0  0
  153.6135  136.9448  159.6161 H   0  0  0  0  0  0  0  0  0  0  0  0
  147.6830  135.7369  152.9733 H   0  0  0  0  0  0  0  0  0  0  0  0
  1  2  1  0  0  0  0
  1 30  1  0  0  0  0
  1 31  1  0  0  0  0
  1 32  1  0  0  0  0
  2  6  1  0  0  0  0
  2  3  1  0  0  0  0
  2 33  1  0  0  0  0
  3  4  1  0  0  0  0
  4  5  1  0  0  0  0
  4 34  1  0  0  0  0
  4 35  1  0  0  0  0
  5  6  1  0  0  0  0
  5 36  1  0  0  0  0
  5 37  1  0  0  0  0
  6  7  1  0  0  0  0
  6  8  1  0  0  0  0
  7 38  1  0  0  0  0
  8  9  1  0  0  0  0
  8 39  1  0  0  0  0
  8 40  1  0  0  0  0
  9 29  1  0  0  0  0
  9 10  1  0  0  0  0
 10 11  2  0  0  0  0
 10 41  1  0  0  0  0
 11 12  1  0  0  0  0
 12 29  2  0  0  0  0
 12 13  1  0  0  0  0
 13 14  1  0  0  0  0
 13 26  2  0  0  0  0
 14 15  1  0  0  0  0
 14 16  1  0  0  0  0
 15 42  1  0  0  0  0
 15 43  1  0  0  0  0
 15 44  1  0  0  0  0
 16 17  1  0  0  0  0
 16 45  1  0  0  0  0
 16 46  1  0  0  0  0
 17 18  1  0  0  0  0
 17 19  1  0  0  0  0
 17 47  1  0  0  0  0
 18 48  1  0  0  0  0
 19 20  1  0  0  0  0
 19 49  1  0  0  0  0
 19 50  1  0  0  0  0
 20 25  1  0  0  0  0
 20 21  1  0  0  0  0
 20 60  1  0  0  0  0
 21 22  1  0  0  0  0
 21 51  1  0  0  0  0
 21 52  1  0  0  0  0
 22 23  1  0  0  0  0
 22 53  1  0  0  0  0
 22 54  1  0  0  0  0
 23 24  1  0  0  0  0
 24 25  1  0  0  0  0
 24 55  1  0  0  0  0
 24 56  1  0  0  0  0
 25 57  1  0  0  0  0
 25 58  1  0  0  0  0
 26 27  1  0  0  0  0
 27 28  2  0  0  0  0
 27 59  1  0  0  0  0
 28 29  1  0  0  0  0
M  CHG  1  20   1
M  END
> <s_m_source_file>
AV-unprocessed.smi

> <i_m_source_file_index>
153

> <i_lp_mmshare_version>
43012

> <i_f3d_flags>
0

> <s_epik_input>
W0NIMl0xW0NIMl1PW0NAQEhdKFtDSDNdKVtDQEBdMShbT0hdKVtDSDJdbihbY0hdbjIpYyhjMjMpbltjSF1uYzNOKFtDSDNdKVtDSDJdW0NASF0oW09IXSlbQ0gyXU40W0NIMl1bQ0gyXU9bQ0gyXVtDSDJdNA==

> <s_epik_cmdline>
J2VwaWtfcHl0aG9uJywgJy1waCcsICc3LjAnLCAnLXRuJywgJzgnLCAnLW1hJywgJzIwMCcsICctbWV0YWxfYmluZGluZycsICctaW1hZScsICc8aW5maWxlLm1hZT4nLCAnLW9tYWUnLCAnPG91dGZpbGUubWFlPic=

> <r_lp_tautomer_probability>
1

> <r_epik_Ionization_Penalty>
0.403509

> <r_epik_Ionization_Penalty_Charging>
0.40072

> <r_epik_Ionization_Penalty_Neutral>
0.00278876

> <r_epik_State_Penalty>
0.400058

> <r_epik_Charging_Adjusted_Penalty>
0.800778

> <i_epik_Tot_Q>
1

> <i_epik_Tot_abs_Q>
1

> <r_epik_Metal_State_Penalty>
0.400321

> <b_epik_Metal_Only>
0

> <s_lp_Force_Field>
OPLS_2005

> <r_lp_Energy>
46.9593

> <b_lp_Chiralities_Consistent>
1

> <s_lp_Variant>
AV-unprocessed.smi:153-1

> <Gold.Version>
5.8.1

> <Gold.Id.Protein>
6NUR|6NUR_protein|mol2

> <Gold.PLP.Fitness>
52.8989

> <Gold.PLP.PLP>
-43.5634

> <Gold.PLP.part.hbond>
-4.0000

> <Gold.PLP.part.metal>
0.0000

> <Gold.PLP.part.buried>
-8.2624

> <Gold.PLP.part.nonpolar>
-31.7315

> <Gold.PLP.part.repulsive>
0.2780

> <Gold.PLP.ligand.clash>
0.0000

> <Gold.PLP.ligand.torsion>
1.5108

> <Gold.PLP.Chemscore.Hbond>
3.9913

> <Gold.PLP.Chemscore.CHOScore>
0.0000

> <Gold.PLP.Chemscore.Metal>
0.0000

> <Gold.Chemscore.Hbonds>
donor molecule, donor type, donor heavy atom, donor atom, acceptor molecule, acceptor atom, score
      L1  H    18    48       P1  7948  1.00
      L1  H    20    60       P1  7948  2.00
      P1  H  6896  6908       L1    26  0.47

> <Gold.PLP.Chemscore.Internal.Correction>
0.3833

> <Gold.Rescore>
     Score         DG    S(hbond)    S(metal)    S(lipo)     H(rot)  DE(clash)    DE(int)     intcor
     14.02     -16.92       2.76        0.00      98.31       3.62       0.03       2.88       ----

> <Gold.Chemscore.Fitness>
14.0166

> <Gold.Chemscore.DG>
-16.9238

> <Gold.Chemscore.ZeroCoef>
-5.4800

> <Gold.Chemscore.Hbond>
2.7556

> <Gold.Chemscore.Metal>
0.0000

> <Gold.Chemscore.Lipo>
98.3131

> <Gold.Chemscore.Internal_Hbond>
0.0000

> <Gold.Chemscore.DEClash>
0.0292

> <Gold.Chemscore.DEInternal>
2.8780

> <Gold.Chemscore.Rot>
3.6182

> <Gold.Chemscore.Internal.Correction>
   9.000000E+99

> <Gold.Chemscore.Hbonds>
donor molecule, donor type, donor heavy atom, donor atom, acceptor molecule, acceptor atom, score
      L1  H    18    48       P1  7948  0.96
      L1  H    20    60       P1  7948  1.00
      P1  H  6896  6908       L1    26  0.18

> <Gold.Chemscore.Hbond.Weighted>
-9.2037

> <Gold.Chemscore.Metal.Weighted>
-0.0000

> <Gold.Chemscore.Lipo.Weighted>
-11.5026

> <Gold.Chemscore.Internal_Hbond.Weighted>
0.0000

> <Gold.Chemscore.DEClash.Weighted>
0.0292

> <Gold.Chemscore.DEInternal.Weighted>
2.8780

> <Gold.Chemscore.Rot.Weighted>
9.2625

> <Gold.Chemscore.Internal.Correction.Weighted>
   9.000000E+99

> <Gold.Protein.RotatedTorsions>
[ 6907 6896 6895 6894 ] final -154.07 input  -60.11 | X-H torsion
[ 7974 7965 7964 7962 ] final  -76.27 input  175.53 | X-H torsion
[ 8008 7997 7996 7995 ] final -149.92 input   59.86 | X-H torsion
[ 10167 10162 10161 10158 ] final  155.14 input  -65.29 | X-H torsion
[ 10718 10713 10712 10709 ] final  171.90 input   66.30 | X-H torsion
[ 10763 10752 10751 10750 ] final  -58.12 input  -60.55 | X-H torsion
[ 11005 11000 10999 10996 ] final -178.88 input  -57.11 | X-H torsion

> <Gold.Protein.ActiveResidues>
 VAL166  LYS551  ARG553  GLY616  TRP617  ASP618  TYR619  PRO620  LYS621  CYS622 
 ASP623  PHE694  ASN695  SER759  ASP760  ASP761  ALA762  ILE779  LEU786  VAL792 
 PHE793  MET794  SER795  GLU796  ALA797  LYS798  CYS799  TRP800  GLU811  SER814 

> <Gold.Protein.RotatedAtoms>
  151.2519  133.4345  159.2611 H   0  0  0  0  0  0  0  0  0  0  0  0  # atno 6907 bound_to 6896
  151.0609  134.9736  159.8270 H   0  0  0  0  0  0  0  0  0  0  0  0  # atno 6908 bound_to 6896
  152.5398  134.2470  159.8936 H   0  0  0  0  0  0  0  0  0  0  0  0  # atno 6909 bound_to 6896
  145.6151  140.9377  143.1168 H   0  0  0  0  0  0  0  0  0  0  0  0  # atno 7974 bound_to 7965
  155.6154  140.0676  157.2694 H   0  0  0  0  0  0  0  0  0  0  0  0  # atno 8008 bound_to 7997
  154.4243  140.1794  156.1364 H   0  0  0  0  0  0  0  0  0  0  0  0  # atno 8009 bound_to 7997
  156.0052  140.3332  155.6888 H   0  0  0  0  0  0  0  0  0  0  0  0  # atno 8010 bound_to 7997
  139.4822  144.5124  151.8003 H   0  0  0  0  0  0  0  0  0  0  0  0  # atno 10167 bound_to 10162
  156.9868  131.0136  151.2867 H   0  0  0  0  0  0  0  0  0  0  0  0  # atno 10718 bound_to 10713
  154.2331  135.6357  153.5182 H   0  0  0  0  0  0  0  0  0  0  0  0  # atno 10763 bound_to 10752
  152.9945  135.5524  154.5991 H   0  0  0  0  0  0  0  0  0  0  0  0  # atno 10764 bound_to 10752
  154.5479  135.2899  155.1010 H   0  0  0  0  0  0  0  0  0  0  0  0  # atno 10765 bound_to 10752
  140.4249  134.6572  157.4682 H   0  0  0  0  0  0  0  0  0  0  0  0  # atno 11005 bound_to 11000
  144.7254  139.7894  143.7367 LP  0  0  0  0  0  0  0  0  0  0  0  0  # atno 17320 bound_to 7965
  146.1474  139.4547  143.0070 LP  0  0  0  0  0  0  0  0  0  0  0  0  # atno 17321 bound_to 7965
  140.4629  144.1696  150.5908 LP  0  0  0  0  0  0  0  0  0  0  0  0  # atno 17342 bound_to 10162
  140.4465  143.2504  151.9404 LP  0  0  0  0  0  0  0  0  0  0  0  0  # atno 17343 bound_to 10162
  157.5487  130.8168  149.8118 LP  0  0  0  0  0  0  0  0  0  0  0  0  # atno 17370 bound_to 10713
  156.0222  130.3791  150.1927 LP  0  0  0  0  0  0  0  0  0  0  0  0  # atno 17371 bound_to 10713
  140.0175  134.6598  155.9289 LP  0  0  0  0  0  0  0  0  0  0  0  0  # atno 17394 bound_to 11000
  141.1769  133.6541  156.4865 LP  0  0  0  0  0  0  0  0  0  0  0  0  # atno 17395 bound_to 11000

$$$$
