AV-unprocessed.smi:3032|AV-procd|sdf|11569|dock6
  -GOLD-   2272016533D 1   1.00000     0.00000
 Structure written by MMmdl.
 36 37  0  0  0  0  0  0  0  0  2 V2000
  153.1313  142.9007  162.0395 C   0  0  0  0  0  0  0  0  0  0  0  0
  152.0148  143.1643  161.0193 C   0  0  2  0  0  0  0  0  0  0  0  0
  152.3618  142.5737  159.6401 C   0  0  0  0  0  0  0  0  0  0  0  0
  151.2396  142.8216  158.6207 C   0  0  0  0  0  0  0  0  0  0  0  0
  150.8977  144.3199  158.5064 C   0  0  0  0  0  0  0  0  0  0  0  0
  150.6082  144.9996  159.8667 C   0  0  1  0  0  0  0  0  0  0  0  0
  149.2033  144.6944  160.4195 C   0  0  0  0  0  0  0  0  0  0  0  0
  149.0428  144.3291  161.5844 O   0  0  0  0  0  0  0  0  0  0  0  0
  148.1850  144.8561  159.5613 N   0  0  0  0  0  0  0  0  0  0  0  0
  146.7725  144.7093  159.8967 C   0  0  0  0  0  0  0  0  0  0  0  0
  146.0564  143.6790  159.0026 C   0  0  0  0  0  0  0  0  0  0  0  0
  145.2165  142.6862  159.7825 C   0  0  0  0  0  0  0  0  0  0  0  0
  145.6430  141.9480  160.8278 N   0  5  0  0  0  0  0  0  0  0  0  0
  144.6751  141.1585  161.2509 N   0  0  0  0  0  0  0  0  0  0  0  0
  143.6510  141.4286  160.4329 C   0  0  0  0  0  0  0  0  0  0  0  0
  143.9537  142.3570  159.5197 N   0  0  0  0  0  0  0  0  0  0  0  0
  151.7174  144.6731  160.8927 C   0  0  0  0  0  0  0  0  0  0  0  0
  154.0660  143.3736  161.7369 H   0  0  0  0  0  0  0  0  0  0  0  0
  153.3179  141.8320  162.1494 H   0  0  0  0  0  0  0  0  0  0  0  0
  152.8631  143.2905  163.0222 H   0  0  0  0  0  0  0  0  0  0  0  0
  151.1194  142.6629  161.3880 H   0  0  0  0  0  0  0  0  0  0  0  0
  153.2896  143.0147  159.2730 H   0  0  0  0  0  0  0  0  0  0  0  0
  152.5431  141.5020  159.7274 H   0  0  0  0  0  0  0  0  0  0  0  0
  151.5405  142.4402  157.6445 H   0  0  0  0  0  0  0  0  0  0  0  0
  150.3565  142.2498  158.9037 H   0  0  0  0  0  0  0  0  0  0  0  0
  151.7363  144.8328  158.0342 H   0  0  0  0  0  0  0  0  0  0  0  0
  150.0521  144.4523  157.8300 H   0  0  0  0  0  0  0  0  0  0  0  0
  150.6395  146.0764  159.6910 H   0  0  0  0  0  0  0  0  0  0  0  0
  148.3984  145.1698  158.6255 H   0  0  0  0  0  0  0  0  0  0  0  0
  146.7155  144.3855  160.9361 H   0  0  0  0  0  0  0  0  0  0  0  0
  146.2669  145.6747  159.8465 H   0  0  0  0  0  0  0  0  0  0  0  0
  145.4156  144.1935  158.2861 H   0  0  0  0  0  0  0  0  0  0  0  0
  146.7887  143.1237  158.4153 H   0  0  0  0  0  0  0  0  0  0  0  0
  142.6840  140.9458  160.5011 H   0  0  0  0  0  0  0  0  0  0  0  0
  151.4495  145.0783  161.8700 H   0  0  0  0  0  0  0  0  0  0  0  0
  152.6296  145.1940  160.5990 H   0  0  0  0  0  0  0  0  0  0  0  0
  1  2  1  0  0  0  0
  1 18  1  0  0  0  0
  1 19  1  0  0  0  0
  1 20  1  0  0  0  0
  2 17  1  0  0  0  0
  2  3  1  0  0  0  0
  2 21  1  0  0  0  0
  3  4  1  0  0  0  0
  3 22  1  0  0  0  0
  3 23  1  0  0  0  0
  4  5  1  0  0  0  0
  4 24  1  0  0  0  0
  4 25  1  0  0  0  0
  5  6  1  0  0  0  0
  5 26  1  0  0  0  0
  5 27  1  0  0  0  0
  6  7  1  0  0  0  0
  6 17  1  0  0  0  0
  6 28  1  0  0  0  0
  7  8  2  0  0  0  0
  7  9  1  0  0  0  0
  9 10  1  0  0  0  0
  9 29  1  0  0  0  0
 10 11  1  0  0  0  0
 10 30  1  0  0  0  0
 10 31  1  0  0  0  0
 11 32  1  0  0  0  0
 11 33  1  0  0  0  0
 11 12  1  0  0  0  0
 12 16  2  0  0  0  0
 12 13  1  0  0  0  0
 13 14  1  0  0  0  0
 14 15  2  0  0  0  0
 15 16  1  0  0  0  0
 15 34  1  0  0  0  0
 17 35  1  0  0  0  0
 17 36  1  0  0  0  0
M  CHG  1  13  -1
M  END
> <s_m_source_file>
AV-unprocessed.smi

> <i_m_source_file_index>
3032

> <i_lp_mmshare_version>
43012

> <i_f3d_flags>
0

> <s_epik_input>
W0NIM11bQ0BASF0xW0NIMl1bQ0gyXVtDSDJdW0NASF0oW0NIMl0xKUMoPU8pW05IXVtDSDJdW0NIMl1jMm5uW2NIXVtuSF0y

> <s_epik_cmdline>
J2VwaWtfcHl0aG9uJywgJy1waCcsICc3LjAnLCAnLXRuJywgJzgnLCAnLW1hJywgJzIwMCcsICctbWV0YWxfYmluZGluZycsICctaW1hZScsICc8aW5maWxlLm1hZT4nLCAnLW9tYWUnLCAnPG91dGZpbGUubWFlPic=

> <r_lp_tautomer_probability>
0.948284

> <r_epik_Ionization_Penalty>
12.042

> <r_epik_Ionization_Penalty_Charging>
12.042

> <r_epik_Ionization_Penalty_Neutral>
4.36781e-08

> <r_epik_State_Penalty>
4.67286

> <r_epik_Charging_Adjusted_Penalty>
16.7149

> <i_epik_Tot_Q>
-1

> <i_epik_Tot_abs_Q>
1

> <r_epik_Metal_State_Penalty>
0.981637

> <b_epik_Metal_Only>
1

> <s_lp_Force_Field>
OPLS_2005

> <r_lp_Energy>
8.77891

> <b_lp_Chiralities_Consistent>
1

> <s_lp_Variant>
AV-unprocessed.smi:3032-13

> <Gold.Version>
5.8.1

> <Gold.Id.Protein>
6NUR|6NUR_protein|mol2

> <Gold.PLP.Fitness>
41.6079

> <Gold.PLP.PLP>
-32.3014

> <Gold.PLP.part.hbond>
-5.4301

> <Gold.PLP.part.metal>
0.0000

> <Gold.PLP.part.buried>
-5.3051

> <Gold.PLP.part.nonpolar>
-23.8657

> <Gold.PLP.part.repulsive>
0.8161

> <Gold.PLP.ligand.clash>
0.0000

> <Gold.PLP.ligand.torsion>
0.5759

> <Gold.PLP.Chemscore.Hbond>
3.4674

> <Gold.PLP.Chemscore.CHOScore>
0.0000

> <Gold.PLP.Chemscore.Metal>
0.0000

> <Gold.Chemscore.Hbonds>
donor molecule, donor type, donor heavy atom, donor atom, acceptor molecule, acceptor atom, score
      L1  H     9    29       P1  8029  0.96
      P1  H  6933  6944       L1     8  0.53
      P1  H  6934  6946       L1    13  2.00

> <Gold.PLP.Chemscore.Internal.Correction>
0.0563

> <Gold.Rescore>
     Score         DG    S(hbond)    S(metal)    S(lipo)     H(rot)  DE(clash)    DE(int)     intcor
     15.36     -16.38       2.21        0.00      78.50       2.21       0.49       0.53       ----

> <Gold.Chemscore.Fitness>
15.3606

> <Gold.Chemscore.DG>
-16.3835

> <Gold.Chemscore.ZeroCoef>
-5.4800

> <Gold.Chemscore.Hbond>
2.2122

> <Gold.Chemscore.Metal>
0.0000

> <Gold.Chemscore.Lipo>
78.5042

> <Gold.Chemscore.Internal_Hbond>
0.0000

> <Gold.Chemscore.DEClash>
0.4887

> <Gold.Chemscore.DEInternal>
0.5342

> <Gold.Chemscore.Rot>
2.2149

> <Gold.Chemscore.Internal.Correction>
   9.000000E+99

> <Gold.Chemscore.Hbonds>
donor molecule, donor type, donor heavy atom, donor atom, acceptor molecule, acceptor atom, score
      L1  H     9    29       P1  8029  0.92
      P1  H  6933  6944       L1     8  0.27
      P1  H  6934  6946       L1    13  0.25

> <Gold.Chemscore.Hbond.Weighted>
-7.3888

> <Gold.Chemscore.Metal.Weighted>
-0.0000

> <Gold.Chemscore.Lipo.Weighted>
-9.1850

> <Gold.Chemscore.Internal_Hbond.Weighted>
0.0000

> <Gold.Chemscore.DEClash.Weighted>
0.4887

> <Gold.Chemscore.DEInternal.Weighted>
0.5342

> <Gold.Chemscore.Rot.Weighted>
5.6702

> <Gold.Chemscore.Internal.Correction.Weighted>
   9.000000E+99

> <Gold.Protein.RotatedTorsions>
[ 6907 6896 6895 6894 ] final   98.58 input  -60.11 | X-H torsion
[ 7974 7965 7964 7962 ] final -117.81 input  175.53 | X-H torsion
[ 8008 7997 7996 7995 ] final  125.44 input   59.86 | X-H torsion
[ 10167 10162 10161 10158 ] final  177.36 input  -65.29 | X-H torsion
[ 10718 10713 10712 10709 ] final  -73.48 input   66.30 | X-H torsion
[ 10763 10752 10751 10750 ] final -160.30 input  -60.55 | X-H torsion
[ 11005 11000 10999 10996 ] final -106.83 input  -57.11 | X-H torsion

> <Gold.Protein.ActiveResidues>
 VAL166  LYS551  ARG553  GLY616  TRP617  ASP618  TYR619  PRO620  LYS621  CYS622 
 ASP623  PHE694  ASN695  SER759  ASP760  ASP761  ALA762  ILE779  LEU786  VAL792 
 PHE793  MET794  SER795  GLU796  ALA797  LYS798  CYS799  TRP800  GLU811  SER814 

> <Gold.Protein.RotatedAtoms>
  152.5407  134.0559  159.8130 H   0  0  0  0  0  0  0  0  0  0  0  0  # atno 6907 bound_to 6896
  151.0693  133.5471  159.2635 H   0  0  0  0  0  0  0  0  0  0  0  0  # atno 6908 bound_to 6896
  151.2340  135.0573  159.9053 H   0  0  0  0  0  0  0  0  0  0  0  0  # atno 6909 bound_to 6896
  145.0810  140.8425  143.4039 H   0  0  0  0  0  0  0  0  0  0  0  0  # atno 7974 bound_to 7965
  156.2834  140.2716  156.1949 H   0  0  0  0  0  0  0  0  0  0  0  0  # atno 8008 bound_to 7997
  155.0420  140.0386  157.2531 H   0  0  0  0  0  0  0  0  0  0  0  0  # atno 8009 bound_to 7997
  154.7266  140.2698  155.6498 H   0  0  0  0  0  0  0  0  0  0  0  0  # atno 8010 bound_to 7997
  139.5250  144.2807  152.0549 H   0  0  0  0  0  0  0  0  0  0  0  0  # atno 10167 bound_to 10162
  156.0279  130.4395  150.2748 H   0  0  0  0  0  0  0  0  0  0  0  0  # atno 10718 bound_to 10713
  154.7402  135.3067  154.8741 H   0  0  0  0  0  0  0  0  0  0  0  0  # atno 10763 bound_to 10752
  153.9558  135.6758  153.4748 H   0  0  0  0  0  0  0  0  0  0  0  0  # atno 10764 bound_to 10752
  153.1001  135.4916  154.8776 H   0  0  0  0  0  0  0  0  0  0  0  0  # atno 10765 bound_to 10752
  141.0985  133.8928  157.1903 H   0  0  0  0  0  0  0  0  0  0  0  0  # atno 11005 bound_to 11000
  145.1178  139.2713  143.5604 LP  0  0  0  0  0  0  0  0  0  0  0  0  # atno 17320 bound_to 7965
  146.3531  140.0793  142.8618 LP  0  0  0  0  0  0  0  0  0  0  0  0  # atno 17321 bound_to 7965
  140.2262  144.4415  150.6320 LP  0  0  0  0  0  0  0  0  0  0  0  0  # atno 17342 bound_to 10162
  140.6385  143.2199  151.6341 LP  0  0  0  0  0  0  0  0  0  0  0  0  # atno 17343 bound_to 10162
  157.0851  131.0154  151.3142 LP  0  0  0  0  0  0  0  0  0  0  0  0  # atno 17370 bound_to 10713
  157.4897  130.7814  149.7495 LP  0  0  0  0  0  0  0  0  0  0  0  0  # atno 17371 bound_to 10713
  139.9828  135.0092  156.9791 LP  0  0  0  0  0  0  0  0  0  0  0  0  # atno 17394 bound_to 11000
  140.5082  134.1029  155.7264 LP  0  0  0  0  0  0  0  0  0  0  0  0  # atno 17395 bound_to 11000

$$$$
