AV-unprocessed.smi:1120|AV-procd|sdf|4821|dock2
  -GOLD-   22720 3373D 1   1.00000     0.00000
 Structure written by MMmdl.
 49 50  0  0  0  0  0  0  0  0  2 V2000
  144.4022  133.0944  151.1866 C   0  0  0  0  0  0  0  0  0  0  0  0
  144.3743  134.3487  152.0711 C   0  0  2  0  0  0  0  0  0  0  0  0
  145.3593  135.4167  151.5632 C   0  0  0  0  0  0  0  0  0  0  0  0
  145.3232  136.6871  152.4294 C   0  0  0  0  0  0  0  0  0  0  0  0
  145.5325  136.3895  153.9271 C   0  0  2  0  0  0  0  0  0  0  0  0
  146.9409  136.0941  154.2097 N   0  0  0  0  0  0  0  0  0  0  0  0
  147.8652  137.0632  155.2973 S   0  0  0  0  0  0  0  0  0  0  0  0
  146.9477  137.6005  156.3140 O   0  0  0  0  0  0  0  0  0  0  0  0
  149.0311  136.2658  155.7083 O   0  0  0  0  0  0  0  0  0  0  0  0
  148.4512  138.4497  154.2280 C   0  0  0  0  0  0  0  0  0  0  0  0
  149.5174  139.2576  154.9645 C   0  0  0  0  0  0  0  0  0  0  0  0
  150.6283  139.4133  154.4594 O   0  0  0  0  0  0  0  0  0  0  0  0
  149.1701  139.7690  156.1555 N   0  0  0  0  0  0  0  0  0  0  0  0
  150.0391  140.5686  157.0138 C   0  0  0  0  0  0  0  0  0  0  0  0
  149.8648  142.0901  156.8248 C   0  0  0  0  0  0  0  0  0  0  0  0
  150.8320  142.9281  157.6435 C   0  0  0  0  0  0  0  0  0  0  0  0
  151.6655  142.3587  158.6302 C   0  0  0  0  0  0  0  0  0  0  0  0
  152.5282  143.1947  159.3697 C   0  0  0  0  0  0  0  0  0  0  0  0
  152.5398  144.5805  159.1078 C   0  0  0  0  0  0  0  0  0  0  0  0
  151.6879  145.0957  158.1101 C   0  0  0  0  0  0  0  0  0  0  0  0
  150.8750  144.2626  157.4245 N   0  3  0  0  0  0  0  0  0  0  0  0
  144.6277  135.2534  154.4406 C   0  0  0  0  0  0  0  0  0  0  0  0
  144.6753  134.0065  153.5414 C   0  0  0  0  0  0  0  0  0  0  0  0
  145.3868  132.6260  151.1928 H   0  0  0  0  0  0  0  0  0  0  0  0
  144.1557  133.3372  150.1527 H   0  0  0  0  0  0  0  0  0  0  0  0
  143.6792  132.3546  151.5318 H   0  0  0  0  0  0  0  0  0  0  0  0
  143.3670  134.7648  152.0195 H   0  0  0  0  0  0  0  0  0  0  0  0
  146.3716  135.0102  151.5554 H   0  0  0  0  0  0  0  0  0  0  0  0
  145.1262  135.6770  150.5301 H   0  0  0  0  0  0  0  0  0  0  0  0
  146.0619  137.4049  152.0716 H   0  0  0  0  0  0  0  0  0  0  0  0
  144.3521  137.1667  152.3012 H   0  0  0  0  0  0  0  0  0  0  0  0
  145.2701  137.2891  154.4848 H   0  0  0  0  0  0  0  0  0  0  0  0
  147.4707  135.6931  153.4360 H   0  0  0  0  0  0  0  0  0  0  0  0
  148.8454  138.0411  153.2973 H   0  0  0  0  0  0  0  0  0  0  0  0
  147.6021  139.0892  153.9868 H   0  0  0  0  0  0  0  0  0  0  0  0
  148.2350  139.5911  156.4942 H   0  0  0  0  0  0  0  0  0  0  0  0
  149.8022  140.3059  158.0452 H   0  0  0  0  0  0  0  0  0  0  0  0
  151.0812  140.2851  156.8575 H   0  0  0  0  0  0  0  0  0  0  0  0
  149.9849  142.3421  155.7704 H   0  0  0  0  0  0  0  0  0  0  0  0
  148.8453  142.3786  157.0840 H   0  0  0  0  0  0  0  0  0  0  0  0
  151.6423  141.2957  158.8215 H   0  0  0  0  0  0  0  0  0  0  0  0
  153.1720  142.7781  160.1306 H   0  0  0  0  0  0  0  0  0  0  0  0
  153.1910  145.2384  159.6645 H   0  0  0  0  0  0  0  0  0  0  0  0
  151.6269  146.1413  157.8454 H   0  0  0  0  0  0  0  0  0  0  0  0
  144.8914  134.9904  155.4658 H   0  0  0  0  0  0  0  0  0  0  0  0
  143.5993  135.6145  154.4782 H   0  0  0  0  0  0  0  0  0  0  0  0
  143.9590  133.2698  153.9069 H   0  0  0  0  0  0  0  0  0  0  0  0
  145.6589  133.5410  153.6172 H   0  0  0  0  0  0  0  0  0  0  0  0
  150.2620  144.6595  156.7115 H   0  0  0  0  0  0  0  0  0  0  0  0
  1  2  1  0  0  0  0
  1 24  1  0  0  0  0
  1 25  1  0  0  0  0
  1 26  1  0  0  0  0
  2 23  1  0  0  0  0
  2  3  1  0  0  0  0
  2 27  1  0  0  0  0
  3  4  1  0  0  0  0
  3 28  1  0  0  0  0
  3 29  1  0  0  0  0
  4  5  1  0  0  0  0
  4 30  1  0  0  0  0
  4 31  1  0  0  0  0
  5  6  1  0  0  0  0
  5 22  1  0  0  0  0
  5 32  1  0  0  0  0
  6  7  1  0  0  0  0
  6 33  1  0  0  0  0
  7  8  2  0  0  0  0
  7  9  2  0  0  0  0
  7 10  1  0  0  0  0
 10 11  1  0  0  0  0
 10 34  1  0  0  0  0
 10 35  1  0  0  0  0
 11 12  2  0  0  0  0
 11 13  1  0  0  0  0
 13 14  1  0  0  0  0
 13 36  1  0  0  0  0
 14 15  1  0  0  0  0
 14 37  1  0  0  0  0
 14 38  1  0  0  0  0
 15 16  1  0  0  0  0
 15 39  1  0  0  0  0
 15 40  1  0  0  0  0
 16 21  1  0  0  0  0
 16 17  2  0  0  0  0
 17 18  1  0  0  0  0
 17 41  1  0  0  0  0
 18 19  2  0  0  0  0
 18 42  1  0  0  0  0
 19 20  1  0  0  0  0
 19 43  1  0  0  0  0
 20 21  2  0  0  0  0
 20 44  1  0  0  0  0
 21 49  1  0  0  0  0
 22 23  1  0  0  0  0
 22 45  1  0  0  0  0
 22 46  1  0  0  0  0
 23 47  1  0  0  0  0
 23 48  1  0  0  0  0
M  CHG  1  21   1
M  END
> <s_m_source_file>
AV-unprocessed.smi

> <i_m_source_file_index>
1120

> <i_lp_mmshare_version>
43012

> <i_f3d_flags>
0

> <s_epik_input>
W0NIM11bQ0BASF0xW0NIMl1bQ0gyXVtDQEhdKFtDSDJdW0NIMl0xKVtOSF1TKD1PKSg9TylbQ0gyXUMoPU8pW05IXVtDSDJdW0NIMl1jMltjSF1bY0hdW2NIXVtjSF1uMg==

> <s_epik_cmdline>
J2VwaWtfcHl0aG9uJywgJy1waCcsICc3LjAnLCAnLXRuJywgJzgnLCAnLW1hJywgJzIwMCcsICctbWV0YWxfYmluZGluZycsICctaW1hZScsICc8aW5maWxlLm1hZT4nLCAnLW9tYWUnLCAnPG91dGZpbGUubWFlPic=

> <r_epik_Ionization_Penalty>
1.97387

> <r_epik_Ionization_Penalty_Charging>
1.97382

> <r_epik_Ionization_Penalty_Neutral>
4.57635e-05

> <r_epik_State_Penalty>
2.10057

> <r_epik_Charging_Adjusted_Penalty>
4.07439

> <i_epik_Tot_Q>
1

> <i_epik_Tot_abs_Q>
1

> <r_epik_Metal_State_Penalty>
2.15877

> <b_epik_Metal_Only>
0

> <s_lp_Force_Field>
OPLS_2005

> <r_lp_Energy>
8.31708

> <b_lp_Chiralities_Consistent>
1

> <s_lp_Variant>
AV-unprocessed.smi:1120-4

> <Gold.Version>
5.8.1

> <Gold.Id.Protein>
6NUR|6NUR_protein|mol2

> <Gold.PLP.Fitness>
49.1285

> <Gold.PLP.PLP>
-37.8789

> <Gold.PLP.part.hbond>
-3.0000

> <Gold.PLP.part.metal>
0.0000

> <Gold.PLP.part.buried>
-5.4446

> <Gold.PLP.part.nonpolar>
-30.3052

> <Gold.PLP.part.repulsive>
0.3016

> <Gold.PLP.ligand.clash>
0.0000

> <Gold.PLP.ligand.torsion>
0.9671

> <Gold.PLP.Chemscore.Hbond>
4.0000

> <Gold.PLP.Chemscore.CHOScore>
0.0000

> <Gold.PLP.Chemscore.Metal>
0.0000

> <Gold.Chemscore.Hbonds>
donor molecule, donor type, donor heavy atom, donor atom, acceptor molecule, acceptor atom, score
      L1  H     6    33       P1  7948  0.44
      L1  H    21    49       P1  8028  2.00
      P1  H  7989  7998       L1    12  1.00

> <Gold.PLP.Chemscore.Internal.Correction>
1.1837

> <Gold.Rescore>
     Score         DG    S(hbond)    S(metal)    S(lipo)     H(rot)  DE(clash)    DE(int)     intcor
     21.03     -22.20       2.83        0.00     106.82       2.05       0.23       0.95       ----

> <Gold.Chemscore.Fitness>
21.0264

> <Gold.Chemscore.DG>
-22.1988

> <Gold.Chemscore.ZeroCoef>
-5.4800

> <Gold.Chemscore.Hbond>
2.8323

> <Gold.Chemscore.Metal>
0.0000

> <Gold.Chemscore.Lipo>
106.8168

> <Gold.Chemscore.Internal_Hbond>
0.0000

> <Gold.Chemscore.DEClash>
0.2268

> <Gold.Chemscore.DEInternal>
0.9455

> <Gold.Chemscore.Rot>
2.0463

> <Gold.Chemscore.Internal.Correction>
   9.000000E+99

> <Gold.Chemscore.Hbonds>
donor molecule, donor type, donor heavy atom, donor atom, acceptor molecule, acceptor atom, score
      L1  H     6    33       P1  7948  0.44
      L1  H    21    49       P1  8028  0.81
      P1  H  7989  7998       L1    12  0.95

> <Gold.Chemscore.Hbond.Weighted>
-9.4598

> <Gold.Chemscore.Metal.Weighted>
-0.0000

> <Gold.Chemscore.Lipo.Weighted>
-12.4976

> <Gold.Chemscore.Internal_Hbond.Weighted>
0.0000

> <Gold.Chemscore.DEClash.Weighted>
0.2268

> <Gold.Chemscore.DEInternal.Weighted>
0.9455

> <Gold.Chemscore.Rot.Weighted>
5.2386

> <Gold.Chemscore.Internal.Correction.Weighted>
   9.000000E+99

> <Gold.Protein.RotatedTorsions>
[ 6907 6896 6895 6894 ] final  119.59 input  -60.11 | X-H torsion
[ 7974 7965 7964 7962 ] final -148.08 input  175.53 | X-H torsion
[ 8008 7997 7996 7995 ] final  -17.90 input   59.86 | X-H torsion
[ 10167 10162 10161 10158 ] final  -48.99 input  -65.29 | X-H torsion
[ 10718 10713 10712 10709 ] final -159.06 input   66.30 | X-H torsion
[ 10763 10752 10751 10750 ] final  174.96 input  -60.55 | X-H torsion
[ 11005 11000 10999 10996 ] final -119.29 input  -57.11 | X-H torsion

> <Gold.Protein.ActiveResidues>
 VAL166  LYS551  ARG553  GLY616  TRP617  ASP618  TYR619  PRO620  LYS621  CYS622 
 ASP623  PHE694  ASN695  SER759  ASP760  ASP761  ALA762  ILE779  LEU786  VAL792 
 PHE793  MET794  SER795  GLU796  ALA797  LYS798  CYS799  TRP800  GLU811  SER814 

> <Gold.Protein.RotatedAtoms>
  152.4461  133.7538  159.6708 H   0  0  0  0  0  0  0  0  0  0  0  0  # atno 6907 bound_to 6896
  150.8361  133.8001  159.3085 H   0  0  0  0  0  0  0  0  0  0  0  0  # atno 6908 bound_to 6896
  151.5641  135.1067  160.0031 H   0  0  0  0  0  0  0  0  0  0  0  0  # atno 6909 bound_to 6896
  144.8052  140.5243  143.5680 H   0  0  0  0  0  0  0  0  0  0  0  0  # atno 7974 bound_to 7965
  154.4945  140.2130  155.9477 H   0  0  0  0  0  0  0  0  0  0  0  0  # atno 8008 bound_to 7997
  156.1351  140.3190  155.8376 H   0  0  0  0  0  0  0  0  0  0  0  0  # atno 8009 bound_to 7997
  155.4225  140.0498  157.3015 H   0  0  0  0  0  0  0  0  0  0  0  0  # atno 8010 bound_to 7997
  140.6705  143.2716  151.4151 H   0  0  0  0  0  0  0  0  0  0  0  0  # atno 10167 bound_to 10162
  156.5629  130.8655  151.2815 H   0  0  0  0  0  0  0  0  0  0  0  0  # atno 10718 bound_to 10713
  154.4611  135.2768  155.1712 H   0  0  0  0  0  0  0  0  0  0  0  0  # atno 10763 bound_to 10752
  154.3499  135.6152  153.5641 H   0  0  0  0  0  0  0  0  0  0  0  0  # atno 10764 bound_to 10752
  152.9855  135.5809  154.4974 H   0  0  0  0  0  0  0  0  0  0  0  0  # atno 10765 bound_to 10752
  141.0226  134.0102  157.3261 H   0  0  0  0  0  0  0  0  0  0  0  0  # atno 11005 bound_to 11000
  145.5455  139.1476  143.3423 LP  0  0  0  0  0  0  0  0  0  0  0  0  # atno 17320 bound_to 7965
  146.2342  140.5594  142.8962 LP  0  0  0  0  0  0  0  0  0  0  0  0  # atno 17321 bound_to 7965
  139.5972  144.1372  152.2157 LP  0  0  0  0  0  0  0  0  0  0  0  0  # atno 17342 bound_to 10162
  140.0745  144.5752  150.7167 LP  0  0  0  0  0  0  0  0  0  0  0  0  # atno 17343 bound_to 10162
  157.7365  130.9779  150.2138 LP  0  0  0  0  0  0  0  0  0  0  0  0  # atno 17370 bound_to 10713
  156.2783  130.3730  149.7961 LP  0  0  0  0  0  0  0  0  0  0  0  0  # atno 17371 bound_to 10713
  139.9155  135.0196  156.7865 LP  0  0  0  0  0  0  0  0  0  0  0  0  # atno 17394 bound_to 11000
  140.6547  133.9699  155.7773 LP  0  0  0  0  0  0  0  0  0  0  0  0  # atno 17395 bound_to 11000

$$$$
