AV-unprocessed.smi:701|AV-procd|sdf|3413|dock4
  -GOLD-   22720 0393D 1   1.00000     0.00000
 Structure written by MMmdl.
 48 50  0  0  0  0  0  0  0  0  2 V2000
  144.1538  138.8099  158.7188 C   0  0  0  0  0  0  0  0  0  0  0  0
  144.3214  138.4570  160.1981 C   0  0  0  0  0  0  0  0  0  0  0  0
  145.5690  137.8062  160.3688 O   0  0  0  0  0  0  0  0  0  0  0  0
  145.5387  136.4279  160.0189 C   0  0  1  0  0  0  0  0  0  0  0  0
  145.6810  136.2098  158.5075 C   0  0  0  0  0  0  0  0  0  0  0  0
  147.1956  136.0793  158.7233 C   0  0  1  0  0  0  0  0  0  0  0  0
  147.8831  137.3573  158.5355 N   0  0  0  0  0  0  0  0  0  0  0  0
  148.1742  137.9011  157.3457 C   0  0  0  0  0  0  0  0  0  0  0  0
  147.8907  137.3623  156.2745 O   0  0  0  0  0  0  0  0  0  0  0  0
  148.8600  139.2739  157.3882 C   0  0  0  0  0  0  0  0  0  0  0  0
  150.1904  139.2807  156.7590 N   0  0  0  0  0  0  0  0  0  0  0  0
  151.1822  138.4610  157.3258 C   0  0  0  0  0  0  0  0  0  0  0  0
  152.4319  138.4097  156.8272 C   0  0  0  0  0  0  0  0  0  0  0  0
  152.7456  139.2331  155.6662 C   0  0  0  0  0  0  0  0  0  0  0  0
  153.8802  139.1947  155.1939 O   0  0  0  0  0  0  0  0  0  0  0  0
  151.7504  140.0153  155.1550 N   0  5  0  0  0  0  0  0  0  0  0  0
  150.4850  140.0614  155.6762 C   0  0  0  0  0  0  0  0  0  0  0  0
  149.6036  140.7801  155.2037 O   0  0  0  0  0  0  0  0  0  0  0  0
  146.9146  135.7363  160.2135 C   0  0  0  0  0  0  0  0  0  0  0  0
  147.8551  136.3326  161.2847 C   0  0  0  0  0  0  0  0  0  0  0  0
  147.3727  136.0614  162.7194 C   0  0  0  0  0  0  0  0  0  0  0  0
  147.2336  134.5570  162.9810 C   0  0  0  0  0  0  0  0  0  0  0  0
  146.3479  133.8924  161.9207 C   0  0  0  0  0  0  0  0  0  0  0  0
  146.8362  134.2209  160.4985 C   0  0  0  0  0  0  0  0  0  0  0  0
  143.2043  139.3159  158.5435 H   0  0  0  0  0  0  0  0  0  0  0  0
  144.1756  137.9135  158.0987 H   0  0  0  0  0  0  0  0  0  0  0  0
  144.9526  139.4710  158.3815 H   0  0  0  0  0  0  0  0  0  0  0  0
  144.2861  139.3628  160.8049 H   0  0  0  0  0  0  0  0  0  0  0  0
  143.5026  137.8126  160.5192 H   0  0  0  0  0  0  0  0  0  0  0  0
  144.7053  135.8900  160.4724 H   0  0  0  0  0  0  0  0  0  0  0  0
  145.2238  135.2776  158.1734 H   0  0  0  0  0  0  0  0  0  0  0  0
  145.3674  137.0454  157.8809 H   0  0  0  0  0  0  0  0  0  0  0  0
  147.6443  135.2566  158.1642 H   0  0  0  0  0  0  0  0  0  0  0  0
  148.1415  137.8662  159.3685 H   0  0  0  0  0  0  0  0  0  0  0  0
  148.2077  139.9950  156.8939 H   0  0  0  0  0  0  0  0  0  0  0  0
  148.9263  139.6131  158.4237 H   0  0  0  0  0  0  0  0  0  0  0  0
  150.8690  137.8900  158.1874 H   0  0  0  0  0  0  0  0  0  0  0  0
  153.1836  137.7785  157.2774 H   0  0  0  0  0  0  0  0  0  0  0  0
  148.8606  135.9278  161.1625 H   0  0  0  0  0  0  0  0  0  0  0  0
  147.9614  137.4105  161.1626 H   0  0  0  0  0  0  0  0  0  0  0  0
  148.0689  136.4988  163.4355 H   0  0  0  0  0  0  0  0  0  0  0  0
  146.4128  136.5533  162.8822 H   0  0  0  0  0  0  0  0  0  0  0  0
  148.2215  134.0951  162.9679 H   0  0  0  0  0  0  0  0  0  0  0  0
  146.8235  134.3838  163.9763 H   0  0  0  0  0  0  0  0  0  0  0  0
  146.3395  132.8125  162.0705 H   0  0  0  0  0  0  0  0  0  0  0  0
  145.3175  134.2262  162.0453 H   0  0  0  0  0  0  0  0  0  0  0  0
  146.1769  133.7286  159.7829 H   0  0  0  0  0  0  0  0  0  0  0  0
  147.8160  133.7659  160.3469 H   0  0  0  0  0  0  0  0  0  0  0  0
  1  2  1  0  0  0  0
  1 25  1  0  0  0  0
  1 26  1  0  0  0  0
  1 27  1  0  0  0  0
  2  3  1  0  0  0  0
  2 28  1  0  0  0  0
  2 29  1  0  0  0  0
  3  4  1  0  0  0  0
  4 19  1  0  0  0  0
  4  5  1  0  0  0  0
  4 30  1  0  0  0  0
  5  6  1  0  0  0  0
  5 31  1  0  0  0  0
  5 32  1  0  0  0  0
  6  7  1  0  0  0  0
  6 19  1  0  0  0  0
  6 33  1  0  0  0  0
  7  8  1  0  0  0  0
  7 34  1  0  0  0  0
  8  9  2  0  0  0  0
  8 10  1  0  0  0  0
 10 11  1  0  0  0  0
 10 35  1  0  0  0  0
 10 36  1  0  0  0  0
 11 17  1  0  0  0  0
 11 12  1  0  0  0  0
 12 13  2  0  0  0  0
 12 37  1  0  0  0  0
 13 14  1  0  0  0  0
 13 38  1  0  0  0  0
 14 15  2  0  0  0  0
 14 16  1  0  0  0  0
 16 17  1  0  0  0  0
 17 18  2  0  0  0  0
 19 24  1  0  0  0  0
 19 20  1  0  0  0  0
 20 21  1  0  0  0  0
 20 39  1  0  0  0  0
 20 40  1  0  0  0  0
 21 22  1  0  0  0  0
 21 41  1  0  0  0  0
 21 42  1  0  0  0  0
 22 23  1  0  0  0  0
 22 43  1  0  0  0  0
 22 44  1  0  0  0  0
 23 24  1  0  0  0  0
 23 45  1  0  0  0  0
 23 46  1  0  0  0  0
 24 47  1  0  0  0  0
 24 48  1  0  0  0  0
M  CHG  1  16  -1
M  END
> <s_m_source_file>
AV-unprocessed.smi

> <i_m_source_file_index>
701

> <i_lp_mmshare_version>
43012

> <i_f3d_flags>
0

> <s_epik_input>
W0NIMl0xW0NIMl1bQ0gyXVtDSDJdW0NIMl1DMTJbQ0BIXShPW0NIMl1bQ0gzXSlbQ0gyXVtDQEhdMltOSF1DKD1PKVtDSDJdbjNbY0hdW2NIXWMoPU8pW25IXWMzPU8=

> <s_epik_cmdline>
J2VwaWtfcHl0aG9uJywgJy1waCcsICc3LjAnLCAnLXRuJywgJzgnLCAnLW1hJywgJzIwMCcsICctbWV0YWxfYmluZGluZycsICctaW1hZScsICc8aW5maWxlLm1hZT4nLCAnLW9tYWUnLCAnPG91dGZpbGUubWFlPic=

> <r_lp_tautomer_probability>
0.999537

> <r_epik_Ionization_Penalty>
3.12423

> <r_epik_Ionization_Penalty_Charging>
2.92877e-08

> <r_epik_Ionization_Penalty_Neutral>
3.12423

> <r_epik_State_Penalty>
3.12332

> <r_epik_Charging_Adjusted_Penalty>
3.12332

> <i_epik_Tot_Q>
-1

> <i_epik_Tot_abs_Q>
1

> <r_epik_Metal_State_Penalty>
0.463873

> <b_epik_Metal_Only>
1

> <s_lp_Force_Field>
OPLS_2005

> <r_lp_Energy>
39.3964

> <b_lp_Chiralities_Consistent>
1

> <s_lp_Variant>
AV-unprocessed.smi:701-6

> <Gold.Version>
5.8.1

> <Gold.Id.Protein>
6NUR|6NUR_protein|mol2

> <Gold.PLP.Fitness>
39.6104

> <Gold.PLP.PLP>
-31.1990

> <Gold.PLP.part.hbond>
-3.3994

> <Gold.PLP.part.metal>
0.0000

> <Gold.PLP.part.buried>
-5.3634

> <Gold.PLP.part.nonpolar>
-23.5042

> <Gold.PLP.part.repulsive>
0.3022

> <Gold.PLP.ligand.clash>
0.0000

> <Gold.PLP.ligand.torsion>
0.3444

> <Gold.PLP.Chemscore.Hbond>
2.9120

> <Gold.PLP.Chemscore.CHOScore>
0.0000

> <Gold.PLP.Chemscore.Metal>
0.0000

> <Gold.Chemscore.Hbonds>
donor molecule, donor type, donor heavy atom, donor atom, acceptor molecule, acceptor atom, score
      P1  H  6934  6947       L1     3  0.86
      P1  H  7989  7998       L1    16  0.96
      P1  H  7997  8008       L1    15  0.48

> <Gold.PLP.Chemscore.Internal.Correction>
0.3643

> <Gold.Rescore>
     Score         DG    S(hbond)    S(metal)    S(lipo)     H(rot)  DE(clash)    DE(int)     intcor
     15.97     -16.74       2.68        0.00      64.46       2.04       0.22       0.55       ----

> <Gold.Chemscore.Fitness>
15.9734

> <Gold.Chemscore.DG>
-16.7406

> <Gold.Chemscore.ZeroCoef>
-5.4800

> <Gold.Chemscore.Hbond>
2.6769

> <Gold.Chemscore.Metal>
0.0000

> <Gold.Chemscore.Lipo>
64.4606

> <Gold.Chemscore.Internal_Hbond>
0.0000

> <Gold.Chemscore.DEClash>
0.2188

> <Gold.Chemscore.DEInternal>
0.5484

> <Gold.Chemscore.Rot>
2.0399

> <Gold.Chemscore.Internal.Correction>
   9.000000E+99

> <Gold.Chemscore.Hbonds>
donor molecule, donor type, donor heavy atom, donor atom, acceptor molecule, acceptor atom, score
      P1  H  6934  6947       L1     3  0.72
      P1  H  7989  7998       L1    16  0.51
      P1  H  7997  8008       L1    15  0.25

> <Gold.Chemscore.Hbond.Weighted>
-8.9409

> <Gold.Chemscore.Metal.Weighted>
-0.0000

> <Gold.Chemscore.Lipo.Weighted>
-7.5419

> <Gold.Chemscore.Internal_Hbond.Weighted>
0.0000

> <Gold.Chemscore.DEClash.Weighted>
0.2188

> <Gold.Chemscore.DEInternal.Weighted>
0.5484

> <Gold.Chemscore.Rot.Weighted>
5.2222

> <Gold.Chemscore.Internal.Correction.Weighted>
   9.000000E+99

> <Gold.Protein.RotatedTorsions>
[ 6907 6896 6895 6894 ] final  -14.48 input  -60.11 | X-H torsion
[ 7974 7965 7964 7962 ] final   81.68 input  175.53 | X-H torsion
[ 8008 7997 7996 7995 ] final   -8.03 input   59.86 | X-H torsion
[ 10167 10162 10161 10158 ] final  150.75 input  -65.29 | X-H torsion
[ 10718 10713 10712 10709 ] final  159.41 input   66.30 | X-H torsion
[ 10763 10752 10751 10750 ] final -110.68 input  -60.55 | X-H torsion
[ 11005 11000 10999 10996 ] final -129.11 input  -57.11 | X-H torsion

> <Gold.Protein.ActiveResidues>
 VAL166  LYS551  ARG553  GLY616  TRP617  ASP618  TYR619  PRO620  LYS621  CYS622 
 ASP623  PHE694  ASN695  SER759  ASP760  ASP761  ALA762  ILE779  LEU786  VAL792 
 PHE793  MET794  SER795  GLU796  ALA797  LYS798  CYS799  TRP800  GLU811  SER814 

> <Gold.Protein.RotatedAtoms>
  151.3388  135.0859  159.9363 H   0  0  0  0  0  0  0  0  0  0  0  0  # atno 6907 bound_to 6896
  152.5216  133.9469  159.7663 H   0  0  0  0  0  0  0  0  0  0  0  0  # atno 6908 bound_to 6896
  150.9821  133.6181  159.2750 H   0  0  0  0  0  0  0  0  0  0  0  0  # atno 6909 bound_to 6896
  145.6349  139.2413  143.2063 H   0  0  0  0  0  0  0  0  0  0  0  0  # atno 7974 bound_to 7965
  154.5781  140.2392  155.8093 H   0  0  0  0  0  0  0  0  0  0  0  0  # atno 8008 bound_to 7997
  156.2158  140.3012  155.9793 H   0  0  0  0  0  0  0  0  0  0  0  0  # atno 8009 bound_to 7997
  155.2591  140.0413  157.2986 H   0  0  0  0  0  0  0  0  0  0  0  0  # atno 8010 bound_to 7997
  139.4847  144.5497  151.7423 H   0  0  0  0  0  0  0  0  0  0  0  0  # atno 10167 bound_to 10162
  157.1646  131.0595  151.2214 H   0  0  0  0  0  0  0  0  0  0  0  0  # atno 10718 bound_to 10713
  154.8260  135.4555  154.0922 H   0  0  0  0  0  0  0  0  0  0  0  0  # atno 10763 bound_to 10752
  153.2235  135.6897  153.7979 H   0  0  0  0  0  0  0  0  0  0  0  0  # atno 10764 bound_to 10752
  153.7387  135.3316  155.3276 H   0  0  0  0  0  0  0  0  0  0  0  0  # atno 10765 bound_to 10752
  140.9459  134.1131  157.4108 H   0  0  0  0  0  0  0  0  0  0  0  0  # atno 11005 bound_to 11000
  146.1327  140.7164  142.9404 LP  0  0  0  0  0  0  0  0  0  0  0  0  # atno 17320 bound_to 7965
  144.7179  140.4274  143.7030 LP  0  0  0  0  0  0  0  0  0  0  0  0  # atno 17321 bound_to 7965
  140.5049  144.1113  150.5980 LP  0  0  0  0  0  0  0  0  0  0  0  0  # atno 17342 bound_to 10162
  140.4019  143.2699  151.9937 LP  0  0  0  0  0  0  0  0  0  0  0  0  # atno 17343 bound_to 10162
  157.4100  130.7380  149.6832 LP  0  0  0  0  0  0  0  0  0  0  0  0  # atno 17370 bound_to 10713
  155.9748  130.4098  150.3896 LP  0  0  0  0  0  0  0  0  0  0  0  0  # atno 17371 bound_to 10713
  139.8833  135.0051  156.6292 LP  0  0  0  0  0  0  0  0  0  0  0  0  # atno 17394 bound_to 11000
  140.7670  133.8770  155.8462 LP  0  0  0  0  0  0  0  0  0  0  0  0  # atno 17395 bound_to 11000

$$$$
