AV-unprocessed.smi:2451|AV-procd|sdf|9677|dock6
  -GOLD-   2272013313D 1   1.00000     0.00000
 Structure written by MMmdl.
 37 38  0  0  0  0  0  0  0  0  2 V2000
  151.4841  145.5396  160.1927 C   0  0  0  0  0  0  0  0  0  0  0  0
  151.9027  144.0764  160.4276 C   0  0  2  0  0  0  0  0  0  0  0  0
  152.5243  143.9476  161.8413 C   0  0  0  0  0  0  0  0  0  0  0  0
  152.9789  142.4998  162.1088 C   0  0  0  0  0  0  0  0  0  0  0  0
  153.9263  141.9591  161.0097 C   0  0  0  0  0  0  0  0  0  0  0  0
  153.3474  142.0655  159.5788 C   0  0  1  0  0  0  0  0  0  0  0  0
  152.2467  141.1208  159.4277 N   0  5  0  0  0  0  0  0  0  0  0  0
  152.4671  139.7389  158.6082 S   0  0  0  0  0  0  0  0  0  0  0  0
  153.8826  139.3431  158.5207 O   0  0  0  0  0  0  0  0  0  0  0  0
  151.5033  138.7019  159.0108 O   0  0  0  0  0  0  0  0  0  0  0  0
  151.9665  140.2650  156.9100 C   0  0  0  0  0  0  0  0  0  0  0  0
  151.8003  139.0677  156.0134 C   0  0  0  0  0  0  0  0  0  0  0  0
  150.8487  138.8660  154.9746 C   0  0  0  0  0  0  0  0  0  0  0  0
  151.1529  137.6237  154.4989 C   0  0  0  0  0  0  0  0  0  0  0  0
  152.1939  137.0926  155.1885 O   0  0  0  0  0  0  0  0  0  0  0  0
  152.5972  138.0195  156.1563 N   0  0  0  0  0  0  0  0  0  0  0  0
  152.8633  143.5299  159.3138 C   0  0  1  0  0  0  0  0  0  0  0  0
  152.3102  143.7237  157.8791 C   0  0  0  0  0  0  0  0  0  0  0  0
  152.3540  146.1894  160.0920 H   0  0  0  0  0  0  0  0  0  0  0  0
  150.8848  145.9133  161.0234 H   0  0  0  0  0  0  0  0  0  0  0  0
  150.8755  145.6468  159.2954 H   0  0  0  0  0  0  0  0  0  0  0  0
  150.9827  143.4876  160.4169 H   0  0  0  0  0  0  0  0  0  0  0  0
  153.3802  144.6180  161.9311 H   0  0  0  0  0  0  0  0  0  0  0  0
  151.8070  144.2545  162.6028 H   0  0  0  0  0  0  0  0  0  0  0  0
  153.4836  142.4533  163.0741 H   0  0  0  0  0  0  0  0  0  0  0  0
  152.1025  141.8554  162.2038 H   0  0  0  0  0  0  0  0  0  0  0  0
  154.8585  142.5237  161.0493 H   0  0  0  0  0  0  0  0  0  0  0  0
  154.1978  140.9257  161.2292 H   0  0  0  0  0  0  0  0  0  0  0  0
  154.1552  141.8437  158.8800 H   0  0  0  0  0  0  0  0  0  0  0  0
  151.0291  140.8139  156.9996 H   0  0  0  0  0  0  0  0  0  0  0  0
  152.7144  140.9568  156.5235 H   0  0  0  0  0  0  0  0  0  0  0  0
  150.0750  139.5347  154.6274 H   0  0  0  0  0  0  0  0  0  0  0  0
  150.7401  137.0083  153.7134 H   0  0  0  0  0  0  0  0  0  0  0  0
  153.7618  144.1470  159.3622 H   0  0  0  0  0  0  0  0  0  0  0  0
  151.3430  143.2373  157.7431 H   0  0  0  0  0  0  0  0  0  0  0  0
  152.9874  143.3350  157.1156 H   0  0  0  0  0  0  0  0  0  0  0  0
  152.1762  144.7789  157.6451 H   0  0  0  0  0  0  0  0  0  0  0  0
  1  2  1  0  0  0  0
  1 19  1  0  0  0  0
  1 20  1  0  0  0  0
  1 21  1  0  0  0  0
  2 17  1  0  0  0  0
  2  3  1  0  0  0  0
  2 22  1  0  0  0  0
  3  4  1  0  0  0  0
  3 23  1  0  0  0  0
  3 24  1  0  0  0  0
  4  5  1  0  0  0  0
  4 25  1  0  0  0  0
  4 26  1  0  0  0  0
  5  6  1  0  0  0  0
  5 27  1  0  0  0  0
  5 28  1  0  0  0  0
  6  7  1  0  0  0  0
  6 17  1  0  0  0  0
  6 29  1  0  0  0  0
  7  8  1  0  0  0  0
  8  9  2  0  0  0  0
  8 10  2  0  0  0  0
  8 11  1  0  0  0  0
 11 12  1  0  0  0  0
 11 30  1  0  0  0  0
 11 31  1  0  0  0  0
 12 16  2  0  0  0  0
 12 13  1  0  0  0  0
 13 14  2  0  0  0  0
 13 32  1  0  0  0  0
 14 15  1  0  0  0  0
 14 33  1  0  0  0  0
 15 16  1  0  0  0  0
 17 18  1  0  0  0  0
 17 34  1  0  0  0  0
 18 35  1  0  0  0  0
 18 36  1  0  0  0  0
 18 37  1  0  0  0  0
M  CHG  1   7  -1
M  END
> <s_m_source_file>
AV-unprocessed.smi

> <i_m_source_file_index>
2451

> <i_lp_mmshare_version>
43012

> <i_f3d_flags>
0

> <s_epik_input>
W0NIM11bQ0BASF0xW0NIMl1bQ0gyXVtDSDJdW0NASF0oW0NASF0xW0NIM10pW05IXVMoPU8pKD1PKVtDSDJdYzJbY0hdW2NIXW9uMg==

> <s_epik_cmdline>
J2VwaWtfcHl0aG9uJywgJy1waCcsICc3LjAnLCAnLXRuJywgJzgnLCAnLW1hJywgJzIwMCcsICctbWV0YWxfYmluZGluZycsICctaW1hZScsICc8aW5maWxlLm1hZT4nLCAnLW9tYWUnLCAnPG91dGZpbGUubWFlPic=

> <r_lp_tautomer_probability>
1

> <r_epik_Ionization_Penalty>
5.22693

> <r_epik_Ionization_Penalty_Charging>
5.22693

> <r_epik_Ionization_Penalty_Neutral>
2.67702e-10

> <r_epik_State_Penalty>
5.22685

> <r_epik_Charging_Adjusted_Penalty>
10.4538

> <i_epik_Tot_Q>
-1

> <i_epik_Tot_abs_Q>
1

> <r_epik_Metal_State_Penalty>
1.28716

> <b_epik_Metal_Only>
1

> <s_lp_Force_Field>
OPLS_2005

> <r_lp_Energy>
15.2767

> <b_lp_Chiralities_Consistent>
1

> <s_lp_Variant>
AV-unprocessed.smi:2451-9

> <Gold.Version>
5.8.1

> <Gold.Id.Protein>
6NUR|6NUR_protein|mol2

> <Gold.PLP.Fitness>
53.7813

> <Gold.PLP.PLP>
-46.3752

> <Gold.PLP.part.hbond>
-2.0000

> <Gold.PLP.part.metal>
0.0000

> <Gold.PLP.part.buried>
-5.0960

> <Gold.PLP.part.nonpolar>
-38.8938

> <Gold.PLP.part.repulsive>
0.0952

> <Gold.PLP.ligand.clash>
0.0000

> <Gold.PLP.ligand.torsion>
1.2277

> <Gold.PLP.Chemscore.Hbond>
1.8247

> <Gold.PLP.Chemscore.CHOScore>
1.1320

> <Gold.PLP.Chemscore.Metal>
0.0000

> <Gold.Chemscore.Hbonds>
donor molecule, donor type, donor heavy atom, donor atom, acceptor molecule, acceptor atom, score
      P1  H  7997  8008       L1     9  1.00
      P1  H 10752 10764       L1    15  0.83
      L1  C    14    33       P1  7948  0.32
      L1  C    14    33       P1  7949  0.77

> <Gold.PLP.Chemscore.Internal.Correction>
0.9914

> <Gold.Rescore>
     Score         DG    S(hbond)    S(metal)    S(lipo)     H(rot)  DE(clash)    DE(int)     intcor
     19.86     -22.52       1.93        0.00     121.21       1.40       0.16       2.50       ----

> <Gold.Chemscore.Fitness>
19.8556

> <Gold.Chemscore.DG>
-22.5171

> <Gold.Chemscore.ZeroCoef>
-5.4800

> <Gold.Chemscore.Hbond>
1.9268

> <Gold.Chemscore.Metal>
0.0000

> <Gold.Chemscore.Lipo>
121.2125

> <Gold.Chemscore.Internal_Hbond>
0.0000

> <Gold.Chemscore.DEClash>
0.1587

> <Gold.Chemscore.DEInternal>
2.5028

> <Gold.Chemscore.Rot>
1.3986

> <Gold.Chemscore.Internal.Correction>
   9.000000E+99

> <Gold.Chemscore.Hbonds>
donor molecule, donor type, donor heavy atom, donor atom, acceptor molecule, acceptor atom, score
      P1  H  7997  8008       L1     9  0.91
      P1  H 10752 10764       L1    15  0.78

> <Gold.Chemscore.Hbond.Weighted>
-6.4356

> <Gold.Chemscore.Metal.Weighted>
-0.0000

> <Gold.Chemscore.Lipo.Weighted>
-14.1819

> <Gold.Chemscore.Internal_Hbond.Weighted>
0.0000

> <Gold.Chemscore.DEClash.Weighted>
0.1587

> <Gold.Chemscore.DEInternal.Weighted>
2.5028

> <Gold.Chemscore.Rot.Weighted>
3.5804

> <Gold.Chemscore.Internal.Correction.Weighted>
   9.000000E+99

> <Gold.Protein.RotatedTorsions>
[ 6907 6896 6895 6894 ] final  -31.49 input  -60.11 | X-H torsion
[ 7974 7965 7964 7962 ] final  -92.57 input  175.53 | X-H torsion
[ 8008 7997 7996 7995 ] final  -97.72 input   59.86 | X-H torsion
[ 10167 10162 10161 10158 ] final   -7.64 input  -65.29 | X-H torsion
[ 10718 10713 10712 10709 ] final  174.86 input   66.30 | X-H torsion
[ 10763 10752 10751 10750 ] final  -63.37 input  -60.55 | X-H torsion
[ 11005 11000 10999 10996 ] final   93.00 input  -57.11 | X-H torsion

> <Gold.Protein.ActiveResidues>
 VAL166  LYS551  ARG553  GLY616  TRP617  ASP618  TYR619  PRO620  LYS621  CYS622 
 ASP623  PHE694  ASN695  SER759  ASP760  ASP761  ALA762  ILE779  LEU786  VAL792 
 PHE793  MET794  SER795  GLU796  ALA797  LYS798  CYS799  TRP800  GLU811  SER814 

> <Gold.Protein.RotatedAtoms>
  151.0913  134.9918  159.8403 H   0  0  0  0  0  0  0  0  0  0  0  0  # atno 6907 bound_to 6896
  152.5429  134.2062  159.8742 H   0  0  0  0  0  0  0  0  0  0  0  0  # atno 6908 bound_to 6896
  151.2098  133.4518  159.2631 H   0  0  0  0  0  0  0  0  0  0  0  0  # atno 6909 bound_to 6896
  145.3981  140.9535  143.2302 H   0  0  0  0  0  0  0  0  0  0  0  0  # atno 7974 bound_to 7965
  154.7916  140.0461  157.1205 H   0  0  0  0  0  0  0  0  0  0  0  0  # atno 8008 bound_to 7997
  154.9585  140.3074  155.5022 H   0  0  0  0  0  0  0  0  0  0  0  0  # atno 8009 bound_to 7997
  156.2950  140.2275  156.4668 H   0  0  0  0  0  0  0  0  0  0  0  0  # atno 8010 bound_to 7997
  140.7035  143.6058  150.8753 H   0  0  0  0  0  0  0  0  0  0  0  0  # atno 10167 bound_to 10162
  156.9434  131.0008  151.2964 H   0  0  0  0  0  0  0  0  0  0  0  0  # atno 10718 bound_to 10713
  154.3140  135.6209  153.5478 H   0  0  0  0  0  0  0  0  0  0  0  0  # atno 10763 bound_to 10752
  152.9826  135.5708  154.5145 H   0  0  0  0  0  0  0  0  0  0  0  0  # atno 10764 bound_to 10752
  154.4800  135.2863  155.1554 H   0  0  0  0  0  0  0  0  0  0  0  0  # atno 10765 bound_to 10752
  139.8816  134.8765  156.3654 H   0  0  0  0  0  0  0  0  0  0  0  0  # atno 11005 bound_to 11000
  144.8393  139.5498  143.6907 LP  0  0  0  0  0  0  0  0  0  0  0  0  # atno 17320 bound_to 7965
  146.2765  139.6766  142.9259 LP  0  0  0  0  0  0  0  0  0  0  0  0  # atno 17321 bound_to 7965
  139.9781  143.5981  152.2952 LP  0  0  0  0  0  0  0  0  0  0  0  0  # atno 17342 bound_to 10162
  139.6592  144.7662  151.1995 LP  0  0  0  0  0  0  0  0  0  0  0  0  # atno 17343 bound_to 10162
  157.5770  130.8350  149.8469 LP  0  0  0  0  0  0  0  0  0  0  0  0  # atno 17370 bound_to 10713
  156.0394  130.3743  150.1474 LP  0  0  0  0  0  0  0  0  0  0  0  0  # atno 17371 bound_to 10713
  140.9501  133.7457  156.0260 LP  0  0  0  0  0  0  0  0  0  0  0  0  # atno 17394 bound_to 11000
  140.8116  134.3393  157.5410 LP  0  0  0  0  0  0  0  0  0  0  0  0  # atno 17395 bound_to 11000

$$$$
