AV-unprocessed.smi:48|AV-procd|sdf|461|dock3
  -GOLD-   2262016333D 1   1.00000     0.00000
 Structure written by MMmdl.
 30 32  0  0  0  0  0  0  0  0  1 V2000
  151.7587  137.1150  154.8715 O   0  0  0  0  0  0  0  0  0  0  0  0
  151.2660  138.2668  154.2206 C   0  0  0  0  0  0  0  0  0  0  0  0
  150.7272  139.2670  155.2584 C   0  0  1  0  0  0  0  0  0  0  0  0
  151.4740  140.4795  155.2486 O   0  0  0  0  0  0  0  0  0  0  0  0
  150.7468  141.4799  155.8975 C   0  0  2  0  0  0  0  0  0  0  0  0
  151.2145  141.5566  157.3184 N   0  0  0  0  0  0  0  0  0  0  0  0
  151.3788  140.5682  158.2245 C   0  0  0  0  0  0  0  0  0  0  0  0
  151.8280  140.9118  159.4316 N   0  0  0  0  0  0  0  0  0  0  0  0
  151.9866  142.2804  159.2888 C   0  0  0  0  0  0  0  0  0  0  0  0
  152.4334  143.2951  160.1699 C   0  0  0  0  0  0  0  0  0  0  0  0
  152.9117  142.9231  161.7856 Cl  0  0  0  0  0  0  0  0  0  0  0  0
  152.4779  144.5703  159.7144 N   0  0  0  0  0  0  0  0  0  0  0  0
  152.1028  144.8315  158.4558 C   0  0  0  0  0  0  0  0  0  0  0  0
  151.6613  143.9860  157.5170 N   0  0  0  0  0  0  0  0  0  0  0  0
  151.6168  142.7021  157.9810 C   0  0  0  0  0  0  0  0  0  0  0  0
  149.2668  141.0542  155.8544 C   0  0  1  0  0  0  0  0  0  0  0  0
  148.4147  142.0447  155.3114 O   0  0  0  0  0  0  0  0  0  0  0  0
  149.3024  139.7774  155.0144 C   0  0  1  0  0  0  0  0  0  0  0  0
  149.0933  140.0260  153.6335 O   0  0  0  0  0  0  0  0  0  0  0  0
  150.7665  138.8267  156.2567 H   0  0  0  0  0  0  0  0  0  0  0  0
  150.9586  142.4645  155.4784 H   0  0  0  0  0  0  0  0  0  0  0  0
  148.9273  140.8110  156.8627 H   0  0  0  0  0  0  0  0  0  0  0  0
  148.5528  139.0584  155.3468 H   0  0  0  0  0  0  0  0  0  0  0  0
  152.0514  137.3614  155.7357 H   0  0  0  0  0  0  0  0  0  0  0  0
  152.0452  138.7136  153.6021 H   0  0  0  0  0  0  0  0  0  0  0  0
  150.4637  137.9475  153.5549 H   0  0  0  0  0  0  0  0  0  0  0  0
  151.1561  139.5370  157.9912 H   0  0  0  0  0  0  0  0  0  0  0  0
  152.1657  145.8676  158.1568 H   0  0  0  0  0  0  0  0  0  0  0  0
  148.8022  142.8921  155.4717 H   0  0  0  0  0  0  0  0  0  0  0  0
  149.8492  139.7140  153.1589 H   0  0  0  0  0  0  0  0  0  0  0  0
  1  2  1  0  0  0  0
  1 24  1  0  0  0  0
  2  3  1  0  0  0  0
  2 25  1  0  0  0  0
  2 26  1  0  0  0  0
  3 20  1  0  0  0  0
  3 18  1  0  0  0  0
  3  4  1  0  0  0  0
  4  5  1  0  0  0  0
  5 21  1  0  0  0  0
  5  6  1  0  0  0  0
  5 16  1  0  0  0  0
  6 15  1  0  0  0  0
  6  7  1  0  0  0  0
  7  8  2  0  0  0  0
  7 27  1  0  0  0  0
  8  9  1  0  0  0  0
  9 15  2  0  0  0  0
  9 10  1  0  0  0  0
 10 11  1  0  0  0  0
 10 12  2  0  0  0  0
 12 13  1  0  0  0  0
 13 14  2  0  0  0  0
 13 28  1  0  0  0  0
 14 15  1  0  0  0  0
 16 22  1  0  0  0  0
 16 17  1  0  0  0  0
 16 18  1  0  0  0  0
 17 29  1  0  0  0  0
 18 23  1  0  0  0  0
 18 19  1  0  0  0  0
 19 30  1  0  0  0  0
M  END
> <s_m_source_file>
AV-unprocessed.smi

> <i_m_source_file_index>
48

> <i_lp_mmshare_version>
43012

> <i_f3d_flags>
0

> <s_epik_input>
W09IXVtDSDJdW0NASF0xT1tDQEhdKFtDQEhdKFtPSF0pW0NAQEhdMVtPSF0pbihbY0hdbjIpYyhjMjMpbltjSF1uYzNDbA==

> <s_epik_cmdline>
J2VwaWtfcHl0aG9uJywgJy1waCcsICc3LjAnLCAnLXRuJywgJzgnLCAnLW1hJywgJzIwMCcsICctbWV0YWxfYmluZGluZycsICctaW1hZScsICc8aW5maWxlLm1hZT4nLCAnLW9tYWUnLCAnPG91dGZpbGUubWFlPic=

> <r_lp_tautomer_probability>
1

> <r_epik_Ionization_Penalty>
3.45505e-06

> <r_epik_Ionization_Penalty_Charging>
0

> <r_epik_Ionization_Penalty_Neutral>
3.45505e-06

> <r_epik_State_Penalty>
-0

> <r_epik_Charging_Adjusted_Penalty>
0

> <i_epik_Tot_Q>
0

> <i_epik_Tot_abs_Q>
0

> <r_epik_Metal_State_Penalty>
-0

> <b_epik_Metal_Only>
0

> <s_epik_Chemistry_Notes>
This compound contains an acetal/aminal-like group ( X-CH(R)-Y where X, Y are N, S, or O) that may be acid/base labile, releasing an aldehyde.

> <s_lp_Force_Field>
OPLS_2005

> <r_lp_Energy>
38.2719

> <b_lp_Chiralities_Consistent>
1

> <s_lp_Variant>
AV-unprocessed.smi:48-15

> <Gold.Version>
5.8.1

> <Gold.Id.Protein>
6NUR|6NUR_protein|mol2

> <Gold.PLP.Fitness>
48.3428

> <Gold.PLP.PLP>
-40.9146

> <Gold.PLP.part.hbond>
-3.8901

> <Gold.PLP.part.metal>
0.0000

> <Gold.PLP.part.buried>
-8.2979

> <Gold.PLP.part.nonpolar>
-28.3405

> <Gold.PLP.part.repulsive>
0.1912

> <Gold.PLP.ligand.clash>
0.0000

> <Gold.PLP.ligand.torsion>
0.8549

> <Gold.PLP.Chemscore.Hbond>
3.0385

> <Gold.PLP.Chemscore.CHOScore>
0.0000

> <Gold.PLP.Chemscore.Metal>
0.0000

> <Gold.Chemscore.Hbonds>
donor molecule, donor type, donor heavy atom, donor atom, acceptor molecule, acceptor atom, score
      L1  H    17    29       P1  8028  1.00
      L1  H    19    30       P1  7957  0.22
      P1  H  7989  7998       L1     4  0.86
      P1  H 10752 10765       L1     1  1.00

> <Gold.PLP.Chemscore.Internal.Correction>
0.0225

> <Gold.Rescore>
     Score         DG    S(hbond)    S(metal)    S(lipo)     H(rot)  DE(clash)    DE(int)     intcor
      8.84      -9.64       2.10        0.00      58.78       3.80       0.02       0.78       ----

> <Gold.Chemscore.Fitness>
8.8404

> <Gold.Chemscore.DG>
-9.6382

> <Gold.Chemscore.ZeroCoef>
-5.4800

> <Gold.Chemscore.Hbond>
2.0998

> <Gold.Chemscore.Metal>
0.0000

> <Gold.Chemscore.Lipo>
58.7799

> <Gold.Chemscore.Internal_Hbond>
0.0000

> <Gold.Chemscore.DEClash>
0.0202

> <Gold.Chemscore.DEInternal>
0.7775

> <Gold.Chemscore.Rot>
3.8017

> <Gold.Chemscore.Internal.Correction>
   9.000000E+99

> <Gold.Chemscore.Hbonds>
donor molecule, donor type, donor heavy atom, donor atom, acceptor molecule, acceptor atom, score
      L1  H    17    29       P1  8028  0.99
      L1  H    19    30       P1  7957  0.21
      P1  H  7989  7998       L1     4  0.32
      P1  H 10752 10765       L1     1  0.25

> <Gold.Chemscore.Hbond.Weighted>
-7.0133

> <Gold.Chemscore.Metal.Weighted>
-0.0000

> <Gold.Chemscore.Lipo.Weighted>
-6.8773

> <Gold.Chemscore.Internal_Hbond.Weighted>
0.0000

> <Gold.Chemscore.DEClash.Weighted>
0.0202

> <Gold.Chemscore.DEInternal.Weighted>
0.7775

> <Gold.Chemscore.Rot.Weighted>
9.7324

> <Gold.Chemscore.Internal.Correction.Weighted>
   9.000000E+99

> <Gold.Protein.RotatedTorsions>
[ 6907 6896 6895 6894 ] final   72.18 input  -60.11 | X-H torsion
[ 7974 7965 7964 7962 ] final   -1.97 input  175.53 | X-H torsion
[ 8008 7997 7996 7995 ] final   49.79 input   59.86 | X-H torsion
[ 10167 10162 10161 10158 ] final -116.24 input  -65.29 | X-H torsion
[ 10718 10713 10712 10709 ] final  -81.25 input   66.30 | X-H torsion
[ 10763 10752 10751 10750 ] final  175.54 input  -60.55 | X-H torsion
[ 11005 11000 10999 10996 ] final -135.78 input  -57.11 | X-H torsion

> <Gold.Protein.ActiveResidues>
 VAL166  LYS551  ARG553  GLY616  TRP617  ASP618  TYR619  PRO620  LYS621  CYS622 
 ASP623  PHE694  ASN695  SER759  ASP760  ASP761  ALA762  ILE779  LEU786  VAL792 
 PHE793  MET794  SER795  GLU796  ALA797  LYS798  CYS799  TRP800  GLU811  SER814 

> <Gold.Protein.RotatedAtoms>
  152.4853  134.4610  159.9604 H   0  0  0  0  0  0  0  0  0  0  0  0  # atno 6907 bound_to 6896
  151.4607  133.3587  159.2816 H   0  0  0  0  0  0  0  0  0  0  0  0  # atno 6908 bound_to 6896
  150.8958  134.8391  159.7386 H   0  0  0  0  0  0  0  0  0  0  0  0  # atno 6909 bound_to 6896
  146.2410  140.1500  142.8334 H   0  0  0  0  0  0  0  0  0  0  0  0  # atno 7974 bound_to 7965
  155.4080  140.3441  155.4261 H   0  0  0  0  0  0  0  0  0  0  0  0  # atno 8008 bound_to 7997
  156.1465  140.1558  156.8870 H   0  0  0  0  0  0  0  0  0  0  0  0  # atno 8009 bound_to 7997
  154.5015  140.0813  156.7789 H   0  0  0  0  0  0  0  0  0  0  0  0  # atno 8010 bound_to 7997
  140.0814  143.4784  152.1923 H   0  0  0  0  0  0  0  0  0  0  0  0  # atno 10167 bound_to 10162
  156.0054  130.4598  150.3923 H   0  0  0  0  0  0  0  0  0  0  0  0  # atno 10718 bound_to 10713
  154.4690  135.2770  155.1657 H   0  0  0  0  0  0  0  0  0  0  0  0  # atno 10763 bound_to 10752
  154.3414  135.6169  153.5602 H   0  0  0  0  0  0  0  0  0  0  0  0  # atno 10764 bound_to 10752
  152.9862  135.5789  154.5067 H   0  0  0  0  0  0  0  0  0  0  0  0  # atno 10765 bound_to 10752
  140.8866  134.1865  157.4556 H   0  0  0  0  0  0  0  0  0  0  0  0  # atno 11005 bound_to 11000
  145.0175  140.8766  143.5187 LP  0  0  0  0  0  0  0  0  0  0  0  0  # atno 17320 bound_to 7965
  145.1543  139.2495  143.5424 LP  0  0  0  0  0  0  0  0  0  0  0  0  # atno 17321 bound_to 7965
  139.5777  144.7496  151.3721 LP  0  0  0  0  0  0  0  0  0  0  0  0  # atno 17342 bound_to 10162
  140.7076  143.7474  150.7509 LP  0  0  0  0  0  0  0  0  0  0  0  0  # atno 17343 bound_to 10162
  157.1997  131.0435  151.2657 LP  0  0  0  0  0  0  0  0  0  0  0  0  # atno 17370 bound_to 10713
  157.3987  130.7321  149.6750 LP  0  0  0  0  0  0  0  0  0  0  0  0  # atno 17371 bound_to 10713
  139.8725  134.9840  156.5223 LP  0  0  0  0  0  0  0  0  0  0  0  0  # atno 17394 bound_to 11000
  140.8397  133.8214  155.9063 LP  0  0  0  0  0  0  0  0  0  0  0  0  # atno 17395 bound_to 11000

$$$$
