AV-unprocessed.smi:1240|AV-procd|sdf|5206|dock3
  -GOLD-   22720 4293D 1   1.00000     0.00000
 Structure written by MMmdl.
 48 50  0  0  0  0  0  0  0  0  2 V2000
  148.3913  132.7840  154.7735 O   0  0  0  0  0  0  0  0  0  0  0  0
  148.5135  133.7688  154.0455 C   0  0  0  0  0  0  0  0  0  0  0  0
  149.3454  134.7854  154.3122 N   0  0  0  0  0  0  0  0  0  0  0  0
  150.2159  134.8699  155.4813 C   0  0  0  0  0  0  0  0  0  0  0  0
  151.1699  136.0978  155.4373 C   0  0  1  0  0  0  0  0  0  0  0  0
  150.5459  137.3146  154.6889 C   0  0  1  0  0  0  0  0  0  0  0  0
  149.2339  137.8948  155.2230 C   0  0  0  0  0  0  0  0  0  0  0  0
  149.4341  139.4095  155.1307 C   0  0  0  0  0  0  0  0  0  0  0  0
  150.5166  139.5743  154.2270 O   0  0  0  0  0  0  0  0  0  0  0  0
  151.4465  138.5427  154.5122 C   0  0  0  0  0  0  0  0  0  0  0  0
  151.8206  136.4242  156.7212 N   0  0  0  0  0  0  0  0  0  0  0  0
  153.0783  137.1621  156.6213 C   0  0  0  0  0  0  0  0  0  0  0  0
  153.7267  137.3740  158.0007 C   0  0  0  0  0  0  0  0  0  0  0  0
  152.8075  138.0184  158.8763 O   0  0  0  0  0  0  0  0  0  0  0  0
  151.6003  137.2818  159.0406 C   0  0  0  0  0  0  0  0  0  0  0  0
  150.9305  137.0893  157.6701 C   0  0  0  0  0  0  0  0  0  0  0  0
  147.8640  133.9622  152.8845 N   0  0  0  0  0  0  0  0  0  0  0  0
  146.9018  133.1238  152.2581 C   0  0  0  0  0  0  0  0  0  0  0  0
  146.6670  131.8551  152.8335 C   0  0  0  0  0  0  0  0  0  0  0  0
  145.7323  130.9833  152.2386 C   0  0  0  0  0  0  0  0  0  0  0  0
  145.0775  131.3613  151.1200 N   0  3  0  0  0  0  0  0  0  0  0  0
  145.2787  132.5567  150.5254 C   0  0  0  0  0  0  0  0  0  0  0  0
  146.2010  133.4708  151.0747 C   0  0  0  0  0  0  0  0  0  0  0  0
  149.3886  135.5539  153.6592 H   0  0  0  0  0  0  0  0  0  0  0  0
  149.5765  134.9098  156.3624 H   0  0  0  0  0  0  0  0  0  0  0  0
  150.7739  133.9369  155.5594 H   0  0  0  0  0  0  0  0  0  0  0  0
  151.9882  135.7987  154.7808 H   0  0  0  0  0  0  0  0  0  0  0  0
  150.3223  136.9773  153.6756 H   0  0  0  0  0  0  0  0  0  0  0  0
  148.4041  137.5772  154.5906 H   0  0  0  0  0  0  0  0  0  0  0  0
  148.9918  137.5924  156.2404 H   0  0  0  0  0  0  0  0  0  0  0  0
  148.5417  139.9319  154.7859 H   0  0  0  0  0  0  0  0  0  0  0  0
  149.7143  139.8194  156.1022 H   0  0  0  0  0  0  0  0  0  0  0  0
  151.9877  138.8028  155.4225 H   0  0  0  0  0  0  0  0  0  0  0  0
  152.1705  138.4200  153.7065 H   0  0  0  0  0  0  0  0  0  0  0  0
  153.7878  136.6206  155.9999 H   0  0  0  0  0  0  0  0  0  0  0  0
  152.9102  138.1313  156.1513 H   0  0  0  0  0  0  0  0  0  0  0  0
  154.0368  136.4200  158.4298 H   0  0  0  0  0  0  0  0  0  0  0  0
  154.6222  137.9884  157.9079 H   0  0  0  0  0  0  0  0  0  0  0  0
  151.8117  136.3188  159.5081 H   0  0  0  0  0  0  0  0  0  0  0  0
  150.9384  137.8271  159.7133 H   0  0  0  0  0  0  0  0  0  0  0  0
  150.6346  138.0676  157.2921 H   0  0  0  0  0  0  0  0  0  0  0  0
  150.0157  136.5086  157.7939 H   0  0  0  0  0  0  0  0  0  0  0  0
  148.1340  134.7805  152.3587 H   0  0  0  0  0  0  0  0  0  0  0  0
  147.1920  131.5513  153.7275 H   0  0  0  0  0  0  0  0  0  0  0  0
  145.4918  130.0018  152.6204 H   0  0  0  0  0  0  0  0  0  0  0  0
  144.7041  132.7434  149.6300 H   0  0  0  0  0  0  0  0  0  0  0  0
  146.3604  134.4119  150.5715 H   0  0  0  0  0  0  0  0  0  0  0  0
  144.4060  130.7150  150.7041 H   0  0  0  0  0  0  0  0  0  0  0  0
  1  2  2  0  0  0  0
  2  3  1  0  0  0  0
  2 17  1  0  0  0  0
  3  4  1  0  0  0  0
  3 24  1  0  0  0  0
  4  5  1  0  0  0  0
  4 25  1  0  0  0  0
  4 26  1  0  0  0  0
  5  6  1  0  0  0  0
  5 11  1  0  0  0  0
  5 27  1  0  0  0  0
  6 10  1  0  0  0  0
  6  7  1  0  0  0  0
  6 28  1  0  0  0  0
  7  8  1  0  0  0  0
  7 29  1  0  0  0  0
  7 30  1  0  0  0  0
  8  9  1  0  0  0  0
  8 31  1  0  0  0  0
  8 32  1  0  0  0  0
  9 10  1  0  0  0  0
 10 33  1  0  0  0  0
 10 34  1  0  0  0  0
 11 16  1  0  0  0  0
 11 12  1  0  0  0  0
 12 13  1  0  0  0  0
 12 35  1  0  0  0  0
 12 36  1  0  0  0  0
 13 14  1  0  0  0  0
 13 37  1  0  0  0  0
 13 38  1  0  0  0  0
 14 15  1  0  0  0  0
 15 16  1  0  0  0  0
 15 39  1  0  0  0  0
 15 40  1  0  0  0  0
 16 41  1  0  0  0  0
 16 42  1  0  0  0  0
 17 18  1  0  0  0  0
 17 43  1  0  0  0  0
 18 23  1  0  0  0  0
 18 19  2  0  0  0  0
 19 20  1  0  0  0  0
 19 44  1  0  0  0  0
 20 21  2  0  0  0  0
 20 45  1  0  0  0  0
 21 22  1  0  0  0  0
 21 48  1  0  0  0  0
 22 23  2  0  0  0  0
 22 46  1  0  0  0  0
 23 47  1  0  0  0  0
M  CHG  1  21   1
M  END
> <s_m_source_file>
AV-unprocessed.smi

> <i_m_source_file_index>
1240

> <i_lp_mmshare_version>
43012

> <i_f3d_flags>
0

> <s_epik_input>
W2NIXTFbY0hdbltjSF1bY0hdYzFbTkhdQyg9TylbTkhdW0NIMl1bQ0BIXShbQ0BASF0yW0NIMl1bQ0gyXU9bQ0gyXTIpTjNbQ0gyXVtDSDJdT1tDSDJdW0NIMl0z

> <s_epik_cmdline>
J2VwaWtfcHl0aG9uJywgJy1waCcsICc3LjAnLCAnLXRuJywgJzgnLCAnLW1hJywgJzIwMCcsICctbWV0YWxfYmluZGluZycsICctaW1hZScsICc8aW5maWxlLm1hZT4nLCAnLW9tYWUnLCAnPG91dGZpbGUubWFlPic=

> <r_epik_Ionization_Penalty>
1.15944

> <r_epik_Ionization_Penalty_Charging>
1.0344

> <r_epik_Ionization_Penalty_Neutral>
0.125034

> <r_epik_State_Penalty>
1.2199

> <r_epik_Charging_Adjusted_Penalty>
2.25431

> <i_epik_Tot_Q>
1

> <i_epik_Tot_abs_Q>
1

> <r_epik_Metal_State_Penalty>
1.3155

> <b_epik_Metal_Only>
0

> <s_lp_Force_Field>
OPLS_2005

> <r_lp_Energy>
63.7867

> <b_lp_Chiralities_Consistent>
1

> <s_lp_Variant>
AV-unprocessed.smi:1240-12

> <Gold.Version>
5.8.1

> <Gold.Id.Protein>
6NUR|6NUR_protein|mol2

> <Gold.PLP.Fitness>
41.1474

> <Gold.PLP.PLP>
-33.2035

> <Gold.PLP.part.hbond>
-3.0000

> <Gold.PLP.part.metal>
0.0000

> <Gold.PLP.part.buried>
-6.7985

> <Gold.PLP.part.nonpolar>
-24.0262

> <Gold.PLP.part.repulsive>
0.6305

> <Gold.PLP.ligand.clash>
0.0000

> <Gold.PLP.ligand.torsion>
0.5655

> <Gold.PLP.Chemscore.Hbond>
2.9260

> <Gold.PLP.Chemscore.CHOScore>
0.0000

> <Gold.PLP.Chemscore.Metal>
0.0000

> <Gold.Chemscore.Hbonds>
donor molecule, donor type, donor heavy atom, donor atom, acceptor molecule, acceptor atom, score
      L1  H     3    24       P1  7948  0.94
      L1  H    17    43       P1  7948  1.00
      P1  H  7989  7998       L1     9  1.00

> <Gold.PLP.Chemscore.Internal.Correction>
0.2968

> <Gold.Rescore>
     Score         DG    S(hbond)    S(metal)    S(lipo)     H(rot)  DE(clash)    DE(int)     intcor
     15.89     -19.16       2.51        0.00      82.23       1.69       0.02       3.25       ----

> <Gold.Chemscore.Fitness>
15.8929

> <Gold.Chemscore.DG>
-19.1584

> <Gold.Chemscore.ZeroCoef>
-5.4800

> <Gold.Chemscore.Hbond>
2.5112

> <Gold.Chemscore.Metal>
0.0000

> <Gold.Chemscore.Lipo>
82.2262

> <Gold.Chemscore.Internal_Hbond>
0.0000

> <Gold.Chemscore.DEClash>
0.0204

> <Gold.Chemscore.DEInternal>
3.2451

> <Gold.Chemscore.Rot>
1.6912

> <Gold.Chemscore.Internal.Correction>
   9.000000E+99

> <Gold.Chemscore.Hbonds>
donor molecule, donor type, donor heavy atom, donor atom, acceptor molecule, acceptor atom, score
      L1  H     3    24       P1  7948  0.31
      L1  H    17    43       P1  7948  0.45
      P1  H  7989  7998       L1     9  0.30

> <Gold.Chemscore.Hbond.Weighted>
-8.3874

> <Gold.Chemscore.Metal.Weighted>
-0.0000

> <Gold.Chemscore.Lipo.Weighted>
-9.6205

> <Gold.Chemscore.Internal_Hbond.Weighted>
0.0000

> <Gold.Chemscore.DEClash.Weighted>
0.0204

> <Gold.Chemscore.DEInternal.Weighted>
3.2451

> <Gold.Chemscore.Rot.Weighted>
4.3295

> <Gold.Chemscore.Internal.Correction.Weighted>
   9.000000E+99

> <Gold.Protein.RotatedTorsions>
[ 6907 6896 6895 6894 ] final  140.85 input  -60.11 | X-H torsion
[ 7974 7965 7964 7962 ] final  152.33 input  175.53 | X-H torsion
[ 8008 7997 7996 7995 ] final  -94.71 input   59.86 | X-H torsion
[ 10167 10162 10161 10158 ] final   67.49 input  -65.29 | X-H torsion
[ 10718 10713 10712 10709 ] final  -51.85 input   66.30 | X-H torsion
[ 10763 10752 10751 10750 ] final  171.55 input  -60.55 | X-H torsion
[ 11005 11000 10999 10996 ] final  122.62 input  -57.11 | X-H torsion

> <Gold.Protein.ActiveResidues>
 VAL166  LYS551  ARG553  GLY616  TRP617  ASP618  TYR619  PRO620  LYS621  CYS622 
 ASP623  PHE694  ASN695  SER759  ASP760  ASP761  ALA762  ILE779  LEU786  VAL792 
 PHE793  MET794  SER795  GLU796  ALA797  LYS798  CYS799  TRP800  GLU811  SER814 

> <Gold.Protein.RotatedAtoms>
  152.2381  133.5112  159.5253 H   0  0  0  0  0  0  0  0  0  0  0  0  # atno 6907 bound_to 6896
  150.7056  134.1126  159.4015 H   0  0  0  0  0  0  0  0  0  0  0  0  # atno 6908 bound_to 6896
  151.9047  135.0363  160.0560 H   0  0  0  0  0  0  0  0  0  0  0  0  # atno 6909 bound_to 6896
  144.8230  139.6654  143.6092 H   0  0  0  0  0  0  0  0  0  0  0  0  # atno 7974 bound_to 7965
  154.7519  140.0487  157.0900 H   0  0  0  0  0  0  0  0  0  0  0  0  # atno 8008 bound_to 7997
  155.0047  140.3129  155.4834 H   0  0  0  0  0  0  0  0  0  0  0  0  # atno 8009 bound_to 7997
  156.2887  140.2195  156.5158 H   0  0  0  0  0  0  0  0  0  0  0  0  # atno 8010 bound_to 7997
  140.0890  144.5005  150.7111 H   0  0  0  0  0  0  0  0  0  0  0  0  # atno 10167 bound_to 10162
  156.1674  130.4149  149.9700 H   0  0  0  0  0  0  0  0  0  0  0  0  # atno 10718 bound_to 10713
  154.4135  135.2756  155.2022 H   0  0  0  0  0  0  0  0  0  0  0  0  # atno 10763 bound_to 10752
  154.3997  135.6047  153.5894 H   0  0  0  0  0  0  0  0  0  0  0  0  # atno 10764 bound_to 10752
  152.9831  135.5923  154.4420 H   0  0  0  0  0  0  0  0  0  0  0  0  # atno 10765 bound_to 10752
  139.9276  134.9641  156.8137 H   0  0  0  0  0  0  0  0  0  0  0  0  # atno 11005 bound_to 11000
  146.2535  139.6252  142.9410 LP  0  0  0  0  0  0  0  0  0  0  0  0  # atno 17320 bound_to 7965
  145.5063  141.0436  143.2513 LP  0  0  0  0  0  0  0  0  0  0  0  0  # atno 17321 bound_to 7965
  140.7038  143.2453  151.4786 LP  0  0  0  0  0  0  0  0  0  0  0  0  # atno 17342 bound_to 10162
  139.5735  144.1872  152.1871 LP  0  0  0  0  0  0  0  0  0  0  0  0  # atno 17343 bound_to 10162
  156.7510  130.9115  151.3637 LP  0  0  0  0  0  0  0  0  0  0  0  0  # atno 17370 bound_to 10713
  157.6778  130.9110  150.0192 LP  0  0  0  0  0  0  0  0  0  0  0  0  # atno 17371 bound_to 10713
  140.6291  133.9922  155.7653 LP  0  0  0  0  0  0  0  0  0  0  0  0  # atno 17394 bound_to 11000
  141.0845  134.0012  157.3335 LP  0  0  0  0  0  0  0  0  0  0  0  0  # atno 17395 bound_to 11000

$$$$
