AV-unprocessed.smi:101|AV-procd|sdf|937|dock3
  -GOLD-   2262017453D 1   1.00000     0.00000
 Structure written by MMmdl.
 43 45  0  0  0  0  0  0  0  0  2 V2000
  153.7151  136.8777  159.6683 C   0  0  0  0  0  0  0  0  0  0  0  0
  153.0800  137.5815  158.4816 C   0  0  0  0  0  0  0  0  0  0  0  0
  151.9099  137.1719  157.9434 C   0  0  0  0  0  0  0  0  0  0  0  0
  151.3308  137.8187  156.8638 N   0  0  0  0  0  0  0  0  0  0  0  0
  150.0048  137.3650  156.2764 C   0  0  2  0  0  0  0  0  0  0  0  0
  149.5042  136.2928  157.0205 O   0  0  0  0  0  0  0  0  0  0  0  0
  149.6876  135.0808  156.2984 C   0  0  1  0  0  0  0  0  0  0  0  0
  148.7715  133.9731  156.8349 C   0  0  0  0  0  0  0  0  0  0  0  0
  148.5927  134.1817  158.2257 O   0  0  0  0  0  0  0  0  0  0  0  0
  147.8323  133.3402  158.9495 C   0  0  0  0  0  0  0  0  0  0  0  0
  147.4455  132.2439  158.5396 O   0  0  0  0  0  0  0  0  0  0  0  0
  147.5062  133.8784  160.3019 C   0  0  0  0  0  0  0  0  0  0  0  0
  147.9916  135.1528  160.6775 C   0  0  0  0  0  0  0  0  0  0  0  0
  147.6997  135.6856  161.9483 C   0  0  0  0  0  0  0  0  0  0  0  0
  146.9179  134.9510  162.8587 C   0  0  0  0  0  0  0  0  0  0  0  0
  146.4291  133.6820  162.4974 C   0  0  0  0  0  0  0  0  0  0  0  0
  146.7209  133.1469  161.2277 C   0  0  0  0  0  0  0  0  0  0  0  0
  149.4491  135.5130  154.8503 C   0  0  1  0  0  0  0  0  0  0  0  0
  148.0631  135.6127  154.5787 O   0  0  0  0  0  0  0  0  0  0  0  0
  150.1096  136.8864  154.8038 C   0  0  2  0  0  0  0  0  0  0  0  0
  151.4402  136.7511  154.3350 O   0  0  0  0  0  0  0  0  0  0  0  0
  151.9712  138.9551  156.3045 C   0  0  0  0  0  0  0  0  0  0  0  0
  151.4289  139.5081  155.3473 O   0  0  0  0  0  0  0  0  0  0  0  0
  153.1526  139.3747  156.8393 N   0  5  0  0  0  0  0  0  0  0  0  0
  153.7471  138.7509  157.8966 C   0  0  0  0  0  0  0  0  0  0  0  0
  154.8157  139.1384  158.3680 O   0  0  0  0  0  0  0  0  0  0  0  0
  153.1222  136.0191  159.9844 H   0  0  0  0  0  0  0  0  0  0  0  0
  153.7995  137.5602  160.5146 H   0  0  0  0  0  0  0  0  0  0  0  0
  154.7132  136.5217  159.4110 H   0  0  0  0  0  0  0  0  0  0  0  0
  151.4226  136.3157  158.3829 H   0  0  0  0  0  0  0  0  0  0  0  0
  149.3267  138.2096  156.4105 H   0  0  0  0  0  0  0  0  0  0  0  0
  150.7284  134.7652  156.3893 H   0  0  0  0  0  0  0  0  0  0  0  0
  147.8136  133.9778  156.3128 H   0  0  0  0  0  0  0  0  0  0  0  0
  149.2318  132.9965  156.6802 H   0  0  0  0  0  0  0  0  0  0  0  0
  148.5939  135.7351  159.9950 H   0  0  0  0  0  0  0  0  0  0  0  0
  148.0767  136.6593  162.2244 H   0  0  0  0  0  0  0  0  0  0  0  0
  146.6937  135.3597  163.8329 H   0  0  0  0  0  0  0  0  0  0  0  0
  145.8289  133.1163  163.1950 H   0  0  0  0  0  0  0  0  0  0  0  0
  146.3301  132.1696  160.9836 H   0  0  0  0  0  0  0  0  0  0  0  0
  149.8836  134.8102  154.1378 H   0  0  0  0  0  0  0  0  0  0  0  0
  147.9548  135.8329  153.6661 H   0  0  0  0  0  0  0  0  0  0  0  0
  149.5819  137.5825  154.1504 H   0  0  0  0  0  0  0  0  0  0  0  0
  151.4259  136.7968  153.3904 H   0  0  0  0  0  0  0  0  0  0  0  0
  1  2  1  0  0  0  0
  1 27  1  0  0  0  0
  1 28  1  0  0  0  0
  1 29  1  0  0  0  0
  2 25  1  0  0  0  0
  2  3  2  0  0  0  0
  3  4  1  0  0  0  0
  3 30  1  0  0  0  0
  4  5  1  0  0  0  0
  4 22  1  0  0  0  0
  5 20  1  0  0  0  0
  5  6  1  0  0  0  0
  5 31  1  0  0  0  0
  6  7  1  0  0  0  0
  7  8  1  0  0  0  0
  7 18  1  0  0  0  0
  7 32  1  0  0  0  0
  8  9  1  0  0  0  0
  8 33  1  0  0  0  0
  8 34  1  0  0  0  0
  9 10  1  0  0  0  0
 10 11  2  0  0  0  0
 10 12  1  0  0  0  0
 12 17  1  0  0  0  0
 12 13  2  0  0  0  0
 13 14  1  0  0  0  0
 13 35  1  0  0  0  0
 14 15  2  0  0  0  0
 14 36  1  0  0  0  0
 15 16  1  0  0  0  0
 15 37  1  0  0  0  0
 16 17  2  0  0  0  0
 16 38  1  0  0  0  0
 17 39  1  0  0  0  0
 18 19  1  0  0  0  0
 18 20  1  0  0  0  0
 18 40  1  0  0  0  0
 19 41  1  0  0  0  0
 20 21  1  0  0  0  0
 20 42  1  0  0  0  0
 21 43  1  0  0  0  0
 22 23  2  0  0  0  0
 22 24  1  0  0  0  0
 24 25  1  0  0  0  0
 25 26  2  0  0  0  0
M  CHG  1  24  -1
M  END
> <s_m_source_file>
AV-unprocessed.smi

> <i_m_source_file_index>
101

> <i_lp_mmshare_version>
43012

> <i_f3d_flags>
0

> <s_epik_input>
Tz1jMVtuSF1jKD1PKW4oW2NIXWMxW0NIM10pW0NAQEhdMk9bQ0BIXShbQ0BASF0oW09IXSlbQ0BIXTJbT0hdKVtDSDJdT0MoPU8pYzNbY0hdW2NIXVtjSF1bY0hdW2NIXTM=

> <s_epik_cmdline>
J2VwaWtfcHl0aG9uJywgJy1waCcsICc3LjAnLCAnLXRuJywgJzgnLCAnLW1hJywgJzIwMCcsICctbWV0YWxfYmluZGluZycsICctaW1hZScsICc8aW5maWxlLm1hZT4nLCAnLW9tYWUnLCAnPG91dGZpbGUubWFlPic=

> <r_lp_tautomer_probability>
0.999537

> <r_epik_Ionization_Penalty>
3.21006

> <r_epik_Ionization_Penalty_Charging>
5.75142e-08

> <r_epik_Ionization_Penalty_Neutral>
3.21006

> <r_epik_State_Penalty>
3.20925

> <r_epik_Charging_Adjusted_Penalty>
3.20925

> <i_epik_Tot_Q>
-1

> <i_epik_Tot_abs_Q>
1

> <r_epik_Metal_State_Penalty>
0.119957

> <b_epik_Metal_Only>
1

> <s_epik_Chemistry_Notes>
This compound has an ester and may undergo hydrolysis at high or low pH. This compound contains an acetal/aminal-like group ( X-CH(R)-Y where X, Y are N, S, or O) that may be acid/base labile, releasing an aldehyde.

> <s_lp_Force_Field>
OPLS_2005

> <r_lp_Energy>
45.504

> <b_lp_Chiralities_Consistent>
1

> <s_lp_Variant>
AV-unprocessed.smi:101-25

> <Gold.Version>
5.8.1

> <Gold.Id.Protein>
6NUR|6NUR_protein|mol2

> <Gold.PLP.Fitness>
45.5430

> <Gold.PLP.PLP>
-29.5711

> <Gold.PLP.part.hbond>
-4.4432

> <Gold.PLP.part.metal>
0.0000

> <Gold.PLP.part.buried>
-0.2798

> <Gold.PLP.part.nonpolar>
-24.5573

> <Gold.PLP.part.repulsive>
0.0219

> <Gold.PLP.ligand.clash>
0.0000

> <Gold.PLP.ligand.torsion>
0.5393

> <Gold.PLP.Chemscore.Hbond>
5.6133

> <Gold.PLP.Chemscore.CHOScore>
0.0000

> <Gold.PLP.Chemscore.Metal>
0.0000

> <Gold.Chemscore.Hbonds>
donor molecule, donor type, donor heavy atom, donor atom, acceptor molecule, acceptor atom, score
      L1  H    19    41       P1  7948  0.76
      L1  H    21    43       P1  7949  0.88
      P1  H  7989  7998       L1    23  0.32
      P1  H  7997  8009       L1    26  0.54
      P1  H  7997  8010       L1    24  1.76
      P1  H 10752 10763       L1    21  0.98

> <Gold.PLP.Chemscore.Internal.Correction>
0.2107

> <Gold.Rescore>
     Score         DG    S(hbond)    S(metal)    S(lipo)     H(rot)  DE(clash)    DE(int)     intcor
     14.91     -17.15       3.37        0.00      75.05       3.27       1.52       0.72       ----

> <Gold.Chemscore.Fitness>
14.9086

> <Gold.Chemscore.DG>
-17.1491

> <Gold.Chemscore.ZeroCoef>
-5.4800

> <Gold.Chemscore.Hbond>
3.3676

> <Gold.Chemscore.Metal>
0.0000

> <Gold.Chemscore.Lipo>
75.0515

> <Gold.Chemscore.Internal_Hbond>
0.0000

> <Gold.Chemscore.DEClash>
1.5181

> <Gold.Chemscore.DEInternal>
0.7223

> <Gold.Chemscore.Rot>
3.2656

> <Gold.Chemscore.Internal.Correction>
   9.000000E+99

> <Gold.Chemscore.Hbonds>
donor molecule, donor type, donor heavy atom, donor atom, acceptor molecule, acceptor atom, score
      L1  H    19    41       P1  7948  0.72
      L1  H    21    43       P1  7949  0.68
      P1  H  7989  7998       L1    23  0.33
      P1  H  7997  8009       L1    26  0.44
      P1  H  7997  8010       L1    24  0.25
      P1  H 10752 10763       L1    21  0.32

> <Gold.Chemscore.Hbond.Weighted>
-11.2479

> <Gold.Chemscore.Metal.Weighted>
-0.0000

> <Gold.Chemscore.Lipo.Weighted>
-8.7810

> <Gold.Chemscore.Internal_Hbond.Weighted>
0.0000

> <Gold.Chemscore.DEClash.Weighted>
1.5181

> <Gold.Chemscore.DEInternal.Weighted>
0.7223

> <Gold.Chemscore.Rot.Weighted>
8.3598

> <Gold.Chemscore.Internal.Correction.Weighted>
   9.000000E+99

> <Gold.Protein.RotatedTorsions>
[ 6907 6896 6895 6894 ] final   94.01 input  -60.11 | X-H torsion
[ 7974 7965 7964 7962 ] final   14.06 input  175.53 | X-H torsion
[ 8008 7997 7996 7995 ] final   85.39 input   59.86 | X-H torsion
[ 10167 10162 10161 10158 ] final   51.30 input  -65.29 | X-H torsion
[ 10718 10713 10712 10709 ] final -130.86 input   66.30 | X-H torsion
[ 10763 10752 10751 10750 ] final   65.15 input  -60.55 | X-H torsion
[ 11005 11000 10999 10996 ] final    2.83 input  -57.11 | X-H torsion

> <Gold.Protein.ActiveResidues>
 VAL166  LYS551  ARG553  GLY616  TRP617  ASP618  TYR619  PRO620  LYS621  CYS622 
 ASP623  PHE694  ASN695  SER759  ASP760  ASP761  ALA762  ILE779  LEU786  VAL792 
 PHE793  MET794  SER795  GLU796  ALA797  LYS798  CYS799  TRP800  GLU811  SER814 

> <Gold.Protein.RotatedAtoms>
  152.5451  134.1260  159.8418 H   0  0  0  0  0  0  0  0  0  0  0  0  # atno 6907 bound_to 6896
  151.1310  133.5029  159.2606 H   0  0  0  0  0  0  0  0  0  0  0  0  # atno 6908 bound_to 6896
  151.1675  135.0312  159.8792 H   0  0  0  0  0  0  0  0  0  0  0  0  # atno 6909 bound_to 6896
  146.2314  139.9097  142.8526 H   0  0  0  0  0  0  0  0  0  0  0  0  # atno 7974 bound_to 7965
  155.9493  140.3402  155.6394 H   0  0  0  0  0  0  0  0  0  0  0  0  # atno 8008 bound_to 7997
  155.6940  140.0752  157.2455 H   0  0  0  0  0  0  0  0  0  0  0  0  # atno 8009 bound_to 7997
  154.4118  140.1652  156.2105 H   0  0  0  0  0  0  0  0  0  0  0  0  # atno 8010 bound_to 7997
  140.2634  144.3348  150.6311 H   0  0  0  0  0  0  0  0  0  0  0  0  # atno 10167 bound_to 10162
  156.2187  130.6964  151.0731 H   0  0  0  0  0  0  0  0  0  0  0  0  # atno 10718 bound_to 10713
  153.0085  135.5367  154.6623 H   0  0  0  0  0  0  0  0  0  0  0  0  # atno 10763 bound_to 10752
  154.5828  135.2851  155.0717 H   0  0  0  0  0  0  0  0  0  0  0  0  # atno 10764 bound_to 10752
  154.1840  135.6511  153.5094 H   0  0  0  0  0  0  0  0  0  0  0  0  # atno 10765 bound_to 10752
  140.5999  133.9846  155.8127 H   0  0  0  0  0  0  0  0  0  0  0  0  # atno 11005 bound_to 11000
  145.2242  140.9947  143.4028 LP  0  0  0  0  0  0  0  0  0  0  0  0  # atno 17320 bound_to 7965
  144.9584  139.4006  143.6368 LP  0  0  0  0  0  0  0  0  0  0  0  0  # atno 17321 bound_to 7965
  140.5948  143.2167  151.7185 LP  0  0  0  0  0  0  0  0  0  0  0  0  # atno 17342 bound_to 10162
  139.5010  144.3884  152.0305 LP  0  0  0  0  0  0  0  0  0  0  0  0  # atno 17343 bound_to 10162
  157.7076  131.0749  150.6612 LP  0  0  0  0  0  0  0  0  0  0  0  0  # atno 17370 bound_to 10713
  156.6675  130.4530  149.5668 LP  0  0  0  0  0  0  0  0  0  0  0  0  # atno 17371 bound_to 10713
  141.0879  133.9962  157.3284 LP  0  0  0  0  0  0  0  0  0  0  0  0  # atno 17394 bound_to 11000
  139.9237  135.0201  156.8157 LP  0  0  0  0  0  0  0  0  0  0  0  0  # atno 17395 bound_to 11000

$$$$
