AV-unprocessed.smi:2570|AV-procd|sdf|10107|dock4
  -GOLD-   2272014123D 1   1.00000     0.00000
 Structure written by MMmdl.
 32 33  0  0  0  0  0  0  0  0  1 V2000
  155.6493  139.3753  164.8854 C   0  0  0  0  0  0  0  0  0  0  0  0
  155.3962  137.9931  164.6406 O   0  0  0  0  0  0  0  0  0  0  0  0
  154.8608  137.6658  163.4071 C   0  0  0  0  0  0  0  0  0  0  0  0
  154.6886  136.2667  163.0775 C   0  0  0  0  0  0  0  0  0  0  0  0
  154.1797  135.9355  161.8709 C   0  0  0  0  0  0  0  0  0  0  0  0
  153.8015  136.9516  160.8891 C   0  0  0  0  0  0  0  0  0  0  0  0
  153.3540  136.6804  159.7753 O   0  0  0  0  0  0  0  0  0  0  0  0
  154.0024  138.2328  161.3171 N   0  0  0  0  0  0  0  0  0  0  0  0
  153.7127  139.3775  160.4427 C   0  0  0  0  0  0  0  0  0  0  0  0
  154.2506  140.7125  161.0097 C   0  0  1  0  0  0  0  0  0  0  0  0
  155.6225  140.8225  160.6903 O   0  0  0  0  0  0  0  0  0  0  0  0
  153.4474  141.9260  160.5513 C   0  0  0  0  0  0  0  0  0  0  0  0
  153.2977  142.1805  159.1704 C   0  0  0  0  0  0  0  0  0  0  0  0
  152.5896  143.3138  158.7271 C   0  0  0  0  0  0  0  0  0  0  0  0
  152.0254  144.2017  159.6622 C   0  0  0  0  0  0  0  0  0  0  0  0
  151.3469  145.2933  159.2363 F   0  0  0  0  0  0  0  0  0  0  0  0
  152.1696  143.9551  161.0403 C   0  0  0  0  0  0  0  0  0  0  0  0
  152.8785  142.8227  161.4864 C   0  0  0  0  0  0  0  0  0  0  0  0
  153.0193  142.6116  162.8171 F   0  0  0  0  0  0  0  0  0  0  0  0
  154.5150  138.5791  162.5560 N   0  0  0  0  0  0  0  0  0  0  0  0
  156.0812  139.4880  165.8796 H   0  0  0  0  0  0  0  0  0  0  0  0
  154.7328  139.9674  164.8596 H   0  0  0  0  0  0  0  0  0  0  0  0
  156.3635  139.7897  164.1713 H   0  0  0  0  0  0  0  0  0  0  0  0
  154.9673  135.5075  163.7932 H   0  0  0  0  0  0  0  0  0  0  0  0
  154.0505  134.8927  161.6211 H   0  0  0  0  0  0  0  0  0  0  0  0
  154.1191  139.2019  159.4450 H   0  0  0  0  0  0  0  0  0  0  0  0
  152.6327  139.4519  160.2999 H   0  0  0  0  0  0  0  0  0  0  0  0
  154.1994  140.6660  162.0980 H   0  0  0  0  0  0  0  0  0  0  0  0
  155.7024  141.2626  159.8578 H   0  0  0  0  0  0  0  0  0  0  0  0
  153.7346  141.5113  158.4435 H   0  0  0  0  0  0  0  0  0  0  0  0
  152.4823  143.5033  157.6693 H   0  0  0  0  0  0  0  0  0  0  0  0
  151.7399  144.6384  161.7578 H   0  0  0  0  0  0  0  0  0  0  0  0
  1  2  1  0  0  0  0
  1 21  1  0  0  0  0
  1 22  1  0  0  0  0
  1 23  1  0  0  0  0
  2  3  1  0  0  0  0
  3 20  2  0  0  0  0
  3  4  1  0  0  0  0
  4  5  2  0  0  0  0
  4 24  1  0  0  0  0
  5  6  1  0  0  0  0
  5 25  1  0  0  0  0
  6  7  2  0  0  0  0
  6  8  1  0  0  0  0
  8  9  1  0  0  0  0
  8 20  1  0  0  0  0
  9 10  1  0  0  0  0
  9 26  1  0  0  0  0
  9 27  1  0  0  0  0
 10 11  1  0  0  0  0
 10 12  1  0  0  0  0
 10 28  1  0  0  0  0
 11 29  1  0  0  0  0
 12 18  1  0  0  0  0
 12 13  2  0  0  0  0
 13 14  1  0  0  0  0
 13 30  1  0  0  0  0
 14 15  2  0  0  0  0
 14 31  1  0  0  0  0
 15 16  1  0  0  0  0
 15 17  1  0  0  0  0
 17 18  2  0  0  0  0
 17 32  1  0  0  0  0
 18 19  1  0  0  0  0
M  END
> <s_m_source_file>
AV-unprocessed.smi

> <i_m_source_file_index>
2570

> <i_lp_mmshare_version>
43012

> <i_f3d_flags>
0

> <s_epik_input>
W0NIM11PYzFbY0hdW2NIXWMoPU8pbihuMSlbQ0gyXVtDQEhdKFtPSF0pYzJbY0hdW2NIXWMoRilbY0hdYzJG

> <s_epik_cmdline>
J2VwaWtfcHl0aG9uJywgJy1waCcsICc3LjAnLCAnLXRuJywgJzgnLCAnLW1hJywgJzIwMCcsICctbWV0YWxfYmluZGluZycsICctaW1hZScsICc8aW5maWxlLm1hZT4nLCAnLW9tYWUnLCAnPG91dGZpbGUubWFlPic=

> <r_lp_tautomer_probability>
1

> <r_epik_Ionization_Penalty>
6.40224e-06

> <r_epik_Ionization_Penalty_Charging>
4.38647e-06

> <r_epik_Ionization_Penalty_Neutral>
2.01577e-06

> <r_epik_State_Penalty>
-0

> <r_epik_Charging_Adjusted_Penalty>
4.38647e-06

> <i_epik_Tot_Q>
0

> <i_epik_Tot_abs_Q>
0

> <r_epik_Metal_State_Penalty>
-0

> <b_epik_Metal_Only>
0

> <s_lp_Force_Field>
OPLS_2005

> <r_lp_Energy>
26.7666

> <b_lp_Chiralities_Consistent>
1

> <s_lp_Variant>
AV-unprocessed.smi:2570-2

> <Gold.Version>
5.8.1

> <Gold.Id.Protein>
6NUR|6NUR_protein|mol2

> <Gold.PLP.Fitness>
52.0622

> <Gold.PLP.PLP>
-49.9550

> <Gold.PLP.part.hbond>
-2.0000

> <Gold.PLP.part.metal>
0.0000

> <Gold.PLP.part.buried>
-6.2920

> <Gold.PLP.part.nonpolar>
-42.6084

> <Gold.PLP.part.repulsive>
0.0524

> <Gold.PLP.ligand.clash>
0.0000

> <Gold.PLP.ligand.torsion>
0.4603

> <Gold.PLP.Chemscore.Hbond>
1.0000

> <Gold.PLP.Chemscore.CHOScore>
0.0000

> <Gold.PLP.Chemscore.Metal>
0.0000

> <Gold.Chemscore.Hbonds>
donor molecule, donor type, donor heavy atom, donor atom, acceptor molecule, acceptor atom, score
      P1  H  6896  6907       L1     7  0.83

> <Gold.PLP.Chemscore.Internal.Correction>
0.0278

> <Gold.Rescore>
     Score         DG    S(hbond)    S(metal)    S(lipo)     H(rot)  DE(clash)    DE(int)     intcor
     14.41     -14.85       1.00        0.00     105.34       2.45       0.05       0.39       ----

> <Gold.Chemscore.Fitness>
14.4077

> <Gold.Chemscore.DG>
-14.8534

> <Gold.Chemscore.ZeroCoef>
-5.4800

> <Gold.Chemscore.Hbond>
0.9968

> <Gold.Chemscore.Metal>
0.0000

> <Gold.Chemscore.Lipo>
105.3386

> <Gold.Chemscore.Internal_Hbond>
0.0000

> <Gold.Chemscore.DEClash>
0.0515

> <Gold.Chemscore.DEInternal>
0.3942

> <Gold.Chemscore.Rot>
2.4533

> <Gold.Chemscore.Internal.Correction>
   9.000000E+99

> <Gold.Chemscore.Hbonds>
donor molecule, donor type, donor heavy atom, donor atom, acceptor molecule, acceptor atom, score
      P1  H  6896  6907       L1     7  0.45

> <Gold.Chemscore.Hbond.Weighted>
-3.3292

> <Gold.Chemscore.Metal.Weighted>
-0.0000

> <Gold.Chemscore.Lipo.Weighted>
-12.3246

> <Gold.Chemscore.Internal_Hbond.Weighted>
0.0000

> <Gold.Chemscore.DEClash.Weighted>
0.0515

> <Gold.Chemscore.DEInternal.Weighted>
0.3942

> <Gold.Chemscore.Rot.Weighted>
6.2804

> <Gold.Chemscore.Internal.Correction.Weighted>
   9.000000E+99

> <Gold.Protein.RotatedTorsions>
[ 6907 6896 6895 6894 ] final   34.31 input  -60.11 | X-H torsion
[ 7974 7965 7964 7962 ] final  132.58 input  175.53 | X-H torsion
[ 8008 7997 7996 7995 ] final  -15.22 input   59.86 | X-H torsion
[ 10167 10162 10161 10158 ] final  -12.40 input  -65.29 | X-H torsion
[ 10718 10713 10712 10709 ] final -146.02 input   66.30 | X-H torsion
[ 10763 10752 10751 10750 ] final   34.88 input  -60.55 | X-H torsion
[ 11005 11000 10999 10996 ] final  -48.91 input  -57.11 | X-H torsion

> <Gold.Protein.ActiveResidues>
 VAL166  LYS551  ARG553  GLY616  TRP617  ASP618  TYR619  PRO620  LYS621  CYS622 
 ASP623  PHE694  ASN695  SER759  ASP760  ASP761  ALA762  ILE779  LEU786  VAL792 
 PHE793  MET794  SER795  GLU796  ALA797  LYS798  CYS799  TRP800  GLU811  SER814 

> <Gold.Protein.RotatedAtoms>
  152.1006  134.9344  160.0569 H   0  0  0  0  0  0  0  0  0  0  0  0  # atno 6907 bound_to 6896
  152.0560  133.4035  159.4405 H   0  0  0  0  0  0  0  0  0  0  0  0  # atno 6908 bound_to 6896
  150.6839  134.3175  159.4816 H   0  0  0  0  0  0  0  0  0  0  0  0  # atno 6909 bound_to 6896
  144.9954  139.4365  143.5319 H   0  0  0  0  0  0  0  0  0  0  0  0  # atno 7974 bound_to 7965
  154.5147  140.2202  155.9088 H   0  0  0  0  0  0  0  0  0  0  0  0  # atno 8008 bound_to 7997
  156.1594  140.3145  155.8747 H   0  0  0  0  0  0  0  0  0  0  0  0  # atno 8009 bound_to 7997
  155.3782  140.0471  157.3035 H   0  0  0  0  0  0  0  0  0  0  0  0  # atno 8010 bound_to 7997
  140.7160  143.5537  150.9273 H   0  0  0  0  0  0  0  0  0  0  0  0  # atno 10167 bound_to 10162
  156.3897  130.7879  151.2080 H   0  0  0  0  0  0  0  0  0  0  0  0  # atno 10718 bound_to 10713
  153.0144  135.6348  154.1739 H   0  0  0  0  0  0  0  0  0  0  0  0  # atno 10763 bound_to 10752
  154.1479  135.2830  155.3145 H   0  0  0  0  0  0  0  0  0  0  0  0  # atno 10764 bound_to 10752
  154.6076  135.5567  153.7500 H   0  0  0  0  0  0  0  0  0  0  0  0  # atno 10765 bound_to 10752
  141.0728  133.6674  156.3509 H   0  0  0  0  0  0  0  0  0  0  0  0  # atno 11005 bound_to 11000
  146.3440  139.9310  142.8753 LP  0  0  0  0  0  0  0  0  0  0  0  0  # atno 17320 bound_to 7965
  145.2228  140.9942  143.4036 LP  0  0  0  0  0  0  0  0  0  0  0  0  # atno 17321 bound_to 7965
  139.9261  143.6548  152.3086 LP  0  0  0  0  0  0  0  0  0  0  0  0  # atno 17342 bound_to 10162
  139.6982  144.7638  151.1319 LP  0  0  0  0  0  0  0  0  0  0  0  0  # atno 17343 bound_to 10162
  157.7498  131.0319  150.4204 LP  0  0  0  0  0  0  0  0  0  0  0  0  # atno 17370 bound_to 10713
  156.4463  130.4002  149.6665 LP  0  0  0  0  0  0  0  0  0  0  0  0  # atno 17371 bound_to 10713
  140.5636  134.5910  157.5440 LP  0  0  0  0  0  0  0  0  0  0  0  0  # atno 17394 bound_to 11000
  139.9541  134.7565  156.0381 LP  0  0  0  0  0  0  0  0  0  0  0  0  # atno 17395 bound_to 11000

$$$$
