AV-unprocessed.smi:1135|AV-procd|sdf|4859|dock7
  -GOLD-   22720 3433D 1   1.00000     0.00000
 Structure written by MMmdl.
 45 46  0  0  0  0  0  0  0  0  1 V2000
  144.7959  135.7634  153.1478 C   0  0  0  0  0  0  0  0  0  0  0  0
  145.6555  134.4942  153.2291 C   0  0  2  0  0  0  0  0  0  0  0  0
  146.4641  134.4442  154.5387 C   0  0  0  0  0  0  0  0  0  0  0  0
  147.3541  133.1883  154.6120 C   0  0  0  0  0  0  0  0  0  0  0  0
  148.3146  133.0591  153.4053 C   0  0  2  0  0  0  0  0  0  0  0  0
  149.0685  131.7158  153.5053 C   0  0  0  0  0  0  0  0  0  0  0  0
  149.2714  134.1737  153.4770 N   0  0  0  0  0  0  0  0  0  0  0  0
  150.0954  134.5054  154.4843 C   0  0  0  0  0  0  0  0  0  0  0  0
  150.1656  133.9088  155.5587 O   0  0  0  0  0  0  0  0  0  0  0  0
  150.8461  135.5709  154.1730 N   0  0  0  0  0  0  0  0  0  0  0  0
  151.8510  136.1654  155.0468 C   0  0  0  0  0  0  0  0  0  0  0  0
  152.4778  137.4196  154.4151 C   0  0  0  0  0  0  0  0  0  0  0  0
  152.8598  138.4557  155.4553 C   0  0  0  0  0  0  0  0  0  0  0  0
  153.6516  138.0996  156.5678 C   0  0  0  0  0  0  0  0  0  0  0  0
  153.9698  139.0952  157.5115 C   0  0  0  0  0  0  0  0  0  0  0  0
  153.4856  140.4017  157.3081 C   0  0  0  0  0  0  0  0  0  0  0  0
  152.7026  140.6558  156.1642 C   0  0  0  0  0  0  0  0  0  0  0  0
  152.3918  139.7084  155.2531 N   0  0  0  0  0  0  0  0  0  0  0  0
  147.4703  133.1088  152.1042 C   0  0  0  0  0  0  0  0  0  0  0  0
  146.5906  134.3687  152.0124 C   0  0  0  0  0  0  0  0  0  0  0  0
  145.4137  136.6620  153.1484 H   0  0  0  0  0  0  0  0  0  0  0  0
  144.1117  135.8288  153.9941 H   0  0  0  0  0  0  0  0  0  0  0  0
  144.1956  135.7727  152.2376 H   0  0  0  0  0  0  0  0  0  0  0  0
  144.9791  133.6381  153.2210 H   0  0  0  0  0  0  0  0  0  0  0  0
  147.0791  135.3406  154.6286 H   0  0  0  0  0  0  0  0  0  0  0  0
  145.7855  134.4563  155.3923 H   0  0  0  0  0  0  0  0  0  0  0  0
  147.9196  133.1976  155.5449 H   0  0  0  0  0  0  0  0  0  0  0  0
  146.7107  132.3086  154.6623 H   0  0  0  0  0  0  0  0  0  0  0  0
  148.3746  130.8752  153.5374 H   0  0  0  0  0  0  0  0  0  0  0  0
  149.6796  131.6696  154.4074 H   0  0  0  0  0  0  0  0  0  0  0  0
  149.7275  131.5521  152.6526 H   0  0  0  0  0  0  0  0  0  0  0  0
  149.3179  134.7515  152.6507 H   0  0  0  0  0  0  0  0  0  0  0  0
  150.7195  135.9972  153.2667 H   0  0  0  0  0  0  0  0  0  0  0  0
  151.3696  136.4235  155.9904 H   0  0  0  0  0  0  0  0  0  0  0  0
  152.6224  135.4303  155.2831 H   0  0  0  0  0  0  0  0  0  0  0  0
  153.3660  137.1494  153.8425 H   0  0  0  0  0  0  0  0  0  0  0  0
  151.7820  137.8696  153.7053 H   0  0  0  0  0  0  0  0  0  0  0  0
  154.0047  137.0870  156.6981 H   0  0  0  0  0  0  0  0  0  0  0  0
  154.5726  138.8600  158.3760 H   0  0  0  0  0  0  0  0  0  0  0  0
  153.7083  141.1902  158.0115 H   0  0  0  0  0  0  0  0  0  0  0  0
  152.3145  141.6461  155.9770 H   0  0  0  0  0  0  0  0  0  0  0  0
  148.1044  133.0398  151.2207 H   0  0  0  0  0  0  0  0  0  0  0  0
  146.8238  132.2310  152.0633 H   0  0  0  0  0  0  0  0  0  0  0  0
  146.0016  134.3319  151.0956 H   0  0  0  0  0  0  0  0  0  0  0  0
  147.2209  135.2553  151.9328 H   0  0  0  0  0  0  0  0  0  0  0  0
  1  2  1  0  0  0  0
  1 21  1  0  0  0  0
  1 22  1  0  0  0  0
  1 23  1  0  0  0  0
  2 20  1  0  0  0  0
  2  3  1  0  0  0  0
  2 24  1  0  0  0  0
  3  4  1  0  0  0  0
  3 25  1  0  0  0  0
  3 26  1  0  0  0  0
  4  5  1  0  0  0  0
  4 27  1  0  0  0  0
  4 28  1  0  0  0  0
  5  6  1  0  0  0  0
  5  7  1  0  0  0  0
  5 19  1  0  0  0  0
  6 29  1  0  0  0  0
  6 30  1  0  0  0  0
  6 31  1  0  0  0  0
  7  8  1  0  0  0  0
  7 32  1  0  0  0  0
  8  9  2  0  0  0  0
  8 10  1  0  0  0  0
 10 11  1  0  0  0  0
 10 33  1  0  0  0  0
 11 12  1  0  0  0  0
 11 34  1  0  0  0  0
 11 35  1  0  0  0  0
 12 13  1  0  0  0  0
 12 36  1  0  0  0  0
 12 37  1  0  0  0  0
 13 18  1  0  0  0  0
 13 14  2  0  0  0  0
 14 15  1  0  0  0  0
 14 38  1  0  0  0  0
 15 16  2  0  0  0  0
 15 39  1  0  0  0  0
 16 17  1  0  0  0  0
 16 40  1  0  0  0  0
 17 18  2  0  0  0  0
 17 41  1  0  0  0  0
 19 20  1  0  0  0  0
 19 42  1  0  0  0  0
 19 43  1  0  0  0  0
 20 44  1  0  0  0  0
 20 45  1  0  0  0  0
M  END
> <s_m_source_file>
AV-unprocessed.smi

> <i_m_source_file_index>
1135

> <i_lp_mmshare_version>
43012

> <i_f3d_flags>
0

> <s_epik_input>
W0NIMl0xW0NIMl1bQ0BIXShbQ0gzXSlbQ0gyXVtDSDJdW0NAQF0xKFtDSDNdKVtOSF1DKD1PKVtOSF1bQ0gyXVtDSDJdYzJbY0hdW2NIXVtjSF1bY0hdbjI=

> <s_epik_cmdline>
J2VwaWtfcHl0aG9uJywgJy1waCcsICc3LjAnLCAnLXRuJywgJzgnLCAnLW1hJywgJzIwMCcsICctbWV0YWxfYmluZGluZycsICctaW1hZScsICc8aW5maWxlLm1hZT4nLCAnLW9tYWUnLCAnPG91dGZpbGUubWFlPic=

> <r_epik_Ionization_Penalty>
0.0448679

> <r_epik_Ionization_Penalty_Charging>
0

> <r_epik_Ionization_Penalty_Neutral>
0.0448679

> <r_epik_State_Penalty>
0.0379931

> <r_epik_Charging_Adjusted_Penalty>
0.0379931

> <i_epik_Tot_Q>
0

> <i_epik_Tot_abs_Q>
0

> <r_epik_Metal_State_Penalty>
0.0353093

> <b_epik_Metal_Only>
0

> <s_lp_Force_Field>
OPLS_2005

> <r_lp_Energy>
6.34065

> <b_lp_Chiralities_Consistent>
1

> <s_lp_Variant>
AV-unprocessed.smi:1135-2

> <Gold.Version>
5.8.1

> <Gold.Id.Protein>
6NUR|6NUR_protein|mol2

> <Gold.PLP.Fitness>
43.2443

> <Gold.PLP.PLP>
-31.8957

> <Gold.PLP.part.hbond>
-3.4105

> <Gold.PLP.part.metal>
0.0000

> <Gold.PLP.part.buried>
-3.7452

> <Gold.PLP.part.nonpolar>
-24.8926

> <Gold.PLP.part.repulsive>
0.1456

> <Gold.PLP.ligand.clash>
0.0000

> <Gold.PLP.ligand.torsion>
0.3022

> <Gold.PLP.Chemscore.Hbond>
2.9840

> <Gold.PLP.Chemscore.CHOScore>
0.9960

> <Gold.PLP.Chemscore.Metal>
0.0000

> <Gold.Chemscore.Hbonds>
donor molecule, donor type, donor heavy atom, donor atom, acceptor molecule, acceptor atom, score
      L1  H    10    33       P1  7949  0.42
      P1  H  7989  7998       L1    18  0.39

> <Gold.PLP.Chemscore.Internal.Correction>
0.0131

> <Gold.Rescore>
     Score         DG    S(hbond)    S(metal)    S(lipo)     H(rot)  DE(clash)    DE(int)     intcor
     17.56     -18.39       2.44        0.00      71.76       1.42       0.46       0.37       ----

> <Gold.Chemscore.Fitness>
17.5640

> <Gold.Chemscore.DG>
-18.3938

> <Gold.Chemscore.ZeroCoef>
-5.4800

> <Gold.Chemscore.Hbond>
2.4421

> <Gold.Chemscore.Metal>
0.0000

> <Gold.Chemscore.Lipo>
71.7593

> <Gold.Chemscore.Internal_Hbond>
0.0000

> <Gold.Chemscore.DEClash>
0.4575

> <Gold.Chemscore.DEInternal>
0.3723

> <Gold.Chemscore.Rot>
1.4213

> <Gold.Chemscore.Internal.Correction>
   9.000000E+99

> <Gold.Chemscore.Hbonds>
donor molecule, donor type, donor heavy atom, donor atom, acceptor molecule, acceptor atom, score
      L1  H    10    33       P1  7949  0.01
      P1  H  7989  7998       L1    18  0.17

> <Gold.Chemscore.Hbond.Weighted>
-8.1565

> <Gold.Chemscore.Metal.Weighted>
-0.0000

> <Gold.Chemscore.Lipo.Weighted>
-8.3958

> <Gold.Chemscore.Internal_Hbond.Weighted>
0.0000

> <Gold.Chemscore.DEClash.Weighted>
0.4575

> <Gold.Chemscore.DEInternal.Weighted>
0.3723

> <Gold.Chemscore.Rot.Weighted>
3.6385

> <Gold.Chemscore.Internal.Correction.Weighted>
   9.000000E+99

> <Gold.Protein.RotatedTorsions>
[ 6907 6896 6895 6894 ] final -161.35 input  -60.11 | X-H torsion
[ 7974 7965 7964 7962 ] final -104.68 input  175.53 | X-H torsion
[ 8008 7997 7996 7995 ] final  101.41 input   59.86 | X-H torsion
[ 10167 10162 10161 10158 ] final  -87.89 input  -65.29 | X-H torsion
[ 10718 10713 10712 10709 ] final  176.79 input   66.30 | X-H torsion
[ 10763 10752 10751 10750 ] final   -1.12 input  -60.55 | X-H torsion
[ 11005 11000 10999 10996 ] final  132.45 input  -57.11 | X-H torsion

> <Gold.Protein.ActiveResidues>
 VAL166  LYS551  ARG553  GLY616  TRP617  ASP618  TYR619  PRO620  LYS621  CYS622 
 ASP623  PHE694  ASN695  SER759  ASP760  ASP761  ALA762  ILE779  LEU786  VAL792 
 PHE793  MET794  SER795  GLU796  ALA797  LYS798  CYS799  TRP800  GLU811  SER814 

> <Gold.Protein.RotatedAtoms>
  151.3633  133.3881  159.2691 H   0  0  0  0  0  0  0  0  0  0  0  0  # atno 6907 bound_to 6896
  150.9708  134.9082  159.7797 H   0  0  0  0  0  0  0  0  0  0  0  0  # atno 6908 bound_to 6896
  152.5184  134.3595  159.9332 H   0  0  0  0  0  0  0  0  0  0  0  0  # atno 6909 bound_to 6896
  145.2401  140.9202  143.3155 H   0  0  0  0  0  0  0  0  0  0  0  0  # atno 7974 bound_to 7965
  156.1297  140.3198  155.8330 H   0  0  0  0  0  0  0  0  0  0  0  0  # atno 8008 bound_to 7997
  155.4355  140.0522  157.3032 H   0  0  0  0  0  0  0  0  0  0  0  0  # atno 8009 bound_to 7997
  154.4889  140.2084  155.9605 H   0  0  0  0  0  0  0  0  0  0  0  0  # atno 8010 bound_to 7997
  140.3800  143.2753  151.9395 H   0  0  0  0  0  0  0  0  0  0  0  0  # atno 10167 bound_to 10162
  156.9149  130.9922  151.3014 H   0  0  0  0  0  0  0  0  0  0  0  0  # atno 10718 bound_to 10713
  153.3407  135.6980  153.6869 H   0  0  0  0  0  0  0  0  0  0  0  0  # atno 10763 bound_to 10752
  153.5635  135.3530  155.2809 H   0  0  0  0  0  0  0  0  0  0  0  0  # atno 10764 bound_to 10752
  154.8636  135.4255  154.2619 H   0  0  0  0  0  0  0  0  0  0  0  0  # atno 10765 bound_to 10752
  139.9791  134.9554  156.9583 H   0  0  0  0  0  0  0  0  0  0  0  0  # atno 11005 bound_to 11000
  144.9597  139.3993  143.6362 LP  0  0  0  0  0  0  0  0  0  0  0  0  # atno 17320 bound_to 7965
  146.3330  139.8644  142.8851 LP  0  0  0  0  0  0  0  0  0  0  0  0  # atno 17321 bound_to 7965
  139.4796  144.5827  151.7905 LP  0  0  0  0  0  0  0  0  0  0  0  0  # atno 17342 bound_to 10162
  140.4947  144.1259  150.5957 LP  0  0  0  0  0  0  0  0  0  0  0  0  # atno 17343 bound_to 10162
  157.5944  130.8467  149.8707 LP  0  0  0  0  0  0  0  0  0  0  0  0  # atno 17370 bound_to 10713
  156.0518  130.3716  150.1183 LP  0  0  0  0  0  0  0  0  0  0  0  0  # atno 17371 bound_to 10713
  140.5134  134.0979  155.7275 LP  0  0  0  0  0  0  0  0  0  0  0  0  # atno 17394 bound_to 11000
  141.1465  133.9046  157.2203 LP  0  0  0  0  0  0  0  0  0  0  0  0  # atno 17395 bound_to 11000

$$$$
