AV-unprocessed.smi:1849|AV-procd|sdf|7520|dock5
  -GOLD-   22720 9223D 1   1.00000     0.00000
 Structure written by MMmdl.
 41 42  0  0  0  0  0  0  0  0  2 V2000
  146.8721  133.6437  151.3341 C   0  0  0  0  0  0  0  0  0  0  0  0
  145.4983  133.3047  150.9562 N   0  0  0  0  0  0  0  0  0  0  0  0
  144.9517  132.0481  150.9030 C   0  0  0  0  0  0  0  0  0  0  0  0
  143.6501  132.2022  150.5018 C   0  0  0  0  0  0  0  0  0  0  0  0
  143.4559  133.5456  150.3275 N   0  3  0  0  0  0  0  0  0  0  0  0
  144.5779  134.2190  150.6074 C   0  0  0  0  0  0  0  0  0  0  0  0
  144.7472  135.7029  150.5170 C   0  0  0  0  0  0  0  0  0  0  0  0
  145.1470  136.3381  151.8591 C   0  0  0  0  0  0  0  0  0  0  0  0
  144.1890  137.3539  152.2777 N   0  0  0  0  0  0  0  0  0  0  0  0
  143.0003  137.0955  152.8407 C   0  0  0  0  0  0  0  0  0  0  0  0
  142.5797  135.9609  153.0685 O   0  0  0  0  0  0  0  0  0  0  0  0
  142.3249  138.2198  153.1167 N   0  0  0  0  0  0  0  0  0  0  0  0
  140.9954  138.2778  153.7168 C   0  0  0  0  0  0  0  0  0  0  0  0
  140.9548  137.4616  155.0260 C   0  0  0  0  0  0  0  0  0  0  0  0
  139.5421  137.4377  155.6314 C   0  0  0  0  0  0  0  0  0  0  0  0
  138.5104  136.9112  154.6217 C   0  0  0  0  0  0  0  0  0  0  0  0
  138.5419  137.7293  153.3215 C   0  0  0  0  0  0  0  0  0  0  0  0
  139.9529  137.7520  152.7115 C   0  0  0  0  0  0  0  0  0  0  0  0
  147.4420  132.7287  151.4982 H   0  0  0  0  0  0  0  0  0  0  0  0
  146.8589  134.2306  152.2531 H   0  0  0  0  0  0  0  0  0  0  0  0
  147.3395  134.2191  150.5345 H   0  0  0  0  0  0  0  0  0  0  0  0
  145.5151  131.1591  151.1471 H   0  0  0  0  0  0  0  0  0  0  0  0
  142.8688  131.4758  150.3311 H   0  0  0  0  0  0  0  0  0  0  0  0
  145.5074  135.8919  149.7579 H   0  0  0  0  0  0  0  0  0  0  0  0
  143.8097  136.1141  150.1419 H   0  0  0  0  0  0  0  0  0  0  0  0
  145.2372  135.5769  152.6356 H   0  0  0  0  0  0  0  0  0  0  0  0
  146.1267  136.8085  151.7713 H   0  0  0  0  0  0  0  0  0  0  0  0
  144.4488  138.3186  152.1311 H   0  0  0  0  0  0  0  0  0  0  0  0
  142.7582  139.1032  152.8906 H   0  0  0  0  0  0  0  0  0  0  0  0
  140.7526  139.3182  153.9426 H   0  0  0  0  0  0  0  0  0  0  0  0
  141.2822  136.4387  154.8338 H   0  0  0  0  0  0  0  0  0  0  0  0
  141.6543  137.8775  155.7522 H   0  0  0  0  0  0  0  0  0  0  0  0
  139.5330  136.8189  156.5292 H   0  0  0  0  0  0  0  0  0  0  0  0
  139.2637  138.4440  155.9467 H   0  0  0  0  0  0  0  0  0  0  0  0
  138.7169  135.8633  154.3998 H   0  0  0  0  0  0  0  0  0  0  0  0
  137.5120  136.9444  155.0585 H   0  0  0  0  0  0  0  0  0  0  0  0
  137.8338  137.3139  152.6038 H   0  0  0  0  0  0  0  0  0  0  0  0
  138.2143  138.7497  153.5241 H   0  0  0  0  0  0  0  0  0  0  0  0
  139.9531  138.3712  151.8136 H   0  0  0  0  0  0  0  0  0  0  0  0
  140.2219  136.7441  152.3919 H   0  0  0  0  0  0  0  0  0  0  0  0
  142.5874  133.9726  150.0305 H   0  0  0  0  0  0  0  0  0  0  0  0
  1  2  1  0  0  0  0
  1 19  1  0  0  0  0
  1 20  1  0  0  0  0
  1 21  1  0  0  0  0
  2  6  1  0  0  0  0
  2  3  1  0  0  0  0
  3  4  2  0  0  0  0
  3 22  1  0  0  0  0
  4  5  1  0  0  0  0
  4 23  1  0  0  0  0
  5  6  2  0  0  0  0
  5 41  1  0  0  0  0
  6  7  1  0  0  0  0
  7  8  1  0  0  0  0
  7 24  1  0  0  0  0
  7 25  1  0  0  0  0
  8  9  1  0  0  0  0
  8 26  1  0  0  0  0
  8 27  1  0  0  0  0
  9 10  1  0  0  0  0
  9 28  1  0  0  0  0
 10 11  2  0  0  0  0
 10 12  1  0  0  0  0
 12 13  1  0  0  0  0
 12 29  1  0  0  0  0
 13 18  1  0  0  0  0
 13 14  1  0  0  0  0
 13 30  1  0  0  0  0
 14 15  1  0  0  0  0
 14 31  1  0  0  0  0
 14 32  1  0  0  0  0
 15 16  1  0  0  0  0
 15 33  1  0  0  0  0
 15 34  1  0  0  0  0
 16 17  1  0  0  0  0
 16 35  1  0  0  0  0
 16 36  1  0  0  0  0
 17 18  1  0  0  0  0
 17 37  1  0  0  0  0
 17 38  1  0  0  0  0
 18 39  1  0  0  0  0
 18 40  1  0  0  0  0
M  CHG  1   5   1
M  END
> <s_m_source_file>
AV-unprocessed.smi

> <i_m_source_file_index>
1849

> <i_lp_mmshare_version>
43012

> <i_f3d_flags>
0

> <s_epik_input>
W0NIM11uMVtjSF1bY0hdbmMxW0NIMl1bQ0gyXVtOSF1DKD1PKVtOSF1bQ0hdMltDSDJdW0NIMl1bQ0gyXVtDSDJdW0NIMl0y

> <s_epik_cmdline>
J2VwaWtfcHl0aG9uJywgJy1waCcsICc3LjAnLCAnLXRuJywgJzgnLCAnLW1hJywgJzIwMCcsICctbWV0YWxfYmluZGluZycsICctaW1hZScsICc8aW5maWxlLm1hZT4nLCAnLW9tYWUnLCAnPG91dGZpbGUubWFlPic=

> <r_lp_tautomer_probability>
1

> <r_epik_Ionization_Penalty>
0.0507041

> <r_epik_Ionization_Penalty_Charging>
0

> <r_epik_Ionization_Penalty_Neutral>
0.0507041

> <r_epik_State_Penalty>
0.0433397

> <r_epik_Charging_Adjusted_Penalty>
0.0433397

> <i_epik_Tot_Q>
1

> <i_epik_Tot_abs_Q>
1

> <r_epik_Metal_State_Penalty>
0.385258

> <b_epik_Metal_Only>
0

> <s_lp_Force_Field>
OPLS_2005

> <r_lp_Energy>
7.33452

> <b_lp_Chiralities_Consistent>
1

> <s_lp_Variant>
AV-unprocessed.smi:1849-1

> <Gold.Version>
5.8.1

> <Gold.Id.Protein>
6NUR|6NUR_protein|mol2

> <Gold.PLP.Fitness>
45.0389

> <Gold.PLP.PLP>
-36.2604

> <Gold.PLP.part.hbond>
-3.6993

> <Gold.PLP.part.metal>
0.0000

> <Gold.PLP.part.buried>
-6.5687

> <Gold.PLP.part.nonpolar>
-26.1808

> <Gold.PLP.part.repulsive>
0.2268

> <Gold.PLP.ligand.clash>
0.0000

> <Gold.PLP.ligand.torsion>
0.5667

> <Gold.PLP.Chemscore.Hbond>
3.2990

> <Gold.PLP.Chemscore.CHOScore>
0.0000

> <Gold.PLP.Chemscore.Metal>
0.0000

> <Gold.Chemscore.Hbonds>
donor molecule, donor type, donor heavy atom, donor atom, acceptor molecule, acceptor atom, score
      L1  H     5    41       P1 10186  2.00
      L1  H     9    28       P1 10175  0.30
      L1  H    12    29       P1 10175  1.00

> <Gold.PLP.Chemscore.Internal.Correction>
0.0149

> <Gold.Rescore>
     Score         DG    S(hbond)    S(metal)    S(lipo)     H(rot)  DE(clash)    DE(int)     intcor
     15.55     -16.99       2.21        0.00      72.97       1.73       0.10       1.34       ----

> <Gold.Chemscore.Fitness>
15.5542

> <Gold.Chemscore.DG>
-16.9911

> <Gold.Chemscore.ZeroCoef>
-5.4800

> <Gold.Chemscore.Hbond>
2.2136

> <Gold.Chemscore.Metal>
0.0000

> <Gold.Chemscore.Lipo>
72.9725

> <Gold.Chemscore.Internal_Hbond>
0.0000

> <Gold.Chemscore.DEClash>
0.0960

> <Gold.Chemscore.DEInternal>
1.3409

> <Gold.Chemscore.Rot>
1.7265

> <Gold.Chemscore.Internal.Correction>
   9.000000E+99

> <Gold.Chemscore.Hbonds>
donor molecule, donor type, donor heavy atom, donor atom, acceptor molecule, acceptor atom, score
      L1  H     5    41       P1 10186  1.00
      L1  H     9    28       P1 10175  0.30
      L1  H    12    29       P1 10175  1.00

> <Gold.Chemscore.Hbond.Weighted>
-7.3933

> <Gold.Chemscore.Metal.Weighted>
-0.0000

> <Gold.Chemscore.Lipo.Weighted>
-8.5378

> <Gold.Chemscore.Internal_Hbond.Weighted>
0.0000

> <Gold.Chemscore.DEClash.Weighted>
0.0960

> <Gold.Chemscore.DEInternal.Weighted>
1.3409

> <Gold.Chemscore.Rot.Weighted>
4.4199

> <Gold.Chemscore.Internal.Correction.Weighted>
   9.000000E+99

> <Gold.Protein.RotatedTorsions>
[ 6907 6896 6895 6894 ] final  137.70 input  -60.11 | X-H torsion
[ 7974 7965 7964 7962 ] final  -13.39 input  175.53 | X-H torsion
[ 8008 7997 7996 7995 ] final  103.82 input   59.86 | X-H torsion
[ 10167 10162 10161 10158 ] final  144.19 input  -65.29 | X-H torsion
[ 10718 10713 10712 10709 ] final    2.16 input   66.30 | X-H torsion
[ 10763 10752 10751 10750 ] final  172.25 input  -60.55 | X-H torsion
[ 11005 11000 10999 10996 ] final    3.61 input  -57.11 | X-H torsion

> <Gold.Protein.ActiveResidues>
 VAL166  LYS551  ARG553  GLY616  TRP617  ASP618  TYR619  PRO620  LYS621  CYS622 
 ASP623  PHE694  ASN695  SER759  ASP760  ASP761  ALA762  ILE779  LEU786  VAL792 
 PHE793  MET794  SER795  GLU796  ALA797  LYS798  CYS799  TRP800  GLU811  SER814 

> <Gold.Protein.RotatedAtoms>
  152.2751  133.5418  159.5462 H   0  0  0  0  0  0  0  0  0  0  0  0  # atno 6907 bound_to 6896
  150.7174  134.0643  159.3851 H   0  0  0  0  0  0  0  0  0  0  0  0  # atno 6908 bound_to 6896
  151.8556  135.0542  160.0514 H   0  0  0  0  0  0  0  0  0  0  0  0  # atno 6909 bound_to 6896
  146.2116  140.3196  142.8389 H   0  0  0  0  0  0  0  0  0  0  0  0  # atno 7974 bound_to 7965
  156.1518  140.3158  155.8660 H   0  0  0  0  0  0  0  0  0  0  0  0  # atno 8008 bound_to 7997
  155.3956  140.0496  157.3056 H   0  0  0  0  0  0  0  0  0  0  0  0  # atno 8009 bound_to 7997
  154.5065  140.2149  155.9252 H   0  0  0  0  0  0  0  0  0  0  0  0  # atno 8010 bound_to 7997
  139.4952  144.5989  151.6524 H   0  0  0  0  0  0  0  0  0  0  0  0  # atno 10167 bound_to 10162
  156.8590  130.5580  149.5664 H   0  0  0  0  0  0  0  0  0  0  0  0  # atno 10718 bound_to 10713
  154.4234  135.2758  155.1960 H   0  0  0  0  0  0  0  0  0  0  0  0  # atno 10763 bound_to 10752
  154.3897  135.6069  153.5839 H   0  0  0  0  0  0  0  0  0  0  0  0  # atno 10764 bound_to 10752
  152.9833  135.5900  154.4534 H   0  0  0  0  0  0  0  0  0  0  0  0  # atno 10765 bound_to 10752
  140.5912  133.9922  155.8089 H   0  0  0  0  0  0  0  0  0  0  0  0  # atno 11005 bound_to 11000
  144.8930  140.7547  143.5915 LP  0  0  0  0  0  0  0  0  0  0  0  0  # atno 17320 bound_to 7965
  145.3119  139.1816  143.4634 LP  0  0  0  0  0  0  0  0  0  0  0  0  # atno 17321 bound_to 7965
  140.5634  144.0231  150.6180 LP  0  0  0  0  0  0  0  0  0  0  0  0  # atno 17342 bound_to 10162
  140.3324  143.3069  152.0673 LP  0  0  0  0  0  0  0  0  0  0  0  0  # atno 17343 bound_to 10162
  156.0787  130.5803  150.9522 LP  0  0  0  0  0  0  0  0  0  0  0  0  # atno 17370 bound_to 10713
  157.6261  131.0925  150.8531 LP  0  0  0  0  0  0  0  0  0  0  0  0  # atno 17371 bound_to 10713
  141.0934  133.9882  157.3201 LP  0  0  0  0  0  0  0  0  0  0  0  0  # atno 17394 bound_to 11000
  139.9273  135.0201  156.8280 LP  0  0  0  0  0  0  0  0  0  0  0  0  # atno 17395 bound_to 11000

$$$$
