AV-unprocessed.smi:1053|AV-procd|sdf|4618|dock6
  -GOLD-   22720 3123D 1   1.00000     0.00000
 Structure written by MMmdl.
 38 39  0  0  0  0  0  0  0  0  2 V2000
  146.6500  138.9029  151.6883 C   0  0  0  0  0  0  0  0  0  0  0  0
  147.6502  139.6779  152.5579 C   0  0  0  0  0  0  0  0  0  0  0  0
  148.4170  138.7900  153.4718 N   0  3  2  0  0  0  0  0  0  0  0  0
  147.5867  138.1816  154.5398 C   0  0  0  0  0  0  0  0  0  0  0  0
  147.3103  139.1885  155.6703 C   0  0  0  0  0  0  0  0  0  0  0  0
  148.5454  139.6707  156.1839 O   0  0  0  0  0  0  0  0  0  0  0  0
  149.3101  140.3696  155.2060 C   0  0  1  0  0  0  0  0  0  0  0  0
  150.5839  140.8940  155.8822 C   0  0  0  0  0  0  0  0  0  0  0  0
  150.4261  142.2666  156.3387 N   0  0  0  0  0  0  0  0  0  0  0  0
  151.0831  142.7981  157.4316 C   0  0  0  0  0  0  0  0  0  0  0  0
  151.2582  144.1211  157.4097 N   0  0  0  0  0  0  0  0  0  0  0  0
  151.8969  144.6730  158.4644 C   0  0  0  0  0  0  0  0  0  0  0  0
  152.3600  143.8936  159.5430 C   0  0  0  0  0  0  0  0  0  0  0  0
  152.1202  142.5038  159.4600 C   0  0  0  0  0  0  0  0  0  0  0  0
  152.5620  141.5386  160.5497 C   0  0  0  0  0  0  0  0  0  0  0  0
  152.1277  141.9227  161.7505 F   0  0  0  0  0  0  0  0  0  0  0  0
  152.0796  140.3223  160.2948 F   0  0  0  0  0  0  0  0  0  0  0  0
  153.8933  141.4756  160.5814 F   0  0  0  0  0  0  0  0  0  0  0  0
  151.4797  141.9626  158.3978 N   0  0  0  0  0  0  0  0  0  0  0  0
  149.6424  139.3976  154.0522 C   0  0  0  0  0  0  0  0  0  0  0  0
  146.0354  139.5903  151.1068 H   0  0  0  0  0  0  0  0  0  0  0  0
  145.9793  138.3001  152.3013 H   0  0  0  0  0  0  0  0  0  0  0  0
  147.1475  138.2404  150.9807 H   0  0  0  0  0  0  0  0  0  0  0  0
  148.3196  140.2695  151.9336 H   0  0  0  0  0  0  0  0  0  0  0  0
  147.0811  140.3918  153.1546 H   0  0  0  0  0  0  0  0  0  0  0  0
  146.6545  137.7903  154.1309 H   0  0  0  0  0  0  0  0  0  0  0  0
  148.1253  137.3245  154.9465 H   0  0  0  0  0  0  0  0  0  0  0  0
  146.6935  140.0186  155.3232 H   0  0  0  0  0  0  0  0  0  0  0  0
  146.7612  138.7024  156.4770 H   0  0  0  0  0  0  0  0  0  0  0  0
  148.7384  141.2181  154.8269 H   0  0  0  0  0  0  0  0  0  0  0  0
  150.8566  140.2561  156.7239 H   0  0  0  0  0  0  0  0  0  0  0  0
  151.4136  140.8640  155.1748 H   0  0  0  0  0  0  0  0  0  0  0  0
  149.7577  142.8589  155.8676 H   0  0  0  0  0  0  0  0  0  0  0  0
  152.0394  145.7434  158.4476 H   0  0  0  0  0  0  0  0  0  0  0  0
  152.8691  144.3434  160.3824 H   0  0  0  0  0  0  0  0  0  0  0  0
  150.2684  138.5892  154.4332 H   0  0  0  0  0  0  0  0  0  0  0  0
  150.2327  139.8969  153.2848 H   0  0  0  0  0  0  0  0  0  0  0  0
  148.7247  138.0217  152.8923 H   0  0  0  0  0  0  0  0  0  0  0  0
  1  2  1  0  0  0  0
  1 21  1  0  0  0  0
  1 22  1  0  0  0  0
  1 23  1  0  0  0  0
  2  3  1  0  0  0  0
  2 24  1  0  0  0  0
  2 25  1  0  0  0  0
  3 20  1  0  0  0  0
  3  4  1  0  0  0  0
  3 38  1  0  0  0  0
  4  5  1  0  0  0  0
  4 26  1  0  0  0  0
  4 27  1  0  0  0  0
  5  6  1  0  0  0  0
  5 28  1  0  0  0  0
  5 29  1  0  0  0  0
  6  7  1  0  0  0  0
  7  8  1  0  0  0  0
  7 20  1  0  0  0  0
  7 30  1  0  0  0  0
  8  9  1  0  0  0  0
  8 31  1  0  0  0  0
  8 32  1  0  0  0  0
  9 10  1  0  0  0  0
  9 33  1  0  0  0  0
 10 19  1  0  0  0  0
 10 11  2  0  0  0  0
 11 12  1  0  0  0  0
 12 13  2  0  0  0  0
 12 34  1  0  0  0  0
 13 14  1  0  0  0  0
 13 35  1  0  0  0  0
 14 15  1  0  0  0  0
 14 19  2  0  0  0  0
 15 16  1  0  0  0  0
 15 17  1  0  0  0  0
 15 18  1  0  0  0  0
 20 36  1  0  0  0  0
 20 37  1  0  0  0  0
M  CHG  1   3   1
M  END
> <s_m_source_file>
AV-unprocessed.smi

> <i_m_source_file_index>
1053

> <i_lp_mmshare_version>
43012

> <i_f3d_flags>
0

> <s_epik_input>
W0NIM11bQ0gyXU4xW0NIMl1bQ0gyXU9bQ0BIXShbQ0gyXTEpW0NIMl1bTkhdYzJuW2NIXVtjSF1jKG4yKUMoRikoRilG

> <s_epik_cmdline>
J2VwaWtfcHl0aG9uJywgJy1waCcsICc3LjAnLCAnLXRuJywgJzgnLCAnLW1hJywgJzIwMCcsICctbWV0YWxfYmluZGluZycsICctaW1hZScsICc8aW5maWxlLm1hZT4nLCAnLW9tYWUnLCAnPG91dGZpbGUubWFlPic=

> <r_lp_tautomer_probability>
1

> <r_epik_Ionization_Penalty>
0.178506

> <r_epik_Ionization_Penalty_Charging>
0.178504

> <r_epik_Ionization_Penalty_Neutral>
2.47619e-06

> <r_epik_State_Penalty>
0.167974

> <r_epik_Charging_Adjusted_Penalty>
0.346478

> <i_epik_Tot_Q>
1

> <i_epik_Tot_abs_Q>
1

> <r_epik_Metal_State_Penalty>
0.167974

> <b_epik_Metal_Only>
0

> <s_lp_Force_Field>
OPLS_2005

> <r_lp_Energy>
12.5681

> <b_lp_Chiralities_Consistent>
1

> <s_lp_Variant>
AV-unprocessed.smi:1053-2

> <Gold.Version>
5.8.1

> <Gold.Id.Protein>
6NUR|6NUR_protein|mol2

> <Gold.PLP.Fitness>
46.3078

> <Gold.PLP.PLP>
-40.1218

> <Gold.PLP.part.hbond>
-3.0000

> <Gold.PLP.part.metal>
0.0000

> <Gold.PLP.part.buried>
0.2580

> <Gold.PLP.part.nonpolar>
-38.7878

> <Gold.PLP.part.repulsive>
1.2494

> <Gold.PLP.ligand.clash>
0.0000

> <Gold.PLP.ligand.torsion>
1.0281

> <Gold.PLP.Chemscore.Hbond>
2.7363

> <Gold.PLP.Chemscore.CHOScore>
0.0000

> <Gold.PLP.Chemscore.Metal>
0.0000

> <Gold.Chemscore.Hbonds>
donor molecule, donor type, donor heavy atom, donor atom, acceptor molecule, acceptor atom, score
      L1  H     3    38       P1  7948  1.89
      L1  H     9    33       P1  8028  0.89

> <Gold.PLP.Chemscore.Internal.Correction>
0.0333

> <Gold.Rescore>
     Score         DG    S(hbond)    S(metal)    S(lipo)     H(rot)  DE(clash)    DE(int)     intcor
     14.78     -15.77       1.48        0.00      79.67       1.55       0.29       0.71       ----

> <Gold.Chemscore.Fitness>
14.7758

> <Gold.Chemscore.DG>
-15.7742

> <Gold.Chemscore.ZeroCoef>
-5.4800

> <Gold.Chemscore.Hbond>
1.4831

> <Gold.Chemscore.Metal>
0.0000

> <Gold.Chemscore.Lipo>
79.6682

> <Gold.Chemscore.Internal_Hbond>
0.0000

> <Gold.Chemscore.DEClash>
0.2914

> <Gold.Chemscore.DEInternal>
0.7070

> <Gold.Chemscore.Rot>
1.5549

> <Gold.Chemscore.Internal.Correction>
   9.000000E+99

> <Gold.Chemscore.Hbonds>
donor molecule, donor type, donor heavy atom, donor atom, acceptor molecule, acceptor atom, score
      L1  H     3    38       P1  7948  0.90
      L1  H     9    33       P1  8028  0.83

> <Gold.Chemscore.Hbond.Weighted>
-4.9535

> <Gold.Chemscore.Metal.Weighted>
-0.0000

> <Gold.Chemscore.Lipo.Weighted>
-9.3212

> <Gold.Chemscore.Internal_Hbond.Weighted>
0.0000

> <Gold.Chemscore.DEClash.Weighted>
0.2914

> <Gold.Chemscore.DEInternal.Weighted>
0.7070

> <Gold.Chemscore.Rot.Weighted>
3.9806

> <Gold.Chemscore.Internal.Correction.Weighted>
   9.000000E+99

> <Gold.Protein.RotatedTorsions>
[ 6907 6896 6895 6894 ] final  -55.68 input  -60.11 | X-H torsion
[ 7974 7965 7964 7962 ] final  -99.18 input  175.53 | X-H torsion
[ 8008 7997 7996 7995 ] final  156.17 input   59.86 | X-H torsion
[ 10167 10162 10161 10158 ] final   95.18 input  -65.29 | X-H torsion
[ 10718 10713 10712 10709 ] final   27.16 input   66.30 | X-H torsion
[ 10763 10752 10751 10750 ] final  129.63 input  -60.55 | X-H torsion
[ 11005 11000 10999 10996 ] final  -81.12 input  -57.11 | X-H torsion

> <Gold.Protein.ActiveResidues>
 VAL166  LYS551  ARG553  GLY616  TRP617  ASP618  TYR619  PRO620  LYS621  CYS622 
 ASP623  PHE694  ASN695  SER759  ASP760  ASP761  ALA762  ILE779  LEU786  VAL792 
 PHE793  MET794  SER795  GLU796  ALA797  LYS798  CYS799  TRP800  GLU811  SER814 

> <Gold.Protein.RotatedAtoms>
  150.8231  134.7449  159.6789 H   0  0  0  0  0  0  0  0  0  0  0  0  # atno 6907 bound_to 6896
  152.4345  134.5710  159.9931 H   0  0  0  0  0  0  0  0  0  0  0  0  # atno 6908 bound_to 6896
  151.5889  133.3331  159.3059 H   0  0  0  0  0  0  0  0  0  0  0  0  # atno 6909 bound_to 6896
  145.3109  140.9400  143.2770 H   0  0  0  0  0  0  0  0  0  0  0  0  # atno 7974 bound_to 7965
  156.2437  140.1919  156.6914 H   0  0  0  0  0  0  0  0  0  0  0  0  # atno 8008 bound_to 7997
  154.6248  140.0603  156.9687 H   0  0  0  0  0  0  0  0  0  0  0  0  # atno 8009 bound_to 7997
  155.1803  140.3276  155.4379 H   0  0  0  0  0  0  0  0  0  0  0  0  # atno 8010 bound_to 7997
  139.8013  144.6812  150.9761 H   0  0  0  0  0  0  0  0  0  0  0  0  # atno 10167 bound_to 10162
  157.2164  130.6958  149.6251 H   0  0  0  0  0  0  0  0  0  0  0  0  # atno 10718 bound_to 10713
  153.7448  135.3218  155.3310 H   0  0  0  0  0  0  0  0  0  0  0  0  # atno 10763 bound_to 10752
  154.8283  135.4553  154.0990 H   0  0  0  0  0  0  0  0  0  0  0  0  # atno 10764 bound_to 10752
  153.2176  135.6944  153.8121 H   0  0  0  0  0  0  0  0  0  0  0  0  # atno 10765 bound_to 10752
  141.1667  133.7181  156.8375 H   0  0  0  0  0  0  0  0  0  0  0  0  # atno 11005 bound_to 11000
  144.9016  139.4642  143.6629 LP  0  0  0  0  0  0  0  0  0  0  0  0  # atno 17320 bound_to 7965
  146.3118  139.7774  142.9014 LP  0  0  0  0  0  0  0  0  0  0  0  0  # atno 17321 bound_to 7965
  140.7820  143.4278  151.0740 LP  0  0  0  0  0  0  0  0  0  0  0  0  # atno 17342 bound_to 10162
  139.7950  143.8164  152.3156 LP  0  0  0  0  0  0  0  0  0  0  0  0  # atno 17343 bound_to 10162
  155.9686  130.4534  150.5811 LP  0  0  0  0  0  0  0  0  0  0  0  0  # atno 17370 bound_to 10713
  157.3620  131.0751  151.1629 LP  0  0  0  0  0  0  0  0  0  0  0  0  # atno 17371 bound_to 10713
  140.2007  134.8899  157.3166 LP  0  0  0  0  0  0  0  0  0  0  0  0  # atno 17394 bound_to 11000
  140.2190  134.4046  155.7575 LP  0  0  0  0  0  0  0  0  0  0  0  0  # atno 17395 bound_to 11000

$$$$
