AV-unprocessed.smi:2723|AV-procd|sdf|10506|dock6
  -GOLD-   2272014553D 1   1.00000     0.00000
 Structure written by MMmdl.
 35 36  0  0  0  0  0  0  0  0  1 V2000
  149.7373  132.1572  154.5787 C   0  0  0  0  0  0  0  0  0  0  0  0
  149.7359  133.5591  153.9600 C   0  0  0  0  0  0  0  0  0  0  0  0
  149.9035  134.6664  155.0133 C   0  0  0  0  0  0  0  0  0  0  0  0
  150.2761  135.9363  154.4015 N   0  0  0  0  0  0  0  0  0  0  0  0
  151.2197  136.7700  154.8676 C   0  0  0  0  0  0  0  0  0  0  0  0
  151.8715  136.5528  155.8890 O   0  0  0  0  0  0  0  0  0  0  0  0
  151.4661  138.0471  154.0618 C   0  0  0  0  0  0  0  0  0  0  0  0
  151.0516  139.2559  154.8510 C   0  0  0  0  0  0  0  0  0  0  0  0
  150.0415  140.1355  154.5447 C   0  0  0  0  0  0  0  0  0  0  0  0
  149.8935  141.4010  155.7325 S   0  0  0  0  0  0  0  0  0  0  0  0
  151.2416  140.6810  156.6179 C   0  0  0  0  0  0  0  0  0  0  0  0
  151.8142  141.1689  157.8302 N   0  0  0  0  0  0  0  0  0  0  0  0
  151.3412  142.3964  158.4636 C   0  0  0  0  0  0  0  0  0  0  0  0
  152.0249  142.4525  159.8339 C   0  0  0  0  0  0  0  0  0  0  0  0
  153.1624  141.4359  159.7595 C   0  0  0  0  0  0  0  0  0  0  0  0
  152.8323  140.6225  158.5186 C   0  0  0  0  0  0  0  0  0  0  0  0
  153.4609  139.6048  158.2315 O   0  0  0  0  0  0  0  0  0  0  0  0
  151.7280  139.5820  156.0314 N   0  0  0  0  0  0  0  0  0  0  0  0
  149.6137  131.3935  153.8104 H   0  0  0  0  0  0  0  0  0  0  0  0
  148.9244  132.0422  155.2964 H   0  0  0  0  0  0  0  0  0  0  0  0
  150.6750  131.9576  155.0980 H   0  0  0  0  0  0  0  0  0  0  0  0
  150.5376  133.6225  153.2232 H   0  0  0  0  0  0  0  0  0  0  0  0
  148.8036  133.7102  153.4143 H   0  0  0  0  0  0  0  0  0  0  0  0
  148.9657  134.8130  155.5496 H   0  0  0  0  0  0  0  0  0  0  0  0
  150.6456  134.3772  155.7595 H   0  0  0  0  0  0  0  0  0  0  0  0
  149.7909  136.1956  153.5546 H   0  0  0  0  0  0  0  0  0  0  0  0
  152.5214  138.0972  153.7891 H   0  0  0  0  0  0  0  0  0  0  0  0
  150.9094  137.9967  153.1253 H   0  0  0  0  0  0  0  0  0  0  0  0
  149.3742  140.1115  153.6958 H   0  0  0  0  0  0  0  0  0  0  0  0
  151.6319  143.2508  157.8507 H   0  0  0  0  0  0  0  0  0  0  0  0
  150.2546  142.4046  158.5640 H   0  0  0  0  0  0  0  0  0  0  0  0
  152.3839  143.4554  160.0672 H   0  0  0  0  0  0  0  0  0  0  0  0
  151.3212  142.1638  160.6160 H   0  0  0  0  0  0  0  0  0  0  0  0
  154.1266  141.9271  159.6239 H   0  0  0  0  0  0  0  0  0  0  0  0
  153.2118  140.8065  160.6485 H   0  0  0  0  0  0  0  0  0  0  0  0
  1  2  1  0  0  0  0
  1 19  1  0  0  0  0
  1 20  1  0  0  0  0
  1 21  1  0  0  0  0
  2  3  1  0  0  0  0
  2 22  1  0  0  0  0
  2 23  1  0  0  0  0
  3  4  1  0  0  0  0
  3 24  1  0  0  0  0
  3 25  1  0  0  0  0
  4  5  1  0  0  0  0
  4 26  1  0  0  0  0
  5  6  2  0  0  0  0
  5  7  1  0  0  0  0
  7  8  1  0  0  0  0
  7 27  1  0  0  0  0
  7 28  1  0  0  0  0
  8 18  1  0  0  0  0
  8  9  2  0  0  0  0
  9 10  1  0  0  0  0
  9 29  1  0  0  0  0
 10 11  1  0  0  0  0
 11 12  1  0  0  0  0
 11 18  2  0  0  0  0
 12 16  1  0  0  0  0
 12 13  1  0  0  0  0
 13 14  1  0  0  0  0
 13 30  1  0  0  0  0
 13 31  1  0  0  0  0
 14 15  1  0  0  0  0
 14 32  1  0  0  0  0
 14 33  1  0  0  0  0
 15 16  1  0  0  0  0
 15 34  1  0  0  0  0
 15 35  1  0  0  0  0
 16 17  2  0  0  0  0
M  END
> <s_m_source_file>
AV-unprocessed.smi

> <i_m_source_file_index>
2723

> <i_lp_mmshare_version>
43012

> <i_f3d_flags>
0

> <s_epik_input>
W0NIM11bQ0gyXVtDSDJdW05IXUMoPU8pW0NIMl1jMVtjSF1zYyhuMSlOMltDSDJdW0NIMl1bQ0gyXUMyPU8=

> <s_epik_cmdline>
J2VwaWtfcHl0aG9uJywgJy1waCcsICc3LjAnLCAnLXRuJywgJzgnLCAnLW1hJywgJzIwMCcsICctbWV0YWxfYmluZGluZycsICctaW1hZScsICc8aW5maWxlLm1hZT4nLCAnLW9tYWUnLCAnPG91dGZpbGUubWFlPic=

> <r_lp_tautomer_probability>
1

> <r_epik_Ionization_Penalty>
2.96769e-05

> <r_epik_Ionization_Penalty_Charging>
0

> <r_epik_Ionization_Penalty_Neutral>
2.96769e-05

> <r_epik_State_Penalty>
-0

> <r_epik_Charging_Adjusted_Penalty>
0

> <i_epik_Tot_Q>
0

> <i_epik_Tot_abs_Q>
0

> <r_epik_Metal_State_Penalty>
-0

> <b_epik_Metal_Only>
0

> <s_lp_Force_Field>
OPLS_2005

> <r_lp_Energy>
15.8709

> <b_lp_Chiralities_Consistent>
1

> <s_lp_Variant>
AV-unprocessed.smi:2723-1

> <Gold.Version>
5.8.1

> <Gold.Id.Protein>
6NUR|6NUR_protein|mol2

> <Gold.PLP.Fitness>
48.2233

> <Gold.PLP.PLP>
-36.6742

> <Gold.PLP.part.hbond>
-3.7528

> <Gold.PLP.part.metal>
0.0000

> <Gold.PLP.part.buried>
-0.4700

> <Gold.PLP.part.nonpolar>
-31.6198

> <Gold.PLP.part.repulsive>
0.0905

> <Gold.PLP.ligand.clash>
0.0000

> <Gold.PLP.ligand.torsion>
0.2357

> <Gold.PLP.Chemscore.Hbond>
3.0000

> <Gold.PLP.Chemscore.CHOScore>
0.9974

> <Gold.PLP.Chemscore.Metal>
0.0000

> <Gold.Chemscore.Hbonds>
donor molecule, donor type, donor heavy atom, donor atom, acceptor molecule, acceptor atom, score
      L1  H     4    26       P1  7948  0.90
      P1  H  7997  8010       L1    17  1.00
      P1  H 10752 10765       L1     6  0.95
      L1  C     9    29       P1  7957  0.96

> <Gold.PLP.Chemscore.Internal.Correction>
0.0284

> <Gold.Rescore>
     Score         DG    S(hbond)    S(metal)    S(lipo)     H(rot)  DE(clash)    DE(int)     intcor
     16.24     -18.17       2.48        0.00      73.66       1.64       0.15       1.79       ----

> <Gold.Chemscore.Fitness>
16.2359

> <Gold.Chemscore.DG>
-18.1740

> <Gold.Chemscore.ZeroCoef>
-5.4800

> <Gold.Chemscore.Hbond>
2.4807

> <Gold.Chemscore.Metal>
0.0000

> <Gold.Chemscore.Lipo>
73.6597

> <Gold.Chemscore.Internal_Hbond>
0.0000

> <Gold.Chemscore.DEClash>
0.1517

> <Gold.Chemscore.DEInternal>
1.7865

> <Gold.Chemscore.Rot>
1.6444

> <Gold.Chemscore.Internal.Correction>
   9.000000E+99

> <Gold.Chemscore.Hbonds>
donor molecule, donor type, donor heavy atom, donor atom, acceptor molecule, acceptor atom, score
      L1  H     4    26       P1  7948  0.18
      P1  H  7997  8010       L1    17  0.54
      P1  H 10752 10765       L1     6  0.21

> <Gold.Chemscore.Hbond.Weighted>
-8.2854

> <Gold.Chemscore.Metal.Weighted>
-0.0000

> <Gold.Chemscore.Lipo.Weighted>
-8.6182

> <Gold.Chemscore.Internal_Hbond.Weighted>
0.0000

> <Gold.Chemscore.DEClash.Weighted>
0.1517

> <Gold.Chemscore.DEInternal.Weighted>
1.7865

> <Gold.Chemscore.Rot.Weighted>
4.2096

> <Gold.Chemscore.Internal.Correction.Weighted>
   9.000000E+99

> <Gold.Protein.RotatedTorsions>
[ 6907 6896 6895 6894 ] final   84.50 input  -60.11 | X-H torsion
[ 7974 7965 7964 7962 ] final   94.75 input  175.53 | X-H torsion
[ 8008 7997 7996 7995 ] final   44.07 input   59.86 | X-H torsion
[ 10167 10162 10161 10158 ] final   42.82 input  -65.29 | X-H torsion
[ 10718 10713 10712 10709 ] final  151.81 input   66.30 | X-H torsion
[ 10763 10752 10751 10750 ] final -141.10 input  -60.55 | X-H torsion
[ 11005 11000 10999 10996 ] final   83.98 input  -57.11 | X-H torsion

> <Gold.Protein.ActiveResidues>
 VAL166  LYS551  ARG553  GLY616  TRP617  ASP618  TYR619  PRO620  LYS621  CYS622 
 ASP623  PHE694  ASN695  SER759  ASP760  ASP761  ALA762  ILE779  LEU786  VAL792 
 PHE793  MET794  SER795  GLU796  ALA797  LYS798  CYS799  TRP800  GLU811  SER814 

> <Gold.Protein.RotatedAtoms>
  152.5353  134.2732  159.8979 H   0  0  0  0  0  0  0  0  0  0  0  0  # atno 6907 bound_to 6896
  151.2688  133.4259  159.2627 H   0  0  0  0  0  0  0  0  0  0  0  0  # atno 6908 bound_to 6896
  151.0386  134.9606  159.8206 H   0  0  0  0  0  0  0  0  0  0  0  0  # atno 6909 bound_to 6896
  145.4614  139.2287  143.2985 H   0  0  0  0  0  0  0  0  0  0  0  0  # atno 7974 bound_to 7965
  155.3132  140.3392  155.4243 H   0  0  0  0  0  0  0  0  0  0  0  0  # atno 8008 bound_to 7997
  156.1945  140.1710  156.8063 H   0  0  0  0  0  0  0  0  0  0  0  0  # atno 8009 bound_to 7997
  154.5482  140.0711  156.8608 H   0  0  0  0  0  0  0  0  0  0  0  0  # atno 8010 bound_to 7997
  140.3505  144.2356  150.6146 H   0  0  0  0  0  0  0  0  0  0  0  0  # atno 10167 bound_to 10162
  157.2659  131.0807  151.1633 H   0  0  0  0  0  0  0  0  0  0  0  0  # atno 10718 bound_to 10713
  154.8557  135.3534  154.5813 H   0  0  0  0  0  0  0  0  0  0  0  0  # atno 10763 bound_to 10752
  153.6424  135.6997  153.5242 H   0  0  0  0  0  0  0  0  0  0  0  0  # atno 10764 bound_to 10752
  153.2960  135.4220  155.1169 H   0  0  0  0  0  0  0  0  0  0  0  0  # atno 10765 bound_to 10752
  139.9014  134.8184  156.2383 H   0  0  0  0  0  0  0  0  0  0  0  0  # atno 11005 bound_to 11000
  146.2449  140.5383  142.8918 LP  0  0  0  0  0  0  0  0  0  0  0  0  # atno 17320 bound_to 7965
  144.8001  140.6196  143.6484 LP  0  0  0  0  0  0  0  0  0  0  0  0  # atno 17321 bound_to 7965
  140.5223  143.2263  151.8369 LP  0  0  0  0  0  0  0  0  0  0  0  0  # atno 17342 bound_to 10162
  139.4827  144.4822  151.9292 LP  0  0  0  0  0  0  0  0  0  0  0  0  # atno 17343 bound_to 10162
  157.3125  130.6896  149.6223 LP  0  0  0  0  0  0  0  0  0  0  0  0  # atno 17370 bound_to 10713
  155.9663  130.4359  150.5113 LP  0  0  0  0  0  0  0  0  0  0  0  0  # atno 17371 bound_to 10713
  141.0301  133.6993  156.1416 LP  0  0  0  0  0  0  0  0  0  0  0  0  # atno 17394 bound_to 11000
  140.7108  134.4463  157.5581 LP  0  0  0  0  0  0  0  0  0  0  0  0  # atno 17395 bound_to 11000

$$$$
