AV-unprocessed.smi:897|AV-procd|sdf|4082|dock9
  -GOLD-   22720 1573D 1   1.00000     0.00000
 Structure written by MMmdl.
 35 37  0  0  0  0  0  0  0  0  1 V2000
  152.1938  144.7641  159.0139 C   0  0  0  0  0  0  0  0  0  0  0  0
  152.3203  143.2653  159.1882 C   0  0  0  0  0  0  0  0  0  0  0  0
  153.2701  142.7155  160.0689 C   0  0  0  0  0  0  0  0  0  0  0  0
  153.3445  141.3135  160.1940 C   0  0  0  0  0  0  0  0  0  0  0  0
  154.3635  140.7081  161.1477 C   0  0  0  0  0  0  0  0  0  0  0  0
  152.4620  140.5119  159.4237 C   0  0  0  0  0  0  0  0  0  0  0  0
  152.5103  139.0539  159.5199 C   0  0  0  0  0  0  0  0  0  0  0  0
  152.5483  137.9000  159.5966 N   0  0  0  0  0  0  0  0  0  0  0  0
  151.5383  141.1632  158.5598 C   0  0  0  0  0  0  0  0  0  0  0  0
  150.6400  140.4126  157.7781 N   0  0  0  0  0  0  0  0  0  0  0  0
  151.1008  139.3656  156.8722 C   0  0  1  0  0  0  0  0  0  0  0  0
  149.9518  138.5931  156.2111 C   0  0  0  0  0  0  0  0  0  0  0  0
  150.2606  138.7784  154.7205 C   0  0  2  0  0  0  0  0  0  0  0  0
  151.5213  138.0174  154.2879 C   0  0  0  0  0  0  0  0  0  0  0  0
  152.6281  138.8641  154.9156 C   0  0  0  0  0  0  0  0  0  0  0  0
  151.8222  139.9476  155.6448 C   0  0  1  0  0  0  0  0  0  0  0  0
  150.7477  140.1084  154.7323 O   0  0  0  0  0  0  0  0  0  0  0  0
  151.4765  142.5124  158.4545 N   0  0  0  0  0  0  0  0  0  0  0  0
  152.8404  145.2995  159.7097 H   0  0  0  0  0  0  0  0  0  0  0  0
  151.1665  145.0826  159.1933 H   0  0  0  0  0  0  0  0  0  0  0  0
  152.4714  145.0516  157.9994 H   0  0  0  0  0  0  0  0  0  0  0  0
  153.9277  143.3569  160.6375 H   0  0  0  0  0  0  0  0  0  0  0  0
  155.0695  140.0795  160.6045 H   0  0  0  0  0  0  0  0  0  0  0  0
  153.8663  140.0992  161.9029 H   0  0  0  0  0  0  0  0  0  0  0  0
  154.9318  141.4815  161.6648 H   0  0  0  0  0  0  0  0  0  0  0  0
  149.6530  140.4560  157.9884 H   0  0  0  0  0  0  0  0  0  0  0  0
  151.7745  138.6979  157.4110 H   0  0  0  0  0  0  0  0  0  0  0  0
  149.9288  137.5434  156.5053 H   0  0  0  0  0  0  0  0  0  0  0  0
  148.9813  139.0314  156.4498 H   0  0  0  0  0  0  0  0  0  0  0  0
  149.4008  138.6205  154.0690 H   0  0  0  0  0  0  0  0  0  0  0  0
  151.5231  136.9858  154.6414 H   0  0  0  0  0  0  0  0  0  0  0  0
  151.6175  138.0080  153.2016 H   0  0  0  0  0  0  0  0  0  0  0  0
  153.2683  138.2945  155.5903 H   0  0  0  0  0  0  0  0  0  0  0  0
  153.2567  139.3060  154.1416 H   0  0  0  0  0  0  0  0  0  0  0  0
  152.3927  140.8562  155.8417 H   0  0  0  0  0  0  0  0  0  0  0  0
  1  2  1  0  0  0  0
  1 19  1  0  0  0  0
  1 20  1  0  0  0  0
  1 21  1  0  0  0  0
  2 18  1  0  0  0  0
  2  3  2  0  0  0  0
  3  4  1  0  0  0  0
  3 22  1  0  0  0  0
  4  5  1  0  0  0  0
  4  6  2  0  0  0  0
  5 23  1  0  0  0  0
  5 24  1  0  0  0  0
  5 25  1  0  0  0  0
  6  7  1  0  0  0  0
  6  9  1  0  0  0  0
  7  8  3  0  0  0  0
  9 10  1  0  0  0  0
  9 18  2  0  0  0  0
 10 11  1  0  0  0  0
 10 26  1  0  0  0  0
 11 16  1  0  0  0  0
 11 12  1  0  0  0  0
 11 27  1  0  0  0  0
 12 13  1  0  0  0  0
 12 28  1  0  0  0  0
 12 29  1  0  0  0  0
 13 17  1  0  0  0  0
 13 14  1  0  0  0  0
 13 30  1  0  0  0  0
 14 15  1  0  0  0  0
 14 31  1  0  0  0  0
 14 32  1  0  0  0  0
 15 16  1  0  0  0  0
 15 33  1  0  0  0  0
 15 34  1  0  0  0  0
 16 17  1  0  0  0  0
 16 35  1  0  0  0  0
M  END
> <s_m_source_file>
AV-unprocessed.smi

> <i_m_source_file_index>
897

> <i_lp_mmshare_version>
43012

> <i_f3d_flags>
0

> <s_epik_input>
W0NIM11jMVtjSF1jKFtDSDNdKWMoQyNOKWMobjEpW05IXVtDQEhdKFtDSDJdW0NAQEhdMjMpW0NAQEhdKE8zKVtDSDJdW0NIMl0y

> <s_epik_cmdline>
J2VwaWtfcHl0aG9uJywgJy1waCcsICc3LjAnLCAnLXRuJywgJzgnLCAnLW1hJywgJzIwMCcsICctbWV0YWxfYmluZGluZycsICctaW1hZScsICc8aW5maWxlLm1hZT4nLCAnLW9tYWUnLCAnPG91dGZpbGUubWFlPic=

> <r_lp_tautomer_probability>
1

> <r_epik_Ionization_Penalty>
0.000502654

> <r_epik_Ionization_Penalty_Charging>
0

> <r_epik_Ionization_Penalty_Neutral>
0.000502654

> <r_epik_State_Penalty>
-0

> <r_epik_Charging_Adjusted_Penalty>
0

> <i_epik_Tot_Q>
0

> <i_epik_Tot_abs_Q>
0

> <r_epik_Metal_State_Penalty>
-0

> <b_epik_Metal_Only>
0

> <s_lp_Force_Field>
OPLS_2005

> <r_lp_Energy>
43.6408

> <b_lp_Chiralities_Consistent>
1

> <s_lp_Variant>
AV-unprocessed.smi:897-4

> <Gold.Version>
5.8.1

> <Gold.Id.Protein>
6NUR|6NUR_protein|mol2

> <Gold.PLP.Fitness>
42.3930

> <Gold.PLP.PLP>
-40.5118

> <Gold.PLP.part.hbond>
-1.0000

> <Gold.PLP.part.metal>
0.0000

> <Gold.PLP.part.buried>
-4.9843

> <Gold.PLP.part.nonpolar>
-34.9829

> <Gold.PLP.part.repulsive>
0.1872

> <Gold.PLP.ligand.clash>
0.0000

> <Gold.PLP.ligand.torsion>
0.5695

> <Gold.PLP.Chemscore.Hbond>
1.0000

> <Gold.PLP.Chemscore.CHOScore>
0.0000

> <Gold.PLP.Chemscore.Metal>
0.0000

> <Gold.Chemscore.Hbonds>
donor molecule, donor type, donor heavy atom, donor atom, acceptor molecule, acceptor atom, score
      P1  H  7989  7998       L1    17  0.85

> <Gold.PLP.Chemscore.Internal.Correction>
0.0202

> <Gold.Rescore>
     Score         DG    S(hbond)    S(metal)    S(lipo)     H(rot)  DE(clash)    DE(int)     intcor
     16.99     -18.23       0.97        0.00     103.09       1.00       0.04       1.20       ----

> <Gold.Chemscore.Fitness>
16.9943

> <Gold.Chemscore.DG>
-18.2324

> <Gold.Chemscore.ZeroCoef>
-5.4800

> <Gold.Chemscore.Hbond>
0.9732

> <Gold.Chemscore.Metal>
0.0000

> <Gold.Chemscore.Lipo>
103.0925

> <Gold.Chemscore.Internal_Hbond>
0.0000

> <Gold.Chemscore.DEClash>
0.0407

> <Gold.Chemscore.DEInternal>
1.1973

> <Gold.Chemscore.Rot>
1.0000

> <Gold.Chemscore.Internal.Correction>
   9.000000E+99

> <Gold.Chemscore.Hbonds>
donor molecule, donor type, donor heavy atom, donor atom, acceptor molecule, acceptor atom, score
      P1  H  7989  7998       L1    17  0.15

> <Gold.Chemscore.Hbond.Weighted>
-3.2506

> <Gold.Chemscore.Metal.Weighted>
-0.0000

> <Gold.Chemscore.Lipo.Weighted>
-12.0618

> <Gold.Chemscore.Internal_Hbond.Weighted>
0.0000

> <Gold.Chemscore.DEClash.Weighted>
0.0407

> <Gold.Chemscore.DEInternal.Weighted>
1.1973

> <Gold.Chemscore.Rot.Weighted>
2.5600

> <Gold.Chemscore.Internal.Correction.Weighted>
   9.000000E+99

> <Gold.Protein.RotatedTorsions>
[ 6907 6896 6895 6894 ] final  -73.98 input  -60.11 | X-H torsion
[ 7974 7965 7964 7962 ] final  164.71 input  175.53 | X-H torsion
[ 8008 7997 7996 7995 ] final   86.90 input   59.86 | X-H torsion
[ 10167 10162 10161 10158 ] final -156.44 input  -65.29 | X-H torsion
[ 10718 10713 10712 10709 ] final  165.66 input   66.30 | X-H torsion
[ 10763 10752 10751 10750 ] final  166.96 input  -60.55 | X-H torsion
[ 11005 11000 10999 10996 ] final   -5.10 input  -57.11 | X-H torsion

> <Gold.Protein.ActiveResidues>
 VAL166  LYS551  ARG553  GLY616  TRP617  ASP618  TYR619  PRO620  LYS621  CYS622 
 ASP623  PHE694  ASN695  SER759  ASP760  ASP761  ALA762  ILE779  LEU786  VAL792 
 PHE793  MET794  SER795  GLU796  ALA797  LYS798  CYS799  TRP800  GLU811  SER814 

> <Gold.Protein.RotatedAtoms>
  150.7110  134.4936  159.5527 H   0  0  0  0  0  0  0  0  0  0  0  0  # atno 6907 bound_to 6896
  152.2548  134.8092  160.0449 H   0  0  0  0  0  0  0  0  0  0  0  0  # atno 6908 bound_to 6896
  151.8827  133.3463  159.3808 H   0  0  0  0  0  0  0  0  0  0  0  0  # atno 6909 bound_to 6896
  144.7533  139.8366  143.6358 H   0  0  0  0  0  0  0  0  0  0  0  0  # atno 7974 bound_to 7965
  155.9686  140.3387  155.6555 H   0  0  0  0  0  0  0  0  0  0  0  0  # atno 8008 bound_to 7997
  155.6704  140.0726  157.2540 H   0  0  0  0  0  0  0  0  0  0  0  0  # atno 8009 bound_to 7997
  154.4161  140.1692  156.1860 H   0  0  0  0  0  0  0  0  0  0  0  0  # atno 8010 bound_to 7997
  139.6850  143.9517  152.2356 H   0  0  0  0  0  0  0  0  0  0  0  0  # atno 10167 bound_to 10162
  157.0770  131.0382  151.2590 H   0  0  0  0  0  0  0  0  0  0  0  0  # atno 10718 bound_to 10713
  154.3467  135.2753  155.2394 H   0  0  0  0  0  0  0  0  0  0  0  0  # atno 10763 bound_to 10752
  154.4641  135.5899  153.6279 H   0  0  0  0  0  0  0  0  0  0  0  0  # atno 10764 bound_to 10752
  152.9853  135.6072  154.3673 H   0  0  0  0  0  0  0  0  0  0  0  0  # atno 10765 bound_to 10752
  140.6875  133.9100  155.8596 H   0  0  0  0  0  0  0  0  0  0  0  0  # atno 11005 bound_to 11000
  146.1512  139.4596  143.0047 LP  0  0  0  0  0  0  0  0  0  0  0  0  # atno 17320 bound_to 7965
  145.6867  141.0176  143.1577 LP  0  0  0  0  0  0  0  0  0  0  0  0  # atno 17321 bound_to 7965
  139.9317  144.6737  150.8356 LP  0  0  0  0  0  0  0  0  0  0  0  0  # atno 17342 bound_to 10162
  140.7664  143.3304  151.2423 LP  0  0  0  0  0  0  0  0  0  0  0  0  # atno 17343 bound_to 10162
  157.4831  130.7777  149.7433 LP  0  0  0  0  0  0  0  0  0  0  0  0  # atno 17370 bound_to 10713
  155.9934  130.3924  150.2901 LP  0  0  0  0  0  0  0  0  0  0  0  0  # atno 17371 bound_to 10713
  141.0268  134.0812  157.4059 LP  0  0  0  0  0  0  0  0  0  0  0  0  # atno 17394 bound_to 11000
  139.8933  135.0130  156.6892 LP  0  0  0  0  0  0  0  0  0  0  0  0  # atno 17395 bound_to 11000

$$$$
