AV-unprocessed.smi:1828|AV-procd|sdf|7427|dock3
  -GOLD-   22720 9113D 1   1.00000     0.00000
 Structure written by MMmdl.
 40 42  0  0  0  0  0  0  0  0  2 V2000
  151.2879  136.3777  154.5635 O   0  0  0  0  0  0  0  0  0  0  0  0
  151.7389  137.6736  154.2379 C   0  0  0  0  0  0  0  0  0  0  0  0
  150.6463  138.6890  154.3059 C   0  0  0  0  0  0  0  0  0  0  0  0
  149.4871  138.6646  153.5899 N   0  3  0  0  0  0  0  0  0  0  0  0
  148.7026  139.7694  153.9229 C   0  0  0  0  0  0  0  0  0  0  0  0
  147.4515  140.1691  153.4631 C   0  0  0  0  0  0  0  0  0  0  0  0
  146.9262  141.3579  154.0107 C   0  0  0  0  0  0  0  0  0  0  0  0
  147.6394  142.0998  154.9745 C   0  0  0  0  0  0  0  0  0  0  0  0
  148.9070  141.6844  155.4328 C   0  0  0  0  0  0  0  0  0  0  0  0
  149.4190  140.5062  154.8887 C   0  0  0  0  0  0  0  0  0  0  0  0
  150.6113  139.8013  155.0950 N   0  0  0  0  0  0  0  0  0  0  0  0
  151.5984  140.3030  156.0654 C   0  0  0  0  0  0  0  0  0  0  0  0
  151.3540  139.7868  157.4976 C   0  0  1  0  0  0  0  0  0  0  0  0
  151.8538  138.4706  157.6342 O   0  0  0  0  0  0  0  0  0  0  0  0
  151.9405  140.7369  158.5301 C   0  0  0  0  0  0  0  0  0  0  0  0
  152.8326  140.2482  159.5076 C   0  0  0  0  0  0  0  0  0  0  0  0
  153.3709  141.1188  160.4737 C   0  0  0  0  0  0  0  0  0  0  0  0
  153.0194  142.4818  160.4679 C   0  0  0  0  0  0  0  0  0  0  0  0
  152.1267  142.9841  159.4977 C   0  0  0  0  0  0  0  0  0  0  0  0
  151.7590  144.4604  159.5140 C   0  0  0  0  0  0  0  0  0  0  0  0
  152.1251  145.0549  160.6502 F   0  0  0  0  0  0  0  0  0  0  0  0
  152.3630  145.0780  158.4993 F   0  0  0  0  0  0  0  0  0  0  0  0
  150.4401  144.5939  159.3742 F   0  0  0  0  0  0  0  0  0  0  0  0
  151.5880  142.1049  158.5320 C   0  0  0  0  0  0  0  0  0  0  0  0
  150.9878  136.3786  155.4597 H   0  0  0  0  0  0  0  0  0  0  0  0
  152.5406  137.9560  154.9201 H   0  0  0  0  0  0  0  0  0  0  0  0
  152.1616  137.6599  153.2329 H   0  0  0  0  0  0  0  0  0  0  0  0
  146.9039  139.6032  152.7237 H   0  0  0  0  0  0  0  0  0  0  0  0
  145.9581  141.7086  153.6836 H   0  0  0  0  0  0  0  0  0  0  0  0
  147.2067  143.0072  155.3699 H   0  0  0  0  0  0  0  0  0  0  0  0
  149.4462  142.2647  156.1668 H   0  0  0  0  0  0  0  0  0  0  0  0
  152.6022  140.0552  155.7202 H   0  0  0  0  0  0  0  0  0  0  0  0
  151.5376  141.3918  156.0504 H   0  0  0  0  0  0  0  0  0  0  0  0
  150.2784  139.7248  157.6680 H   0  0  0  0  0  0  0  0  0  0  0  0
  152.7856  138.5190  157.7852 H   0  0  0  0  0  0  0  0  0  0  0  0
  153.1060  139.2032  159.5223 H   0  0  0  0  0  0  0  0  0  0  0  0
  154.0530  140.7405  161.2209 H   0  0  0  0  0  0  0  0  0  0  0  0
  153.4352  143.1448  161.2125 H   0  0  0  0  0  0  0  0  0  0  0  0
  150.8982  142.4745  157.7877 H   0  0  0  0  0  0  0  0  0  0  0  0
  149.2507  137.9397  152.9247 H   0  0  0  0  0  0  0  0  0  0  0  0
  1  2  1  0  0  0  0
  1 25  1  0  0  0  0
  2  3  1  0  0  0  0
  2 26  1  0  0  0  0
  2 27  1  0  0  0  0
  3 11  1  0  0  0  0
  3  4  2  0  0  0  0
  4  5  1  0  0  0  0
  4 40  1  0  0  0  0
  5 10  2  0  0  0  0
  5  6  1  0  0  0  0
  6  7  2  0  0  0  0
  6 28  1  0  0  0  0
  7  8  1  0  0  0  0
  7 29  1  0  0  0  0
  8  9  2  0  0  0  0
  8 30  1  0  0  0  0
  9 10  1  0  0  0  0
  9 31  1  0  0  0  0
 10 11  1  0  0  0  0
 11 12  1  0  0  0  0
 12 13  1  0  0  0  0
 12 32  1  0  0  0  0
 12 33  1  0  0  0  0
 13 14  1  0  0  0  0
 13 15  1  0  0  0  0
 13 34  1  0  0  0  0
 14 35  1  0  0  0  0
 15 24  1  0  0  0  0
 15 16  2  0  0  0  0
 16 17  1  0  0  0  0
 16 36  1  0  0  0  0
 17 18  2  0  0  0  0
 17 37  1  0  0  0  0
 18 19  1  0  0  0  0
 18 38  1  0  0  0  0
 19 20  1  0  0  0  0
 19 24  2  0  0  0  0
 20 21  1  0  0  0  0
 20 22  1  0  0  0  0
 20 23  1  0  0  0  0
 24 39  1  0  0  0  0
M  CHG  1   4   1
M  END
> <s_m_source_file>
AV-unprocessed.smi

> <i_m_source_file_index>
1828

> <i_lp_mmshare_version>
43012

> <i_f3d_flags>
0

> <s_epik_input>
W2NIXTFbY0hdW2NIXVtjSF1jKGMxMiluKGMobjIpW0NIMl1bT0hdKVtDSDJdW0NASF0oW09IXSljM1tjSF1bY0hdW2NIXWMoQyhGKShGKUYpW2NIXTM=

> <s_epik_cmdline>
J2VwaWtfcHl0aG9uJywgJy1waCcsICc3LjAnLCAnLXRuJywgJzgnLCAnLW1hJywgJzIwMCcsICctbWV0YWxfYmluZGluZycsICctaW1hZScsICc8aW5maWxlLm1hZT4nLCAnLW9tYWUnLCAnPG91dGZpbGUubWFlPic=

> <r_epik_Ionization_Penalty>
1.35643

> <r_epik_Ionization_Penalty_Charging>
1.35557

> <r_epik_Ionization_Penalty_Neutral>
0.000856502

> <r_epik_State_Penalty>
1.43401

> <r_epik_Charging_Adjusted_Penalty>
2.78958

> <i_epik_Tot_Q>
1

> <i_epik_Tot_abs_Q>
1

> <r_epik_Metal_State_Penalty>
5.47166

> <b_epik_Metal_Only>
0

> <s_lp_Force_Field>
OPLS_2005

> <r_lp_Energy>
16.2288

> <b_lp_Chiralities_Consistent>
1

> <s_lp_Variant>
AV-unprocessed.smi:1828-4

> <Gold.Version>
5.8.1

> <Gold.Id.Protein>
6NUR|6NUR_protein|mol2

> <Gold.PLP.Fitness>
65.1899

> <Gold.PLP.PLP>
-59.1280

> <Gold.PLP.part.hbond>
-4.0000

> <Gold.PLP.part.metal>
0.0000

> <Gold.PLP.part.buried>
-1.4550

> <Gold.PLP.part.nonpolar>
-53.1502

> <Gold.PLP.part.repulsive>
0.0832

> <Gold.PLP.ligand.clash>
0.7194

> <Gold.PLP.ligand.torsion>
1.1270

> <Gold.PLP.Chemscore.Hbond>
3.0000

> <Gold.PLP.Chemscore.CHOScore>
0.0000

> <Gold.PLP.Chemscore.Metal>
0.0000

> <Gold.Chemscore.Hbonds>
donor molecule, donor type, donor heavy atom, donor atom, acceptor molecule, acceptor atom, score
      L1  H     4    40       P1  7948  2.00
      P1  H 10752 10765       L1     1  0.80

> <Gold.PLP.Chemscore.Internal.Correction>
0.0352

> <Gold.Rescore>
     Score         DG    S(hbond)    S(metal)    S(lipo)     H(rot)  DE(clash)    DE(int)     intcor
     16.33     -17.42       1.59        0.00     121.86       2.98       0.22       0.87       ----

> <Gold.Chemscore.Fitness>
16.3329

> <Gold.Chemscore.DG>
-17.4241

> <Gold.Chemscore.ZeroCoef>
-5.4800

> <Gold.Chemscore.Hbond>
1.5930

> <Gold.Chemscore.Metal>
0.0000

> <Gold.Chemscore.Lipo>
121.8610

> <Gold.Chemscore.Internal_Hbond>
0.0000

> <Gold.Chemscore.DEClash>
0.2236

> <Gold.Chemscore.DEInternal>
0.8676

> <Gold.Chemscore.Rot>
2.9822

> <Gold.Chemscore.Internal.Correction>
   9.000000E+99

> <Gold.Chemscore.Hbonds>
donor molecule, donor type, donor heavy atom, donor atom, acceptor molecule, acceptor atom, score
      L1  H     4    40       P1  7948  0.93
      P1  H 10752 10765       L1     1  0.07

> <Gold.Chemscore.Hbond.Weighted>
-5.3207

> <Gold.Chemscore.Metal.Weighted>
-0.0000

> <Gold.Chemscore.Lipo.Weighted>
-14.2577

> <Gold.Chemscore.Internal_Hbond.Weighted>
0.0000

> <Gold.Chemscore.DEClash.Weighted>
0.2236

> <Gold.Chemscore.DEInternal.Weighted>
0.8676

> <Gold.Chemscore.Rot.Weighted>
7.6343

> <Gold.Chemscore.Internal.Correction.Weighted>
   9.000000E+99

> <Gold.Protein.RotatedTorsions>
[ 6907 6896 6895 6894 ] final  -96.83 input  -60.11 | X-H torsion
[ 7974 7965 7964 7962 ] final  128.38 input  175.53 | X-H torsion
[ 8008 7997 7996 7995 ] final  -53.91 input   59.86 | X-H torsion
[ 10167 10162 10161 10158 ] final   79.91 input  -65.29 | X-H torsion
[ 10718 10713 10712 10709 ] final   13.08 input   66.30 | X-H torsion
[ 10763 10752 10751 10750 ] final  178.02 input  -60.55 | X-H torsion
[ 11005 11000 10999 10996 ] final   87.23 input  -57.11 | X-H torsion

> <Gold.Protein.ActiveResidues>
 VAL166  LYS551  ARG553  GLY616  TRP617  ASP618  TYR619  PRO620  LYS621  CYS622 
 ASP623  PHE694  ASN695  SER759  ASP760  ASP761  ALA762  ILE779  LEU786  VAL792 
 PHE793  MET794  SER795  GLU796  ALA797  LYS798  CYS799  TRP800  GLU811  SER814 

> <Gold.Protein.RotatedAtoms>
  150.6999  134.1443  159.4116 H   0  0  0  0  0  0  0  0  0  0  0  0  # atno 6907 bound_to 6896
  151.9427  135.0204  160.0546 H   0  0  0  0  0  0  0  0  0  0  0  0  # atno 6908 bound_to 6896
  152.2080  133.4855  159.5131 H   0  0  0  0  0  0  0  0  0  0  0  0  # atno 6909 bound_to 6896
  145.0402  139.3970  143.5106 H   0  0  0  0  0  0  0  0  0  0  0  0  # atno 7974 bound_to 7965
  154.4147  140.1188  156.5231 H   0  0  0  0  0  0  0  0  0  0  0  0  # atno 8008 bound_to 7997
  155.6682  140.3496  155.4789 H   0  0  0  0  0  0  0  0  0  0  0  0  # atno 8009 bound_to 7997
  155.9655  140.1131  157.0848 H   0  0  0  0  0  0  0  0  0  0  0  0  # atno 8010 bound_to 7997
  139.9553  144.5998  150.8122 H   0  0  0  0  0  0  0  0  0  0  0  0  # atno 10167 bound_to 10162
  157.0195  130.6149  149.5719 H   0  0  0  0  0  0  0  0  0  0  0  0  # atno 10718 bound_to 10713
  154.5022  135.2784  155.1411 H   0  0  0  0  0  0  0  0  0  0  0  0  # atno 10763 bound_to 10752
  154.3040  135.6242  153.5440 H   0  0  0  0  0  0  0  0  0  0  0  0  # atno 10764 bound_to 10752
  152.9904  135.5704  154.5467 H   0  0  0  0  0  0  0  0  0  0  0  0  # atno 10765 bound_to 10752
  139.8924  134.8408  156.2831 H   0  0  0  0  0  0  0  0  0  0  0  0  # atno 11005 bound_to 11000
  146.3508  139.9998  142.8677 LP  0  0  0  0  0  0  0  0  0  0  0  0  # atno 17320 bound_to 7965
  145.1658  140.9696  143.4350 LP  0  0  0  0  0  0  0  0  0  0  0  0  # atno 17321 bound_to 7965
  140.7570  143.3078  151.2920 LP  0  0  0  0  0  0  0  0  0  0  0  0  # atno 17342 bound_to 10162
  139.6596  144.0213  152.2683 LP  0  0  0  0  0  0  0  0  0  0  0  0  # atno 17343 bound_to 10162
  156.0107  130.5198  150.7980 LP  0  0  0  0  0  0  0  0  0  0  0  0  # atno 17370 bound_to 10713
  157.5260  131.0934  151.0017 LP  0  0  0  0  0  0  0  0  0  0  0  0  # atno 17371 bound_to 10713
  141.0025  133.7143  156.0983 LP  0  0  0  0  0  0  0  0  0  0  0  0  # atno 17394 bound_to 11000
  140.7478  134.4079  157.5546 LP  0  0  0  0  0  0  0  0  0  0  0  0  # atno 17395 bound_to 11000

$$$$
