AV-unprocessed.smi:3082|AV-procd|sdf|11743|dock2
  -GOLD-   2272017133D 1   1.00000     0.00000
 Structure written by MMmdl.
 28 29  0  0  0  0  0  0  0  0  2 V2000
  153.7059  141.9997  161.6766 C   0  0  0  0  0  0  0  0  0  0  0  0
  153.1501  141.6503  160.3262 C   0  0  0  0  0  0  0  0  0  0  0  0
  153.5441  140.5864  159.4665 C   0  0  0  0  0  0  0  0  0  0  0  0
  152.8488  140.5513  158.3418 N   0  0  0  0  0  0  0  0  0  0  0  0
  151.9887  141.5893  158.4400 N   0  0  0  0  0  0  0  0  0  0  0  0
  151.0468  141.8672  157.3660 C   0  0  1  0  0  0  0  0  0  0  0  0
  151.1126  140.7937  156.2609 C   0  0  0  0  0  0  0  0  0  0  0  0
  150.0923  141.1040  155.1549 C   0  0  0  0  0  0  0  0  0  0  0  0
  148.6785  141.2593  155.7400 C   0  0  0  0  0  0  0  0  0  0  0  0
  148.6600  142.2925  156.7985 N   0  3  0  0  0  0  0  0  0  0  0  0
  149.6050  142.0072  157.9003 C   0  0  0  0  0  0  0  0  0  0  0  0
  152.1521  142.2697  159.6286 C   0  0  0  0  0  0  0  0  0  0  0  0
  154.5179  141.3323  161.9667 H   0  0  0  0  0  0  0  0  0  0  0  0
  152.9442  141.9341  162.4538 H   0  0  0  0  0  0  0  0  0  0  0  0
  154.1024  143.0150  161.6977 H   0  0  0  0  0  0  0  0  0  0  0  0
  154.3098  139.8416  159.6264 H   0  0  0  0  0  0  0  0  0  0  0  0
  151.3375  142.8227  156.9254 H   0  0  0  0  0  0  0  0  0  0  0  0
  152.1172  140.7461  155.8390 H   0  0  0  0  0  0  0  0  0  0  0  0
  150.9027  139.8073  156.6770 H   0  0  0  0  0  0  0  0  0  0  0  0
  150.3790  142.0211  154.6385 H   0  0  0  0  0  0  0  0  0  0  0  0
  150.1015  140.3115  154.4062 H   0  0  0  0  0  0  0  0  0  0  0  0
  147.9734  141.5393  154.9570 H   0  0  0  0  0  0  0  0  0  0  0  0
  148.3336  140.3119  156.1568 H   0  0  0  0  0  0  0  0  0  0  0  0
  148.9067  143.1805  156.3855 H   0  0  0  0  0  0  0  0  0  0  0  0
  149.2863  141.0950  158.4069 H   0  0  0  0  0  0  0  0  0  0  0  0
  149.5474  142.8140  158.6316 H   0  0  0  0  0  0  0  0  0  0  0  0
  151.5500  143.1306  159.8799 H   0  0  0  0  0  0  0  0  0  0  0  0
  147.7258  142.3573  157.1773 H   0  0  0  0  0  0  0  0  0  0  0  0
  1  2  1  0  0  0  0
  1 13  1  0  0  0  0
  1 14  1  0  0  0  0
  1 15  1  0  0  0  0
  2 12  2  0  0  0  0
  2  3  1  0  0  0  0
  3  4  2  0  0  0  0
  3 16  1  0  0  0  0
  4  5  1  0  0  0  0
  5  6  1  0  0  0  0
  5 12  1  0  0  0  0
  6 11  1  0  0  0  0
  6  7  1  0  0  0  0
  6 17  1  0  0  0  0
  7  8  1  0  0  0  0
  7 18  1  0  0  0  0
  7 19  1  0  0  0  0
  8  9  1  0  0  0  0
  8 20  1  0  0  0  0
  8 21  1  0  0  0  0
  9 10  1  0  0  0  0
  9 22  1  0  0  0  0
  9 23  1  0  0  0  0
 10 11  1  0  0  0  0
 10 24  1  0  0  0  0
 10 28  1  0  0  0  0
 11 25  1  0  0  0  0
 11 26  1  0  0  0  0
 12 27  1  0  0  0  0
M  CHG  1  10   1
M  END
> <s_m_source_file>
AV-unprocessed.smi

> <i_m_source_file_index>
3082

> <i_lp_mmshare_version>
43012

> <i_f3d_flags>
0

> <s_epik_input>
W0NIM11jMVtjSF1ubihbY0hdMSlbQ0BASF0yW0NIMl1bQ0gyXVtDSDJdW05IXVtDSDJdMg==

> <s_epik_cmdline>
J2VwaWtfcHl0aG9uJywgJy1waCcsICc3LjAnLCAnLXRuJywgJzgnLCAnLW1hJywgJzIwMCcsICctbWV0YWxfYmluZGluZycsICctaW1hZScsICc8aW5maWxlLm1hZT4nLCAnLW9tYWUnLCAnPG91dGZpbGUubWFlPic=

> <r_lp_tautomer_probability>
1

> <r_epik_Ionization_Penalty>
0.000667973

> <r_epik_Ionization_Penalty_Charging>
0.000651447

> <r_epik_Ionization_Penalty_Neutral>
1.65255e-05

> <r_epik_State_Penalty>
-0

> <r_epik_Charging_Adjusted_Penalty>
0.000651447

> <i_epik_Tot_Q>
1

> <i_epik_Tot_abs_Q>
1

> <r_epik_Metal_State_Penalty>
-0

> <b_epik_Metal_Only>
0

> <s_lp_Force_Field>
OPLS_2005

> <r_lp_Energy>
15.6496

> <b_lp_Chiralities_Consistent>
1

> <s_lp_Variant>
AV-unprocessed.smi:3082-2

> <Gold.Version>
5.8.1

> <Gold.Id.Protein>
6NUR|6NUR_protein|mol2

> <Gold.PLP.Fitness>
33.1605

> <Gold.PLP.PLP>
-26.1317

> <Gold.PLP.part.hbond>
-1.8641

> <Gold.PLP.part.metal>
0.0000

> <Gold.PLP.part.buried>
-1.1197

> <Gold.PLP.part.nonpolar>
-22.2765

> <Gold.PLP.part.repulsive>
0.0021

> <Gold.PLP.ligand.clash>
0.0000

> <Gold.PLP.ligand.torsion>
0.0990

> <Gold.PLP.Chemscore.Hbond>
2.4030

> <Gold.PLP.Chemscore.CHOScore>
0.0000

> <Gold.PLP.Chemscore.Metal>
0.0000

> <Gold.Chemscore.Hbonds>
donor molecule, donor type, donor heavy atom, donor atom, acceptor molecule, acceptor atom, score
      L1  H    10    24       P1  8028  2.00
      P1  H  7997  8009       L1     4  0.39

> <Gold.PLP.Chemscore.Internal.Correction>
0.0179

> <Gold.Rescore>
     Score         DG    S(hbond)    S(metal)    S(lipo)     H(rot)  DE(clash)    DE(int)     intcor
     14.59     -14.66       1.03        0.00      70.91       1.00       0.06       0.01       ----

> <Gold.Chemscore.Fitness>
14.5883

> <Gold.Chemscore.DG>
-14.6568

> <Gold.Chemscore.ZeroCoef>
-5.4800

> <Gold.Chemscore.Hbond>
1.0301

> <Gold.Chemscore.Metal>
0.0000

> <Gold.Chemscore.Lipo>
70.9067

> <Gold.Chemscore.Internal_Hbond>
0.0000

> <Gold.Chemscore.DEClash>
0.0564

> <Gold.Chemscore.DEInternal>
0.0120

> <Gold.Chemscore.Rot>
1.0000

> <Gold.Chemscore.Internal.Correction>
   9.000000E+99

> <Gold.Chemscore.Hbonds>
donor molecule, donor type, donor heavy atom, donor atom, acceptor molecule, acceptor atom, score
      L1  H    10    24       P1  8028  0.98
      P1  H  7997  8009       L1     4  0.10

> <Gold.Chemscore.Hbond.Weighted>
-3.4407

> <Gold.Chemscore.Metal.Weighted>
-0.0000

> <Gold.Chemscore.Lipo.Weighted>
-8.2961

> <Gold.Chemscore.Internal_Hbond.Weighted>
0.0000

> <Gold.Chemscore.DEClash.Weighted>
0.0564

> <Gold.Chemscore.DEInternal.Weighted>
0.0120

> <Gold.Chemscore.Rot.Weighted>
2.5600

> <Gold.Chemscore.Internal.Correction.Weighted>
   9.000000E+99

> <Gold.Protein.RotatedTorsions>
[ 6907 6896 6895 6894 ] final -139.37 input  -60.11 | X-H torsion
[ 7974 7965 7964 7962 ] final  -24.97 input  175.53 | X-H torsion
[ 8008 7997 7996 7995 ] final  164.61 input   59.86 | X-H torsion
[ 10167 10162 10161 10158 ] final  -10.48 input  -65.29 | X-H torsion
[ 10718 10713 10712 10709 ] final -173.52 input   66.30 | X-H torsion
[ 10763 10752 10751 10750 ] final   25.95 input  -60.55 | X-H torsion
[ 11005 11000 10999 10996 ] final   54.66 input  -57.11 | X-H torsion

> <Gold.Protein.ActiveResidues>
 VAL166  LYS551  ARG553  GLY616  TRP617  ASP618  TYR619  PRO620  LYS621  CYS622 
 ASP623  PHE694  ASN695  SER759  ASP760  ASP761  ALA762  ILE779  LEU786  VAL792 
 PHE793  MET794  SER795  GLU796  ALA797  LYS798  CYS799  TRP800  GLU811  SER814 

> <Gold.Protein.RotatedAtoms>
  151.0469  133.5658  159.2645 H   0  0  0  0  0  0  0  0  0  0  0  0  # atno 6907 bound_to 6896
  151.2683  135.0675  159.9134 H   0  0  0  0  0  0  0  0  0  0  0  0  # atno 6908 bound_to 6896
  152.5375  134.0203  159.8032 H   0  0  0  0  0  0  0  0  0  0  0  0  # atno 6909 bound_to 6896
  146.1521  140.4824  142.8607 H   0  0  0  0  0  0  0  0  0  0  0  0  # atno 7974 bound_to 7965
  156.1866  140.1692  156.8173 H   0  0  0  0  0  0  0  0  0  0  0  0  # atno 8008 bound_to 7997
  154.5422  140.0734  156.8561 H   0  0  0  0  0  0  0  0  0  0  0  0  # atno 8009 bound_to 7997
  155.3193  140.3372  155.4244 H   0  0  0  0  0  0  0  0  0  0  0  0  # atno 8010 bound_to 7997
  140.7115  143.5743  150.9059 H   0  0  0  0  0  0  0  0  0  0  0  0  # atno 10167 bound_to 10162
  156.7716  130.9450  151.3120 H   0  0  0  0  0  0  0  0  0  0  0  0  # atno 10718 bound_to 10713
  153.0656  135.6571  154.0362 H   0  0  0  0  0  0  0  0  0  0  0  0  # atno 10763 bound_to 10752
  154.0020  135.2936  155.3403 H   0  0  0  0  0  0  0  0  0  0  0  0  # atno 10764 bound_to 10752
  154.7012  135.5243  153.8599 H   0  0  0  0  0  0  0  0  0  0  0  0  # atno 10765 bound_to 10752
  140.0669  134.5524  155.9090 H   0  0  0  0  0  0  0  0  0  0  0  0  # atno 11005 bound_to 11000
  144.7916  140.6043  143.6537 LP  0  0  0  0  0  0  0  0  0  0  0  0  # atno 17320 bound_to 7965
  145.4799  139.1496  143.3768 LP  0  0  0  0  0  0  0  0  0  0  0  0  # atno 17321 bound_to 7965
  139.9469  143.6317  152.3039 LP  0  0  0  0  0  0  0  0  0  0  0  0  # atno 17342 bound_to 10162
  139.6822  144.7654  151.1589 LP  0  0  0  0  0  0  0  0  0  0  0  0  # atno 17343 bound_to 10162
  157.6688  130.9032  149.9993 LP  0  0  0  0  0  0  0  0  0  0  0  0  # atno 17370 bound_to 10713
  156.1274  130.3644  149.9786 LP  0  0  0  0  0  0  0  0  0  0  0  0  # atno 17371 bound_to 10713
  141.1996  133.6608  156.5853 LP  0  0  0  0  0  0  0  0  0  0  0  0  # atno 17394 bound_to 11000
  140.3686  134.7625  157.4583 LP  0  0  0  0  0  0  0  0  0  0  0  0  # atno 17395 bound_to 11000

$$$$
