AV-unprocessed.smi:1518|AV-procd|sdf|6125|dock9
  -GOLD-   22720 6263D 1   1.00000     0.00000
 Structure written by MMmdl.
 45 47  0  0  0  0  0  0  0  0  1 V2000
  156.4448  140.2345  164.6874 C   0  0  0  0  0  0  0  0  0  0  0  0
  156.0950  139.8069  163.2628 C   0  0  0  0  0  0  0  0  0  0  0  0
  156.5143  140.4844  162.3248 O   0  0  0  0  0  0  0  0  0  0  0  0
  155.2609  138.5830  163.0851 C   0  0  0  0  0  0  0  0  0  0  0  0
  154.9627  137.7832  164.2113 C   0  0  0  0  0  0  0  0  0  0  0  0
  154.1772  136.6246  164.0753 C   0  0  0  0  0  0  0  0  0  0  0  0
  153.6833  136.2530  162.8124 C   0  0  0  0  0  0  0  0  0  0  0  0
  153.9672  137.0299  161.6722 C   0  0  0  0  0  0  0  0  0  0  0  0
  153.4454  136.5883  160.4748 O   0  0  0  0  0  0  0  0  0  0  0  0
  154.1537  136.8793  159.2768 C   0  0  0  0  0  0  0  0  0  0  0  0
  153.6210  138.1967  158.6907 C   0  0  1  0  0  0  0  0  0  0  0  0
  154.5098  138.6330  157.6811 O   0  0  0  0  0  0  0  0  0  0  0  0
  152.2122  138.0272  158.0851 C   0  0  0  0  0  0  0  0  0  0  0  0
  151.8161  139.1459  157.2372 N   0  0  0  0  0  0  0  0  0  0  0  0
  151.4704  139.1288  155.9236 C   0  0  0  0  0  0  0  0  0  0  0  0
  151.4556  137.8723  155.1064 C   0  0  0  0  0  0  0  0  0  0  0  0
  152.7224  137.2580  155.0181 O   0  0  0  0  0  0  0  0  0  0  0  0
  151.1470  140.3090  155.3939 N   0  0  0  0  0  0  0  0  0  0  0  0
  151.3046  141.1748  156.4577 C   0  0  0  0  0  0  0  0  0  0  0  0
  151.1173  142.5733  156.5383 C   0  0  0  0  0  0  0  0  0  0  0  0
  151.3460  143.2552  157.7512 C   0  0  0  0  0  0  0  0  0  0  0  0
  151.7636  142.5501  158.8984 C   0  0  0  0  0  0  0  0  0  0  0  0
  151.9554  141.1563  158.8395 C   0  0  0  0  0  0  0  0  0  0  0  0
  151.7257  140.4798  157.6264 C   0  0  0  0  0  0  0  0  0  0  0  0
  154.7587  138.1983  161.8177 C   0  0  0  0  0  0  0  0  0  0  0  0
  157.0013  139.4475  165.1964 H   0  0  0  0  0  0  0  0  0  0  0  0
  155.5399  140.4505  165.2555 H   0  0  0  0  0  0  0  0  0  0  0  0
  157.0614  141.1335  164.6748 H   0  0  0  0  0  0  0  0  0  0  0  0
  155.3318  138.0492  165.1916 H   0  0  0  0  0  0  0  0  0  0  0  0
  153.9530  136.0198  164.9417 H   0  0  0  0  0  0  0  0  0  0  0  0
  153.0807  135.3615  162.7174 H   0  0  0  0  0  0  0  0  0  0  0  0
  155.2304  136.9358  159.4469 H   0  0  0  0  0  0  0  0  0  0  0  0
  153.9693  136.0712  158.5668 H   0  0  0  0  0  0  0  0  0  0  0  0
  153.5878  138.9517  159.4755 H   0  0  0  0  0  0  0  0  0  0  0  0
  155.2330  138.0260  157.6375 H   0  0  0  0  0  0  0  0  0  0  0  0
  152.1663  137.1119  157.4935 H   0  0  0  0  0  0  0  0  0  0  0  0
  151.4732  137.9035  158.8758 H   0  0  0  0  0  0  0  0  0  0  0  0
  150.7612  137.1615  155.5561 H   0  0  0  0  0  0  0  0  0  0  0  0
  151.0765  138.0805  154.1064 H   0  0  0  0  0  0  0  0  0  0  0  0
  153.3716  137.9293  154.8736 H   0  0  0  0  0  0  0  0  0  0  0  0
  150.7978  143.1218  155.6647 H   0  0  0  0  0  0  0  0  0  0  0  0
  151.2004  144.3243  157.8013 H   0  0  0  0  0  0  0  0  0  0  0  0
  151.9362  143.0797  159.8237 H   0  0  0  0  0  0  0  0  0  0  0  0
  152.2735  140.6132  159.7173 H   0  0  0  0  0  0  0  0  0  0  0  0
  154.9832  138.8040  160.9543 H   0  0  0  0  0  0  0  0  0  0  0  0
  1  2  1  0  0  0  0
  1 26  1  0  0  0  0
  1 27  1  0  0  0  0
  1 28  1  0  0  0  0
  2  3  2  0  0  0  0
  2  4  1  0  0  0  0
  4 25  1  0  0  0  0
  4  5  2  0  0  0  0
  5  6  1  0  0  0  0
  5 29  1  0  0  0  0
  6  7  2  0  0  0  0
  6 30  1  0  0  0  0
  7  8  1  0  0  0  0
  7 31  1  0  0  0  0
  8  9  1  0  0  0  0
  8 25  2  0  0  0  0
  9 10  1  0  0  0  0
 10 11  1  0  0  0  0
 10 32  1  0  0  0  0
 10 33  1  0  0  0  0
 11 12  1  0  0  0  0
 11 13  1  0  0  0  0
 11 34  1  0  0  0  0
 12 35  1  0  0  0  0
 13 14  1  0  0  0  0
 13 36  1  0  0  0  0
 13 37  1  0  0  0  0
 14 24  1  0  0  0  0
 14 15  1  0  0  0  0
 15 16  1  0  0  0  0
 15 18  2  0  0  0  0
 16 17  1  0  0  0  0
 16 38  1  0  0  0  0
 16 39  1  0  0  0  0
 17 40  1  0  0  0  0
 18 19  1  0  0  0  0
 19 24  2  0  0  0  0
 19 20  1  0  0  0  0
 20 21  2  0  0  0  0
 20 41  1  0  0  0  0
 21 22  1  0  0  0  0
 21 42  1  0  0  0  0
 22 23  2  0  0  0  0
 22 43  1  0  0  0  0
 23 24  1  0  0  0  0
 23 44  1  0  0  0  0
 25 45  1  0  0  0  0
M  END
> <s_m_source_file>
AV-unprocessed.smi

> <i_m_source_file_index>
1518

> <i_lp_mmshare_version>
43012

> <i_f3d_flags>
0

> <s_epik_input>
W0NIM11DKD1PKWMxW2NIXVtjSF1bY0hdYyhbY0hdMSlPW0NIMl1bQ0BIXShbT0hdKVtDSDJdbihjKG4yKVtDSDJdW09IXSljKGMyMylbY0hdW2NIXVtjSF1bY0hdMw==

> <s_epik_cmdline>
J2VwaWtfcHl0aG9uJywgJy1waCcsICc3LjAnLCAnLXRuJywgJzgnLCAnLW1hJywgJzIwMCcsICctbWV0YWxfYmluZGluZycsICctaW1hZScsICc8aW5maWxlLm1hZT4nLCAnLW9tYWUnLCAnPG91dGZpbGUubWFlPic=

> <r_lp_tautomer_probability>
0.99995

> <r_epik_Ionization_Penalty>
0.0583159

> <r_epik_Ionization_Penalty_Charging>
0

> <r_epik_Ionization_Penalty_Neutral>
0.0583159

> <r_epik_State_Penalty>
0.0503525

> <r_epik_Charging_Adjusted_Penalty>
0.0503525

> <i_epik_Tot_Q>
0

> <i_epik_Tot_abs_Q>
0

> <r_epik_Metal_State_Penalty>
5.25517e-05

> <b_epik_Metal_Only>
0

> <s_lp_Force_Field>
OPLS_2005

> <r_lp_Energy>
23.8716

> <b_lp_Chiralities_Consistent>
1

> <s_lp_Variant>
AV-unprocessed.smi:1518-2

> <Gold.Version>
5.8.1

> <Gold.Id.Protein>
6NUR|6NUR_protein|mol2

> <Gold.PLP.Fitness>
49.0931

> <Gold.PLP.PLP>
-41.5336

> <Gold.PLP.part.hbond>
-3.8239

> <Gold.PLP.part.metal>
0.0000

> <Gold.PLP.part.buried>
-6.4702

> <Gold.PLP.part.nonpolar>
-30.9722

> <Gold.PLP.part.repulsive>
0.0234

> <Gold.PLP.ligand.clash>
0.0000

> <Gold.PLP.ligand.torsion>
0.7914

> <Gold.PLP.Chemscore.Hbond>
3.0231

> <Gold.PLP.Chemscore.CHOScore>
0.0000

> <Gold.PLP.Chemscore.Metal>
0.0000

> <Gold.Chemscore.Hbonds>
donor molecule, donor type, donor heavy atom, donor atom, acceptor molecule, acceptor atom, score
      P1  H  6896  6909       L1     9  0.83
      P1  H  7989  7998       L1    18  0.99
      P1  H  7997  8010       L1    12  0.69
      P1  H 10752 10764       L1    17  0.48

> <Gold.PLP.Chemscore.Internal.Correction>
0.0731

> <Gold.Rescore>
     Score         DG    S(hbond)    S(metal)    S(lipo)     H(rot)  DE(clash)    DE(int)     intcor
     17.59     -20.96       2.86        0.00     121.68       3.25       2.66       0.71       ----

> <Gold.Chemscore.Fitness>
17.5903

> <Gold.Chemscore.DG>
-20.9575

> <Gold.Chemscore.ZeroCoef>
-5.4800

> <Gold.Chemscore.Hbond>
2.8614

> <Gold.Chemscore.Metal>
0.0000

> <Gold.Chemscore.Lipo>
121.6751

> <Gold.Chemscore.Internal_Hbond>
0.0000

> <Gold.Chemscore.DEClash>
2.6565

> <Gold.Chemscore.DEInternal>
0.7107

> <Gold.Chemscore.Rot>
3.2482

> <Gold.Chemscore.Internal.Correction>
   9.000000E+99

> <Gold.Chemscore.Hbonds>
donor molecule, donor type, donor heavy atom, donor atom, acceptor molecule, acceptor atom, score
      P1  H  6896  6909       L1     9  0.50
      P1  H  7989  7998       L1    18  0.87
      P1  H  7997  8010       L1    12  0.25
      P1  H 10752 10764       L1    17  0.47

> <Gold.Chemscore.Hbond.Weighted>
-9.5570

> <Gold.Chemscore.Metal.Weighted>
-0.0000

> <Gold.Chemscore.Lipo.Weighted>
-14.2360

> <Gold.Chemscore.Internal_Hbond.Weighted>
0.0000

> <Gold.Chemscore.DEClash.Weighted>
2.6565

> <Gold.Chemscore.DEInternal.Weighted>
0.7107

> <Gold.Chemscore.Rot.Weighted>
8.3155

> <Gold.Chemscore.Internal.Correction.Weighted>
   9.000000E+99

> <Gold.Protein.RotatedTorsions>
[ 6907 6896 6895 6894 ] final  157.74 input  -60.11 | X-H torsion
[ 7974 7965 7964 7962 ] final  116.11 input  175.53 | X-H torsion
[ 8008 7997 7996 7995 ] final   -3.29 input   59.86 | X-H torsion
[ 10167 10162 10161 10158 ] final  122.77 input  -65.29 | X-H torsion
[ 10718 10713 10712 10709 ] final   35.74 input   66.30 | X-H torsion
[ 10763 10752 10751 10750 ] final  -60.82 input  -60.55 | X-H torsion
[ 11005 11000 10999 10996 ] final  114.09 input  -57.11 | X-H torsion

> <Gold.Protein.ActiveResidues>
 VAL166  LYS551  ARG553  GLY616  TRP617  ASP618  TYR619  PRO620  LYS621  CYS622 
 ASP623  PHE694  ASN695  SER759  ASP760  ASP761  ALA762  ILE779  LEU786  VAL792 
 PHE793  MET794  SER795  GLU796  ALA797  LYS798  CYS799  TRP800  GLU811  SER814 

> <Gold.Protein.RotatedAtoms>
  152.0107  133.3860  159.4218 H   0  0  0  0  0  0  0  0  0  0  0  0  # atno 6907 bound_to 6896
  150.6900  134.3734  159.5011 H   0  0  0  0  0  0  0  0  0  0  0  0  # atno 6908 bound_to 6896
  152.1494  134.9000  160.0599 H   0  0  0  0  0  0  0  0  0  0  0  0  # atno 6909 bound_to 6896
  145.1837  139.3036  143.4404 H   0  0  0  0  0  0  0  0  0  0  0  0  # atno 7974 bound_to 7965
  154.6265  140.2513  155.7486 H   0  0  0  0  0  0  0  0  0  0  0  0  # atno 8008 bound_to 7997
  156.2456  140.2916  156.0516 H   0  0  0  0  0  0  0  0  0  0  0  0  # atno 8009 bound_to 7997
  155.1814  140.0389  157.2873 H   0  0  0  0  0  0  0  0  0  0  0  0  # atno 8010 bound_to 7997
  139.5839  144.6998  151.3459 H   0  0  0  0  0  0  0  0  0  0  0  0  # atno 10167 bound_to 10162
  157.3264  130.7475  149.6818 H   0  0  0  0  0  0  0  0  0  0  0  0  # atno 10718 bound_to 10713
  154.2751  135.6283  153.5325 H   0  0  0  0  0  0  0  0  0  0  0  0  # atno 10763 bound_to 10752
  152.9874  135.5619  154.5557 H   0  0  0  0  0  0  0  0  0  0  0  0  # atno 10764 bound_to 10752
  154.5136  135.2878  155.1297 H   0  0  0  0  0  0  0  0  0  0  0  0  # atno 10765 bound_to 10752
  139.8971  134.9561  156.6838 H   0  0  0  0  0  0  0  0  0  0  0  0  # atno 11005 bound_to 11000
  146.3448  140.2025  142.8589 LP  0  0  0  0  0  0  0  0  0  0  0  0  # atno 17320 bound_to 7965
  145.0110  140.8714  143.5224 LP  0  0  0  0  0  0  0  0  0  0  0  0  # atno 17321 bound_to 7965
  140.7113  143.7382  150.7573 LP  0  0  0  0  0  0  0  0  0  0  0  0  # atno 17342 bound_to 10162
  140.0922  143.4867  152.2472 LP  0  0  0  0  0  0  0  0  0  0  0  0  # atno 17343 bound_to 10162
  155.9691  130.4208  150.4439 LP  0  0  0  0  0  0  0  0  0  0  0  0  # atno 17370 bound_to 10713
  157.2463  131.0536  151.2406 LP  0  0  0  0  0  0  0  0  0  0  0  0  # atno 17371 bound_to 10713
  140.7278  133.9085  155.8190 LP  0  0  0  0  0  0  0  0  0  0  0  0  # atno 17394 bound_to 11000
  141.0177  134.0933  157.4154 LP  0  0  0  0  0  0  0  0  0  0  0  0  # atno 17395 bound_to 11000

$$$$
