AV-unprocessed.smi:837|AV-procd|sdf|3898|dock2
  -GOLD-   22720 1353D 1   1.00000     0.00000
 Structure written by MMmdl.
 50 52  0  0  0  0  0  0  0  0  2 V2000
  148.8842  139.1802  157.6833 C   0  0  0  0  0  0  0  0  0  0  0  0
  148.5074  140.3059  156.6965 C   0  0  2  0  0  0  0  0  0  0  0  0
  147.0042  140.2455  156.3476 C   0  0  0  0  0  0  0  0  0  0  0  0
  146.5840  141.4114  155.4396 C   0  0  0  0  0  0  0  0  0  0  0  0
  147.4276  141.4591  154.1580 C   0  0  0  0  0  0  0  0  0  0  0  0
  148.9305  141.5222  154.4831 C   0  0  0  0  0  0  0  0  0  0  0  0
  149.3993  140.3772  155.4161 C   0  0  1  0  0  0  0  0  0  0  0  0
  150.7968  140.5714  155.7623 N   0  0  0  0  0  0  0  0  0  0  0  0
  151.5907  139.5860  155.3271 C   0  0  0  0  0  0  0  0  0  0  0  0
  152.8059  139.5214  155.5087 O   0  0  0  0  0  0  0  0  0  0  0  0
  150.8311  138.6874  154.6768 N   0  0  0  0  0  0  0  0  0  0  0  0
  151.3465  137.4380  154.1030 C   0  0  0  0  0  0  0  0  0  0  0  0
  150.8483  136.1947  154.8521 C   0  0  0  0  0  0  0  0  0  0  0  0
  151.3589  135.8551  155.9201 O   0  0  0  0  0  0  0  0  0  0  0  0
  149.8424  135.5219  154.2738 N   0  0  0  0  0  0  0  0  0  0  0  0
  149.2391  134.2987  154.7956 C   0  0  0  0  0  0  0  0  0  0  0  0
  149.0889  133.1937  153.7292 C   0  0  0  0  0  0  0  0  0  0  0  0
  147.6854  133.0854  153.1573 C   0  0  0  0  0  0  0  0  0  0  0  0
  147.4487  133.3082  151.7822 C   0  0  0  0  0  0  0  0  0  0  0  0
  146.1336  133.2133  151.2823 C   0  0  0  0  0  0  0  0  0  0  0  0
  145.0843  132.8938  152.1677 C   0  0  0  0  0  0  0  0  0  0  0  0
  145.3490  132.6843  153.4762 N   0  3  0  0  0  0  0  0  0  0  0  0
  146.5943  132.7677  153.9943 C   0  0  0  0  0  0  0  0  0  0  0  0
  149.5402  139.0478  154.6715 C   0  0  0  0  0  0  0  0  0  0  0  0
  148.6049  138.4231  154.1710 O   0  0  0  0  0  0  0  0  0  0  0  0
  148.7196  138.1917  157.2536 H   0  0  0  0  0  0  0  0  0  0  0  0
  148.2823  139.2431  158.5901 H   0  0  0  0  0  0  0  0  0  0  0  0
  149.9292  139.2420  157.9873 H   0  0  0  0  0  0  0  0  0  0  0  0
  148.6634  141.2412  157.2366 H   0  0  0  0  0  0  0  0  0  0  0  0
  146.7633  139.2983  155.8646 H   0  0  0  0  0  0  0  0  0  0  0  0
  146.4114  140.2748  157.2626 H   0  0  0  0  0  0  0  0  0  0  0  0
  145.5279  141.3209  155.1843 H   0  0  0  0  0  0  0  0  0  0  0  0
  146.6905  142.3522  155.9814 H   0  0  0  0  0  0  0  0  0  0  0  0
  147.2099  140.5869  153.5416 H   0  0  0  0  0  0  0  0  0  0  0  0
  147.1439  142.3273  153.5625 H   0  0  0  0  0  0  0  0  0  0  0  0
  149.4996  141.5142  153.5521 H   0  0  0  0  0  0  0  0  0  0  0  0
  149.1478  142.4813  154.9555 H   0  0  0  0  0  0  0  0  0  0  0  0
  151.1207  141.3719  156.2855 H   0  0  0  0  0  0  0  0  0  0  0  0
  151.0579  137.3491  153.0543 H   0  0  0  0  0  0  0  0  0  0  0  0
  152.4380  137.4581  154.1101 H   0  0  0  0  0  0  0  0  0  0  0  0
  149.4750  135.8769  153.4027 H   0  0  0  0  0  0  0  0  0  0  0  0
  149.8129  133.9303  155.6472 H   0  0  0  0  0  0  0  0  0  0  0  0
  148.2544  134.5644  155.1808 H   0  0  0  0  0  0  0  0  0  0  0  0
  149.7902  133.3709  152.9130 H   0  0  0  0  0  0  0  0  0  0  0  0
  149.3704  132.2313  154.1580 H   0  0  0  0  0  0  0  0  0  0  0  0
  148.2632  133.5583  151.1175 H   0  0  0  0  0  0  0  0  0  0  0  0
  145.9336  133.3870  150.2348 H   0  0  0  0  0  0  0  0  0  0  0  0
  144.0496  132.8010  151.8716 H   0  0  0  0  0  0  0  0  0  0  0  0
  146.6783  132.5828  155.0553 H   0  0  0  0  0  0  0  0  0  0  0  0
  144.5750  132.4542  154.1001 H   0  0  0  0  0  0  0  0  0  0  0  0
  1  2  1  0  0  0  0
  1 26  1  0  0  0  0
  1 27  1  0  0  0  0
  1 28  1  0  0  0  0
  2  7  1  0  0  0  0
  2  3  1  0  0  0  0
  2 29  1  0  0  0  0
  3  4  1  0  0  0  0
  3 30  1  0  0  0  0
  3 31  1  0  0  0  0
  4  5  1  0  0  0  0
  4 32  1  0  0  0  0
  4 33  1  0  0  0  0
  5  6  1  0  0  0  0
  5 34  1  0  0  0  0
  5 35  1  0  0  0  0
  6  7  1  0  0  0  0
  6 36  1  0  0  0  0
  6 37  1  0  0  0  0
  7 24  1  0  0  0  0
  7  8  1  0  0  0  0
  8  9  1  0  0  0  0
  8 38  1  0  0  0  0
  9 10  2  0  0  0  0
  9 11  1  0  0  0  0
 11 12  1  0  0  0  0
 11 24  1  0  0  0  0
 12 13  1  0  0  0  0
 12 39  1  0  0  0  0
 12 40  1  0  0  0  0
 13 14  2  0  0  0  0
 13 15  1  0  0  0  0
 15 16  1  0  0  0  0
 15 41  1  0  0  0  0
 16 17  1  0  0  0  0
 16 42  1  0  0  0  0
 16 43  1  0  0  0  0
 17 18  1  0  0  0  0
 17 44  1  0  0  0  0
 17 45  1  0  0  0  0
 18 23  1  0  0  0  0
 18 19  2  0  0  0  0
 19 20  1  0  0  0  0
 19 46  1  0  0  0  0
 20 21  2  0  0  0  0
 20 47  1  0  0  0  0
 21 22  1  0  0  0  0
 21 48  1  0  0  0  0
 22 23  2  0  0  0  0
 22 50  1  0  0  0  0
 23 49  1  0  0  0  0
 24 25  2  0  0  0  0
M  CHG  1  22   1
M  END
> <s_m_source_file>
AV-unprocessed.smi

> <i_m_source_file_index>
837

> <i_lp_mmshare_version>
43012

> <i_f3d_flags>
0

> <s_epik_input>
W0NIMl0xW0NIMl1bQ0gyXVtDSDJdW0NAQEhdKFtDSDNdKVtDQEBdMTJbTkhdQyg9TylOKEMyPU8pW0NIMl1DKD1PKVtOSF1bQ0gyXVtDSDJdYzNbY0hdW2NIXVtjSF1uW2NIXTM=

> <s_epik_cmdline>
J2VwaWtfcHl0aG9uJywgJy1waCcsICc3LjAnLCAnLXRuJywgJzgnLCAnLW1hJywgJzIwMCcsICctbWV0YWxfYmluZGluZycsICctaW1hZScsICc8aW5maWxlLm1hZT4nLCAnLW9tYWUnLCAnPG91dGZpbGUubWFlPic=

> <r_lp_tautomer_probability>
1

> <r_epik_Ionization_Penalty>
2.28139

> <r_epik_Ionization_Penalty_Charging>
2.28135

> <r_epik_Ionization_Penalty_Neutral>
4.65525e-05

> <r_epik_State_Penalty>
2.43066

> <r_epik_Charging_Adjusted_Penalty>
4.71201

> <i_epik_Tot_Q>
1

> <i_epik_Tot_abs_Q>
1

> <r_epik_Metal_State_Penalty>
2.4646

> <b_epik_Metal_Only>
0

> <s_lp_Force_Field>
OPLS_2005

> <r_lp_Energy>
25.0324

> <b_lp_Chiralities_Consistent>
1

> <s_lp_Variant>
AV-unprocessed.smi:837-7

> <Gold.Version>
5.8.1

> <Gold.Id.Protein>
6NUR|6NUR_protein|mol2

> <Gold.PLP.Fitness>
52.3768

> <Gold.PLP.PLP>
-39.5904

> <Gold.PLP.part.hbond>
-4.5775

> <Gold.PLP.part.metal>
0.0000

> <Gold.PLP.part.buried>
-2.4701

> <Gold.PLP.part.nonpolar>
-34.5041

> <Gold.PLP.part.repulsive>
0.4201

> <Gold.PLP.ligand.clash>
0.0000

> <Gold.PLP.ligand.torsion>
0.6672

> <Gold.PLP.Chemscore.Hbond>
4.6959

> <Gold.PLP.Chemscore.CHOScore>
0.0000

> <Gold.PLP.Chemscore.Metal>
0.0000

> <Gold.Chemscore.Hbonds>
donor molecule, donor type, donor heavy atom, donor atom, acceptor molecule, acceptor atom, score
      L1  H    15    41       P1  7948  1.00
      L1  H    22    50       P1 10957  1.53
      P1  H  7997  8009       L1    10  1.00
      P1  H 10752 10763       L1    14  0.72

> <Gold.PLP.Chemscore.Internal.Correction>
0.0332

> <Gold.Rescore>
     Score         DG    S(hbond)    S(metal)    S(lipo)     H(rot)  DE(clash)    DE(int)     intcor
     16.64     -17.36       2.61        0.00      69.89       1.96       0.05       0.66       ----

> <Gold.Chemscore.Fitness>
16.6416

> <Gold.Chemscore.DG>
-17.3580

> <Gold.Chemscore.ZeroCoef>
-5.4800

> <Gold.Chemscore.Hbond>
2.6132

> <Gold.Chemscore.Metal>
0.0000

> <Gold.Chemscore.Lipo>
69.8911

> <Gold.Chemscore.Internal_Hbond>
0.0000

> <Gold.Chemscore.DEClash>
0.0549

> <Gold.Chemscore.DEInternal>
0.6615

> <Gold.Chemscore.Rot>
1.9638

> <Gold.Chemscore.Internal.Correction>
   9.000000E+99

> <Gold.Chemscore.Hbonds>
donor molecule, donor type, donor heavy atom, donor atom, acceptor molecule, acceptor atom, score
      L1  H    15    41       P1  7948  0.30
      L1  H    22    50       P1 10957  0.37
      P1  H  7997  8009       L1    10  1.00
      P1  H 10752 10763       L1    14  0.10

> <Gold.Chemscore.Hbond.Weighted>
-8.7282

> <Gold.Chemscore.Metal.Weighted>
-0.0000

> <Gold.Chemscore.Lipo.Weighted>
-8.1773

> <Gold.Chemscore.Internal_Hbond.Weighted>
0.0000

> <Gold.Chemscore.DEClash.Weighted>
0.0549

> <Gold.Chemscore.DEInternal.Weighted>
0.6615

> <Gold.Chemscore.Rot.Weighted>
5.0274

> <Gold.Chemscore.Internal.Correction.Weighted>
   9.000000E+99

> <Gold.Protein.RotatedTorsions>
[ 6907 6896 6895 6894 ] final   78.04 input  -60.11 | X-H torsion
[ 7974 7965 7964 7962 ] final -176.94 input  175.53 | X-H torsion
[ 8008 7997 7996 7995 ] final -152.47 input   59.86 | X-H torsion
[ 10167 10162 10161 10158 ] final  -24.59 input  -65.29 | X-H torsion
[ 10718 10713 10712 10709 ] final   52.85 input   66.30 | X-H torsion
[ 10763 10752 10751 10750 ] final   99.20 input  -60.55 | X-H torsion
[ 11005 11000 10999 10996 ] final   70.98 input  -57.11 | X-H torsion

> <Gold.Protein.ActiveResidues>
 VAL166  LYS551  ARG553  GLY616  TRP617  ASP618  TYR619  PRO620  LYS621  CYS622 
 ASP623  PHE694  ASN695  SER759  ASP760  ASP761  ALA762  ILE779  LEU786  VAL792 
 PHE793  MET794  SER795  GLU796  ALA797  LYS798  CYS799  TRP800  GLU811  SER814 

> <Gold.Protein.RotatedAtoms>
  152.5143  134.3725  159.9322 H   0  0  0  0  0  0  0  0  0  0  0  0  # atno 6907 bound_to 6896
  151.3680  133.3859  159.2704 H   0  0  0  0  0  0  0  0  0  0  0  0  # atno 6908 bound_to 6896
  150.9600  134.9008  159.7783 H   0  0  0  0  0  0  0  0  0  0  0  0  # atno 6909 bound_to 6896
  144.7127  140.1095  143.6412 H   0  0  0  0  0  0  0  0  0  0  0  0  # atno 7974 bound_to 7965
  155.6557  140.0717  157.2571 H   0  0  0  0  0  0  0  0  0  0  0  0  # atno 8008 bound_to 7997
  154.4153  140.1725  156.1773 H   0  0  0  0  0  0  0  0  0  0  0  0  # atno 8009 bound_to 7997
  155.9739  140.3359  155.6604 H   0  0  0  0  0  0  0  0  0  0  0  0  # atno 8010 bound_to 7997
  140.7288  143.4339  151.0759 H   0  0  0  0  0  0  0  0  0  0  0  0  # atno 10167 bound_to 10162
  157.5113  130.8502  149.8438 H   0  0  0  0  0  0  0  0  0  0  0  0  # atno 10718 bound_to 10713
  153.2985  135.4121  155.1231 H   0  0  0  0  0  0  0  0  0  0  0  0  # atno 10763 bound_to 10752
  154.8542  135.3535  154.5884 H   0  0  0  0  0  0  0  0  0  0  0  0  # atno 10764 bound_to 10752
  153.6309  135.7061  153.5334 H   0  0  0  0  0  0  0  0  0  0  0  0  # atno 10765 bound_to 10752
  139.9568  134.7130  156.0735 H   0  0  0  0  0  0  0  0  0  0  0  0  # atno 11005 bound_to 11000
  145.9467  139.2705  143.1236 LP  0  0  0  0  0  0  0  0  0  0  0  0  # atno 17320 bound_to 7965
  145.9366  140.9010  143.0329 LP  0  0  0  0  0  0  0  0  0  0  0  0  # atno 17321 bound_to 7965
  139.7999  143.8098  152.3162 LP  0  0  0  0  0  0  0  0  0  0  0  0  # atno 17342 bound_to 10162
  139.8111  144.7335  150.9696 LP  0  0  0  0  0  0  0  0  0  0  0  0  # atno 17343 bound_to 10162
  156.0291  130.3770  150.1739 LP  0  0  0  0  0  0  0  0  0  0  0  0  # atno 17370 bound_to 10713
  156.9928  130.9898  151.3410 LP  0  0  0  0  0  0  0  0  0  0  0  0  # atno 17371 bound_to 10713
  141.1240  133.6604  156.3289 LP  0  0  0  0  0  0  0  0  0  0  0  0  # atno 17394 bound_to 11000
  140.5591  134.5952  157.5428 LP  0  0  0  0  0  0  0  0  0  0  0  0  # atno 17395 bound_to 11000

$$$$
