AV-unprocessed.smi:1534|AV-procd|sdf|6167|dock10
  -GOLD-   22720 6313D 1   1.00000     0.00000
 Structure written by MMmdl.
 36 37  0  0  0  0  0  0  0  0  1 V2000
  145.9355  135.6419  154.9429 O   0  0  0  0  0  0  0  0  0  0  0  0
  146.6969  135.9150  154.0171 C   0  0  0  0  0  0  0  0  0  0  0  0
  146.2753  136.2475  152.7854 N   0  0  0  0  0  0  0  0  0  0  0  0
  144.8821  136.2773  152.3572 C   0  0  0  0  0  0  0  0  0  0  0  0
  144.6789  135.4682  151.0654 C   0  0  0  0  0  0  0  0  0  0  0  0
  144.8970  133.9820  151.2742 C   0  0  0  0  0  0  0  0  0  0  0  0
  144.5904  133.0580  150.2522 C   0  0  0  0  0  0  0  0  0  0  0  0
  144.8109  131.6889  150.4975 C   0  0  0  0  0  0  0  0  0  0  0  0
  145.3286  131.2986  151.7475 C   0  0  0  0  0  0  0  0  0  0  0  0
  145.6043  132.2992  152.7008 C   0  0  0  0  0  0  0  0  0  0  0  0
  145.3956  133.6147  152.4762 N   0  0  0  0  0  0  0  0  0  0  0  0
  148.0332  135.8962  154.1690 N   0  0  0  0  0  0  0  0  0  0  0  0
  148.8018  135.5773  155.3731 C   0  0  1  0  0  0  0  0  0  0  0  0
  149.7268  134.3701  155.1287 C   0  0  0  0  0  0  0  0  0  0  0  0
  150.7581  134.2982  156.2616 C   0  0  0  0  0  0  0  0  0  0  0  0
  151.0381  136.0251  156.8081 S   0  0  0  0  0  0  0  0  0  0  0  0
  150.7136  136.1296  158.2386 O   0  0  0  0  0  0  0  0  0  0  0  0
  152.3253  136.5076  156.2856 O   0  0  0  0  0  0  0  0  0  0  0  0
  149.6808  136.7578  155.8209 C   0  0  0  0  0  0  0  0  0  0  0  0
  146.9707  136.4669  152.0873 H   0  0  0  0  0  0  0  0  0  0  0  0
  144.2346  135.9011  153.1511 H   0  0  0  0  0  0  0  0  0  0  0  0
  144.6019  137.3184  152.1938 H   0  0  0  0  0  0  0  0  0  0  0  0
  143.6700  135.6258  150.6811 H   0  0  0  0  0  0  0  0  0  0  0  0
  145.3597  135.8210  150.2893 H   0  0  0  0  0  0  0  0  0  0  0  0
  144.1955  133.3887  149.3028 H   0  0  0  0  0  0  0  0  0  0  0  0
  144.5871  130.9520  149.7405 H   0  0  0  0  0  0  0  0  0  0  0  0
  145.5105  130.2578  151.9705 H   0  0  0  0  0  0  0  0  0  0  0  0
  146.0029  132.0359  153.6693 H   0  0  0  0  0  0  0  0  0  0  0  0
  148.5781  136.1557  153.3593 H   0  0  0  0  0  0  0  0  0  0  0  0
  148.1237  135.3117  156.1862 H   0  0  0  0  0  0  0  0  0  0  0  0
  149.1649  133.4398  155.0410 H   0  0  0  0  0  0  0  0  0  0  0  0
  150.2578  134.5100  154.1858 H   0  0  0  0  0  0  0  0  0  0  0  0
  150.3631  133.7378  157.1091 H   0  0  0  0  0  0  0  0  0  0  0  0
  151.6989  133.8432  155.9518 H   0  0  0  0  0  0  0  0  0  0  0  0
  150.1295  137.2624  154.9644 H   0  0  0  0  0  0  0  0  0  0  0  0
  149.1433  137.4963  156.4161 H   0  0  0  0  0  0  0  0  0  0  0  0
  1  2  2  0  0  0  0
  2  3  1  0  0  0  0
  2 12  1  0  0  0  0
  3  4  1  0  0  0  0
  3 20  1  0  0  0  0
  4  5  1  0  0  0  0
  4 21  1  0  0  0  0
  4 22  1  0  0  0  0
  5  6  1  0  0  0  0
  5 23  1  0  0  0  0
  5 24  1  0  0  0  0
  6 11  1  0  0  0  0
  6  7  2  0  0  0  0
  7  8  1  0  0  0  0
  7 25  1  0  0  0  0
  8  9  2  0  0  0  0
  8 26  1  0  0  0  0
  9 10  1  0  0  0  0
  9 27  1  0  0  0  0
 10 11  2  0  0  0  0
 10 28  1  0  0  0  0
 12 13  1  0  0  0  0
 12 29  1  0  0  0  0
 13 19  1  0  0  0  0
 13 14  1  0  0  0  0
 13 30  1  0  0  0  0
 14 15  1  0  0  0  0
 14 31  1  0  0  0  0
 14 32  1  0  0  0  0
 15 16  1  0  0  0  0
 15 33  1  0  0  0  0
 15 34  1  0  0  0  0
 16 17  2  0  0  0  0
 16 18  2  0  0  0  0
 16 19  1  0  0  0  0
 19 35  1  0  0  0  0
 19 36  1  0  0  0  0
M  END
> <s_m_source_file>
AV-unprocessed.smi

> <i_m_source_file_index>
1534

> <i_lp_mmshare_version>
43012

> <i_f3d_flags>
0

> <s_epik_input>
Tz1TMSg9TylbQ0gyXVtDSDJdW0NASF0oW0NIMl0xKVtOSF1DKD1PKVtOSF1bQ0gyXVtDSDJdYzJbY0hdW2NIXVtjSF1bY0hdbjI=

> <s_epik_cmdline>
J2VwaWtfcHl0aG9uJywgJy1waCcsICc3LjAnLCAnLXRuJywgJzgnLCAnLW1hJywgJzIwMCcsICctbWV0YWxfYmluZGluZycsICctaW1hZScsICc8aW5maWxlLm1hZT4nLCAnLW9tYWUnLCAnPG91dGZpbGUubWFlPic=

> <r_epik_Ionization_Penalty>
0.0423605

> <r_epik_Ionization_Penalty_Charging>
0

> <r_epik_Ionization_Penalty_Neutral>
0.0423605

> <r_epik_State_Penalty>
0.0357408

> <r_epik_Charging_Adjusted_Penalty>
0.0357408

> <i_epik_Tot_Q>
0

> <i_epik_Tot_abs_Q>
0

> <r_epik_Metal_State_Penalty>
0.033344

> <b_epik_Metal_Only>
0

> <s_lp_Force_Field>
OPLS_2005

> <r_lp_Energy>
9.82399

> <b_lp_Chiralities_Consistent>
1

> <s_lp_Variant>
AV-unprocessed.smi:1534-2

> <Gold.Version>
5.8.1

> <Gold.Id.Protein>
6NUR|6NUR_protein|mol2

> <Gold.PLP.Fitness>
37.5653

> <Gold.PLP.PLP>
-27.1214

> <Gold.PLP.part.hbond>
-3.9068

> <Gold.PLP.part.metal>
0.0000

> <Gold.PLP.part.buried>
-4.1355

> <Gold.PLP.part.nonpolar>
-19.7855

> <Gold.PLP.part.repulsive>
0.1208

> <Gold.PLP.ligand.clash>
0.0000

> <Gold.PLP.ligand.torsion>
0.1127

> <Gold.PLP.Chemscore.Hbond>
3.5520

> <Gold.PLP.Chemscore.CHOScore>
0.0000

> <Gold.PLP.Chemscore.Metal>
0.0000

> <Gold.Chemscore.Hbonds>
donor molecule, donor type, donor heavy atom, donor atom, acceptor molecule, acceptor atom, score
      L1  H     3    20       P1  7948  0.77
      L1  H    12    29       P1  7948  1.00
      P1  H  6896  6907       L1    17  0.67
      P1  H 10752 10765       L1    18  1.00

> <Gold.PLP.Chemscore.Internal.Correction>
0.0133

> <Gold.Rescore>
     Score         DG    S(hbond)    S(metal)    S(lipo)     H(rot)  DE(clash)    DE(int)     intcor
     20.39     -20.75       3.70        0.00      62.83       1.73       0.16       0.20       ----

> <Gold.Chemscore.Fitness>
20.3889

> <Gold.Chemscore.DG>
-20.7512

> <Gold.Chemscore.ZeroCoef>
-5.4800

> <Gold.Chemscore.Hbond>
3.7010

> <Gold.Chemscore.Metal>
0.0000

> <Gold.Chemscore.Lipo>
62.8275

> <Gold.Chemscore.Internal_Hbond>
0.0000

> <Gold.Chemscore.DEClash>
0.1617

> <Gold.Chemscore.DEInternal>
0.2007

> <Gold.Chemscore.Rot>
1.7348

> <Gold.Chemscore.Internal.Correction>
   9.000000E+99

> <Gold.Chemscore.Hbonds>
donor molecule, donor type, donor heavy atom, donor atom, acceptor molecule, acceptor atom, score
      L1  H     3    20       P1  7948  0.73
      L1  H    12    29       P1  7948  0.92
      P1  H  6896  6907       L1    17  0.68
      P1  H 10752 10765       L1    18  0.95

> <Gold.Chemscore.Hbond.Weighted>
-12.3614

> <Gold.Chemscore.Metal.Weighted>
-0.0000

> <Gold.Chemscore.Lipo.Weighted>
-7.3508

> <Gold.Chemscore.Internal_Hbond.Weighted>
0.0000

> <Gold.Chemscore.DEClash.Weighted>
0.1617

> <Gold.Chemscore.DEInternal.Weighted>
0.2007

> <Gold.Chemscore.Rot.Weighted>
4.4410

> <Gold.Chemscore.Internal.Correction.Weighted>
   9.000000E+99

> <Gold.Protein.RotatedTorsions>
[ 6907 6896 6895 6894 ] final  -54.83 input  -60.11 | X-H torsion
[ 7974 7965 7964 7962 ] final   93.31 input  175.53 | X-H torsion
[ 8008 7997 7996 7995 ] final    3.20 input   59.86 | X-H torsion
[ 10167 10162 10161 10158 ] final -137.89 input  -65.29 | X-H torsion
[ 10718 10713 10712 10709 ] final  -26.04 input   66.30 | X-H torsion
[ 10763 10752 10751 10750 ] final -147.04 input  -60.55 | X-H torsion
[ 11005 11000 10999 10996 ] final  176.87 input  -57.11 | X-H torsion

> <Gold.Protein.ActiveResidues>
 VAL166  LYS551  ARG553  GLY616  TRP617  ASP618  TYR619  PRO620  LYS621  CYS622 
 ASP623  PHE694  ASN695  SER759  ASP760  ASP761  ALA762  ILE779  LEU786  VAL792 
 PHE793  MET794  SER795  GLU796  ALA797  LYS798  CYS799  TRP800  GLU811  SER814 

> <Gold.Protein.RotatedAtoms>
  150.8304  134.7554  159.6848 H   0  0  0  0  0  0  0  0  0  0  0  0  # atno 6907 bound_to 6896
  152.4409  134.5589  159.9898 H   0  0  0  0  0  0  0  0  0  0  0  0  # atno 6908 bound_to 6896
  151.5752  133.3347  159.3033 H   0  0  0  0  0  0  0  0  0  0  0  0  # atno 6909 bound_to 6896
  145.4806  139.2278  143.2884 H   0  0  0  0  0  0  0  0  0  0  0  0  # atno 7974 bound_to 7965
  154.7008  140.2672  155.6722 H   0  0  0  0  0  0  0  0  0  0  0  0  # atno 8008 bound_to 7997
  156.2764  140.2772  156.1541 H   0  0  0  0  0  0  0  0  0  0  0  0  # atno 8009 bound_to 7997
  155.0768  140.0372  157.2616 H   0  0  0  0  0  0  0  0  0  0  0  0  # atno 8010 bound_to 7997
  139.8532  143.7171  152.2656 H   0  0  0  0  0  0  0  0  0  0  0  0  # atno 10167 bound_to 10162
  156.4564  130.4494  149.6957 H   0  0  0  0  0  0  0  0  0  0  0  0  # atno 10718 bound_to 10713
  154.8306  135.3370  154.6756 H   0  0  0  0  0  0  0  0  0  0  0  0  # atno 10763 bound_to 10752
  153.7376  135.6948  153.4979 H   0  0  0  0  0  0  0  0  0  0  0  0  # atno 10764 bound_to 10752
  153.2267  135.4430  155.0501 H   0  0  0  0  0  0  0  0  0  0  0  0  # atno 10765 bound_to 10752
  140.3778  134.6973  157.4432 H   0  0  0  0  0  0  0  0  0  0  0  0  # atno 11005 bound_to 11000
  146.2343  140.5592  142.8961 LP  0  0  0  0  0  0  0  0  0  0  0  0  # atno 17320 bound_to 7965
  144.7891  140.5996  143.6553 LP  0  0  0  0  0  0  0  0  0  0  0  0  # atno 17321 bound_to 7965
  139.7445  144.7551  151.0602 LP  0  0  0  0  0  0  0  0  0  0  0  0  # atno 17342 bound_to 10162
  140.7785  143.4933  150.9865 LP  0  0  0  0  0  0  0  0  0  0  0  0  # atno 17343 bound_to 10162
  156.3762  130.7556  151.2544 LP  0  0  0  0  0  0  0  0  0  0  0  0  # atno 17370 bound_to 10713
  157.7500  131.0309  150.4156 LP  0  0  0  0  0  0  0  0  0  0  0  0  # atno 17371 bound_to 10713
  140.0501  134.6142  155.8872 LP  0  0  0  0  0  0  0  0  0  0  0  0  # atno 17394 bound_to 11000
  141.1933  133.6578  156.5543 LP  0  0  0  0  0  0  0  0  0  0  0  0  # atno 17395 bound_to 11000

$$$$
