AV-unprocessed.smi:3145|AV-procd|sdf|11980|dock10
  -GOLD-   2272017383D 1   1.00000     0.00000
 Structure written by MMmdl.
 35 35  0  0  0  0  0  0  0  0  2 V2000
  146.0602  137.8984  152.0409 C   0  0  0  0  0  0  0  0  0  0  0  0
  145.6147  136.4396  152.2108 C   0  0  1  0  0  0  0  0  0  0  0  0
  145.3284  135.7953  150.8376 C   0  0  0  0  0  0  0  0  0  0  0  0
  145.3194  134.3442  150.8819 N   0  0  0  0  0  0  0  0  0  0  0  0
  144.2762  133.4844  150.6098 C   0  0  0  0  0  0  0  0  0  0  0  0
  144.7393  132.2135  150.7962 C   0  0  0  0  0  0  0  0  0  0  0  0
  146.0959  132.3999  151.1829 C   0  0  0  0  0  0  0  0  0  0  0  0
  146.4398  133.6769  151.2347 N   0  0  0  0  0  0  0  0  0  0  0  0
  146.6583  135.6912  152.9478 N   0  3  0  0  0  0  0  0  0  0  0  0
  146.6539  135.8845  154.4139 C   0  0  0  0  0  0  0  0  0  0  0  0
  147.4892  137.0958  154.8282 C   0  0  0  0  0  0  0  0  0  0  0  0
  147.1487  137.7914  155.7856 O   0  0  0  0  0  0  0  0  0  0  0  0
  148.5937  137.3303  154.1055 N   0  0  0  0  0  0  0  0  0  0  0  0
  149.5186  138.4288  154.3499 C   0  0  0  0  0  0  0  0  0  0  0  0
  150.9258  137.8949  154.6369 C   0  0  0  0  0  0  0  0  0  0  0  0
  151.9195  138.9691  154.7850 C   0  0  0  0  0  0  0  0  0  0  0  0
  152.7011  139.8138  154.9016 N   0  0  0  0  0  0  0  0  0  0  0  0
  145.2992  138.4840  151.5243 H   0  0  0  0  0  0  0  0  0  0  0  0
  146.9819  137.9683  151.4618 H   0  0  0  0  0  0  0  0  0  0  0  0
  146.2369  138.3718  153.0074 H   0  0  0  0  0  0  0  0  0  0  0  0
  144.6954  136.4479  152.7992 H   0  0  0  0  0  0  0  0  0  0  0  0
  144.3542  136.1204  150.4697 H   0  0  0  0  0  0  0  0  0  0  0  0
  146.0614  136.1244  150.0988 H   0  0  0  0  0  0  0  0  0  0  0  0
  143.3019  133.8438  150.3122 H   0  0  0  0  0  0  0  0  0  0  0  0
  144.1928  131.2902  150.6722 H   0  0  0  0  0  0  0  0  0  0  0  0
  146.8350  131.6508  151.4266 H   0  0  0  0  0  0  0  0  0  0  0  0
  146.5519  134.7070  152.7464 H   0  0  0  0  0  0  0  0  0  0  0  0
  145.6286  136.0296  154.7560 H   0  0  0  0  0  0  0  0  0  0  0  0
  147.0369  134.9938  154.9122 H   0  0  0  0  0  0  0  0  0  0  0  0
  148.8073  136.7109  153.3367 H   0  0  0  0  0  0  0  0  0  0  0  0
  149.5432  139.0897  153.4819 H   0  0  0  0  0  0  0  0  0  0  0  0
  149.1631  139.0187  155.1960 H   0  0  0  0  0  0  0  0  0  0  0  0
  150.9320  137.3066  155.5547 H   0  0  0  0  0  0  0  0  0  0  0  0
  151.2591  137.2427  153.8293 H   0  0  0  0  0  0  0  0  0  0  0  0
  147.5627  135.9879  152.6097 H   0  0  0  0  0  0  0  0  0  0  0  0
  1  2  1  0  0  0  0
  1 18  1  0  0  0  0
  1 19  1  0  0  0  0
  1 20  1  0  0  0  0
  2  3  1  0  0  0  0
  2  9  1  0  0  0  0
  2 21  1  0  0  0  0
  3  4  1  0  0  0  0
  3 22  1  0  0  0  0
  3 23  1  0  0  0  0
  4  8  1  0  0  0  0
  4  5  1  0  0  0  0
  5  6  2  0  0  0  0
  5 24  1  0  0  0  0
  6  7  1  0  0  0  0
  6 25  1  0  0  0  0
  7  8  2  0  0  0  0
  7 26  1  0  0  0  0
  9 10  1  0  0  0  0
  9 27  1  0  0  0  0
  9 35  1  0  0  0  0
 10 11  1  0  0  0  0
 10 28  1  0  0  0  0
 10 29  1  0  0  0  0
 11 12  2  0  0  0  0
 11 13  1  0  0  0  0
 13 14  1  0  0  0  0
 13 30  1  0  0  0  0
 14 15  1  0  0  0  0
 14 31  1  0  0  0  0
 14 32  1  0  0  0  0
 15 16  1  0  0  0  0
 15 33  1  0  0  0  0
 15 34  1  0  0  0  0
 16 17  3  0  0  0  0
M  CHG  1   9   1
M  END
> <s_m_source_file>
AV-unprocessed.smi

> <i_m_source_file_index>
3145

> <i_lp_mmshare_version>
43012

> <i_f3d_flags>
0

> <s_epik_input>
bjFbY0hdW2NIXVtjSF1uMVtDSDJdW0NAQEhdKFtDSDNdKVtOSF1bQ0gyXUMoPU8pW05IXVtDSDJdW0NIMl1DI04=

> <s_epik_cmdline>
J2VwaWtfcHl0aG9uJywgJy1waCcsICc3LjAnLCAnLXRuJywgJzgnLCAnLW1hJywgJzIwMCcsICctbWV0YWxfYmluZGluZycsICctaW1hZScsICc8aW5maWxlLm1hZT4nLCAnLW9tYWUnLCAnPG91dGZpbGUubWFlPic=

> <r_lp_tautomer_probability>
1

> <r_epik_Ionization_Penalty>
0.190162

> <r_epik_Ionization_Penalty_Charging>
0.190142

> <r_epik_Ionization_Penalty_Neutral>
2.0165e-05

> <r_epik_State_Penalty>
0.179787

> <r_epik_Charging_Adjusted_Penalty>
0.369929

> <i_epik_Tot_Q>
1

> <i_epik_Tot_abs_Q>
1

> <r_epik_Metal_State_Penalty>
0.191786

> <b_epik_Metal_Only>
0

> <s_lp_Force_Field>
OPLS_2005

> <r_lp_Energy>
4.60732

> <b_lp_Chiralities_Consistent>
1

> <s_lp_Variant>
AV-unprocessed.smi:3145-2

> <Gold.Version>
5.8.1

> <Gold.Id.Protein>
6NUR|6NUR_protein|mol2

> <Gold.PLP.Fitness>
48.0794

> <Gold.PLP.PLP>
-31.2163

> <Gold.PLP.part.hbond>
-3.9630

> <Gold.PLP.part.metal>
0.0000

> <Gold.PLP.part.buried>
-4.6842

> <Gold.PLP.part.nonpolar>
-24.7278

> <Gold.PLP.part.repulsive>
0.2378

> <Gold.PLP.ligand.clash>
0.0000

> <Gold.PLP.ligand.torsion>
0.8994

> <Gold.PLP.Chemscore.Hbond>
4.1989

> <Gold.PLP.Chemscore.CHOScore>
2.0000

> <Gold.PLP.Chemscore.Metal>
0.0000

> <Gold.Chemscore.Hbonds>
donor molecule, donor type, donor heavy atom, donor atom, acceptor molecule, acceptor atom, score
      L1  H     9    35       P1  7948  2.00
      L1  H    13    30       P1  7948  1.00
      P1  H  7989  7998       L1    17  0.23
      P1  H  7997  8008       L1    17  0.96
      L1  C     5    24       P1 10186  1.00
      L1  C     7    26       P1 10747  0.93

> <Gold.PLP.Chemscore.Internal.Correction>
0.0653

> <Gold.Rescore>
     Score         DG    S(hbond)    S(metal)    S(lipo)     H(rot)  DE(clash)    DE(int)     intcor
     14.08     -14.91       2.97        0.00      59.09       2.89       0.04       0.80       ----

> <Gold.Chemscore.Fitness>
14.0808

> <Gold.Chemscore.DG>
-14.9150

> <Gold.Chemscore.ZeroCoef>
-5.4800

> <Gold.Chemscore.Hbond>
2.9696

> <Gold.Chemscore.Metal>
0.0000

> <Gold.Chemscore.Lipo>
59.0869

> <Gold.Chemscore.Internal_Hbond>
0.0000

> <Gold.Chemscore.DEClash>
0.0354

> <Gold.Chemscore.DEInternal>
0.7988

> <Gold.Chemscore.Rot>
2.8894

> <Gold.Chemscore.Internal.Correction>
   9.000000E+99

> <Gold.Chemscore.Hbonds>
donor molecule, donor type, donor heavy atom, donor atom, acceptor molecule, acceptor atom, score
      L1  H     9    35       P1  7948  0.98
      L1  H    13    30       P1  7948  0.95
      P1  H  7989  7998       L1    17  0.01
      P1  H  7997  8008       L1    17  0.91

> <Gold.Chemscore.Hbond.Weighted>
-9.9186

> <Gold.Chemscore.Metal.Weighted>
-0.0000

> <Gold.Chemscore.Lipo.Weighted>
-6.9132

> <Gold.Chemscore.Internal_Hbond.Weighted>
0.0000

> <Gold.Chemscore.DEClash.Weighted>
0.0354

> <Gold.Chemscore.DEInternal.Weighted>
0.7988

> <Gold.Chemscore.Rot.Weighted>
7.3968

> <Gold.Chemscore.Internal.Correction.Weighted>
   9.000000E+99

> <Gold.Protein.RotatedTorsions>
[ 6907 6896 6895 6894 ] final  -19.98 input  -60.11 | X-H torsion
[ 7974 7965 7964 7962 ] final  100.32 input  175.53 | X-H torsion
[ 8008 7997 7996 7995 ] final  -18.61 input   59.86 | X-H torsion
[ 10167 10162 10161 10158 ] final  -92.46 input  -65.29 | X-H torsion
[ 10718 10713 10712 10709 ] final   -3.25 input   66.30 | X-H torsion
[ 10763 10752 10751 10750 ] final  142.36 input  -60.55 | X-H torsion
[ 11005 11000 10999 10996 ] final  158.06 input  -57.11 | X-H torsion

> <Gold.Protein.ActiveResidues>
 VAL166  LYS551  ARG553  GLY616  TRP617  ASP618  TYR619  PRO620  LYS621  CYS622 
 ASP623  PHE694  ASN695  SER759  ASP760  ASP761  ALA762  ILE779  LEU786  VAL792 
 PHE793  MET794  SER795  GLU796  ALA797  LYS798  CYS799  TRP800  GLU811  SER814 

> <Gold.Protein.RotatedAtoms>
  151.2549  135.0635  159.9075 H   0  0  0  0  0  0  0  0  0  0  0  0  # atno 6907 bound_to 6896
  152.5374  134.0292  159.8027 H   0  0  0  0  0  0  0  0  0  0  0  0  # atno 6908 bound_to 6896
  151.0506  133.5578  159.2674 H   0  0  0  0  0  0  0  0  0  0  0  0  # atno 6909 bound_to 6896
  145.3872  139.2369  143.3371 H   0  0  0  0  0  0  0  0  0  0  0  0  # atno 7974 bound_to 7965
  154.4894  140.2111  155.9582 H   0  0  0  0  0  0  0  0  0  0  0  0  # atno 8008 bound_to 7997
  156.1283  140.3201  155.8279 H   0  0  0  0  0  0  0  0  0  0  0  0  # atno 8009 bound_to 7997
  155.4342  140.0505  157.3006 H   0  0  0  0  0  0  0  0  0  0  0  0  # atno 8010 bound_to 7997
  140.3345  143.2976  151.9904 H   0  0  0  0  0  0  0  0  0  0  0  0  # atno 10167 bound_to 10162
  156.7789  130.5324  149.5754 H   0  0  0  0  0  0  0  0  0  0  0  0  # atno 10718 bound_to 10713
  153.9545  135.2966  155.3437 H   0  0  0  0  0  0  0  0  0  0  0  0  # atno 10763 bound_to 10752
  154.7408  135.5025  153.9123 H   0  0  0  0  0  0  0  0  0  0  0  0  # atno 10764 bound_to 10752
  153.0977  135.6726  153.9841 H   0  0  0  0  0  0  0  0  0  0  0  0  # atno 10765 bound_to 10752
  140.1829  134.8463  157.2824 H   0  0  0  0  0  0  0  0  0  0  0  0  # atno 11005 bound_to 11000
  146.2815  140.4549  142.8774 LP  0  0  0  0  0  0  0  0  0  0  0  0  # atno 17320 bound_to 7965
  144.8466  140.6938  143.6195 LP  0  0  0  0  0  0  0  0  0  0  0  0  # atno 17321 bound_to 7965
  139.4850  144.6207  151.7260 LP  0  0  0  0  0  0  0  0  0  0  0  0  # atno 17342 bound_to 10162
  140.5366  144.0646  150.6073 LP  0  0  0  0  0  0  0  0  0  0  0  0  # atno 17343 bound_to 10162
  156.1231  130.6124  151.0223 LP  0  0  0  0  0  0  0  0  0  0  0  0  # atno 17370 bound_to 10713
  157.6656  131.0872  150.7736 LP  0  0  0  0  0  0  0  0  0  0  0  0  # atno 17371 bound_to 10713
  140.2247  134.3981  155.7549 LP  0  0  0  0  0  0  0  0  0  0  0  0  # atno 17394 bound_to 11000
  141.2224  133.7184  156.8545 LP  0  0  0  0  0  0  0  0  0  0  0  0  # atno 17395 bound_to 11000

$$$$
