AV-unprocessed.smi:1774|AV-procd|sdf|7164|dock5
  -GOLD-   22720 8403D 1   1.00000     0.00000
 Structure written by MMmdl.
 45 46  0  0  0  0  0  0  0  0  1 V2000
  147.7002  133.0293  152.4935 C   0  0  0  0  0  0  0  0  0  0  0  0
  146.3727  133.0300  151.7530 C   0  0  0  0  0  0  0  0  0  0  0  0
  145.7413  131.8009  151.4663 C   0  0  0  0  0  0  0  0  0  0  0  0
  144.5150  131.8035  150.7800 C   0  0  0  0  0  0  0  0  0  0  0  0
  143.9684  133.0431  150.4066 C   0  0  0  0  0  0  0  0  0  0  0  0
  144.5645  134.2221  150.6765 N   0  0  0  0  0  0  0  0  0  0  0  0
  145.7488  134.2376  151.3385 C   0  0  0  0  0  0  0  0  0  0  0  0
  146.4300  135.4442  151.6652 N   0  0  0  0  0  0  0  0  0  0  0  0
  145.9102  136.6113  152.0848 C   0  0  0  0  0  0  0  0  0  0  0  0
  144.7093  136.8512  152.2131 O   0  0  0  0  0  0  0  0  0  0  0  0
  146.8766  137.5035  152.3475 N   0  0  0  0  0  0  0  0  0  0  0  0
  146.6624  138.8581  152.8474 C   0  0  0  0  0  0  0  0  0  0  0  0
  147.2500  139.0429  154.2607 C   0  0  0  0  0  0  0  0  0  0  0  0
  148.6021  139.5988  154.3143 N   0  0  0  0  0  0  0  0  0  0  0  0
  149.6331  138.5663  154.3843 C   0  0  0  0  0  0  0  0  0  0  0  0
  151.0479  139.1735  154.4350 C   0  0  2  0  0  0  0  0  0  0  0  0
  152.1332  138.1028  154.5857 C   0  0  0  0  0  0  0  0  0  0  0  0
  151.1343  140.0615  155.5465 O   0  0  0  0  0  0  0  0  0  0  0  0
  150.1729  141.1126  155.5029 C   0  0  2  0  0  0  0  0  0  0  0  0
  150.3733  142.0007  156.7351 C   0  0  0  0  0  0  0  0  0  0  0  0
  148.7603  140.4999  155.4489 C   0  0  0  0  0  0  0  0  0  0  0  0
  148.0329  132.0142  152.7121 H   0  0  0  0  0  0  0  0  0  0  0  0
  147.6102  133.5639  153.4394 H   0  0  0  0  0  0  0  0  0  0  0  0
  148.4721  133.5122  151.8934 H   0  0  0  0  0  0  0  0  0  0  0  0
  146.1889  130.8651  151.7678 H   0  0  0  0  0  0  0  0  0  0  0  0
  144.0065  130.8798  150.5461 H   0  0  0  0  0  0  0  0  0  0  0  0
  143.0281  133.0904  149.8776 H   0  0  0  0  0  0  0  0  0  0  0  0
  147.4348  135.4076  151.5817 H   0  0  0  0  0  0  0  0  0  0  0  0
  147.8351  137.2191  152.2090 H   0  0  0  0  0  0  0  0  0  0  0  0
  147.1744  139.5354  152.1637 H   0  0  0  0  0  0  0  0  0  0  0  0
  145.6095  139.1371  152.8016 H   0  0  0  0  0  0  0  0  0  0  0  0
  146.5740  139.6930  154.8180 H   0  0  0  0  0  0  0  0  0  0  0  0
  147.2332  138.0848  154.7823 H   0  0  0  0  0  0  0  0  0  0  0  0
  149.4717  137.9433  155.2656 H   0  0  0  0  0  0  0  0  0  0  0  0
  149.5687  137.9061  153.5205 H   0  0  0  0  0  0  0  0  0  0  0  0
  151.2356  139.7350  153.5180 H   0  0  0  0  0  0  0  0  0  0  0  0
  152.1142  137.4058  153.7474 H   0  0  0  0  0  0  0  0  0  0  0  0
  151.9974  137.5284  155.5024 H   0  0  0  0  0  0  0  0  0  0  0  0
  153.1245  138.5554  154.6188 H   0  0  0  0  0  0  0  0  0  0  0  0
  150.3452  141.7117  154.6070 H   0  0  0  0  0  0  0  0  0  0  0  0
  149.6637  142.8285  156.7418 H   0  0  0  0  0  0  0  0  0  0  0  0
  151.3779  142.4239  156.7503 H   0  0  0  0  0  0  0  0  0  0  0  0
  150.2366  141.4337  157.6562 H   0  0  0  0  0  0  0  0  0  0  0  0
  148.0235  141.3017  155.3868 H   0  0  0  0  0  0  0  0  0  0  0  0
  148.5597  139.9628  156.3774 H   0  0  0  0  0  0  0  0  0  0  0  0
  1  2  1  0  0  0  0
  1 22  1  0  0  0  0
  1 23  1  0  0  0  0
  1 24  1  0  0  0  0
  2  7  1  0  0  0  0
  2  3  2  0  0  0  0
  3  4  1  0  0  0  0
  3 25  1  0  0  0  0
  4  5  2  0  0  0  0
  4 26  1  0  0  0  0
  5  6  1  0  0  0  0
  5 27  1  0  0  0  0
  6  7  2  0  0  0  0
  7  8  1  0  0  0  0
  8  9  1  0  0  0  0
  8 28  1  0  0  0  0
  9 10  2  0  0  0  0
  9 11  1  0  0  0  0
 11 12  1  0  0  0  0
 11 29  1  0  0  0  0
 12 13  1  0  0  0  0
 12 30  1  0  0  0  0
 12 31  1  0  0  0  0
 13 14  1  0  0  0  0
 13 32  1  0  0  0  0
 13 33  1  0  0  0  0
 14 21  1  0  0  0  0
 14 15  1  0  0  0  0
 15 16  1  0  0  0  0
 15 34  1  0  0  0  0
 15 35  1  0  0  0  0
 16 17  1  0  0  0  0
 16 18  1  0  0  0  0
 16 36  1  0  0  0  0
 17 37  1  0  0  0  0
 17 38  1  0  0  0  0
 17 39  1  0  0  0  0
 18 19  1  0  0  0  0
 19 20  1  0  0  0  0
 19 21  1  0  0  0  0
 19 40  1  0  0  0  0
 20 41  1  0  0  0  0
 20 42  1  0  0  0  0
 20 43  1  0  0  0  0
 21 44  1  0  0  0  0
 21 45  1  0  0  0  0
M  END
> <s_m_source_file>
AV-unprocessed.smi

> <i_m_source_file_index>
1774

> <i_lp_mmshare_version>
43012

> <i_f3d_flags>
0

> <s_epik_input>
W0NIM11jMVtjSF1bY0hdW2NIXW5jMVtOSF1DKD1PKVtOSF1bQ0gyXVtDSDJdTjJbQ0gyXVtDQEBIXShbQ0gzXSlPW0NAQEhdKFtDSDNdKVtDSDJdMg==

> <s_epik_cmdline>
J2VwaWtfcHl0aG9uJywgJy1waCcsICc3LjAnLCAnLXRuJywgJzgnLCAnLW1hJywgJzIwMCcsICctbWV0YWxfYmluZGluZycsICctaW1hZScsICc8aW5maWxlLm1hZT4nLCAnLW9tYWUnLCAnPG91dGZpbGUubWFlPic=

> <r_epik_Ionization_Penalty>
0.266047

> <r_epik_Ionization_Penalty_Charging>
0

> <r_epik_Ionization_Penalty_Neutral>
0.266047

> <r_epik_State_Penalty>
0.257924

> <r_epik_Charging_Adjusted_Penalty>
0.257924

> <i_epik_Tot_Q>
0

> <i_epik_Tot_abs_Q>
0

> <r_epik_Metal_State_Penalty>
0.257922

> <b_epik_Metal_Only>
0

> <s_lp_Force_Field>
OPLS_2005

> <r_lp_Energy>
26.8029

> <b_lp_Chiralities_Consistent>
1

> <s_lp_Variant>
AV-unprocessed.smi:1774-1

> <Gold.Version>
5.8.1

> <Gold.Id.Protein>
6NUR|6NUR_protein|mol2

> <Gold.PLP.Fitness>
43.6924

> <Gold.PLP.PLP>
-36.8222

> <Gold.PLP.part.hbond>
-2.4386

> <Gold.PLP.part.metal>
0.0000

> <Gold.PLP.part.buried>
-5.0928

> <Gold.PLP.part.nonpolar>
-30.6936

> <Gold.PLP.part.repulsive>
0.6414

> <Gold.PLP.ligand.clash>
0.0000

> <Gold.PLP.ligand.torsion>
1.0339

> <Gold.PLP.Chemscore.Hbond>
1.9760

> <Gold.PLP.Chemscore.CHOScore>
1.0000

> <Gold.PLP.Chemscore.Metal>
0.0000

> <Gold.Chemscore.Hbonds>
donor molecule, donor type, donor heavy atom, donor atom, acceptor molecule, acceptor atom, score
      L1  H     8    28       P1  7948  0.96
      L1  H    11    29       P1  7948  0.96
      L1  C     5    27       P1 10186  1.00

> <Gold.PLP.Chemscore.Internal.Correction>
0.0100

> <Gold.Rescore>
     Score         DG    S(hbond)    S(metal)    S(lipo)     H(rot)  DE(clash)    DE(int)     intcor
     16.58     -18.55       1.92        0.00      88.90       1.46       0.04       1.93       ----

> <Gold.Chemscore.Fitness>
16.5755

> <Gold.Chemscore.DG>
-18.5504

> <Gold.Chemscore.ZeroCoef>
-5.4800

> <Gold.Chemscore.Hbond>
1.9153

> <Gold.Chemscore.Metal>
0.0000

> <Gold.Chemscore.Lipo>
88.8996

> <Gold.Chemscore.Internal_Hbond>
0.0000

> <Gold.Chemscore.DEClash>
0.0448

> <Gold.Chemscore.DEInternal>
1.9301

> <Gold.Chemscore.Rot>
1.4562

> <Gold.Chemscore.Internal.Correction>
   9.000000E+99

> <Gold.Chemscore.Hbonds>
donor molecule, donor type, donor heavy atom, donor atom, acceptor molecule, acceptor atom, score
      L1  H     8    28       P1  7948  0.87
      L1  H    11    29       P1  7948  0.89

> <Gold.Chemscore.Hbond.Weighted>
-6.3970

> <Gold.Chemscore.Metal.Weighted>
-0.0000

> <Gold.Chemscore.Lipo.Weighted>
-10.4013

> <Gold.Chemscore.Internal_Hbond.Weighted>
0.0000

> <Gold.Chemscore.DEClash.Weighted>
0.0448

> <Gold.Chemscore.DEInternal.Weighted>
1.9301

> <Gold.Chemscore.Rot.Weighted>
3.7278

> <Gold.Chemscore.Internal.Correction.Weighted>
   9.000000E+99

> <Gold.Protein.RotatedTorsions>
[ 6907 6896 6895 6894 ] final    7.54 input  -60.11 | X-H torsion
[ 7974 7965 7964 7962 ] final  -34.95 input  175.53 | X-H torsion
[ 8008 7997 7996 7995 ] final   89.81 input   59.86 | X-H torsion
[ 10167 10162 10161 10158 ] final  -36.45 input  -65.29 | X-H torsion
[ 10718 10713 10712 10709 ] final   50.77 input   66.30 | X-H torsion
[ 10763 10752 10751 10750 ] final -129.83 input  -60.55 | X-H torsion
[ 11005 11000 10999 10996 ] final -120.64 input  -57.11 | X-H torsion

> <Gold.Protein.ActiveResidues>
 VAL166  LYS551  ARG553  GLY616  TRP617  ASP618  TYR619  PRO620  LYS621  CYS622 
 ASP623  PHE694  ASN695  SER759  ASP760  ASP761  ALA762  ILE779  LEU786  VAL792 
 PHE793  MET794  SER795  GLU796  ALA797  LYS798  CYS799  TRP800  GLU811  SER814 

> <Gold.Protein.RotatedAtoms>
  151.6915  135.0945  160.0234 H   0  0  0  0  0  0  0  0  0  0  0  0  # atno 6907 bound_to 6896
  152.3775  133.6497  159.6144 H   0  0  0  0  0  0  0  0  0  0  0  0  # atno 6908 bound_to 6896
  150.7721  133.9085  159.3403 H   0  0  0  0  0  0  0  0  0  0  0  0  # atno 6909 bound_to 6896
  146.0787  140.6101  142.8918 H   0  0  0  0  0  0  0  0  0  0  0  0  # atno 7974 bound_to 7965
  156.0044  140.3356  155.6877 H   0  0  0  0  0  0  0  0  0  0  0  0  # atno 8008 bound_to 7997
  155.6245  140.0678  157.2686 H   0  0  0  0  0  0  0  0  0  0  0  0  # atno 8009 bound_to 7997
  154.4260  140.1770  156.1395 H   0  0  0  0  0  0  0  0  0  0  0  0  # atno 8010 bound_to 7997
  140.7142  143.3408  151.2362 H   0  0  0  0  0  0  0  0  0  0  0  0  # atno 10167 bound_to 10162
  157.4917  130.8380  149.8210 H   0  0  0  0  0  0  0  0  0  0  0  0  # atno 10718 bound_to 10713
  154.8757  135.3882  154.3983 H   0  0  0  0  0  0  0  0  0  0  0  0  # atno 10763 bound_to 10752
  153.4711  135.7030  153.5998 H   0  0  0  0  0  0  0  0  0  0  0  0  # atno 10764 bound_to 10752
  153.4455  135.3846  155.2221 H   0  0  0  0  0  0  0  0  0  0  0  0  # atno 10765 bound_to 10752
  141.0129  134.0238  157.3389 H   0  0  0  0  0  0  0  0  0  0  0  0  # atno 11005 bound_to 11000
  144.7278  140.4580  143.6960 LP  0  0  0  0  0  0  0  0  0  0  0  0  # atno 17320 bound_to 7965
  145.6259  139.1530  143.2996 LP  0  0  0  0  0  0  0  0  0  0  0  0  # atno 17321 bound_to 7965
  139.6915  143.9684  152.2861 LP  0  0  0  0  0  0  0  0  0  0  0  0  # atno 17342 bound_to 10162
  139.9347  144.6719  150.8327 LP  0  0  0  0  0  0  0  0  0  0  0  0  # atno 17343 bound_to 10162
  156.0177  130.3807  150.2058 LP  0  0  0  0  0  0  0  0  0  0  0  0  # atno 17370 bound_to 10713
  157.0247  130.9990  151.3329 LP  0  0  0  0  0  0  0  0  0  0  0  0  # atno 17371 bound_to 10713
  139.9100  135.0188  156.7651 LP  0  0  0  0  0  0  0  0  0  0  0  0  # atno 17394 bound_to 11000
  140.6704  133.9565  155.7853 LP  0  0  0  0  0  0  0  0  0  0  0  0  # atno 17395 bound_to 11000

$$$$
