AV-unprocessed.smi:17|AV-procd|sdf|105|dock1
  -GOLD-   2262015263D 1   1.00000     0.00000
 Structure written by MMmdl.
 57 59  0  0  0  0  0  0  0  0  1 V2000
  146.2703  131.4336  154.1912 C   0  0  0  0  0  0  0  0  0  0  0  0
  147.7334  131.7044  153.8031 C   0  0  0  0  0  0  0  0  0  0  0  0
  148.6961  130.9411  154.6037 N   0  0  0  0  0  0  0  0  0  0  0  0
  149.5247  131.6387  155.4291 C   0  0  0  0  0  0  0  0  0  0  0  0
  150.1615  130.9836  156.4368 N   0  0  0  0  0  0  0  0  0  0  0  0
  150.9628  131.6421  157.2783 C   0  0  0  0  0  0  0  0  0  0  0  0
  151.2653  132.9406  157.2969 N   0  0  0  0  0  0  0  0  0  0  0  0
  150.6362  133.6063  156.2875 C   0  0  0  0  0  0  0  0  0  0  0  0
  149.7579  133.0413  155.3182 C   0  0  0  0  0  0  0  0  0  0  0  0
  149.3247  134.0357  154.4478 N   0  0  0  0  0  0  0  0  0  0  0  0
  149.9041  135.1214  154.8805 C   0  0  0  0  0  0  0  0  0  0  0  0
  150.7044  134.9542  155.9866 N   0  0  0  0  0  0  0  0  0  0  0  0
  151.4611  135.9824  156.6784 C   0  0  0  0  0  0  0  0  0  0  0  0
  150.5884  137.1981  157.0867 C   0  0  2  0  0  0  0  0  0  0  0  0
  149.4344  136.8288  158.0486 C   0  0  0  0  0  0  0  0  0  0  0  0
  149.9083  136.4869  159.3349 O   0  0  0  0  0  0  0  0  0  0  0  0
  150.1044  138.0813  155.9047 C   0  0  1  0  0  0  0  0  0  0  0  0
  149.5335  139.4367  156.2798 C   0  0  0  0  0  0  0  0  0  0  0  0
  149.4944  140.1339  154.9245 C   0  0  0  0  0  0  0  0  0  0  0  0
  150.6249  139.6432  154.2105 O   0  0  0  0  0  0  0  0  0  0  0  0
  151.1388  138.4734  154.8432 C   0  0  0  0  0  0  0  0  0  0  0  0
  148.5081  129.5003  154.8293 C   0  0  1  0  0  0  0  0  0  0  0  0
  147.4181  129.2247  155.8795 C   0  0  0  0  0  0  0  0  0  0  0  0
  148.2453  128.7225  153.5212 C   0  0  0  0  0  0  0  0  0  0  0  0
  147.9351  126.9170  153.7952 S   0  0  0  0  0  0  0  0  0  0  0  0
  147.7240  126.2727  152.0840 C   0  0  0  0  0  0  0  0  0  0  0  0
  149.1390  126.2983  154.3712 O   0  0  0  0  0  0  0  0  0  0  0  0
  146.6421  126.7800  154.4825 O   0  0  0  0  0  0  0  0  0  0  0  0
  145.5931  131.9843  153.5385 H   0  0  0  0  0  0  0  0  0  0  0  0
  146.0610  131.7441  155.2151 H   0  0  0  0  0  0  0  0  0  0  0  0
  146.0227  130.3757  154.1061 H   0  0  0  0  0  0  0  0  0  0  0  0
  147.8588  131.4502  152.7516 H   0  0  0  0  0  0  0  0  0  0  0  0
  147.9486  132.7696  153.8665 H   0  0  0  0  0  0  0  0  0  0  0  0
  151.4255  131.0427  158.0483 H   0  0  0  0  0  0  0  0  0  0  0  0
  149.7579  136.0812  154.4066 H   0  0  0  0  0  0  0  0  0  0  0  0
  151.9195  135.5188  157.5509 H   0  0  0  0  0  0  0  0  0  0  0  0
  152.2780  136.2914  156.0269 H   0  0  0  0  0  0  0  0  0  0  0  0
  151.2403  137.8489  157.6712 H   0  0  0  0  0  0  0  0  0  0  0  0
  148.7337  137.6581  158.1484 H   0  0  0  0  0  0  0  0  0  0  0  0
  148.8597  135.9913  157.6523 H   0  0  0  0  0  0  0  0  0  0  0  0
  149.6579  137.1696  159.9387 H   0  0  0  0  0  0  0  0  0  0  0  0
  149.3052  137.5407  155.3944 H   0  0  0  0  0  0  0  0  0  0  0  0
  148.5520  139.3735  156.7505 H   0  0  0  0  0  0  0  0  0  0  0  0
  150.1991  139.9820  156.9483 H   0  0  0  0  0  0  0  0  0  0  0  0
  148.5914  139.8546  154.3799 H   0  0  0  0  0  0  0  0  0  0  0  0
  149.5159  141.2204  155.0106 H   0  0  0  0  0  0  0  0  0  0  0  0
  152.0998  138.7316  155.2857 H   0  0  0  0  0  0  0  0  0  0  0  0
  151.3068  137.6796  154.1151 H   0  0  0  0  0  0  0  0  0  0  0  0
  149.4304  129.0834  155.2338 H   0  0  0  0  0  0  0  0  0  0  0  0
  147.3615  128.1612  156.1124 H   0  0  0  0  0  0  0  0  0  0  0  0
  146.4338  129.5376  155.5307 H   0  0  0  0  0  0  0  0  0  0  0  0
  147.6258  129.7507  156.8116 H   0  0  0  0  0  0  0  0  0  0  0  0
  147.3414  129.1155  153.0549 H   0  0  0  0  0  0  0  0  0  0  0  0
  149.0434  128.8385  152.7893 H   0  0  0  0  0  0  0  0  0  0  0  0
  147.4100  125.2301  152.1301 H   0  0  0  0  0  0  0  0  0  0  0  0
  148.6659  126.3310  151.5435 H   0  0  0  0  0  0  0  0  0  0  0  0
  146.9643  126.8541  151.5624 H   0  0  0  0  0  0  0  0  0  0  0  0
  1  2  1  0  0  0  0
  1 29  1  0  0  0  0
  1 30  1  0  0  0  0
  1 31  1  0  0  0  0
  2  3  1  0  0  0  0
  2 32  1  0  0  0  0
  2 33  1  0  0  0  0
  3  4  1  0  0  0  0
  3 22  1  0  0  0  0
  4  9  1  0  0  0  0
  4  5  2  0  0  0  0
  5  6  1  0  0  0  0
  6  7  2  0  0  0  0
  6 34  1  0  0  0  0
  7  8  1  0  0  0  0
  8 12  1  0  0  0  0
  8  9  2  0  0  0  0
  9 10  1  0  0  0  0
 10 11  2  0  0  0  0
 11 12  1  0  0  0  0
 11 35  1  0  0  0  0
 12 13  1  0  0  0  0
 13 14  1  0  0  0  0
 13 36  1  0  0  0  0
 13 37  1  0  0  0  0
 14 15  1  0  0  0  0
 14 17  1  0  0  0  0
 14 38  1  0  0  0  0
 15 16  1  0  0  0  0
 15 39  1  0  0  0  0
 15 40  1  0  0  0  0
 16 41  1  0  0  0  0
 17 21  1  0  0  0  0
 17 18  1  0  0  0  0
 17 42  1  0  0  0  0
 18 19  1  0  0  0  0
 18 43  1  0  0  0  0
 18 44  1  0  0  0  0
 19 20  1  0  0  0  0
 19 45  1  0  0  0  0
 19 46  1  0  0  0  0
 20 21  1  0  0  0  0
 21 47  1  0  0  0  0
 21 48  1  0  0  0  0
 22 23  1  0  0  0  0
 22 24  1  0  0  0  0
 22 49  1  0  0  0  0
 23 50  1  0  0  0  0
 23 51  1  0  0  0  0
 23 52  1  0  0  0  0
 24 25  1  0  0  0  0
 24 53  1  0  0  0  0
 24 54  1  0  0  0  0
 25 26  1  0  0  0  0
 25 27  2  0  0  0  0
 25 28  2  0  0  0  0
 26 55  1  0  0  0  0
 26 56  1  0  0  0  0
 26 57  1  0  0  0  0
M  END
> <s_m_source_file>
AV-unprocessed.smi

> <i_m_source_file_index>
17

> <i_lp_mmshare_version>
43012

> <i_f3d_flags>
0

> <s_epik_input>
W0NIM11TKD1PKSg9TylbQ0gyXVtDQEBIXShbQ0gzXSlOKFtDSDJdW0NIM10pYyhuW2NIXW4xKWMoYzEyKW5bY0hdbjJbQ0gyXVtDQEhdKFtDSDJdW09IXSlbQ0BASF0zW0NIMl1bQ0gyXU9bQ0gyXTM=

> <s_epik_cmdline>
J2VwaWtfcHl0aG9uJywgJy1waCcsICc3LjAnLCAnLXRuJywgJzgnLCAnLW1hJywgJzIwMCcsICctbWV0YWxfYmluZGluZycsICctaW1hZScsICc8aW5maWxlLm1hZT4nLCAnLW9tYWUnLCAnPG91dGZpbGUubWFlPic=

> <r_lp_tautomer_probability>
1

> <r_epik_Ionization_Penalty>
0.00119955

> <r_epik_Ionization_Penalty_Charging>
0

> <r_epik_Ionization_Penalty_Neutral>
0.00119955

> <r_epik_State_Penalty>
0.000665399

> <r_epik_Charging_Adjusted_Penalty>
0.000665399

> <i_epik_Tot_Q>
0

> <i_epik_Tot_abs_Q>
0

> <r_epik_Metal_State_Penalty>
-0

> <b_epik_Metal_Only>
0

> <s_lp_Force_Field>
OPLS_2005

> <r_lp_Energy>
34.6832

> <b_lp_Chiralities_Consistent>
1

> <s_lp_Variant>
AV-unprocessed.smi:17-7

> <Gold.Version>
5.8.1

> <Gold.Id.Protein>
6NUR|6NUR_protein|mol2

> <Gold.PLP.Fitness>
47.2370

> <Gold.PLP.PLP>
-37.8514

> <Gold.PLP.part.hbond>
-3.4544

> <Gold.PLP.part.metal>
0.0000

> <Gold.PLP.part.buried>
-5.4839

> <Gold.PLP.part.nonpolar>
-29.2376

> <Gold.PLP.part.repulsive>
0.3851

> <Gold.PLP.ligand.clash>
0.0000

> <Gold.PLP.ligand.torsion>
1.0437

> <Gold.PLP.Chemscore.Hbond>
2.9040

> <Gold.PLP.Chemscore.CHOScore>
0.3888

> <Gold.PLP.Chemscore.Metal>
0.0000

> <Gold.Chemscore.Hbonds>
donor molecule, donor type, donor heavy atom, donor atom, acceptor molecule, acceptor atom, score
      P1  H  6896  6907       L1     7  0.93
      P1  H  6896  6908       L1    16  1.00
      P1  H  7989  7998       L1    20  1.00
      L1  C    11    35       P1  7948  0.58

> <Gold.PLP.Chemscore.Internal.Correction>
1.5945

> <Gold.Rescore>
     Score         DG    S(hbond)    S(metal)    S(lipo)     H(rot)  DE(clash)    DE(int)     intcor
      9.95     -13.29       2.81        0.00      63.30       3.51       0.03       3.31       ----

> <Gold.Chemscore.Fitness>
9.9510

> <Gold.Chemscore.DG>
-13.2914

> <Gold.Chemscore.ZeroCoef>
-5.4800

> <Gold.Chemscore.Hbond>
2.8085

> <Gold.Chemscore.Metal>
0.0000

> <Gold.Chemscore.Lipo>
63.2977

> <Gold.Chemscore.Internal_Hbond>
0.0000

> <Gold.Chemscore.DEClash>
0.0263

> <Gold.Chemscore.DEInternal>
3.3141

> <Gold.Chemscore.Rot>
3.5059

> <Gold.Chemscore.Internal.Correction>
   9.000000E+99

> <Gold.Chemscore.Hbonds>
donor molecule, donor type, donor heavy atom, donor atom, acceptor molecule, acceptor atom, score
      P1  H  6896  6907       L1     7  0.40
      P1  H  6896  6908       L1    16  1.00
      P1  H  7989  7998       L1    20  0.90

> <Gold.Chemscore.Hbond.Weighted>
-9.3805

> <Gold.Chemscore.Metal.Weighted>
-0.0000

> <Gold.Chemscore.Lipo.Weighted>
-7.4058

> <Gold.Chemscore.Internal_Hbond.Weighted>
0.0000

> <Gold.Chemscore.DEClash.Weighted>
0.0263

> <Gold.Chemscore.DEInternal.Weighted>
3.3141

> <Gold.Chemscore.Rot.Weighted>
8.9750

> <Gold.Chemscore.Internal.Correction.Weighted>
   9.000000E+99

> <Gold.Protein.RotatedTorsions>
[ 6907 6896 6895 6894 ] final -162.06 input  -60.11 | X-H torsion
[ 7974 7965 7964 7962 ] final -139.88 input  175.53 | X-H torsion
[ 8008 7997 7996 7995 ] final  160.63 input   59.86 | X-H torsion
[ 10167 10162 10161 10158 ] final  118.66 input  -65.29 | X-H torsion
[ 10718 10713 10712 10709 ] final -168.97 input   66.30 | X-H torsion
[ 10763 10752 10751 10750 ] final -170.19 input  -60.55 | X-H torsion
[ 11005 11000 10999 10996 ] final -126.66 input  -57.11 | X-H torsion

> <Gold.Protein.ActiveResidues>
 VAL166  LYS551  ARG553  GLY616  TRP617  ASP618  TYR619  PRO620  LYS621  CYS622 
 ASP623  PHE694  ASN695  SER759  ASP760  ASP761  ALA762  ILE779  LEU786  VAL792 
 PHE793  MET794  SER795  GLU796  ALA797  LYS798  CYS799  TRP800  GLU811  SER814 

> <Gold.Protein.RotatedAtoms>
  151.3744  133.3843  159.2702 H   0  0  0  0  0  0  0  0  0  0  0  0  # atno 6907 bound_to 6896
  150.9626  134.9012  159.7750 H   0  0  0  0  0  0  0  0  0  0  0  0  # atno 6908 bound_to 6896
  152.5155  134.3704  159.9368 H   0  0  0  0  0  0  0  0  0  0  0  0  # atno 6909 bound_to 6896
  144.8641  140.6266  143.5309 H   0  0  0  0  0  0  0  0  0  0  0  0  # atno 7974 bound_to 7965
  156.2159  140.1799  156.7590 H   0  0  0  0  0  0  0  0  0  0  0  0  # atno 8008 bound_to 7997
  154.5791  140.0669  156.9107 H   0  0  0  0  0  0  0  0  0  0  0  0  # atno 8009 bound_to 7997
  155.2535  140.3330  155.4282 H   0  0  0  0  0  0  0  0  0  0  0  0  # atno 8010 bound_to 7997
  139.6097  144.7079  151.2873 H   0  0  0  0  0  0  0  0  0  0  0  0  # atno 10167 bound_to 10162
  156.7047  130.9210  151.3083 H   0  0  0  0  0  0  0  0  0  0  0  0  # atno 10718 bound_to 10713
  154.6442  135.2902  155.0066 H   0  0  0  0  0  0  0  0  0  0  0  0  # atno 10763 bound_to 10752
  154.1182  135.6552  153.4902 H   0  0  0  0  0  0  0  0  0  0  0  0  # atno 10764 bound_to 10752
  153.0342  135.5281  154.7322 H   0  0  0  0  0  0  0  0  0  0  0  0  # atno 10765 bound_to 10752
  140.9663  134.0867  157.3916 H   0  0  0  0  0  0  0  0  0  0  0  0  # atno 11005 bound_to 11000
  145.4254  139.1557  143.4051 LP  0  0  0  0  0  0  0  0  0  0  0  0  # atno 17320 bound_to 7965
  146.2883  140.4367  142.8749 LP  0  0  0  0  0  0  0  0  0  0  0  0  # atno 17321 bound_to 7965
  140.7310  143.6864  150.7958 LP  0  0  0  0  0  0  0  0  0  0  0  0  # atno 17342 bound_to 10162
  140.0456  143.5302  152.2698 LP  0  0  0  0  0  0  0  0  0  0  0  0  # atno 17343 bound_to 10162
  157.6959  130.9282  150.0644 LP  0  0  0  0  0  0  0  0  0  0  0  0  # atno 17370 bound_to 10713
  156.1703  130.3646  149.9174 LP  0  0  0  0  0  0  0  0  0  0  0  0  # atno 17371 bound_to 10713
  139.8896  135.0106  156.6686 LP  0  0  0  0  0  0  0  0  0  0  0  0  # atno 17394 bound_to 11000
  140.7394  133.8990  155.8267 LP  0  0  0  0  0  0  0  0  0  0  0  0  # atno 17395 bound_to 11000

$$$$
