AV-unprocessed.smi:1187|AV-procd|sdf|4976|dock4
  -GOLD-   22720 3573D 1   1.00000     0.00000
 Structure written by MMmdl.
 38 39  0  0  0  0  0  0  0  0  1 V2000
  150.5358  142.0950  158.0100 C   0  0  0  0  0  0  0  0  0  0  0  0
  151.0982  141.5392  156.8263 O   0  0  0  0  0  0  0  0  0  0  0  0
  150.4110  140.5275  156.1873 C   0  0  0  0  0  0  0  0  0  0  0  0
  149.3750  139.8717  156.8817 C   0  0  0  0  0  0  0  0  0  0  0  0
  148.6709  138.8360  156.2376 C   0  0  0  0  0  0  0  0  0  0  0  0
  149.0333  138.4827  154.9158 C   0  0  0  0  0  0  0  0  0  0  0  0
  148.3938  137.4692  154.1523 N   0  0  0  0  0  0  0  0  0  0  0  0
  147.2250  136.8503  154.3914 C   0  0  0  0  0  0  0  0  0  0  0  0
  146.4832  137.0696  155.3488 O   0  0  0  0  0  0  0  0  0  0  0  0
  146.9639  135.9308  153.4505 N   0  0  0  0  0  0  0  0  0  0  0  0
  145.7756  135.0805  153.4095 C   0  0  0  0  0  0  0  0  0  0  0  0
  145.0156  135.1540  152.0721 C   0  0  0  0  0  0  0  0  0  0  0  0
  144.5325  136.2239  151.6966 O   0  0  0  0  0  0  0  0  0  0  0  0
  144.9152  134.0274  151.3366 N   0  0  0  0  0  0  0  0  0  0  0  0
  144.2290  133.9053  150.0508 C   0  0  0  0  0  0  0  0  0  0  0  0
  144.1683  132.4062  149.7557 C   0  0  0  0  0  0  0  0  0  0  0  0
  145.3455  131.8260  150.5268 C   0  0  0  0  0  0  0  0  0  0  0  0
  145.4848  132.7437  151.7418 C   0  0  0  0  0  0  0  0  0  0  0  0
  150.0739  139.2114  154.3038 C   0  0  0  0  0  0  0  0  0  0  0  0
  150.7531  140.2041  154.9157 N   0  0  0  0  0  0  0  0  0  0  0  0
  151.1943  142.8754  158.3909 H   0  0  0  0  0  0  0  0  0  0  0  0
  150.4274  141.3430  158.7927 H   0  0  0  0  0  0  0  0  0  0  0  0
  149.5638  142.5498  157.8129 H   0  0  0  0  0  0  0  0  0  0  0  0
  149.1225  140.1602  157.8913 H   0  0  0  0  0  0  0  0  0  0  0  0
  147.8653  138.3476  156.7635 H   0  0  0  0  0  0  0  0  0  0  0  0
  148.9214  137.1277  153.3624 H   0  0  0  0  0  0  0  0  0  0  0  0
  147.6276  135.8175  152.6987 H   0  0  0  0  0  0  0  0  0  0  0  0
  146.0951  134.0513  153.5738 H   0  0  0  0  0  0  0  0  0  0  0  0
  145.1102  135.3403  154.2344 H   0  0  0  0  0  0  0  0  0  0  0  0
  143.2288  134.3398  150.0702 H   0  0  0  0  0  0  0  0  0  0  0  0
  144.8117  134.4203  149.2855 H   0  0  0  0  0  0  0  0  0  0  0  0
  143.2377  131.9947  150.1490 H   0  0  0  0  0  0  0  0  0  0  0  0
  144.2083  132.1824  148.6893 H   0  0  0  0  0  0  0  0  0  0  0  0
  145.1980  130.7810  150.8009 H   0  0  0  0  0  0  0  0  0  0  0  0
  146.2475  131.8880  149.9166 H   0  0  0  0  0  0  0  0  0  0  0  0
  146.5269  132.8353  152.0525 H   0  0  0  0  0  0  0  0  0  0  0  0
  144.9122  132.3524  152.5841 H   0  0  0  0  0  0  0  0  0  0  0  0
  150.3776  138.9885  153.2911 H   0  0  0  0  0  0  0  0  0  0  0  0
  1  2  1  0  0  0  0
  1 21  1  0  0  0  0
  1 22  1  0  0  0  0
  1 23  1  0  0  0  0
  2  3  1  0  0  0  0
  3 20  1  0  0  0  0
  3  4  2  0  0  0  0
  4  5  1  0  0  0  0
  4 24  1  0  0  0  0
  5  6  2  0  0  0  0
  5 25  1  0  0  0  0
  6  7  1  0  0  0  0
  6 19  1  0  0  0  0
  7  8  1  0  0  0  0
  7 26  1  0  0  0  0
  8  9  2  0  0  0  0
  8 10  1  0  0  0  0
 10 11  1  0  0  0  0
 10 27  1  0  0  0  0
 11 12  1  0  0  0  0
 11 28  1  0  0  0  0
 11 29  1  0  0  0  0
 12 13  2  0  0  0  0
 12 14  1  0  0  0  0
 14 18  1  0  0  0  0
 14 15  1  0  0  0  0
 15 16  1  0  0  0  0
 15 30  1  0  0  0  0
 15 31  1  0  0  0  0
 16 17  1  0  0  0  0
 16 32  1  0  0  0  0
 16 33  1  0  0  0  0
 17 18  1  0  0  0  0
 17 34  1  0  0  0  0
 17 35  1  0  0  0  0
 18 36  1  0  0  0  0
 18 37  1  0  0  0  0
 19 20  2  0  0  0  0
 19 38  1  0  0  0  0
M  END
> <s_m_source_file>
AV-unprocessed.smi

> <i_m_source_file_index>
1187

> <i_lp_mmshare_version>
43012

> <i_f3d_flags>
0

> <s_epik_input>
W0NIM11PYzFbY0hdW2NIXWMoW2NIXW4xKVtOSF1DKD1PKVtOSF1bQ0gyXUMoPU8pTjJbQ0gyXVtDSDJdW0NIMl1bQ0gyXTI=

> <s_epik_cmdline>
J2VwaWtfcHl0aG9uJywgJy1waCcsICc3LjAnLCAnLXRuJywgJzgnLCAnLW1hJywgJzIwMCcsICctbWV0YWxfYmluZGluZycsICctaW1hZScsICc8aW5maWxlLm1hZT4nLCAnLW9tYWUnLCAnPG91dGZpbGUubWFlPic=

> <r_lp_tautomer_probability>
1

> <r_epik_Ionization_Penalty>
0.000141675

> <r_epik_Ionization_Penalty_Charging>
0

> <r_epik_Ionization_Penalty_Neutral>
0.000141675

> <r_epik_State_Penalty>
-0

> <r_epik_Charging_Adjusted_Penalty>
0

> <i_epik_Tot_Q>
0

> <i_epik_Tot_abs_Q>
0

> <r_epik_Metal_State_Penalty>
-0

> <b_epik_Metal_Only>
0

> <s_lp_Force_Field>
OPLS_2005

> <r_lp_Energy>
27.0256

> <b_lp_Chiralities_Consistent>
1

> <s_lp_Variant>
AV-unprocessed.smi:1187-1

> <Gold.Version>
5.8.1

> <Gold.Id.Protein>
6NUR|6NUR_protein|mol2

> <Gold.PLP.Fitness>
38.3473

> <Gold.PLP.PLP>
-26.8738

> <Gold.PLP.part.hbond>
-3.0000

> <Gold.PLP.part.metal>
0.0000

> <Gold.PLP.part.buried>
-4.9133

> <Gold.PLP.part.nonpolar>
-20.0078

> <Gold.PLP.part.repulsive>
0.5312

> <Gold.PLP.ligand.clash>
0.0000

> <Gold.PLP.ligand.torsion>
0.2622

> <Gold.PLP.Chemscore.Hbond>
3.0000

> <Gold.PLP.Chemscore.CHOScore>
0.9968

> <Gold.PLP.Chemscore.Metal>
0.0000

> <Gold.Chemscore.Hbonds>
donor molecule, donor type, donor heavy atom, donor atom, acceptor molecule, acceptor atom, score
      L1  H     7    26       P1  7948  1.00
      L1  H    10    27       P1  7948  1.00
      P1  H  7989  7998       L1    20  0.95
      L1  C    19    38       P1  7957  0.99

> <Gold.PLP.Chemscore.Internal.Correction>
0.0074

> <Gold.Rescore>
     Score         DG    S(hbond)    S(metal)    S(lipo)     H(rot)  DE(clash)    DE(int)     intcor
     16.06     -17.38       2.77        0.00      57.11       1.58       0.02       1.30       ----

> <Gold.Chemscore.Fitness>
16.0633

> <Gold.Chemscore.DG>
-17.3825

> <Gold.Chemscore.ZeroCoef>
-5.4800

> <Gold.Chemscore.Hbond>
2.7744

> <Gold.Chemscore.Metal>
0.0000

> <Gold.Chemscore.Lipo>
57.1112

> <Gold.Chemscore.Internal_Hbond>
0.0000

> <Gold.Chemscore.DEClash>
0.0202

> <Gold.Chemscore.DEInternal>
1.2990

> <Gold.Chemscore.Rot>
1.5804

> <Gold.Chemscore.Internal.Correction>
   9.000000E+99

> <Gold.Chemscore.Hbonds>
donor molecule, donor type, donor heavy atom, donor atom, acceptor molecule, acceptor atom, score
      L1  H     7    26       P1  7948  0.94
      L1  H    10    27       P1  7948  0.97
      P1  H  7989  7998       L1    20  0.21

> <Gold.Chemscore.Hbond.Weighted>
-9.2664

> <Gold.Chemscore.Metal.Weighted>
-0.0000

> <Gold.Chemscore.Lipo.Weighted>
-6.6820

> <Gold.Chemscore.Internal_Hbond.Weighted>
0.0000

> <Gold.Chemscore.DEClash.Weighted>
0.0202

> <Gold.Chemscore.DEInternal.Weighted>
1.2990

> <Gold.Chemscore.Rot.Weighted>
4.0459

> <Gold.Chemscore.Internal.Correction.Weighted>
   9.000000E+99

> <Gold.Protein.RotatedTorsions>
[ 6907 6896 6895 6894 ] final  -45.00 input  -60.11 | X-H torsion
[ 7974 7965 7964 7962 ] final -158.58 input  175.53 | X-H torsion
[ 8008 7997 7996 7995 ] final   40.56 input   59.86 | X-H torsion
[ 10167 10162 10161 10158 ] final   64.51 input  -65.29 | X-H torsion
[ 10718 10713 10712 10709 ] final  -67.28 input   66.30 | X-H torsion
[ 10763 10752 10751 10750 ] final   98.40 input  -60.55 | X-H torsion
[ 11005 11000 10999 10996 ] final -151.76 input  -57.11 | X-H torsion

> <Gold.Protein.ActiveResidues>
 VAL166  LYS551  ARG553  GLY616  TRP617  ASP618  TYR619  PRO620  LYS621  CYS622 
 ASP623  PHE694  ASN695  SER759  ASP760  ASP761  ALA762  ILE779  LEU786  VAL792 
 PHE793  MET794  SER795  GLU796  ALA797  LYS798  CYS799  TRP800  GLU811  SER814 

> <Gold.Protein.RotatedAtoms>
  150.9267  134.8683  159.7524 H   0  0  0  0  0  0  0  0  0  0  0  0  # atno 6907 bound_to 6896
  152.5018  134.4139  159.9468 H   0  0  0  0  0  0  0  0  0  0  0  0  # atno 6908 bound_to 6896
  151.4169  133.3670  159.2786 H   0  0  0  0  0  0  0  0  0  0  0  0  # atno 6909 bound_to 6896
  144.7499  140.3806  143.6056 H   0  0  0  0  0  0  0  0  0  0  0  0  # atno 7974 bound_to 7965
  155.2551  140.3355  155.4278 H   0  0  0  0  0  0  0  0  0  0  0  0  # atno 8008 bound_to 7997
  156.2199  140.1804  156.7545 H   0  0  0  0  0  0  0  0  0  0  0  0  # atno 8009 bound_to 7997
  154.5809  140.0654  156.9087 H   0  0  0  0  0  0  0  0  0  0  0  0  # atno 8010 bound_to 7997
  140.1213  144.4728  150.6918 H   0  0  0  0  0  0  0  0  0  0  0  0  # atno 10167 bound_to 10162
  156.0566  130.4275  150.1831 H   0  0  0  0  0  0  0  0  0  0  0  0  # atno 10718 bound_to 10713
  153.2886  135.4150  155.1145 H   0  0  0  0  0  0  0  0  0  0  0  0  # atno 10763 bound_to 10752
  154.8513  135.3512  154.6013 H   0  0  0  0  0  0  0  0  0  0  0  0  # atno 10764 bound_to 10752
  153.6435  135.7056  153.5291 H   0  0  0  0  0  0  0  0  0  0  0  0  # atno 10765 bound_to 10752
  140.7262  134.3672  157.5175 H   0  0  0  0  0  0  0  0  0  0  0  0  # atno 11005 bound_to 11000
  145.6981  139.1654  143.2608 LP  0  0  0  0  0  0  0  0  0  0  0  0  # atno 17320 bound_to 7965
  146.1435  140.7025  142.9355 LP  0  0  0  0  0  0  0  0  0  0  0  0  # atno 17321 bound_to 7965
  140.6870  143.2355  151.5233 LP  0  0  0  0  0  0  0  0  0  0  0  0  # atno 17342 bound_to 10162
  139.5567  144.2258  152.1624 LP  0  0  0  0  0  0  0  0  0  0  0  0  # atno 17343 bound_to 10162
  156.9906  130.9892  151.3415 LP  0  0  0  0  0  0  0  0  0  0  0  0  # atno 17370 bound_to 10713
  157.5541  130.8202  149.8182 LP  0  0  0  0  0  0  0  0  0  0  0  0  # atno 17371 bound_to 10713
  139.8837  134.8988  156.2752 LP  0  0  0  0  0  0  0  0  0  0  0  0  # atno 17394 bound_to 11000
  140.9961  133.7179  156.0888 LP  0  0  0  0  0  0  0  0  0  0  0  0  # atno 17395 bound_to 11000

$$$$
