AV-unprocessed.smi:837|AV-procd|sdf|3899|dock8
  -GOLD-   22720 1353D 1   1.00000     0.00000
 Structure written by MMmdl.
 50 52  0  0  0  0  0  0  0  0  2 V2000
  146.4793  133.6473  154.0212 C   0  0  0  0  0  0  0  0  0  0  0  0
  146.0975  133.0509  152.6491 C   0  0  1  0  0  0  0  0  0  0  0  0
  145.9599  131.5165  152.7557 C   0  0  0  0  0  0  0  0  0  0  0  0
  145.6482  130.8700  151.3969 C   0  0  0  0  0  0  0  0  0  0  0  0
  144.3891  131.4768  150.7628 C   0  0  0  0  0  0  0  0  0  0  0  0
  144.5175  133.0033  150.6369 C   0  0  0  0  0  0  0  0  0  0  0  0
  144.8230  133.6729  151.9984 C   0  0  1  0  0  0  0  0  0  0  0  0
  143.6674  133.6089  152.8782 N   0  0  0  0  0  0  0  0  0  0  0  0
  143.1724  134.8161  153.1773 C   0  0  0  0  0  0  0  0  0  0  0  0
  142.2038  135.0245  153.9067 O   0  0  0  0  0  0  0  0  0  0  0  0
  143.9196  135.7466  152.5558 N   0  0  0  0  0  0  0  0  0  0  0  0
  143.7110  137.1937  152.6893 C   0  0  0  0  0  0  0  0  0  0  0  0
  144.9628  137.9310  153.1846 C   0  0  0  0  0  0  0  0  0  0  0  0
  145.3207  137.8489  154.3603 O   0  0  0  0  0  0  0  0  0  0  0  0
  145.6206  138.6547  152.2670 N   0  0  0  0  0  0  0  0  0  0  0  0
  146.8048  139.4683  152.5271 C   0  0  0  0  0  0  0  0  0  0  0  0
  147.7996  138.7952  153.4958 C   0  0  0  0  0  0  0  0  0  0  0  0
  148.6917  139.7792  154.2339 C   0  0  0  0  0  0  0  0  0  0  0  0
  149.9205  139.3589  154.7906 C   0  0  0  0  0  0  0  0  0  0  0  0
  150.7211  140.2904  155.4832 C   0  0  0  0  0  0  0  0  0  0  0  0
  150.2758  141.6226  155.6028 C   0  0  0  0  0  0  0  0  0  0  0  0
  149.0959  141.9890  155.0556 N   0  3  0  0  0  0  0  0  0  0  0  0
  148.3006  141.1271  154.3842 C   0  0  0  0  0  0  0  0  0  0  0  0
  144.9092  135.1867  151.8462 C   0  0  0  0  0  0  0  0  0  0  0  0
  145.7693  135.7660  151.1826 O   0  0  0  0  0  0  0  0  0  0  0  0
  145.6934  133.4945  154.7611 H   0  0  0  0  0  0  0  0  0  0  0  0
  146.6753  134.7178  153.9595 H   0  0  0  0  0  0  0  0  0  0  0  0
  147.3860  133.1815  154.4073 H   0  0  0  0  0  0  0  0  0  0  0  0
  146.9354  133.2484  151.9782 H   0  0  0  0  0  0  0  0  0  0  0  0
  146.8809  131.0882  153.1527 H   0  0  0  0  0  0  0  0  0  0  0  0
  145.1740  131.2623  153.4681 H   0  0  0  0  0  0  0  0  0  0  0  0
  146.4969  131.0061  150.7255 H   0  0  0  0  0  0  0  0  0  0  0  0
  145.5199  129.7941  151.5184 H   0  0  0  0  0  0  0  0  0  0  0  0
  144.2210  131.0370  149.7794 H   0  0  0  0  0  0  0  0  0  0  0  0
  143.5154  131.2253  151.3651 H   0  0  0  0  0  0  0  0  0  0  0  0
  145.3150  133.2322  149.9280 H   0  0  0  0  0  0  0  0  0  0  0  0
  143.6023  133.4109  150.2045 H   0  0  0  0  0  0  0  0  0  0  0  0
  143.2904  132.7368  153.2202 H   0  0  0  0  0  0  0  0  0  0  0  0
  143.4087  137.6288  151.7355 H   0  0  0  0  0  0  0  0  0  0  0  0
  142.8824  137.3769  153.3759 H   0  0  0  0  0  0  0  0  0  0  0  0
  145.2655  138.6547  151.3216 H   0  0  0  0  0  0  0  0  0  0  0  0
  147.2998  139.7266  151.5896 H   0  0  0  0  0  0  0  0  0  0  0  0
  146.4591  140.4073  152.9602 H   0  0  0  0  0  0  0  0  0  0  0  0
  147.2530  138.1972  154.2264 H   0  0  0  0  0  0  0  0  0  0  0  0
  148.4280  138.0924  152.9476 H   0  0  0  0  0  0  0  0  0  0  0  0
  150.2435  138.3318  154.6978 H   0  0  0  0  0  0  0  0  0  0  0  0
  151.6607  139.9841  155.9198 H   0  0  0  0  0  0  0  0  0  0  0  0
  150.8232  142.3998  156.1162 H   0  0  0  0  0  0  0  0  0  0  0  0
  147.3802  141.5382  153.9950 H   0  0  0  0  0  0  0  0  0  0  0  0
  148.7917  142.9579  155.1546 H   0  0  0  0  0  0  0  0  0  0  0  0
  1  2  1  0  0  0  0
  1 26  1  0  0  0  0
  1 27  1  0  0  0  0
  1 28  1  0  0  0  0
  2  7  1  0  0  0  0
  2  3  1  0  0  0  0
  2 29  1  0  0  0  0
  3  4  1  0  0  0  0
  3 30  1  0  0  0  0
  3 31  1  0  0  0  0
  4  5  1  0  0  0  0
  4 32  1  0  0  0  0
  4 33  1  0  0  0  0
  5  6  1  0  0  0  0
  5 34  1  0  0  0  0
  5 35  1  0  0  0  0
  6  7  1  0  0  0  0
  6 36  1  0  0  0  0
  6 37  1  0  0  0  0
  7 24  1  0  0  0  0
  7  8  1  0  0  0  0
  8  9  1  0  0  0  0
  8 38  1  0  0  0  0
  9 10  2  0  0  0  0
  9 11  1  0  0  0  0
 11 12  1  0  0  0  0
 11 24  1  0  0  0  0
 12 13  1  0  0  0  0
 12 39  1  0  0  0  0
 12 40  1  0  0  0  0
 13 14  2  0  0  0  0
 13 15  1  0  0  0  0
 15 16  1  0  0  0  0
 15 41  1  0  0  0  0
 16 17  1  0  0  0  0
 16 42  1  0  0  0  0
 16 43  1  0  0  0  0
 17 18  1  0  0  0  0
 17 44  1  0  0  0  0
 17 45  1  0  0  0  0
 18 23  1  0  0  0  0
 18 19  2  0  0  0  0
 19 20  1  0  0  0  0
 19 46  1  0  0  0  0
 20 21  2  0  0  0  0
 20 47  1  0  0  0  0
 21 22  1  0  0  0  0
 21 48  1  0  0  0  0
 22 23  2  0  0  0  0
 22 50  1  0  0  0  0
 23 49  1  0  0  0  0
 24 25  2  0  0  0  0
M  CHG  1  22   1
M  END
> <s_m_source_file>
AV-unprocessed.smi

> <i_m_source_file_index>
837

> <i_lp_mmshare_version>
43012

> <i_f3d_flags>
0

> <s_epik_input>
W0NIMl0xW0NIMl1bQ0gyXVtDSDJdW0NAQEhdKFtDSDNdKVtDQEBdMTJbTkhdQyg9TylOKEMyPU8pW0NIMl1DKD1PKVtOSF1bQ0gyXVtDSDJdYzNbY0hdW2NIXVtjSF1uW2NIXTM=

> <s_epik_cmdline>
J2VwaWtfcHl0aG9uJywgJy1waCcsICc3LjAnLCAnLXRuJywgJzgnLCAnLW1hJywgJzIwMCcsICctbWV0YWxfYmluZGluZycsICctaW1hZScsICc8aW5maWxlLm1hZT4nLCAnLW9tYWUnLCAnPG91dGZpbGUubWFlPic=

> <r_lp_tautomer_probability>
1

> <r_epik_Ionization_Penalty>
2.28139

> <r_epik_Ionization_Penalty_Charging>
2.28135

> <r_epik_Ionization_Penalty_Neutral>
4.65525e-05

> <r_epik_State_Penalty>
2.43066

> <r_epik_Charging_Adjusted_Penalty>
4.71201

> <i_epik_Tot_Q>
1

> <i_epik_Tot_abs_Q>
1

> <r_epik_Metal_State_Penalty>
2.4646

> <b_epik_Metal_Only>
0

> <s_lp_Force_Field>
OPLS_2005

> <r_lp_Energy>
30.2127

> <b_lp_Chiralities_Consistent>
1

> <s_lp_Variant>
AV-unprocessed.smi:837-8

> <Gold.Version>
5.8.1

> <Gold.Id.Protein>
6NUR|6NUR_protein|mol2

> <Gold.PLP.Fitness>
52.0556

> <Gold.PLP.PLP>
-41.7590

> <Gold.PLP.part.hbond>
-4.0000

> <Gold.PLP.part.metal>
0.0000

> <Gold.PLP.part.buried>
-1.7625

> <Gold.PLP.part.nonpolar>
-35.3752

> <Gold.PLP.part.repulsive>
0.6875

> <Gold.PLP.ligand.clash>
0.0000

> <Gold.PLP.ligand.torsion>
0.7749

> <Gold.PLP.Chemscore.Hbond>
3.9353

> <Gold.PLP.Chemscore.CHOScore>
0.0000

> <Gold.PLP.Chemscore.Metal>
0.0000

> <Gold.Chemscore.Hbonds>
donor molecule, donor type, donor heavy atom, donor atom, acceptor molecule, acceptor atom, score
      L1  H     8    38       P1 10957  0.93
      L1  H    15    41       P1 10171  0.96
      L1  H    22    50       P1  8028  2.00

> <Gold.PLP.Chemscore.Internal.Correction>
0.0408

> <Gold.Rescore>
     Score         DG    S(hbond)    S(metal)    S(lipo)     H(rot)  DE(clash)    DE(int)     intcor
     15.62     -19.16       2.12        0.00      99.33       1.96       0.55       2.98       ----

> <Gold.Chemscore.Fitness>
15.6184

> <Gold.Chemscore.DG>
-19.1556

> <Gold.Chemscore.ZeroCoef>
-5.4800

> <Gold.Chemscore.Hbond>
2.1201

> <Gold.Chemscore.Metal>
0.0000

> <Gold.Chemscore.Lipo>
99.3325

> <Gold.Chemscore.Internal_Hbond>
0.0000

> <Gold.Chemscore.DEClash>
0.5540

> <Gold.Chemscore.DEInternal>
2.9832

> <Gold.Chemscore.Rot>
1.9638

> <Gold.Chemscore.Internal.Correction>
   9.000000E+99

> <Gold.Chemscore.Hbonds>
donor molecule, donor type, donor heavy atom, donor atom, acceptor molecule, acceptor atom, score
      L1  H     8    38       P1 10957  0.36
      L1  H    15    41       P1 10171  0.90
      L1  H    22    50       P1  8028  0.99

> <Gold.Chemscore.Hbond.Weighted>
-7.0811

> <Gold.Chemscore.Metal.Weighted>
-0.0000

> <Gold.Chemscore.Lipo.Weighted>
-11.6219

> <Gold.Chemscore.Internal_Hbond.Weighted>
0.0000

> <Gold.Chemscore.DEClash.Weighted>
0.5540

> <Gold.Chemscore.DEInternal.Weighted>
2.9832

> <Gold.Chemscore.Rot.Weighted>
5.0274

> <Gold.Chemscore.Internal.Correction.Weighted>
   9.000000E+99

> <Gold.Protein.RotatedTorsions>
[ 6907 6896 6895 6894 ] final  152.95 input  -60.11 | X-H torsion
[ 7974 7965 7964 7962 ] final   45.00 input  175.53 | X-H torsion
[ 8008 7997 7996 7995 ] final -138.21 input   59.86 | X-H torsion
[ 10167 10162 10161 10158 ] final  157.62 input  -65.29 | X-H torsion
[ 10718 10713 10712 10709 ] final   98.65 input   66.30 | X-H torsion
[ 10763 10752 10751 10750 ] final    6.09 input  -60.55 | X-H torsion
[ 11005 11000 10999 10996 ] final  117.90 input  -57.11 | X-H torsion

> <Gold.Protein.ActiveResidues>
 VAL166  LYS551  ARG553  GLY616  TRP617  ASP618  TYR619  PRO620  LYS621  CYS622 
 ASP623  PHE694  ASN695  SER759  ASP760  ASP761  ALA762  ILE779  LEU786  VAL792 
 PHE793  MET794  SER795  GLU796  ALA797  LYS798  CYS799  TRP800  GLU811  SER814 

> <Gold.Protein.RotatedAtoms>
  152.0796  133.4146  159.4494 H   0  0  0  0  0  0  0  0  0  0  0  0  # atno 6907 bound_to 6896
  150.6862  134.2998  159.4710 H   0  0  0  0  0  0  0  0  0  0  0  0  # atno 6908 bound_to 6896
  152.0838  134.9453  160.0623 H   0  0  0  0  0  0  0  0  0  0  0  0  # atno 6909 bound_to 6896
  146.0519  139.5012  142.9713 H   0  0  0  0  0  0  0  0  0  0  0  0  # atno 7974 bound_to 7965
  155.4246  140.0521  157.3023 H   0  0  0  0  0  0  0  0  0  0  0  0  # atno 8008 bound_to 7997
  154.4887  140.2111  155.9555 H   0  0  0  0  0  0  0  0  0  0  0  0  # atno 8009 bound_to 7997
  156.1311  140.3171  155.8356 H   0  0  0  0  0  0  0  0  0  0  0  0  # atno 8010 bound_to 7997
  139.4823  144.4900  151.8321 H   0  0  0  0  0  0  0  0  0  0  0  0  # atno 10167 bound_to 10162
  157.6891  131.0646  150.4829 H   0  0  0  0  0  0  0  0  0  0  0  0  # atno 10718 bound_to 10713
  153.2518  135.6914  153.7671 H   0  0  0  0  0  0  0  0  0  0  0  0  # atno 10763 bound_to 10752
  153.6763  135.3336  155.3167 H   0  0  0  0  0  0  0  0  0  0  0  0  # atno 10764 bound_to 10752
  154.8397  135.4512  154.1477 H   0  0  0  0  0  0  0  0  0  0  0  0  # atno 10765 bound_to 10752
  139.9090  134.9615  156.7421 H   0  0  0  0  0  0  0  0  0  0  0  0  # atno 11005 bound_to 11000
  145.6710  141.0216  143.1658 LP  0  0  0  0  0  0  0  0  0  0  0  0  # atno 17320 bound_to 7965
  144.7127  139.8310  143.7409 LP  0  0  0  0  0  0  0  0  0  0  0  0  # atno 17321 bound_to 7965
  140.4384  144.2020  150.5890 LP  0  0  0  0  0  0  0  0  0  0  0  0  # atno 17342 bound_to 10162
  140.4708  143.2413  151.9091 LP  0  0  0  0  0  0  0  0  0  0  0  0  # atno 17343 bound_to 10162
  156.5159  130.4150  149.6276 LP  0  0  0  0  0  0  0  0  0  0  0  0  # atno 17370 bound_to 10713
  156.3198  130.7274  151.2184 LP  0  0  0  0  0  0  0  0  0  0  0  0  # atno 17371 bound_to 10713
  140.6841  133.9448  155.7927 LP  0  0  0  0  0  0  0  0  0  0  0  0  # atno 17394 bound_to 11000
  141.0489  134.0514  157.3809 LP  0  0  0  0  0  0  0  0  0  0  0  0  # atno 17395 bound_to 11000

$$$$
