AV-unprocessed.smi:2729|AV-procd|sdf|10526|dock5
  -GOLD-   2272014573D 1   1.00000     0.00000
 Structure written by MMmdl.
 33 34  0  0  0  0  0  0  0  0  1 V2000
  148.4122  140.1271  154.2440 C   0  0  0  0  0  0  0  0  0  0  0  0
  147.6583  141.3520  154.8029 C   0  0  1  0  0  0  0  0  0  0  0  0
  148.5451  142.1628  155.6490 N   0  0  0  0  0  0  0  0  0  0  0  0
  149.5553  141.7526  156.4328 C   0  0  0  0  0  0  0  0  0  0  0  0
  149.8871  140.5756  156.5682 O   0  0  0  0  0  0  0  0  0  0  0  0
  150.1588  142.7998  157.0200 N   0  0  0  0  0  0  0  0  0  0  0  0
  151.2524  142.7969  157.9267 C   0  0  0  0  0  0  0  0  0  0  0  0
  152.0033  143.9462  158.2735 C   0  0  0  0  0  0  0  0  0  0  0  0
  153.0795  143.8091  159.1710 C   0  0  0  0  0  0  0  0  0  0  0  0
  153.3706  142.5296  159.6824 C   0  0  0  0  0  0  0  0  0  0  0  0
  152.6721  141.4235  159.3502 N   0  0  0  0  0  0  0  0  0  0  0  0
  151.6419  141.5626  158.4887 C   0  0  0  0  0  0  0  0  0  0  0  0
  147.0365  142.2090  153.6681 C   0  0  0  0  0  0  0  0  0  0  0  0
  145.9959  143.1655  154.2624 C   0  0  0  0  0  0  0  0  0  0  0  0
  145.2597  142.2705  155.6786 S   0  0  0  0  0  0  0  0  0  0  0  0
  145.4302  143.0804  156.8946 O   0  0  0  0  0  0  0  0  0  0  0  0
  143.9411  141.7412  155.2989 O   0  0  0  0  0  0  0  0  0  0  0  0
  146.4772  140.8978  155.6842 C   0  0  0  0  0  0  0  0  0  0  0  0
  147.7434  139.4735  153.6832 H   0  0  0  0  0  0  0  0  0  0  0  0
  148.8525  139.5343  155.0463 H   0  0  0  0  0  0  0  0  0  0  0  0
  149.2153  140.4159  153.5662 H   0  0  0  0  0  0  0  0  0  0  0  0
  148.3786  143.1581  155.6164 H   0  0  0  0  0  0  0  0  0  0  0  0
  149.8309  143.7134  156.7420 H   0  0  0  0  0  0  0  0  0  0  0  0
  151.7881  144.9198  157.8619 H   0  0  0  0  0  0  0  0  0  0  0  0
  153.6722  144.6656  159.4567 H   0  0  0  0  0  0  0  0  0  0  0  0
  154.1902  142.3900  160.3716 H   0  0  0  0  0  0  0  0  0  0  0  0
  151.1078  140.6562  158.2434 H   0  0  0  0  0  0  0  0  0  0  0  0
  147.7785  142.7457  153.0774 H   0  0  0  0  0  0  0  0  0  0  0  0
  146.5229  141.5444  152.9721 H   0  0  0  0  0  0  0  0  0  0  0  0
  146.4726  144.0694  154.6422 H   0  0  0  0  0  0  0  0  0  0  0  0
  145.2219  143.4506  153.5501 H   0  0  0  0  0  0  0  0  0  0  0  0
  145.9814  140.0275  155.2526 H   0  0  0  0  0  0  0  0  0  0  0  0
  146.7601  140.6475  156.7073 H   0  0  0  0  0  0  0  0  0  0  0  0
  1  2  1  0  0  0  0
  1 19  1  0  0  0  0
  1 20  1  0  0  0  0
  1 21  1  0  0  0  0
  2 18  1  0  0  0  0
  2  3  1  0  0  0  0
  2 13  1  0  0  0  0
  3  4  1  0  0  0  0
  3 22  1  0  0  0  0
  4  5  2  0  0  0  0
  4  6  1  0  0  0  0
  6  7  1  0  0  0  0
  6 23  1  0  0  0  0
  7 12  1  0  0  0  0
  7  8  2  0  0  0  0
  8  9  1  0  0  0  0
  8 24  1  0  0  0  0
  9 10  2  0  0  0  0
  9 25  1  0  0  0  0
 10 11  1  0  0  0  0
 10 26  1  0  0  0  0
 11 12  2  0  0  0  0
 12 27  1  0  0  0  0
 13 14  1  0  0  0  0
 13 28  1  0  0  0  0
 13 29  1  0  0  0  0
 14 15  1  0  0  0  0
 14 30  1  0  0  0  0
 14 31  1  0  0  0  0
 15 16  2  0  0  0  0
 15 17  2  0  0  0  0
 15 18  1  0  0  0  0
 18 32  1  0  0  0  0
 18 33  1  0  0  0  0
M  END
> <s_m_source_file>
AV-unprocessed.smi

> <i_m_source_file_index>
2729

> <i_lp_mmshare_version>
43012

> <i_f3d_flags>
0

> <s_epik_input>
Tz1TKD1PKShbQ0gyXTEpW0NIMl1bQ0gyXVtDQEBdMShbQ0gzXSlbTkhdQyg9TylbTkhdYzJbY0hdW2NIXVtjSF1uW2NIXTI=

> <s_epik_cmdline>
J2VwaWtfcHl0aG9uJywgJy1waCcsICc3LjAnLCAnLXRuJywgJzgnLCAnLW1hJywgJzIwMCcsICctbWV0YWxfYmluZGluZycsICctaW1hZScsICc8aW5maWxlLm1hZT4nLCAnLW9tYWUnLCAnPG91dGZpbGUubWFlPic=

> <r_epik_Ionization_Penalty>
0.00438887

> <r_epik_Ionization_Penalty_Charging>
0

> <r_epik_Ionization_Penalty_Neutral>
0.00438887

> <r_epik_State_Penalty>
0.00314315

> <r_epik_Charging_Adjusted_Penalty>
0.00314315

> <i_epik_Tot_Q>
0

> <i_epik_Tot_abs_Q>
0

> <r_epik_Metal_State_Penalty>
-0

> <b_epik_Metal_Only>
0

> <s_lp_Force_Field>
OPLS_2005

> <r_lp_Energy>
5.02931

> <b_lp_Chiralities_Consistent>
1

> <s_lp_Variant>
AV-unprocessed.smi:2729-1

> <Gold.Version>
5.8.1

> <Gold.Id.Protein>
6NUR|6NUR_protein|mol2

> <Gold.PLP.Fitness>
37.7878

> <Gold.PLP.PLP>
-32.9138

> <Gold.PLP.part.hbond>
-2.0000

> <Gold.PLP.part.metal>
0.0000

> <Gold.PLP.part.buried>
-5.3468

> <Gold.PLP.part.nonpolar>
-26.1052

> <Gold.PLP.part.repulsive>
0.7955

> <Gold.PLP.ligand.clash>
0.0000

> <Gold.PLP.ligand.torsion>
0.5707

> <Gold.PLP.Chemscore.Hbond>
2.0000

> <Gold.PLP.Chemscore.CHOScore>
0.0000

> <Gold.PLP.Chemscore.Metal>
0.0000

> <Gold.Chemscore.Hbonds>
donor molecule, donor type, donor heavy atom, donor atom, acceptor molecule, acceptor atom, score
      L1  H     3    22       P1  8028  1.00
      L1  H     6    23       P1  8028  1.00

> <Gold.PLP.Chemscore.Internal.Correction>
0.0153

> <Gold.Rescore>
     Score         DG    S(hbond)    S(metal)    S(lipo)     H(rot)  DE(clash)    DE(int)     intcor
     15.82     -19.17       1.96        0.00      82.88       1.00       0.13       3.23       ----

> <Gold.Chemscore.Fitness>
15.8164

> <Gold.Chemscore.DG>
-19.1745

> <Gold.Chemscore.ZeroCoef>
-5.4800

> <Gold.Chemscore.Hbond>
1.9633

> <Gold.Chemscore.Metal>
0.0000

> <Gold.Chemscore.Lipo>
82.8815

> <Gold.Chemscore.Internal_Hbond>
0.0000

> <Gold.Chemscore.DEClash>
0.1302

> <Gold.Chemscore.DEInternal>
3.2280

> <Gold.Chemscore.Rot>
1.0000

> <Gold.Chemscore.Internal.Correction>
   9.000000E+99

> <Gold.Chemscore.Hbonds>
donor molecule, donor type, donor heavy atom, donor atom, acceptor molecule, acceptor atom, score
      L1  H     3    22       P1  8028  0.95
      L1  H     6    23       P1  8028  0.95

> <Gold.Chemscore.Hbond.Weighted>
-6.5574

> <Gold.Chemscore.Metal.Weighted>
-0.0000

> <Gold.Chemscore.Lipo.Weighted>
-9.6971

> <Gold.Chemscore.Internal_Hbond.Weighted>
0.0000

> <Gold.Chemscore.DEClash.Weighted>
0.1302

> <Gold.Chemscore.DEInternal.Weighted>
3.2280

> <Gold.Chemscore.Rot.Weighted>
2.5600

> <Gold.Chemscore.Internal.Correction.Weighted>
   9.000000E+99

> <Gold.Protein.RotatedTorsions>
[ 6907 6896 6895 6894 ] final   70.67 input  -60.11 | X-H torsion
[ 7974 7965 7964 7962 ] final  153.67 input  175.53 | X-H torsion
[ 8008 7997 7996 7995 ] final  113.74 input   59.86 | X-H torsion
[ 10167 10162 10161 10158 ] final  -32.25 input  -65.29 | X-H torsion
[ 10718 10713 10712 10709 ] final  119.43 input   66.30 | X-H torsion
[ 10763 10752 10751 10750 ] final  174.59 input  -60.55 | X-H torsion
[ 11005 11000 10999 10996 ] final  -59.61 input  -57.11 | X-H torsion

> <Gold.Protein.ActiveResidues>
 VAL166  LYS551  ARG553  GLY616  TRP617  ASP618  TYR619  PRO620  LYS621  CYS622 
 ASP623  PHE694  ASN695  SER759  ASP760  ASP761  ALA762  ILE779  LEU786  VAL792 
 PHE793  MET794  SER795  GLU796  ALA797  LYS798  CYS799  TRP800  GLU811  SER814 

> <Gold.Protein.RotatedAtoms>
  152.4764  134.4834  159.9672 H   0  0  0  0  0  0  0  0  0  0  0  0  # atno 6907 bound_to 6896
  151.4849  133.3532  159.2852 H   0  0  0  0  0  0  0  0  0  0  0  0  # atno 6908 bound_to 6896
  150.8805  134.8222  159.7282 H   0  0  0  0  0  0  0  0  0  0  0  0  # atno 6909 bound_to 6896
  144.8139  139.6831  143.6130 H   0  0  0  0  0  0  0  0  0  0  0  0  # atno 7974 bound_to 7965
  156.2277  140.2973  156.0109 H   0  0  0  0  0  0  0  0  0  0  0  0  # atno 8008 bound_to 7997
  155.2311  140.0419  157.2979 H   0  0  0  0  0  0  0  0  0  0  0  0  # atno 8009 bound_to 7997
  154.5943  140.2410  155.7886 H   0  0  0  0  0  0  0  0  0  0  0  0  # atno 8010 bound_to 7997
  140.7224  143.3709  151.1781 H   0  0  0  0  0  0  0  0  0  0  0  0  # atno 10167 bound_to 10162
  157.5962  131.1057  150.7896 H   0  0  0  0  0  0  0  0  0  0  0  0  # atno 10718 bound_to 10713
  154.4560  135.2766  155.1747 H   0  0  0  0  0  0  0  0  0  0  0  0  # atno 10763 bound_to 10752
  154.3554  135.6141  153.5667 H   0  0  0  0  0  0  0  0  0  0  0  0  # atno 10764 bound_to 10752
  152.9851  135.5821  154.4914 H   0  0  0  0  0  0  0  0  0  0  0  0  # atno 10765 bound_to 10752
  141.1255  133.6617  156.5098 H   0  0  0  0  0  0  0  0  0  0  0  0  # atno 11005 bound_to 11000
  146.2440  139.6060  142.9472 LP  0  0  0  0  0  0  0  0  0  0  0  0  # atno 17320 bound_to 7965
  145.5260  141.0429  143.2409 LP  0  0  0  0  0  0  0  0  0  0  0  0  # atno 17321 bound_to 7965
  139.7279  143.9118  152.3009 LP  0  0  0  0  0  0  0  0  0  0  0  0  # atno 17342 bound_to 10162
  139.8898  144.6972  150.8784 LP  0  0  0  0  0  0  0  0  0  0  0  0  # atno 17343 bound_to 10162
  156.8306  130.5014  149.5332 LP  0  0  0  0  0  0  0  0  0  0  0  0  # atno 17370 bound_to 10713
  156.1025  130.5979  150.9917 LP  0  0  0  0  0  0  0  0  0  0  0  0  # atno 17371 bound_to 10713
  140.4378  134.7043  157.4976 LP  0  0  0  0  0  0  0  0  0  0  0  0  # atno 17394 bound_to 11000
  140.0250  134.6491  155.9186 LP  0  0  0  0  0  0  0  0  0  0  0  0  # atno 17395 bound_to 11000

$$$$
