AV-unprocessed.smi:2568|AV-procd|sdf|10092|dock8
  -GOLD-   2272014113D 1   1.00000     0.00000
 Structure written by MMmdl.
 25 26  0  0  0  0  0  0  0  0  2 V2000
  153.5173  137.9336  155.9195 C   0  0  0  0  0  0  0  0  0  0  0  0
  152.3318  138.2198  155.0625 C   0  0  0  0  0  0  0  0  0  0  0  0
  151.9070  137.3452  154.1521 N   0  0  0  0  0  0  0  0  0  0  0  0
  150.8430  137.9851  153.6230 N   0  0  0  0  0  0  0  0  0  0  0  0
  150.6917  139.1661  154.2272 C   0  0  0  0  0  0  0  0  0  0  0  0
  149.6008  140.1192  153.8530 C   0  0  2  0  0  0  0  0  0  0  0  0
  149.6517  141.4230  154.6729 C   0  0  0  0  0  0  0  0  0  0  0  0
  148.4979  142.2780  154.3325 N   0  3  0  0  0  0  0  0  0  0  0  0
  147.2213  141.5562  154.5039 C   0  0  0  0  0  0  0  0  0  0  0  0
  147.2416  140.2443  153.6996 C   0  0  0  0  0  0  0  0  0  0  0  0
  148.3614  139.4569  154.0922 O   0  0  0  0  0  0  0  0  0  0  0  0
  151.6166  139.3807  155.1584 N   0  0  0  0  0  0  0  0  0  0  0  0
  150.2750  137.5913  152.8864 H   0  0  0  0  0  0  0  0  0  0  0  0
  154.0427  137.0428  155.5731 H   0  0  0  0  0  0  0  0  0  0  0  0
  153.2044  137.7711  156.9510 H   0  0  0  0  0  0  0  0  0  0  0  0
  154.2122  138.7734  155.8959 H   0  0  0  0  0  0  0  0  0  0  0  0
  149.6874  140.3431  152.7877 H   0  0  0  0  0  0  0  0  0  0  0  0
  149.6270  141.2038  155.7414 H   0  0  0  0  0  0  0  0  0  0  0  0
  150.5763  141.9668  154.4769 H   0  0  0  0  0  0  0  0  0  0  0  0
  148.5020  143.0982  154.9222 H   0  0  0  0  0  0  0  0  0  0  0  0
  147.0682  141.3457  155.5632 H   0  0  0  0  0  0  0  0  0  0  0  0
  146.3981  142.1934  154.1803 H   0  0  0  0  0  0  0  0  0  0  0  0
  146.3287  139.6772  153.8825 H   0  0  0  0  0  0  0  0  0  0  0  0
  147.2824  140.4450  152.6279 H   0  0  0  0  0  0  0  0  0  0  0  0
  148.5802  142.5657  153.3678 H   0  0  0  0  0  0  0  0  0  0  0  0
  1  2  1  0  0  0  0
  1 14  1  0  0  0  0
  1 15  1  0  0  0  0
  1 16  1  0  0  0  0
  2 12  1  0  0  0  0
  2  3  2  0  0  0  0
  3  4  1  0  0  0  0
  4 13  1  0  0  0  0
  4  5  1  0  0  0  0
  5  6  1  0  0  0  0
  5 12  2  0  0  0  0
  6 11  1  0  0  0  0
  6  7  1  0  0  0  0
  6 17  1  0  0  0  0
  7  8  1  0  0  0  0
  7 18  1  0  0  0  0
  7 19  1  0  0  0  0
  8  9  1  0  0  0  0
  8 20  1  0  0  0  0
  8 25  1  0  0  0  0
  9 10  1  0  0  0  0
  9 21  1  0  0  0  0
  9 22  1  0  0  0  0
 10 11  1  0  0  0  0
 10 23  1  0  0  0  0
 10 24  1  0  0  0  0
M  CHG  1   8   1
M  END
> <s_m_source_file>
AV-unprocessed.smi

> <i_m_source_file_index>
2568

> <i_lp_mmshare_version>
43012

> <i_f3d_flags>
0

> <s_epik_input>
W0NIM11jMW5bbkhdYyhuMSlbQ0BASF0yW0NIMl1bTkhdW0NIMl1bQ0gyXU8y

> <s_epik_cmdline>
J2VwaWtfcHl0aG9uJywgJy1waCcsICc3LjAnLCAnLXRuJywgJzgnLCAnLW1hJywgJzIwMCcsICctbWV0YWxfYmluZGluZycsICctaW1hZScsICc8aW5maWxlLm1hZT4nLCAnLW9tYWUnLCAnPG91dGZpbGUubWFlPic=

> <r_epik_Ionization_Penalty>
0.166663

> <r_epik_Ionization_Penalty_Charging>
0.125708

> <r_epik_Ionization_Penalty_Neutral>
0.0409555

> <r_epik_State_Penalty>
1.3004

> <r_epik_Charging_Adjusted_Penalty>
1.42611

> <i_epik_Tot_Q>
1

> <i_epik_Tot_abs_Q>
1

> <r_epik_Metal_State_Penalty>
1.60166

> <b_epik_Metal_Only>
0

> <s_lp_Force_Field>
OPLS_2005

> <r_lp_Energy>
12.4533

> <b_lp_Chiralities_Consistent>
1

> <s_lp_Variant>
AV-unprocessed.smi:2568-5

> <Gold.Version>
5.8.1

> <Gold.Id.Protein>
6NUR|6NUR_protein|mol2

> <Gold.PLP.Fitness>
30.9689

> <Gold.PLP.PLP>
-18.9966

> <Gold.PLP.part.hbond>
-3.7723

> <Gold.PLP.part.metal>
0.0000

> <Gold.PLP.part.buried>
-0.9928

> <Gold.PLP.part.nonpolar>
-15.8279

> <Gold.PLP.part.repulsive>
1.6213

> <Gold.PLP.ligand.clash>
0.0000

> <Gold.PLP.ligand.torsion>
0.0012

> <Gold.PLP.Chemscore.Hbond>
3.9913

> <Gold.PLP.Chemscore.CHOScore>
0.0000

> <Gold.PLP.Chemscore.Metal>
0.0000

> <Gold.Chemscore.Hbonds>
donor molecule, donor type, donor heavy atom, donor atom, acceptor molecule, acceptor atom, score
      L1  H     4    13       P1  7948  0.51
      L1  H     8    20       P1  8028  2.00
      P1  H 10752 10765       L1     3  0.81

> <Gold.PLP.Chemscore.Internal.Correction>
0.0010

> <Gold.Rescore>
     Score         DG    S(hbond)    S(metal)    S(lipo)     H(rot)  DE(clash)    DE(int)     intcor
     13.41     -13.43       2.12        0.00      29.33       1.00       0.00       0.02       ----

> <Gold.Chemscore.Fitness>
13.4133

> <Gold.Chemscore.DG>
-13.4286

> <Gold.Chemscore.ZeroCoef>
-5.4800

> <Gold.Chemscore.Hbond>
2.1189

> <Gold.Chemscore.Metal>
0.0000

> <Gold.Chemscore.Lipo>
29.3294

> <Gold.Chemscore.Internal_Hbond>
0.0000

> <Gold.Chemscore.DEClash>
0.0000

> <Gold.Chemscore.DEInternal>
0.0152

> <Gold.Chemscore.Rot>
1.0000

> <Gold.Chemscore.Internal.Correction>
   9.000000E+99

> <Gold.Chemscore.Hbonds>
donor molecule, donor type, donor heavy atom, donor atom, acceptor molecule, acceptor atom, score
      L1  H     4    13       P1  7948  0.03
      L1  H     8    20       P1  8028  1.00
      P1  H 10752 10765       L1     3  0.41

> <Gold.Chemscore.Hbond.Weighted>
-7.0770

> <Gold.Chemscore.Metal.Weighted>
-0.0000

> <Gold.Chemscore.Lipo.Weighted>
-3.4315

> <Gold.Chemscore.Internal_Hbond.Weighted>
0.0000

> <Gold.Chemscore.DEClash.Weighted>
0.0000

> <Gold.Chemscore.DEInternal.Weighted>
0.0152

> <Gold.Chemscore.Rot.Weighted>
2.5600

> <Gold.Chemscore.Internal.Correction.Weighted>
   9.000000E+99

> <Gold.Protein.RotatedTorsions>
[ 6907 6896 6895 6894 ] final   29.45 input  -60.11 | X-H torsion
[ 7974 7965 7964 7962 ] final  112.61 input  175.53 | X-H torsion
[ 8008 7997 7996 7995 ] final -157.17 input   59.86 | X-H torsion
[ 10167 10162 10161 10158 ] final -130.76 input  -65.29 | X-H torsion
[ 10718 10713 10712 10709 ] final   77.17 input   66.30 | X-H torsion
[ 10763 10752 10751 10750 ] final  176.48 input  -60.55 | X-H torsion
[ 11005 11000 10999 10996 ] final  173.18 input  -57.11 | X-H torsion

> <Gold.Protein.ActiveResidues>
 VAL166  LYS551  ARG553  GLY616  TRP617  ASP618  TYR619  PRO620  LYS621  CYS622 
 ASP623  PHE694  ASN695  SER759  ASP760  ASP761  ALA762  ILE779  LEU786  VAL792 
 PHE793  MET794  SER795  GLU796  ALA797  LYS798  CYS799  TRP800  GLU811  SER814 

> <Gold.Protein.RotatedAtoms>
  152.0317  134.9764  160.0572 H   0  0  0  0  0  0  0  0  0  0  0  0  # atno 6907 bound_to 6896
  152.1238  133.4363  159.4696 H   0  0  0  0  0  0  0  0  0  0  0  0  # atno 6908 bound_to 6896
  150.6851  134.2422  159.4520 H   0  0  0  0  0  0  0  0  0  0  0  0  # atno 6909 bound_to 6896
  145.2274  139.2835  143.4186 H   0  0  0  0  0  0  0  0  0  0  0  0  # atno 7974 bound_to 7965
  155.7284  140.0799  157.2300 H   0  0  0  0  0  0  0  0  0  0  0  0  # atno 8008 bound_to 7997
  154.4036  140.1600  156.2535 H   0  0  0  0  0  0  0  0  0  0  0  0  # atno 8009 bound_to 7997
  155.9132  140.3402  155.6117 H   0  0  0  0  0  0  0  0  0  0  0  0  # atno 8010 bound_to 7997
  139.9259  143.6328  152.2542 H   0  0  0  0  0  0  0  0  0  0  0  0  # atno 10167 bound_to 10162
  157.6701  130.9809  150.1603 H   0  0  0  0  0  0  0  0  0  0  0  0  # atno 10718 bound_to 10713
  154.4817  135.2775  155.1565 H   0  0  0  0  0  0  0  0  0  0  0  0  # atno 10763 bound_to 10752
  154.3273  135.6197  153.5538 H   0  0  0  0  0  0  0  0  0  0  0  0  # atno 10764 bound_to 10752
  152.9876  135.5757  154.5219 H   0  0  0  0  0  0  0  0  0  0  0  0  # atno 10765 bound_to 10752
  140.3377  134.7303  157.4180 H   0  0  0  0  0  0  0  0  0  0  0  0  # atno 11005 bound_to 11000
  146.3361  140.2598  142.8601 LP  0  0  0  0  0  0  0  0  0  0  0  0  # atno 17320 bound_to 7965
  144.9709  140.8367  143.5456 LP  0  0  0  0  0  0  0  0  0  0  0  0  # atno 17321 bound_to 7965
  139.6822  144.7654  151.1588 LP  0  0  0  0  0  0  0  0  0  0  0  0  # atno 17342 bound_to 10162
  140.7650  143.5708  150.8998 LP  0  0  0  0  0  0  0  0  0  0  0  0  # atno 17343 bound_to 10162
  156.2381  130.3688  149.8368 LP  0  0  0  0  0  0  0  0  0  0  0  0  # atno 17370 bound_to 10713
  156.6176  130.8613  151.3468 LP  0  0  0  0  0  0  0  0  0  0  0  0  # atno 17371 bound_to 10713
  140.0807  134.5735  155.8544 LP  0  0  0  0  0  0  0  0  0  0  0  0  # atno 17394 bound_to 11000
  141.2047  133.6641  156.6134 LP  0  0  0  0  0  0  0  0  0  0  0  0  # atno 17395 bound_to 11000

$$$$
