AV-unprocessed.smi:1532|AV-procd|sdf|6160|dock3
  -GOLD-   22720 6313D 1   1.00000     0.00000
 Structure written by MMmdl.
 38 40  0  0  0  0  0  0  0  0  1 V2000
  153.0516  139.6384  158.0724 O   0  0  0  0  0  0  0  0  0  0  0  0
  152.7703  140.6904  158.6481 C   0  0  0  0  0  0  0  0  0  0  0  0
  153.4089  141.1283  159.8986 C   0  0  0  0  0  0  0  0  0  0  0  0
  154.4767  140.2257  160.5110 C   0  0  0  0  0  0  0  0  0  0  0  0
  155.6626  140.3959  159.9246 F   0  0  0  0  0  0  0  0  0  0  0  0
  154.6226  140.4879  161.8102 F   0  0  0  0  0  0  0  0  0  0  0  0
  154.1375  138.9426  160.3800 F   0  0  0  0  0  0  0  0  0  0  0  0
  153.0465  142.3021  160.4714 C   0  0  0  0  0  0  0  0  0  0  0  0
  152.0276  143.1315  159.8593 C   0  0  0  0  0  0  0  0  0  0  0  0
  151.5773  144.4417  160.4391 C   0  0  0  0  0  0  0  0  0  0  0  0
  150.4880  145.2636  159.7907 C   0  0  0  0  0  0  0  0  0  0  0  0
  151.9128  145.7677  159.7951 C   0  0  0  0  0  0  0  0  0  0  0  0
  151.4674  142.7437  158.7634 N   0  0  0  0  0  0  0  0  0  0  0  0
  151.8294  141.5540  158.1638 N   0  0  0  0  0  0  0  0  0  0  0  0
  151.1029  141.2724  156.9191 C   0  0  0  0  0  0  0  0  0  0  0  0
  149.5824  141.1256  157.1459 C   0  0  2  0  0  0  0  0  0  0  0  0
  149.3469  139.9645  157.9191 O   0  0  0  0  0  0  0  0  0  0  0  0
  148.8393  141.0722  155.8194 C   0  0  0  0  0  0  0  0  0  0  0  0
  149.1610  140.0976  154.8482 C   0  0  0  0  0  0  0  0  0  0  0  0
  148.4734  140.0660  153.6192 C   0  0  0  0  0  0  0  0  0  0  0  0
  147.4630  141.0097  153.3523 C   0  0  0  0  0  0  0  0  0  0  0  0
  147.1411  141.9860  154.3146 C   0  0  0  0  0  0  0  0  0  0  0  0
  146.1717  142.8956  154.0579 F   0  0  0  0  0  0  0  0  0  0  0  0
  147.8284  142.0178  155.5437 C   0  0  0  0  0  0  0  0  0  0  0  0
  153.5034  142.6405  161.3892 H   0  0  0  0  0  0  0  0  0  0  0  0
  151.5912  144.4060  161.5267 H   0  0  0  0  0  0  0  0  0  0  0  0
  150.0831  144.9172  158.8416 H   0  0  0  0  0  0  0  0  0  0  0  0
  149.7765  145.7594  160.4477 H   0  0  0  0  0  0  0  0  0  0  0  0
  152.1492  146.5997  160.4554 H   0  0  0  0  0  0  0  0  0  0  0  0
  152.4446  145.7620  158.8455 H   0  0  0  0  0  0  0  0  0  0  0  0
  151.2899  142.0928  156.2233 H   0  0  0  0  0  0  0  0  0  0  0  0
  151.5010  140.3862  156.4204 H   0  0  0  0  0  0  0  0  0  0  0  0
  149.2021  141.9763  157.7125 H   0  0  0  0  0  0  0  0  0  0  0  0
  149.6584  139.2149  157.4352 H   0  0  0  0  0  0  0  0  0  0  0  0
  149.9380  139.3723  155.0412 H   0  0  0  0  0  0  0  0  0  0  0  0
  148.7226  139.3185  152.8804 H   0  0  0  0  0  0  0  0  0  0  0  0
  146.9366  140.9858  152.4096 H   0  0  0  0  0  0  0  0  0  0  0  0
  147.5775  142.7736  156.2737 H   0  0  0  0  0  0  0  0  0  0  0  0
  1  2  2  0  0  0  0
  2 14  1  0  0  0  0
  2  3  1  0  0  0  0
  3  4  1  0  0  0  0
  3  8  2  0  0  0  0
  4  5  1  0  0  0  0
  4  6  1  0  0  0  0
  4  7  1  0  0  0  0
  8  9  1  0  0  0  0
  8 25  1  0  0  0  0
  9 10  1  0  0  0  0
  9 13  2  0  0  0  0
 10 12  1  0  0  0  0
 10 11  1  0  0  0  0
 10 26  1  0  0  0  0
 11 12  1  0  0  0  0
 11 27  1  0  0  0  0
 11 28  1  0  0  0  0
 12 29  1  0  0  0  0
 12 30  1  0  0  0  0
 13 14  1  0  0  0  0
 14 15  1  0  0  0  0
 15 16  1  0  0  0  0
 15 31  1  0  0  0  0
 15 32  1  0  0  0  0
 16 17  1  0  0  0  0
 16 18  1  0  0  0  0
 16 33  1  0  0  0  0
 17 34  1  0  0  0  0
 18 24  1  0  0  0  0
 18 19  2  0  0  0  0
 19 20  1  0  0  0  0
 19 35  1  0  0  0  0
 20 21  2  0  0  0  0
 20 36  1  0  0  0  0
 21 22  1  0  0  0  0
 21 37  1  0  0  0  0
 22 23  1  0  0  0  0
 22 24  2  0  0  0  0
 24 38  1  0  0  0  0
M  END
> <s_m_source_file>
AV-unprocessed.smi

> <i_m_source_file_index>
1532

> <i_lp_mmshare_version>
43012

> <i_f3d_flags>
0

> <s_epik_input>
Tz1jMWMoQyhGKShGKUYpW2NIXWMoW0NIXTJbQ0gyXVtDSDJdMilubjFbQ0gyXVtDQEhdKFtPSF0pYzNbY0hdW2NIXVtjSF1jKEYpW2NIXTM=

> <s_epik_cmdline>
J2VwaWtfcHl0aG9uJywgJy1waCcsICc3LjAnLCAnLXRuJywgJzgnLCAnLW1hJywgJzIwMCcsICctbWV0YWxfYmluZGluZycsICctaW1hZScsICc8aW5maWxlLm1hZT4nLCAnLW9tYWUnLCAnPG91dGZpbGUubWFlPic=

> <r_lp_tautomer_probability>
1

> <r_epik_Ionization_Penalty>
1.69012e-07

> <r_epik_Ionization_Penalty_Charging>
9.677e-10

> <r_epik_Ionization_Penalty_Neutral>
1.68044e-07

> <r_epik_State_Penalty>
-0

> <r_epik_Charging_Adjusted_Penalty>
9.677e-10

> <i_epik_Tot_Q>
0

> <i_epik_Tot_abs_Q>
0

> <r_epik_Metal_State_Penalty>
-0

> <b_epik_Metal_Only>
0

> <s_lp_Force_Field>
OPLS_2005

> <r_lp_Energy>
33.1726

> <b_lp_Chiralities_Consistent>
1

> <s_lp_Variant>
AV-unprocessed.smi:1532-1

> <Gold.Version>
5.8.1

> <Gold.Id.Protein>
6NUR|6NUR_protein|mol2

> <Gold.PLP.Fitness>
53.0266

> <Gold.PLP.PLP>
-51.5830

> <Gold.PLP.part.hbond>
-1.0000

> <Gold.PLP.part.metal>
0.0000

> <Gold.PLP.part.buried>
-0.7387

> <Gold.PLP.part.nonpolar>
-49.9257

> <Gold.PLP.part.repulsive>
0.0243

> <Gold.PLP.ligand.clash>
0.0000

> <Gold.PLP.ligand.torsion>
1.0906

> <Gold.PLP.Chemscore.Hbond>
1.0000

> <Gold.PLP.Chemscore.CHOScore>
0.0000

> <Gold.PLP.Chemscore.Metal>
0.0000

> <Gold.Chemscore.Hbonds>
donor molecule, donor type, donor heavy atom, donor atom, acceptor molecule, acceptor atom, score
      P1  H  7997  8010       L1     1  1.00

> <Gold.PLP.Chemscore.Internal.Correction>
0.6249

> <Gold.Rescore>
     Score         DG    S(hbond)    S(metal)    S(lipo)     H(rot)  DE(clash)    DE(int)     intcor
     13.08     -15.80       0.89        0.00     110.86       2.20       0.12       2.60       ----

> <Gold.Chemscore.Fitness>
13.0790

> <Gold.Chemscore.DG>
-15.7998

> <Gold.Chemscore.ZeroCoef>
-5.4800

> <Gold.Chemscore.Hbond>
0.8927

> <Gold.Chemscore.Metal>
0.0000

> <Gold.Chemscore.Lipo>
110.8643

> <Gold.Chemscore.Internal_Hbond>
0.0000

> <Gold.Chemscore.DEClash>
0.1190

> <Gold.Chemscore.DEInternal>
2.6018

> <Gold.Chemscore.Rot>
2.2003

> <Gold.Chemscore.Internal.Correction>
   9.000000E+99

> <Gold.Chemscore.Hbonds>
donor molecule, donor type, donor heavy atom, donor atom, acceptor molecule, acceptor atom, score
      P1  H  7997  8010       L1     1  0.50

> <Gold.Chemscore.Hbond.Weighted>
-2.9815

> <Gold.Chemscore.Metal.Weighted>
-0.0000

> <Gold.Chemscore.Lipo.Weighted>
-12.9711

> <Gold.Chemscore.Internal_Hbond.Weighted>
0.0000

> <Gold.Chemscore.DEClash.Weighted>
0.1190

> <Gold.Chemscore.DEInternal.Weighted>
2.6018

> <Gold.Chemscore.Rot.Weighted>
5.6328

> <Gold.Chemscore.Internal.Correction.Weighted>
   9.000000E+99

> <Gold.Protein.RotatedTorsions>
[ 6907 6896 6895 6894 ] final  -29.02 input  -60.11 | X-H torsion
[ 7974 7965 7964 7962 ] final -159.29 input  175.53 | X-H torsion
[ 8008 7997 7996 7995 ] final   29.53 input   59.86 | X-H torsion
[ 10167 10162 10161 10158 ] final  155.19 input  -65.29 | X-H torsion
[ 10718 10713 10712 10709 ] final   10.67 input   66.30 | X-H torsion
[ 10763 10752 10751 10750 ] final  -40.91 input  -60.55 | X-H torsion
[ 11005 11000 10999 10996 ] final   58.99 input  -57.11 | X-H torsion

> <Gold.Protein.ActiveResidues>
 VAL166  LYS551  ARG553  GLY616  TRP617  ASP618  TYR619  PRO620  LYS621  CYS622 
 ASP623  PHE694  ASN695  SER759  ASP760  ASP761  ALA762  ILE779  LEU786  VAL792 
 PHE793  MET794  SER795  GLU796  ALA797  LYS798  CYS799  TRP800  GLU811  SER814 

> <Gold.Protein.RotatedAtoms>
  151.1249  135.0099  159.8555 H   0  0  0  0  0  0  0  0  0  0  0  0  # atno 6907 bound_to 6896
  152.5449  134.1679  159.8595 H   0  0  0  0  0  0  0  0  0  0  0  0  # atno 6908 bound_to 6896
  151.1740  133.4721  159.2627 H   0  0  0  0  0  0  0  0  0  0  0  0  # atno 6909 bound_to 6896
  144.7471  140.3706  143.6077 H   0  0  0  0  0  0  0  0  0  0  0  0  # atno 7974 bound_to 7965
  155.0760  140.3205  155.4616 H   0  0  0  0  0  0  0  0  0  0  0  0  # atno 8008 bound_to 7997
  156.2779  140.2103  156.5833 H   0  0  0  0  0  0  0  0  0  0  0  0  # atno 8009 bound_to 7997
  154.7016  140.0506  157.0451 H   0  0  0  0  0  0  0  0  0  0  0  0  # atno 8010 bound_to 7997
  139.4821  144.5121  151.8009 H   0  0  0  0  0  0  0  0  0  0  0  0  # atno 10167 bound_to 10162
  156.9844  130.6018  149.5680 H   0  0  0  0  0  0  0  0  0  0  0  0  # atno 10718 bound_to 10713
  153.9538  135.6747  153.4744 H   0  0  0  0  0  0  0  0  0  0  0  0  # atno 10763 bound_to 10752
  153.0871  135.4893  154.8615 H   0  0  0  0  0  0  0  0  0  0  0  0  # atno 10764 bound_to 10752
  154.7310  135.3138  154.8850 H   0  0  0  0  0  0  0  0  0  0  0  0  # atno 10765 bound_to 10752
  140.0337  134.5975  155.9473 H   0  0  0  0  0  0  0  0  0  0  0  0  # atno 11005 bound_to 11000
  145.7082  139.1678  143.2554 LP  0  0  0  0  0  0  0  0  0  0  0  0  # atno 17320 bound_to 7965
  146.1366  140.7114  142.9387 LP  0  0  0  0  0  0  0  0  0  0  0  0  # atno 17321 bound_to 7965
  140.4625  144.1702  150.5908 LP  0  0  0  0  0  0  0  0  0  0  0  0  # atno 17342 bound_to 10162
  140.4469  143.2503  151.9399 LP  0  0  0  0  0  0  0  0  0  0  0  0  # atno 17343 bound_to 10162
  156.0231  130.5326  150.8333 LP  0  0  0  0  0  0  0  0  0  0  0  0  # atno 17370 bound_to 10713
  157.5503  131.0943  150.9705 LP  0  0  0  0  0  0  0  0  0  0  0  0  # atno 17371 bound_to 10713
  141.1845  133.6553  156.5160 LP  0  0  0  0  0  0  0  0  0  0  0  0  # atno 17394 bound_to 11000
  140.4184  134.7210  157.4876 LP  0  0  0  0  0  0  0  0  0  0  0  0  # atno 17395 bound_to 11000

$$$$
