AV-unprocessed.smi:284|AV-procd|sdf|2159|dock1
  -GOLD-   2262021513D 1   1.00000     0.00000
 Structure written by MMmdl.
 60 62  0  0  0  0  0  0  0  0  1 V2000
  147.5956  128.4621  153.2207 C   0  0  0  0  0  0  0  0  0  0  0  0
  147.7727  129.9693  153.3217 C   0  0  0  0  0  0  0  0  0  0  0  0
  147.0577  130.8302  152.5618 C   0  0  0  0  0  0  0  0  0  0  0  0
  147.1993  132.2034  152.6196 N   0  0  0  0  0  0  0  0  0  0  0  0
  146.3291  133.0773  151.7415 C   0  0  2  0  0  0  0  0  0  0  0  0
  145.1187  133.6729  152.4750 C   0  0  0  0  0  0  0  0  0  0  0  0
  144.1093  133.7644  151.3486 C   0  0  2  0  0  0  0  0  0  0  0  0
  142.7884  133.7276  151.8488 O   0  0  0  0  0  0  0  0  0  0  0  0
  144.4544  132.5219  150.5163 C   0  0  1  0  0  0  0  0  0  0  0  0
  144.0689  132.5527  149.0267 C   0  0  0  0  0  0  0  0  0  0  0  0
  142.7322  132.1446  148.8188 O   0  0  0  0  0  0  0  0  0  0  0  0
  145.8561  132.3145  150.6707 O   0  0  0  0  0  0  0  0  0  0  0  0
  148.1002  132.7718  153.5476 C   0  0  0  0  0  0  0  0  0  0  0  0
  148.2208  133.9939  153.6526 O   0  0  0  0  0  0  0  0  0  0  0  0
  148.8633  131.8993  154.3564 N   0  0  0  0  0  0  0  0  0  0  0  0
  149.8456  132.4796  155.3000 C   0  0  0  0  0  0  0  0  0  0  0  0
  149.2160  133.4264  156.3347 C   0  0  0  0  0  0  0  0  0  0  0  0
  148.9232  134.5829  156.0273 O   0  0  0  0  0  0  0  0  0  0  0  0
  148.9938  132.8836  157.5457 N   0  0  0  0  0  0  0  0  0  0  0  0
  148.4490  133.5015  158.7038 C   0  0  0  0  0  0  0  0  0  0  0  0
  147.9467  134.8102  158.5685 C   0  0  0  0  0  0  0  0  0  0  0  0
  147.3791  135.4797  159.6695 C   0  0  0  0  0  0  0  0  0  0  0  0
  147.2899  134.8495  160.9353 C   0  0  0  0  0  0  0  0  0  0  0  0
  146.6815  135.5493  162.1660 C   0  0  0  0  0  0  0  0  0  0  0  0
  146.0097  136.8687  161.7322 C   0  0  0  0  0  0  0  0  0  0  0  0
  147.7321  135.8910  163.2466 C   0  0  0  0  0  0  0  0  0  0  0  0
  145.6256  134.6300  162.8152 C   0  0  0  0  0  0  0  0  0  0  0  0
  147.7772  133.5267  161.0560 C   0  0  0  0  0  0  0  0  0  0  0  0
  148.3450  132.8554  159.9567 C   0  0  0  0  0  0  0  0  0  0  0  0
  148.7512  130.4892  154.2792 C   0  0  0  0  0  0  0  0  0  0  0  0
  149.4525  129.7639  154.9872 O   0  0  0  0  0  0  0  0  0  0  0  0
  146.8554  128.1899  152.4678 H   0  0  0  0  0  0  0  0  0  0  0  0
  147.2667  128.0519  154.1762 H   0  0  0  0  0  0  0  0  0  0  0  0
  148.5374  127.9841  152.9484 H   0  0  0  0  0  0  0  0  0  0  0  0
  146.3417  130.4164  151.8659 H   0  0  0  0  0  0  0  0  0  0  0  0
  146.9774  133.8555  151.3378 H   0  0  0  0  0  0  0  0  0  0  0  0
  144.7678  133.0080  153.2635 H   0  0  0  0  0  0  0  0  0  0  0  0
  145.3663  134.6368  152.9203 H   0  0  0  0  0  0  0  0  0  0  0  0
  144.2733  134.6851  150.7880 H   0  0  0  0  0  0  0  0  0  0  0  0
  142.1898  133.8130  151.1222 H   0  0  0  0  0  0  0  0  0  0  0  0
  143.9797  131.6520  150.9730 H   0  0  0  0  0  0  0  0  0  0  0  0
  144.2146  133.5510  148.6131 H   0  0  0  0  0  0  0  0  0  0  0  0
  144.7157  131.8772  148.4665 H   0  0  0  0  0  0  0  0  0  0  0  0
  142.1591  132.8519  149.0724 H   0  0  0  0  0  0  0  0  0  0  0  0
  150.3906  131.7008  155.8356 H   0  0  0  0  0  0  0  0  0  0  0  0
  150.6256  133.0196  154.7605 H   0  0  0  0  0  0  0  0  0  0  0  0
  149.1823  131.8953  157.6289 H   0  0  0  0  0  0  0  0  0  0  0  0
  148.0014  135.3140  157.6142 H   0  0  0  0  0  0  0  0  0  0  0  0
  147.0185  136.4838  159.5103 H   0  0  0  0  0  0  0  0  0  0  0  0
  145.5852  137.3970  162.5866 H   0  0  0  0  0  0  0  0  0  0  0  0
  145.1972  136.7034  161.0244 H   0  0  0  0  0  0  0  0  0  0  0  0
  146.7272  137.5387  161.2569 H   0  0  0  0  0  0  0  0  0  0  0  0
  148.4963  136.5700  162.8663 H   0  0  0  0  0  0  0  0  0  0  0  0
  148.2297  134.9965  163.6232 H   0  0  0  0  0  0  0  0  0  0  0  0
  147.2707  136.3821  164.1042 H   0  0  0  0  0  0  0  0  0  0  0  0
  145.1912  135.0899  163.7036 H   0  0  0  0  0  0  0  0  0  0  0  0
  146.0649  133.6796  163.1206 H   0  0  0  0  0  0  0  0  0  0  0  0
  144.8017  134.4076  162.1371 H   0  0  0  0  0  0  0  0  0  0  0  0
  147.7167  133.0071  162.0004 H   0  0  0  0  0  0  0  0  0  0  0  0
  148.6823  131.8398  160.0961 H   0  0  0  0  0  0  0  0  0  0  0  0
  1  2  1  0  0  0  0
  1 32  1  0  0  0  0
  1 33  1  0  0  0  0
  1 34  1  0  0  0  0
  2 30  1  0  0  0  0
  2  3  2  0  0  0  0
  3  4  1  0  0  0  0
  3 35  1  0  0  0  0
  4  5  1  0  0  0  0
  4 13  1  0  0  0  0
  5 12  1  0  0  0  0
  5  6  1  0  0  0  0
  5 36  1  0  0  0  0
  6  7  1  0  0  0  0
  6 37  1  0  0  0  0
  6 38  1  0  0  0  0
  7  8  1  0  0  0  0
  7  9  1  0  0  0  0
  7 39  1  0  0  0  0
  8 40  1  0  0  0  0
  9 10  1  0  0  0  0
  9 12  1  0  0  0  0
  9 41  1  0  0  0  0
 10 11  1  0  0  0  0
 10 42  1  0  0  0  0
 10 43  1  0  0  0  0
 11 44  1  0  0  0  0
 13 14  2  0  0  0  0
 13 15  1  0  0  0  0
 15 16  1  0  0  0  0
 15 30  1  0  0  0  0
 16 17  1  0  0  0  0
 16 45  1  0  0  0  0
 16 46  1  0  0  0  0
 17 18  2  0  0  0  0
 17 19  1  0  0  0  0
 19 20  1  0  0  0  0
 19 47  1  0  0  0  0
 20 29  1  0  0  0  0
 20 21  2  0  0  0  0
 21 22  1  0  0  0  0
 21 48  1  0  0  0  0
 22 23  2  0  0  0  0
 22 49  1  0  0  0  0
 23 24  1  0  0  0  0
 23 28  1  0  0  0  0
 24 25  1  0  0  0  0
 24 26  1  0  0  0  0
 24 27  1  0  0  0  0
 25 50  1  0  0  0  0
 25 51  1  0  0  0  0
 25 52  1  0  0  0  0
 26 53  1  0  0  0  0
 26 54  1  0  0  0  0
 26 55  1  0  0  0  0
 27 56  1  0  0  0  0
 27 57  1  0  0  0  0
 27 58  1  0  0  0  0
 28 29  2  0  0  0  0
 28 59  1  0  0  0  0
 29 60  1  0  0  0  0
 30 31  2  0  0  0  0
M  END
> <s_m_source_file>
AV-unprocessed.smi

> <i_m_source_file_index>
284

> <i_lp_mmshare_version>
43012

> <i_f3d_flags>
0

> <s_epik_input>
W09IXVtDSDJdW0NAQEhdKE8xKVtDQEhdKFtPSF0pW0NIMl1bQ0BIXTFuKFtjSF1jMltDSDNdKWMoPU8pbihjMj1PKVtDSDJdQyg9TylbTkhdYzNbY0hdW2NIXWMoQyhbQ0gzXSkoW0NIM10pW0NIM10pW2NIXVtjSF0z

> <s_epik_cmdline>
J2VwaWtfcHl0aG9uJywgJy1waCcsICc3LjAnLCAnLXRuJywgJzgnLCAnLW1hJywgJzIwMCcsICctbWV0YWxfYmluZGluZycsICctaW1hZScsICc8aW5maWxlLm1hZT4nLCAnLW9tYWUnLCAnPG91dGZpbGUubWFlPic=

> <r_lp_tautomer_probability>
1

> <r_epik_Ionization_Penalty>
4.92358e-06

> <r_epik_Ionization_Penalty_Charging>
1.29777e-07

> <r_epik_Ionization_Penalty_Neutral>
4.79381e-06

> <r_epik_State_Penalty>
-0

> <r_epik_Charging_Adjusted_Penalty>
1.29777e-07

> <i_epik_Tot_Q>
0

> <i_epik_Tot_abs_Q>
0

> <r_epik_Metal_State_Penalty>
-0

> <b_epik_Metal_Only>
0

> <s_epik_Chemistry_Notes>
This compound contains an acetal/aminal-like group ( X-CH(R)-Y where X, Y are N, S, or O) that may be acid/base labile, releasing an aldehyde.

> <s_lp_Force_Field>
OPLS_2005

> <r_lp_Energy>
37.3901

> <b_lp_Chiralities_Consistent>
1

> <s_lp_Variant>
AV-unprocessed.smi:284-3

> <Gold.Version>
5.8.1

> <Gold.Id.Protein>
6NUR|6NUR_protein|mol2

> <Gold.PLP.Fitness>
54.8728

> <Gold.PLP.PLP>
-49.9058

> <Gold.PLP.part.hbond>
-4.0000

> <Gold.PLP.part.metal>
0.0000

> <Gold.PLP.part.buried>
-7.5122

> <Gold.PLP.part.nonpolar>
-40.4822

> <Gold.PLP.part.repulsive>
1.9347

> <Gold.PLP.ligand.clash>
0.6601

> <Gold.PLP.ligand.torsion>
1.3832

> <Gold.PLP.Chemscore.Hbond>
2.7500

> <Gold.PLP.Chemscore.CHOScore>
0.0000

> <Gold.PLP.Chemscore.Metal>
0.0000

> <Gold.Chemscore.Hbonds>
donor molecule, donor type, donor heavy atom, donor atom, acceptor molecule, acceptor atom, score
      L1  H     8    40       P1 10186  0.96
      L1  H    11    44       P1 10186  1.00
      P1  H 10785 10796       L1    11  0.71

> <Gold.PLP.Chemscore.Internal.Correction>
0.1435

> <Gold.Rescore>
     Score         DG    S(hbond)    S(metal)    S(lipo)     H(rot)  DE(clash)    DE(int)     intcor
     10.14     -15.77       1.59        0.00     114.10       3.27       0.04       5.59       ----

> <Gold.Chemscore.Fitness>
10.1395

> <Gold.Chemscore.DG>
-15.7650

> <Gold.Chemscore.ZeroCoef>
-5.4800

> <Gold.Chemscore.Hbond>
1.5913

> <Gold.Chemscore.Metal>
0.0000

> <Gold.Chemscore.Lipo>
114.1037

> <Gold.Chemscore.Internal_Hbond>
0.0000

> <Gold.Chemscore.DEClash>
0.0402

> <Gold.Chemscore.DEInternal>
5.5853

> <Gold.Chemscore.Rot>
3.2735

> <Gold.Chemscore.Internal.Correction>
   9.000000E+99

> <Gold.Chemscore.Hbonds>
donor molecule, donor type, donor heavy atom, donor atom, acceptor molecule, acceptor atom, score
      L1  H     8    40       P1 10186  0.32
      L1  H    11    44       P1 10186  0.97
      P1  H 10785 10796       L1    11  0.08

> <Gold.Chemscore.Hbond.Weighted>
-5.3150

> <Gold.Chemscore.Metal.Weighted>
-0.0000

> <Gold.Chemscore.Lipo.Weighted>
-13.3501

> <Gold.Chemscore.Internal_Hbond.Weighted>
0.0000

> <Gold.Chemscore.DEClash.Weighted>
0.0402

> <Gold.Chemscore.DEInternal.Weighted>
5.5853

> <Gold.Chemscore.Rot.Weighted>
8.3801

> <Gold.Chemscore.Internal.Correction.Weighted>
   9.000000E+99

> <Gold.Protein.RotatedTorsions>
[ 6907 6896 6895 6894 ] final   53.73 input  -60.11 | X-H torsion
[ 7974 7965 7964 7962 ] final -174.68 input  175.53 | X-H torsion
[ 8008 7997 7996 7995 ] final   45.40 input   59.86 | X-H torsion
[ 10167 10162 10161 10158 ] final  101.19 input  -65.29 | X-H torsion
[ 10718 10713 10712 10709 ] final -129.44 input   66.30 | X-H torsion
[ 10763 10752 10751 10750 ] final -107.73 input  -60.55 | X-H torsion
[ 11005 11000 10999 10996 ] final  -44.31 input  -57.11 | X-H torsion

> <Gold.Protein.ActiveResidues>
 VAL166  LYS551  ARG553  GLY616  TRP617  ASP618  TYR619  PRO620  LYS621  CYS622 
 ASP623  PHE694  ASN695  SER759  ASP760  ASP761  ALA762  ILE779  LEU786  VAL792 
 PHE793  MET794  SER795  GLU796  ALA797  LYS798  CYS799  TRP800  GLU811  SER814 

> <Gold.Protein.RotatedAtoms>
  152.3367  134.7189  160.0274 H   0  0  0  0  0  0  0  0  0  0  0  0  # atno 6907 bound_to 6896
  151.7588  133.3327  159.3420 H   0  0  0  0  0  0  0  0  0  0  0  0  # atno 6908 bound_to 6896
  150.7455  134.6057  159.6104 H   0  0  0  0  0  0  0  0  0  0  0  0  # atno 6909 bound_to 6896
  144.7131  140.1435  143.6390 H   0  0  0  0  0  0  0  0  0  0  0  0  # atno 7974 bound_to 7965
  155.3352  140.3405  155.4239 H   0  0  0  0  0  0  0  0  0  0  0  0  # atno 8008 bound_to 7997
  156.1841  140.1674  156.8254 H   0  0  0  0  0  0  0  0  0  0  0  0  # atno 8009 bound_to 7997
  154.5367  140.0733  156.8422 H   0  0  0  0  0  0  0  0  0  0  0  0  # atno 8010 bound_to 7997
  139.7460  144.6998  151.0503 H   0  0  0  0  0  0  0  0  0  0  0  0  # atno 10167 bound_to 10162
  156.2047  130.6880  151.0580 H   0  0  0  0  0  0  0  0  0  0  0  0  # atno 10718 bound_to 10713
  154.8093  135.4664  154.0474 H   0  0  0  0  0  0  0  0  0  0  0  0  # atno 10763 bound_to 10752
  153.1918  135.6856  153.8350 H   0  0  0  0  0  0  0  0  0  0  0  0  # atno 10764 bound_to 10752
  153.7865  135.3249  155.3350 H   0  0  0  0  0  0  0  0  0  0  0  0  # atno 10765 bound_to 10752
  141.0442  133.6768  156.2854 H   0  0  0  0  0  0  0  0  0  0  0  0  # atno 11005 bound_to 11000
  145.9180  139.2528  143.1398 LP  0  0  0  0  0  0  0  0  0  0  0  0  # atno 17320 bound_to 7965
  145.9649  140.8806  143.0192 LP  0  0  0  0  0  0  0  0  0  0  0  0  # atno 17321 bound_to 7965
  140.7792  143.4866  150.9948 LP  0  0  0  0  0  0  0  0  0  0  0  0  # atno 17342 bound_to 10162
  139.8554  143.7384  152.3176 LP  0  0  0  0  0  0  0  0  0  0  0  0  # atno 17343 bound_to 10162
  157.7005  131.0777  150.6834 LP  0  0  0  0  0  0  0  0  0  0  0  0  # atno 17370 bound_to 10713
  156.6892  130.4590  149.5605 LP  0  0  0  0  0  0  0  0  0  0  0  0  # atno 17371 bound_to 10713
  140.6178  134.5392  157.5543 LP  0  0  0  0  0  0  0  0  0  0  0  0  # atno 17394 bound_to 11000
  139.9299  134.7984  156.0962 LP  0  0  0  0  0  0  0  0  0  0  0  0  # atno 17395 bound_to 11000

$$$$
